LIB_VOJUDERLBZKDIW__M_PUB_ALL__e8__s20260927
     RDKit          3D

102107  0  0  0  0  0  0  0  0999 V2000
    2.5740  -11.9990   -4.6400 C   0  0  0  0  0  0  0  0  0  0  0  0
    3.8580  -12.2250   -4.2980 C   0  0  0  0  0  0  0  0  0  0  0  0
    4.3550  -12.4230   -2.8510 C   0  0  1  0  0  0  0  0  0  0  0  0
    3.2410  -12.7990   -1.8460 C   0  0  0  0  0  0  0  0  0  0  0  0
    2.6180  -11.8040   -1.1800 C   0  0  0  0  0  0  0  0  0  0  0  0
    1.5110  -11.9680   -0.1840 C   0  0  0  0  0  0  0  0  0  0  0  0
    0.9090  -13.3890   -0.1610 C   0  0  2  0  0  0  0  0  0  0  0  0
   -0.2730  -13.5820    0.8960 C   0  0  1  0  0  0  0  0  0  0  0  0
    0.1390  -13.1560    2.3270 C   0  0  0  0  0  0  0  0  0  0  0  0
   -1.4650  -12.6470    0.4710 C   0  0  0  0  0  0  0  0  0  0  0  0
   -2.8630  -13.2840    0.5100 C   0  0  1  0  0  0  0  0  0  0  0  0
   -3.1190  -13.9560   -0.7270 O   0  0  0  0  0  0  0  0  0  0  0  0
   -3.0600  -14.2490    1.6900 C   0  0  2  0  0  0  0  0  0  0  0  0
   -3.0320  -13.4820    2.8980 O   0  0  0  0  0  0  0  0  0  0  0  0
   -2.0300  -15.4330    1.6950 C   0  0  1  0  0  0  0  0  0  0  0  0
   -1.6870  -15.8730    3.1380 C   0  0  0  0  0  0  0  0  0  0  0  0
   -2.7190  -16.6540    1.0020 C   0  0  0  0  0  0  0  0  0  0  0  0
   -2.5350  -16.6150   -0.4130 O   0  0  0  0  0  0  0  0  0  0  0  0
   -0.7420  -15.0760    0.8450 C   0  0  2  0  0  0  0  0  0  0  0  0
    0.4430  -16.0400    1.0590 C   0  0  0  0  0  0  0  0  0  0  0  0
    1.4660  -15.8860   -0.0660 C   0  0  0  0  0  0  0  0  0  0  0  0
    2.0670  -14.4610   -0.1930 C   0  0  2  0  0  0  0  0  0  0  0  0
    3.0410  -14.2600    1.0100 C   0  0  0  0  0  0  0  0  0  0  0  0
    2.8920  -14.2850   -1.6000 C   0  0  1  0  0  0  0  0  0  0  0  0
    2.0580  -14.7850   -2.8160 C   0  0  0  0  0  0  0  0  0  0  0  0
    4.1900  -15.1410   -1.5720 C   0  0  0  0  0  0  0  0  0  0  0  0
    5.1770  -14.8300   -2.6980 C   0  0  0  0  0  0  0  0  0  0  0  0
    5.6110  -13.3440   -2.7090 C   0  0  2  0  0  0  0  0  0  0  0  0
    6.3410  -12.9590   -1.4030 C   0  0  0  0  0  0  0  0  0  0  0  0
    5.9430  -12.1220   -0.6020 O   0  0  0  0  0  0  0  0  0  0  0  0
    7.5330  -13.6060   -1.2970 O   0  0  0  0  0  0  0  0  0  0  0  0
    8.6740  -12.7560   -1.1210 C   0  0  2  0  0  0  0  0  0  0  0  0
    9.6490  -13.0810   -2.1220 O   0  0  0  0  0  0  0  0  0  0  0  0
   10.8290  -12.2690   -2.0130 C   0  0  2  0  0  0  0  0  0  0  0  0
   11.7180  -12.5850   -3.2190 C   0  0  0  0  0  0  0  0  0  0  0  0
   12.5710  -11.4810   -3.5120 O   0  0  0  0  0  0  0  0  0  0  0  0
   11.5290  -12.5660   -0.6770 C   0  0  1  0  0  0  0  0  0  0  0  0
   12.7030  -11.7710   -0.4890 O   0  0  0  0  0  0  0  0  0  0  0  0
   10.5580  -12.2590    0.4650 C   0  0  2  0  0  0  0  0  0  0  0  0
   11.1440  -12.6250    1.7260 O   0  0  0  0  0  0  0  0  0  0  0  0
    9.2420  -13.0170    0.2870 C   0  0  1  0  0  0  0  0  0  0  0  0
    8.3270  -12.5990    1.3110 O   0  0  0  0  0  0  0  0  0  0  0  0
    6.6610  -13.1360   -3.8380 C   0  0  0  0  0  0  0  0  0  0  0  0
    6.3250  -11.9890   -4.7840 C   0  0  0  0  0  0  0  0  0  0  0  0
    4.9220  -12.1300   -5.3830 C   0  0  1  0  0  0  0  0  0  0  0  0
    4.8420  -13.3070   -6.3640 C   0  0  0  0  0  0  0  0  0  0  0  0
    2.3014  -11.8682   -5.6976 H   0  0  0  0  0  0  0  0  0  0  0  0
    1.7987  -11.9454   -3.8615 H   0  0  0  0  0  0  0  0  0  0  0  0
    4.6973  -11.4165   -2.5686 H   0  0  0  0  0  0  0  0  0  0  0  0
    2.9543  -10.7775   -1.3878 H   0  0  0  0  0  0  0  0  0  0  0  0
    1.9068  -11.7413    0.8170 H   0  0  0  0  0  0  0  0  0  0  0  0
    0.7052  -11.2800   -0.4796 H   0  0  0  0  0  0  0  0  0  0  0  0
    0.3420  -13.5673   -1.0866 H   0  0  0  0  0  0  0  0  0  0  0  0
   -0.4296  -13.7439    3.0626 H   0  0  0  0  0  0  0  0  0  0  0  0
    1.2152  -13.3352    2.4674 H   0  0  0  0  0  0  0  0  0  0  0  0
   -0.0760  -12.0864    2.4674 H   0  0  0  0  0  0  0  0  0  0  0  0
   -1.4707  -11.7794    1.1472 H   0  0  0  0  0  0  0  0  0  0  0  0
   -1.2827  -12.3921   -0.5834 H   0  0  0  0  0  0  0  0  0  0  0  0
   -3.5843  -12.4665    0.6563 H   0  0  0  0  0  0  0  0  0  0  0  0
   -3.4120  -13.2790   -1.3630 H   0  0  0  0  0  0  0  0  0  0  0  0
   -4.0365  -14.7461    1.5934 H   0  0  0  0  0  0  0  0  0  0  0  0
   -2.6720  -12.6090    2.6640 H   0  0  0  0  0  0  0  0  0  0  0  0
   -2.2004  -15.2144    3.8540 H   0  0  0  0  0  0  0  0  0  0  0  0
   -2.0167  -16.9109    3.2930 H   0  0  0  0  0  0  0  0  0  0  0  0
   -0.6000  -15.8065    3.2930 H   0  0  0  0  0  0  0  0  0  0  0  0
   -2.2819  -17.5836    1.3953 H   0  0  0  0  0  0  0  0  0  0  0  0
   -3.7975  -16.6126    1.2146 H   0  0  0  0  0  0  0  0  0  0  0  0
   -1.6980  -17.0750   -0.5980 H   0  0  0  0  0  0  0  0  0  0  0  0
   -1.1106  -15.2256   -0.1806 H   0  0  0  0  0  0  0  0  0  0  0  0
    0.9256  -15.8130    2.0211 H   0  0  0  0  0  0  0  0  0  0  0  0
    0.0663  -17.0735    1.0592 H   0  0  0  0  0  0  0  0  0  0  0  0
    2.2893  -16.5918    0.1183 H   0  0  0  0  0  0  0  0  0  0  0  0
    0.9322  -16.0873   -1.0065 H   0  0  0  0  0  0  0  0  0  0  0  0
    2.4870  -14.3743    1.9534 H   0  0  0  0  0  0  0  0  0  0  0  0
    3.8427  -15.0116    0.9622 H   0  0  0  0  0  0  0  0  0  0  0  0
    3.4797  -13.2524    0.9622 H   0  0  0  0  0  0  0  0  0  0  0  0
    1.1669  -15.3192   -2.4547 H   0  0  0  0  0  0  0  0  0  0  0  0
    1.7471  -13.9242   -3.4262 H   0  0  0  0  0  0  0  0  0  0  0  0
    2.6708  -15.4648   -3.4262 H   0  0  0  0  0  0  0  0  0  0  0  0
    4.6972  -14.9653   -0.6118 H   0  0  0  0  0  0  0  0  0  0  0  0
    3.8787  -16.1873   -1.7078 H   0  0  0  0  0  0  0  0  0  0  0  0
    6.0707  -15.4580   -2.5678 H   0  0  0  0  0  0  0  0  0  0  0  0
    4.6729  -15.0391   -3.6530 H   0  0  0  0  0  0  0  0  0  0  0  0
    8.4030  -11.6946   -1.2213 H   0  0  0  0  0  0  0  0  0  0  0  0
   10.5903  -11.1952   -2.0192 H   0  0  0  0  0  0  0  0  0  0  0  0
   12.3334  -13.4684   -2.9937 H   0  0  0  0  0  0  0  0  0  0  0  0
   11.0779  -12.7820   -4.0916 H   0  0  0  0  0  0  0  0  0  0  0  0
   13.4310  -11.6960   -3.1020 H   0  0  0  0  0  0  0  0  0  0  0  0
   11.8289  -13.6243   -0.6867 H   0  0  0  0  0  0  0  0  0  0  0  0
   12.4200  -10.8370   -0.5350 H   0  0  0  0  0  0  0  0  0  0  0  0
   10.3518  -11.1786    0.4488 H   0  0  0  0  0  0  0  0  0  0  0  0
   11.1970  -11.7900    2.2330 H   0  0  0  0  0  0  0  0  0  0  0  0
    9.4068  -14.1004    0.3824 H   0  0  0  0  0  0  0  0  0  0  0  0
    8.8920  -12.2510    2.0300 H   0  0  0  0  0  0  0  0  0  0  0  0
    7.6353  -12.9276   -3.3719 H   0  0  0  0  0  0  0  0  0  0  0  0
    6.6719  -14.0565   -4.4402 H   0  0  0  0  0  0  0  0  0  0  0  0
    6.3796  -11.0420   -4.2271 H   0  0  0  0  0  0  0  0  0  0  0  0
    7.0504  -12.0074   -5.6107 H   0  0  0  0  0  0  0  0  0  0  0  0
    4.7175  -11.2153   -5.9588 H   0  0  0  0  0  0  0  0  0  0  0  0
    4.7779  -14.2498   -5.8010 H   0  0  0  0  0  0  0  0  0  0  0  0
    3.9493  -13.1966   -6.9971 H   0  0  0  0  0  0  0  0  0  0  0  0
    5.7414  -13.3184   -6.9971 H   0  0  0  0  0  0  0  0  0  0  0  0
  1  2  2  0
  2  3  1  0
  3  4  1  0
  4  5  2  0
  5  6  1  0
  6  7  1  0
  7  8  1  0
  8  9  1  1
  8 10  1  0
 10 11  1  0
 11 12  1  0
 11 13  1  0
 13 14  1  0
 13 15  1  0
 15 16  1  1
 15 17  1  0
 17 18  1  0
 15 19  1  0
 19 20  1  0
 20 21  1  0
 21 22  1  0
 22 23  1  1
 22 24  1  0
 24 25  1  6
 24 26  1  0
 26 27  1  0
 27 28  1  0
 28 29  1  1
 29 30  2  0
 29 31  1  0
 31 32  1  0
 32 33  1  0
 33 34  1  0
 34 35  1  0
 35 36  1  0
 34 37  1  0
 37 38  1  0
 37 39  1  0
 39 40  1  0
 39 41  1  0
 41 42  1  0
 28 43  1  0
 43 44  1  0
 44 45  1  0
 45 46  1  0
 45  2  1  0
 28  3  1  0
 41 32  1  0
 24  4  1  0
 22  7  1  0
 19  8  1  0
  1 47  1  0
  1 48  1  0
  3 49  1  1
  5 50  1  0
  6 51  1  0
  6 52  1  0
  7 53  1  6
  9 54  1  0
  9 55  1  0
  9 56  1  0
 10 57  1  0
 10 58  1  0
 11 59  1  1
 12 60  1  0
 13 61  1  6
 14 62  1  0
 16 63  1  0
 16 64  1  0
 16 65  1  0
 17 66  1  0
 17 67  1  0
 18 68  1  0
 19 69  1  6
 20 70  1  0
 20 71  1  0
 21 72  1  0
 21 73  1  0
 23 74  1  0
 23 75  1  0
 23 76  1  0
 25 77  1  0
 25 78  1  0
 25 79  1  0
 26 80  1  0
 26 81  1  0
 27 82  1  0
 27 83  1  0
 32 84  1  1
 34 85  1  1
 35 86  1  0
 35 87  1  0
 36 88  1  0
 37 89  1  6
 38 90  1  0
 39 91  1  1
 40 92  1  0
 41 93  1  6
 42 94  1  0
 43 95  1  0
 43 96  1  0
 44 97  1  0
 44 98  1  0
 45 99  1  6
 46100  1  0
 46101  1  0
 46102  1  0
M  END
>  <meeko>  (1) 
{"is_sidechain": [false], "free_energy": -8.981, "intermolecular_energy": -13.443, "internal_energy": -1.204}

$$$$
LIB_VOJUDERLBZKDIW__M_PUB_ALL__e8__s20260927
     RDKit          3D

102107  0  0  0  0  0  0  0  0999 V2000
    3.3820  -10.9770   -4.4430 C   0  0  0  0  0  0  0  0  0  0  0  0
    4.2900  -11.9660   -4.3240 C   0  0  0  0  0  0  0  0  0  0  0  0
    4.4890  -12.8220   -3.0560 C   0  0  1  0  0  0  0  0  0  0  0  0
    3.2920  -12.7910   -2.0770 C   0  0  0  0  0  0  0  0  0  0  0  0
    3.2930  -11.8660   -1.0930 C   0  0  0  0  0  0  0  0  0  0  0  0
    2.2200  -11.6720   -0.0660 C   0  0  0  0  0  0  0  0  0  0  0  0
    0.9240  -12.4510   -0.3740 C   0  0  2  0  0  0  0  0  0  0  0  0
   -0.2310  -12.2550    0.7130 C   0  0  1  0  0  0  0  0  0  0  0  0
    0.2510  -12.5730    2.1510 C   0  0  0  0  0  0  0  0  0  0  0  0
   -0.6580  -10.7400    0.7040 C   0  0  0  0  0  0  0  0  0  0  0  0
   -2.1710  -10.4720    0.7200 C   0  0  1  0  0  0  0  0  0  0  0  0
   -2.6760  -10.4890   -0.6190 O   0  0  0  0  0  0  0  0  0  0  0  0
   -2.9560  -11.4600    1.5970 C   0  0  2  0  0  0  0  0  0  0  0  0
   -2.5830  -11.2340    2.9600 O   0  0  0  0  0  0  0  0  0  0  0  0
   -2.7740  -12.9540    1.1540 C   0  0  1  0  0  0  0  0  0  0  0  0
   -2.8360  -13.9110    2.3680 C   0  0  0  0  0  0  0  0  0  0  0  0
   -3.9810  -13.3180    0.2290 C   0  0  0  0  0  0  0  0  0  0  0  0
   -4.9860  -12.3070    0.2710 O   0  0  0  0  0  0  0  0  0  0  0  0
   -1.4540  -13.1420    0.2990 C   0  0  2  0  0  0  0  0  0  0  0  0
   -1.0340  -14.6130    0.1000 C   0  0  0  0  0  0  0  0  0  0  0  0
   -0.0280  -14.7300   -1.0450 C   0  0  0  0  0  0  0  0  0  0  0  0
    1.2770  -13.9170   -0.8350 C   0  0  2  0  0  0  0  0  0  0  0  0
    2.1110  -14.6550    0.2590 C   0  0  0  0  0  0  0  0  0  0  0  0
    2.1510  -13.8250   -2.2190 C   0  0  1  0  0  0  0  0  0  0  0  0
    1.2660  -13.3940   -3.4250 C   0  0  0  0  0  0  0  0  0  0  0  0
    2.7380  -15.2210   -2.5780 C   0  0  0  0  0  0  0  0  0  0  0  0
    3.8030  -15.1960   -3.6760 C   0  0  0  0  0  0  0  0  0  0  0  0
    4.9970  -14.2770   -3.3190 C   0  0  2  0  0  0  0  0  0  0  0  0
    5.7260  -14.7670   -2.0480 C   0  0  0  0  0  0  0  0  0  0  0  0
    5.2390  -15.5160   -1.2100 O   0  0  0  0  0  0  0  0  0  0  0  0
    6.9520  -14.1890   -1.9320 O   0  0  0  0  0  0  0  0  0  0  0  0
    7.1270  -13.3600   -0.7760 C   0  0  2  0  0  0  0  0  0  0  0  0
    5.9860  -13.5150    0.0790 O   0  0  0  0  0  0  0  0  0  0  0  0
    6.0840  -12.7120    1.2660 C   0  0  2  0  0  0  0  0  0  0  0  0
    4.9050  -13.0810    2.1710 C   0  0  0  0  0  0  0  0  0  0  0  0
    5.2160  -12.8000    3.5340 O   0  0  0  0  0  0  0  0  0  0  0  0
    6.0770  -11.2250    0.8760 C   0  0  1  0  0  0  0  0  0  0  0  0
    6.1990  -10.3640    2.0120 O   0  0  0  0  0  0  0  0  0  0  0  0
    7.2630  -10.9570   -0.0550 C   0  0  2  0  0  0  0  0  0  0  0  0
    7.2260   -9.5980   -0.5230 O   0  0  0  0  0  0  0  0  0  0  0  0
    7.2420  -11.9000   -1.2580 C   0  0  1  0  0  0  0  0  0  0  0  0
    8.4360  -11.6920   -2.0280 O   0  0  0  0  0  0  0  0  0  0  0  0
    6.0560  -14.3660   -4.4560 C   0  0  0  0  0  0  0  0  0  0  0  0
    6.4880  -13.0100   -4.9980 C   0  0  0  0  0  0  0  0  0  0  0  0
    5.2940  -12.1650   -5.4510 C   0  0  1  0  0  0  0  0  0  0  0  0
    4.6330  -12.7470   -6.7070 C   0  0  0  0  0  0  0  0  0  0  0  0
    3.3036  -10.4126   -5.3839 H   0  0  0  0  0  0  0  0  0  0  0  0
    2.7194  -10.7343   -3.5992 H   0  0  0  0  0  0  0  0  0  0  0  0
    5.3180  -12.3117   -2.5437 H   0  0  0  0  0  0  0  0  0  0  0  0
    4.1617  -11.1932   -1.0409 H   0  0  0  0  0  0  0  0  0  0  0  0
    2.6053  -12.0086    0.9078 H   0  0  0  0  0  0  0  0  0  0  0  0
    1.9621  -10.6027   -0.0660 H   0  0  0  0  0  0  0  0  0  0  0  0
    0.4195  -12.0037   -1.2431 H   0  0  0  0  0  0  0  0  0  0  0  0
   -0.4383  -12.1183    2.8777 H   0  0  0  0  0  0  0  0  0  0  0  0
    0.2721  -13.6629    2.2980 H   0  0  0  0  0  0  0  0  0  0  0  0
    1.2613  -12.1636    2.2980 H   0  0  0  0  0  0  0  0  0  0  0  0
   -0.2209  -10.2608    1.5924 H   0  0  0  0  0  0  0  0  0  0  0  0
   -0.2922  -10.3320   -0.2498 H   0  0  0  0  0  0  0  0  0  0  0  0
   -2.3159   -9.4786    1.1696 H   0  0  0  0  0  0  0  0  0  0  0  0
   -2.1260  -11.1150   -1.1230 H   0  0  0  0  0  0  0  0  0  0  0  0
   -4.0338  -11.2761    1.4763 H   0  0  0  0  0  0  0  0  0  0  0  0
   -3.3990  -10.9920    3.4340 H   0  0  0  0  0  0  0  0  0  0  0  0
   -2.7981  -13.3257    3.2986 H   0  0  0  0  0  0  0  0  0  0  0  0
   -3.7733  -14.4858    2.3343 H   0  0  0  0  0  0  0  0  0  0  0  0
   -1.9807  -14.6019    2.3343 H   0  0  0  0  0  0  0  0  0  0  0  0
   -3.6214  -13.4238   -0.8052 H   0  0  0  0  0  0  0  0  0  0  0  0
   -4.4207  -14.2613    0.5851 H   0  0  0  0  0  0  0  0  0  0  0  0
   -4.5800  -11.5260    0.6850 H   0  0  0  0  0  0  0  0  0  0  0  0
   -1.7722  -12.7527   -0.6794 H   0  0  0  0  0  0  0  0  0  0  0  0
   -0.5737  -14.9870    1.0264 H   0  0  0  0  0  0  0  0  0  0  0  0
   -1.9256  -15.2083   -0.1463 H   0  0  0  0  0  0  0  0  0  0  0  0
    0.2415  -15.7903   -1.1596 H   0  0  0  0  0  0  0  0  0  0  0  0
   -0.5177  -14.3140   -1.9379 H   0  0  0  0  0  0  0  0  0  0  0  0
    1.7626  -14.3467    1.2558 H   0  0  0  0  0  0  0  0  0  0  0  0
    1.9838  -15.7418    0.1460 H   0  0  0  0  0  0  0  0  0  0  0  0
    3.1742  -14.3965    0.1460 H   0  0  0  0  0  0  0  0  0  0  0  0
    0.3352  -12.9407   -3.0533 H   0  0  0  0  0  0  0  0  0  0  0  0
    1.8120  -12.6609   -4.0369 H   0  0  0  0  0  0  0  0  0  0  0  0
    1.0255  -14.2759   -4.0369 H   0  0  0  0  0  0  0  0  0  0  0  0
    3.1897  -15.6479   -1.6704 H   0  0  0  0  0  0  0  0  0  0  0  0
    1.9024  -15.8225   -2.9652 H   0  0  0  0  0  0  0  0  0  0  0  0
    4.1777  -16.2190   -3.8282 H   0  0  0  0  0  0  0  0  0  0  0  0
    3.3348  -14.7985   -4.5886 H   0  0  0  0  0  0  0  0  0  0  0  0
    8.0311  -13.6393   -0.2151 H   0  0  0  0  0  0  0  0  0  0  0  0
    7.0216  -12.8982    1.8102 H   0  0  0  0  0  0  0  0  0  0  0  0
    4.0225  -12.4959    1.8728 H   0  0  0  0  0  0  0  0  0  0  0  0
    4.6991  -14.1565    2.0670 H   0  0  0  0  0  0  0  0  0  0  0  0
    4.4080  -12.4000    3.9110 H   0  0  0  0  0  0  0  0  0  0  0  0
    5.1150  -11.0130    0.3865 H   0  0  0  0  0  0  0  0  0  0  0  0
    5.7360   -9.5340    1.7850 H   0  0  0  0  0  0  0  0  0  0  0  0
    8.1862  -11.1309    0.5172 H   0  0  0  0  0  0  0  0  0  0  0  0
    6.7740   -9.0980    0.1850 H   0  0  0  0  0  0  0  0  0  0  0  0
    6.3702  -11.6905   -1.8952 H   0  0  0  0  0  0  0  0  0  0  0  0
    8.2490  -10.9030   -2.5770 H   0  0  0  0  0  0  0  0  0  0  0  0
    6.9445  -14.8821   -4.0633 H   0  0  0  0  0  0  0  0  0  0  0  0
    5.5880  -14.9108   -5.2891 H   0  0  0  0  0  0  0  0  0  0  0  0
    7.0273  -12.4673   -4.2077 H   0  0  0  0  0  0  0  0  0  0  0  0
    7.1319  -13.1838   -5.8727 H   0  0  0  0  0  0  0  0  0  0  0  0
    5.6798  -11.1709   -5.7209 H   0  0  0  0  0  0  0  0  0  0  0  0
    3.8377  -13.4472   -6.4118 H   0  0  0  0  0  0  0  0  0  0  0  0
    4.2001  -11.9315   -7.3049 H   0  0  0  0  0  0  0  0  0  0  0  0
    5.3872  -13.2796   -7.3049 H   0  0  0  0  0  0  0  0  0  0  0  0
  1  2  2  0
  2  3  1  0
  3  4  1  0
  4  5  2  0
  5  6  1  0
  6  7  1  0
  7  8  1  0
  8  9  1  1
  8 10  1  0
 10 11  1  0
 11 12  1  0
 11 13  1  0
 13 14  1  0
 13 15  1  0
 15 16  1  1
 15 17  1  0
 17 18  1  0
 15 19  1  0
 19 20  1  0
 20 21  1  0
 21 22  1  0
 22 23  1  1
 22 24  1  0
 24 25  1  6
 24 26  1  0
 26 27  1  0
 27 28  1  0
 28 29  1  1
 29 30  2  0
 29 31  1  0
 31 32  1  0
 32 33  1  0
 33 34  1  0
 34 35  1  0
 35 36  1  0
 34 37  1  0
 37 38  1  0
 37 39  1  0
 39 40  1  0
 39 41  1  0
 41 42  1  0
 28 43  1  0
 43 44  1  0
 44 45  1  0
 45 46  1  0
 45  2  1  0
 28  3  1  0
 41 32  1  0
 24  4  1  0
 22  7  1  0
 19  8  1  0
  1 47  1  0
  1 48  1  0
  3 49  1  1
  5 50  1  0
  6 51  1  0
  6 52  1  0
  7 53  1  6
  9 54  1  0
  9 55  1  0
  9 56  1  0
 10 57  1  0
 10 58  1  0
 11 59  1  1
 12 60  1  0
 13 61  1  1
 14 62  1  0
 16 63  1  0
 16 64  1  0
 16 65  1  0
 17 66  1  0
 17 67  1  0
 18 68  1  0
 19 69  1  6
 20 70  1  0
 20 71  1  0
 21 72  1  0
 21 73  1  0
 23 74  1  0
 23 75  1  0
 23 76  1  0
 25 77  1  0
 25 78  1  0
 25 79  1  0
 26 80  1  0
 26 81  1  0
 27 82  1  0
 27 83  1  0
 32 84  1  1
 34 85  1  1
 35 86  1  0
 35 87  1  0
 36 88  1  0
 37 89  1  6
 38 90  1  0
 39 91  1  1
 40 92  1  0
 41 93  1  6
 42 94  1  0
 43 95  1  0
 43 96  1  0
 44 97  1  0
 44 98  1  0
 45 99  1  6
 46100  1  0
 46101  1  0
 46102  1  0
M  END
>  <meeko>  (2) 
{"is_sidechain": [false], "free_energy": -8.875, "intermolecular_energy": -13.481, "internal_energy": -1.008}

$$$$
LIB_VOJUDERLBZKDIW__M_PUB_ALL__e8__s20260927
     RDKit          3D

102107  0  0  0  0  0  0  0  0999 V2000
    6.6860  -14.0670   -7.6850 C   0  0  0  0  0  0  0  0  0  0  0  0
    7.9720  -14.4500   -7.8110 C   0  0  0  0  0  0  0  0  0  0  0  0
    8.8950  -14.8180   -6.6290 C   0  0  1  0  0  0  0  0  0  0  0  0
    8.1420  -15.1590   -5.3220 C   0  0  0  0  0  0  0  0  0  0  0  0
    7.9050  -14.1650   -4.4410 C   0  0  0  0  0  0  0  0  0  0  0  0
    7.1820  -14.2970   -3.1360 C   0  0  0  0  0  0  0  0  0  0  0  0
    6.4520  -15.6470   -2.9710 C   0  0  2  0  0  0  0  0  0  0  0  0
    5.6750  -15.8050   -1.5840 C   0  0  1  0  0  0  0  0  0  0  0  0
    6.5900  -15.5430   -0.3610 C   0  0  0  0  0  0  0  0  0  0  0  0
    4.5350  -14.7210   -1.5360 C   0  0  0  0  0  0  0  0  0  0  0  0
    3.1630  -15.2140   -1.0510 C   0  0  1  0  0  0  0  0  0  0  0  0
    2.4280  -15.7510   -2.1540 O   0  0  0  0  0  0  0  0  0  0  0  0
    3.2520  -16.2480    0.0830 C   0  0  2  0  0  0  0  0  0  0  0  0
    3.7770  -15.5900    1.2410 O   0  0  0  0  0  0  0  0  0  0  0  0
    4.0700  -17.5270   -0.3150 C   0  0  1  0  0  0  0  0  0  0  0  0
    4.8170  -18.1180    0.9040 C   0  0  0  0  0  0  0  0  0  0  0  0
    3.0440  -18.6100   -0.7850 C   0  0  0  0  0  0  0  0  0  0  0  0
    1.7020  -18.1820   -0.5570 O   0  0  0  0  0  0  0  0  0  0  0  0
    5.0350  -17.2340   -1.5370 C   0  0  2  0  0  0  0  0  0  0  0  0
    6.0940  -18.3280   -1.7820 C   0  0  0  0  0  0  0  0  0  0  0  0
    6.6940  -18.1870   -3.1800 C   0  0  0  0  0  0  0  0  0  0  0  0
    7.3890  -16.8240   -3.4430 C   0  0  2  0  0  0  0  0  0  0  0  0
    8.7260  -16.8240   -2.6360 C   0  0  0  0  0  0  0  0  0  0  0  0
    7.7130  -16.6180   -5.0370 C   0  0  1  0  0  0  0  0  0  0  0  0
    6.4670  -16.9270   -5.9160 C   0  0  0  0  0  0  0  0  0  0  0  0
    8.8300  -17.6010   -5.4900 C   0  0  0  0  0  0  0  0  0  0  0  0
    9.4160  -17.3000   -6.8710 C   0  0  0  0  0  0  0  0  0  0  0  0
   10.0020  -15.8700   -6.9640 C   0  0  2  0  0  0  0  0  0  0  0  0
   11.1680  -15.6710   -5.9700 C   0  0  0  0  0  0  0  0  0  0  0  0
   11.7660  -16.5800   -5.4060 O   0  0  0  0  0  0  0  0  0  0  0  0
   11.3890  -14.3510   -5.7290 O   0  0  0  0  0  0  0  0  0  0  0  0
   12.0990  -14.0630   -4.5180 C   0  0  2  0  0  0  0  0  0  0  0  0
   11.2640  -13.2600   -3.6730 O   0  0  0  0  0  0  0  0  0  0  0  0
   11.9060  -12.9260   -2.4330 C   0  0  2  0  0  0  0  0  0  0  0  0
   10.8720  -12.2180   -1.5540 C   0  0  0  0  0  0  0  0  0  0  0  0
    9.7480  -11.8140   -2.3330 O   0  0  0  0  0  0  0  0  0  0  0  0
   13.1330  -12.0440   -2.7170 C   0  0  1  0  0  0  0  0  0  0  0  0
   13.8400  -11.6930   -1.5240 O   0  0  0  0  0  0  0  0  0  0  0  0
   14.0910  -12.8140   -3.6300 C   0  0  2  0  0  0  0  0  0  0  0  0
   15.2000  -11.9790   -4.0010 O   0  0  0  0  0  0  0  0  0  0  0  0
   13.3800  -13.2920   -4.8960 C   0  0  1  0  0  0  0  0  0  0  0  0
   14.2840  -14.1100   -5.6520 O   0  0  0  0  0  0  0  0  0  0  0  0
   10.6330  -15.6770   -8.3740 C   0  0  0  0  0  0  0  0  0  0  0  0
   10.1460  -14.4280   -9.0970 C   0  0  0  0  0  0  0  0  0  0  0  0
    8.6170  -14.3750   -9.1880 C   0  0  1  0  0  0  0  0  0  0  0  0
    8.0700  -15.4510  -10.1330 C   0  0  0  0  0  0  0  0  0  0  0  0
    6.0951  -13.8213   -8.5797 H   0  0  0  0  0  0  0  0  0  0  0  0
    6.2273  -14.0001   -6.6875 H   0  0  0  0  0  0  0  0  0  0  0  0
    9.4348  -13.8791   -6.4361 H   0  0  0  0  0  0  0  0  0  0  0  0
    8.2775  -13.1644   -4.7059 H   0  0  0  0  0  0  0  0  0  0  0  0
    7.9133  -14.1946   -2.3207 H   0  0  0  0  0  0  0  0  0  0  0  0
    6.4151  -13.5088   -3.1095 H   0  0  0  0  0  0  0  0  0  0  0  0
    5.5917  -15.6903   -3.6551 H   0  0  0  0  0  0  0  0  0  0  0  0
    6.0197  -15.7063    0.5653 H   0  0  0  0  0  0  0  0  0  0  0  0
    7.4471  -16.2318   -0.3901 H   0  0  0  0  0  0  0  0  0  0  0  0
    6.9527  -14.5049   -0.3901 H   0  0  0  0  0  0  0  0  0  0  0  0
    4.8625  -13.9166   -0.8609 H   0  0  0  0  0  0  0  0  0  0  0  0
    4.3855  -14.3986   -2.5770 H   0  0  0  0  0  0  0  0  0  0  0  0
    2.6392  -14.3421   -0.6323 H   0  0  0  0  0  0  0  0  0  0  0  0
    1.5350  -15.3640   -2.1180 H   0  0  0  0  0  0  0  0  0  0  0  0
    2.2455  -16.6328    0.3042 H   0  0  0  0  0  0  0  0  0  0  0  0
    3.2860  -15.9420    2.0050 H   0  0  0  0  0  0  0  0  0  0  0  0
    4.3532  -17.7510    1.8315 H   0  0  0  0  0  0  0  0  0  0  0  0
    4.7572  -19.2160    0.8736 H   0  0  0  0  0  0  0  0  0  0  0  0
    5.8718  -17.8072    0.8736 H   0  0  0  0  0  0  0  0  0  0  0  0
    3.1841  -18.7944   -1.8603 H   0  0  0  0  0  0  0  0  0  0  0  0
    3.2193  -19.5299   -0.2079 H   0  0  0  0  0  0  0  0  0  0  0  0
    1.1370  -18.7030   -1.1530 H   0  0  0  0  0  0  0  0  0  0  0  0
    4.3303  -17.2600   -2.3812 H   0  0  0  0  0  0  0  0  0  0  0  0
    6.8940  -18.2319   -1.0331 H   0  0  0  0  0  0  0  0  0  0  0  0
    5.6135  -19.3140   -1.6984 H   0  0  0  0  0  0  0  0  0  0  0  0
    7.4382  -18.9853   -3.3175 H   0  0  0  0  0  0  0  0  0  0  0  0
    5.8568  -18.2557   -3.8902 H   0  0  0  0  0  0  0  0  0  0  0  0
    9.0399  -17.8611   -2.4465 H   0  0  0  0  0  0  0  0  0  0  0  0
    9.5040  -16.3055   -3.2155 H   0  0  0  0  0  0  0  0  0  0  0  0
    8.5758  -16.3055   -1.6776 H   0  0  0  0  0  0  0  0  0  0  0  0
    5.6047  -17.1409   -5.2674 H   0  0  0  0  0  0  0  0  0  0  0  0
    6.2415  -16.0576   -6.5510 H   0  0  0  0  0  0  0  0  0  0  0  0
    6.6739  -17.8010   -6.5510 H   0  0  0  0  0  0  0  0  0  0  0  0
    9.6458  -17.5576   -4.7534 H   0  0  0  0  0  0  0  0  0  0  0  0
    8.3645  -18.5954   -5.5568 H   0  0  0  0  0  0  0  0  0  0  0  0
   10.2169  -18.0244   -7.0806 H   0  0  0  0  0  0  0  0  0  0  0  0
    8.6008  -17.3771   -7.6055 H   0  0  0  0  0  0  0  0  0  0  0  0
   12.3643  -14.9852   -3.9803 H   0  0  0  0  0  0  0  0  0  0  0  0
   12.2675  -13.8207   -1.9050 H   0  0  0  0  0  0  0  0  0  0  0  0
   10.5366  -12.9059   -0.7639 H   0  0  0  0  0  0  0  0  0  0  0  0
   11.3352  -11.3256   -1.1078 H   0  0  0  0  0  0  0  0  0  0  0  0
    9.9530  -12.0840   -3.2500 H   0  0  0  0  0  0  0  0  0  0  0  0
   12.7740  -11.1171   -3.1880 H   0  0  0  0  0  0  0  0  0  0  0  0
   14.6820  -11.2870   -1.8060 H   0  0  0  0  0  0  0  0  0  0  0  0
   14.4536  -13.6906   -3.0731 H   0  0  0  0  0  0  0  0  0  0  0  0
   15.6000  -12.4190   -4.7780 H   0  0  0  0  0  0  0  0  0  0  0  0
   13.0801  -12.4336   -5.5151 H   0  0  0  0  0  0  0  0  0  0  0  0
   14.2220  -13.7760   -6.5700 H   0  0  0  0  0  0  0  0  0  0  0  0
   11.7249  -15.6084   -8.2594 H   0  0  0  0  0  0  0  0  0  0  0  0
   10.3284  -16.5406   -8.9835 H   0  0  0  0  0  0  0  0  0  0  0  0
   10.5000  -13.5411   -8.5509 H   0  0  0  0  0  0  0  0  0  0  0  0
   10.5461  -14.4514  -10.1214 H   0  0  0  0  0  0  0  0  0  0  0  0
    8.3474  -13.3996   -9.6192 H   0  0  0  0  0  0  0  0  0  0  0  0
    7.6494  -16.2783   -9.5424 H   0  0  0  0  0  0  0  0  0  0  0  0
    7.2834  -15.0164  -10.7673 H   0  0  0  0  0  0  0  0  0  0  0  0
    8.8847  -15.8304  -10.7673 H   0  0  0  0  0  0  0  0  0  0  0  0
  1  2  2  0
  2  3  1  0
  3  4  1  0
  4  5  2  0
  5  6  1  0
  6  7  1  0
  7  8  1  0
  8  9  1  1
  8 10  1  0
 10 11  1  0
 11 12  1  0
 11 13  1  0
 13 14  1  0
 13 15  1  0
 15 16  1  1
 15 17  1  0
 17 18  1  0
 15 19  1  0
 19 20  1  0
 20 21  1  0
 21 22  1  0
 22 23  1  1
 22 24  1  0
 24 25  1  6
 24 26  1  0
 26 27  1  0
 27 28  1  0
 28 29  1  1
 29 30  2  0
 29 31  1  0
 31 32  1  0
 32 33  1  0
 33 34  1  0
 34 35  1  0
 35 36  1  0
 34 37  1  0
 37 38  1  0
 37 39  1  0
 39 40  1  0
 39 41  1  0
 41 42  1  0
 28 43  1  0
 43 44  1  0
 44 45  1  0
 45 46  1  0
 45  2  1  0
 28  3  1  0
 41 32  1  0
 24  4  1  0
 22  7  1  0
 19  8  1  0
  1 47  1  0
  1 48  1  0
  3 49  1  1
  5 50  1  0
  6 51  1  0
  6 52  1  0
  7 53  1  6
  9 54  1  0
  9 55  1  0
  9 56  1  0
 10 57  1  0
 10 58  1  0
 11 59  1  1
 12 60  1  0
 13 61  1  1
 14 62  1  0
 16 63  1  0
 16 64  1  0
 16 65  1  0
 17 66  1  0
 17 67  1  0
 18 68  1  0
 19 69  1  6
 20 70  1  0
 20 71  1  0
 21 72  1  0
 21 73  1  0
 23 74  1  0
 23 75  1  0
 23 76  1  0
 25 77  1  0
 25 78  1  0
 25 79  1  0
 26 80  1  0
 26 81  1  0
 27 82  1  0
 27 83  1  0
 32 84  1  1
 34 85  1  1
 35 86  1  0
 35 87  1  0
 36 88  1  0
 37 89  1  6
 38 90  1  0
 39 91  1  1
 40 92  1  0
 41 93  1  6
 42 94  1  0
 43 95  1  0
 43 96  1  0
 44 97  1  0
 44 98  1  0
 45 99  1  6
 46100  1  0
 46101  1  0
 46102  1  0
M  END
>  <meeko>  (3) 
{"is_sidechain": [false], "free_energy": -8.374, "intermolecular_energy": -12.206, "internal_energy": -1.533}

$$$$
LIB_VOJUDERLBZKDIW__M_PUB_ALL__e8__s20260927
     RDKit          3D

102107  0  0  0  0  0  0  0  0999 V2000
    2.7000  -11.9930   -3.6460 C   0  0  0  0  0  0  0  0  0  0  0  0
    3.9760  -12.4020   -3.7910 C   0  0  0  0  0  0  0  0  0  0  0  0
    4.8230  -13.0360   -2.6670 C   0  0  1  0  0  0  0  0  0  0  0  0
    3.9940  -13.5910   -1.4860 C   0  0  0  0  0  0  0  0  0  0  0  0
    3.7490  -12.7780   -0.4370 C   0  0  0  0  0  0  0  0  0  0  0  0
    2.9570  -13.1290    0.7850 C   0  0  0  0  0  0  0  0  0  0  0  0
    2.1700  -14.4500    0.6500 C   0  0  2  0  0  0  0  0  0  0  0  0
    1.3180  -14.8400    1.9440 C   0  0  1  0  0  0  0  0  0  0  0  0
    2.1800  -14.8650    3.2320 C   0  0  0  0  0  0  0  0  0  0  0  0
    0.2190  -13.7350    2.1570 C   0  0  0  0  0  0  0  0  0  0  0  0
   -1.1930  -14.2490    2.4770 C   0  0  1  0  0  0  0  0  0  0  0  0
   -1.8910  -14.5260    1.2590 O   0  0  0  0  0  0  0  0  0  0  0  0
   -1.1990  -15.4880    3.3870 C   0  0  2  0  0  0  0  0  0  0  0  0
   -0.7100  -15.0940    4.6730 O   0  0  0  0  0  0  0  0  0  0  0  0
   -0.4110  -16.7010    2.7790 C   0  0  1  0  0  0  0  0  0  0  0  0
    0.2520  -17.5520    3.8880 C   0  0  0  0  0  0  0  0  0  0  0  0
   -1.4510  -17.6230    2.0620 C   0  0  0  0  0  0  0  0  0  0  0  0
   -1.6140  -17.2510    0.6940 O   0  0  0  0  0  0  0  0  0  0  0  0
    0.6240  -16.2200    1.6810 C   0  0  2  0  0  0  0  0  0  0  0  0
    1.6530  -17.2930    1.2700 C   0  0  0  0  0  0  0  0  0  0  0  0
    2.3280  -16.9090   -0.0460 C   0  0  0  0  0  0  0  0  0  0  0  0
    3.0860  -15.5550   -0.0050 C   0  0  2  0  0  0  0  0  0  0  0  0
    4.3790  -15.7740    0.8410 C   0  0  0  0  0  0  0  0  0  0  0  0
    3.4970  -15.0560   -1.5120 C   0  0  1  0  0  0  0  0  0  0  0  0
    2.2860  -15.1300   -2.4880 C   0  0  0  0  0  0  0  0  0  0  0  0
    4.5980  -15.9820   -2.1030 C   0  0  0  0  0  0  0  0  0  0  0  0
    5.2640  -15.4440   -3.3710 C   0  0  0  0  0  0  0  0  0  0  0  0
    5.9060  -14.0530   -3.1560 C   0  0  2  0  0  0  0  0  0  0  0  0
    7.0260  -14.1060   -2.0940 C   0  0  0  0  0  0  0  0  0  0  0  0
    7.1910  -15.0240   -1.2990 O   0  0  0  0  0  0  0  0  0  0  0  0
    7.7570  -12.9580   -2.0920 O   0  0  0  0  0  0  0  0  0  0  0  0
    9.1290  -13.1110   -1.7070 C   0  0  2  0  0  0  0  0  0  0  0  0
    9.3540  -12.3680   -0.5010 O   0  0  0  0  0  0  0  0  0  0  0  0
   10.7130  -12.4690   -0.0470 C   0  0  2  0  0  0  0  0  0  0  0  0
   10.7950  -11.7830    1.3200 C   0  0  0  0  0  0  0  0  0  0  0  0
   11.1420  -10.4080    1.1670 O   0  0  0  0  0  0  0  0  0  0  0  0
   11.6450  -11.8200   -1.0830 C   0  0  1  0  0  0  0  0  0  0  0  0
   13.0230  -11.9080   -0.7060 O   0  0  0  0  0  0  0  0  0  0  0  0
   11.4700  -12.5410   -2.4210 C   0  0  2  0  0  0  0  0  0  0  0  0
   12.2490  -11.8920   -3.4390 O   0  0  0  0  0  0  0  0  0  0  0  0
   10.0020  -12.5570   -2.8500 C   0  0  1  0  0  0  0  0  0  0  0  0
    9.8780  -13.3490   -4.0400 O   0  0  0  0  0  0  0  0  0  0  0  0
    6.6140  -13.6170   -4.4720 C   0  0  0  0  0  0  0  0  0  0  0  0
    6.2100  -12.2300   -4.9540 C   0  0  0  0  0  0  0  0  0  0  0  0
    4.6920  -12.0900   -5.0970 C   0  0  1  0  0  0  0  0  0  0  0  0
    4.1530  -12.9340   -6.2590 C   0  0  0  0  0  0  0  0  0  0  0  0
    2.1642  -11.5499   -4.4984 H   0  0  0  0  0  0  0  0  0  0  0  0
    2.1944  -12.1022   -2.6752 H   0  0  0  0  0  0  0  0  0  0  0  0
    5.3856  -12.1781   -2.2701 H   0  0  0  0  0  0  0  0  0  0  0  0
    4.1702  -11.7629   -0.4837 H   0  0  0  0  0  0  0  0  0  0  0  0
    3.6499  -13.2217    1.6343 H   0  0  0  0  0  0  0  0  0  0  0  0
    2.2194  -12.3267    0.9341 H   0  0  0  0  0  0  0  0  0  0  0  0
    1.3442  -14.3185   -0.0647 H   0  0  0  0  0  0  0  0  0  0  0  0
    1.5225  -14.8459    4.1137 H   0  0  0  0  0  0  0  0  0  0  0  0
    2.7886  -15.7812    3.2482 H   0  0  0  0  0  0  0  0  0  0  0  0
    2.8407  -13.9856    3.2482 H   0  0  0  0  0  0  0  0  0  0  0  0
    0.5419  -13.0942    2.9908 H   0  0  0  0  0  0  0  0  0  0  0  0
    0.1343  -13.2086    1.1948 H   0  0  0  0  0  0  0  0  0  0  0  0
   -1.7049  -13.4525    3.0370 H   0  0  0  0  0  0  0  0  0  0  0  0
   -2.8410  -14.5430    1.4730 H   0  0  0  0  0  0  0  0  0  0  0  0
   -2.2287  -15.8623    3.4852 H   0  0  0  0  0  0  0  0  0  0  0  0
   -1.4920  -14.9030    5.2200 H   0  0  0  0  0  0  0  0  0  0  0  0
   -0.0477  -17.1673    4.8740 H   0  0  0  0  0  0  0  0  0  0  0  0
   -0.0709  -18.5989    3.7893 H   0  0  0  0  0  0  0  0  0  0  0  0
    1.3461  -17.4949    3.7893 H   0  0  0  0  0  0  0  0  0  0  0  0
   -1.1010  -18.6647    2.1113 H   0  0  0  0  0  0  0  0  0  0  0  0
   -2.4206  -17.5151    2.5701 H   0  0  0  0  0  0  0  0  0  0  0  0
   -1.4550  -18.0520    0.1660 H   0  0  0  0  0  0  0  0  0  0  0  0
   -0.0376  -16.0480    0.8192 H   0  0  0  0  0  0  0  0  0  0  0  0
    2.4170  -17.3823    2.0564 H   0  0  0  0  0  0  0  0  0  0  0  0
    1.1328  -18.2530    1.1368 H   0  0  0  0  0  0  0  0  0  0  0  0
    3.0478  -17.6988   -0.3070 H   0  0  0  0  0  0  0  0  0  0  0  0
    1.5257  -16.7980   -0.7903 H   0  0  0  0  0  0  0  0  0  0  0  0
    4.1285  -15.7316    1.9113 H   0  0  0  0  0  0  0  0  0  0  0  0
    4.8100  -16.7579    0.6040 H   0  0  0  0  0  0  0  0  0  0  0  0
    5.1099  -14.9869    0.6040 H   0  0  0  0  0  0  0  0  0  0  0  0
    1.3520  -15.1871   -1.9097 H   0  0  0  0  0  0  0  0  0  0  0  0
    2.2705  -14.2311   -3.1219 H   0  0  0  0  0  0  0  0  0  0  0  0
    2.3800  -16.0241   -3.1219 H   0  0  0  0  0  0  0  0  0  0  0  0
    5.3765  -16.1218   -1.3385 H   0  0  0  0  0  0  0  0  0  0  0  0
    4.0996  -16.9212   -2.3850 H   0  0  0  0  0  0  0  0  0  0  0  0
    6.0472  -16.1497   -3.6851 H   0  0  0  0  0  0  0  0  0  0  0  0
    4.4845  -15.3381   -4.1398 H   0  0  0  0  0  0  0  0  0  0  0  0
    9.3800  -14.1665   -1.5254 H   0  0  0  0  0  0  0  0  0  0  0  0
   11.0318  -13.5162    0.0616 H   0  0  0  0  0  0  0  0  0  0  0  0
    9.8187  -11.8567    1.8215 H   0  0  0  0  0  0  0  0  0  0  0  0
   11.5686  -12.2810    1.9230 H   0  0  0  0  0  0  0  0  0  0  0  0
   11.1130  -10.2350    0.2060 H   0  0  0  0  0  0  0  0  0  0  0  0
   11.3753  -10.7559   -1.1530 H   0  0  0  0  0  0  0  0  0  0  0  0
   13.5340  -11.4610   -1.4080 H   0  0  0  0  0  0  0  0  0  0  0  0
   11.8145  -13.5776   -2.2910 H   0  0  0  0  0  0  0  0  0  0  0  0
   12.8420  -12.5890   -3.7880 H   0  0  0  0  0  0  0  0  0  0  0  0
    9.6543  -11.5365   -3.0683 H   0  0  0  0  0  0  0  0  0  0  0  0
    9.5240  -14.2100   -3.7360 H   0  0  0  0  0  0  0  0  0  0  0  0
    7.7005  -13.6221   -4.3000 H   0  0  0  0  0  0  0  0  0  0  0  0
    6.3093  -14.3299   -5.2524 H   0  0  0  0  0  0  0  0  0  0  0  0
    6.5684  -11.4842   -4.2292 H   0  0  0  0  0  0  0  0  0  0  0  0
    6.6599  -12.0712   -5.9452 H   0  0  0  0  0  0  0  0  0  0  0  0
    4.4813  -11.0377   -5.3383 H   0  0  0  0  0  0  0  0  0  0  0  0
    3.6013  -13.7978   -5.8597 H   0  0  0  0  0  0  0  0  0  0  0  0
    3.4786  -12.3213   -6.8753 H   0  0  0  0  0  0  0  0  0  0  0  0
    4.9925  -13.2881   -6.8753 H   0  0  0  0  0  0  0  0  0  0  0  0
  1  2  2  0
  2  3  1  0
  3  4  1  0
  4  5  2  0
  5  6  1  0
  6  7  1  0
  7  8  1  0
  8  9  1  1
  8 10  1  0
 10 11  1  0
 11 12  1  0
 11 13  1  0
 13 14  1  0
 13 15  1  0
 15 16  1  1
 15 17  1  0
 17 18  1  0
 15 19  1  0
 19 20  1  0
 20 21  1  0
 21 22  1  0
 22 23  1  1
 22 24  1  0
 24 25  1  6
 24 26  1  0
 26 27  1  0
 27 28  1  0
 28 29  1  1
 29 30  2  0
 29 31  1  0
 31 32  1  0
 32 33  1  0
 33 34  1  0
 34 35  1  0
 35 36  1  0
 34 37  1  0
 37 38  1  0
 37 39  1  0
 39 40  1  0
 39 41  1  0
 41 42  1  0
 28 43  1  0
 43 44  1  0
 44 45  1  0
 45 46  1  0
 45  2  1  0
 28  3  1  0
 41 32  1  0
 24  4  1  0
 22  7  1  0
 19  8  1  0
  1 47  1  0
  1 48  1  0
  3 49  1  1
  5 50  1  0
  6 51  1  0
  6 52  1  0
  7 53  1  6
  9 54  1  0
  9 55  1  0
  9 56  1  0
 10 57  1  0
 10 58  1  0
 11 59  1  1
 12 60  1  0
 13 61  1  1
 14 62  1  0
 16 63  1  0
 16 64  1  0
 16 65  1  0
 17 66  1  0
 17 67  1  0
 18 68  1  0
 19 69  1  6
 20 70  1  0
 20 71  1  0
 21 72  1  0
 21 73  1  0
 23 74  1  0
 23 75  1  0
 23 76  1  0
 25 77  1  0
 25 78  1  0
 25 79  1  0
 26 80  1  0
 26 81  1  0
 27 82  1  0
 27 83  1  0
 32 84  1  1
 34 85  1  1
 35 86  1  0
 35 87  1  0
 36 88  1  0
 37 89  1  6
 38 90  1  0
 39 91  1  1
 40 92  1  0
 41 93  1  6
 42 94  1  0
 43 95  1  0
 43 96  1  0
 44 97  1  0
 44 98  1  0
 45 99  1  6
 46100  1  0
 46101  1  0
 46102  1  0
M  END
>  <meeko>  (4) 
{"is_sidechain": [false], "free_energy": -8.305, "intermolecular_energy": -12.601, "internal_energy": -1.035}

$$$$
LIB_VOJUDERLBZKDIW__M_PUB_ALL__e8__s20260927
     RDKit          3D

102107  0  0  0  0  0  0  0  0999 V2000
    5.4150  -14.1170   -5.2200 C   0  0  0  0  0  0  0  0  0  0  0  0
    6.6890  -14.4980   -5.0020 C   0  0  0  0  0  0  0  0  0  0  0  0
    7.3520  -14.5740   -3.6110 C   0  0  1  0  0  0  0  0  0  0  0  0
    6.3500  -14.6220   -2.4340 C   0  0  0  0  0  0  0  0  0  0  0  0
    5.9750  -13.4580   -1.8640 C   0  0  0  0  0  0  0  0  0  0  0  0
    5.0090  -13.3020   -0.7300 C   0  0  0  0  0  0  0  0  0  0  0  0
    4.2210  -14.5910   -0.4120 C   0  0  2  0  0  0  0  0  0  0  0  0
    3.1840  -14.4430    0.7950 C   0  0  1  0  0  0  0  0  0  0  0  0
    3.8510  -13.8960    2.0820 C   0  0  0  0  0  0  0  0  0  0  0  0
    2.0900  -13.3940    0.3730 C   0  0  0  0  0  0  0  0  0  0  0  0
    0.6350  -13.7850    0.6780 C   0  0  1  0  0  0  0  0  0  0  0  0
    0.1140  -14.5700   -0.3980 O   0  0  0  0  0  0  0  0  0  0  0  0
    0.4720  -14.5340    2.0100 C   0  0  2  0  0  0  0  0  0  0  0  0
    0.7800  -13.6240    3.0700 O   0  0  0  0  0  0  0  0  0  0  0  0
    1.3130  -15.8570    2.0790 C   0  0  1  0  0  0  0  0  0  0  0  0
    1.7910  -16.1450    3.5220 C   0  0  0  0  0  0  0  0  0  0  0  0
    0.3670  -17.0340    1.6730 C   0  0  0  0  0  0  0  0  0  0  0  0
    0.4690  -18.1190    2.5940 O   0  0  0  0  0  0  0  0  0  0  0  0
    2.5060  -15.8340    1.0360 C   0  0  2  0  0  0  0  0  0  0  0  0
    3.5590  -16.9380    1.2570 C   0  0  0  0  0  0  0  0  0  0  0  0
    4.4240  -17.1080    0.0080 C   0  0  0  0  0  0  0  0  0  0  0  0
    5.1970  -15.8300   -0.4130 C   0  0  2  0  0  0  0  0  0  0  0  0
    6.3510  -15.6250    0.6190 C   0  0  0  0  0  0  0  0  0  0  0  0
    5.8310  -15.9840   -1.9170 C   0  0  1  0  0  0  0  0  0  0  0  0
    4.7710  -16.5050   -2.9320 C   0  0  0  0  0  0  0  0  0  0  0  0
    6.9850  -17.0270   -1.9100 C   0  0  0  0  0  0  0  0  0  0  0  0
    7.8370  -17.0370   -3.1800 C   0  0  0  0  0  0  0  0  0  0  0  0
    8.4720  -15.6570   -3.4760 C   0  0  2  0  0  0  0  0  0  0  0  0
    9.4270  -15.2200   -2.3430 C   0  0  0  0  0  0  0  0  0  0  0  0
    9.7820  -15.9360   -1.4150 O   0  0  0  0  0  0  0  0  0  0  0  0
    9.7560  -13.9050   -2.4580 O   0  0  0  0  0  0  0  0  0  0  0  0
   10.9670  -13.5200   -1.7940 C   0  0  2  0  0  0  0  0  0  0  0  0
   10.6420  -12.6080   -0.7350 O   0  0  0  0  0  0  0  0  0  0  0  0
   11.8060  -12.1720   -0.0170 C   0  0  2  0  0  0  0  0  0  0  0  0
   11.3280  -11.3440    1.1790 C   0  0  0  0  0  0  0  0  0  0  0  0
   11.5650   -9.9560    0.9510 O   0  0  0  0  0  0  0  0  0  0  0  0
   12.7130  -11.3650   -0.9610 C   0  0  1  0  0  0  0  0  0  0  0  0
   13.9100  -10.9190   -0.3170 O   0  0  0  0  0  0  0  0  0  0  0  0
   13.1100  -12.2560   -2.1410 C   0  0  2  0  0  0  0  0  0  0  0  0
   13.8720  -11.5000   -3.0970 O   0  0  0  0  0  0  0  0  0  0  0  0
   11.8760  -12.8350   -2.8330 C   0  0  1  0  0  0  0  0  0  0  0  0
   12.3050  -13.7560   -3.8470 O   0  0  0  0  0  0  0  0  0  0  0  0
    9.3710  -15.7790   -4.7410 C   0  0  0  0  0  0  0  0  0  0  0  0
    9.0700  -14.7330   -5.8080 C   0  0  0  0  0  0  0  0  0  0  0  0
    7.5910  -14.7270   -6.2070 C   0  0  1  0  0  0  0  0  0  0  0  0
    7.2070  -15.9980   -6.9740 C   0  0  0  0  0  0  0  0  0  0  0  0
    5.0169  -14.0895   -6.2451 H   0  0  0  0  0  0  0  0  0  0  0  0
    4.7731  -13.8334   -4.3729 H   0  0  0  0  0  0  0  0  0  0  0  0
    7.8704  -13.6069   -3.5333 H   0  0  0  0  0  0  0  0  0  0  0  0
    6.4202  -12.5377   -2.2700 H   0  0  0  0  0  0  0  0  0  0  0  0
    5.5710  -13.0067    0.1683 H   0  0  0  0  0  0  0  0  0  0  0  0
    4.2754  -12.5399   -1.0317 H   0  0  0  0  0  0  0  0  0  0  0  0
    3.5098  -14.8012   -1.2244 H   0  0  0  0  0  0  0  0  0  0  0  0
    3.3427  -14.3128    2.9640 H   0  0  0  0  0  0  0  0  0  0  0  0
    4.9115  -14.1879    2.0979 H   0  0  0  0  0  0  0  0  0  0  0  0
    3.7724  -12.7989    2.0979 H   0  0  0  0  0  0  0  0  0  0  0  0
    2.3040  -12.4526    0.9002 H   0  0  0  0  0  0  0  0  0  0  0  0
    2.1556  -13.3184   -0.7224 H   0  0  0  0  0  0  0  0  0  0  0  0
    0.0652  -12.8494    0.7785 H   0  0  0  0  0  0  0  0  0  0  0  0
   -0.8370  -14.3680   -0.4640 H   0  0  0  0  0  0  0  0  0  0  0  0
   -0.5692  -14.8745    2.1093 H   0  0  0  0  0  0  0  0  0  0  0  0
    0.1360  -12.8960    3.0060 H   0  0  0  0  0  0  0  0  0  0  0  0
    1.0758  -15.7141    4.2381 H   0  0  0  0  0  0  0  0  0  0  0  0
    1.8550  -17.2321    3.6769 H   0  0  0  0  0  0  0  0  0  0  0  0
    2.7821  -15.6935    3.6769 H   0  0  0  0  0  0  0  0  0  0  0  0
   -0.6714  -16.6714    1.6593 H   0  0  0  0  0  0  0  0  0  0  0  0
    0.6655  -17.3932    0.6771 H   0  0  0  0  0  0  0  0  0  0  0  0
   -0.4130  -18.2350    2.9880 H   0  0  0  0  0  0  0  0  0  0  0  0
    1.9796  -16.0623    0.0975 H   0  0  0  0  0  0  0  0  0  0  0  0
    4.2003  -16.6621    2.1071 H   0  0  0  0  0  0  0  0  0  0  0  0
    3.0426  -17.8868    1.4649 H   0  0  0  0  0  0  0  0  0  0  0  0
    5.1566  -17.9052    0.2023 H   0  0  0  0  0  0  0  0  0  0  0  0
    3.7393  -17.3483   -0.8187 H   0  0  0  0  0  0  0  0  0  0  0  0
    5.9472  -15.6967    1.6397 H   0  0  0  0  0  0  0  0  0  0  0  0
    7.1164  -16.4012    0.4721 H   0  0  0  0  0  0  0  0  0  0  0  0
    6.8023  -14.6326    0.4721 H   0  0  0  0  0  0  0  0  0  0  0  0
    3.9148  -16.9258   -2.3844 H   0  0  0  0  0  0  0  0  0  0  0  0
    4.4286  -15.6725   -3.5643 H   0  0  0  0  0  0  0  0  0  0  0  0
    5.2209  -17.2846   -3.5643 H   0  0  0  0  0  0  0  0  0  0  0  0
    7.6428  -16.8062   -1.0565 H   0  0  0  0  0  0  0  0  0  0  0  0
    6.5116  -18.0176   -1.8424 H   0  0  0  0  0  0  0  0  0  0  0  0
    8.6415  -17.7775   -3.0597 H   0  0  0  0  0  0  0  0  0  0  0  0
    7.1782  -17.2907   -4.0236 H   0  0  0  0  0  0  0  0  0  0  0  0
   11.4838  -14.3913   -1.3653 H   0  0  0  0  0  0  0  0  0  0  0  0
   12.3999  -13.0204    0.3538 H   0  0  0  0  0  0  0  0  0  0  0  0
   10.2502  -11.5081    1.3256 H   0  0  0  0  0  0  0  0  0  0  0  0
   11.8841  -11.6579    2.0747 H   0  0  0  0  0  0  0  0  0  0  0  0
   12.3750   -9.7420    1.4540 H   0  0  0  0  0  0  0  0  0  0  0  0
   12.1488  -10.4791   -1.2878 H   0  0  0  0  0  0  0  0  0  0  0  0
   14.6220  -11.5280   -0.5960 H   0  0  0  0  0  0  0  0  0  0  0  0
   13.7186  -13.0834   -1.7473 H   0  0  0  0  0  0  0  0  0  0  0  0
   13.2050  -11.0430   -3.6490 H   0  0  0  0  0  0  0  0  0  0  0  0
   11.2914  -12.0340   -3.3091 H   0  0  0  0  0  0  0  0  0  0  0  0
   12.8420  -13.2200   -4.4660 H   0  0  0  0  0  0  0  0  0  0  0  0
   10.4212  -15.6690   -4.4329 H   0  0  0  0  0  0  0  0  0  0  0  0
    9.1664  -16.7631   -5.1879 H   0  0  0  0  0  0  0  0  0  0  0  0
    9.3359  -13.7400   -5.4165 H   0  0  0  0  0  0  0  0  0  0  0  0
    9.6613  -14.9806   -6.7019 H   0  0  0  0  0  0  0  0  0  0  0  0
    7.4388  -13.8798   -6.8919 H   0  0  0  0  0  0  0  0  0  0  0  0
    6.9651  -16.7985   -6.2594 H   0  0  0  0  0  0  0  0  0  0  0  0
    6.3304  -15.7939   -7.6064 H   0  0  0  0  0  0  0  0  0  0  0  0
    8.0500  -16.3134   -7.6064 H   0  0  0  0  0  0  0  0  0  0  0  0
  1  2  2  0
  2  3  1  0
  3  4  1  0
  4  5  2  0
  5  6  1  0
  6  7  1  0
  7  8  1  0
  8  9  1  1
  8 10  1  0
 10 11  1  0
 11 12  1  0
 11 13  1  0
 13 14  1  0
 13 15  1  0
 15 16  1  1
 15 17  1  0
 17 18  1  0
 15 19  1  0
 19 20  1  0
 20 21  1  0
 21 22  1  0
 22 23  1  1
 22 24  1  0
 24 25  1  6
 24 26  1  0
 26 27  1  0
 27 28  1  0
 28 29  1  1
 29 30  2  0
 29 31  1  0
 31 32  1  0
 32 33  1  0
 33 34  1  0
 34 35  1  0
 35 36  1  0
 34 37  1  0
 37 38  1  0
 37 39  1  0
 39 40  1  0
 39 41  1  0
 41 42  1  0
 28 43  1  0
 43 44  1  0
 44 45  1  0
 45 46  1  0
 45  2  1  0
 28  3  1  0
 41 32  1  0
 24  4  1  0
 22  7  1  0
 19  8  1  0
  1 47  1  0
  1 48  1  0
  3 49  1  1
  5 50  1  0
  6 51  1  0
  6 52  1  0
  7 53  1  6
  9 54  1  0
  9 55  1  0
  9 56  1  0
 10 57  1  0
 10 58  1  0
 11 59  1  1
 12 60  1  0
 13 61  1  1
 14 62  1  0
 16 63  1  0
 16 64  1  0
 16 65  1  0
 17 66  1  0
 17 67  1  0
 18 68  1  0
 19 69  1  6
 20 70  1  0
 20 71  1  0
 21 72  1  0
 21 73  1  0
 23 74  1  0
 23 75  1  0
 23 76  1  0
 25 77  1  0
 25 78  1  0
 25 79  1  0
 26 80  1  0
 26 81  1  0
 27 82  1  0
 27 83  1  0
 32 84  1  1
 34 85  1  1
 35 86  1  0
 35 87  1  0
 36 88  1  0
 37 89  1  6
 38 90  1  0
 39 91  1  1
 40 92  1  0
 41 93  1  6
 42 94  1  0
 43 95  1  0
 43 96  1  0
 44 97  1  0
 44 98  1  0
 45 99  1  6
 46100  1  0
 46101  1  0
 46102  1  0
M  END
>  <meeko>  (5) 
{"is_sidechain": [false], "free_energy": -8.176, "intermolecular_energy": -12.243, "internal_energy": -1.199}

$$$$
LIB_VOJUDERLBZKDIW__M_PUB_ALL__e8__s20260927
     RDKit          3D

102107  0  0  0  0  0  0  0  0999 V2000
    5.0190  -12.3410   -5.7450 C   0  0  0  0  0  0  0  0  0  0  0  0
    4.3380  -12.4520   -4.5880 C   0  0  0  0  0  0  0  0  0  0  0  0
    4.7150  -13.4120   -3.4400 C   0  0  1  0  0  0  0  0  0  0  0  0
    6.1740  -13.9210   -3.4950 C   0  0  0  0  0  0  0  0  0  0  0  0
    6.4250  -15.0770   -4.1460 C   0  0  0  0  0  0  0  0  0  0  0  0
    7.7680  -15.7180   -4.3190 C   0  0  0  0  0  0  0  0  0  0  0  0
    8.9440  -14.8000   -3.9220 C   0  0  2  0  0  0  0  0  0  0  0  0
   10.3840  -15.4680   -4.1000 C   0  0  1  0  0  0  0  0  0  0  0  0
   10.5000  -16.8270   -3.3650 C   0  0  0  0  0  0  0  0  0  0  0  0
   10.6000  -15.7620   -5.6310 C   0  0  0  0  0  0  0  0  0  0  0  0
   11.9730  -15.3710   -6.2000 C   0  0  1  0  0  0  0  0  0  0  0  0
   11.9540  -13.9970   -6.5990 O   0  0  0  0  0  0  0  0  0  0  0  0
   13.1320  -15.6240   -5.2240 C   0  0  2  0  0  0  0  0  0  0  0  0
   13.2590  -17.0390   -5.0460 O   0  0  0  0  0  0  0  0  0  0  0  0
   12.9760  -14.8510   -3.8680 C   0  0  1  0  0  0  0  0  0  0  0  0
   13.5870  -15.6490   -2.6910 C   0  0  0  0  0  0  0  0  0  0  0  0
   13.7960  -13.5240   -3.9890 C   0  0  0  0  0  0  0  0  0  0  0  0
   12.9960  -12.4700   -4.5220 O   0  0  0  0  0  0  0  0  0  0  0  0
   11.4660  -14.4460   -3.6090 C   0  0  2  0  0  0  0  0  0  0  0  0
   11.1760  -13.9740   -2.1700 C   0  0  0  0  0  0  0  0  0  0  0  0
    9.8430  -13.2300   -2.1110 C   0  0  0  0  0  0  0  0  0  0  0  0
    8.6190  -14.0710   -2.5610 C   0  0  2  0  0  0  0  0  0  0  0  0
    8.3320  -15.1110   -1.4320 C   0  0  0  0  0  0  0  0  0  0  0  0
    7.2960  -13.1290   -2.7840 C   0  0  1  0  0  0  0  0  0  0  0  0
    7.6250  -11.8830   -3.6580 C   0  0  0  0  0  0  0  0  0  0  0  0
    6.7840  -12.5880   -1.4180 C   0  0  0  0  0  0  0  0  0  0  0  0
    5.3970  -11.9450   -1.4720 C   0  0  0  0  0  0  0  0  0  0  0  0
    4.3180  -12.9150   -2.0120 C   0  0  2  0  0  0  0  0  0  0  0  0
    4.1640  -14.1530   -1.0990 C   0  0  0  0  0  0  0  0  0  0  0  0
    4.2040  -14.1260    0.1250 O   0  0  0  0  0  0  0  0  0  0  0  0
    4.0680  -15.2940   -1.8320 O   0  0  0  0  0  0  0  0  0  0  0  0
    2.8140  -15.9820   -1.7260 C   0  0  2  0  0  0  0  0  0  0  0  0
    1.8330  -15.0740   -1.2070 O   0  0  0  0  0  0  0  0  0  0  0  0
    0.5430  -15.6890   -1.0700 C   0  0  2  0  0  0  0  0  0  0  0  0
   -0.4500  -14.5940   -0.6700 C   0  0  0  0  0  0  0  0  0  0  0  0
   -1.7770  -14.9680   -1.0350 O   0  0  0  0  0  0  0  0  0  0  0  0
    0.6240  -16.8130   -0.0230 C   0  0  1  0  0  0  0  0  0  0  0  0
   -0.6240  -17.4900    0.1470 O   0  0  0  0  0  0  0  0  0  0  0  0
    1.6630  -17.8380   -0.4840 C   0  0  2  0  0  0  0  0  0  0  0  0
    1.8420  -18.8490    0.5220 O   0  0  0  0  0  0  0  0  0  0  0  0
    3.0100  -17.1700   -0.7640 C   0  0  1  0  0  0  0  0  0  0  0  0
    3.9070  -18.1490   -1.3090 O   0  0  0  0  0  0  0  0  0  0  0  0
    2.9350  -12.2020   -1.9660 C   0  0  0  0  0  0  0  0  0  0  0  0
    2.1810  -12.2440   -3.2900 C   0  0  0  0  0  0  0  0  0  0  0  0
    3.0220  -11.6980   -4.4480 C   0  0  1  0  0  0  0  0  0  0  0  0
    3.2430  -10.1860   -4.3230 C   0  0  0  0  0  0  0  0  0  0  0  0
    4.6834  -11.6305   -6.5147 H   0  0  0  0  0  0  0  0  0  0  0  0
    5.9107  -12.9609   -5.9200 H   0  0  0  0  0  0  0  0  0  0  0  0
    4.0769  -14.2872   -3.6320 H   0  0  0  0  0  0  0  0  0  0  0  0
    5.5633  -15.5964   -4.5907 H   0  0  0  0  0  0  0  0  0  0  0  0
    7.8055  -16.6221   -3.6935 H   0  0  0  0  0  0  0  0  0  0  0  0
    7.8824  -15.9460   -5.3890 H   0  0  0  0  0  0  0  0  0  0  0  0
    9.0421  -13.9844   -4.6535 H   0  0  0  0  0  0  0  0  0  0  0  0
   10.4856  -16.6584   -2.2781 H   0  0  0  0  0  0  0  0  0  0  0  0
    9.6535  -17.4701   -3.6475 H   0  0  0  0  0  0  0  0  0  0  0  0
   11.4433  -17.3173   -3.6475 H   0  0  0  0  0  0  0  0  0  0  0  0
   10.4640  -16.8420   -5.7897 H   0  0  0  0  0  0  0  0  0  0  0  0
    9.8675  -15.1360   -6.1616 H   0  0  0  0  0  0  0  0  0  0  0  0
   12.1552  -16.0189   -7.0701 H   0  0  0  0  0  0  0  0  0  0  0  0
   11.3680  -13.5280   -5.9770 H   0  0  0  0  0  0  0  0  0  0  0  0
   14.0616  -15.2221   -5.6534 H   0  0  0  0  0  0  0  0  0  0  0  0
   12.4580  -17.3320   -4.5760 H   0  0  0  0  0  0  0  0  0  0  0  0
   13.2523  -15.2118   -1.7387 H   0  0  0  0  0  0  0  0  0  0  0  0
   13.2584  -16.6972   -2.7489 H   0  0  0  0  0  0  0  0  0  0  0  0
   14.6846  -15.6051   -2.7489 H   0  0  0  0  0  0  0  0  0  0  0  0
   14.1555  -13.2322   -2.9912 H   0  0  0  0  0  0  0  0  0  0  0  0
   14.6418  -13.6981   -4.6705 H   0  0  0  0  0  0  0  0  0  0  0  0
   12.7920  -12.7110   -5.4420 H   0  0  0  0  0  0  0  0  0  0  0  0
   11.3581  -13.5740   -4.2708 H   0  0  0  0  0  0  0  0  0  0  0  0
   11.1327  -14.8482   -1.5038 H   0  0  0  0  0  0  0  0  0  0  0  0
   11.9785  -13.2934   -1.8496 H   0  0  0  0  0  0  0  0  0  0  0  0
    9.6753  -12.9064   -1.0731 H   0  0  0  0  0  0  0  0  0  0  0  0
    9.9217  -12.3886   -2.8151 H   0  0  0  0  0  0  0  0  0  0  0  0
    8.4641  -14.6324   -0.4504 H   0  0  0  0  0  0  0  0  0  0  0  0
    7.2991  -15.4777   -1.5252 H   0  0  0  0  0  0  0  0  0  0  0  0
    9.0307  -15.9555   -1.5252 H   0  0  0  0  0  0  0  0  0  0  0  0
    7.8511  -11.0268   -3.0055 H   0  0  0  0  0  0  0  0  0  0  0  0
    8.4966  -12.1003   -4.2930 H   0  0  0  0  0  0  0  0  0  0  0  0
    6.7598  -11.6417   -4.2930 H   0  0  0  0  0  0  0  0  0  0  0  0
    6.7466  -13.4273   -0.7079 H   0  0  0  0  0  0  0  0  0  0  0  0
    7.4845  -11.7973   -1.1114 H   0  0  0  0  0  0  0  0  0  0  0  0
    5.1134  -11.6308   -0.4567 H   0  0  0  0  0  0  0  0  0  0  0  0
    5.4512  -11.0874   -2.1587 H   0  0  0  0  0  0  0  0  0  0  0  0
    2.4733  -16.3492   -2.7053 H   0  0  0  0  0  0  0  0  0  0  0  0
    0.2063  -16.1480   -2.0113 H   0  0  0  0  0  0  0  0  0  0  0  0
   -0.4028  -14.4420    0.4184 H   0  0  0  0  0  0  0  0  0  0  0  0
   -0.1849  -13.6637   -1.1937 H   0  0  0  0  0  0  0  0  0  0  0  0
   -1.8420  -15.9250   -0.8470 H   0  0  0  0  0  0  0  0  0  0  0  0
    0.8986  -16.3537    0.9381 H   0  0  0  0  0  0  0  0  0  0  0  0
   -0.5080  -18.3890   -0.2170 H   0  0  0  0  0  0  0  0  0  0  0  0
    1.2923  -18.2958   -1.4130 H   0  0  0  0  0  0  0  0  0  0  0  0
    2.6610  -18.5960    0.9940 H   0  0  0  0  0  0  0  0  0  0  0  0
    3.4441  -16.7755    0.1665 H   0  0  0  0  0  0  0  0  0  0  0  0
    4.7680  -17.6900   -1.3850 H   0  0  0  0  0  0  0  0  0  0  0  0
    2.3172  -12.6912   -1.1986 H   0  0  0  0  0  0  0  0  0  0  0  0
    3.1261  -11.1430   -1.7377 H   0  0  0  0  0  0  0  0  0  0  0  0
    1.9082  -13.2866   -3.5102 H   0  0  0  0  0  0  0  0  0  0  0  0
    1.2871  -11.6106   -3.1917 H   0  0  0  0  0  0  0  0  0  0  0  0
    2.4519  -11.8653   -5.3738 H   0  0  0  0  0  0  0  0  0  0  0  0
    3.2836   -9.9081   -3.2595 H   0  0  0  0  0  0  0  0  0  0  0  0
    4.1907   -9.9125   -4.8099 H   0  0  0  0  0  0  0  0  0  0  0  0
    2.4133   -9.6527   -4.8099 H   0  0  0  0  0  0  0  0  0  0  0  0
  1  2  2  0
  2  3  1  0
  3  4  1  0
  4  5  2  0
  5  6  1  0
  6  7  1  0
  7  8  1  0
  8  9  1  1
  8 10  1  0
 10 11  1  0
 11 12  1  0
 11 13  1  0
 13 14  1  0
 13 15  1  0
 15 16  1  1
 15 17  1  0
 17 18  1  0
 15 19  1  0
 19 20  1  0
 20 21  1  0
 21 22  1  0
 22 23  1  1
 22 24  1  0
 24 25  1  6
 24 26  1  0
 26 27  1  0
 27 28  1  0
 28 29  1  1
 29 30  2  0
 29 31  1  0
 31 32  1  0
 32 33  1  0
 33 34  1  0
 34 35  1  0
 35 36  1  0
 34 37  1  0
 37 38  1  0
 37 39  1  0
 39 40  1  0
 39 41  1  0
 41 42  1  0
 28 43  1  0
 43 44  1  0
 44 45  1  0
 45 46  1  0
 45  2  1  0
 28  3  1  0
 41 32  1  0
 24  4  1  0
 22  7  1  0
 19  8  1  0
  1 47  1  0
  1 48  1  0
  3 49  1  6
  5 50  1  0
  6 51  1  0
  6 52  1  0
  7 53  1  6
  9 54  1  0
  9 55  1  0
  9 56  1  0
 10 57  1  0
 10 58  1  0
 11 59  1  6
 12 60  1  0
 13 61  1  6
 14 62  1  0
 16 63  1  0
 16 64  1  0
 16 65  1  0
 17 66  1  0
 17 67  1  0
 18 68  1  0
 19 69  1  6
 20 70  1  0
 20 71  1  0
 21 72  1  0
 21 73  1  0
 23 74  1  0
 23 75  1  0
 23 76  1  0
 25 77  1  0
 25 78  1  0
 25 79  1  0
 26 80  1  0
 26 81  1  0
 27 82  1  0
 27 83  1  0
 32 84  1  6
 34 85  1  6
 35 86  1  0
 35 87  1  0
 36 88  1  0
 37 89  1  1
 38 90  1  0
 39 91  1  6
 40 92  1  0
 41 93  1  1
 42 94  1  0
 43 95  1  0
 43 96  1  0
 44 97  1  0
 44 98  1  0
 45 99  1  6
 46100  1  0
 46101  1  0
 46102  1  0
M  END
>  <meeko>  (6) 
{"is_sidechain": [false], "free_energy": -8.175, "intermolecular_energy": -12.517, "internal_energy": -0.925}

$$$$
LIB_VOJUDERLBZKDIW__M_PUB_ALL__e8__s20260927
     RDKit          3D

102107  0  0  0  0  0  0  0  0999 V2000
    8.5420  -17.4410   -6.5260 C   0  0  0  0  0  0  0  0  0  0  0  0
    9.5000  -17.7290   -5.6240 C   0  0  0  0  0  0  0  0  0  0  0  0
    9.7940  -16.8900   -4.3620 C   0  0  1  0  0  0  0  0  0  0  0  0
    8.6390  -15.9500   -3.9450 C   0  0  0  0  0  0  0  0  0  0  0  0
    8.6360  -14.6870   -4.4220 C   0  0  0  0  0  0  0  0  0  0  0  0
    7.6000  -13.6420   -4.1440 C   0  0  0  0  0  0  0  0  0  0  0  0
    6.3310  -14.1980   -3.4640 C   0  0  2  0  0  0  0  0  0  0  0  0
    5.2140  -13.0960   -3.1610 C   0  0  1  0  0  0  0  0  0  0  0  0
    5.7710  -11.9010   -2.3480 C   0  0  0  0  0  0  0  0  0  0  0  0
    4.7150  -12.5160   -4.5350 C   0  0  0  0  0  0  0  0  0  0  0  0
    3.1930  -12.3670   -4.6850 C   0  0  1  0  0  0  0  0  0  0  0  0
    2.6340  -13.5990   -5.1490 O   0  0  0  0  0  0  0  0  0  0  0  0
    2.4940  -11.9200   -3.3910 C   0  0  2  0  0  0  0  0  0  0  0  0
    2.9120  -10.5820   -3.1020 O   0  0  0  0  0  0  0  0  0  0  0  0
    2.7290  -12.9050   -2.1930 C   0  0  1  0  0  0  0  0  0  0  0  0
    2.7640  -12.1500   -0.8430 C   0  0  0  0  0  0  0  0  0  0  0  0
    1.5030  -13.8750   -2.1370 C   0  0  0  0  0  0  0  0  0  0  0  0
    1.7320  -15.0420   -2.9260 O   0  0  0  0  0  0  0  0  0  0  0  0
    4.0190  -13.7940   -2.4260 C   0  0  2  0  0  0  0  0  0  0  0  0
    4.5010  -14.5500   -1.1710 C   0  0  0  0  0  0  0  0  0  0  0  0
    5.4620  -15.6720   -1.5600 C   0  0  0  0  0  0  0  0  0  0  0  0
    6.7350  -15.1940   -2.3090 C   0  0  2  0  0  0  0  0  0  0  0  0
    7.6490  -14.4840   -1.2620 C   0  0  0  0  0  0  0  0  0  0  0  0
    7.5440  -16.4550   -2.9760 C   0  0  1  0  0  0  0  0  0  0  0  0
    6.5890  -17.3840   -3.7800 C   0  0  0  0  0  0  0  0  0  0  0  0
    8.1820  -17.3330   -1.8610 C   0  0  0  0  0  0  0  0  0  0  0  0
    9.1970  -18.3590   -2.3680 C   0  0  0  0  0  0  0  0  0  0  0  0
   10.3590  -17.7020   -3.1510 C   0  0  2  0  0  0  0  0  0  0  0  0
   11.1640  -16.7310   -2.2580 C   0  0  0  0  0  0  0  0  0  0  0  0
   11.3200  -16.8610   -1.0500 O   0  0  0  0  0  0  0  0  0  0  0  0
   11.6070  -15.6600   -2.9710 O   0  0  0  0  0  0  0  0  0  0  0  0
   12.1350  -14.5830   -2.1870 C   0  0  2  0  0  0  0  0  0  0  0  0
   11.0880  -14.0590   -1.3590 O   0  0  0  0  0  0  0  0  0  0  0  0
   11.5380  -12.9700   -0.5390 C   0  0  2  0  0  0  0  0  0  0  0  0
   10.3930  -12.6040    0.4110 C   0  0  0  0  0  0  0  0  0  0  0  0
   10.9060  -12.2330    1.6890 O   0  0  0  0  0  0  0  0  0  0  0  0
   11.9490  -11.7920   -1.4370 C   0  0  1  0  0  0  0  0  0  0  0  0
   12.4350  -10.6760   -0.6840 O   0  0  0  0  0  0  0  0  0  0  0  0
   13.0660  -12.2570   -2.3750 C   0  0  2  0  0  0  0  0  0  0  0  0
   13.4030  -11.2100   -3.3010 O   0  0  0  0  0  0  0  0  0  0  0  0
   12.6450  -13.5000   -3.1580 C   0  0  1  0  0  0  0  0  0  0  0  0
   13.7670  -13.9650   -3.9240 O   0  0  0  0  0  0  0  0  0  0  0  0
   11.3730  -18.8070   -3.5670 C   0  0  0  0  0  0  0  0  0  0  0  0
   11.7160  -18.7960   -5.0520 C   0  0  0  0  0  0  0  0  0  0  0  0
   10.4640  -18.8660   -5.9310 C   0  0  1  0  0  0  0  0  0  0  0  0
    9.7800  -20.2350   -5.8340 C   0  0  0  0  0  0  0  0  0  0  0  0
    8.3966  -18.0919   -7.4008 H   0  0  0  0  0  0  0  0  0  0  0  0
    7.9050  -16.5549   -6.3879 H   0  0  0  0  0  0  0  0  0  0  0  0
   10.6188  -16.2385   -4.6865 H   0  0  0  0  0  0  0  0  0  0  0  0
    9.4724  -14.3987   -5.0757 H   0  0  0  0  0  0  0  0  0  0  0  0
    8.0423  -12.8799   -3.4855 H   0  0  0  0  0  0  0  0  0  0  0  0
    7.2911  -13.2267   -5.1146 H   0  0  0  0  0  0  0  0  0  0  0  0
    5.7686  -14.8185   -4.1772 H   0  0  0  0  0  0  0  0  0  0  0  0
    5.6729  -12.1115   -1.2728 H   0  0  0  0  0  0  0  0  0  0  0  0
    6.8319  -11.7509   -2.5969 H   0  0  0  0  0  0  0  0  0  0  0  0
    5.2038  -10.9920   -2.5969 H   0  0  0  0  0  0  0  0  0  0  0  0
    5.1659  -11.5211   -4.6650 H   0  0  0  0  0  0  0  0  0  0  0  0
    5.0199  -13.2486   -5.2968 H   0  0  0  0  0  0  0  0  0  0  0  0
    3.0196  -11.5681   -5.4210 H   0  0  0  0  0  0  0  0  0  0  0  0
    3.3530  -14.0940   -5.5800 H   0  0  0  0  0  0  0  0  0  0  0  0
    1.4045  -11.9396   -3.5415 H   0  0  0  0  0  0  0  0  0  0  0  0
    2.1230  -10.1070   -2.7870 H   0  0  0  0  0  0  0  0  0  0  0  0
    2.7304  -12.8750   -0.0164 H   0  0  0  0  0  0  0  0  0  0  0  0
    3.6904  -11.5607   -0.7764 H   0  0  0  0  0  0  0  0  0  0  0  0
    1.8961  -11.4775   -0.7764 H   0  0  0  0  0  0  0  0  0  0  0  0
    1.3308  -14.1758   -1.0930 H   0  0  0  0  0  0  0  0  0  0  0  0
    0.6243  -13.3495   -2.5391 H   0  0  0  0  0  0  0  0  0  0  0  0
    2.6610  -15.2950   -2.7860 H   0  0  0  0  0  0  0  0  0  0  0  0
    3.6414  -14.5423   -3.1384 H   0  0  0  0  0  0  0  0  0  0  0  0
    5.0172  -13.8471   -0.5007 H   0  0  0  0  0  0  0  0  0  0  0  0
    3.6295  -14.9877   -0.6621 H   0  0  0  0  0  0  0  0  0  0  0  0
    5.7768  -16.1894   -0.6417 H   0  0  0  0  0  0  0  0  0  0  0  0
    4.9158  -16.3269   -2.2548 H   0  0  0  0  0  0  0  0  0  0  0  0
    7.3143  -14.7440   -0.2469 H   0  0  0  0  0  0  0  0  0  0  0  0
    8.6894  -14.8131   -1.4006 H   0  0  0  0  0  0  0  0  0  0  0  0
    7.5875  -13.3945   -1.4006 H   0  0  0  0  0  0  0  0  0  0  0  0
    5.9799  -17.9765   -3.0815 H   0  0  0  0  0  0  0  0  0  0  0  0
    5.9298  -16.7723   -4.4134 H   0  0  0  0  0  0  0  0  0  0  0  0
    7.1823  -18.0599   -4.4134 H   0  0  0  0  0  0  0  0  0  0  0  0
    8.6918  -16.6677   -1.1487 H   0  0  0  0  0  0  0  0  0  0  0  0
    7.3610  -17.9037   -1.4025 H   0  0  0  0  0  0  0  0  0  0  0  0
    9.6135  -18.8999   -1.5055 H   0  0  0  0  0  0  0  0  0  0  0  0
    8.6719  -19.0391   -3.0549 H   0  0  0  0  0  0  0  0  0  0  0  0
   12.9595  -14.9228   -1.5430 H   0  0  0  0  0  0  0  0  0  0  0  0
   12.4210  -13.2445    0.0568 H   0  0  0  0  0  0  0  0  0  0  0  0
    9.8275  -11.7603   -0.0113 H   0  0  0  0  0  0  0  0  0  0  0  0
    9.7357  -13.4779    0.5306 H   0  0  0  0  0  0  0  0  0  0  0  0
   11.5750  -12.9100    1.9110 H   0  0  0  0  0  0  0  0  0  0  0  0
   11.0557  -11.4685   -1.9914 H   0  0  0  0  0  0  0  0  0  0  0  0
   11.6580  -10.1240   -0.4700 H   0  0  0  0  0  0  0  0  0  0  0  0
   13.9416  -12.5053   -1.7573 H   0  0  0  0  0  0  0  0  0  0  0  0
   12.9280  -10.4200   -2.9740 H   0  0  0  0  0  0  0  0  0  0  0  0
   11.8227  -13.2587   -3.8476 H   0  0  0  0  0  0  0  0  0  0  0  0
   13.3860  -14.5770   -4.5860 H   0  0  0  0  0  0  0  0  0  0  0  0
   12.3011  -18.6598   -2.9951 H   0  0  0  0  0  0  0  0  0  0  0  0
   10.8979  -19.7760   -3.3539 H   0  0  0  0  0  0  0  0  0  0  0  0
   12.2611  -17.8690   -5.2836 H   0  0  0  0  0  0  0  0  0  0  0  0
   12.3305  -19.6831   -5.2651 H   0  0  0  0  0  0  0  0  0  0  0  0
   10.7897  -18.7417   -6.9743 H   0  0  0  0  0  0  0  0  0  0  0  0
    9.6458  -20.5037   -4.7758 H   0  0  0  0  0  0  0  0  0  0  0  0
    8.7983  -20.1903   -6.3283 H   0  0  0  0  0  0  0  0  0  0  0  0
   10.4052  -20.9931   -6.3283 H   0  0  0  0  0  0  0  0  0  0  0  0
  1  2  2  0
  2  3  1  0
  3  4  1  0
  4  5  2  0
  5  6  1  0
  6  7  1  0
  7  8  1  0
  8  9  1  1
  8 10  1  0
 10 11  1  0
 11 12  1  0
 11 13  1  0
 13 14  1  0
 13 15  1  0
 15 16  1  1
 15 17  1  0
 17 18  1  0
 15 19  1  0
 19 20  1  0
 20 21  1  0
 21 22  1  0
 22 23  1  1
 22 24  1  0
 24 25  1  6
 24 26  1  0
 26 27  1  0
 27 28  1  0
 28 29  1  1
 29 30  2  0
 29 31  1  0
 31 32  1  0
 32 33  1  0
 33 34  1  0
 34 35  1  0
 35 36  1  0
 34 37  1  0
 37 38  1  0
 37 39  1  0
 39 40  1  0
 39 41  1  0
 41 42  1  0
 28 43  1  0
 43 44  1  0
 44 45  1  0
 45 46  1  0
 45  2  1  0
 28  3  1  0
 41 32  1  0
 24  4  1  0
 22  7  1  0
 19  8  1  0
  1 47  1  0
  1 48  1  0
  3 49  1  6
  5 50  1  0
  6 51  1  0
  6 52  1  0
  7 53  1  6
  9 54  1  0
  9 55  1  0
  9 56  1  0
 10 57  1  0
 10 58  1  0
 11 59  1  6
 12 60  1  0
 13 61  1  6
 14 62  1  0
 16 63  1  0
 16 64  1  0
 16 65  1  0
 17 66  1  0
 17 67  1  0
 18 68  1  0
 19 69  1  6
 20 70  1  0
 20 71  1  0
 21 72  1  0
 21 73  1  0
 23 74  1  0
 23 75  1  0
 23 76  1  0
 25 77  1  0
 25 78  1  0
 25 79  1  0
 26 80  1  0
 26 81  1  0
 27 82  1  0
 27 83  1  0
 32 84  1  1
 34 85  1  1
 35 86  1  0
 35 87  1  0
 36 88  1  0
 37 89  1  6
 38 90  1  0
 39 91  1  1
 40 92  1  0
 41 93  1  6
 42 94  1  0
 43 95  1  0
 43 96  1  0
 44 97  1  0
 44 98  1  0
 45 99  1  6
 46100  1  0
 46101  1  0
 46102  1  0
M  END
>  <meeko>  (7) 
{"is_sidechain": [false], "free_energy": -7.945, "intermolecular_energy": -11.751, "internal_energy": -1.347}

$$$$
LIB_VOJUDERLBZKDIW__M_PUB_ALL__e8__s20260927
     RDKit          3D

102107  0  0  0  0  0  0  0  0999 V2000
   -2.5180  -13.6420   -0.0900 C   0  0  0  0  0  0  0  0  0  0  0  0
   -2.3800  -14.3140    1.0700 C   0  0  0  0  0  0  0  0  0  0  0  0
   -1.2370  -15.3030    1.3770 C   0  0  1  0  0  0  0  0  0  0  0  0
   -0.0040  -15.1490    0.4570 C   0  0  0  0  0  0  0  0  0  0  0  0
    0.0530  -15.8940   -0.6680 C   0  0  0  0  0  0  0  0  0  0  0  0
    1.1530  -15.8720   -1.6850 C   0  0  0  0  0  0  0  0  0  0  0  0
    2.1360  -14.6970   -1.5030 C   0  0  2  0  0  0  0  0  0  0  0  0
    3.3160  -14.6590   -2.5800 C   0  0  1  0  0  0  0  0  0  0  0  0
    4.0940  -15.9960   -2.6520 C   0  0  0  0  0  0  0  0  0  0  0  0
    2.6740  -14.4320   -3.9990 C   0  0  0  0  0  0  0  0  0  0  0  0
    3.3690  -13.3900   -4.8890 C   0  0  1  0  0  0  0  0  0  0  0  0
    2.8560  -12.0870   -4.5920 O   0  0  0  0  0  0  0  0  0  0  0  0
    4.9000  -13.4000   -4.7590 C   0  0  2  0  0  0  0  0  0  0  0  0
    5.3810  -14.6380   -5.2940 O   0  0  0  0  0  0  0  0  0  0  0  0
    5.3950  -13.1360   -3.2940 C   0  0  1  0  0  0  0  0  0  0  0  0
    6.7100  -13.8960   -2.9990 C   0  0  0  0  0  0  0  0  0  0  0  0
    5.7190  -11.6100   -3.1780 C   0  0  0  0  0  0  0  0  0  0  0  0
    4.5480  -10.8550   -2.8710 O   0  0  0  0  0  0  0  0  0  0  0  0
    4.2580  -13.4540   -2.2380 C   0  0  2  0  0  0  0  0  0  0  0  0
    4.7530  -13.5300   -0.7790 C   0  0  0  0  0  0  0  0  0  0  0  0
    3.5760  -13.4270    0.1900 C   0  0  0  0  0  0  0  0  0  0  0  0
    2.5090  -14.5410    0.0220 C   0  0  2  0  0  0  0  0  0  0  0  0
    3.1280  -15.8620    0.5770 C   0  0  0  0  0  0  0  0  0  0  0  0
    1.1410  -14.1870    0.8530 C   0  0  1  0  0  0  0  0  0  0  0  0
    0.6600  -12.7340    0.5670 C   0  0  0  0  0  0  0  0  0  0  0  0
    1.4040  -14.2720    2.3840 C   0  0  0  0  0  0  0  0  0  0  0  0
    0.1410  -14.2520    3.2450 C   0  0  0  0  0  0  0  0  0  0  0  0
   -0.8370  -15.3960    2.8860 C   0  0  2  0  0  0  0  0  0  0  0  0
   -0.1970  -16.7820    3.1270 C   0  0  0  0  0  0  0  0  0  0  0  0
   -0.6490  -17.8410    2.7080 O   0  0  0  0  0  0  0  0  0  0  0  0
    0.8880  -16.6870    3.9420 O   0  0  0  0  0  0  0  0  0  0  0  0
    1.0250  -17.7450    4.8990 C   0  0  2  0  0  0  0  0  0  0  0  0
    1.2640  -17.1700    6.1910 O   0  0  0  0  0  0  0  0  0  0  0  0
    1.4130  -18.1690    7.2110 C   0  0  2  0  0  0  0  0  0  0  0  0
    1.4960  -17.4450    8.5580 C   0  0  0  0  0  0  0  0  0  0  0  0
    2.8460  -17.0870    8.8490 O   0  0  0  0  0  0  0  0  0  0  0  0
    2.6690  -19.0080    6.9210 C   0  0  1  0  0  0  0  0  0  0  0  0
    2.8670  -20.0440    7.8870 O   0  0  0  0  0  0  0  0  0  0  0  0
    2.5150  -19.6620    5.5460 C   0  0  2  0  0  0  0  0  0  0  0  0
    3.7170  -20.3690    5.1970 O   0  0  0  0  0  0  0  0  0  0  0  0
    2.2210  -18.6170    4.4690 C   0  0  1  0  0  0  0  0  0  0  0  0
    1.9630  -19.2920    3.2290 O   0  0  0  0  0  0  0  0  0  0  0  0
   -2.0560  -15.3380    3.8530 C   0  0  0  0  0  0  0  0  0  0  0  0
   -3.4030  -15.3340    3.1410 C   0  0  0  0  0  0  0  0  0  0  0  0
   -3.4990  -14.2170    2.0980 C   0  0  1  0  0  0  0  0  0  0  0  0
   -3.5500  -12.8320    2.7560 C   0  0  0  0  0  0  0  0  0  0  0  0
   -3.3642  -12.9531   -0.2292 H   0  0  0  0  0  0  0  0  0  0  0  0
   -1.7844  -13.7824   -0.8976 H   0  0  0  0  0  0  0  0  0  0  0  0
   -1.6837  -16.2780    1.1326 H   0  0  0  0  0  0  0  0  0  0  0  0
   -0.7859  -16.5805   -0.8550 H   0  0  0  0  0  0  0  0  0  0  0  0
    1.7173  -16.8131   -1.6080 H   0  0  0  0  0  0  0  0  0  0  0  0
    0.6801  -15.7485   -2.6705 H   0  0  0  0  0  0  0  0  0  0  0  0
    1.6365  -13.7517   -1.7614 H   0  0  0  0  0  0  0  0  0  0  0  0
    4.3025  -16.3542   -1.6331 H   0  0  0  0  0  0  0  0  0  0  0  0
    3.4898  -16.7435   -3.1870 H   0  0  0  0  0  0  0  0  0  0  0  0
    5.0424  -15.8400   -3.1870 H   0  0  0  0  0  0  0  0  0  0  0  0
    2.6865  -15.3937   -4.5327 H   0  0  0  0  0  0  0  0  0  0  0  0
    1.6645  -14.0378   -3.8103 H   0  0  0  0  0  0  0  0  0  0  0  0
    3.1467  -13.6600   -5.9319 H   0  0  0  0  0  0  0  0  0  0  0  0
    2.0180  -11.9930   -5.0800 H   0  0  0  0  0  0  0  0  0  0  0  0
    5.3187  -12.5626   -5.3364 H   0  0  0  0  0  0  0  0  0  0  0  0
    5.4660  -15.2500   -4.5420 H   0  0  0  0  0  0  0  0  0  0  0  0
    6.8504  -13.9772   -1.9110 H   0  0  0  0  0  0  0  0  0  0  0  0
    6.6578  -14.9032   -3.4381 H   0  0  0  0  0  0  0  0  0  0  0  0
    7.5567  -13.3480   -3.4381 H   0  0  0  0  0  0  0  0  0  0  0  0
    6.4614  -11.4606   -2.3802 H   0  0  0  0  0  0  0  0  0  0  0  0
    6.1129  -11.2634   -4.1448 H   0  0  0  0  0  0  0  0  0  0  0  0
    4.3020  -11.0800   -1.9580 H   0  0  0  0  0  0  0  0  0  0  0  0
    3.6239  -12.5595   -2.3263 H   0  0  0  0  0  0  0  0  0  0  0  0
    5.2694  -14.4883   -0.6211 H   0  0  0  0  0  0  0  0  0  0  0  0
    5.4424  -12.6933   -0.5925 H   0  0  0  0  0  0  0  0  0  0  0  0
    3.9693  -13.4790    1.2160 H   0  0  0  0  0  0  0  0  0  0  0  0
    3.0721  -12.4738   -0.0278 H   0  0  0  0  0  0  0  0  0  0  0  0
    3.1169  -15.8384    1.6767 H   0  0  0  0  0  0  0  0  0  0  0  0
    2.5384  -16.7204    0.2227 H   0  0  0  0  0  0  0  0  0  0  0  0
    4.1649  -15.9582    0.2227 H   0  0  0  0  0  0  0  0  0  0  0  0
    0.4869  -12.2110    1.5191 H   0  0  0  0  0  0  0  0  0  0  0  0
    1.4293  -12.2000   -0.0101 H   0  0  0  0  0  0  0  0  0  0  0  0
   -0.2760  -12.7645   -0.0101 H   0  0  0  0  0  0  0  0  0  0  0  0
    1.9447  -15.2078    2.5885 H   0  0  0  0  0  0  0  0  0  0  0  0
    1.9810  -13.3750    2.6531 H   0  0  0  0  0  0  0  0  0  0  0  0
    0.4318  -14.3545    4.3009 H   0  0  0  0  0  0  0  0  0  0  0  0
   -0.3758  -13.2989    3.0594 H   0  0  0  0  0  0  0  0  0  0  0  0
    0.1150  -18.3610    4.9483 H   0  0  0  0  0  0  0  0  0  0  0  0
    0.5594  -18.8625    7.2328 H   0  0  0  0  0  0  0  0  0  0  0  0
    0.8802  -16.5344    8.5183 H   0  0  0  0  0  0  0  0  0  0  0  0
    1.1275  -18.1170    9.3471 H   0  0  0  0  0  0  0  0  0  0  0  0
    3.2760  -16.9570    7.9810 H   0  0  0  0  0  0  0  0  0  0  0  0
    3.5365  -18.3328    6.9595 H   0  0  0  0  0  0  0  0  0  0  0  0
    3.2630  -19.6220    8.6740 H   0  0  0  0  0  0  0  0  0  0  0  0
    1.6702  -20.3643    5.6012 H   0  0  0  0  0  0  0  0  0  0  0  0
    4.1830  -19.7820    4.5680 H   0  0  0  0  0  0  0  0  0  0  0  0
    3.0859  -17.9509    4.3339 H   0  0  0  0  0  0  0  0  0  0  0  0
    2.5900  -20.0430    3.2140 H   0  0  0  0  0  0  0  0  0  0  0  0
   -2.0159  -16.2153    4.5153 H   0  0  0  0  0  0  0  0  0  0  0  0
   -1.9823  -14.3904    4.4067 H   0  0  0  0  0  0  0  0  0  0  0  0
   -3.5412  -16.3023    2.6377 H   0  0  0  0  0  0  0  0  0  0  0  0
   -4.1848  -15.1616    3.8954 H   0  0  0  0  0  0  0  0  0  0  0  0
   -4.4478  -14.3530    1.5582 H   0  0  0  0  0  0  0  0  0  0  0  0
   -3.5458  -12.9455    3.8501 H   0  0  0  0  0  0  0  0  0  0  0  0
   -2.6728  -12.2457    2.4448 H   0  0  0  0  0  0  0  0  0  0  0  0
   -4.4679  -12.3118    2.4448 H   0  0  0  0  0  0  0  0  0  0  0  0
  1  2  2  0
  2  3  1  0
  3  4  1  0
  4  5  2  0
  5  6  1  0
  6  7  1  0
  7  8  1  0
  8  9  1  6
  8 10  1  0
 10 11  1  0
 11 12  1  0
 11 13  1  0
 13 14  1  0
 13 15  1  0
 15 16  1  1
 15 17  1  0
 17 18  1  0
 15 19  1  0
 19 20  1  0
 20 21  1  0
 21 22  1  0
 22 23  1  1
 22 24  1  0
 24 25  1  1
 24 26  1  0
 26 27  1  0
 27 28  1  0
 28 29  1  6
 29 30  2  0
 29 31  1  0
 31 32  1  0
 32 33  1  0
 33 34  1  0
 34 35  1  0
 35 36  1  0
 34 37  1  0
 37 38  1  0
 37 39  1  0
 39 40  1  0
 39 41  1  0
 41 42  1  0
 28 43  1  0
 43 44  1  0
 44 45  1  0
 45 46  1  0
 45  2  1  0
 28  3  1  0
 41 32  1  0
 24  4  1  0
 22  7  1  0
 19  8  1  0
  1 47  1  0
  1 48  1  0
  3 49  1  6
  5 50  1  0
  6 51  1  0
  6 52  1  0
  7 53  1  6
  9 54  1  0
  9 55  1  0
  9 56  1  0
 10 57  1  0
 10 58  1  0
 11 59  1  6
 12 60  1  0
 13 61  1  6
 14 62  1  0
 16 63  1  0
 16 64  1  0
 16 65  1  0
 17 66  1  0
 17 67  1  0
 18 68  1  0
 19 69  1  1
 20 70  1  0
 20 71  1  0
 21 72  1  0
 21 73  1  0
 23 74  1  0
 23 75  1  0
 23 76  1  0
 25 77  1  0
 25 78  1  0
 25 79  1  0
 26 80  1  0
 26 81  1  0
 27 82  1  0
 27 83  1  0
 32 84  1  1
 34 85  1  1
 35 86  1  0
 35 87  1  0
 36 88  1  0
 37 89  1  6
 38 90  1  0
 39 91  1  1
 40 92  1  0
 41 93  1  6
 42 94  1  0
 43 95  1  0
 43 96  1  0
 44 97  1  0
 44 98  1  0
 45 99  1  6
 46100  1  0
 46101  1  0
 46102  1  0
M  END
>  <meeko>  (8) 
{"is_sidechain": [false], "free_energy": -7.865, "intermolecular_energy": -11.721, "internal_energy": -1.257}

$$$$
LIB_VOJUDERLBZKDIW__M_PUB_ALL__e8__s20260927
     RDKit          3D

102107  0  0  0  0  0  0  0  0999 V2000
    9.8060  -18.7690   -7.3730 C   0  0  0  0  0  0  0  0  0  0  0  0
   10.5060  -18.3260   -8.4360 C   0  0  0  0  0  0  0  0  0  0  0  0
   10.9490  -16.8620   -8.6420 C   0  0  1  0  0  0  0  0  0  0  0  0
   10.9390  -16.0110   -7.3510 C   0  0  0  0  0  0  0  0  0  0  0  0
    9.8210  -15.3170   -7.0490 C   0  0  0  0  0  0  0  0  0  0  0  0
    9.6170  -14.4550   -5.8420 C   0  0  0  0  0  0  0  0  0  0  0  0
   10.7160  -14.6250   -4.7710 C   0  0  2  0  0  0  0  0  0  0  0  0
   10.5140  -13.7120   -3.4760 C   0  0  1  0  0  0  0  0  0  0  0  0
   10.3450  -12.2130   -3.8300 C   0  0  0  0  0  0  0  0  0  0  0  0
    9.1840  -14.1610   -2.7640 C   0  0  0  0  0  0  0  0  0  0  0  0
    9.2620  -14.3190   -1.2380 C   0  0  1  0  0  0  0  0  0  0  0  0
    9.7270  -15.6330   -0.9140 O   0  0  0  0  0  0  0  0  0  0  0  0
   10.1470  -13.2610   -0.5600 C   0  0  2  0  0  0  0  0  0  0  0  0
    9.5080  -11.9880   -0.7110 O   0  0  0  0  0  0  0  0  0  0  0  0
   11.6260  -13.2670   -1.0850 C   0  0  1  0  0  0  0  0  0  0  0  0
   12.2360  -11.8450   -1.0620 C   0  0  0  0  0  0  0  0  0  0  0  0
   12.4690  -14.1370   -0.0960 C   0  0  0  0  0  0  0  0  0  0  0  0
   12.6210  -15.4690   -0.5810 O   0  0  0  0  0  0  0  0  0  0  0  0
   11.7250  -13.9490   -2.5110 C   0  0  2  0  0  0  0  0  0  0  0  0
   13.0680  -13.7120   -3.2320 C   0  0  0  0  0  0  0  0  0  0  0  0
   13.2430  -14.7120   -4.3750 C   0  0  0  0  0  0  0  0  0  0  0  0
   12.1350  -14.6450   -5.4590 C   0  0  2  0  0  0  0  0  0  0  0  0
   12.3700  -13.3390   -6.2810 C   0  0  0  0  0  0  0  0  0  0  0  0
   12.2030  -15.9410   -6.4620 C   0  0  1  0  0  0  0  0  0  0  0  0
   12.2960  -17.2750   -5.6640 C   0  0  0  0  0  0  0  0  0  0  0  0
   13.4780  -15.8670   -7.3500 C   0  0  0  0  0  0  0  0  0  0  0  0
   13.4940  -16.8570   -8.5160 C   0  0  0  0  0  0  0  0  0  0  0  0
   12.2740  -16.6850   -9.4530 C   0  0  2  0  0  0  0  0  0  0  0  0
   12.2540  -15.2830  -10.1030 C   0  0  0  0  0  0  0  0  0  0  0  0
   13.0970  -14.4150   -9.9130 O   0  0  0  0  0  0  0  0  0  0  0  0
   11.1300  -15.1020  -10.8470 O   0  0  0  0  0  0  0  0  0  0  0  0
   10.3410  -13.9600  -10.4900 C   0  0  2  0  0  0  0  0  0  0  0  0
    8.9960  -14.3900  -10.2370 O   0  0  0  0  0  0  0  0  0  0  0  0
    8.1370  -13.2990   -9.8710 C   0  0  2  0  0  0  0  0  0  0  0  0
    6.7840  -13.8930   -9.4670 C   0  0  0  0  0  0  0  0  0  0  0  0
    5.9520  -14.0620  -10.6130 O   0  0  0  0  0  0  0  0  0  0  0  0
    8.0180  -12.3270  -11.0560 C   0  0  1  0  0  0  0  0  0  0  0  0
    7.1940  -11.1970  -10.7530 O   0  0  0  0  0  0  0  0  0  0  0  0
    9.4150  -11.8150  -11.4140 C   0  0  2  0  0  0  0  0  0  0  0  0
    9.3530  -10.9850  -12.5850 O   0  0  0  0  0  0  0  0  0  0  0  0
   10.3760  -12.9750  -11.6750 C   0  0  1  0  0  0  0  0  0  0  0  0
   11.6940  -12.4450  -11.8810 O   0  0  0  0  0  0  0  0  0  0  0  0
   12.4090  -17.6820  -10.6420 C   0  0  0  0  0  0  0  0  0  0  0  0
   11.1720  -18.5430  -10.8620 C   0  0  0  0  0  0  0  0  0  0  0  0
   10.7550  -19.2870   -9.5900 C   0  0  1  0  0  0  0  0  0  0  0  0
   11.7660  -20.3780   -9.2160 C   0  0  0  0  0  0  0  0  0  0  0  0
    9.5285  -19.8310   -7.3010 H   0  0  0  0  0  0  0  0  0  0  0  0
    9.5122  -18.0686   -6.5773 H   0  0  0  0  0  0  0  0  0  0  0  0
   10.1559  -16.4539   -9.2858 H   0  0  0  0  0  0  0  0  0  0  0  0
    8.9815  -15.3919   -7.7558 H   0  0  0  0  0  0  0  0  0  0  0  0
    9.6039  -13.4031   -6.1635 H   0  0  0  0  0  0  0  0  0  0  0  0
    8.6664  -14.7624   -5.3818 H   0  0  0  0  0  0  0  0  0  0  0  0
   10.6251  -15.6144   -4.2990 H   0  0  0  0  0  0  0  0  0  0  0  0
   10.2785  -11.6228   -2.9041 H   0  0  0  0  0  0  0  0  0  0  0  0
   11.2108  -11.8754   -4.4186 H   0  0  0  0  0  0  0  0  0  0  0  0
    9.4258  -12.0766   -4.4186 H   0  0  0  0  0  0  0  0  0  0  0  0
    8.4121  -13.4095   -2.9863 H   0  0  0  0  0  0  0  0  0  0  0  0
    8.9592  -15.1637   -3.1566 H   0  0  0  0  0  0  0  0  0  0  0  0
    8.2447  -14.1670   -0.8480 H   0  0  0  0  0  0  0  0  0  0  0  0
    8.9390  -16.1840   -0.7580 H   0  0  0  0  0  0  0  0  0  0  0  0
   10.2436  -13.4996    0.5095 H   0  0  0  0  0  0  0  0  0  0  0  0
    8.7460  -11.9870   -0.1050 H   0  0  0  0  0  0  0  0  0  0  0  0
   12.3745  -11.5222   -0.0196 H   0  0  0  0  0  0  0  0  0  0  0  0
   13.2090  -11.8551   -1.5750 H   0  0  0  0  0  0  0  0  0  0  0  0
   11.5582  -11.1469   -1.5750 H   0  0  0  0  0  0  0  0  0  0  0  0
   13.4638  -13.6828    0.0227 H   0  0  0  0  0  0  0  0  0  0  0  0
   11.9423  -14.1760    0.8689 H   0  0  0  0  0  0  0  0  0  0  0  0
   11.8220  -15.6710   -1.0990 H   0  0  0  0  0  0  0  0  0  0  0  0
   11.6742  -15.0153   -2.2456 H   0  0  0  0  0  0  0  0  0  0  0  0
   13.0857  -12.6901   -3.6386 H   0  0  0  0  0  0  0  0  0  0  0  0
   13.8883  -13.8464   -2.5116 H   0  0  0  0  0  0  0  0  0  0  0  0
   14.2108  -14.5153   -4.8594 H   0  0  0  0  0  0  0  0  0  0  0  0
   13.1844  -15.7149   -3.9270 H   0  0  0  0  0  0  0  0  0  0  0  0
   12.5219  -12.4947   -5.5924 H   0  0  0  0  0  0  0  0  0  0  0  0
   13.2608  -13.4600   -6.9149 H   0  0  0  0  0  0  0  0  0  0  0  0
   11.4929  -13.1419   -6.9149 H   0  0  0  0  0  0  0  0  0  0  0  0
   12.2809  -17.0589   -4.5855 H   0  0  0  0  0  0  0  0  0  0  0  0
   11.4404  -17.9166   -5.9214 H   0  0  0  0  0  0  0  0  0  0  0  0
   13.2323  -17.7917   -5.9214 H   0  0  0  0  0  0  0  0  0  0  0  0
   13.5522  -14.8495   -7.7615 H   0  0  0  0  0  0  0  0  0  0  0  0
   14.3273  -16.1306   -6.7026 H   0  0  0  0  0  0  0  0  0  0  0  0
   14.4129  -16.7001   -9.1000 H   0  0  0  0  0  0  0  0  0  0  0  0
   13.4527  -17.8722   -8.0945 H   0  0  0  0  0  0  0  0  0  0  0  0
   10.7321  -13.4690   -9.5867 H   0  0  0  0  0  0  0  0  0  0  0  0
    8.5403  -12.7258   -9.0232 H   0  0  0  0  0  0  0  0  0  0  0  0
    6.9457  -14.8706   -8.9894 H   0  0  0  0  0  0  0  0  0  0  0  0
    6.2885  -13.2061   -8.7651 H   0  0  0  0  0  0  0  0  0  0  0  0
    5.6970  -15.0050  -10.6150 H   0  0  0  0  0  0  0  0  0  0  0  0
    7.5561  -12.8752  -11.8903 H   0  0  0  0  0  0  0  0  0  0  0  0
    6.7610  -10.9340  -11.5880 H   0  0  0  0  0  0  0  0  0  0  0  0
    9.7868  -11.2295  -10.5602 H   0  0  0  0  0  0  0  0  0  0  0  0
    9.0130  -11.5690  -13.2930 H   0  0  0  0  0  0  0  0  0  0  0  0
   10.0738  -13.5286  -12.5763 H   0  0  0  0  0  0  0  0  0  0  0  0
   11.6190  -11.4910  -11.6770 H   0  0  0  0  0  0  0  0  0  0  0  0
   12.5983  -17.1051  -11.5593 H   0  0  0  0  0  0  0  0  0  0  0  0
   13.2364  -18.3643  -10.3973 H   0  0  0  0  0  0  0  0  0  0  0  0
   10.3421  -17.8963  -11.1830 H   0  0  0  0  0  0  0  0  0  0  0  0
   11.4131  -19.2930  -11.6297 H   0  0  0  0  0  0  0  0  0  0  0  0
    9.8008  -19.7912   -9.8029 H   0  0  0  0  0  0  0  0  0  0  0  0
   11.8358  -20.4533   -8.1208 H   0  0  0  0  0  0  0  0  0  0  0  0
   11.4349  -21.3420   -9.6295 H   0  0  0  0  0  0  0  0  0  0  0  0
   12.7524  -20.1211   -9.6295 H   0  0  0  0  0  0  0  0  0  0  0  0
  1  2  2  0
  2  3  1  0
  3  4  1  0
  4  5  2  0
  5  6  1  0
  6  7  1  0
  7  8  1  0
  8  9  1  6
  8 10  1  0
 10 11  1  0
 11 12  1  0
 11 13  1  0
 13 14  1  0
 13 15  1  0
 15 16  1  6
 15 17  1  0
 17 18  1  0
 15 19  1  0
 19 20  1  0
 20 21  1  0
 21 22  1  0
 22 23  1  6
 22 24  1  0
 24 25  1  1
 24 26  1  0
 26 27  1  0
 27 28  1  0
 28 29  1  6
 29 30  2  0
 29 31  1  0
 31 32  1  0
 32 33  1  0
 33 34  1  0
 34 35  1  0
 35 36  1  0
 34 37  1  0
 37 38  1  0
 37 39  1  0
 39 40  1  0
 39 41  1  0
 41 42  1  0
 28 43  1  0
 43 44  1  0
 44 45  1  0
 45 46  1  0
 45  2  1  0
 28  3  1  0
 41 32  1  0
 24  4  1  0
 22  7  1  0
 19  8  1  0
  1 47  1  0
  1 48  1  0
  3 49  1  6
  5 50  1  0
  6 51  1  0
  6 52  1  0
  7 53  1  1
  9 54  1  0
  9 55  1  0
  9 56  1  0
 10 57  1  0
 10 58  1  0
 11 59  1  1
 12 60  1  0
 13 61  1  1
 14 62  1  0
 16 63  1  0
 16 64  1  0
 16 65  1  0
 17 66  1  0
 17 67  1  0
 18 68  1  0
 19 69  1  1
 20 70  1  0
 20 71  1  0
 21 72  1  0
 21 73  1  0
 23 74  1  0
 23 75  1  0
 23 76  1  0
 25 77  1  0
 25 78  1  0
 25 79  1  0
 26 80  1  0
 26 81  1  0
 27 82  1  0
 27 83  1  0
 32 84  1  1
 34 85  1  1
 35 86  1  0
 35 87  1  0
 36 88  1  0
 37 89  1  6
 38 90  1  0
 39 91  1  1
 40 92  1  0
 41 93  1  6
 42 94  1  0
 43 95  1  0
 43 96  1  0
 44 97  1  0
 44 98  1  0
 45 99  1  6
 46100  1  0
 46101  1  0
 46102  1  0
M  END
>  <meeko>  (9) 
{"is_sidechain": [false], "free_energy": -7.808, "intermolecular_energy": -11.249, "internal_energy": -1.643}

$$$$
