LIB_VXPLXMJHHKHSOA__M_PUB_ALL__e8__s20260927
     RDKit          3D

 26 26  0  0  0  0  0  0  0  0999 V2000
  -15.5430  -17.0030   -6.5640 C   0  0  0  0  0  0  0  0  0  0  0  0
  -14.1030  -17.0860   -6.0720 C   0  0  0  0  0  0  0  0  0  0  0  0
  -14.0590  -17.1520   -4.5500 C   0  0  0  0  0  0  0  0  0  0  0  0
  -13.3900  -15.8980   -6.4650 O   0  0  0  0  0  0  0  0  0  0  0  0
  -12.4480  -16.0540   -7.4350 C   0  0  0  0  0  0  0  0  0  0  0  0
  -12.7020  -16.2990   -8.6030 O   0  0  0  0  0  0  0  0  0  0  0  0
  -11.2230  -15.8880   -6.8540 N   0  0  0  0  0  0  0  0  0  0  0  0
   -9.9540  -15.9550   -7.4520 C   0  0  0  0  0  0  0  0  0  0  0  0
   -9.6380  -15.3580   -8.6730 C   0  0  0  0  0  0  0  0  0  0  0  0
   -8.3480  -15.4710   -9.2030 C   0  0  0  0  0  0  0  0  0  0  0  0
   -7.3660  -16.1790   -8.5150 C   0  0  0  0  0  0  0  0  0  0  0  0
   -7.6720  -16.7780   -7.2970 C   0  0  0  0  0  0  0  0  0  0  0  0
   -8.9600  -16.6660   -6.7670 C   0  0  0  0  0  0  0  0  0  0  0  0
  -16.2237  -16.9638   -5.7008 H   0  0  0  0  0  0  0  0  0  0  0  0
  -15.6707  -16.0960   -7.1732 H   0  0  0  0  0  0  0  0  0  0  0  0
  -15.7740  -17.8893   -7.1732 H   0  0  0  0  0  0  0  0  0  0  0  0
  -13.6486  -17.9884   -6.5069 H   0  0  0  0  0  0  0  0  0  0  0  0
  -14.6229  -16.3061   -4.1299 H   0  0  0  0  0  0  0  0  0  0  0  0
  -14.5085  -18.0970   -4.2108 H   0  0  0  0  0  0  0  0  0  0  0  0
  -13.0139  -17.1006   -4.2108 H   0  0  0  0  0  0  0  0  0  0  0  0
  -11.2720  -15.6920   -5.8650 H   0  0  0  0  0  0  0  0  0  0  0  0
  -10.4074  -14.7953   -9.2220 H   0  0  0  0  0  0  0  0  0  0  0  0
   -8.1086  -14.9986  -10.1671 H   0  0  0  0  0  0  0  0  0  0  0  0
   -6.3521  -16.2644   -8.9329 H   0  0  0  0  0  0  0  0  0  0  0  0
   -6.8997  -17.3399   -6.7512 H   0  0  0  0  0  0  0  0  0  0  0  0
   -9.1957  -17.1405   -5.8030 H   0  0  0  0  0  0  0  0  0  0  0  0
  1  2  1  0
  2  3  1  0
  2  4  1  0
  4  5  1  0
  5  6  2  0
  5  7  1  0
  7  8  1  0
  8  9  2  0
  9 10  1  0
 10 11  2  0
 11 12  1  0
 12 13  2  0
 13  8  1  0
  1 14  1  0
  1 15  1  0
  1 16  1  0
  2 17  1  0
  3 18  1  0
  3 19  1  0
  3 20  1  0
  7 21  1  0
  9 22  1  0
 10 23  1  0
 11 24  1  0
 12 25  1  0
 13 26  1  0
M  END
>  <meeko>  (1) 
{"is_sidechain": [false], "free_energy": -5.558, "intermolecular_energy": -6.532, "internal_energy": -0.092}

$$$$
LIB_VXPLXMJHHKHSOA__M_PUB_ALL__e8__s20260927
     RDKit          3D

 26 26  0  0  0  0  0  0  0  0999 V2000
    9.7670   -9.2040  -11.5690 C   0  0  0  0  0  0  0  0  0  0  0  0
   11.2530   -8.8660  -11.5390 C   0  0  0  0  0  0  0  0  0  0  0  0
   11.9880   -9.7620  -10.5490 C   0  0  0  0  0  0  0  0  0  0  0  0
   11.4300   -7.5080  -11.0950 O   0  0  0  0  0  0  0  0  0  0  0  0
   11.6510   -6.5800  -12.0660 C   0  0  0  0  0  0  0  0  0  0  0  0
   12.2180   -6.8150  -13.1210 O   0  0  0  0  0  0  0  0  0  0  0  0
   11.1300   -5.3940  -11.6340 N   0  0  0  0  0  0  0  0  0  0  0  0
   11.1150   -4.1520  -12.2900 C   0  0  0  0  0  0  0  0  0  0  0  0
    9.9480   -3.5070  -12.7030 C   0  0  0  0  0  0  0  0  0  0  0  0
   10.0170   -2.2700  -13.3520 C   0  0  0  0  0  0  0  0  0  0  0  0
   11.2510   -1.6700  -13.5930 C   0  0  0  0  0  0  0  0  0  0  0  0
   12.4190   -2.3070  -13.1850 C   0  0  0  0  0  0  0  0  0  0  0  0
   12.3510   -3.5420  -12.5360 C   0  0  0  0  0  0  0  0  0  0  0  0
    9.3896   -9.2898  -10.5393 H   0  0  0  0  0  0  0  0  0  0  0  0
    9.2203   -8.4073  -12.0947 H   0  0  0  0  0  0  0  0  0  0  0  0
    9.6187  -10.1588  -12.0947 H   0  0  0  0  0  0  0  0  0  0  0  0
   11.6528   -9.0105  -12.5535 H   0  0  0  0  0  0  0  0  0  0  0  0
   11.7376   -9.4567   -9.5223 H   0  0  0  0  0  0  0  0  0  0  0  0
   11.6840  -10.8076  -10.7051 H   0  0  0  0  0  0  0  0  0  0  0  0
   13.0728   -9.6683  -10.7051 H   0  0  0  0  0  0  0  0  0  0  0  0
   10.7070   -5.4520  -10.7180 H   0  0  0  0  0  0  0  0  0  0  0  0
    8.9695   -3.9738  -12.5171 H   0  0  0  0  0  0  0  0  0  0  0  0
    9.0924   -1.7684  -13.6737 H   0  0  0  0  0  0  0  0  0  0  0  0
   11.3018   -0.6970  -14.1036 H   0  0  0  0  0  0  0  0  0  0  0  0
   13.3959   -1.8379  -13.3736 H   0  0  0  0  0  0  0  0  0  0  0  0
   13.2777   -4.0403  -12.2150 H   0  0  0  0  0  0  0  0  0  0  0  0
  1  2  1  0
  2  3  1  0
  2  4  1  0
  4  5  1  0
  5  6  2  0
  5  7  1  0
  7  8  1  0
  8  9  2  0
  9 10  1  0
 10 11  2  0
 11 12  1  0
 12 13  2  0
 13  8  1  0
  1 14  1  0
  1 15  1  0
  1 16  1  0
  2 17  1  0
  3 18  1  0
  3 19  1  0
  3 20  1  0
  7 21  1  0
  9 22  1  0
 10 23  1  0
 11 24  1  0
 12 25  1  0
 13 26  1  0
M  END
>  <meeko>  (2) 
{"is_sidechain": [false], "free_energy": -5.558, "intermolecular_energy": -6.446, "internal_energy": -0.178}

$$$$
LIB_VXPLXMJHHKHSOA__M_PUB_ALL__e8__s20260927
     RDKit          3D

 26 26  0  0  0  0  0  0  0  0999 V2000
   11.3340   -4.6090  -11.6660 C   0  0  0  0  0  0  0  0  0  0  0  0
   12.1790   -5.8430  -11.9550 C   0  0  0  0  0  0  0  0  0  0  0  0
   12.9090   -5.6960  -13.2840 C   0  0  0  0  0  0  0  0  0  0  0  0
   11.3240   -6.9980  -12.0660 O   0  0  0  0  0  0  0  0  0  0  0  0
   11.3820   -7.8900  -11.0400 C   0  0  0  0  0  0  0  0  0  0  0  0
   11.1830   -7.6030   -9.8700 O   0  0  0  0  0  0  0  0  0  0  0  0
   11.6920   -9.1110  -11.5690 N   0  0  0  0  0  0  0  0  0  0  0  0
   11.8580  -10.3370  -10.9040 C   0  0  0  0  0  0  0  0  0  0  0  0
   12.9790  -10.6580  -10.1370 C   0  0  0  0  0  0  0  0  0  0  0  0
   13.0700  -11.9030   -9.5050 C   0  0  0  0  0  0  0  0  0  0  0  0
   12.0420  -12.8340   -9.6360 C   0  0  0  0  0  0  0  0  0  0  0  0
   10.9210  -12.5220  -10.3990 C   0  0  0  0  0  0  0  0  0  0  0  0
   10.8300  -11.2790  -11.0300 C   0  0  0  0  0  0  0  0  0  0  0  0
   11.2418   -4.4743  -10.5782 H   0  0  0  0  0  0  0  0  0  0  0  0
   11.8161   -3.7233  -12.1056 H   0  0  0  0  0  0  0  0  0  0  0  0
   10.3340   -4.7382  -12.1056 H   0  0  0  0  0  0  0  0  0  0  0  0
   12.9019   -5.9568  -11.1338 H   0  0  0  0  0  0  0  0  0  0  0  0
   13.9716   -5.4820  -13.0969 H   0  0  0  0  0  0  0  0  0  0  0  0
   12.8185   -6.6304  -13.8573 H   0  0  0  0  0  0  0  0  0  0  0  0
   12.4639   -4.8694  -13.8573 H   0  0  0  0  0  0  0  0  0  0  0  0
   11.8090   -9.0950  -12.5720 H   0  0  0  0  0  0  0  0  0  0  0  0
   13.7951   -9.9285  -10.0288 H   0  0  0  0  0  0  0  0  0  0  0  0
   13.9570  -12.1477   -8.9022 H   0  0  0  0  0  0  0  0  0  0  0  0
   12.1162  -13.8121   -9.1381 H   0  0  0  0  0  0  0  0  0  0  0  0
   10.1067  -13.2539  -10.5053 H   0  0  0  0  0  0  0  0  0  0  0  0
    9.9415  -11.0379  -11.6320 H   0  0  0  0  0  0  0  0  0  0  0  0
  1  2  1  0
  2  3  1  0
  2  4  1  0
  4  5  1  0
  5  6  2  0
  5  7  1  0
  7  8  1  0
  8  9  2  0
  9 10  1  0
 10 11  2  0
 11 12  1  0
 12 13  2  0
 13  8  1  0
  1 14  1  0
  1 15  1  0
  1 16  1  0
  2 17  1  0
  3 18  1  0
  3 19  1  0
  3 20  1  0
  7 21  1  0
  9 22  1  0
 10 23  1  0
 11 24  1  0
 12 25  1  0
 13 26  1  0
M  END
>  <meeko>  (3) 
{"is_sidechain": [false], "free_energy": -5.468, "intermolecular_energy": -6.292, "internal_energy": -0.227}

$$$$
LIB_VXPLXMJHHKHSOA__M_PUB_ALL__e8__s20260927
     RDKit          3D

 26 26  0  0  0  0  0  0  0  0999 V2000
   15.4760   -2.9300   13.8290 C   0  0  0  0  0  0  0  0  0  0  0  0
   16.1710   -4.1200   13.1770 C   0  0  0  0  0  0  0  0  0  0  0  0
   17.6350   -3.8020   12.9000 C   0  0  0  0  0  0  0  0  0  0  0  0
   15.5510   -4.4050   11.9080 O   0  0  0  0  0  0  0  0  0  0  0  0
   15.7310   -5.6620   11.4190 C   0  0  0  0  0  0  0  0  0  0  0  0
   16.4220   -5.9270   10.4490 O   0  0  0  0  0  0  0  0  0  0  0  0
   15.0130   -6.5190   12.2040 N   0  0  0  0  0  0  0  0  0  0  0  0
   14.8900   -7.9140   12.0930 C   0  0  0  0  0  0  0  0  0  0  0  0
   13.9000   -8.5490   11.3410 C   0  0  0  0  0  0  0  0  0  0  0  0
   13.8440   -9.9450   11.2810 C   0  0  0  0  0  0  0  0  0  0  0  0
   14.7770  -10.7160   11.9710 C   0  0  0  0  0  0  0  0  0  0  0  0
   15.7670  -10.0910   12.7230 C   0  0  0  0  0  0  0  0  0  0  0  0
   15.8240   -8.6970   12.7840 C   0  0  0  0  0  0  0  0  0  0  0  0
   15.5325   -3.0268   14.9233 H   0  0  0  0  0  0  0  0  0  0  0  0
   15.9726   -1.9993   13.5171 H   0  0  0  0  0  0  0  0  0  0  0  0
   14.4214   -2.9052   13.5171 H   0  0  0  0  0  0  0  0  0  0  0  0
   16.0902   -4.9757   13.8634 H   0  0  0  0  0  0  0  0  0  0  0  0
   18.1716   -3.6854   13.8531 H   0  0  0  0  0  0  0  0  0  0  0  0
   18.0859   -4.6232   12.3234 H   0  0  0  0  0  0  0  0  0  0  0  0
   17.7046   -2.8678   12.3234 H   0  0  0  0  0  0  0  0  0  0  0  0
   14.5180   -6.0570   12.9530 H   0  0  0  0  0  0  0  0  0  0  0  0
   13.1598   -7.9479   10.7926 H   0  0  0  0  0  0  0  0  0  0  0  0
   13.0599  -10.4365   10.6864 H   0  0  0  0  0  0  0  0  0  0  0  0
   14.7312  -11.8139   11.9215 H   0  0  0  0  0  0  0  0  0  0  0  0
   16.5055  -10.6956   13.2700 H   0  0  0  0  0  0  0  0  0  0  0  0
   16.6094   -8.2093   13.3800 H   0  0  0  0  0  0  0  0  0  0  0  0
  1  2  1  0
  2  3  1  0
  2  4  1  0
  4  5  1  0
  5  6  2  0
  5  7  1  0
  7  8  1  0
  8  9  2  0
  9 10  1  0
 10 11  2  0
 11 12  1  0
 12 13  2  0
 13  8  1  0
  1 14  1  0
  1 15  1  0
  1 16  1  0
  2 17  1  0
  3 18  1  0
  3 19  1  0
  3 20  1  0
  7 21  1  0
  9 22  1  0
 10 23  1  0
 11 24  1  0
 12 25  1  0
 13 26  1  0
M  END
>  <meeko>  (4) 
{"is_sidechain": [false], "free_energy": -5.387, "intermolecular_energy": -6.141, "internal_energy": -0.282}

$$$$
LIB_VXPLXMJHHKHSOA__M_PUB_ALL__e8__s20260927
     RDKit          3D

 26 26  0  0  0  0  0  0  0  0999 V2000
    7.5940  -11.0940    0.5880 C   0  0  0  0  0  0  0  0  0  0  0  0
    8.5490  -12.1480    0.0380 C   0  0  0  0  0  0  0  0  0  0  0  0
    7.8600  -13.5040   -0.0520 C   0  0  0  0  0  0  0  0  0  0  0  0
    9.6670  -12.2990    0.9350 O   0  0  0  0  0  0  0  0  0  0  0  0
   10.8540  -12.6400    0.3640 C   0  0  0  0  0  0  0  0  0  0  0  0
   11.7000  -13.3340    0.9050 O   0  0  0  0  0  0  0  0  0  0  0  0
   10.8970  -12.0720   -0.8770 N   0  0  0  0  0  0  0  0  0  0  0  0
   11.9180  -12.1440   -1.8400 C   0  0  0  0  0  0  0  0  0  0  0  0
   13.1070  -11.4180   -1.7650 C   0  0  0  0  0  0  0  0  0  0  0  0
   14.0770  -11.5440   -2.7650 C   0  0  0  0  0  0  0  0  0  0  0  0
   13.8640  -12.3970   -3.8460 C   0  0  0  0  0  0  0  0  0  0  0  0
   12.6810  -13.1250   -3.9280 C   0  0  0  0  0  0  0  0  0  0  0  0
   11.7120  -12.9990   -2.9300 C   0  0  0  0  0  0  0  0  0  0  0  0
    7.6155  -11.1178    1.6875 H   0  0  0  0  0  0  0  0  0  0  0  0
    7.9044  -10.0989    0.2366 H   0  0  0  0  0  0  0  0  0  0  0  0
    6.5732  -11.3050    0.2366 H   0  0  0  0  0  0  0  0  0  0  0  0
    8.8760  -11.8202   -0.9598 H   0  0  0  0  0  0  0  0  0  0  0  0
    7.6664  -13.8849    0.9616 H   0  0  0  0  0  0  0  0  0  0  0  0
    6.9074  -13.3962   -0.5913 H   0  0  0  0  0  0  0  0  0  0  0  0
    8.5088  -14.2099   -0.5913 H   0  0  0  0  0  0  0  0  0  0  0  0
   10.0690  -11.5380   -1.1020 H   0  0  0  0  0  0  0  0  0  0  0  0
   13.2827  -10.7427   -0.9147 H   0  0  0  0  0  0  0  0  0  0  0  0
   15.0114  -10.9675   -2.6977 H   0  0  0  0  0  0  0  0  0  0  0  0
   14.6280  -12.4945   -4.6314 H   0  0  0  0  0  0  0  0  0  0  0  0
   12.5089  -13.8001   -4.7792 H   0  0  0  0  0  0  0  0  0  0  0  0
   10.7785  -13.5766   -3.0008 H   0  0  0  0  0  0  0  0  0  0  0  0
  1  2  1  0
  2  3  1  0
  2  4  1  0
  4  5  1  0
  5  6  2  0
  5  7  1  0
  7  8  1  0
  8  9  2  0
  9 10  1  0
 10 11  2  0
 11 12  1  0
 12 13  2  0
 13  8  1  0
  1 14  1  0
  1 15  1  0
  1 16  1  0
  2 17  1  0
  3 18  1  0
  3 19  1  0
  3 20  1  0
  7 21  1  0
  9 22  1  0
 10 23  1  0
 11 24  1  0
 12 25  1  0
 13 26  1  0
M  END
>  <meeko>  (5) 
{"is_sidechain": [false], "free_energy": -5.183, "intermolecular_energy": -5.915, "internal_energy": -0.269}

$$$$
LIB_VXPLXMJHHKHSOA__M_PUB_ALL__e8__s20260927
     RDKit          3D

 26 26  0  0  0  0  0  0  0  0999 V2000
   16.8070   -6.4610   11.0280 C   0  0  0  0  0  0  0  0  0  0  0  0
   15.4580   -5.9420   11.5130 C   0  0  0  0  0  0  0  0  0  0  0  0
   15.6230   -4.6150   12.2430 C   0  0  0  0  0  0  0  0  0  0  0  0
   14.8920   -6.8760   12.4530 O   0  0  0  0  0  0  0  0  0  0  0  0
   14.1610   -7.8940   11.9230 C   0  0  0  0  0  0  0  0  0  0  0  0
   13.5040   -7.8050   10.8980 O   0  0  0  0  0  0  0  0  0  0  0  0
   14.3100   -8.9800   12.7380 N   0  0  0  0  0  0  0  0  0  0  0  0
   13.7500  -10.2610   12.6030 C   0  0  0  0  0  0  0  0  0  0  0  0
   12.6250  -10.6950   13.3060 C   0  0  0  0  0  0  0  0  0  0  0  0
   12.1270  -11.9880   13.1160 C   0  0  0  0  0  0  0  0  0  0  0  0
   12.7490  -12.8550   12.2200 C   0  0  0  0  0  0  0  0  0  0  0  0
   13.8710  -12.4310   11.5150 C   0  0  0  0  0  0  0  0  0  0  0  0
   14.3690  -11.1400   11.7050 C   0  0  0  0  0  0  0  0  0  0  0  0
   17.4393   -6.7043   11.8946 H   0  0  0  0  0  0  0  0  0  0  0  0
   16.6550   -7.3648   10.4197 H   0  0  0  0  0  0  0  0  0  0  0  0
   17.3000   -5.6883   10.4197 H   0  0  0  0  0  0  0  0  0  0  0  0
   14.8092   -5.8149   10.6339 H   0  0  0  0  0  0  0  0  0  0  0  0
   15.6014   -4.7888   13.3290 H   0  0  0  0  0  0  0  0  0  0  0  0
   16.5847   -4.1599   11.9636 H   0  0  0  0  0  0  0  0  0  0  0  0
   14.8021   -3.9382   11.9636 H   0  0  0  0  0  0  0  0  0  0  0  0
   14.9090   -8.8050   13.5330 H   0  0  0  0  0  0  0  0  0  0  0  0
   12.1271  -10.0159   14.0138 H   0  0  0  0  0  0  0  0  0  0  0  0
   11.2410  -12.3217   13.6760 H   0  0  0  0  0  0  0  0  0  0  0  0
   12.3544  -13.8709   12.0706 H   0  0  0  0  0  0  0  0  0  0  0  0
   14.3660  -13.1127   10.8078 H   0  0  0  0  0  0  0  0  0  0  0  0
   15.2559  -10.8103   11.1440 H   0  0  0  0  0  0  0  0  0  0  0  0
  1  2  1  0
  2  3  1  0
  2  4  1  0
  4  5  1  0
  5  6  2  0
  5  7  1  0
  7  8  1  0
  8  9  2  0
  9 10  1  0
 10 11  2  0
 11 12  1  0
 12 13  2  0
 13  8  1  0
  1 14  1  0
  1 15  1  0
  1 16  1  0
  2 17  1  0
  3 18  1  0
  3 19  1  0
  3 20  1  0
  7 21  1  0
  9 22  1  0
 10 23  1  0
 11 24  1  0
 12 25  1  0
 13 26  1  0
M  END
>  <meeko>  (6) 
{"is_sidechain": [false], "free_energy": -5.066, "intermolecular_energy": -5.799, "internal_energy": -0.248}

$$$$
LIB_VXPLXMJHHKHSOA__M_PUB_ALL__e8__s20260927
     RDKit          3D

 26 26  0  0  0  0  0  0  0  0999 V2000
   12.3490  -12.3560    0.3750 C   0  0  0  0  0  0  0  0  0  0  0  0
   13.1490  -11.2260   -0.2610 C   0  0  0  0  0  0  0  0  0  0  0  0
   12.8820   -9.9080    0.4550 C   0  0  0  0  0  0  0  0  0  0  0  0
   12.7360  -11.0560   -1.6310 O   0  0  0  0  0  0  0  0  0  0  0  0
   13.4340  -11.7620   -2.5620 C   0  0  0  0  0  0  0  0  0  0  0  0
   14.5750  -11.5000   -2.9070 O   0  0  0  0  0  0  0  0  0  0  0  0
   12.6300  -12.7730   -3.0050 N   0  0  0  0  0  0  0  0  0  0  0  0
   12.9110  -13.7610   -3.9630 C   0  0  0  0  0  0  0  0  0  0  0  0
   12.8730  -13.5400   -5.3400 C   0  0  0  0  0  0  0  0  0  0  0  0
   13.1670  -14.5780   -6.2310 C   0  0  0  0  0  0  0  0  0  0  0  0
   13.5000  -15.8420   -5.7510 C   0  0  0  0  0  0  0  0  0  0  0  0
   13.5400  -16.0710   -4.3790 C   0  0  0  0  0  0  0  0  0  0  0  0
   13.2470  -15.0350   -3.4890 C   0  0  0  0  0  0  0  0  0  0  0  0
   12.4066  -12.2746    1.4705 H   0  0  0  0  0  0  0  0  0  0  0  0
   11.2984  -12.2856    0.0569 H   0  0  0  0  0  0  0  0  0  0  0  0
   12.7644  -13.3236    0.0569 H   0  0  0  0  0  0  0  0  0  0  0  0
   14.2154  -11.4869   -0.1925 H   0  0  0  0  0  0  0  0  0  0  0  0
   12.9145  -10.0685    1.5427 H   0  0  0  0  0  0  0  0  0  0  0  0
   13.6496   -9.1736    0.1696 H   0  0  0  0  0  0  0  0  0  0  0  0
   11.8891   -9.5303    0.1696 H   0  0  0  0  0  0  0  0  0  0  0  0
   11.7200  -12.7830   -2.5660 H   0  0  0  0  0  0  0  0  0  0  0  0
   12.6105  -12.5444   -5.7273 H   0  0  0  0  0  0  0  0  0  0  0  0
   13.1349  -14.3948   -7.3152 H   0  0  0  0  0  0  0  0  0  0  0  0
   13.7305  -16.6563   -6.4536 H   0  0  0  0  0  0  0  0  0  0  0  0
   13.8024  -17.0679   -3.9953 H   0  0  0  0  0  0  0  0  0  0  0  0
   13.2805  -15.2218   -2.4055 H   0  0  0  0  0  0  0  0  0  0  0  0
  1  2  1  0
  2  3  1  0
  2  4  1  0
  4  5  1  0
  5  6  2  0
  5  7  1  0
  7  8  1  0
  8  9  2  0
  9 10  1  0
 10 11  2  0
 11 12  1  0
 12 13  2  0
 13  8  1  0
  1 14  1  0
  1 15  1  0
  1 16  1  0
  2 17  1  0
  3 18  1  0
  3 19  1  0
  3 20  1  0
  7 21  1  0
  9 22  1  0
 10 23  1  0
 11 24  1  0
 12 25  1  0
 13 26  1  0
M  END
>  <meeko>  (7) 
{"is_sidechain": [false], "free_energy": -4.946, "intermolecular_energy": -5.716, "internal_energy": -0.189}

$$$$
LIB_VXPLXMJHHKHSOA__M_PUB_ALL__e8__s20260927
     RDKit          3D

 26 26  0  0  0  0  0  0  0  0999 V2000
   19.7830   -4.2190   11.8650 C   0  0  0  0  0  0  0  0  0  0  0  0
   18.3960   -4.7300   12.2340 C   0  0  0  0  0  0  0  0  0  0  0  0
   17.6810   -3.7380   13.1440 C   0  0  0  0  0  0  0  0  0  0  0  0
   18.5160   -5.9660   12.9650 O   0  0  0  0  0  0  0  0  0  0  0  0
   18.0680   -7.0850   12.3340 C   0  0  0  0  0  0  0  0  0  0  0  0
   18.7360   -7.7460   11.5550 O   0  0  0  0  0  0  0  0  0  0  0  0
   16.7810   -7.3010   12.7370 N   0  0  0  0  0  0  0  0  0  0  0  0
   15.9060   -8.3330   12.3600 C   0  0  0  0  0  0  0  0  0  0  0  0
   16.1040   -9.6760   12.6830 C   0  0  0  0  0  0  0  0  0  0  0  0
   15.1860  -10.6460   12.2690 C   0  0  0  0  0  0  0  0  0  0  0  0
   14.0630  -10.2810   11.5300 C   0  0  0  0  0  0  0  0  0  0  0  0
   13.8570   -8.9440   11.2030 C   0  0  0  0  0  0  0  0  0  0  0  0
   14.7750   -7.9740   11.6160 C   0  0  0  0  0  0  0  0  0  0  0  0
   20.3525   -4.0092   12.7824 H   0  0  0  0  0  0  0  0  0  0  0  0
   20.3095   -4.9822   11.2731 H   0  0  0  0  0  0  0  0  0  0  0  0
   19.6885   -3.2967   11.2731 H   0  0  0  0  0  0  0  0  0  0  0  0
   17.8288   -4.8689   11.3018 H   0  0  0  0  0  0  0  0  0  0  0  0
   17.8710   -4.0017   14.1949 H   0  0  0  0  0  0  0  0  0  0  0  0
   18.0566   -2.7231   12.9469 H   0  0  0  0  0  0  0  0  0  0  0  0
   16.5994   -3.7734   12.9469 H   0  0  0  0  0  0  0  0  0  0  0  0
   16.4450   -6.6100   13.3930 H   0  0  0  0  0  0  0  0  0  0  0  0
   16.9876   -9.9734   13.2668 H   0  0  0  0  0  0  0  0  0  0  0  0
   15.3513  -11.7022   12.5280 H   0  0  0  0  0  0  0  0  0  0  0  0
   13.3421  -11.0462   11.2063 H   0  0  0  0  0  0  0  0  0  0  0  0
   12.9718   -8.6505   10.6196 H   0  0  0  0  0  0  0  0  0  0  0  0
   14.6075   -6.9188   11.3542 H   0  0  0  0  0  0  0  0  0  0  0  0
  1  2  1  0
  2  3  1  0
  2  4  1  0
  4  5  1  0
  5  6  2  0
  5  7  1  0
  7  8  1  0
  8  9  2  0
  9 10  1  0
 10 11  2  0
 11 12  1  0
 12 13  2  0
 13  8  1  0
  1 14  1  0
  1 15  1  0
  1 16  1  0
  2 17  1  0
  3 18  1  0
  3 19  1  0
  3 20  1  0
  7 21  1  0
  9 22  1  0
 10 23  1  0
 11 24  1  0
 12 25  1  0
 13 26  1  0
M  END
>  <meeko>  (8) 
{"is_sidechain": [false], "free_energy": -4.912, "intermolecular_energy": -5.63, "internal_energy": -0.235}

$$$$
LIB_VXPLXMJHHKHSOA__M_PUB_ALL__e8__s20260927
     RDKit          3D

 26 26  0  0  0  0  0  0  0  0999 V2000
   13.5710  -11.5990   -2.5320 C   0  0  0  0  0  0  0  0  0  0  0  0
   12.6940  -11.4570   -1.2940 C   0  0  0  0  0  0  0  0  0  0  0  0
   13.4410  -10.7230   -0.1870 C   0  0  0  0  0  0  0  0  0  0  0  0
   12.3610  -12.7640   -0.7870 O   0  0  0  0  0  0  0  0  0  0  0  0
   11.3490  -12.8170    0.1210 C   0  0  0  0  0  0  0  0  0  0  0  0
   11.5050  -13.0590    1.3080 O   0  0  0  0  0  0  0  0  0  0  0  0
   10.1830  -12.5560   -0.5400 N   0  0  0  0  0  0  0  0  0  0  0  0
    8.8770  -12.4990   -0.0260 C   0  0  0  0  0  0  0  0  0  0  0  0
    8.4030  -11.4590    0.7740 C   0  0  0  0  0  0  0  0  0  0  0  0
    7.0870  -11.4740    1.2490 C   0  0  0  0  0  0  0  0  0  0  0  0
    6.2370  -12.5290    0.9250 C   0  0  0  0  0  0  0  0  0  0  0  0
    6.7010  -13.5710    0.1280 C   0  0  0  0  0  0  0  0  0  0  0  0
    8.0150  -13.5550   -0.3460 C   0  0  0  0  0  0  0  0  0  0  0  0
   14.6138  -11.7678   -2.2252 H   0  0  0  0  0  0  0  0  0  0  0  0
   13.2226  -12.4524   -3.1322 H   0  0  0  0  0  0  0  0  0  0  0  0
   13.5097  -10.6792   -3.1322 H   0  0  0  0  0  0  0  0  0  0  0  0
   11.7921  -10.8966   -1.5813 H   0  0  0  0  0  0  0  0  0  0  0  0
   13.0834  -11.0744    0.7921 H   0  0  0  0  0  0  0  0  0  0  0  0
   14.5189  -10.9230   -0.2770 H   0  0  0  0  0  0  0  0  0  0  0  0
   13.2599   -9.6417   -0.2770 H   0  0  0  0  0  0  0  0  0  0  0  0
   10.3120  -12.3850   -1.5280 H   0  0  0  0  0  0  0  0  0  0  0  0
    9.0680  -10.6219    1.0330 H   0  0  0  0  0  0  0  0  0  0  0  0
    6.7225  -10.6502    1.8802 H   0  0  0  0  0  0  0  0  0  0  0  0
    5.2022  -12.5383    1.2980 H   0  0  0  0  0  0  0  0  0  0  0  0
    6.0335  -14.4068   -0.1287 H   0  0  0  0  0  0  0  0  0  0  0  0
    8.3762  -14.3804   -0.9771 H   0  0  0  0  0  0  0  0  0  0  0  0
  1  2  1  0
  2  3  1  0
  2  4  1  0
  4  5  1  0
  5  6  2  0
  5  7  1  0
  7  8  1  0
  8  9  2  0
  9 10  1  0
 10 11  2  0
 11 12  1  0
 12 13  2  0
 13  8  1  0
  1 14  1  0
  1 15  1  0
  1 16  1  0
  2 17  1  0
  3 18  1  0
  3 19  1  0
  3 20  1  0
  7 21  1  0
  9 22  1  0
 10 23  1  0
 11 24  1  0
 12 25  1  0
 13 26  1  0
M  END
>  <meeko>  (9) 
{"is_sidechain": [false], "free_energy": -4.885, "intermolecular_energy": -5.594, "internal_energy": -0.239}

$$$$
