LIB_GEIOOMRKGSMHML__M_PUB_ALL__e8__s20260927
     RDKit          3D

 33 35  0  0  0  0  0  0  0  0999 V2000
  -14.4300  -17.0240   -8.9520 C   0  0  0  0  0  0  0  0  0  0  0  0
  -13.8690  -15.8980   -8.2880 O   0  0  0  0  0  0  0  0  0  0  0  0
  -12.5230  -15.9090   -8.0260 C   0  0  0  0  0  0  0  0  0  0  0  0
  -11.5340  -15.5590   -8.9540 C   0  0  0  0  0  0  0  0  0  0  0  0
  -10.1810  -15.5900   -8.5880 C   0  0  0  0  0  0  0  0  0  0  0  0
   -9.8040  -16.0230   -7.3100 C   0  0  0  0  0  0  0  0  0  0  0  0
  -10.7850  -16.3580   -6.3750 C   0  0  0  0  0  0  0  0  0  0  0  0
  -12.1360  -16.2990   -6.7320 C   0  0  0  0  0  0  0  0  0  0  0  0
  -13.3050  -16.7320   -5.5340 Cl  0  0  0  0  0  0  0  0  0  0  0  0
   -8.3400  -16.0880   -6.9810 C   0  0  0  0  0  0  0  0  0  0  0  0
   -7.5690  -16.4910   -8.2350 C   0  0  0  0  0  0  0  0  0  0  0  0
   -7.8560  -15.6010   -9.3670 N   0  0  0  0  0  0  0  0  0  0  0  0
   -9.0780  -15.1980   -9.5210 C   0  0  0  0  0  0  0  0  0  0  0  0
   -9.3570  -14.2930  -10.6680 C   0  0  0  0  0  0  0  0  0  0  0  0
   -9.5070  -14.8480  -11.9450 C   0  0  0  0  0  0  0  0  0  0  0  0
   -9.7560  -14.0150  -13.0370 C   0  0  0  0  0  0  0  0  0  0  0  0
   -9.8380  -12.6400  -12.8470 C   0  0  0  0  0  0  0  0  0  0  0  0
  -10.0760  -11.8420  -13.8960 F   0  0  0  0  0  0  0  0  0  0  0  0
   -9.6670  -12.0770  -11.5860 C   0  0  0  0  0  0  0  0  0  0  0  0
   -9.4180  -12.9040  -10.4890 C   0  0  0  0  0  0  0  0  0  0  0  0
  -14.7905  -17.7475   -8.2060 H   0  0  0  0  0  0  0  0  0  0  0  0
  -15.2706  -16.6971   -9.5817 H   0  0  0  0  0  0  0  0  0  0  0  0
  -13.6628  -17.4981   -9.5817 H   0  0  0  0  0  0  0  0  0  0  0  0
  -11.8197  -15.2589   -9.9730 H   0  0  0  0  0  0  0  0  0  0  0  0
  -10.4961  -16.6677   -5.3598 H   0  0  0  0  0  0  0  0  0  0  0  0
   -7.9949  -15.1021   -6.6362 H   0  0  0  0  0  0  0  0  0  0  0  0
   -8.1694  -16.8276   -6.1848 H   0  0  0  0  0  0  0  0  0  0  0  0
   -6.4915  -16.4523   -8.0172 H   0  0  0  0  0  0  0  0  0  0  0  0
   -7.8823  -17.5078   -8.5143 H   0  0  0  0  0  0  0  0  0  0  0  0
   -9.4289  -15.9360  -12.0869 H   0  0  0  0  0  0  0  0  0  0  0  0
   -9.8865  -14.4436  -14.0416 H   0  0  0  0  0  0  0  0  0  0  0  0
   -9.7277  -10.9866  -11.4542 H   0  0  0  0  0  0  0  0  0  0  0  0
   -9.2705  -12.4681   -9.4899 H   0  0  0  0  0  0  0  0  0  0  0  0
  1  2  1  0
  2  3  1  0
  3  4  2  0
  4  5  1  0
  5  6  2  0
  6  7  1  0
  7  8  2  0
  8  9  1  0
  6 10  1  0
 10 11  1  0
 11 12  1  0
 12 13  2  0
 13 14  1  0
 14 15  2  0
 15 16  1  0
 16 17  2  0
 17 18  1  0
 17 19  1  0
 19 20  2  0
  8  3  1  0
 20 14  1  0
 13  5  1  0
  1 21  1  0
  1 22  1  0
  1 23  1  0
  4 24  1  0
  7 25  1  0
 10 26  1  0
 10 27  1  0
 11 28  1  0
 11 29  1  0
 15 30  1  0
 16 31  1  0
 19 32  1  0
 20 33  1  0
M  END
>  <meeko>  (1) 
{"is_sidechain": [false], "free_energy": -6.755, "intermolecular_energy": -7.544, "internal_energy": -0.584}

$$$$
LIB_GEIOOMRKGSMHML__M_PUB_ALL__e8__s20260927
     RDKit          3D

 33 35  0  0  0  0  0  0  0  0999 V2000
  -11.8110  -11.2010  -10.0310 C   0  0  0  0  0  0  0  0  0  0  0  0
  -11.6660  -12.4660  -10.6640 O   0  0  0  0  0  0  0  0  0  0  0  0
  -10.8420  -13.3900  -10.0760 C   0  0  0  0  0  0  0  0  0  0  0  0
  -11.1960  -14.1730   -8.9690 C   0  0  0  0  0  0  0  0  0  0  0  0
  -10.2870  -15.1030   -8.4440 C   0  0  0  0  0  0  0  0  0  0  0  0
   -9.0010  -15.2190   -8.9860 C   0  0  0  0  0  0  0  0  0  0  0  0
   -8.6470  -14.4530  -10.0990 C   0  0  0  0  0  0  0  0  0  0  0  0
   -9.5650  -13.5460  -10.6400 C   0  0  0  0  0  0  0  0  0  0  0  0
   -9.0670  -12.6210  -12.0140 Cl  0  0  0  0  0  0  0  0  0  0  0  0
   -8.0450  -16.1920   -8.3580 C   0  0  0  0  0  0  0  0  0  0  0  0
   -8.2980  -16.2320   -6.8530 C   0  0  0  0  0  0  0  0  0  0  0  0
   -9.7010  -16.5320   -6.5390 N   0  0  0  0  0  0  0  0  0  0  0  0
  -10.6130  -15.9910   -7.2850 C   0  0  0  0  0  0  0  0  0  0  0  0
  -12.0300  -16.3070   -6.9610 C   0  0  0  0  0  0  0  0  0  0  0  0
  -12.4060  -16.4210   -5.6160 C   0  0  0  0  0  0  0  0  0  0  0  0
  -13.7280  -16.7290   -5.2910 C   0  0  0  0  0  0  0  0  0  0  0  0
  -14.6550  -16.9330   -6.3060 C   0  0  0  0  0  0  0  0  0  0  0  0
  -15.9240  -17.2290   -5.9920 F   0  0  0  0  0  0  0  0  0  0  0  0
  -14.2870  -16.8440   -7.6460 C   0  0  0  0  0  0  0  0  0  0  0  0
  -12.9660  -16.5360   -7.9790 C   0  0  0  0  0  0  0  0  0  0  0  0
  -11.7958  -11.3335   -8.9391 H   0  0  0  0  0  0  0  0  0  0  0  0
  -10.9824  -10.5432  -10.3321 H   0  0  0  0  0  0  0  0  0  0  0  0
  -12.7670  -10.7477  -10.3321 H   0  0  0  0  0  0  0  0  0  0  0  0
  -12.1893  -14.0579   -8.5107 H   0  0  0  0  0  0  0  0  0  0  0  0
   -7.6493  -14.5624  -10.5490 H   0  0  0  0  0  0  0  0  0  0  0  0
   -8.2028  -17.1931   -8.7857 H   0  0  0  0  0  0  0  0  0  0  0  0
   -7.0096  -15.8764   -8.5537 H   0  0  0  0  0  0  0  0  0  0  0  0
   -7.6601  -17.0088   -6.4061 H   0  0  0  0  0  0  0  0  0  0  0  0
   -8.0626  -15.2391   -6.4423 H   0  0  0  0  0  0  0  0  0  0  0  0
  -11.6626  -16.2684   -4.8197 H   0  0  0  0  0  0  0  0  0  0  0  0
  -14.0343  -16.8098   -4.2376 H   0  0  0  0  0  0  0  0  0  0  0  0
  -15.0318  -17.0152   -8.4372 H   0  0  0  0  0  0  0  0  0  0  0  0
  -12.6618  -16.4735   -9.0343 H   0  0  0  0  0  0  0  0  0  0  0  0
  1  2  1  0
  2  3  1  0
  3  4  2  0
  4  5  1  0
  5  6  2  0
  6  7  1  0
  7  8  2  0
  8  9  1  0
  6 10  1  0
 10 11  1  0
 11 12  1  0
 12 13  2  0
 13 14  1  0
 14 15  2  0
 15 16  1  0
 16 17  2  0
 17 18  1  0
 17 19  1  0
 19 20  2  0
  8  3  1  0
 20 14  1  0
 13  5  1  0
  1 21  1  0
  1 22  1  0
  1 23  1  0
  4 24  1  0
  7 25  1  0
 10 26  1  0
 10 27  1  0
 11 28  1  0
 11 29  1  0
 15 30  1  0
 16 31  1  0
 19 32  1  0
 20 33  1  0
M  END
>  <meeko>  (2) 
{"is_sidechain": [false], "free_energy": -6.752, "intermolecular_energy": -7.917, "internal_energy": -0.208}

$$$$
LIB_GEIOOMRKGSMHML__M_PUB_ALL__e8__s20260927
     RDKit          3D

 33 35  0  0  0  0  0  0  0  0999 V2000
   20.8490   -7.3390    9.9140 C   0  0  0  0  0  0  0  0  0  0  0  0
   19.9180   -6.3130    9.5950 O   0  0  0  0  0  0  0  0  0  0  0  0
   19.1750   -5.7780   10.6160 C   0  0  0  0  0  0  0  0  0  0  0  0
   17.8980   -6.2230   10.9820 C   0  0  0  0  0  0  0  0  0  0  0  0
   17.2200   -5.6190   12.0500 C   0  0  0  0  0  0  0  0  0  0  0  0
   17.7890   -4.5310   12.7250 C   0  0  0  0  0  0  0  0  0  0  0  0
   19.0680   -4.0930   12.3750 C   0  0  0  0  0  0  0  0  0  0  0  0
   19.7560   -4.7150   11.3280 C   0  0  0  0  0  0  0  0  0  0  0  0
   21.3330   -4.1230   10.9370 Cl  0  0  0  0  0  0  0  0  0  0  0  0
   17.0030   -3.8840   13.8290 C   0  0  0  0  0  0  0  0  0  0  0  0
   15.5200   -3.9320   13.4730 C   0  0  0  0  0  0  0  0  0  0  0  0
   15.0680   -5.2990   13.1820 N   0  0  0  0  0  0  0  0  0  0  0  0
   15.8690   -6.0670   12.5120 C   0  0  0  0  0  0  0  0  0  0  0  0
   15.4040   -7.4510   12.2270 C   0  0  0  0  0  0  0  0  0  0  0  0
   14.2940   -7.6320   11.3920 C   0  0  0  0  0  0  0  0  0  0  0  0
   13.8330   -8.9210   11.1220 C   0  0  0  0  0  0  0  0  0  0  0  0
   14.4730  -10.0130   11.6980 C   0  0  0  0  0  0  0  0  0  0  0  0
   14.0290  -11.2500   11.4380 F   0  0  0  0  0  0  0  0  0  0  0  0
   15.5610   -9.8430   12.5480 C   0  0  0  0  0  0  0  0  0  0  0  0
   16.0280   -8.5560   12.8220 C   0  0  0  0  0  0  0  0  0  0  0  0
   20.9327   -7.4313   11.0069 H   0  0  0  0  0  0  0  0  0  0  0  0
   20.5022   -8.2933    9.4909 H   0  0  0  0  0  0  0  0  0  0  0  0
   21.8324   -7.0862    9.4909 H   0  0  0  0  0  0  0  0  0  0  0  0
   17.4259   -7.0489   10.4296 H   0  0  0  0  0  0  0  0  0  0  0  0
   19.5338   -3.2600   12.9219 H   0  0  0  0  0  0  0  0  0  0  0  0
   17.1744   -4.4257   14.7709 H   0  0  0  0  0  0  0  0  0  0  0  0
   17.3234   -2.8389   13.9518 H   0  0  0  0  0  0  0  0  0  0  0  0
   14.9386   -3.5384   14.3198 H   0  0  0  0  0  0  0  0  0  0  0  0
   15.3677   -3.3241   12.5690 H   0  0  0  0  0  0  0  0  0  0  0  0
   13.7875   -6.7610   10.9507 H   0  0  0  0  0  0  0  0  0  0  0  0
   12.9692   -9.0724   10.4580 H   0  0  0  0  0  0  0  0  0  0  0  0
   16.0506  -10.7174   13.0016 H   0  0  0  0  0  0  0  0  0  0  0  0
   16.8810   -8.4101   13.5011 H   0  0  0  0  0  0  0  0  0  0  0  0
  1  2  1  0
  2  3  1  0
  3  4  2  0
  4  5  1  0
  5  6  2  0
  6  7  1  0
  7  8  2  0
  8  9  1  0
  6 10  1  0
 10 11  1  0
 11 12  1  0
 12 13  2  0
 13 14  1  0
 14 15  2  0
 15 16  1  0
 16 17  2  0
 17 18  1  0
 17 19  1  0
 19 20  2  0
  8  3  1  0
 20 14  1  0
 13  5  1  0
  1 21  1  0
  1 22  1  0
  1 23  1  0
  4 24  1  0
  7 25  1  0
 10 26  1  0
 10 27  1  0
 11 28  1  0
 11 29  1  0
 15 30  1  0
 16 31  1  0
 19 32  1  0
 20 33  1  0
M  END
>  <meeko>  (3) 
{"is_sidechain": [false], "free_energy": -6.496, "intermolecular_energy": -7.383, "internal_energy": -0.456}

$$$$
LIB_GEIOOMRKGSMHML__M_PUB_ALL__e8__s20260927
     RDKit          3D

 33 35  0  0  0  0  0  0  0  0999 V2000
  -12.8400  -10.1410   -7.4220 C   0  0  0  0  0  0  0  0  0  0  0  0
  -12.8430  -10.6880   -8.7340 O   0  0  0  0  0  0  0  0  0  0  0  0
  -11.9260  -11.6650   -9.0270 C   0  0  0  0  0  0  0  0  0  0  0  0
  -11.8510  -12.9010   -8.3720 C   0  0  0  0  0  0  0  0  0  0  0  0
  -10.8840  -13.8430   -8.7510 C   0  0  0  0  0  0  0  0  0  0  0  0
   -9.9510  -13.5350   -9.7500 C   0  0  0  0  0  0  0  0  0  0  0  0
  -10.0300  -12.3110  -10.4180 C   0  0  0  0  0  0  0  0  0  0  0  0
  -11.0130  -11.3840  -10.0580 C   0  0  0  0  0  0  0  0  0  0  0  0
  -11.0570   -9.8830  -10.9170 Cl  0  0  0  0  0  0  0  0  0  0  0  0
   -8.9020  -14.5550  -10.0870 C   0  0  0  0  0  0  0  0  0  0  0  0
   -8.5110  -15.3020   -8.8140 C   0  0  0  0  0  0  0  0  0  0  0  0
   -9.6780  -15.8880   -8.1410 N   0  0  0  0  0  0  0  0  0  0  0  0
  -10.7710  -15.1920   -8.1150 C   0  0  0  0  0  0  0  0  0  0  0  0
  -11.9470  -15.7980   -7.4350 C   0  0  0  0  0  0  0  0  0  0  0  0
  -11.9290  -15.9270   -6.0410 C   0  0  0  0  0  0  0  0  0  0  0  0
  -13.0160  -16.5050   -5.3840 C   0  0  0  0  0  0  0  0  0  0  0  0
  -14.1020  -16.9600   -6.1250 C   0  0  0  0  0  0  0  0  0  0  0  0
  -15.1450  -17.5150   -5.4940 F   0  0  0  0  0  0  0  0  0  0  0  0
  -14.1200  -16.8580   -7.5130 C   0  0  0  0  0  0  0  0  0  0  0  0
  -13.0350  -16.2810   -8.1760 C   0  0  0  0  0  0  0  0  0  0  0  0
  -12.8445  -10.9571   -6.6845 H   0  0  0  0  0  0  0  0  0  0  0  0
  -11.9385   -9.5262   -7.2831 H   0  0  0  0  0  0  0  0  0  0  0  0
  -13.7347   -9.5164   -7.2831 H   0  0  0  0  0  0  0  0  0  0  0  0
  -12.5530  -13.1333   -7.5576 H   0  0  0  0  0  0  0  0  0  0  0  0
   -9.3206  -12.0768  -11.2254 H   0  0  0  0  0  0  0  0  0  0  0  0
   -9.3022  -15.2664  -10.8244 H   0  0  0  0  0  0  0  0  0  0  0  0
   -8.0190  -14.0550  -10.5117 H   0  0  0  0  0  0  0  0  0  0  0  0
   -7.8099  -16.1081   -9.0761 H   0  0  0  0  0  0  0  0  0  0  0  0
   -8.0473  -14.5808   -8.1249 H   0  0  0  0  0  0  0  0  0  0  0  0
  -11.0607  -15.5738   -5.4654 H   0  0  0  0  0  0  0  0  0  0  0  0
  -13.0142  -16.6002   -4.2881 H   0  0  0  0  0  0  0  0  0  0  0  0
  -14.9836  -17.2296   -8.0841 H   0  0  0  0  0  0  0  0  0  0  0  0
  -13.0338  -16.2058   -9.2734 H   0  0  0  0  0  0  0  0  0  0  0  0
  1  2  1  0
  2  3  1  0
  3  4  2  0
  4  5  1  0
  5  6  2  0
  6  7  1  0
  7  8  2  0
  8  9  1  0
  6 10  1  0
 10 11  1  0
 11 12  1  0
 12 13  2  0
 13 14  1  0
 14 15  2  0
 15 16  1  0
 16 17  2  0
 17 18  1  0
 17 19  1  0
 19 20  2  0
  8  3  1  0
 20 14  1  0
 13  5  1  0
  1 21  1  0
  1 22  1  0
  1 23  1  0
  4 24  1  0
  7 25  1  0
 10 26  1  0
 10 27  1  0
 11 28  1  0
 11 29  1  0
 15 30  1  0
 16 31  1  0
 19 32  1  0
 20 33  1  0
M  END
>  <meeko>  (4) 
{"is_sidechain": [false], "free_energy": -6.288, "intermolecular_energy": -7.041, "internal_energy": -0.566}

$$$$
LIB_GEIOOMRKGSMHML__M_PUB_ALL__e8__s20260927
     RDKit          3D

 33 35  0  0  0  0  0  0  0  0999 V2000
   -2.6260  -18.6060    4.2990 C   0  0  0  0  0  0  0  0  0  0  0  0
   -1.9480  -17.3660    4.4530 O   0  0  0  0  0  0  0  0  0  0  0  0
   -2.5370  -16.2410    3.9350 C   0  0  0  0  0  0  0  0  0  0  0  0
   -3.8700  -15.8730    4.1590 C   0  0  0  0  0  0  0  0  0  0  0  0
   -4.3800  -14.6950    3.5950 C   0  0  0  0  0  0  0  0  0  0  0  0
   -3.5790  -13.9060    2.7590 C   0  0  0  0  0  0  0  0  0  0  0  0
   -2.2450  -14.2590    2.5450 C   0  0  0  0  0  0  0  0  0  0  0  0
   -1.7290  -15.4190    3.1320 C   0  0  0  0  0  0  0  0  0  0  0  0
   -0.0720  -15.8070    2.8240 Cl  0  0  0  0  0  0  0  0  0  0  0  0
   -4.1850  -12.6810    2.1370 C   0  0  0  0  0  0  0  0  0  0  0  0
   -5.6530  -12.9580    1.8260 C   0  0  0  0  0  0  0  0  0  0  0  0
   -6.3890  -13.4140    3.0130 N   0  0  0  0  0  0  0  0  0  0  0  0
   -5.7840  -14.2280    3.8200 C   0  0  0  0  0  0  0  0  0  0  0  0
   -6.5370  -14.6790    5.0210 C   0  0  0  0  0  0  0  0  0  0  0  0
   -7.5200  -15.6660    4.8700 C   0  0  0  0  0  0  0  0  0  0  0  0
   -8.2470  -16.0950    5.9820 C   0  0  0  0  0  0  0  0  0  0  0  0
   -7.9970  -15.5260    7.2260 C   0  0  0  0  0  0  0  0  0  0  0  0
   -8.6960  -15.9380    8.2920 F   0  0  0  0  0  0  0  0  0  0  0  0
   -7.0390  -14.5280    7.3820 C   0  0  0  0  0  0  0  0  0  0  0  0
   -6.3080  -14.0950    6.2740 C   0  0  0  0  0  0  0  0  0  0  0  0
   -2.8548  -19.0244    5.2903 H   0  0  0  0  0  0  0  0  0  0  0  0
   -3.5620  -18.4457    3.7438 H   0  0  0  0  0  0  0  0  0  0  0  0
   -1.9859  -19.3074    3.7438 H   0  0  0  0  0  0  0  0  0  0  0  0
   -4.5182  -16.5098    4.7789 H   0  0  0  0  0  0  0  0  0  0  0  0
   -1.6014  -13.6262    1.9162 H   0  0  0  0  0  0  0  0  0  0  0  0
   -4.1091  -11.8357    2.8368 H   0  0  0  0  0  0  0  0  0  0  0  0
   -3.6489  -12.4303    1.2098 H   0  0  0  0  0  0  0  0  0  0  0  0
   -6.1179  -12.0335    1.4530 H   0  0  0  0  0  0  0  0  0  0  0  0
   -5.6962  -13.7568    1.0710 H   0  0  0  0  0  0  0  0  0  0  0  0
   -7.7181  -16.1011    3.8793 H   0  0  0  0  0  0  0  0  0  0  0  0
   -9.0124  -16.8778    5.8749 H   0  0  0  0  0  0  0  0  0  0  0  0
   -6.8591  -14.0834    8.3719 H   0  0  0  0  0  0  0  0  0  0  0  0
   -5.5562  -13.2996    6.3841 H   0  0  0  0  0  0  0  0  0  0  0  0
  1  2  1  0
  2  3  1  0
  3  4  2  0
  4  5  1  0
  5  6  2  0
  6  7  1  0
  7  8  2  0
  8  9  1  0
  6 10  1  0
 10 11  1  0
 11 12  1  0
 12 13  2  0
 13 14  1  0
 14 15  2  0
 15 16  1  0
 16 17  2  0
 17 18  1  0
 17 19  1  0
 19 20  2  0
  8  3  1  0
 20 14  1  0
 13  5  1  0
  1 21  1  0
  1 22  1  0
  1 23  1  0
  4 24  1  0
  7 25  1  0
 10 26  1  0
 10 27  1  0
 11 28  1  0
 11 29  1  0
 15 30  1  0
 16 31  1  0
 19 32  1  0
 20 33  1  0
M  END
>  <meeko>  (5) 
{"is_sidechain": [false], "free_energy": -6.234, "intermolecular_energy": -6.965, "internal_energy": -0.581}

$$$$
LIB_GEIOOMRKGSMHML__M_PUB_ALL__e8__s20260927
     RDKit          3D

 33 35  0  0  0  0  0  0  0  0999 V2000
   18.5340  -10.6530   15.8810 C   0  0  0  0  0  0  0  0  0  0  0  0
   18.6650  -10.3140   14.5060 O   0  0  0  0  0  0  0  0  0  0  0  0
   17.7150   -9.4960   13.9510 C   0  0  0  0  0  0  0  0  0  0  0  0
   16.5730   -9.9520   13.2810 C   0  0  0  0  0  0  0  0  0  0  0  0
   15.6500   -9.0360   12.7560 C   0  0  0  0  0  0  0  0  0  0  0  0
   15.8900   -7.6590   12.8490 C   0  0  0  0  0  0  0  0  0  0  0  0
   17.0180   -7.1970   13.5300 C   0  0  0  0  0  0  0  0  0  0  0  0
   17.9230   -8.1120   14.0780 C   0  0  0  0  0  0  0  0  0  0  0  0
   19.3060   -7.4800   14.9030 Cl  0  0  0  0  0  0  0  0  0  0  0  0
   14.8990   -6.7180   12.2270 C   0  0  0  0  0  0  0  0  0  0  0  0
   14.3340   -7.3590   10.9630 C   0  0  0  0  0  0  0  0  0  0  0  0
   13.7650   -8.6870   11.2260 N   0  0  0  0  0  0  0  0  0  0  0  0
   14.3960   -9.4570   12.0580 C   0  0  0  0  0  0  0  0  0  0  0  0
   13.8080  -10.7980   12.3220 C   0  0  0  0  0  0  0  0  0  0  0  0
   14.1290  -11.8570   11.4620 C   0  0  0  0  0  0  0  0  0  0  0  0
   13.5780  -13.1200   11.6840 C   0  0  0  0  0  0  0  0  0  0  0  0
   12.7050  -13.3100   12.7490 C   0  0  0  0  0  0  0  0  0  0  0  0
   12.1770  -14.5230   12.9610 F   0  0  0  0  0  0  0  0  0  0  0  0
   12.3620  -12.2590   13.5950 C   0  0  0  0  0  0  0  0  0  0  0  0
   12.9090  -10.9930   13.3790 C   0  0  0  0  0  0  0  0  0  0  0  0
   18.8616   -9.8051   16.5005 H   0  0  0  0  0  0  0  0  0  0  0  0
   17.4818  -10.8843   16.1030 H   0  0  0  0  0  0  0  0  0  0  0  0
   19.1573  -11.5318   16.1030 H   0  0  0  0  0  0  0  0  0  0  0  0
   16.3994  -11.0321   13.1661 H   0  0  0  0  0  0  0  0  0  0  0  0
   17.1945   -6.1164   13.6353 H   0  0  0  0  0  0  0  0  0  0  0  0
   14.0825   -6.5196   12.9369 H   0  0  0  0  0  0  0  0  0  0  0  0
   15.3946   -5.7692   11.9738 H   0  0  0  0  0  0  0  0  0  0  0  0
   13.5450   -6.7087   10.5574 H   0  0  0  0  0  0  0  0  0  0  0  0
   15.1590   -7.4792   10.2454 H   0  0  0  0  0  0  0  0  0  0  0  0
   14.8123  -11.6935   10.6156 H   0  0  0  0  0  0  0  0  0  0  0  0
   13.8329  -13.9596   11.0206 H   0  0  0  0  0  0  0  0  0  0  0  0
   11.6640  -12.4252   14.4288 H   0  0  0  0  0  0  0  0  0  0  0  0
   12.6359  -10.1532   14.0349 H   0  0  0  0  0  0  0  0  0  0  0  0
  1  2  1  0
  2  3  1  0
  3  4  2  0
  4  5  1  0
  5  6  2  0
  6  7  1  0
  7  8  2  0
  8  9  1  0
  6 10  1  0
 10 11  1  0
 11 12  1  0
 12 13  2  0
 13 14  1  0
 14 15  2  0
 15 16  1  0
 16 17  2  0
 17 18  1  0
 17 19  1  0
 19 20  2  0
  8  3  1  0
 20 14  1  0
 13  5  1  0
  1 21  1  0
  1 22  1  0
  1 23  1  0
  4 24  1  0
  7 25  1  0
 10 26  1  0
 10 27  1  0
 11 28  1  0
 11 29  1  0
 15 30  1  0
 16 31  1  0
 19 32  1  0
 20 33  1  0
M  END
>  <meeko>  (6) 
{"is_sidechain": [false], "free_energy": -6.175, "intermolecular_energy": -6.992, "internal_energy": -0.489}

$$$$
LIB_GEIOOMRKGSMHML__M_PUB_ALL__e8__s20260927
     RDKit          3D

 33 35  0  0  0  0  0  0  0  0999 V2000
    9.0010   -9.0040   14.3320 C   0  0  0  0  0  0  0  0  0  0  0  0
    9.9850   -9.6500   15.1310 O   0  0  0  0  0  0  0  0  0  0  0  0
   10.6900  -10.6840   14.5720 C   0  0  0  0  0  0  0  0  0  0  0  0
   11.7330  -10.5240   13.6510 C   0  0  0  0  0  0  0  0  0  0  0  0
   12.4050  -11.6450   13.1430 C   0  0  0  0  0  0  0  0  0  0  0  0
   12.0030  -12.9360   13.5100 C   0  0  0  0  0  0  0  0  0  0  0  0
   10.9750  -13.1030   14.4400 C   0  0  0  0  0  0  0  0  0  0  0  0
   10.3250  -11.9830   14.9680 C   0  0  0  0  0  0  0  0  0  0  0  0
    9.0550  -12.2530   16.1100 Cl  0  0  0  0  0  0  0  0  0  0  0  0
   12.7190  -14.1070   12.9000 C   0  0  0  0  0  0  0  0  0  0  0  0
   13.1120  -13.7560   11.4680 C   0  0  0  0  0  0  0  0  0  0  0  0
   13.8950  -12.5160   11.4000 N   0  0  0  0  0  0  0  0  0  0  0  0
   13.5470  -11.5410   12.1810 C   0  0  0  0  0  0  0  0  0  0  0  0
   14.3500  -10.2910   12.1080 C   0  0  0  0  0  0  0  0  0  0  0  0
   13.8040   -9.1740   11.4640 C   0  0  0  0  0  0  0  0  0  0  0  0
   14.5460   -7.9960   11.3730 C   0  0  0  0  0  0  0  0  0  0  0  0
   15.8270   -7.9480   11.9120 C   0  0  0  0  0  0  0  0  0  0  0  0
   16.5390   -6.8160   11.8230 F   0  0  0  0  0  0  0  0  0  0  0  0
   16.3880   -9.0600   12.5330 C   0  0  0  0  0  0  0  0  0  0  0  0
   15.6510  -10.2420   12.6280 C   0  0  0  0  0  0  0  0  0  0  0  0
    8.2605   -8.5179   14.9842 H   0  0  0  0  0  0  0  0  0  0  0  0
    9.4837   -8.2465   13.6970 H   0  0  0  0  0  0  0  0  0  0  0  0
    8.4979   -9.7481   13.6970 H   0  0  0  0  0  0  0  0  0  0  0  0
   12.0261   -9.5152   13.3249 H   0  0  0  0  0  0  0  0  0  0  0  0
   10.6770  -14.1134   14.7567 H   0  0  0  0  0  0  0  0  0  0  0  0
   13.6222  -14.3332   13.4857 H   0  0  0  0  0  0  0  0  0  0  0  0
   12.0597  -14.9875   12.8999 H   0  0  0  0  0  0  0  0  0  0  0  0
   13.7130  -14.5786   11.0531 H   0  0  0  0  0  0  0  0  0  0  0  0
   12.1884  -13.6064   10.8895 H   0  0  0  0  0  0  0  0  0  0  0  0
   12.7939   -9.2251   11.0315 H   0  0  0  0  0  0  0  0  0  0  0  0
   14.1204   -7.1107   10.8780 H   0  0  0  0  0  0  0  0  0  0  0  0
   17.4060   -9.0080   12.9465 H   0  0  0  0  0  0  0  0  0  0  0  0
   16.0886  -11.1297   13.1081 H   0  0  0  0  0  0  0  0  0  0  0  0
  1  2  1  0
  2  3  1  0
  3  4  2  0
  4  5  1  0
  5  6  2  0
  6  7  1  0
  7  8  2  0
  8  9  1  0
  6 10  1  0
 10 11  1  0
 11 12  1  0
 12 13  2  0
 13 14  1  0
 14 15  2  0
 15 16  1  0
 16 17  2  0
 17 18  1  0
 17 19  1  0
 19 20  2  0
  8  3  1  0
 20 14  1  0
 13  5  1  0
  1 21  1  0
  1 22  1  0
  1 23  1  0
  4 24  1  0
  7 25  1  0
 10 26  1  0
 10 27  1  0
 11 28  1  0
 11 29  1  0
 15 30  1  0
 16 31  1  0
 19 32  1  0
 20 33  1  0
M  END
>  <meeko>  (7) 
{"is_sidechain": [false], "free_energy": -6.17, "intermolecular_energy": -7.101, "internal_energy": -0.374}

$$$$
LIB_GEIOOMRKGSMHML__M_PUB_ALL__e8__s20260927
     RDKit          3D

 33 35  0  0  0  0  0  0  0  0999 V2000
   -6.7760  -17.4140   11.5240 C   0  0  0  0  0  0  0  0  0  0  0  0
   -5.7560  -17.2800   10.5420 O   0  0  0  0  0  0  0  0  0  0  0  0
   -6.0470  -16.5720    9.4040 C   0  0  0  0  0  0  0  0  0  0  0  0
   -7.0390  -16.9310    8.4820 C   0  0  0  0  0  0  0  0  0  0  0  0
   -7.2710  -16.1350    7.3510 C   0  0  0  0  0  0  0  0  0  0  0  0
   -6.4790  -15.0060    7.1060 C   0  0  0  0  0  0  0  0  0  0  0  0
   -5.4990  -14.6340    8.0290 C   0  0  0  0  0  0  0  0  0  0  0  0
   -5.2880  -15.4130    9.1710 C   0  0  0  0  0  0  0  0  0  0  0  0
   -4.0560  -14.9060   10.2740 Cl  0  0  0  0  0  0  0  0  0  0  0  0
   -6.7310  -14.2140    5.8550 C   0  0  0  0  0  0  0  0  0  0  0  0
   -7.1500  -15.1690    4.7410 C   0  0  0  0  0  0  0  0  0  0  0  0
   -8.2990  -15.9970    5.1290 N   0  0  0  0  0  0  0  0  0  0  0  0
   -8.3350  -16.4440    6.3450 C   0  0  0  0  0  0  0  0  0  0  0  0
   -9.5060  -17.2770    6.7290 C   0  0  0  0  0  0  0  0  0  0  0  0
   -9.5800  -18.5950    6.2600 C   0  0  0  0  0  0  0  0  0  0  0  0
  -10.6770  -19.3900    6.5980 C   0  0  0  0  0  0  0  0  0  0  0  0
  -11.6920  -18.8590    7.3850 C   0  0  0  0  0  0  0  0  0  0  0  0
  -12.7440  -19.6230    7.7080 F   0  0  0  0  0  0  0  0  0  0  0  0
  -11.6400  -17.5430    7.8370 C   0  0  0  0  0  0  0  0  0  0  0  0
  -10.5450  -16.7430    7.5030 C   0  0  0  0  0  0  0  0  0  0  0  0
   -6.3290  -17.3553   12.5274 H   0  0  0  0  0  0  0  0  0  0  0  0
   -7.5110  -16.6047   11.4021 H   0  0  0  0  0  0  0  0  0  0  0  0
   -7.2770  -18.3857   11.4021 H   0  0  0  0  0  0  0  0  0  0  0  0
   -7.6373  -17.8394    8.6457 H   0  0  0  0  0  0  0  0  0  0  0  0
   -4.8948  -13.7308    7.8581 H   0  0  0  0  0  0  0  0  0  0  0  0
   -7.5330  -13.4833    6.0359 H   0  0  0  0  0  0  0  0  0  0  0  0
   -5.8157  -13.6787    5.5622 H   0  0  0  0  0  0  0  0  0  0  0  0
   -7.4205  -14.5805    3.8519 H   0  0  0  0  0  0  0  0  0  0  0  0
   -6.3033  -15.8395    4.5321 H   0  0  0  0  0  0  0  0  0  0  0  0
   -8.7770  -19.0020    5.6279 H   0  0  0  0  0  0  0  0  0  0  0  0
  -10.7375  -20.4296    6.2437 H   0  0  0  0  0  0  0  0  0  0  0  0
  -12.4557  -17.1363    8.4528 H   0  0  0  0  0  0  0  0  0  0  0  0
  -10.4984  -15.6988    7.8458 H   0  0  0  0  0  0  0  0  0  0  0  0
  1  2  1  0
  2  3  1  0
  3  4  2  0
  4  5  1  0
  5  6  2  0
  6  7  1  0
  7  8  2  0
  8  9  1  0
  6 10  1  0
 10 11  1  0
 11 12  1  0
 12 13  2  0
 13 14  1  0
 14 15  2  0
 15 16  1  0
 16 17  2  0
 17 18  1  0
 17 19  1  0
 19 20  2  0
  8  3  1  0
 20 14  1  0
 13  5  1  0
  1 21  1  0
  1 22  1  0
  1 23  1  0
  4 24  1  0
  7 25  1  0
 10 26  1  0
 10 27  1  0
 11 28  1  0
 11 29  1  0
 15 30  1  0
 16 31  1  0
 19 32  1  0
 20 33  1  0
M  END
>  <meeko>  (8) 
{"is_sidechain": [false], "free_energy": -6.167, "intermolecular_energy": -6.888, "internal_energy": -0.584}

$$$$
LIB_GEIOOMRKGSMHML__M_PUB_ALL__e8__s20260927
     RDKit          3D

 33 35  0  0  0  0  0  0  0  0999 V2000
   12.7810  -10.3350    0.1560 C   0  0  0  0  0  0  0  0  0  0  0  0
   13.3740  -11.1890   -0.8150 O   0  0  0  0  0  0  0  0  0  0  0  0
   12.5430  -11.8840   -1.6550 C   0  0  0  0  0  0  0  0  0  0  0  0
   11.2210  -12.2310   -1.3500 C   0  0  0  0  0  0  0  0  0  0  0  0
   10.4430  -12.9350   -2.2800 C   0  0  0  0  0  0  0  0  0  0  0  0
   10.9980  -13.3440   -3.5000 C   0  0  0  0  0  0  0  0  0  0  0  0
   12.3110  -12.9870   -3.8170 C   0  0  0  0  0  0  0  0  0  0  0  0
   13.0760  -12.2610   -2.9000 C   0  0  0  0  0  0  0  0  0  0  0  0
   14.6970  -11.8550   -3.3460 Cl  0  0  0  0  0  0  0  0  0  0  0  0
   10.1430  -14.1400   -4.4440 C   0  0  0  0  0  0  0  0  0  0  0  0
    9.2170  -15.0410   -3.6310 C   0  0  0  0  0  0  0  0  0  0  0  0
    8.4270  -14.2800   -2.6550 N   0  0  0  0  0  0  0  0  0  0  0  0
    9.0160  -13.3090   -2.0300 C   0  0  0  0  0  0  0  0  0  0  0  0
    8.2050  -12.5410   -1.0470 C   0  0  0  0  0  0  0  0  0  0  0  0
    7.4720  -11.4350   -1.4940 C   0  0  0  0  0  0  0  0  0  0  0  0
    6.7150  -10.6930   -0.5860 C   0  0  0  0  0  0  0  0  0  0  0  0
    6.7080  -11.0530    0.7570 C   0  0  0  0  0  0  0  0  0  0  0  0
    5.9810  -10.3400    1.6270 F   0  0  0  0  0  0  0  0  0  0  0  0
    7.4510  -12.1360    1.2150 C   0  0  0  0  0  0  0  0  0  0  0  0
    8.2110  -12.8830    0.3120 C   0  0  0  0  0  0  0  0  0  0  0  0
   13.0319  -10.6963    1.1642 H   0  0  0  0  0  0  0  0  0  0  0  0
   13.1640   -9.3119    0.0273 H   0  0  0  0  0  0  0  0  0  0  0  0
   11.6886  -10.3364    0.0273 H   0  0  0  0  0  0  0  0  0  0  0  0
   10.7913  -11.9502   -0.3771 H   0  0  0  0  0  0  0  0  0  0  0  0
   12.7419  -13.2768   -4.7867 H   0  0  0  0  0  0  0  0  0  0  0  0
    9.5434  -13.4575   -5.0641 H   0  0  0  0  0  0  0  0  0  0  0  0
   10.7805  -14.7532   -5.0978 H   0  0  0  0  0  0  0  0  0  0  0  0
    8.5307  -15.5574   -4.3182 H   0  0  0  0  0  0  0  0  0  0  0  0
    9.8407  -15.7587   -3.0778 H   0  0  0  0  0  0  0  0  0  0  0  0
    7.4926  -11.1519   -2.5568 H   0  0  0  0  0  0  0  0  0  0  0  0
    6.1278   -9.8291   -0.9306 H   0  0  0  0  0  0  0  0  0  0  0  0
    7.4401  -12.4026    2.2821 H   0  0  0  0  0  0  0  0  0  0  0  0
    8.8107  -13.7347    0.6655 H   0  0  0  0  0  0  0  0  0  0  0  0
  1  2  1  0
  2  3  1  0
  3  4  2  0
  4  5  1  0
  5  6  2  0
  6  7  1  0
  7  8  2  0
  8  9  1  0
  6 10  1  0
 10 11  1  0
 11 12  1  0
 12 13  2  0
 13 14  1  0
 14 15  2  0
 15 16  1  0
 16 17  2  0
 17 18  1  0
 17 19  1  0
 19 20  2  0
  8  3  1  0
 20 14  1  0
 13  5  1  0
  1 21  1  0
  1 22  1  0
  1 23  1  0
  4 24  1  0
  7 25  1  0
 10 26  1  0
 10 27  1  0
 11 28  1  0
 11 29  1  0
 15 30  1  0
 16 31  1  0
 19 32  1  0
 20 33  1  0
M  END
>  <meeko>  (9) 
{"is_sidechain": [false], "free_energy": -6.075, "intermolecular_energy": -6.862, "internal_energy": -0.506}

$$$$
