LIB_TZZWHMBWMXOBCM__M_PUB_ALL__e8__s20260927
     RDKit          3D

 89 96  0  0  0  0  0  0  0  0999 V2000
    4.8540  -12.9410   -6.6810 C   0  0  0  0  0  0  0  0  0  0  0  0
    5.7120  -14.0740   -6.2080 C   0  0  0  0  0  0  0  0  0  0  0  0
    6.5540  -14.6370   -6.8910 O   0  0  0  0  0  0  0  0  0  0  0  0
    5.4110  -14.3740   -4.9150 O   0  0  0  0  0  0  0  0  0  0  0  0
    5.5500  -13.2980   -3.9550 C   0  0  2  0  0  0  0  0  0  0  0  0
    7.0540  -12.9420   -3.8060 C   0  0  0  0  0  0  0  0  0  0  0  0
    7.7380  -13.1920   -2.4520 C   0  0  1  0  0  0  0  0  0  0  0  0
    8.7580  -14.3190   -2.3910 C   0  0  0  0  0  0  0  0  0  0  0  0
    9.2640  -12.9010   -2.3610 C   0  0  1  0  0  0  0  0  0  0  0  0
   10.0380  -12.4360   -3.5860 C   0  0  0  0  0  0  0  0  0  0  0  0
   11.5160  -12.7770   -3.4490 C   0  0  0  0  0  0  0  0  0  0  0  0
   12.1180  -12.1960   -2.1690 C   0  0  2  0  0  0  0  0  0  0  0  0
   13.4890  -12.5920   -2.1300 O   0  0  0  0  0  0  0  0  0  0  0  0
   11.3500  -12.6220   -0.8770 C   0  0  0  0  0  0  0  0  0  0  0  0
   11.9240  -11.8190    0.3170 C   0  0  0  0  0  0  0  0  0  0  0  0
   11.5840  -14.1140   -0.5650 C   0  0  0  0  0  0  0  0  0  0  0  0
    9.8300  -12.2750   -1.0740 C   0  0  2  0  0  0  0  0  0  0  0  0
    8.9400  -12.5200    0.1530 C   0  0  0  0  0  0  0  0  0  0  0  0
    7.5040  -12.0990   -0.1540 C   0  0  0  0  0  0  0  0  0  0  0  0
    6.8700  -13.0480   -1.1790 C   0  0  1  0  0  0  0  0  0  0  0  0
    5.3880  -12.7200   -1.5030 C   0  0  2  0  0  0  0  0  0  0  0  0
    5.2240  -11.2030   -1.8310 C   0  0  0  0  0  0  0  0  0  0  0  0
    4.4170  -13.0310   -0.3470 C   0  0  0  0  0  0  0  0  0  0  0  0
    3.0560  -13.2940   -1.0190 C   0  0  2  0  0  0  0  0  0  0  0  0
    2.5040  -14.4740   -0.4470 O   0  0  0  0  0  0  0  0  0  0  0  0
    1.2230  -14.8480   -0.9730 C   0  0  2  0  0  0  0  0  0  0  0  0
    1.0090  -14.4040   -2.4230 C   0  0  0  0  0  0  0  0  0  0  0  0
    2.3310  -14.4310   -3.2090 C   0  0  1  0  0  0  0  0  0  0  0  0
    2.0490  -14.0720   -4.6670 C   0  0  0  0  0  0  0  0  0  0  0  0
    3.3220  -13.4470   -2.5450 C   0  0  2  0  0  0  0  0  0  0  0  0
    4.8700  -13.6980   -2.6250 C   0  0  1  0  0  0  0  0  0  0  0  0
    5.1680  -15.2020   -2.3220 C   0  0  0  0  0  0  0  0  0  0  0  0
    0.1230  -14.3180   -0.0170 C   0  0  0  0  0  0  0  0  0  0  0  0
    0.1100  -15.3490    1.1300 C   0  0  2  0  0  0  0  0  0  0  0  0
    1.1080  -15.0070    2.0880 O   0  0  0  0  0  0  0  0  0  0  0  0
    0.4600  -16.6520    0.4700 C   0  0  1  0  0  0  0  0  0  0  0  0
    0.7740  -17.8590    1.2730 C   0  0  0  0  0  0  0  0  0  0  0  0
   -0.1900  -16.9150   -0.7860 O   0  0  0  0  0  0  0  0  0  0  0  0
    1.1300  -16.3520   -0.8260 C   0  0  1  0  0  0  0  0  0  0  0  0
    4.4463  -12.4026   -5.8128 H   0  0  0  0  0  0  0  0  0  0  0  0
    5.4588  -12.2520   -7.2888 H   0  0  0  0  0  0  0  0  0  0  0  0
    4.0268  -13.3364   -7.2888 H   0  0  0  0  0  0  0  0  0  0  0  0
    5.0393  -12.3872   -4.3010 H   0  0  0  0  0  0  0  0  0  0  0  0
    7.6020  -13.5271   -4.5592 H   0  0  0  0  0  0  0  0  0  0  0  0
    7.0842  -11.8488   -3.9243 H   0  0  0  0  0  0  0  0  0  0  0  0
    8.8283  -14.9417   -1.4870 H   0  0  0  0  0  0  0  0  0  0  0  0
    8.9704  -15.1957   -3.0205 H   0  0  0  0  0  0  0  0  0  0  0  0
    9.6336  -12.9342   -4.4795 H   0  0  0  0  0  0  0  0  0  0  0  0
    9.9334  -11.3448   -3.6778 H   0  0  0  0  0  0  0  0  0  0  0  0
   11.6285  -13.8711   -3.4304 H   0  0  0  0  0  0  0  0  0  0  0  0
   12.0483  -12.3387   -4.3061 H   0  0  0  0  0  0  0  0  0  0  0  0
   12.0295  -11.0998   -2.1894 H   0  0  0  0  0  0  0  0  0  0  0  0
   13.7710  -12.6030   -1.2000 H   0  0  0  0  0  0  0  0  0  0  0  0
   11.5950  -12.2792    1.2604 H   0  0  0  0  0  0  0  0  0  0  0  0
   13.0229  -11.8261    0.2692 H   0  0  0  0  0  0  0  0  0  0  0  0
   11.5616  -10.7815    0.2692 H   0  0  0  0  0  0  0  0  0  0  0  0
   11.6071  -14.2615    0.5248 H   0  0  0  0  0  0  0  0  0  0  0  0
   10.7686  -14.7116   -0.9986 H   0  0  0  0  0  0  0  0  0  0  0  0
   12.5432  -14.4332   -0.9986 H   0  0  0  0  0  0  0  0  0  0  0  0
    9.8025  -11.1822   -1.1965 H   0  0  0  0  0  0  0  0  0  0  0  0
    8.9595  -13.5894    0.4101 H   0  0  0  0  0  0  0  0  0  0  0  0
    9.3182  -11.9273    0.9989 H   0  0  0  0  0  0  0  0  0  0  0  0
    6.9140  -12.1231    0.7741 H   0  0  0  0  0  0  0  0  0  0  0  0
    7.5146  -11.0816   -0.5721 H   0  0  0  0  0  0  0  0  0  0  0  0
    6.8441  -14.0344   -0.6928 H   0  0  0  0  0  0  0  0  0  0  0  0
    5.1620  -10.6299   -0.8941 H   0  0  0  0  0  0  0  0  0  0  0  0
    6.0901  -10.8584   -2.4150 H   0  0  0  0  0  0  0  0  0  0  0  0
    4.3042  -11.0515   -2.4150 H   0  0  0  0  0  0  0  0  0  0  0  0
    4.7509  -13.9201    0.2080 H   0  0  0  0  0  0  0  0  0  0  0  0
    4.3639  -12.2050    0.3775 H   0  0  0  0  0  0  0  0  0  0  0  0
    2.3362  -12.4765   -0.8655 H   0  0  0  0  0  0  0  0  0  0  0  0
    0.2902  -15.0832   -2.9047 H   0  0  0  0  0  0  0  0  0  0  0  0
    0.6239  -13.3736   -2.4206 H   0  0  0  0  0  0  0  0  0  0  0  0
    2.7853  -15.4327   -3.1933 H   0  0  0  0  0  0  0  0  0  0  0  0
    1.3700  -13.2075   -4.7070 H   0  0  0  0  0  0  0  0  0  0  0  0
    2.9933  -13.8202   -5.1719 H   0  0  0  0  0  0  0  0  0  0  0  0
    1.5807  -14.9298   -5.1719 H   0  0  0  0  0  0  0  0  0  0  0  0
    3.1034  -12.5707   -3.1729 H   0  0  0  0  0  0  0  0  0  0  0  0
    5.1988  -15.3576   -1.2335 H   0  0  0  0  0  0  0  0  0  0  0  0
    4.3764  -15.8280   -2.7596 H   0  0  0  0  0  0  0  0  0  0  0  0
    6.1385  -15.4789   -2.7596 H   0  0  0  0  0  0  0  0  0  0  0  0
    0.3787  -13.3162    0.3586 H   0  0  0  0  0  0  0  0  0  0  0  0
   -0.8556  -14.2136   -0.5084 H   0  0  0  0  0  0  0  0  0  0  0  0
   -0.8562  -15.3910    1.6541 H   0  0  0  0  0  0  0  0  0  0  0  0
    0.8110  -14.1810    2.5190 H   0  0  0  0  0  0  0  0  0  0  0  0
    0.7103  -17.6140    2.3435 H   0  0  0  0  0  0  0  0  0  0  0  0
    0.0531  -18.6552    1.0355 H   0  0  0  0  0  0  0  0  0  0  0  0
    1.7915  -18.2029    1.0355 H   0  0  0  0  0  0  0  0  0  0  0  0
    2.0378  -16.6295   -1.3819 H   0  0  0  0  0  0  0  0  0  0  0  0
  1  2  1  0
  2  3  2  0
  2  4  1  0
  4  5  1  0
  5  6  1  0
  7  6  1  6
  7  8  1  0
  9  8  1  1
  9 10  1  0
 10 11  1  0
 11 12  1  0
 12 13  1  0
 12 14  1  0
 14 15  1  0
 14 16  1  0
 14 17  1  0
 17 18  1  0
 18 19  1  0
 19 20  1  0
 20 21  1  0
 21 22  1  6
 21 23  1  0
 23 24  1  0
 24 25  1  0
 26 25  1  1
 26 27  1  0
 27 28  1  0
 28 29  1  0
 28 30  1  0
 30 31  1  0
 31 32  1  1
 26 33  1  0
 33 34  1  0
 34 35  1  0
 34 36  1  0
 36 37  1  1
 36 38  1  0
 38 39  1  0
 31  5  1  0
 39 36  1  0
  9  7  1  0
 31 21  1  0
 20  7  1  0
 30 24  1  0
 17  9  1  0
 39 26  1  0
  1 40  1  0
  1 41  1  0
  1 42  1  0
  5 43  1  6
  6 44  1  0
  6 45  1  0
  8 46  1  0
  8 47  1  0
 10 48  1  0
 10 49  1  0
 11 50  1  0
 11 51  1  0
 12 52  1  6
 13 53  1  0
 15 54  1  0
 15 55  1  0
 15 56  1  0
 16 57  1  0
 16 58  1  0
 16 59  1  0
 17 60  1  6
 18 61  1  0
 18 62  1  0
 19 63  1  0
 19 64  1  0
 20 65  1  1
 22 66  1  0
 22 67  1  0
 22 68  1  0
 23 69  1  0
 23 70  1  0
 24 71  1  6
 27 72  1  0
 27 73  1  0
 28 74  1  6
 29 75  1  0
 29 76  1  0
 29 77  1  0
 30 78  1  6
 32 79  1  0
 32 80  1  0
 32 81  1  0
 33 82  1  0
 33 83  1  0
 34 84  1  1
 35 85  1  0
 37 86  1  0
 37 87  1  0
 37 88  1  0
 39 89  1  6
M  END
>  <meeko>  (1) 
{"is_sidechain": [false], "free_energy": -8.898, "intermolecular_energy": -10.458, "internal_energy": -0.595}

$$$$
LIB_TZZWHMBWMXOBCM__M_PUB_ALL__e8__s20260927
     RDKit          3D

 89 96  0  0  0  0  0  0  0  0999 V2000
   12.3940  -11.3180    0.0200 C   0  0  0  0  0  0  0  0  0  0  0  0
   11.7210  -12.5890    0.4380 C   0  0  0  0  0  0  0  0  0  0  0  0
   11.5210  -12.9180    1.5970 O   0  0  0  0  0  0  0  0  0  0  0  0
   11.3710  -13.3110   -0.6620 O   0  0  0  0  0  0  0  0  0  0  0  0
   10.2570  -12.8050   -1.4370 C   0  0  2  0  0  0  0  0  0  0  0  0
    8.9890  -12.7730   -0.5420 C   0  0  0  0  0  0  0  0  0  0  0  0
    7.8120  -13.6940   -0.9030 C   0  0  1  0  0  0  0  0  0  0  0  0
    7.5400  -14.8660    0.0280 C   0  0  0  0  0  0  0  0  0  0  0  0
    6.5890  -13.6980    0.0600 C   0  0  1  0  0  0  0  0  0  0  0  0
    6.6000  -12.8560    1.3280 C   0  0  0  0  0  0  0  0  0  0  0  0
    5.6450  -13.4330    2.3640 C   0  0  0  0  0  0  0  0  0  0  0  0
    4.2250  -13.5730    1.8130 C   0  0  2  0  0  0  0  0  0  0  0  0
    3.4240  -14.1400    2.8500 O   0  0  0  0  0  0  0  0  0  0  0  0
    4.1540  -14.4110    0.4970 C   0  0  0  0  0  0  0  0  0  0  0  0
    2.7130  -14.3140   -0.0650 C   0  0  0  0  0  0  0  0  0  0  0  0
    4.4210  -15.9040    0.7790 C   0  0  0  0  0  0  0  0  0  0  0  0
    5.1720  -13.7970   -0.5310 C   0  0  2  0  0  0  0  0  0  0  0  0
    5.1490  -14.4280   -1.9300 C   0  0  0  0  0  0  0  0  0  0  0  0
    6.1450  -13.7120   -2.8400 C   0  0  0  0  0  0  0  0  0  0  0  0
    7.5850  -14.0050   -2.4020 C   0  0  1  0  0  0  0  0  0  0  0  0
    8.6620  -13.3570   -3.3130 C   0  0  2  0  0  0  0  0  0  0  0  0
    8.3450  -11.8460   -3.5420 C   0  0  0  0  0  0  0  0  0  0  0  0
    8.7640  -14.0040   -4.7090 C   0  0  0  0  0  0  0  0  0  0  0  0
   10.2090  -13.7410   -5.1740 C   0  0  2  0  0  0  0  0  0  0  0  0
   10.7320  -14.9590   -5.6920 O   0  0  0  0  0  0  0  0  0  0  0  0
   12.0800  -14.8710   -6.1720 C   0  0  2  0  0  0  0  0  0  0  0  0
   12.9130  -13.8040   -5.4550 C   0  0  0  0  0  0  0  0  0  0  0  0
   12.4870  -13.6720   -3.9820 C   0  0  1  0  0  0  0  0  0  0  0  0
   13.4060  -12.6660   -3.2890 C   0  0  0  0  0  0  0  0  0  0  0  0
   11.0030  -13.2390   -3.9330 C   0  0  2  0  0  0  0  0  0  0  0  0
   10.0920  -13.6490   -2.7220 C   0  0  1  0  0  0  0  0  0  0  0  0
   10.3270  -15.1580   -2.3850 C   0  0  0  0  0  0  0  0  0  0  0  0
   12.0450  -14.6660   -7.7090 C   0  0  0  0  0  0  0  0  0  0  0  0
   11.7920  -16.0840   -8.2590 C   0  0  2  0  0  0  0  0  0  0  0  0
   10.3910  -16.3510   -8.2610 O   0  0  0  0  0  0  0  0  0  0  0  0
   12.4840  -16.9960   -7.2870 C   0  0  1  0  0  0  0  0  0  0  0  0
   12.2850  -18.4650   -7.3360 C   0  0  0  0  0  0  0  0  0  0  0  0
   13.7910  -16.5770   -6.8550 O   0  0  0  0  0  0  0  0  0  0  0  0
   12.6770  -16.2530   -6.0100 C   0  0  1  0  0  0  0  0  0  0  0  0
   12.6942  -10.7510    0.9135 H   0  0  0  0  0  0  0  0  0  0  0  0
   13.2848  -11.5550   -0.5803 H   0  0  0  0  0  0  0  0  0  0  0  0
   11.6973  -10.7144   -0.5803 H   0  0  0  0  0  0  0  0  0  0  0  0
   10.4393  -11.7721   -1.7684 H   0  0  0  0  0  0  0  0  0  0  0  0
    9.3052  -13.0352    0.4784 H   0  0  0  0  0  0  0  0  0  0  0  0
    8.5882  -11.7579   -0.6796 H   0  0  0  0  0  0  0  0  0  0  0  0
    7.2076  -15.8278   -0.3897 H   0  0  0  0  0  0  0  0  0  0  0  0
    8.1326  -15.3932    0.7902 H   0  0  0  0  0  0  0  0  0  0  0  0
    7.6184  -12.8420    1.7436 H   0  0  0  0  0  0  0  0  0  0  0  0
    6.2764  -11.8349    1.0779 H   0  0  0  0  0  0  0  0  0  0  0  0
    6.0080  -14.4256    2.6688 H   0  0  0  0  0  0  0  0  0  0  0  0
    5.6127  -12.7433    3.2203 H   0  0  0  0  0  0  0  0  0  0  0  0
    3.8459  -12.5811    1.5257 H   0  0  0  0  0  0  0  0  0  0  0  0
    3.8680  -14.9440    3.1660 H   0  0  0  0  0  0  0  0  0  0  0  0
    1.9968  -14.2658    0.7685 H   0  0  0  0  0  0  0  0  0  0  0  0
    2.6200  -13.4076   -0.6812 H   0  0  0  0  0  0  0  0  0  0  0  0
    2.4994  -15.1998   -0.6812 H   0  0  0  0  0  0  0  0  0  0  0  0
    4.4511  -16.0722    1.8656 H   0  0  0  0  0  0  0  0  0  0  0  0
    3.6170  -16.5103    0.3362 H   0  0  0  0  0  0  0  0  0  0  0  0
    5.3853  -16.1941    0.3362 H   0  0  0  0  0  0  0  0  0  0  0  0
    4.8130  -12.7723   -0.7072 H   0  0  0  0  0  0  0  0  0  0  0  0
    5.4222  -15.4909   -1.8552 H   0  0  0  0  0  0  0  0  0  0  0  0
    4.1383  -14.3326   -2.3536 H   0  0  0  0  0  0  0  0  0  0  0  0
    6.0041  -14.0595   -3.8741 H   0  0  0  0  0  0  0  0  0  0  0  0
    5.9685  -12.6282   -2.7749 H   0  0  0  0  0  0  0  0  0  0  0  0
    7.7171  -15.0894   -2.5307 H   0  0  0  0  0  0  0  0  0  0  0  0
    8.2393  -11.3421   -2.5699 H   0  0  0  0  0  0  0  0  0  0  0  0
    9.1652  -11.3811   -4.1087 H   0  0  0  0  0  0  0  0  0  0  0  0
    7.4071  -11.7499   -4.1087 H   0  0  0  0  0  0  0  0  0  0  0  0
    8.5696  -15.0850   -4.6479 H   0  0  0  0  0  0  0  0  0  0  0  0
    8.0254  -13.5870   -5.4094 H   0  0  0  0  0  0  0  0  0  0  0  0
   10.2741  -12.9815   -5.9671 H   0  0  0  0  0  0  0  0  0  0  0  0
   13.9751  -14.0869   -5.4987 H   0  0  0  0  0  0  0  0  0  0  0  0
   12.7516  -12.8377   -5.9552 H   0  0  0  0  0  0  0  0  0  0  0  0
   12.5787  -14.6309   -3.4509 H   0  0  0  0  0  0  0  0  0  0  0  0
   13.3093  -12.7718   -2.1984 H   0  0  0  0  0  0  0  0  0  0  0  0
   14.4481  -12.8569   -3.5850 H   0  0  0  0  0  0  0  0  0  0  0  0
   13.1219  -11.6454   -3.5850 H   0  0  0  0  0  0  0  0  0  0  0  0
   11.1675  -12.1538   -3.8606 H   0  0  0  0  0  0  0  0  0  0  0  0
   10.3477  -15.2910   -1.2933 H   0  0  0  0  0  0  0  0  0  0  0  0
    9.5118  -15.7604   -2.8124 H   0  0  0  0  0  0  0  0  0  0  0  0
   11.2867  -15.4840   -2.8124 H   0  0  0  0  0  0  0  0  0  0  0  0
   11.2318  -13.9829   -7.9956 H   0  0  0  0  0  0  0  0  0  0  0  0
   12.9683  -14.2144   -8.1008 H   0  0  0  0  0  0  0  0  0  0  0  0
   12.1589  -16.2125   -9.2880 H   0  0  0  0  0  0  0  0  0  0  0  0
   10.0190  -15.8870   -9.0380 H   0  0  0  0  0  0  0  0  0  0  0  0
   12.2312  -18.8621   -6.3116 H   0  0  0  0  0  0  0  0  0  0  0  0
   11.3481  -18.6906   -7.8664 H   0  0  0  0  0  0  0  0  0  0  0  0
   13.1281  -18.9317   -7.8664 H   0  0  0  0  0  0  0  0  0  0  0  0
   12.5018  -16.3838   -4.9319 H   0  0  0  0  0  0  0  0  0  0  0  0
  1  2  1  0
  2  3  2  0
  2  4  1  0
  4  5  1  0
  5  6  1  0
  7  6  1  6
  7  8  1  0
  9  8  1  1
  9 10  1  0
 10 11  1  0
 11 12  1  0
 12 13  1  0
 12 14  1  0
 14 15  1  0
 14 16  1  0
 14 17  1  0
 17 18  1  0
 18 19  1  0
 19 20  1  0
 20 21  1  0
 21 22  1  6
 21 23  1  0
 23 24  1  0
 24 25  1  0
 26 25  1  1
 26 27  1  0
 27 28  1  0
 28 29  1  0
 28 30  1  0
 30 31  1  0
 31 32  1  1
 26 33  1  0
 33 34  1  0
 34 35  1  0
 34 36  1  0
 36 37  1  1
 36 38  1  0
 38 39  1  0
 31  5  1  0
 39 36  1  0
  9  7  1  0
 31 21  1  0
 20  7  1  0
 30 24  1  0
 17  9  1  0
 39 26  1  0
  1 40  1  0
  1 41  1  0
  1 42  1  0
  5 43  1  6
  6 44  1  0
  6 45  1  0
  8 46  1  0
  8 47  1  0
 10 48  1  0
 10 49  1  0
 11 50  1  0
 11 51  1  0
 12 52  1  6
 13 53  1  0
 15 54  1  0
 15 55  1  0
 15 56  1  0
 16 57  1  0
 16 58  1  0
 16 59  1  0
 17 60  1  6
 18 61  1  0
 18 62  1  0
 19 63  1  0
 19 64  1  0
 20 65  1  1
 22 66  1  0
 22 67  1  0
 22 68  1  0
 23 69  1  0
 23 70  1  0
 24 71  1  6
 27 72  1  0
 27 73  1  0
 28 74  1  1
 29 75  1  0
 29 76  1  0
 29 77  1  0
 30 78  1  6
 32 79  1  0
 32 80  1  0
 32 81  1  0
 33 82  1  0
 33 83  1  0
 34 84  1  6
 35 85  1  0
 37 86  1  0
 37 87  1  0
 37 88  1  0
 39 89  1  1
M  END
>  <meeko>  (2) 
{"is_sidechain": [false], "free_energy": -8.599, "intermolecular_energy": -10.176, "internal_energy": -0.527}

$$$$
LIB_TZZWHMBWMXOBCM__M_PUB_ALL__e8__s20260927
     RDKit          3D

 89 96  0  0  0  0  0  0  0  0999 V2000
   12.1500  -11.2780   -0.1930 C   0  0  0  0  0  0  0  0  0  0  0  0
   11.1920  -12.3400    0.2510 C   0  0  0  0  0  0  0  0  0  0  0  0
   11.2740  -12.9500    1.3070 O   0  0  0  0  0  0  0  0  0  0  0  0
   10.2280  -12.5180   -0.6930 O   0  0  0  0  0  0  0  0  0  0  0  0
   10.0800  -13.8610   -1.2160 C   0  0  2  0  0  0  0  0  0  0  0  0
   11.2670  -14.1690   -2.1690 C   0  0  0  0  0  0  0  0  0  0  0  0
   10.9730  -14.3930   -3.6610 C   0  0  1  0  0  0  0  0  0  0  0  0
   11.4410  -13.3150   -4.6270 C   0  0  0  0  0  0  0  0  0  0  0  0
   12.1930  -14.6190   -4.6000 C   0  0  1  0  0  0  0  0  0  0  0  0
   13.6120  -14.5660   -4.0520 C   0  0  0  0  0  0  0  0  0  0  0  0
   14.6020  -14.2220   -5.1580 C   0  0  0  0  0  0  0  0  0  0  0  0
   14.5050  -15.1970   -6.3320 C   0  0  2  0  0  0  0  0  0  0  0  0
   15.4520  -14.7730   -7.3130 O   0  0  0  0  0  0  0  0  0  0  0  0
   13.0640  -15.3100   -6.9230 C   0  0  0  0  0  0  0  0  0  0  0  0
   13.0520  -16.4620   -7.9600 C   0  0  0  0  0  0  0  0  0  0  0  0
   12.6770  -14.0240   -7.6820 C   0  0  0  0  0  0  0  0  0  0  0  0
   12.0760  -15.6400   -5.7450 C   0  0  2  0  0  0  0  0  0  0  0  0
   10.6230  -15.9040   -6.1670 C   0  0  0  0  0  0  0  0  0  0  0  0
    9.7830  -16.2580   -4.9410 C   0  0  0  0  0  0  0  0  0  0  0  0
    9.6150  -15.0350   -4.0300 C   0  0  1  0  0  0  0  0  0  0  0  0
    8.7230  -15.2980   -2.7870 C   0  0  2  0  0  0  0  0  0  0  0  0
    9.1790  -16.5980   -2.0540 C   0  0  0  0  0  0  0  0  0  0  0  0
    7.2290  -15.4790   -3.1220 C   0  0  0  0  0  0  0  0  0  0  0  0
    6.4730  -15.0600   -1.8470 C   0  0  2  0  0  0  0  0  0  0  0  0
    5.4070  -14.1990   -2.2300 O   0  0  0  0  0  0  0  0  0  0  0  0
    4.6030  -13.7260   -1.1420 C   0  0  2  0  0  0  0  0  0  0  0  0
    5.3690  -13.6230    0.1810 C   0  0  0  0  0  0  0  0  0  0  0  0
    6.8400  -13.2430   -0.0640 C   0  0  1  0  0  0  0  0  0  0  0  0
    7.5360  -13.0620    1.2850 C   0  0  0  0  0  0  0  0  0  0  0  0
    7.5010  -14.3490   -0.9190 C   0  0  2  0  0  0  0  0  0  0  0  0
    8.6920  -14.0070   -1.8830 C   0  0  1  0  0  0  0  0  0  0  0  0
    8.3580  -12.7030   -2.6780 C   0  0  0  0  0  0  0  0  0  0  0  0
    3.3420  -14.6220   -1.0330 C   0  0  0  0  0  0  0  0  0  0  0  0
    2.4150  -14.0810   -2.1390 C   0  0  2  0  0  0  0  0  0  0  0  0
    2.7460  -14.6960   -3.3820 O   0  0  0  0  0  0  0  0  0  0  0  0
    2.7160  -12.6110   -2.2000 C   0  0  1  0  0  0  0  0  0  0  0  0
    2.1920  -11.7640   -3.2990 C   0  0  0  0  0  0  0  0  0  0  0  0
    2.8470  -11.9430   -0.9320 O   0  0  0  0  0  0  0  0  0  0  0  0
    4.0510  -12.3850   -1.5770 C   0  0  1  0  0  0  0  0  0  0  0  0
   12.5905  -10.7897    0.6888 H   0  0  0  0  0  0  0  0  0  0  0  0
   12.9485  -11.7337   -0.7969 H   0  0  0  0  0  0  0  0  0  0  0  0
   11.6147  -10.5305   -0.7969 H   0  0  0  0  0  0  0  0  0  0  0  0
   10.1164  -14.6086   -0.4099 H   0  0  0  0  0  0  0  0  0  0  0  0
   11.9665  -13.3229   -2.0997 H   0  0  0  0  0  0  0  0  0  0  0  0
   11.6453  -15.1415   -1.8210 H   0  0  0  0  0  0  0  0  0  0  0  0
   10.8228  -13.0607   -5.5006 H   0  0  0  0  0  0  0  0  0  0  0  0
   11.7317  -12.2599   -4.5161 H   0  0  0  0  0  0  0  0  0  0  0  0
   13.6674  -13.7986   -3.2658 H   0  0  0  0  0  0  0  0  0  0  0  0
   13.8698  -15.5527   -3.6398 H   0  0  0  0  0  0  0  0  0  0  0  0
   14.3906  -13.2055   -5.5213 H   0  0  0  0  0  0  0  0  0  0  0  0
   15.6175  -14.2901   -4.7406 H   0  0  0  0  0  0  0  0  0  0  0  0
   14.7363  -16.2135   -5.9810 H   0  0  0  0  0  0  0  0  0  0  0  0
   15.4180  -13.8030   -7.3620 H   0  0  0  0  0  0  0  0  0  0  0  0
   13.0419  -17.4283   -7.4345 H   0  0  0  0  0  0  0  0  0  0  0  0
   12.1547  -16.3783   -8.5907 H   0  0  0  0  0  0  0  0  0  0  0  0
   13.9509  -16.3970   -8.5907 H   0  0  0  0  0  0  0  0  0  0  0  0
   12.4380  -13.2297   -6.9595 H   0  0  0  0  0  0  0  0  0  0  0  0
   13.5186  -13.7038   -8.3138 H   0  0  0  0  0  0  0  0  0  0  0  0
   11.7985  -14.2215   -8.3138 H   0  0  0  0  0  0  0  0  0  0  0  0
   12.4112  -16.6132   -5.3570 H   0  0  0  0  0  0  0  0  0  0  0  0
   10.2116  -15.0018   -6.6432 H   0  0  0  0  0  0  0  0  0  0  0  0
   10.5985  -16.7430   -6.8780 H   0  0  0  0  0  0  0  0  0  0  0  0
    8.7915  -16.6030   -5.2695 H   0  0  0  0  0  0  0  0  0  0  0  0
   10.2949  -17.0521   -4.3777 H   0  0  0  0  0  0  0  0  0  0  0  0
    9.0614  -14.2955   -4.6273 H   0  0  0  0  0  0  0  0  0  0  0  0
    9.1249  -16.4438   -0.9662 H   0  0  0  0  0  0  0  0  0  0  0  0
    8.5192  -17.4306   -2.3396 H   0  0  0  0  0  0  0  0  0  0  0  0
   10.2143  -16.8360   -2.3396 H   0  0  0  0  0  0  0  0  0  0  0  0
    6.9433  -14.8367   -3.9680 H   0  0  0  0  0  0  0  0  0  0  0  0
    6.9968  -16.5135   -3.4152 H   0  0  0  0  0  0  0  0  0  0  0  0
    6.0387  -15.9135   -1.3058 H   0  0  0  0  0  0  0  0  0  0  0  0
    4.8984  -12.8535    0.8106 H   0  0  0  0  0  0  0  0  0  0  0  0
    5.3377  -14.6017    0.6822 H   0  0  0  0  0  0  0  0  0  0  0  0
    6.9223  -12.2938   -0.6138 H   0  0  0  0  0  0  0  0  0  0  0  0
    6.8172  -13.2489    2.0964 H   0  0  0  0  0  0  0  0  0  0  0  0
    8.3718  -13.7727    1.3646 H   0  0  0  0  0  0  0  0  0  0  0  0
    7.9197  -12.0342    1.3646 H   0  0  0  0  0  0  0  0  0  0  0  0
    7.9144  -14.9472   -0.0936 H   0  0  0  0  0  0  0  0  0  0  0  0
    8.1488  -11.8863   -1.9715 H   0  0  0  0  0  0  0  0  0  0  0  0
    9.2151  -12.4298   -3.3110 H   0  0  0  0  0  0  0  0  0  0  0  0
    7.4750  -12.8755   -3.3110 H   0  0  0  0  0  0  0  0  0  0  0  0
    3.5937  -15.6775   -1.2132 H   0  0  0  0  0  0  0  0  0  0  0  0
    2.8802  -14.5897   -0.0351 H   0  0  0  0  0  0  0  0  0  0  0  0
    1.3524  -14.2829   -1.9388 H   0  0  0  0  0  0  0  0  0  0  0  0
    2.2310  -15.5270   -3.4290 H   0  0  0  0  0  0  0  0  0  0  0  0
    1.6582  -10.9011   -2.8743 H   0  0  0  0  0  0  0  0  0  0  0  0
    3.0284  -11.4088   -3.9189 H   0  0  0  0  0  0  0  0  0  0  0  0
    1.5008  -12.3539   -3.9189 H   0  0  0  0  0  0  0  0  0  0  0  0
    5.0021  -11.8785   -1.7982 H   0  0  0  0  0  0  0  0  0  0  0  0
  1  2  1  0
  2  3  2  0
  2  4  1  0
  4  5  1  0
  5  6  1  0
  7  6  1  1
  7  8  1  0
  9  8  1  6
  9 10  1  0
 10 11  1  0
 11 12  1  0
 12 13  1  0
 12 14  1  0
 14 15  1  0
 14 16  1  0
 14 17  1  0
 17 18  1  0
 18 19  1  0
 19 20  1  0
 20 21  1  0
 21 22  1  1
 21 23  1  0
 23 24  1  0
 24 25  1  0
 26 25  1  6
 26 27  1  0
 27 28  1  0
 28 29  1  0
 28 30  1  0
 30 31  1  0
 31 32  1  6
 26 33  1  0
 33 34  1  0
 34 35  1  0
 34 36  1  0
 36 37  1  6
 36 38  1  0
 38 39  1  0
 31  5  1  0
 39 36  1  0
  9  7  1  0
 31 21  1  0
 20  7  1  0
 30 24  1  0
 17  9  1  0
 39 26  1  0
  1 40  1  0
  1 41  1  0
  1 42  1  0
  5 43  1  1
  6 44  1  0
  6 45  1  0
  8 46  1  0
  8 47  1  0
 10 48  1  0
 10 49  1  0
 11 50  1  0
 11 51  1  0
 12 52  1  1
 13 53  1  0
 15 54  1  0
 15 55  1  0
 15 56  1  0
 16 57  1  0
 16 58  1  0
 16 59  1  0
 17 60  1  1
 18 61  1  0
 18 62  1  0
 19 63  1  0
 19 64  1  0
 20 65  1  6
 22 66  1  0
 22 67  1  0
 22 68  1  0
 23 69  1  0
 23 70  1  0
 24 71  1  1
 27 72  1  0
 27 73  1  0
 28 74  1  6
 29 75  1  0
 29 76  1  0
 29 77  1  0
 30 78  1  1
 32 79  1  0
 32 80  1  0
 32 81  1  0
 33 82  1  0
 33 83  1  0
 34 84  1  1
 35 85  1  0
 37 86  1  0
 37 87  1  0
 37 88  1  0
 39 89  1  6
M  END
>  <meeko>  (3) 
{"is_sidechain": [false], "free_energy": -8.151, "intermolecular_energy": -9.653, "internal_energy": -0.523}

$$$$
LIB_TZZWHMBWMXOBCM__M_PUB_ALL__e8__s20260927
     RDKit          3D

 89 96  0  0  0  0  0  0  0  0999 V2000
   -1.8810   -9.7320    2.0090 C   0  0  0  0  0  0  0  0  0  0  0  0
   -1.7350  -10.4190    0.6860 C   0  0  0  0  0  0  0  0  0  0  0  0
   -2.5160  -10.3010   -0.2460 O   0  0  0  0  0  0  0  0  0  0  0  0
   -0.6090  -11.1850    0.6840 O   0  0  0  0  0  0  0  0  0  0  0  0
   -0.7430  -12.5230    0.1460 C   0  0  2  0  0  0  0  0  0  0  0  0
   -1.7240  -13.3330    1.0360 C   0  0  0  0  0  0  0  0  0  0  0  0
   -1.1820  -14.5420    1.8160 C   0  0  1  0  0  0  0  0  0  0  0  0
   -1.0880  -14.4030    3.3280 C   0  0  0  0  0  0  0  0  0  0  0  0
   -2.1720  -15.2810    2.7610 C   0  0  1  0  0  0  0  0  0  0  0  0
   -3.6000  -14.7820    2.9300 C   0  0  0  0  0  0  0  0  0  0  0  0
   -4.1740  -15.2390    4.2650 C   0  0  0  0  0  0  0  0  0  0  0  0
   -4.1040  -16.7580    4.4240 C   0  0  2  0  0  0  0  0  0  0  0  0
   -4.6420  -17.0730    5.7090 O   0  0  0  0  0  0  0  0  0  0  0  0
   -2.6630  -17.3320    4.2400 C   0  0  0  0  0  0  0  0  0  0  0  0
   -2.7530  -18.8790    4.2240 C   0  0  0  0  0  0  0  0  0  0  0  0
   -1.7610  -16.9510    5.4310 C   0  0  0  0  0  0  0  0  0  0  0  0
   -2.1020  -16.8150    2.8650 C   0  0  2  0  0  0  0  0  0  0  0  0
   -0.7330  -17.3810    2.4640 C   0  0  0  0  0  0  0  0  0  0  0  0
   -0.3270  -16.8400    1.0940 C   0  0  0  0  0  0  0  0  0  0  0  0
   -0.0210  -15.3390    1.1750 C   0  0  1  0  0  0  0  0  0  0  0  0
    0.4540  -14.7230   -0.1670 C   0  0  2  0  0  0  0  0  0  0  0  0
   -0.5100  -15.1290   -1.3250 C   0  0  0  0  0  0  0  0  0  0  0  0
    1.8680  -15.1720   -0.5910 C   0  0  0  0  0  0  0  0  0  0  0  0
    2.4070  -14.0350   -1.4780 C   0  0  2  0  0  0  0  0  0  0  0  0
    3.7340  -13.7400   -1.0570 O   0  0  0  0  0  0  0  0  0  0  0  0
    4.3760  -12.6950   -1.7990 C   0  0  2  0  0  0  0  0  0  0  0  0
    3.3960  -11.6630   -2.3680 C   0  0  0  0  0  0  0  0  0  0  0  0
    2.1930  -11.4720   -1.4300 C   0  0  1  0  0  0  0  0  0  0  0  0
    1.2960  -10.3700   -1.9930 C   0  0  0  0  0  0  0  0  0  0  0  0
    1.4490  -12.8210   -1.2980 C   0  0  2  0  0  0  0  0  0  0  0  0
    0.6550  -13.1700    0.0110 C   0  0  1  0  0  0  0  0  0  0  0  0
    1.5210  -12.7970    1.2570 C   0  0  0  0  0  0  0  0  0  0  0  0
    5.2650  -13.3400   -2.8940 C   0  0  0  0  0  0  0  0  0  0  0  0
    6.5330  -13.7680   -2.1270 C   0  0  2  0  0  0  0  0  0  0  0  0
    6.3240  -15.0500   -1.5400 O   0  0  0  0  0  0  0  0  0  0  0  0
    6.6910  -12.7320   -1.0510 C   0  0  1  0  0  0  0  0  0  0  0  0
    7.6700  -12.9100    0.0480 C   0  0  0  0  0  0  0  0  0  0  0  0
    6.4800  -11.3680   -1.4570 O   0  0  0  0  0  0  0  0  0  0  0  0
    5.3760  -12.0600   -0.8560 C   0  0  1  0  0  0  0  0  0  0  0  0
   -1.7263  -10.4598    2.8191 H   0  0  0  0  0  0  0  0  0  0  0  0
   -1.1334   -8.9291    2.0897 H   0  0  0  0  0  0  0  0  0  0  0  0
   -2.8905   -9.3025    2.0897 H   0  0  0  0  0  0  0  0  0  0  0  0
   -1.1735  -12.5038   -0.8661 H   0  0  0  0  0  0  0  0  0  0  0  0
   -2.1457  -12.6340    1.7732 H   0  0  0  0  0  0  0  0  0  0  0  0
   -2.4353  -13.7719    0.3208 H   0  0  0  0  0  0  0  0  0  0  0  0
   -0.2433  -14.8586    3.8656 H   0  0  0  0  0  0  0  0  0  0  0  0
   -1.0772  -13.5483    4.0203 H   0  0  0  0  0  0  0  0  0  0  0  0
   -3.6056  -13.6827    2.8916 H   0  0  0  0  0  0  0  0  0  0  0  0
   -4.2178  -15.1946    2.1188 H   0  0  0  0  0  0  0  0  0  0  0  0
   -3.6012  -14.7693    5.0782 H   0  0  0  0  0  0  0  0  0  0  0  0
   -5.2320  -14.9401    4.3021 H   0  0  0  0  0  0  0  0  0  0  0  0
   -4.6924  -17.2351    3.6264 H   0  0  0  0  0  0  0  0  0  0  0  0
   -5.3080  -16.4010    5.9280 H   0  0  0  0  0  0  0  0  0  0  0  0
   -2.7749  -19.2557    5.2573 H   0  0  0  0  0  0  0  0  0  0  0  0
   -3.6706  -19.1875    3.7017 H   0  0  0  0  0  0  0  0  0  0  0  0
   -1.8774  -19.2918    3.7017 H   0  0  0  0  0  0  0  0  0  0  0  0
   -2.2845  -17.1721    6.3729 H   0  0  0  0  0  0  0  0  0  0  0  0
   -0.8280  -17.5319    5.3849 H   0  0  0  0  0  0  0  0  0  0  0  0
   -1.5270  -15.8772    5.3849 H   0  0  0  0  0  0  0  0  0  0  0  0
   -2.7824  -17.2305    2.1071 H   0  0  0  0  0  0  0  0  0  0  0  0
    0.0177  -17.0830    3.2108 H   0  0  0  0  0  0  0  0  0  0  0  0
   -0.7950  -18.4782    2.4160 H   0  0  0  0  0  0  0  0  0  0  0  0
    0.5698  -17.3735    0.7460 H   0  0  0  0  0  0  0  0  0  0  0  0
   -1.1588  -16.9948    0.3910 H   0  0  0  0  0  0  0  0  0  0  0  0
    0.8424  -15.2501    1.8507 H   0  0  0  0  0  0  0  0  0  0  0  0
   -1.4458  -15.5231   -0.9019 H   0  0  0  0  0  0  0  0  0  0  0  0
   -0.7305  -14.2473   -1.9447 H   0  0  0  0  0  0  0  0  0  0  0  0
   -0.0333  -15.9028   -1.9447 H   0  0  0  0  0  0  0  0  0  0  0  0
    2.5096  -15.3089    0.2919 H   0  0  0  0  0  0  0  0  0  0  0  0
    1.8499  -16.1341   -1.1239 H   0  0  0  0  0  0  0  0  0  0  0  0
    2.4426  -14.3033   -2.5442 H   0  0  0  0  0  0  0  0  0  0  0  0
    3.9156  -10.7009   -2.4875 H   0  0  0  0  0  0  0  0  0  0  0  0
    3.0294  -12.0255   -3.3397 H   0  0  0  0  0  0  0  0  0  0  0  0
    2.5144  -11.1617   -0.4248 H   0  0  0  0  0  0  0  0  0  0  0  0
    0.8396   -9.8093   -1.1639 H   0  0  0  0  0  0  0  0  0  0  0  0
    1.8979   -9.6868   -2.6101 H   0  0  0  0  0  0  0  0  0  0  0  0
    0.5048  -10.8207   -2.6101 H   0  0  0  0  0  0  0  0  0  0  0  0
    0.7065  -12.6582   -2.0931 H   0  0  0  0  0  0  0  0  0  0  0  0
    0.9647  -13.0366    2.1752 H   0  0  0  0  0  0  0  0  0  0  0  0
    2.4593  -13.3708    1.2365 H   0  0  0  0  0  0  0  0  0  0  0  0
    1.7487  -11.7210    1.2365 H   0  0  0  0  0  0  0  0  0  0  0  0
    4.7650  -14.2109   -3.3431 H   0  0  0  0  0  0  0  0  0  0  0  0
    5.4806  -12.6552   -3.7274 H   0  0  0  0  0  0  0  0  0  0  0  0
    7.4194  -13.8376   -2.7747 H   0  0  0  0  0  0  0  0  0  0  0  0
    5.7630  -14.9080   -0.7510 H   0  0  0  0  0  0  0  0  0  0  0  0
    7.1557  -12.8165    1.0159 H   0  0  0  0  0  0  0  0  0  0  0  0
    8.1297  -13.9064   -0.0282 H   0  0  0  0  0  0  0  0  0  0  0  0
    8.4510  -12.1391   -0.0282 H   0  0  0  0  0  0  0  0  0  0  0  0
    4.6873  -11.7904   -0.0417 H   0  0  0  0  0  0  0  0  0  0  0  0
  1  2  1  0
  2  3  2  0
  2  4  1  0
  4  5  1  0
  5  6  1  0
  7  6  1  6
  7  8  1  0
  9  8  1  1
  9 10  1  0
 10 11  1  0
 11 12  1  0
 12 13  1  0
 12 14  1  0
 14 15  1  0
 14 16  1  0
 14 17  1  0
 17 18  1  0
 18 19  1  0
 19 20  1  0
 20 21  1  0
 21 22  1  6
 21 23  1  0
 23 24  1  0
 24 25  1  0
 26 25  1  1
 26 27  1  0
 27 28  1  0
 28 29  1  0
 28 30  1  0
 30 31  1  0
 31 32  1  1
 26 33  1  0
 33 34  1  0
 34 35  1  0
 34 36  1  0
 36 37  1  1
 36 38  1  0
 38 39  1  0
 31  5  1  0
 39 36  1  0
  9  7  1  0
 31 21  1  0
 20  7  1  0
 30 24  1  0
 17  9  1  0
 39 26  1  0
  1 40  1  0
  1 41  1  0
  1 42  1  0
  5 43  1  6
  6 44  1  0
  6 45  1  0
  8 46  1  0
  8 47  1  0
 10 48  1  0
 10 49  1  0
 11 50  1  0
 11 51  1  0
 12 52  1  6
 13 53  1  0
 15 54  1  0
 15 55  1  0
 15 56  1  0
 16 57  1  0
 16 58  1  0
 16 59  1  0
 17 60  1  6
 18 61  1  0
 18 62  1  0
 19 63  1  0
 19 64  1  0
 20 65  1  1
 22 66  1  0
 22 67  1  0
 22 68  1  0
 23 69  1  0
 23 70  1  0
 24 71  1  6
 27 72  1  0
 27 73  1  0
 28 74  1  1
 29 75  1  0
 29 76  1  0
 29 77  1  0
 30 78  1  6
 32 79  1  0
 32 80  1  0
 32 81  1  0
 33 82  1  0
 33 83  1  0
 34 84  1  6
 35 85  1  0
 37 86  1  0
 37 87  1  0
 37 88  1  0
 39 89  1  1
M  END
>  <meeko>  (4) 
{"is_sidechain": [false], "free_energy": -8.137, "intermolecular_energy": -9.68, "internal_energy": -0.479}

$$$$
LIB_TZZWHMBWMXOBCM__M_PUB_ALL__e8__s20260927
     RDKit          3D

 89 96  0  0  0  0  0  0  0  0999 V2000
   -0.9520  -10.3350    0.2350 C   0  0  0  0  0  0  0  0  0  0  0  0
    0.3680  -10.0570    0.8870 C   0  0  0  0  0  0  0  0  0  0  0  0
    0.7130   -8.9660    1.3140 O   0  0  0  0  0  0  0  0  0  0  0  0
    1.1130  -11.1960    0.9280 O   0  0  0  0  0  0  0  0  0  0  0  0
    0.4520  -12.4130    0.5050 C   0  0  2  0  0  0  0  0  0  0  0  0
   -0.0690  -13.1710    1.7560 C   0  0  0  0  0  0  0  0  0  0  0  0
    0.5400  -14.5420    2.0910 C   0  0  1  0  0  0  0  0  0  0  0  0
    1.4270  -14.6220    3.3250 C   0  0  0  0  0  0  0  0  0  0  0  0
    0.0540  -15.2370    3.3960 C   0  0  1  0  0  0  0  0  0  0  0  0
   -0.9450  -14.5470    4.3140 C   0  0  0  0  0  0  0  0  0  0  0  0
   -0.8260  -15.0820    5.7360 C   0  0  0  0  0  0  0  0  0  0  0  0
   -0.9930  -16.6010    5.7880 C   0  0  2  0  0  0  0  0  0  0  0  0
   -0.8410  -16.9960    7.1510 O   0  0  0  0  0  0  0  0  0  0  0  0
   -0.0060  -17.3640    4.8470 C   0  0  0  0  0  0  0  0  0  0  0  0
   -0.4030  -18.8610    4.8360 C   0  0  0  0  0  0  0  0  0  0  0  0
    1.4370  -17.2890    5.3860 C   0  0  0  0  0  0  0  0  0  0  0  0
   -0.1450  -16.7620    3.4010 C   0  0  2  0  0  0  0  0  0  0  0  0
    0.6720  -17.4770    2.3160 C   0  0  0  0  0  0  0  0  0  0  0  0
    0.4120  -16.8290    0.9570 C   0  0  0  0  0  0  0  0  0  0  0  0
    1.0130  -15.4190    0.9070 C   0  0  1  0  0  0  0  0  0  0  0  0
    0.8400  -14.7120   -0.4630 C   0  0  2  0  0  0  0  0  0  0  0  0
   -0.6430  -14.8040   -0.9410 C   0  0  0  0  0  0  0  0  0  0  0  0
    1.7060  -15.3160   -1.5870 C   0  0  0  0  0  0  0  0  0  0  0  0
    1.9270  -14.1690   -2.5910 C   0  0  2  0  0  0  0  0  0  0  0  0
    3.3080  -14.1440   -2.9330 O   0  0  0  0  0  0  0  0  0  0  0  0
    3.6710  -13.1230   -3.8720 C   0  0  2  0  0  0  0  0  0  0  0  0
    2.7720  -11.8840   -3.8000 C   0  0  0  0  0  0  0  0  0  0  0  0
    2.2940  -11.6340   -2.3600 C   0  0  1  0  0  0  0  0  0  0  0  0
    1.4800  -10.3400   -2.3260 C   0  0  0  0  0  0  0  0  0  0  0  0
    1.4690  -12.8560   -1.8920 C   0  0  2  0  0  0  0  0  0  0  0  0
    1.4140  -13.2470   -0.3730 C   0  0  1  0  0  0  0  0  0  0  0  0
    2.8540  -13.1830    0.2310 C   0  0  0  0  0  0  0  0  0  0  0  0
    3.7140  -13.7480   -5.2900 C   0  0  0  0  0  0  0  0  0  0  0  0
    5.0780  -14.4660   -5.3290 C   0  0  2  0  0  0  0  0  0  0  0  0
    4.9480  -15.7660   -4.7590 O   0  0  0  0  0  0  0  0  0  0  0  0
    5.9760  -13.6200   -4.4730 C   0  0  1  0  0  0  0  0  0  0  0  0
    7.3220  -14.0930   -4.0700 C   0  0  0  0  0  0  0  0  0  0  0  0
    5.8670  -12.1980   -4.6630 O   0  0  0  0  0  0  0  0  0  0  0  0
    5.1190  -12.7830   -3.5870 C   0  0  1  0  0  0  0  0  0  0  0  0
   -1.7167  -10.4960    1.0092 H   0  0  0  0  0  0  0  0  0  0  0  0
   -1.2393   -9.4777   -0.3914 H   0  0  0  0  0  0  0  0  0  0  0  0
   -0.8691  -11.2354   -0.3914 H   0  0  0  0  0  0  0  0  0  0  0  0
   -0.4252  -12.1922   -0.1209 H   0  0  0  0  0  0  0  0  0  0  0  0
    0.1022  -12.5188    2.6251 H   0  0  0  0  0  0  0  0  0  0  0  0
   -1.1190  -13.3948    1.5165 H   0  0  0  0  0  0  0  0  0  0  0  0
    2.3150  -15.2712    3.3165 H   0  0  0  0  0  0  0  0  0  0  0  0
    1.9667  -13.8792    3.9308 H   0  0  0  0  0  0  0  0  0  0  0  0
   -0.7457  -13.4652    4.3170 H   0  0  0  0  0  0  0  0  0  0  0  0
   -1.9618  -14.7459    3.9445 H   0  0  0  0  0  0  0  0  0  0  0  0
    0.1655  -14.8192    6.1333 H   0  0  0  0  0  0  0  0  0  0  0  0
   -1.6268  -14.6295    6.3393 H   0  0  0  0  0  0  0  0  0  0  0  0
   -1.9913  -16.8701    5.4124 H   0  0  0  0  0  0  0  0  0  0  0  0
   -0.5290  -16.2260    7.6530 H   0  0  0  0  0  0  0  0  0  0  0  0
   -0.4989  -19.2225    5.8705 H   0  0  0  0  0  0  0  0  0  0  0  0
   -1.3642  -18.9816    4.3149 H   0  0  0  0  0  0  0  0  0  0  0  0
    0.3721  -19.4421    4.3149 H   0  0  0  0  0  0  0  0  0  0  0  0
    1.4181  -17.2900    6.4858 H   0  0  0  0  0  0  0  0  0  0  0  0
    2.0077  -18.1587    5.0283 H   0  0  0  0  0  0  0  0  0  0  0  0
    1.9145  -16.3648    5.0283 H   0  0  0  0  0  0  0  0  0  0  0  0
   -1.1871  -16.9606    3.1100 H   0  0  0  0  0  0  0  0  0  0  0  0
    1.7427  -17.4020    2.5569 H   0  0  0  0  0  0  0  0  0  0  0  0
    0.3729  -18.5348    2.2758 H   0  0  0  0  0  0  0  0  0  0  0  0
    0.8699  -17.4452    0.1692 H   0  0  0  0  0  0  0  0  0  0  0  0
   -0.6745  -16.7569    0.8007 H   0  0  0  0  0  0  0  0  0  0  0  0
    2.0983  -15.5572    1.0215 H   0  0  0  0  0  0  0  0  0  0  0  0
   -1.3084  -14.8453   -0.0660 H   0  0  0  0  0  0  0  0  0  0  0  0
   -0.8885  -13.9194   -1.5469 H   0  0  0  0  0  0  0  0  0  0  0  0
   -0.7773  -15.7122   -1.5469 H   0  0  0  0  0  0  0  0  0  0  0  0
    2.6680  -15.6674   -1.1856 H   0  0  0  0  0  0  0  0  0  0  0  0
    1.2208  -16.1843   -2.0567 H   0  0  0  0  0  0  0  0  0  0  0  0
    1.3518  -14.2948   -3.5201 H   0  0  0  0  0  0  0  0  0  0  0  0
    3.3383  -11.0077   -4.1484 H   0  0  0  0  0  0  0  0  0  0  0  0
    1.8916  -12.0518   -4.4377 H   0  0  0  0  0  0  0  0  0  0  0  0
    3.1435  -11.5144   -1.6715 H   0  0  0  0  0  0  0  0  0  0  0  0
    1.2971  -10.0492   -1.2810 H   0  0  0  0  0  0  0  0  0  0  0  0
    2.0389   -9.5417   -2.8363 H   0  0  0  0  0  0  0  0  0  0  0  0
    0.5184  -10.4982   -2.8363 H   0  0  0  0  0  0  0  0  0  0  0  0
    0.4733  -12.4756   -2.1636 H   0  0  0  0  0  0  0  0  0  0  0  0
    2.7914  -13.1858    1.3292 H   0  0  0  0  0  0  0  0  0  0  0  0
    3.4319  -14.0563   -0.1055 H   0  0  0  0  0  0  0  0  0  0  0  0
    3.3522  -12.2618   -0.1055 H   0  0  0  0  0  0  0  0  0  0  0  0
    2.8897  -14.4630   -5.4291 H   0  0  0  0  0  0  0  0  0  0  0  0
    3.6013  -13.0012   -6.0897 H   0  0  0  0  0  0  0  0  0  0  0  0
    5.4660  -14.5862   -6.3512 H   0  0  0  0  0  0  0  0  0  0  0  0
    4.3010  -16.2500   -5.3100 H   0  0  0  0  0  0  0  0  0  0  0  0
    7.3889  -14.1165   -2.9723 H   0  0  0  0  0  0  0  0  0  0  0  0
    7.4901  -15.1041   -4.4693 H   0  0  0  0  0  0  0  0  0  0  0  0
    8.0857  -13.4094   -4.4693 H   0  0  0  0  0  0  0  0  0  0  0  0
    5.0216  -12.5202   -2.5233 H   0  0  0  0  0  0  0  0  0  0  0  0
  1  2  1  0
  2  3  2  0
  2  4  1  0
  4  5  1  0
  5  6  1  0
  7  6  1  6
  7  8  1  0
  9  8  1  1
  9 10  1  0
 10 11  1  0
 11 12  1  0
 12 13  1  0
 12 14  1  0
 14 15  1  0
 14 16  1  0
 14 17  1  0
 17 18  1  0
 18 19  1  0
 19 20  1  0
 20 21  1  0
 21 22  1  6
 21 23  1  0
 23 24  1  0
 24 25  1  0
 26 25  1  1
 26 27  1  0
 27 28  1  0
 28 29  1  0
 28 30  1  0
 30 31  1  0
 31 32  1  1
 26 33  1  0
 33 34  1  0
 34 35  1  0
 34 36  1  0
 36 37  1  1
 36 38  1  0
 38 39  1  0
 31  5  1  0
 39 36  1  0
  9  7  1  0
 31 21  1  0
 20  7  1  0
 30 24  1  0
 17  9  1  0
 39 26  1  0
  1 40  1  0
  1 41  1  0
  1 42  1  0
  5 43  1  6
  6 44  1  0
  6 45  1  0
  8 46  1  0
  8 47  1  0
 10 48  1  0
 10 49  1  0
 11 50  1  0
 11 51  1  0
 12 52  1  6
 13 53  1  0
 15 54  1  0
 15 55  1  0
 15 56  1  0
 16 57  1  0
 16 58  1  0
 16 59  1  0
 17 60  1  6
 18 61  1  0
 18 62  1  0
 19 63  1  0
 19 64  1  0
 20 65  1  1
 22 66  1  0
 22 67  1  0
 22 68  1  0
 23 69  1  0
 23 70  1  0
 24 71  1  6
 27 72  1  0
 27 73  1  0
 28 74  1  1
 29 75  1  0
 29 76  1  0
 29 77  1  0
 30 78  1  6
 32 79  1  0
 32 80  1  0
 32 81  1  0
 33 82  1  0
 33 83  1  0
 34 84  1  6
 35 85  1  0
 37 86  1  0
 37 87  1  0
 37 88  1  0
 39 89  1  1
M  END
>  <meeko>  (5) 
{"is_sidechain": [false], "free_energy": -8.125, "intermolecular_energy": -9.786, "internal_energy": -0.359}

$$$$
LIB_TZZWHMBWMXOBCM__M_PUB_ALL__e8__s20260927
     RDKit          3D

 89 96  0  0  0  0  0  0  0  0999 V2000
    6.6700  -11.8720    1.2770 C   0  0  0  0  0  0  0  0  0  0  0  0
    6.5660  -11.6550   -0.2010 C   0  0  0  0  0  0  0  0  0  0  0  0
    6.8280  -10.6040   -0.7670 O   0  0  0  0  0  0  0  0  0  0  0  0
    6.1410  -12.7970   -0.8080 O   0  0  0  0  0  0  0  0  0  0  0  0
    5.0270  -12.6630   -1.7230 C   0  0  2  0  0  0  0  0  0  0  0  0
    3.7070  -12.5830   -0.9090 C   0  0  0  0  0  0  0  0  0  0  0  0
    2.6830  -13.7190   -1.0570 C   0  0  1  0  0  0  0  0  0  0  0  0
    2.4980  -14.6430    0.1380 C   0  0  0  0  0  0  0  0  0  0  0  0
    1.4080  -13.6480   -0.1660 C   0  0  1  0  0  0  0  0  0  0  0  0
    1.2280  -12.5200    0.8390 C   0  0  0  0  0  0  0  0  0  0  0  0
    0.2850  -12.9430    1.9590 C   0  0  0  0  0  0  0  0  0  0  0  0
   -1.0650  -13.4140    1.4170 C   0  0  2  0  0  0  0  0  0  0  0  0
   -1.8570  -13.8060    2.5380 O   0  0  0  0  0  0  0  0  0  0  0  0
   -0.9420  -14.5590    0.3620 C   0  0  0  0  0  0  0  0  0  0  0  0
   -2.3420  -14.8080   -0.2530 C   0  0  0  0  0  0  0  0  0  0  0  0
   -0.5090  -15.8800    1.0300 C   0  0  0  0  0  0  0  0  0  0  0  0
    0.0580  -14.0890   -0.7570 C   0  0  2  0  0  0  0  0  0  0  0  0
    0.2080  -15.0510   -1.9440 C   0  0  0  0  0  0  0  0  0  0  0  0
    1.1640  -14.4570   -2.9760 C   0  0  0  0  0  0  0  0  0  0  0  0
    2.5980  -14.4270   -2.4300 C   0  0  1  0  0  0  0  0  0  0  0  0
    3.6430  -13.8870   -3.4430 C   0  0  2  0  0  0  0  0  0  0  0  0
    3.1550  -12.5420   -4.0660 C   0  0  0  0  0  0  0  0  0  0  0  0
    3.9200  -14.8450   -4.6190 C   0  0  0  0  0  0  0  0  0  0  0  0
    5.3480  -14.5110   -5.0890 C   0  0  2  0  0  0  0  0  0  0  0  0
    6.0540  -15.7350   -5.2560 O   0  0  0  0  0  0  0  0  0  0  0  0
    7.4090  -15.5850   -5.6990 C   0  0  2  0  0  0  0  0  0  0  0  0
    8.0510  -14.2660   -5.2560 C   0  0  0  0  0  0  0  0  0  0  0  0
    7.5140  -13.8270   -3.8830 C   0  0  1  0  0  0  0  0  0  0  0  0
    8.2510  -12.5610   -3.4450 C   0  0  0  0  0  0  0  0  0  0  0  0
    5.9880  -13.6060   -3.9960 C   0  0  2  0  0  0  0  0  0  0  0  0
    5.0560  -13.8190   -2.7490 C   0  0  1  0  0  0  0  0  0  0  0  0
    5.4550  -15.1450   -2.0250 C   0  0  0  0  0  0  0  0  0  0  0  0
    7.4510  -15.7830   -7.2360 C   0  0  0  0  0  0  0  0  0  0  0  0
    7.4160  -17.3150   -7.4070 C   0  0  2  0  0  0  0  0  0  0  0  0
    6.0640  -17.7650   -7.3850 O   0  0  0  0  0  0  0  0  0  0  0  0
    8.1510  -17.8460   -6.2090 C   0  0  1  0  0  0  0  0  0  0  0  0
    8.1420  -19.2920   -5.8820 C   0  0  0  0  0  0  0  0  0  0  0  0
    9.3630  -17.1540   -5.8590 O   0  0  0  0  0  0  0  0  0  0  0  0
    8.1630  -16.7840   -5.1640 C   0  0  1  0  0  0  0  0  0  0  0  0
    6.2531  -11.0021    1.8056 H   0  0  0  0  0  0  0  0  0  0  0  0
    6.1067  -12.7748    1.5556 H   0  0  0  0  0  0  0  0  0  0  0  0
    7.7266  -11.9985    1.5556 H   0  0  0  0  0  0  0  0  0  0  0  0
    5.1000  -11.7320   -2.3043 H   0  0  0  0  0  0  0  0  0  0  0  0
    3.9841  -12.5324    0.1543 H   0  0  0  0  0  0  0  0  0  0  0  0
    3.1917  -11.7017   -1.3186 H   0  0  0  0  0  0  0  0  0  0  0  0
    2.3175  -15.7157   -0.0256 H   0  0  0  0  0  0  0  0  0  0  0  0
    3.0995  -14.8726    1.0299 H   0  0  0  0  0  0  0  0  0  0  0  0
    2.2064  -12.2601    1.2694 H   0  0  0  0  0  0  0  0  0  0  0  0
    0.7959  -11.6506    0.3218 H   0  0  0  0  0  0  0  0  0  0  0  0
    0.7487  -13.7655    2.5233 H   0  0  0  0  0  0  0  0  0  0  0  0
    0.1085  -12.0705    2.6052 H   0  0  0  0  0  0  0  0  0  0  0  0
   -1.5446  -12.5891    0.8697 H   0  0  0  0  0  0  0  0  0  0  0  0
   -2.7460  -14.0260    2.2160 H   0  0  0  0  0  0  0  0  0  0  0  0
   -3.0787  -14.9390    0.5533 H   0  0  0  0  0  0  0  0  0  0  0  0
   -2.6280  -13.9466   -0.8745 H   0  0  0  0  0  0  0  0  0  0  0  0
   -2.3134  -15.7152   -0.8745 H   0  0  0  0  0  0  0  0  0  0  0  0
   -0.5460  -15.7672    2.1236 H   0  0  0  0  0  0  0  0  0  0  0  0
   -1.1896  -16.6872    0.7214 H   0  0  0  0  0  0  0  0  0  0  0  0
    0.5174  -16.1277    0.7214 H   0  0  0  0  0  0  0  0  0  0  0  0
   -0.4134  -13.2018   -1.2050 H   0  0  0  0  0  0  0  0  0  0  0  0
    0.6076  -16.0116   -1.5869 H   0  0  0  0  0  0  0  0  0  0  0  0
   -0.7761  -15.2081   -2.4098 H   0  0  0  0  0  0  0  0  0  0  0  0
    1.1375  -15.0706   -3.8886 H   0  0  0  0  0  0  0  0  0  0  0  0
    0.8484  -13.4274   -3.2003 H   0  0  0  0  0  0  0  0  0  0  0  0
    2.8742  -15.4794   -2.2681 H   0  0  0  0  0  0  0  0  0  0  0  0
    2.8991  -11.8368   -3.2615 H   0  0  0  0  0  0  0  0  0  0  0  0
    3.9552  -12.1142   -4.6878 H   0  0  0  0  0  0  0  0  0  0  0  0
    2.2667  -12.7269   -4.6878 H   0  0  0  0  0  0  0  0  0  0  0  0
    3.8592  -15.8915   -4.2857 H   0  0  0  0  0  0  0  0  0  0  0  0
    3.1839  -14.7246   -5.4275 H   0  0  0  0  0  0  0  0  0  0  0  0
    5.3695  -13.9758   -6.0498 H   0  0  0  0  0  0  0  0  0  0  0  0
    9.1408  -14.4003   -5.1901 H   0  0  0  0  0  0  0  0  0  0  0  0
    7.8031  -13.4894   -5.9946 H   0  0  0  0  0  0  0  0  0  0  0  0
    7.6894  -14.5984   -3.1187 H   0  0  0  0  0  0  0  0  0  0  0  0
    8.2783  -12.5142   -2.3463 H   0  0  0  0  0  0  0  0  0  0  0  0
    9.2787  -12.5809   -3.8368 H   0  0  0  0  0  0  0  0  0  0  0  0
    7.7263  -11.6772   -3.8368 H   0  0  0  0  0  0  0  0  0  0  0  0
    6.0097  -12.5258   -4.2027 H   0  0  0  0  0  0  0  0  0  0  0  0
    5.4102  -14.9960   -0.9361 H   0  0  0  0  0  0  0  0  0  0  0  0
    4.7578  -15.9450   -2.3146 H   0  0  0  0  0  0  0  0  0  0  0  0
    6.4779  -15.4274   -2.3146 H   0  0  0  0  0  0  0  0  0  0  0  0
    6.5792  -15.3145   -7.7160 H   0  0  0  0  0  0  0  0  0  0  0  0
    8.3343  -15.3217   -7.7017 H   0  0  0  0  0  0  0  0  0  0  0  0
    7.8642  -17.6478   -8.3548 H   0  0  0  0  0  0  0  0  0  0  0  0
    5.5280  -17.0240   -7.0380 H   0  0  0  0  0  0  0  0  0  0  0  0
    8.1412  -19.4209   -4.7896 H   0  0  0  0  0  0  0  0  0  0  0  0
    7.2409  -19.7584   -6.3069 H   0  0  0  0  0  0  0  0  0  0  0  0
    9.0372  -19.7696   -6.3069 H   0  0  0  0  0  0  0  0  0  0  0  0
    7.9338  -16.6599   -4.0953 H   0  0  0  0  0  0  0  0  0  0  0  0
  1  2  1  0
  2  3  2  0
  2  4  1  0
  4  5  1  0
  5  6  1  0
  7  6  1  1
  7  8  1  0
  9  8  1  1
  9 10  1  0
 10 11  1  0
 11 12  1  0
 12 13  1  0
 12 14  1  0
 14 15  1  0
 14 16  1  0
 14 17  1  0
 17 18  1  0
 18 19  1  0
 19 20  1  0
 20 21  1  0
 21 22  1  6
 21 23  1  0
 23 24  1  0
 24 25  1  0
 26 25  1  1
 26 27  1  0
 27 28  1  0
 28 29  1  0
 28 30  1  0
 30 31  1  0
 31 32  1  1
 26 33  1  0
 33 34  1  0
 34 35  1  0
 34 36  1  0
 36 37  1  1
 36 38  1  0
 38 39  1  0
 31  5  1  0
 39 36  1  0
  9  7  1  0
 31 21  1  0
 20  7  1  0
 30 24  1  0
 17  9  1  0
 39 26  1  0
  1 40  1  0
  1 41  1  0
  1 42  1  0
  5 43  1  6
  6 44  1  0
  6 45  1  0
  8 46  1  0
  8 47  1  0
 10 48  1  0
 10 49  1  0
 11 50  1  0
 11 51  1  0
 12 52  1  6
 13 53  1  0
 15 54  1  0
 15 55  1  0
 15 56  1  0
 16 57  1  0
 16 58  1  0
 16 59  1  0
 17 60  1  6
 18 61  1  0
 18 62  1  0
 19 63  1  0
 19 64  1  0
 20 65  1  1
 22 66  1  0
 22 67  1  0
 22 68  1  0
 23 69  1  0
 23 70  1  0
 24 71  1  6
 27 72  1  0
 27 73  1  0
 28 74  1  1
 29 75  1  0
 29 76  1  0
 29 77  1  0
 30 78  1  6
 32 79  1  0
 32 80  1  0
 32 81  1  0
 33 82  1  0
 33 83  1  0
 34 84  1  6
 35 85  1  0
 37 86  1  0
 37 87  1  0
 37 88  1  0
 39 89  1  1
M  END
>  <meeko>  (6) 
{"is_sidechain": [false], "free_energy": -8.009, "intermolecular_energy": -9.469, "internal_energy": -0.54}

$$$$
LIB_TZZWHMBWMXOBCM__M_PUB_ALL__e8__s20260927
     RDKit          3D

 89 96  0  0  0  0  0  0  0  0999 V2000
    2.2420  -18.5570    1.4810 C   0  0  0  0  0  0  0  0  0  0  0  0
    1.9920  -17.6600    0.3090 C   0  0  0  0  0  0  0  0  0  0  0  0
    1.5200  -18.0280   -0.7570 O   0  0  0  0  0  0  0  0  0  0  0  0
    2.3670  -16.3860    0.6110 O   0  0  0  0  0  0  0  0  0  0  0  0
    2.5940  -15.4990   -0.5100 C   0  0  2  0  0  0  0  0  0  0  0  0
    4.0950  -15.5510   -0.9050 C   0  0  0  0  0  0  0  0  0  0  0  0
    4.9440  -14.2820   -0.7320 C   0  0  1  0  0  0  0  0  0  0  0  0
    5.9940  -14.2980    0.3690 C   0  0  0  0  0  0  0  0  0  0  0  0
    6.4620  -14.3920   -1.0600 C   0  0  1  0  0  0  0  0  0  0  0  0
    7.0680  -15.7220   -1.4840 C   0  0  0  0  0  0  0  0  0  0  0  0
    8.5610  -15.7530   -1.1800 C   0  0  0  0  0  0  0  0  0  0  0  0
    9.2980  -14.5830   -1.8330 C   0  0  2  0  0  0  0  0  0  0  0  0
   10.6740  -14.6950   -1.4680 O   0  0  0  0  0  0  0  0  0  0  0  0
    8.7060  -13.1890   -1.4510 C   0  0  0  0  0  0  0  0  0  0  0  0
    9.3990  -12.1110   -2.3200 C   0  0  0  0  0  0  0  0  0  0  0  0
    9.0150  -12.8430    0.0200 C   0  0  0  0  0  0  0  0  0  0  0  0
    7.1640  -13.2130   -1.7560 C   0  0  2  0  0  0  0  0  0  0  0  0
    6.4370  -11.8760   -1.5500 C   0  0  0  0  0  0  0  0  0  0  0  0
    4.9640  -12.0220   -1.9250 C   0  0  0  0  0  0  0  0  0  0  0  0
    4.2350  -12.9200   -0.9170 C   0  0  1  0  0  0  0  0  0  0  0  0
    2.7160  -13.0730   -1.1980 C   0  0  2  0  0  0  0  0  0  0  0  0
    2.4730  -13.4430   -2.6940 C   0  0  0  0  0  0  0  0  0  0  0  0
    1.9010  -11.7940   -0.9200 C   0  0  0  0  0  0  0  0  0  0  0  0
    0.4770  -12.2810   -0.5970 C   0  0  2  0  0  0  0  0  0  0  0  0
    0.0300  -11.5950    0.5670 O   0  0  0  0  0  0  0  0  0  0  0  0
   -1.2950  -11.9430    0.9910 C   0  0  2  0  0  0  0  0  0  0  0  0
   -1.6960  -13.3740    0.6190 C   0  0  0  0  0  0  0  0  0  0  0  0
   -0.4790  -14.3140    0.6550 C   0  0  1  0  0  0  0  0  0  0  0  0
   -0.9470  -15.7410    0.3690 C   0  0  0  0  0  0  0  0  0  0  0  0
    0.5590  -13.8200   -0.3790 C   0  0  2  0  0  0  0  0  0  0  0  0
    2.0920  -14.0790   -0.1590 C   0  0  1  0  0  0  0  0  0  0  0  0
    2.4640  -13.7500    1.3230 C   0  0  0  0  0  0  0  0  0  0  0  0
   -2.2840  -10.8830    0.4410 C   0  0  0  0  0  0  0  0  0  0  0  0
   -2.1300   -9.7000    1.4180 C   0  0  2  0  0  0  0  0  0  0  0  0
   -1.0320   -8.8870    1.0110 O   0  0  0  0  0  0  0  0  0  0  0  0
   -1.8280  -10.3400    2.7430 C   0  0  1  0  0  0  0  0  0  0  0  0
   -1.3860   -9.5310    3.9040 C   0  0  0  0  0  0  0  0  0  0  0  0
   -2.6190  -11.4950    3.0770 O   0  0  0  0  0  0  0  0  0  0  0  0
   -1.3300  -11.7210    2.4880 C   0  0  1  0  0  0  0  0  0  0  0  0
    2.0852  -17.9945    2.4132 H   0  0  0  0  0  0  0  0  0  0  0  0
    1.5471  -19.4089    1.4455 H   0  0  0  0  0  0  0  0  0  0  0  0
    3.2774  -18.9267    1.4455 H   0  0  0  0  0  0  0  0  0  0  0  0
    2.0211  -15.8201   -1.3924 H   0  0  0  0  0  0  0  0  0  0  0  0
    4.5632  -16.3399   -0.2980 H   0  0  0  0  0  0  0  0  0  0  0  0
    4.0813  -15.7192   -1.9920 H   0  0  0  0  0  0  0  0  0  0  0  0
    6.1906  -13.3833    0.9475 H   0  0  0  0  0  0  0  0  0  0  0  0
    6.1516  -14.9103    1.2691 H   0  0  0  0  0  0  0  0  0  0  0  0
    6.5708  -16.5365   -0.9369 H   0  0  0  0  0  0  0  0  0  0  0  0
    6.9242  -15.8477   -2.5673 H   0  0  0  0  0  0  0  0  0  0  0  0
    8.7037  -15.7002   -0.0906 H   0  0  0  0  0  0  0  0  0  0  0  0
    8.9736  -16.6875   -1.5880 H   0  0  0  0  0  0  0  0  0  0  0  0
    9.1772  -14.6406   -2.9248 H   0  0  0  0  0  0  0  0  0  0  0  0
   10.9970  -13.8070   -1.2420 H   0  0  0  0  0  0  0  0  0  0  0  0
    9.8779  -11.3661   -1.6674 H   0  0  0  0  0  0  0  0  0  0  0  0
   10.1612  -12.5862   -2.9550 H   0  0  0  0  0  0  0  0  0  0  0  0
    8.6502  -11.6148   -2.9550 H   0  0  0  0  0  0  0  0  0  0  0  0
    8.4296  -13.4985    0.6816 H   0  0  0  0  0  0  0  0  0  0  0  0
   10.0878  -12.9901    0.2137 H   0  0  0  0  0  0  0  0  0  0  0  0
    8.7480  -11.7936    0.2137 H   0  0  0  0  0  0  0  0  0  0  0  0
    7.0928  -13.3792   -2.8410 H   0  0  0  0  0  0  0  0  0  0  0  0
    6.5167  -11.5764   -0.4946 H   0  0  0  0  0  0  0  0  0  0  0  0
    6.8994  -11.1101   -2.1900 H   0  0  0  0  0  0  0  0  0  0  0  0
    4.4924  -11.0282   -1.9305 H   0  0  0  0  0  0  0  0  0  0  0  0
    4.8965  -12.4816   -2.9221 H   0  0  0  0  0  0  0  0  0  0  0  0
    4.2953  -12.3919    0.0461 H   0  0  0  0  0  0  0  0  0  0  0  0
    1.8700  -14.3612   -2.7513 H   0  0  0  0  0  0  0  0  0  0  0  0
    1.9381  -12.6213   -3.1927 H   0  0  0  0  0  0  0  0  0  0  0  0
    3.4396  -13.6074   -3.1927 H   0  0  0  0  0  0  0  0  0  0  0  0
    2.3239  -11.2461   -0.0650 H   0  0  0  0  0  0  0  0  0  0  0  0
    1.9139  -11.1054   -1.7777 H   0  0  0  0  0  0  0  0  0  0  0  0
   -0.2401  -12.0754   -1.4053 H   0  0  0  0  0  0  0  0  0  0  0  0
   -2.4499  -13.7339    1.3346 H   0  0  0  0  0  0  0  0  0  0  0  0
   -2.1053  -13.3693   -0.4020 H   0  0  0  0  0  0  0  0  0  0  0  0
    0.0006  -14.3108    1.6449 H   0  0  0  0  0  0  0  0  0  0  0  0
   -1.1197  -16.2676    1.3192 H   0  0  0  0  0  0  0  0  0  0  0  0
   -1.8824  -15.7112   -0.2090 H   0  0  0  0  0  0  0  0  0  0  0  0
   -0.1756  -16.2710   -0.2090 H   0  0  0  0  0  0  0  0  0  0  0  0
    0.2418  -14.4541   -1.2200 H   0  0  0  0  0  0  0  0  0  0  0  0
    1.8147  -14.3243    2.0002 H   0  0  0  0  0  0  0  0  0  0  0  0
    3.5146  -14.0199    1.5059 H   0  0  0  0  0  0  0  0  0  0  0  0
    2.3246  -12.6743    1.5059 H   0  0  0  0  0  0  0  0  0  0  0  0
   -2.0112  -10.5852   -0.5822 H   0  0  0  0  0  0  0  0  0  0  0  0
   -3.3176  -11.2545    0.3800 H   0  0  0  0  0  0  0  0  0  0  0  0
   -3.0243   -9.0607    1.4560 H   0  0  0  0  0  0  0  0  0  0  0  0
   -0.7590   -9.2070    0.1280 H   0  0  0  0  0  0  0  0  0  0  0  0
   -1.6661  -10.0437    4.8361 H   0  0  0  0  0  0  0  0  0  0  0  0
   -0.2938   -9.4052    3.8687 H   0  0  0  0  0  0  0  0  0  0  0  0
   -1.8702   -8.5439    3.8687 H   0  0  0  0  0  0  0  0  0  0  0  0
   -0.4900  -12.3723    2.7710 H   0  0  0  0  0  0  0  0  0  0  0  0
  1  2  1  0
  2  3  2  0
  2  4  1  0
  4  5  1  0
  5  6  1  0
  7  6  1  1
  7  8  1  0
  9  8  1  1
  9 10  1  0
 10 11  1  0
 11 12  1  0
 12 13  1  0
 12 14  1  0
 14 15  1  0
 14 16  1  0
 14 17  1  0
 17 18  1  0
 18 19  1  0
 19 20  1  0
 20 21  1  0
 21 22  1  6
 21 23  1  0
 23 24  1  0
 24 25  1  0
 26 25  1  6
 26 27  1  0
 27 28  1  0
 28 29  1  0
 28 30  1  0
 30 31  1  0
 31 32  1  1
 26 33  1  0
 33 34  1  0
 34 35  1  0
 34 36  1  0
 36 37  1  1
 36 38  1  0
 38 39  1  0
 31  5  1  0
 39 36  1  0
  9  7  1  0
 31 21  1  0
 20  7  1  0
 30 24  1  0
 17  9  1  0
 39 26  1  0
  1 40  1  0
  1 41  1  0
  1 42  1  0
  5 43  1  6
  6 44  1  0
  6 45  1  0
  8 46  1  0
  8 47  1  0
 10 48  1  0
 10 49  1  0
 11 50  1  0
 11 51  1  0
 12 52  1  6
 13 53  1  0
 15 54  1  0
 15 55  1  0
 15 56  1  0
 16 57  1  0
 16 58  1  0
 16 59  1  0
 17 60  1  6
 18 61  1  0
 18 62  1  0
 19 63  1  0
 19 64  1  0
 20 65  1  1
 22 66  1  0
 22 67  1  0
 22 68  1  0
 23 69  1  0
 23 70  1  0
 24 71  1  6
 27 72  1  0
 27 73  1  0
 28 74  1  1
 29 75  1  0
 29 76  1  0
 29 77  1  0
 30 78  1  6
 32 79  1  0
 32 80  1  0
 32 81  1  0
 33 82  1  0
 33 83  1  0
 34 84  1  1
 35 85  1  0
 37 86  1  0
 37 87  1  0
 37 88  1  0
 39 89  1  1
M  END
>  <meeko>  (7) 
{"is_sidechain": [false], "free_energy": -7.96, "intermolecular_energy": -9.466, "internal_energy": -0.486}

$$$$
LIB_TZZWHMBWMXOBCM__M_PUB_ALL__e8__s20260927
     RDKit          3D

 89 96  0  0  0  0  0  0  0  0999 V2000
    6.0130  -13.3260   -7.7360 C   0  0  0  0  0  0  0  0  0  0  0  0
    5.2580  -12.5190   -6.7260 C   0  0  0  0  0  0  0  0  0  0  0  0
    4.7500  -11.4300   -6.9490 O   0  0  0  0  0  0  0  0  0  0  0  0
    5.2260  -13.1790   -5.5350 O   0  0  0  0  0  0  0  0  0  0  0  0
    6.0250  -12.6170   -4.4670 C   0  0  2  0  0  0  0  0  0  0  0  0
    7.5040  -13.0500   -4.6570 C   0  0  0  0  0  0  0  0  0  0  0  0
    8.1430  -13.9660   -3.6010 C   0  0  1  0  0  0  0  0  0  0  0  0
    8.4430  -15.3980   -4.0190 C   0  0  0  0  0  0  0  0  0  0  0  0
    9.6000  -14.4470   -3.8640 C   0  0  1  0  0  0  0  0  0  0  0  0
   10.3250  -14.0550   -5.1430 C   0  0  0  0  0  0  0  0  0  0  0  0
   11.4250  -15.0590   -5.4660 C   0  0  0  0  0  0  0  0  0  0  0  0
   12.4080  -15.2180   -4.3060 C   0  0  2  0  0  0  0  0  0  0  0  0
   13.3750  -16.1900   -4.7020 O   0  0  0  0  0  0  0  0  0  0  0  0
   11.7180  -15.5990   -2.9580 C   0  0  0  0  0  0  0  0  0  0  0  0
   12.7790  -15.5340   -1.8310 C   0  0  0  0  0  0  0  0  0  0  0  0
   11.1980  -17.0500   -2.9960 C   0  0  0  0  0  0  0  0  0  0  0  0
   10.5770  -14.5530   -2.6800 C   0  0  2  0  0  0  0  0  0  0  0  0
    9.8660  -14.7070   -1.3280 C   0  0  0  0  0  0  0  0  0  0  0  0
    8.8200  -13.6070   -1.1620 C   0  0  0  0  0  0  0  0  0  0  0  0
    7.6560  -13.8160   -2.1400 C   0  0  1  0  0  0  0  0  0  0  0  0
    6.5210  -12.7680   -1.9960 C   0  0  2  0  0  0  0  0  0  0  0  0
    7.1100  -11.3230   -1.9850 C   0  0  0  0  0  0  0  0  0  0  0  0
    5.6960  -12.9200   -0.7020 C   0  0  0  0  0  0  0  0  0  0  0  0
    4.3150  -12.3220   -1.0270 C   0  0  2  0  0  0  0  0  0  0  0  0
    3.3220  -13.2270   -0.5560 O   0  0  0  0  0  0  0  0  0  0  0  0
    1.9730  -12.8020   -0.7850 C   0  0  2  0  0  0  0  0  0  0  0  0
    1.8170  -11.9090   -2.0200 C   0  0  0  0  0  0  0  0  0  0  0  0
    2.8170  -12.3110   -3.1180 C   0  0  1  0  0  0  0  0  0  0  0  0
    2.5600  -11.4560   -4.3590 C   0  0  0  0  0  0  0  0  0  0  0  0
    4.2520  -12.1300   -2.5700 C   0  0  2  0  0  0  0  0  0  0  0  0
    5.4270  -13.0270   -3.1010 C   0  0  1  0  0  0  0  0  0  0  0  0
    4.9540  -14.5150   -3.1670 C   0  0  0  0  0  0  0  0  0  0  0  0
    1.4400  -12.1300    0.5080 C   0  0  0  0  0  0  0  0  0  0  0  0
    1.0610  -13.3220    1.4080 C   0  0  2  0  0  0  0  0  0  0  0  0
    2.2150  -13.7700    2.1160 O   0  0  0  0  0  0  0  0  0  0  0  0
    0.6020  -14.3870    0.4530 C   0  0  1  0  0  0  0  0  0  0  0  0
    0.3640  -15.7770    0.9100 C   0  0  0  0  0  0  0  0  0  0  0  0
   -0.2570  -13.9450   -0.6130 O   0  0  0  0  0  0  0  0  0  0  0  0
    1.1450  -14.0650   -0.8960 C   0  0  1  0  0  0  0  0  0  0  0  0
    6.6759  -14.0346   -7.2178 H   0  0  0  0  0  0  0  0  0  0  0  0
    5.3031  -13.8818   -8.3661 H   0  0  0  0  0  0  0  0  0  0  0  0
    6.6148  -12.6546   -8.3661 H   0  0  0  0  0  0  0  0  0  0  0  0
    6.0087  -11.5175   -4.4942 H   0  0  0  0  0  0  0  0  0  0  0  0
    7.5672  -13.5741   -5.6221 H   0  0  0  0  0  0  0  0  0  0  0  0
    8.0712  -12.1110   -4.5766 H   0  0  0  0  0  0  0  0  0  0  0  0
    8.3095  -16.2159   -3.2957 H   0  0  0  0  0  0  0  0  0  0  0  0
    8.0896  -16.0492   -4.8321 H   0  0  0  0  0  0  0  0  0  0  0  0
    9.6042  -14.0290   -5.9735 H   0  0  0  0  0  0  0  0  0  0  0  0
   10.7802  -13.0635   -5.0026 H   0  0  0  0  0  0  0  0  0  0  0  0
   10.9647  -16.0351   -5.6788 H   0  0  0  0  0  0  0  0  0  0  0  0
   11.9827  -14.6860   -6.3377 H   0  0  0  0  0  0  0  0  0  0  0  0
   12.8883  -14.2497   -4.1020 H   0  0  0  0  0  0  0  0  0  0  0  0
   13.1820  -17.0160   -4.2280 H   0  0  0  0  0  0  0  0  0  0  0  0
   12.2771  -15.5647   -0.8527 H   0  0  0  0  0  0  0  0  0  0  0  0
   13.4616  -16.3920   -1.9201 H   0  0  0  0  0  0  0  0  0  0  0  0
   13.3517  -14.5991   -1.9201 H   0  0  0  0  0  0  0  0  0  0  0  0
   11.0657  -17.4191   -1.9683 H   0  0  0  0  0  0  0  0  0  0  0  0
   10.2332  -17.0800   -3.5234 H   0  0  0  0  0  0  0  0  0  0  0  0
   11.9241  -17.6860   -3.5234 H   0  0  0  0  0  0  0  0  0  0  0  0
   11.0940  -13.5864   -2.5889 H   0  0  0  0  0  0  0  0  0  0  0  0
    9.3723  -15.6891   -1.2854 H   0  0  0  0  0  0  0  0  0  0  0  0
   10.6065  -14.6274   -0.5185 H   0  0  0  0  0  0  0  0  0  0  0  0
    8.4347  -13.6271   -0.1319 H   0  0  0  0  0  0  0  0  0  0  0  0
    9.2906  -12.6355   -1.3735 H   0  0  0  0  0  0  0  0  0  0  0  0
    7.1980  -14.7740   -1.8530 H   0  0  0  0  0  0  0  0  0  0  0  0
    7.2456  -10.9902   -0.9453 H   0  0  0  0  0  0  0  0  0  0  0  0
    8.0815  -11.3191   -2.5009 H   0  0  0  0  0  0  0  0  0  0  0  0
    6.4181  -10.6411   -2.5009 H   0  0  0  0  0  0  0  0  0  0  0  0
    5.6014  -13.9811   -0.4280 H   0  0  0  0  0  0  0  0  0  0  0  0
    6.1723  -12.4122    0.1496 H   0  0  0  0  0  0  0  0  0  0  0  0
    4.1434  -11.3499   -0.5417 H   0  0  0  0  0  0  0  0  0  0  0  0
    0.7936  -12.0099   -2.4105 H   0  0  0  0  0  0  0  0  0  0  0  0
    2.0158  -10.8673   -1.7279 H   0  0  0  0  0  0  0  0  0  0  0  0
    2.6936  -13.3654   -3.4061 H   0  0  0  0  0  0  0  0  0  0  0  0
    2.2560  -10.4447   -4.0510 H   0  0  0  0  0  0  0  0  0  0  0  0
    3.4797  -11.3955   -4.9595 H   0  0  0  0  0  0  0  0  0  0  0  0
    1.7594  -11.9126   -4.9595 H   0  0  0  0  0  0  0  0  0  0  0  0
    4.4268  -11.1110   -2.9457 H   0  0  0  0  0  0  0  0  0  0  0  0
    4.8298  -14.9059   -2.1463 H   0  0  0  0  0  0  0  0  0  0  0  0
    3.9937  -14.5712   -3.7006 H   0  0  0  0  0  0  0  0  0  0  0  0
    5.7056  -15.1153   -3.7006 H   0  0  0  0  0  0  0  0  0  0  0  0
    2.2195  -11.5140    0.9801 H   0  0  0  0  0  0  0  0  0  0  0  0
    0.5946  -11.4519    0.3193 H   0  0  0  0  0  0  0  0  0  0  0  0
    0.2912  -13.0658    2.1508 H   0  0  0  0  0  0  0  0  0  0  0  0
    2.9620  -13.7310    1.4860 H   0  0  0  0  0  0  0  0  0  0  0  0
    0.3591  -15.8057    2.0096 H   0  0  0  0  0  0  0  0  0  0  0  0
   -0.6071  -16.1268    0.5297 H   0  0  0  0  0  0  0  0  0  0  0  0
    1.1634  -16.4299    0.5297 H   0  0  0  0  0  0  0  0  0  0  0  0
    1.6970  -14.5523   -1.7132 H   0  0  0  0  0  0  0  0  0  0  0  0
  1  2  1  0
  2  3  2  0
  2  4  1  0
  4  5  1  0
  5  6  1  0
  7  6  1  6
  7  8  1  0
  9  8  1  6
  9 10  1  0
 10 11  1  0
 11 12  1  0
 12 13  1  0
 12 14  1  0
 14 15  1  0
 14 16  1  0
 14 17  1  0
 17 18  1  0
 18 19  1  0
 19 20  1  0
 20 21  1  0
 21 22  1  6
 21 23  1  0
 23 24  1  0
 24 25  1  0
 26 25  1  1
 26 27  1  0
 27 28  1  0
 28 29  1  0
 28 30  1  0
 30 31  1  0
 31 32  1  6
 26 33  1  0
 33 34  1  0
 34 35  1  0
 34 36  1  0
 36 37  1  1
 36 38  1  0
 38 39  1  0
 31  5  1  0
 39 36  1  0
  9  7  1  0
 31 21  1  0
 20  7  1  0
 30 24  1  0
 17  9  1  0
 39 26  1  0
  1 40  1  0
  1 41  1  0
  1 42  1  0
  5 43  1  6
  6 44  1  0
  6 45  1  0
  8 46  1  0
  8 47  1  0
 10 48  1  0
 10 49  1  0
 11 50  1  0
 11 51  1  0
 12 52  1  1
 13 53  1  0
 15 54  1  0
 15 55  1  0
 15 56  1  0
 16 57  1  0
 16 58  1  0
 16 59  1  0
 17 60  1  1
 18 61  1  0
 18 62  1  0
 19 63  1  0
 19 64  1  0
 20 65  1  1
 22 66  1  0
 22 67  1  0
 22 68  1  0
 23 69  1  0
 23 70  1  0
 24 71  1  1
 27 72  1  0
 27 73  1  0
 28 74  1  6
 29 75  1  0
 29 76  1  0
 29 77  1  0
 30 78  1  1
 32 79  1  0
 32 80  1  0
 32 81  1  0
 33 82  1  0
 33 83  1  0
 34 84  1  1
 35 85  1  0
 37 86  1  0
 37 87  1  0
 37 88  1  0
 39 89  1  6
M  END
>  <meeko>  (8) 
{"is_sidechain": [false], "free_energy": -7.952, "intermolecular_energy": -9.56, "internal_energy": -0.382}

$$$$
LIB_TZZWHMBWMXOBCM__M_PUB_ALL__e8__s20260927
     RDKit          3D

 89 96  0  0  0  0  0  0  0  0999 V2000
   -2.3480  -12.9260    0.4750 C   0  0  0  0  0  0  0  0  0  0  0  0
   -2.4370  -14.2230   -0.2690 C   0  0  0  0  0  0  0  0  0  0  0  0
   -3.4260  -14.9400   -0.2950 O   0  0  0  0  0  0  0  0  0  0  0  0
   -1.2600  -14.4740   -0.9050 O   0  0  0  0  0  0  0  0  0  0  0  0
   -0.5120  -15.6240   -0.4420 C   0  0  2  0  0  0  0  0  0  0  0  0
   -1.1150  -16.1160    0.9020 C   0  0  0  0  0  0  0  0  0  0  0  0
   -0.2520  -16.0220    2.1710 C   0  0  1  0  0  0  0  0  0  0  0  0
   -0.6640  -14.9920    3.2120 C   0  0  0  0  0  0  0  0  0  0  0  0
   -0.9150  -16.4460    3.5140 C   0  0  1  0  0  0  0  0  0  0  0  0
   -2.3720  -16.8840    3.5540 C   0  0  0  0  0  0  0  0  0  0  0  0
   -2.9560  -16.6780    4.9460 C   0  0  0  0  0  0  0  0  0  0  0  0
   -2.1390  -17.3990    6.0180 C   0  0  2  0  0  0  0  0  0  0  0  0
   -2.7560  -17.1230    7.2760 O   0  0  0  0  0  0  0  0  0  0  0  0
   -0.6270  -17.0050    6.0120 C   0  0  0  0  0  0  0  0  0  0  0  0
    0.1230  -17.9380    6.9950 C   0  0  0  0  0  0  0  0  0  0  0  0
   -0.4310  -15.5650    6.5260 C   0  0  0  0  0  0  0  0  0  0  0  0
   -0.0750  -17.2090    4.5540 C   0  0  2  0  0  0  0  0  0  0  0  0
    1.4340  -16.9800    4.3900 C   0  0  0  0  0  0  0  0  0  0  0  0
    1.8480  -17.2560    2.9460 C   0  0  0  0  0  0  0  0  0  0  0  0
    1.2770  -16.1860    2.0060 C   0  0  1  0  0  0  0  0  0  0  0  0
    1.7000  -16.3630    0.5240 C   0  0  2  0  0  0  0  0  0  0  0  0
    1.4570  -17.8340    0.0590 C   0  0  0  0  0  0  0  0  0  0  0  0
    3.1880  -16.0570    0.2610 C   0  0  0  0  0  0  0  0  0  0  0  0
    3.2620  -15.6330   -1.2170 C   0  0  2  0  0  0  0  0  0  0  0  0
    4.0570  -14.4560   -1.2990 O   0  0  0  0  0  0  0  0  0  0  0  0
    4.2220  -13.9390   -2.6260 C   0  0  2  0  0  0  0  0  0  0  0  0
    3.0450  -14.2570   -3.5530 C   0  0  0  0  0  0  0  0  0  0  0  0
    1.7200  -14.2830   -2.7710 C   0  0  1  0  0  0  0  0  0  0  0  0
    0.5700  -14.5110   -3.7520 C   0  0  0  0  0  0  0  0  0  0  0  0
    1.8010  -15.3920   -1.6970 C   0  0  2  0  0  0  0  0  0  0  0  0
    0.9900  -15.2670   -0.3580 C   0  0  1  0  0  0  0  0  0  0  0  0
    1.1480  -13.8190    0.2100 C   0  0  0  0  0  0  0  0  0  0  0  0
    5.5770  -14.4430   -3.1870 C   0  0  0  0  0  0  0  0  0  0  0  0
    6.6120  -13.5010   -2.5390 C   0  0  2  0  0  0  0  0  0  0  0  0
    6.9620  -13.9940   -1.2490 O   0  0  0  0  0  0  0  0  0  0  0  0
    5.8960  -12.1870   -2.4080 C   0  0  1  0  0  0  0  0  0  0  0  0
    6.4760  -11.0720   -1.6200 C   0  0  0  0  0  0  0  0  0  0  0  0
    5.1150  -11.7800   -3.5460 O   0  0  0  0  0  0  0  0  0  0  0  0
    4.4310  -12.4470   -2.4750 C   0  0  1  0  0  0  0  0  0  0  0  0
   -2.3615  -13.1224    1.5572 H   0  0  0  0  0  0  0  0  0  0  0  0
   -1.4125  -12.4130    0.2071 H   0  0  0  0  0  0  0  0  0  0  0  0
   -3.2046  -12.2901    0.2071 H   0  0  0  0  0  0  0  0  0  0  0  0
   -0.5907  -16.4613   -1.1511 H   0  0  0  0  0  0  0  0  0  0  0  0
   -2.0259  -15.5269    1.0843 H   0  0  0  0  0  0  0  0  0  0  0  0
   -1.2587  -17.1964    0.7533 H   0  0  0  0  0  0  0  0  0  0  0  0
    0.1084  -14.4447    3.7723 H   0  0  0  0  0  0  0  0  0  0  0  0
   -1.2973  -14.0928    3.1919 H   0  0  0  0  0  0  0  0  0  0  0  0
   -2.9480  -16.2903    2.8289 H   0  0  0  0  0  0  0  0  0  0  0  0
   -2.4280  -17.9530    3.3006 H   0  0  0  0  0  0  0  0  0  0  0  0
   -2.9674  -15.6014    5.1714 H   0  0  0  0  0  0  0  0  0  0  0  0
   -3.9738  -17.0951    4.9544 H   0  0  0  0  0  0  0  0  0  0  0  0
   -2.1403  -18.4793    5.8110 H   0  0  0  0  0  0  0  0  0  0  0  0
   -2.5700  -16.1970    7.5040 H   0  0  0  0  0  0  0  0  0  0  0  0
   -0.1118  -17.6459    8.0292 H   0  0  0  0  0  0  0  0  0  0  0  0
   -0.1933  -18.9781    6.8269 H   0  0  0  0  0  0  0  0  0  0  0  0
    1.2067  -17.8526    6.8269 H   0  0  0  0  0  0  0  0  0  0  0  0
   -0.4310  -15.5651    7.6260 H   0  0  0  0  0  0  0  0  0  0  0  0
    0.5289  -15.1723    6.1594 H   0  0  0  0  0  0  0  0  0  0  0  0
   -1.2510  -14.9300    6.1594 H   0  0  0  0  0  0  0  0  0  0  0  0
   -0.1947  -18.2838    4.3530 H   0  0  0  0  0  0  0  0  0  0  0  0
    1.6745  -15.9375    4.6454 H   0  0  0  0  0  0  0  0  0  0  0  0
    1.9786  -17.6621    5.0594 H   0  0  0  0  0  0  0  0  0  0  0  0
    2.9458  -17.2489    2.8771 H   0  0  0  0  0  0  0  0  0  0  0  0
    1.4540  -18.2382    2.6459 H   0  0  0  0  0  0  0  0  0  0  0  0
    1.7386  -15.2391    2.3228 H   0  0  0  0  0  0  0  0  0  0  0  0
    1.3496  -18.4840    0.9399 H   0  0  0  0  0  0  0  0  0  0  0  0
    0.5390  -17.8806   -0.5452 H   0  0  0  0  0  0  0  0  0  0  0  0
    2.3112  -18.1734   -0.5452 H   0  0  0  0  0  0  0  0  0  0  0  0
    3.5346  -15.2419    0.9132 H   0  0  0  0  0  0  0  0  0  0  0  0
    3.8281  -16.9268    0.4700 H   0  0  0  0  0  0  0  0  0  0  0  0
    3.7245  -16.3969   -1.8592 H   0  0  0  0  0  0  0  0  0  0  0  0
    2.9856  -13.4870   -4.3363 H   0  0  0  0  0  0  0  0  0  0  0  0
    3.2083  -15.2488   -3.9999 H   0  0  0  0  0  0  0  0  0  0  0  0
    1.5386  -13.3267   -2.2586 H   0  0  0  0  0  0  0  0  0  0  0  0
   -0.3587  -14.6951   -3.1919 H   0  0  0  0  0  0  0  0  0  0  0  0
    0.4459  -13.6200   -4.3850 H   0  0  0  0  0  0  0  0  0  0  0  0
    0.7952  -15.3820   -4.3850 H   0  0  0  0  0  0  0  0  0  0  0  0
    1.3364  -16.1988   -2.2828 H   0  0  0  0  0  0  0  0  0  0  0  0
    1.1442  -13.8540    1.3094 H   0  0  0  0  0  0  0  0  0  0  0  0
    2.0983  -13.3895   -0.1399 H   0  0  0  0  0  0  0  0  0  0  0  0
    0.3126  -13.1947   -0.1399 H   0  0  0  0  0  0  0  0  0  0  0  0
    5.7591  -15.4875   -2.8939 H   0  0  0  0  0  0  0  0  0  0  0  0
    5.6159  -14.4286   -4.2862 H   0  0  0  0  0  0  0  0  0  0  0  0
    7.5380  -13.4167   -3.1267 H   0  0  0  0  0  0  0  0  0  0  0  0
    7.6620  -13.4030   -0.9040 H   0  0  0  0  0  0  0  0  0  0  0  0
    6.3651  -11.2851   -0.5466 H   0  0  0  0  0  0  0  0  0  0  0  0
    7.5433  -10.9665   -1.8646 H   0  0  0  0  0  0  0  0  0  0  0  0
    5.9497  -10.1376   -1.8646 H   0  0  0  0  0  0  0  0  0  0  0  0
    3.5129  -12.2067   -1.9188 H   0  0  0  0  0  0  0  0  0  0  0  0
  1  2  1  0
  2  3  2  0
  2  4  1  0
  4  5  1  0
  5  6  1  0
  7  6  1  6
  7  8  1  0
  9  8  1  1
  9 10  1  0
 10 11  1  0
 11 12  1  0
 12 13  1  0
 12 14  1  0
 14 15  1  0
 14 16  1  0
 14 17  1  0
 17 18  1  0
 18 19  1  0
 19 20  1  0
 20 21  1  0
 21 22  1  6
 21 23  1  0
 23 24  1  0
 24 25  1  0
 26 25  1  1
 26 27  1  0
 27 28  1  0
 28 29  1  0
 28 30  1  0
 30 31  1  0
 31 32  1  1
 26 33  1  0
 33 34  1  0
 34 35  1  0
 34 36  1  0
 36 37  1  1
 36 38  1  0
 38 39  1  0
 31  5  1  0
 39 36  1  0
  9  7  1  0
 31 21  1  0
 20  7  1  0
 30 24  1  0
 17  9  1  0
 39 26  1  0
  1 40  1  0
  1 41  1  0
  1 42  1  0
  5 43  1  6
  6 44  1  0
  6 45  1  0
  8 46  1  0
  8 47  1  0
 10 48  1  0
 10 49  1  0
 11 50  1  0
 11 51  1  0
 12 52  1  6
 13 53  1  0
 15 54  1  0
 15 55  1  0
 15 56  1  0
 16 57  1  0
 16 58  1  0
 16 59  1  0
 17 60  1  6
 18 61  1  0
 18 62  1  0
 19 63  1  0
 19 64  1  0
 20 65  1  1
 22 66  1  0
 22 67  1  0
 22 68  1  0
 23 69  1  0
 23 70  1  0
 24 71  1  6
 27 72  1  0
 27 73  1  0
 28 74  1  1
 29 75  1  0
 29 76  1  0
 29 77  1  0
 30 78  1  6
 32 79  1  0
 32 80  1  0
 32 81  1  0
 33 82  1  0
 33 83  1  0
 34 84  1  6
 35 85  1  0
 37 86  1  0
 37 87  1  0
 37 88  1  0
 39 89  1  1
M  END
>  <meeko>  (9) 
{"is_sidechain": [false], "free_energy": -7.933, "intermolecular_energy": -9.81, "internal_energy": -0.109}

$$$$
