LIB_FTFOAFZZXPZIAN__M_PUB_ALL__e8__s20260927
     RDKit          3D

 37 38  0  0  0  0  0  0  0  0999 V2000
    6.8310  -12.8170    1.5400 C   0  0  0  0  0  0  0  0  0  0  0  0
    7.7220  -11.8630    0.9120 N   0  0  0  0  0  0  0  0  0  0  0  0
    7.3950  -10.4530    0.9010 C   0  0  0  0  0  0  0  0  0  0  0  0
    8.9920  -12.2490    0.5030 C   0  0  0  0  0  0  0  0  0  0  0  0
   10.0620  -11.9250    1.2940 N   0  0  0  0  0  0  0  0  0  0  0  0
   11.3070  -12.2830    0.9190 C   0  0  0  0  0  0  0  0  0  0  0  0
   11.6840  -12.9560   -0.1800 N   0  0  0  0  0  0  0  0  0  0  0  0
   10.6190  -13.2640   -0.9350 C   0  0  0  0  0  0  0  0  0  0  0  0
    9.2860  -12.9660   -0.6860 C   0  0  0  0  0  0  0  0  0  0  0  0
    8.4890  -13.4630   -1.7110 N   0  0  0  0  0  0  0  0  0  0  0  0
    9.3240  -14.0390   -2.5500 C   0  0  0  0  0  0  0  0  0  0  0  0
   10.6180  -13.9430   -2.1220 N   0  0  0  0  0  0  0  0  0  0  0  0
   11.7760  -14.4780   -2.8070 C   0  0  0  0  0  0  0  0  0  0  0  0
   12.2260  -13.5740   -3.9530 C   0  0  0  0  0  0  0  0  0  0  0  0
   13.7370  -13.5930   -4.1880 C   0  0  0  0  0  0  0  0  0  0  0  0
   14.5270  -12.3860   -3.6630 C   0  0  0  0  0  0  0  0  0  0  0  0
   13.6870  -11.3590   -2.9120 C   0  0  0  0  0  0  0  0  0  0  0  0
   13.9210  -11.4600   -1.5140 O   0  0  0  0  0  0  0  0  0  0  0  0
    6.9124  -12.7299    2.6335 H   0  0  0  0  0  0  0  0  0  0  0  0
    5.7956  -12.6097    1.2317 H   0  0  0  0  0  0  0  0  0  0  0  0
    7.1084  -13.8358    1.2317 H   0  0  0  0  0  0  0  0  0  0  0  0
    7.3104  -10.0881    1.9353 H   0  0  0  0  0  0  0  0  0  0  0  0
    8.1880   -9.8968    0.3797 H   0  0  0  0  0  0  0  0  0  0  0  0
    6.4381  -10.3026    0.3797 H   0  0  0  0  0  0  0  0  0  0  0  0
   12.1174  -11.9856    1.6008 H   0  0  0  0  0  0  0  0  0  0  0  0
    9.0174  -14.5368   -3.4818 H   0  0  0  0  0  0  0  0  0  0  0  0
   12.6014  -14.5770   -2.0866 H   0  0  0  0  0  0  0  0  0  0  0  0
   11.5010  -15.4552   -3.2306 H   0  0  0  0  0  0  0  0  0  0  0  0
   11.7261  -13.9057   -4.8750 H   0  0  0  0  0  0  0  0  0  0  0  0
   11.9543  -12.5441   -3.6784 H   0  0  0  0  0  0  0  0  0  0  0  0
   14.1397  -14.4934   -3.7011 H   0  0  0  0  0  0  0  0  0  0  0  0
   13.8620  -13.5699   -5.2806 H   0  0  0  0  0  0  0  0  0  0  0  0
   15.3073  -12.7561   -2.9817 H   0  0  0  0  0  0  0  0  0  0  0  0
   14.9352  -11.8714   -4.5454 H   0  0  0  0  0  0  0  0  0  0  0  0
   13.9575  -10.3489   -3.2535 H   0  0  0  0  0  0  0  0  0  0  0  0
   12.6226  -11.5511   -3.1121 H   0  0  0  0  0  0  0  0  0  0  0  0
   14.6530  -12.0940   -1.3990 H   0  0  0  0  0  0  0  0  0  0  0  0
  1  2  1  0
  2  3  1  0
  2  4  1  0
  4  5  2  0
  5  6  1  0
  6  7  2  0
  7  8  1  0
  8  9  2  0
  9 10  1  0
 10 11  2  0
 11 12  1  0
 12 13  1  0
 13 14  1  0
 14 15  1  0
 15 16  1  0
 16 17  1  0
 17 18  1  0
  9  4  1  0
 12  8  1  0
  1 19  1  0
  1 20  1  0
  1 21  1  0
  3 22  1  0
  3 23  1  0
  3 24  1  0
  6 25  1  0
 11 26  1  0
 13 27  1  0
 13 28  1  0
 14 29  1  0
 14 30  1  0
 15 31  1  0
 15 32  1  0
 16 33  1  0
 16 34  1  0
 17 35  1  0
 17 36  1  0
 18 37  1  0
M  END
>  <meeko>  (1) 
{"is_sidechain": [false], "free_energy": -5.003, "intermolecular_energy": -6.904, "internal_energy": -0.771}

$$$$
LIB_FTFOAFZZXPZIAN__M_PUB_ALL__e8__s20260927
     RDKit          3D

 37 38  0  0  0  0  0  0  0  0999 V2000
   13.7820  -11.5480   -2.8330 C   0  0  0  0  0  0  0  0  0  0  0  0
   12.9090  -12.6660   -2.5410 N   0  0  0  0  0  0  0  0  0  0  0  0
   13.1130  -13.9450   -3.1900 C   0  0  0  0  0  0  0  0  0  0  0  0
   12.0050  -12.5980   -1.4880 C   0  0  0  0  0  0  0  0  0  0  0  0
   12.4910  -12.5690   -0.2070 N   0  0  0  0  0  0  0  0  0  0  0  0
   11.6360  -12.5070    0.8330 C   0  0  0  0  0  0  0  0  0  0  0  0
   10.2940  -12.4630    0.8070 N   0  0  0  0  0  0  0  0  0  0  0  0
    9.8440  -12.4890   -0.4560 C   0  0  0  0  0  0  0  0  0  0  0  0
   10.5930  -12.5540   -1.6240 C   0  0  0  0  0  0  0  0  0  0  0  0
    9.7500  -12.5590   -2.7280 N   0  0  0  0  0  0  0  0  0  0  0  0
    8.5310  -12.5030   -2.2340 C   0  0  0  0  0  0  0  0  0  0  0  0
    8.5410  -12.4600   -0.8680 N   0  0  0  0  0  0  0  0  0  0  0  0
    7.3720  -12.3860   -0.0170 C   0  0  0  0  0  0  0  0  0  0  0  0
    6.6980  -11.0180   -0.0940 C   0  0  0  0  0  0  0  0  0  0  0  0
    6.8550  -10.1880    1.1810 C   0  0  0  0  0  0  0  0  0  0  0  0
    7.8410   -9.0130    1.1180 C   0  0  0  0  0  0  0  0  0  0  0  0
    7.2380   -7.6630    1.4910 C   0  0  0  0  0  0  0  0  0  0  0  0
    8.0510   -6.6080    0.9960 O   0  0  0  0  0  0  0  0  0  0  0  0
   14.1317  -11.1001   -1.8911 H   0  0  0  0  0  0  0  0  0  0  0  0
   14.6466  -11.9001   -3.4148 H   0  0  0  0  0  0  0  0  0  0  0  0
   13.2308  -10.7946   -3.4148 H   0  0  0  0  0  0  0  0  0  0  0  0
   13.2378  -14.7275   -2.4271 H   0  0  0  0  0  0  0  0  0  0  0  0
   12.2411  -14.1808   -3.8179 H   0  0  0  0  0  0  0  0  0  0  0  0
   14.0150  -13.8979   -3.8179 H   0  0  0  0  0  0  0  0  0  0  0  0
   12.0967  -12.4903    1.8317 H   0  0  0  0  0  0  0  0  0  0  0  0
    7.6167  -12.4922   -2.8455 H   0  0  0  0  0  0  0  0  0  0  0  0
    6.6524  -13.1554   -0.3334 H   0  0  0  0  0  0  0  0  0  0  0  0
    7.6953  -12.5490    1.0217 H   0  0  0  0  0  0  0  0  0  0  0  0
    7.1412  -10.4581   -0.9307 H   0  0  0  0  0  0  0  0  0  0  0  0
    5.6215  -11.1951   -0.2343 H   0  0  0  0  0  0  0  0  0  0  0  0
    5.8661   -9.7807    1.4382 H   0  0  0  0  0  0  0  0  0  0  0  0
    7.2737  -10.8788    1.9276 H   0  0  0  0  0  0  0  0  0  0  0  0
    8.6701   -9.2223    1.8100 H   0  0  0  0  0  0  0  0  0  0  0  0
    8.1663   -8.9324    0.0703 H   0  0  0  0  0  0  0  0  0  0  0  0
    6.2317   -7.5816    1.0543 H   0  0  0  0  0  0  0  0  0  0  0  0
    7.1796   -7.5868    2.5868 H   0  0  0  0  0  0  0  0  0  0  0  0
    8.0030   -6.6510    0.0240 H   0  0  0  0  0  0  0  0  0  0  0  0
  1  2  1  0
  2  3  1  0
  2  4  1  0
  4  5  2  0
  5  6  1  0
  6  7  2  0
  7  8  1  0
  8  9  2  0
  9 10  1  0
 10 11  2  0
 11 12  1  0
 12 13  1  0
 13 14  1  0
 14 15  1  0
 15 16  1  0
 16 17  1  0
 17 18  1  0
  9  4  1  0
 12  8  1  0
  1 19  1  0
  1 20  1  0
  1 21  1  0
  3 22  1  0
  3 23  1  0
  3 24  1  0
  6 25  1  0
 11 26  1  0
 13 27  1  0
 13 28  1  0
 14 29  1  0
 14 30  1  0
 15 31  1  0
 15 32  1  0
 16 33  1  0
 16 34  1  0
 17 35  1  0
 17 36  1  0
 18 37  1  0
M  END
>  <meeko>  (2) 
{"is_sidechain": [false], "free_energy": -4.995, "intermolecular_energy": -7.244, "internal_energy": -0.421}

$$$$
LIB_FTFOAFZZXPZIAN__M_PUB_ALL__e8__s20260927
     RDKit          3D

 37 38  0  0  0  0  0  0  0  0999 V2000
    7.4840  -11.3210    0.3720 C   0  0  0  0  0  0  0  0  0  0  0  0
    8.2160  -12.5520    0.1590 N   0  0  0  0  0  0  0  0  0  0  0  0
    7.5080  -13.7990   -0.0450 C   0  0  0  0  0  0  0  0  0  0  0  0
    9.5870  -12.5280   -0.0640 C   0  0  0  0  0  0  0  0  0  0  0  0
   10.4270  -12.5540    1.0180 N   0  0  0  0  0  0  0  0  0  0  0  0
   11.7620  -12.5250    0.8320 C   0  0  0  0  0  0  0  0  0  0  0  0
   12.4410  -12.4760   -0.3270 N   0  0  0  0  0  0  0  0  0  0  0  0
   11.5960  -12.4550   -1.3690 C   0  0  0  0  0  0  0  0  0  0  0  0
   10.2080  -12.4770   -1.3390 C   0  0  0  0  0  0  0  0  0  0  0  0
    9.7050  -12.4450   -2.6340 N   0  0  0  0  0  0  0  0  0  0  0  0
   10.7630  -12.4010   -3.4150 C   0  0  0  0  0  0  0  0  0  0  0  0
   11.9240  -12.4050   -2.6950 N   0  0  0  0  0  0  0  0  0  0  0  0
   13.2620  -12.3730   -3.2490 C   0  0  0  0  0  0  0  0  0  0  0  0
   13.5360  -13.5810   -4.1410 C   0  0  0  0  0  0  0  0  0  0  0  0
   13.7460  -14.8800   -3.3620 C   0  0  0  0  0  0  0  0  0  0  0  0
   12.4940  -15.7250   -3.0860 C   0  0  0  0  0  0  0  0  0  0  0  0
   12.3690  -16.2160   -1.6490 C   0  0  0  0  0  0  0  0  0  0  0  0
   13.1510  -15.4060   -0.7820 O   0  0  0  0  0  0  0  0  0  0  0  0
    7.3766  -11.1404    1.4517 H   0  0  0  0  0  0  0  0  0  0  0  0
    8.0316  -10.4847   -0.0870 H   0  0  0  0  0  0  0  0  0  0  0  0
    6.4877  -11.4027   -0.0870 H   0  0  0  0  0  0  0  0  0  0  0  0
    7.2567  -14.2417    0.9301 H   0  0  0  0  0  0  0  0  0  0  0  0
    6.5838  -13.6077   -0.6100 H   0  0  0  0  0  0  0  0  0  0  0  0
    8.1459  -14.4946   -0.6100 H   0  0  0  0  0  0  0  0  0  0  0  0
   12.3740  -12.5439    1.7458 H   0  0  0  0  0  0  0  0  0  0  0  0
   10.7182  -12.3653   -4.5135 H   0  0  0  0  0  0  0  0  0  0  0  0
   13.3783  -11.4563   -3.8457 H   0  0  0  0  0  0  0  0  0  0  0  0
   13.9780  -12.3953   -2.4142 H   0  0  0  0  0  0  0  0  0  0  0  0
   12.6792  -13.7155   -4.8176 H   0  0  0  0  0  0  0  0  0  0  0  0
   14.4696  -13.3759   -4.6853 H   0  0  0  0  0  0  0  0  0  0  0  0
   14.4495  -15.5025   -3.9343 H   0  0  0  0  0  0  0  0  0  0  0  0
   14.1108  -14.5692   -2.3719 H   0  0  0  0  0  0  0  0  0  0  0  0
   11.6090  -15.1147   -3.3190 H   0  0  0  0  0  0  0  0  0  0  0  0
   12.5755  -16.6218   -3.7177 H   0  0  0  0  0  0  0  0  0  0  0  0
   11.3147  -16.1668   -1.3390 H   0  0  0  0  0  0  0  0  0  0  0  0
   12.7301  -17.2535   -1.5924 H   0  0  0  0  0  0  0  0  0  0  0  0
   13.7520  -16.0070   -0.3060 H   0  0  0  0  0  0  0  0  0  0  0  0
  1  2  1  0
  2  3  1  0
  2  4  1  0
  4  5  2  0
  5  6  1  0
  6  7  2  0
  7  8  1  0
  8  9  2  0
  9 10  1  0
 10 11  2  0
 11 12  1  0
 12 13  1  0
 13 14  1  0
 14 15  1  0
 15 16  1  0
 16 17  1  0
 17 18  1  0
  9  4  1  0
 12  8  1  0
  1 19  1  0
  1 20  1  0
  1 21  1  0
  3 22  1  0
  3 23  1  0
  3 24  1  0
  6 25  1  0
 11 26  1  0
 13 27  1  0
 13 28  1  0
 14 29  1  0
 14 30  1  0
 15 31  1  0
 15 32  1  0
 16 33  1  0
 16 34  1  0
 17 35  1  0
 17 36  1  0
 18 37  1  0
M  END
>  <meeko>  (3) 
{"is_sidechain": [false], "free_energy": -4.807, "intermolecular_energy": -6.517, "internal_energy": -0.887}

$$$$
LIB_FTFOAFZZXPZIAN__M_PUB_ALL__e8__s20260927
     RDKit          3D

 37 38  0  0  0  0  0  0  0  0999 V2000
   -3.6260  -18.2240    3.5290 C   0  0  0  0  0  0  0  0  0  0  0  0
   -2.4880  -17.3960    3.1880 N   0  0  0  0  0  0  0  0  0  0  0  0
   -1.2250  -17.5680    3.8750 C   0  0  0  0  0  0  0  0  0  0  0  0
   -2.5220  -16.5800    2.0640 C   0  0  0  0  0  0  0  0  0  0  0  0
   -1.9800  -17.0490    0.8970 N   0  0  0  0  0  0  0  0  0  0  0  0
   -1.9950  -16.2770   -0.2080 C   0  0  0  0  0  0  0  0  0  0  0  0
   -2.4950  -15.0380   -0.3520 N   0  0  0  0  0  0  0  0  0  0  0  0
   -3.0220  -14.6040    0.8020 C   0  0  0  0  0  0  0  0  0  0  0  0
   -3.0810  -15.2760    2.0160 C   0  0  0  0  0  0  0  0  0  0  0  0
   -3.7100  -14.4830    2.9680 N   0  0  0  0  0  0  0  0  0  0  0  0
   -4.0150  -13.3670    2.3410 C   0  0  0  0  0  0  0  0  0  0  0  0
   -3.6180  -13.3960    1.0340 N   0  0  0  0  0  0  0  0  0  0  0  0
   -3.8100  -12.3340    0.0690 C   0  0  0  0  0  0  0  0  0  0  0  0
   -2.9850  -11.0960    0.4140 C   0  0  0  0  0  0  0  0  0  0  0  0
   -1.4840  -11.3710    0.5110 C   0  0  0  0  0  0  0  0  0  0  0  0
   -0.6860  -10.4910    1.4840 C   0  0  0  0  0  0  0  0  0  0  0  0
    0.3460   -9.5880    0.8170 C   0  0  0  0  0  0  0  0  0  0  0  0
    0.6710   -8.5000    1.6710 O   0  0  0  0  0  0  0  0  0  0  0  0
   -3.7167  -18.2900    4.6233 H   0  0  0  0  0  0  0  0  0  0  0  0
   -4.5413  -17.7793    3.1114 H   0  0  0  0  0  0  0  0  0  0  0  0
   -3.4845  -19.2318    3.1114 H   0  0  0  0  0  0  0  0  0  0  0  0
   -1.3927  -17.5452    4.9619 H   0  0  0  0  0  0  0  0  0  0  0  0
   -0.7826  -18.5347    3.5925 H   0  0  0  0  0  0  0  0  0  0  0  0
   -0.5402  -16.7548    3.5925 H   0  0  0  0  0  0  0  0  0  0  0  0
   -1.5396  -16.7178   -1.1071 H   0  0  0  0  0  0  0  0  0  0  0  0
   -4.5271  -12.5148    2.8117 H   0  0  0  0  0  0  0  0  0  0  0  0
   -3.5081  -12.6972   -0.9245 H   0  0  0  0  0  0  0  0  0  0  0  0
   -4.8727  -12.0501    0.0810 H   0  0  0  0  0  0  0  0  0  0  0  0
   -3.1505  -10.3387   -0.3664 H   0  0  0  0  0  0  0  0  0  0  0  0
   -3.3158  -10.7526    1.4053 H   0  0  0  0  0  0  0  0  0  0  0  0
   -1.3559  -12.4173    0.8254 H   0  0  0  0  0  0  0  0  0  0  0  0
   -1.0814  -11.1400   -0.4863 H   0  0  0  0  0  0  0  0  0  0  0  0
   -1.3957   -9.8548    2.0332 H   0  0  0  0  0  0  0  0  0  0  0  0
   -0.1269  -11.1754    2.1390 H   0  0  0  0  0  0  0  0  0  0  0  0
    1.2559  -10.1694    0.6070 H   0  0  0  0  0  0  0  0  0  0  0  0
   -0.0736   -9.1952   -0.1209 H   0  0  0  0  0  0  0  0  0  0  0  0
    0.1920   -7.7230    1.3280 H   0  0  0  0  0  0  0  0  0  0  0  0
  1  2  1  0
  2  3  1  0
  2  4  1  0
  4  5  2  0
  5  6  1  0
  6  7  2  0
  7  8  1  0
  8  9  2  0
  9 10  1  0
 10 11  2  0
 11 12  1  0
 12 13  1  0
 13 14  1  0
 14 15  1  0
 15 16  1  0
 16 17  1  0
 17 18  1  0
  9  4  1  0
 12  8  1  0
  1 19  1  0
  1 20  1  0
  1 21  1  0
  3 22  1  0
  3 23  1  0
  3 24  1  0
  6 25  1  0
 11 26  1  0
 13 27  1  0
 13 28  1  0
 14 29  1  0
 14 30  1  0
 15 31  1  0
 15 32  1  0
 16 33  1  0
 16 34  1  0
 17 35  1  0
 17 36  1  0
 18 37  1  0
M  END
>  <meeko>  (4) 
{"is_sidechain": [false], "free_energy": -4.727, "intermolecular_energy": -6.894, "internal_energy": -0.399}

$$$$
LIB_FTFOAFZZXPZIAN__M_PUB_ALL__e8__s20260927
     RDKit          3D

 37 38  0  0  0  0  0  0  0  0999 V2000
  -11.4090  -22.0410    8.7120 C   0  0  0  0  0  0  0  0  0  0  0  0
  -10.1630  -21.7310    8.0430 N   0  0  0  0  0  0  0  0  0  0  0  0
   -9.7380  -22.5000    6.8920 C   0  0  0  0  0  0  0  0  0  0  0  0
   -9.4650  -20.5720    8.3560 C   0  0  0  0  0  0  0  0  0  0  0  0
   -8.5460  -20.6130    9.3710 N   0  0  0  0  0  0  0  0  0  0  0  0
   -7.8580  -19.5010    9.7000 C   0  0  0  0  0  0  0  0  0  0  0  0
   -7.9350  -18.2800    9.1460 N   0  0  0  0  0  0  0  0  0  0  0  0
   -8.8380  -18.2670    8.1540 C   0  0  0  0  0  0  0  0  0  0  0  0
   -9.6210  -19.3210    7.7030 C   0  0  0  0  0  0  0  0  0  0  0  0
  -10.4280  -18.8980    6.6540 N   0  0  0  0  0  0  0  0  0  0  0  0
  -10.1370  -17.6250    6.4850 C   0  0  0  0  0  0  0  0  0  0  0  0
   -9.1840  -17.2030    7.3680 N   0  0  0  0  0  0  0  0  0  0  0  0
   -8.6360  -15.8640    7.4440 C   0  0  0  0  0  0  0  0  0  0  0  0
   -7.6940  -15.5700    6.2780 C   0  0  0  0  0  0  0  0  0  0  0  0
   -6.4500  -14.7780    6.6840 C   0  0  0  0  0  0  0  0  0  0  0  0
   -6.5120  -14.0470    8.0330 C   0  0  0  0  0  0  0  0  0  0  0  0
   -5.4230  -14.4510    9.0210 C   0  0  0  0  0  0  0  0  0  0  0  0
   -5.5240  -13.6760   10.2070 O   0  0  0  0  0  0  0  0  0  0  0  0
  -11.2595  -22.0038    9.8012 H   0  0  0  0  0  0  0  0  0  0  0  0
  -12.1739  -21.3058    8.4216 H   0  0  0  0  0  0  0  0  0  0  0  0
  -11.7402  -23.0489    8.4216 H   0  0  0  0  0  0  0  0  0  0  0  0
   -9.2316  -23.4162    7.2298 H   0  0  0  0  0  0  0  0  0  0  0  0
  -10.6158  -22.7684    6.2859 H   0  0  0  0  0  0  0  0  0  0  0  0
   -9.0437  -21.8995    6.2859 H   0  0  0  0  0  0  0  0  0  0  0  0
   -7.1420  -19.6075   10.5282 H   0  0  0  0  0  0  0  0  0  0  0  0
  -10.6041  -16.9804    5.7258 H   0  0  0  0  0  0  0  0  0  0  0  0
   -9.4631  -15.1391    7.4251 H   0  0  0  0  0  0  0  0  0  0  0  0
   -8.0603  -15.7825    8.3778 H   0  0  0  0  0  0  0  0  0  0  0  0
   -7.3708  -16.5266    5.8417 H   0  0  0  0  0  0  0  0  0  0  0  0
   -8.2515  -14.9512    5.5595 H   0  0  0  0  0  0  0  0  0  0  0  0
   -5.6047  -15.4808    6.7235 H   0  0  0  0  0  0  0  0  0  0  0  0
   -6.3507  -13.9851    5.9280 H   0  0  0  0  0  0  0  0  0  0  0  0
   -6.4207  -12.9673    7.8434 H   0  0  0  0  0  0  0  0  0  0  0  0
   -7.4716  -14.3226    8.4947 H   0  0  0  0  0  0  0  0  0  0  0  0
   -5.5372  -15.5159    9.2721 H   0  0  0  0  0  0  0  0  0  0  0  0
   -4.4390  -14.2767    8.5613 H   0  0  0  0  0  0  0  0  0  0  0  0
   -6.2760  -13.0690   10.0810 H   0  0  0  0  0  0  0  0  0  0  0  0
  1  2  1  0
  2  3  1  0
  2  4  1  0
  4  5  2  0
  5  6  1  0
  6  7  2  0
  7  8  1  0
  8  9  2  0
  9 10  1  0
 10 11  2  0
 11 12  1  0
 12 13  1  0
 13 14  1  0
 14 15  1  0
 15 16  1  0
 16 17  1  0
 17 18  1  0
  9  4  1  0
 12  8  1  0
  1 19  1  0
  1 20  1  0
  1 21  1  0
  3 22  1  0
  3 23  1  0
  3 24  1  0
  6 25  1  0
 11 26  1  0
 13 27  1  0
 13 28  1  0
 14 29  1  0
 14 30  1  0
 15 31  1  0
 15 32  1  0
 16 33  1  0
 16 34  1  0
 17 35  1  0
 17 36  1  0
 18 37  1  0
M  END
>  <meeko>  (5) 
{"is_sidechain": [false], "free_energy": -4.572, "intermolecular_energy": -6.695, "internal_energy": -0.385}

$$$$
LIB_FTFOAFZZXPZIAN__M_PUB_ALL__e8__s20260927
     RDKit          3D

 37 38  0  0  0  0  0  0  0  0999 V2000
    5.6820  -14.3480   -2.3060 C   0  0  0  0  0  0  0  0  0  0  0  0
    5.8160  -14.2530   -0.8670 N   0  0  0  0  0  0  0  0  0  0  0  0
    5.2280  -15.2600   -0.0080 C   0  0  0  0  0  0  0  0  0  0  0  0
    6.6800  -13.3250   -0.3000 C   0  0  0  0  0  0  0  0  0  0  0  0
    6.1490  -12.3060    0.4460 N   0  0  0  0  0  0  0  0  0  0  0  0
    6.9640  -11.3880    1.0040 C   0  0  0  0  0  0  0  0  0  0  0  0
    8.3030  -11.3150    0.9410 N   0  0  0  0  0  0  0  0  0  0  0  0
    8.7980  -12.3240    0.2090 C   0  0  0  0  0  0  0  0  0  0  0  0
    8.0930  -13.3380   -0.4270 C   0  0  0  0  0  0  0  0  0  0  0  0
    8.9750  -14.1910   -1.0800 N   0  0  0  0  0  0  0  0  0  0  0  0
   10.1720  -13.6970   -0.8450 C   0  0  0  0  0  0  0  0  0  0  0  0
   10.1120  -12.5720   -0.0720 N   0  0  0  0  0  0  0  0  0  0  0  0
   11.2480  -11.7920    0.3740 C   0  0  0  0  0  0  0  0  0  0  0  0
   12.5620  -12.3260   -0.1940 C   0  0  0  0  0  0  0  0  0  0  0  0
   13.0970  -11.5030   -1.3670 C   0  0  0  0  0  0  0  0  0  0  0  0
   12.9560  -12.1270   -2.7630 C   0  0  0  0  0  0  0  0  0  0  0  0
   14.2520  -12.1800   -3.5650 C   0  0  0  0  0  0  0  0  0  0  0  0
   15.3180  -11.6130   -2.8140 O   0  0  0  0  0  0  0  0  0  0  0  0
    4.8075  -14.9680   -2.5527 H   0  0  0  0  0  0  0  0  0  0  0  0
    5.5489  -13.3414   -2.7291 H   0  0  0  0  0  0  0  0  0  0  0  0
    6.5878  -14.8068   -2.7291 H   0  0  0  0  0  0  0  0  0  0  0  0
    5.3893  -14.9838    1.0445 H   0  0  0  0  0  0  0  0  0  0  0  0
    4.1485  -15.3276   -0.2080 H   0  0  0  0  0  0  0  0  0  0  0  0
    5.6997  -16.2334   -0.2080 H   0  0  0  0  0  0  0  0  0  0  0  0
    6.4678  -10.5972    1.5857 H   0  0  0  0  0  0  0  0  0  0  0  0
   11.1064  -14.1361   -1.2245 H   0  0  0  0  0  0  0  0  0  0  0  0
   11.1155  -10.7505    0.0458 H   0  0  0  0  0  0  0  0  0  0  0  0
   11.2982  -11.8579    1.4709 H   0  0  0  0  0  0  0  0  0  0  0  0
   13.3155  -12.3213    0.6074 H   0  0  0  0  0  0  0  0  0  0  0  0
   12.3634  -13.3394   -0.5728 H   0  0  0  0  0  0  0  0  0  0  0  0
   12.5598  -10.5431   -1.3743 H   0  0  0  0  0  0  0  0  0  0  0  0
   14.1800  -11.4194   -1.1937 H   0  0  0  0  0  0  0  0  0  0  0  0
   12.5832  -13.1550   -2.6439 H   0  0  0  0  0  0  0  0  0  0  0  0
   12.2654  -11.4820   -3.3261 H   0  0  0  0  0  0  0  0  0  0  0  0
   14.4907  -13.2276   -3.8008 H   0  0  0  0  0  0  0  0  0  0  0  0
   14.1226  -11.6058   -4.4943 H   0  0  0  0  0  0  0  0  0  0  0  0
   15.4790  -10.7260   -3.1840 H   0  0  0  0  0  0  0  0  0  0  0  0
  1  2  1  0
  2  3  1  0
  2  4  1  0
  4  5  2  0
  5  6  1  0
  6  7  2  0
  7  8  1  0
  8  9  2  0
  9 10  1  0
 10 11  2  0
 11 12  1  0
 12 13  1  0
 13 14  1  0
 14 15  1  0
 15 16  1  0
 16 17  1  0
 17 18  1  0
  9  4  1  0
 12  8  1  0
  1 19  1  0
  1 20  1  0
  1 21  1  0
  3 22  1  0
  3 23  1  0
  3 24  1  0
  6 25  1  0
 11 26  1  0
 13 27  1  0
 13 28  1  0
 14 29  1  0
 14 30  1  0
 15 31  1  0
 15 32  1  0
 16 33  1  0
 16 34  1  0
 17 35  1  0
 17 36  1  0
 18 37  1  0
M  END
>  <meeko>  (6) 
{"is_sidechain": [false], "free_energy": -4.508, "intermolecular_energy": -6.619, "internal_energy": -0.372}

$$$$
LIB_FTFOAFZZXPZIAN__M_PUB_ALL__e8__s20260927
     RDKit          3D

 37 38  0  0  0  0  0  0  0  0999 V2000
   -1.4410  -17.5980    1.7010 C   0  0  0  0  0  0  0  0  0  0  0  0
   -1.3800  -16.4660    2.6010 N   0  0  0  0  0  0  0  0  0  0  0  0
   -0.1060  -15.9980    3.1050 C   0  0  0  0  0  0  0  0  0  0  0  0
   -2.5060  -15.6850    2.8270 C   0  0  0  0  0  0  0  0  0  0  0  0
   -2.6510  -14.5220    2.1170 N   0  0  0  0  0  0  0  0  0  0  0  0
   -3.7310  -13.7410    2.3190 C   0  0  0  0  0  0  0  0  0  0  0  0
   -4.7580  -13.9420    3.1620 N   0  0  0  0  0  0  0  0  0  0  0  0
   -4.5940  -15.0870    3.8420 C   0  0  0  0  0  0  0  0  0  0  0  0
   -3.5430  -15.9900    3.7470 C   0  0  0  0  0  0  0  0  0  0  0  0
   -3.7500  -17.0520    4.6190 N   0  0  0  0  0  0  0  0  0  0  0  0
   -4.8910  -16.7890    5.2200 C   0  0  0  0  0  0  0  0  0  0  0  0
   -5.4340  -15.6140    4.7830 N   0  0  0  0  0  0  0  0  0  0  0  0
   -6.6850  -15.0420    5.2350 C   0  0  0  0  0  0  0  0  0  0  0  0
   -6.4850  -14.1050    6.4240 C   0  0  0  0  0  0  0  0  0  0  0  0
   -6.9410  -14.7030    7.7560 C   0  0  0  0  0  0  0  0  0  0  0  0
   -5.8970  -15.5150    8.5360 C   0  0  0  0  0  0  0  0  0  0  0  0
   -4.9320  -14.6730    9.3630 C   0  0  0  0  0  0  0  0  0  0  0  0
   -5.6430  -13.6710   10.0780 O   0  0  0  0  0  0  0  0  0  0  0  0
   -1.4912  -18.5287    2.2853 H   0  0  0  0  0  0  0  0  0  0  0  0
   -2.3359  -17.5145    1.0669 H   0  0  0  0  0  0  0  0  0  0  0  0
   -0.5423  -17.6111    1.0669 H   0  0  0  0  0  0  0  0  0  0  0  0
   -0.1222  -16.0040    4.2049 H   0  0  0  0  0  0  0  0  0  0  0  0
    0.6958  -16.6603    2.7465 H   0  0  0  0  0  0  0  0  0  0  0  0
    0.0764  -14.9742    2.7465 H   0  0  0  0  0  0  0  0  0  0  0  0
   -3.7776  -12.8217    1.7168 H   0  0  0  0  0  0  0  0  0  0  0  0
   -5.3512  -17.4362    5.9812 H   0  0  0  0  0  0  0  0  0  0  0  0
   -7.1367  -14.4753    4.4075 H   0  0  0  0  0  0  0  0  0  0  0  0
   -7.3405  -15.8651    5.5556 H   0  0  0  0  0  0  0  0  0  0  0  0
   -5.4148  -13.8621    6.4996 H   0  0  0  0  0  0  0  0  0  0  0  0
   -7.1033  -13.2138    6.2410 H   0  0  0  0  0  0  0  0  0  0  0  0
   -7.2684  -13.8735    8.4000 H   0  0  0  0  0  0  0  0  0  0  0  0
   -7.7333  -15.4206    7.4967 H   0  0  0  0  0  0  0  0  0  0  0  0
   -6.4293  -16.1958    9.2165 H   0  0  0  0  0  0  0  0  0  0  0  0
   -5.2889  -16.0445    7.7878 H   0  0  0  0  0  0  0  0  0  0  0  0
   -4.4031  -15.3221   10.0764 H   0  0  0  0  0  0  0  0  0  0  0  0
   -4.2101  -14.1888    8.6890 H   0  0  0  0  0  0  0  0  0  0  0  0
   -6.5860  -13.7940    9.8670 H   0  0  0  0  0  0  0  0  0  0  0  0
  1  2  1  0
  2  3  1  0
  2  4  1  0
  4  5  2  0
  5  6  1  0
  6  7  2  0
  7  8  1  0
  8  9  2  0
  9 10  1  0
 10 11  2  0
 11 12  1  0
 12 13  1  0
 13 14  1  0
 14 15  1  0
 15 16  1  0
 16 17  1  0
 17 18  1  0
  9  4  1  0
 12  8  1  0
  1 19  1  0
  1 20  1  0
  1 21  1  0
  3 22  1  0
  3 23  1  0
  3 24  1  0
  6 25  1  0
 11 26  1  0
 13 27  1  0
 13 28  1  0
 14 29  1  0
 14 30  1  0
 15 31  1  0
 15 32  1  0
 16 33  1  0
 16 34  1  0
 17 35  1  0
 17 36  1  0
 18 37  1  0
M  END
>  <meeko>  (7) 
{"is_sidechain": [false], "free_energy": -4.498, "intermolecular_energy": -6.515, "internal_energy": -0.464}

$$$$
LIB_FTFOAFZZXPZIAN__M_PUB_ALL__e8__s20260927
     RDKit          3D

 37 38  0  0  0  0  0  0  0  0999 V2000
   11.9570  -14.2750   -0.5610 C   0  0  0  0  0  0  0  0  0  0  0  0
   11.5890  -12.8860   -0.7410 N   0  0  0  0  0  0  0  0  0  0  0  0
   12.5450  -11.8330   -0.4690 C   0  0  0  0  0  0  0  0  0  0  0  0
   10.3980  -12.5500   -1.3730 C   0  0  0  0  0  0  0  0  0  0  0  0
   10.4370  -12.1930   -2.6960 N   0  0  0  0  0  0  0  0  0  0  0  0
    9.2970  -11.8570   -3.3330 C   0  0  0  0  0  0  0  0  0  0  0  0
    8.0480  -11.8190   -2.8420 N   0  0  0  0  0  0  0  0  0  0  0  0
    8.0370  -12.1750   -1.5490 C   0  0  0  0  0  0  0  0  0  0  0  0
    9.1190  -12.5430   -0.7590 C   0  0  0  0  0  0  0  0  0  0  0  0
    8.6870  -12.8420    0.5270 N   0  0  0  0  0  0  0  0  0  0  0  0
    7.3850  -12.6550    0.5080 C   0  0  0  0  0  0  0  0  0  0  0  0
    6.9500  -12.2520   -0.7240 N   0  0  0  0  0  0  0  0  0  0  0  0
    5.5760  -11.9680   -1.0840 C   0  0  0  0  0  0  0  0  0  0  0  0
    4.8620  -13.2080   -1.6190 C   0  0  0  0  0  0  0  0  0  0  0  0
    4.4600  -13.0930   -3.0900 C   0  0  0  0  0  0  0  0  0  0  0  0
    4.4860  -11.6840   -3.7000 C   0  0  0  0  0  0  0  0  0  0  0  0
    3.1090  -11.0740   -3.9370 C   0  0  0  0  0  0  0  0  0  0  0  0
    3.1910   -9.6550   -3.9170 O   0  0  0  0  0  0  0  0  0  0  0  0
   12.0172  -14.5021    0.5136 H   0  0  0  0  0  0  0  0  0  0  0  0
   11.1985  -14.9190   -1.0299 H   0  0  0  0  0  0  0  0  0  0  0  0
   12.9349  -14.4590   -1.0299 H   0  0  0  0  0  0  0  0  0  0  0  0
   12.6561  -11.7106    0.6185 H   0  0  0  0  0  0  0  0  0  0  0  0
   13.5175  -12.0980   -0.9094 H   0  0  0  0  0  0  0  0  0  0  0  0
   12.1876  -10.8905   -0.9094 H   0  0  0  0  0  0  0  0  0  0  0  0
    9.4042  -11.5780   -4.3916 H   0  0  0  0  0  0  0  0  0  0  0  0
    6.7270  -12.8045    1.3767 H   0  0  0  0  0  0  0  0  0  0  0  0
    5.0419  -11.6062   -0.1930 H   0  0  0  0  0  0  0  0  0  0  0  0
    5.5809  -11.2069   -1.8781 H   0  0  0  0  0  0  0  0  0  0  0  0
    5.5340  -14.0718   -1.5082 H   0  0  0  0  0  0  0  0  0  0  0  0
    3.9350  -13.3236   -1.0382 H   0  0  0  0  0  0  0  0  0  0  0  0
    5.1471  -13.7227   -3.6743 H   0  0  0  0  0  0  0  0  0  0  0  0
    3.4066  -13.4074   -3.1290 H   0  0  0  0  0  0  0  0  0  0  0  0
    5.0417  -11.0240   -3.0176 H   0  0  0  0  0  0  0  0  0  0  0  0
    4.9613  -11.7785   -4.6875 H   0  0  0  0  0  0  0  0  0  0  0  0
    2.7297  -11.4023   -4.9159 H   0  0  0  0  0  0  0  0  0  0  0  0
    2.4274  -11.4056   -3.1399 H   0  0  0  0  0  0  0  0  0  0  0  0
    3.2090   -9.3640   -4.8470 H   0  0  0  0  0  0  0  0  0  0  0  0
  1  2  1  0
  2  3  1  0
  2  4  1  0
  4  5  2  0
  5  6  1  0
  6  7  2  0
  7  8  1  0
  8  9  2  0
  9 10  1  0
 10 11  2  0
 11 12  1  0
 12 13  1  0
 13 14  1  0
 14 15  1  0
 15 16  1  0
 16 17  1  0
 17 18  1  0
  9  4  1  0
 12  8  1  0
  1 19  1  0
  1 20  1  0
  1 21  1  0
  3 22  1  0
  3 23  1  0
  3 24  1  0
  6 25  1  0
 11 26  1  0
 13 27  1  0
 13 28  1  0
 14 29  1  0
 14 30  1  0
 15 31  1  0
 15 32  1  0
 16 33  1  0
 16 34  1  0
 17 35  1  0
 17 36  1  0
 18 37  1  0
M  END
>  <meeko>  (8) 
{"is_sidechain": [false], "free_energy": -4.484, "intermolecular_energy": -6.453, "internal_energy": -0.506}

$$$$
LIB_FTFOAFZZXPZIAN__M_PUB_ALL__e8__s20260927
     RDKit          3D

 37 38  0  0  0  0  0  0  0  0999 V2000
   13.7520  -15.9870   -3.5700 C   0  0  0  0  0  0  0  0  0  0  0  0
   13.3040  -14.7030   -4.0680 N   0  0  0  0  0  0  0  0  0  0  0  0
   12.9890  -14.5310   -5.4710 C   0  0  0  0  0  0  0  0  0  0  0  0
   12.9670  -13.6840   -3.1870 C   0  0  0  0  0  0  0  0  0  0  0  0
   13.7130  -12.5350   -3.1970 N   0  0  0  0  0  0  0  0  0  0  0  0
   13.4120  -11.5310   -2.3490 C   0  0  0  0  0  0  0  0  0  0  0  0
   12.4260  -11.4780   -1.4380 N   0  0  0  0  0  0  0  0  0  0  0  0
   11.7090  -12.6120   -1.4500 C   0  0  0  0  0  0  0  0  0  0  0  0
   11.8960  -13.7270   -2.2570 C   0  0  0  0  0  0  0  0  0  0  0  0
   10.9400  -14.6910   -1.9610 N   0  0  0  0  0  0  0  0  0  0  0  0
   10.2050  -14.1680   -1.0030 C   0  0  0  0  0  0  0  0  0  0  0  0
   10.6340  -12.9160   -0.6630 N   0  0  0  0  0  0  0  0  0  0  0  0
   10.0400  -12.0640    0.3470 C   0  0  0  0  0  0  0  0  0  0  0  0
    8.5410  -12.3150    0.4910 C   0  0  0  0  0  0  0  0  0  0  0  0
    7.7100  -11.0320    0.5470 C   0  0  0  0  0  0  0  0  0  0  0  0
    6.3810  -11.1090    1.3120 C   0  0  0  0  0  0  0  0  0  0  0  0
    5.9800  -12.5160    1.7410 C   0  0  0  0  0  0  0  0  0  0  0  0
    5.1830  -12.4630    2.9160 O   0  0  0  0  0  0  0  0  0  0  0  0
   13.7479  -15.9754   -2.4701 H   0  0  0  0  0  0  0  0  0  0  0  0
   13.0762  -16.7763   -3.9308 H   0  0  0  0  0  0  0  0  0  0  0  0
   14.7722  -16.1846   -3.9308 H   0  0  0  0  0  0  0  0  0  0  0  0
   12.0274  -14.0059   -5.5692 H   0  0  0  0  0  0  0  0  0  0  0  0
   13.7806  -13.9399   -5.9547 H   0  0  0  0  0  0  0  0  0  0  0  0
   12.9197  -15.5165   -5.9547 H   0  0  0  0  0  0  0  0  0  0  0  0
   14.0561  -10.6415   -2.4110 H   0  0  0  0  0  0  0  0  0  0  0  0
    9.3500  -14.6764   -0.5334 H   0  0  0  0  0  0  0  0  0  0  0  0
   10.5285  -12.2625    1.3124 H   0  0  0  0  0  0  0  0  0  0  0  0
   10.1833  -11.0178    0.0389 H   0  0  0  0  0  0  0  0  0  0  0  0
    8.2035  -12.9111   -0.3697 H   0  0  0  0  0  0  0  0  0  0  0  0
    8.3911  -12.8395    1.4462 H   0  0  0  0  0  0  0  0  0  0  0  0
    8.3258  -10.2556    1.0244 H   0  0  0  0  0  0  0  0  0  0  0  0
    7.4334  -10.8188   -0.4961 H   0  0  0  0  0  0  0  0  0  0  0  0
    6.4673  -10.4860    2.2144 H   0  0  0  0  0  0  0  0  0  0  0  0
    5.6008  -10.7581    0.6205 H   0  0  0  0  0  0  0  0  0  0  0  0
    5.4048  -12.9920    0.9331 H   0  0  0  0  0  0  0  0  0  0  0  0
    6.8886  -13.0998    1.9500 H   0  0  0  0  0  0  0  0  0  0  0  0
    5.6230  -11.8420    3.5240 H   0  0  0  0  0  0  0  0  0  0  0  0
  1  2  1  0
  2  3  1  0
  2  4  1  0
  4  5  2  0
  5  6  1  0
  6  7  2  0
  7  8  1  0
  8  9  2  0
  9 10  1  0
 10 11  2  0
 11 12  1  0
 12 13  1  0
 13 14  1  0
 14 15  1  0
 15 16  1  0
 16 17  1  0
 17 18  1  0
  9  4  1  0
 12  8  1  0
  1 19  1  0
  1 20  1  0
  1 21  1  0
  3 22  1  0
  3 23  1  0
  3 24  1  0
  6 25  1  0
 11 26  1  0
 13 27  1  0
 13 28  1  0
 14 29  1  0
 14 30  1  0
 15 31  1  0
 15 32  1  0
 16 33  1  0
 16 34  1  0
 17 35  1  0
 17 36  1  0
 18 37  1  0
M  END
>  <meeko>  (9) 
{"is_sidechain": [false], "free_energy": -4.465, "intermolecular_energy": -6.666, "internal_energy": -0.266}

$$$$
