LIB_OFMFURWBSVOBBK__M_PUB_ALL__e8__s20260927
     RDKit          3D

 23 24  0  0  0  0  0  0  0  0999 V2000
   -8.2910  -22.8570    6.1930 O   0  0  0  0  0  0  0  0  0  0  0  0
   -9.2430  -23.5210    6.5590 C   0  0  0  0  0  0  0  0  0  0  0  0
  -10.1050  -23.2510    7.7610 C   0  0  0  0  0  0  0  0  0  0  0  0
  -11.3070  -24.1440    7.5870 N   0  0  0  0  0  0  0  0  0  0  0  0
  -11.8140  -24.7110    8.8490 C   0  0  0  0  0  0  0  0  0  0  0  0
  -12.3940  -25.9860    8.8190 C   0  0  0  0  0  0  0  0  0  0  0  0
  -12.8870  -26.5690    9.9960 C   0  0  0  0  0  0  0  0  0  0  0  0
  -12.8100  -25.8870   11.2150 C   0  0  0  0  0  0  0  0  0  0  0  0
  -13.4010  -26.6760   12.6250 Cl  0  0  0  0  0  0  0  0  0  0  0  0
  -12.2380  -24.6180   11.2250 C   0  0  0  0  0  0  0  0  0  0  0  0
  -12.1390  -23.8670   12.4530 N   0  0  0  0  0  0  0  0  0  0  0  0
  -13.0930  -23.1390   12.7380 O   0  0  0  0  0  0  0  0  0  0  0  0
  -11.0650  -23.9530   13.0590 O   0  0  0  0  0  0  0  0  0  0  0  0
  -11.7350  -24.0150   10.0580 C   0  0  0  0  0  0  0  0  0  0  0  0
  -10.8320  -25.1610    6.7260 N   0  0  0  0  0  0  0  0  0  0  0  0
   -9.7110  -24.6460    5.9340 O   0  0  0  0  0  0  0  0  0  0  0  0
   -9.5671  -23.5026    8.6870 H   0  0  0  0  0  0  0  0  0  0  0  0
  -10.3858  -22.1903    7.8385 H   0  0  0  0  0  0  0  0  0  0  0  0
  -12.0630  -23.6070    7.1290 H   0  0  0  0  0  0  0  0  0  0  0  0
  -12.4632  -26.5330    7.8672 H   0  0  0  0  0  0  0  0  0  0  0  0
  -13.3382  -27.5716    9.9600 H   0  0  0  0  0  0  0  0  0  0  0  0
  -11.2865  -23.0113   10.0966 H   0  0  0  0  0  0  0  0  0  0  0  0
  -11.4940  -25.4410    5.9850 H   0  0  0  0  0  0  0  0  0  0  0  0
  1  2  2  0
  2  3  1  0
  3  4  1  0
  4  5  1  0
  5  6  2  0
  6  7  1  0
  7  8  2  0
  8  9  1  0
  8 10  1  0
 10 11  1  0
 11 12  2  0
 11 13  1  0
 10 14  2  0
  4 15  1  0
 15 16  1  0
 16  2  1  0
 14  5  1  0
  3 17  1  0
  3 18  1  0
  4 19  1  0
  6 20  1  0
  7 21  1  0
 14 22  1  0
 15 23  1  0
M  CHG  3   4   1  11   1  13  -1
M  END
>  <meeko>  (1) 
{"is_sidechain": [false], "free_energy": -6.362, "intermolecular_energy": -7.105, "internal_energy": -0.299}

$$$$
LIB_OFMFURWBSVOBBK__M_PUB_ALL__e8__s20260927
     RDKit          3D

 23 24  0  0  0  0  0  0  0  0999 V2000
   14.8190  -15.6010   -6.7240 O   0  0  0  0  0  0  0  0  0  0  0  0
   14.1980  -15.4030   -5.6960 C   0  0  0  0  0  0  0  0  0  0  0  0
   13.6180  -14.0900   -5.2470 C   0  0  0  0  0  0  0  0  0  0  0  0
   12.6920  -14.4410   -4.1110 N   0  0  0  0  0  0  0  0  0  0  0  0
   12.6800  -13.4470   -3.0240 C   0  0  0  0  0  0  0  0  0  0  0  0
   13.5170  -12.3300   -3.1370 C   0  0  0  0  0  0  0  0  0  0  0  0
   13.5370  -11.3540   -2.1290 C   0  0  0  0  0  0  0  0  0  0  0  0
   12.7250  -11.4810   -0.9980 C   0  0  0  0  0  0  0  0  0  0  0  0
   12.7720  -10.2290    0.1820 Cl  0  0  0  0  0  0  0  0  0  0  0  0
   11.9040  -12.6010   -0.8990 C   0  0  0  0  0  0  0  0  0  0  0  0
   11.0500  -12.7870    0.2480 N   0  0  0  0  0  0  0  0  0  0  0  0
   11.6020  -13.0950    1.3090 O   0  0  0  0  0  0  0  0  0  0  0  0
    9.8340  -12.7100    0.0420 O   0  0  0  0  0  0  0  0  0  0  0  0
   11.8660  -13.5900   -1.8980 C   0  0  0  0  0  0  0  0  0  0  0  0
   13.1920  -15.6850   -3.6590 N   0  0  0  0  0  0  0  0  0  0  0  0
   13.9050  -16.3510   -4.7520 O   0  0  0  0  0  0  0  0  0  0  0  0
   14.4139  -13.4135   -4.9022 H   0  0  0  0  0  0  0  0  0  0  0  0
   13.0936  -13.5696   -6.0620 H   0  0  0  0  0  0  0  0  0  0  0  0
   11.7320  -14.5510   -4.4800 H   0  0  0  0  0  0  0  0  0  0  0  0
   14.1623  -12.2171   -4.0207 H   0  0  0  0  0  0  0  0  0  0  0  0
   14.1980  -10.4805   -2.2297 H   0  0  0  0  0  0  0  0  0  0  0  0
   11.2051  -14.4632   -1.7942 H   0  0  0  0  0  0  0  0  0  0  0  0
   12.4660  -16.3830   -3.4330 H   0  0  0  0  0  0  0  0  0  0  0  0
  1  2  2  0
  2  3  1  0
  3  4  1  0
  4  5  1  0
  5  6  2  0
  6  7  1  0
  7  8  2  0
  8  9  1  0
  8 10  1  0
 10 11  1  0
 11 12  2  0
 11 13  1  0
 10 14  2  0
  4 15  1  0
 15 16  1  0
 16  2  1  0
 14  5  1  0
  3 17  1  0
  3 18  1  0
  4 19  1  0
  6 20  1  0
  7 21  1  0
 14 22  1  0
 15 23  1  0
M  CHG  3   4   1  11   1  13  -1
M  END
>  <meeko>  (2) 
{"is_sidechain": [false], "free_energy": -6.114, "intermolecular_energy": -6.877, "internal_energy": -0.251}

$$$$
LIB_OFMFURWBSVOBBK__M_PUB_ALL__e8__s20260927
     RDKit          3D

 23 24  0  0  0  0  0  0  0  0999 V2000
    7.0400  -11.5150    1.5920 O   0  0  0  0  0  0  0  0  0  0  0  0
    7.9120  -12.1450    1.0220 C   0  0  0  0  0  0  0  0  0  0  0  0
    9.3550  -11.7450    0.8860 C   0  0  0  0  0  0  0  0  0  0  0  0
   10.0590  -12.9850    0.3990 N   0  0  0  0  0  0  0  0  0  0  0  0
   11.1420  -12.7150   -0.5630 C   0  0  0  0  0  0  0  0  0  0  0  0
   12.0280  -11.6660   -0.2870 C   0  0  0  0  0  0  0  0  0  0  0  0
   13.0780  -11.3740   -1.1720 C   0  0  0  0  0  0  0  0  0  0  0  0
   13.2540  -12.1210   -2.3400 C   0  0  0  0  0  0  0  0  0  0  0  0
   14.5840  -11.7320   -3.3610 Cl  0  0  0  0  0  0  0  0  0  0  0  0
   12.3590  -13.1550   -2.6010 C   0  0  0  0  0  0  0  0  0  0  0  0
   12.4910  -13.9550   -3.7950 N   0  0  0  0  0  0  0  0  0  0  0  0
   13.3310  -14.8590   -3.7690 O   0  0  0  0  0  0  0  0  0  0  0  0
   11.8130  -13.6020   -4.7660 O   0  0  0  0  0  0  0  0  0  0  0  0
   11.3030  -13.4680   -1.7280 C   0  0  0  0  0  0  0  0  0  0  0  0
    9.0190  -13.7330   -0.2020 N   0  0  0  0  0  0  0  0  0  0  0  0
    7.7360  -13.3510    0.3950 O   0  0  0  0  0  0  0  0  0  0  0  0
    9.4627  -10.9279    0.1575 H   0  0  0  0  0  0  0  0  0  0  0  0
    9.7733  -11.3780    1.8349 H   0  0  0  0  0  0  0  0  0  0  0  0
   10.4470  -13.4950    1.2120 H   0  0  0  0  0  0  0  0  0  0  0  0
   11.9006  -11.0681    0.6275 H   0  0  0  0  0  0  0  0  0  0  0  0
   13.7690  -10.5491   -0.9439 H   0  0  0  0  0  0  0  0  0  0  0  0
   10.6138  -14.2936   -1.9589 H   0  0  0  0  0  0  0  0  0  0  0  0
    9.0450  -14.7450    0.0010 H   0  0  0  0  0  0  0  0  0  0  0  0
  1  2  2  0
  2  3  1  0
  3  4  1  0
  4  5  1  0
  5  6  2  0
  6  7  1  0
  7  8  2  0
  8  9  1  0
  8 10  1  0
 10 11  1  0
 11 12  2  0
 11 13  1  0
 10 14  2  0
  4 15  1  0
 15 16  1  0
 16  2  1  0
 14  5  1  0
  3 17  1  0
  3 18  1  0
  4 19  1  0
  6 20  1  0
  7 21  1  0
 14 22  1  0
 15 23  1  0
M  CHG  3   4   1  11   1  13  -1
M  END
>  <meeko>  (3) 
{"is_sidechain": [false], "free_energy": -5.866, "intermolecular_energy": -6.568, "internal_energy": -0.283}

$$$$
LIB_OFMFURWBSVOBBK__M_PUB_ALL__e8__s20260927
     RDKit          3D

 23 24  0  0  0  0  0  0  0  0999 V2000
   -6.7790  -16.3810   -9.1700 O   0  0  0  0  0  0  0  0  0  0  0  0
   -7.9480  -16.0420   -9.1660 C   0  0  0  0  0  0  0  0  0  0  0  0
   -8.8450  -15.9570   -7.9620 C   0  0  0  0  0  0  0  0  0  0  0  0
  -10.0560  -15.1920   -8.4310 N   0  0  0  0  0  0  0  0  0  0  0  0
  -11.3230  -15.6660   -7.8450 C   0  0  0  0  0  0  0  0  0  0  0  0
  -11.3500  -15.9640   -6.4770 C   0  0  0  0  0  0  0  0  0  0  0  0
  -12.5350  -16.4140   -5.8730 C   0  0  0  0  0  0  0  0  0  0  0  0
  -13.7020  -16.5750   -6.6270 C   0  0  0  0  0  0  0  0  0  0  0  0
  -15.1280  -17.0950   -5.8150 Cl  0  0  0  0  0  0  0  0  0  0  0  0
  -13.6530  -16.2810   -7.9870 C   0  0  0  0  0  0  0  0  0  0  0  0
  -14.8260  -16.4340   -8.8130 N   0  0  0  0  0  0  0  0  0  0  0  0
  -15.6580  -15.5230   -8.7730 O   0  0  0  0  0  0  0  0  0  0  0  0
  -14.9340  -17.5080   -9.4150 O   0  0  0  0  0  0  0  0  0  0  0  0
  -12.4790  -15.8260   -8.6120 C   0  0  0  0  0  0  0  0  0  0  0  0
  -10.0390  -15.3870   -9.8320 N   0  0  0  0  0  0  0  0  0  0  0  0
   -8.6680  -15.6660  -10.2690 O   0  0  0  0  0  0  0  0  0  0  0  0
   -9.1312  -16.9630   -7.6213 H   0  0  0  0  0  0  0  0  0  0  0  0
   -8.3497  -15.4656   -7.1116 H   0  0  0  0  0  0  0  0  0  0  0  0
   -9.9320  -14.1910   -8.2040 H   0  0  0  0  0  0  0  0  0  0  0  0
  -10.4386  -15.8450   -5.8727 H   0  0  0  0  0  0  0  0  0  0  0  0
  -12.5457  -16.6420   -4.7969 H   0  0  0  0  0  0  0  0  0  0  0  0
  -12.4710  -15.5995   -9.6884 H   0  0  0  0  0  0  0  0  0  0  0  0
  -10.2620  -14.5440  -10.3860 H   0  0  0  0  0  0  0  0  0  0  0  0
  1  2  2  0
  2  3  1  0
  3  4  1  0
  4  5  1  0
  5  6  2  0
  6  7  1  0
  7  8  2  0
  8  9  1  0
  8 10  1  0
 10 11  1  0
 11 12  2  0
 11 13  1  0
 10 14  2  0
  4 15  1  0
 15 16  1  0
 16  2  1  0
 14  5  1  0
  3 17  1  0
  3 18  1  0
  4 19  1  0
  6 20  1  0
  7 21  1  0
 14 22  1  0
 15 23  1  0
M  CHG  3   4   1  11   1  13  -1
M  END
>  <meeko>  (4) 
{"is_sidechain": [false], "free_energy": -5.732, "intermolecular_energy": -6.419, "internal_energy": -0.282}

$$$$
LIB_OFMFURWBSVOBBK__M_PUB_ALL__e8__s20260927
     RDKit          3D

 23 24  0  0  0  0  0  0  0  0999 V2000
   10.6950  -14.4900   -7.6720 O   0  0  0  0  0  0  0  0  0  0  0  0
   11.5120  -14.2480   -6.8030 C   0  0  0  0  0  0  0  0  0  0  0  0
   11.2390  -14.1490   -5.3270 C   0  0  0  0  0  0  0  0  0  0  0  0
   12.5980  -14.1610   -4.6770 N   0  0  0  0  0  0  0  0  0  0  0  0
   12.7010  -13.2860   -3.4960 C   0  0  0  0  0  0  0  0  0  0  0  0
   13.6200  -12.2300   -3.5300 C   0  0  0  0  0  0  0  0  0  0  0  0
   13.7500  -11.3670   -2.4310 C   0  0  0  0  0  0  0  0  0  0  0  0
   12.9680  -11.5490   -1.2860 C   0  0  0  0  0  0  0  0  0  0  0  0
   13.1540  -10.4330    0.0100 Cl  0  0  0  0  0  0  0  0  0  0  0  0
   12.0660  -12.6090   -1.2670 C   0  0  0  0  0  0  0  0  0  0  0  0
   11.2380  -12.8470   -0.1100 N   0  0  0  0  0  0  0  0  0  0  0  0
   10.0720  -12.4450   -0.1680 O   0  0  0  0  0  0  0  0  0  0  0  0
   11.8000  -13.3490    0.8700 O   0  0  0  0  0  0  0  0  0  0  0  0
   11.9160  -13.4840   -2.3580 C   0  0  0  0  0  0  0  0  0  0  0  0
   13.4560  -13.7220   -5.7130 N   0  0  0  0  0  0  0  0  0  0  0  0
   12.8470  -14.0230   -7.0120 O   0  0  0  0  0  0  0  0  0  0  0  0
   10.7073  -13.2146   -5.0941 H   0  0  0  0  0  0  0  0  0  0  0  0
   10.6025  -14.9715   -4.9686 H   0  0  0  0  0  0  0  0  0  0  0  0
   12.8320  -15.1300   -4.4020 H   0  0  0  0  0  0  0  0  0  0  0  0
   14.2435  -12.0761   -4.4231 H   0  0  0  0  0  0  0  0  0  0  0  0
   14.4738  -10.5396   -2.4706 H   0  0  0  0  0  0  0  0  0  0  0  0
   11.1920  -14.3110   -2.3156 H   0  0  0  0  0  0  0  0  0  0  0  0
   14.3480  -14.2380   -5.7810 H   0  0  0  0  0  0  0  0  0  0  0  0
  1  2  2  0
  2  3  1  0
  3  4  1  0
  4  5  1  0
  5  6  2  0
  6  7  1  0
  7  8  2  0
  8  9  1  0
  8 10  1  0
 10 11  1  0
 11 12  2  0
 11 13  1  0
 10 14  2  0
  4 15  1  0
 15 16  1  0
 16  2  1  0
 14  5  1  0
  3 17  1  0
  3 18  1  0
  4 19  1  0
  6 20  1  0
  7 21  1  0
 14 22  1  0
 15 23  1  0
M  CHG  3   4   1  11   1  13  -1
M  END
>  <meeko>  (5) 
{"is_sidechain": [false], "free_energy": -5.706, "intermolecular_energy": -6.397, "internal_energy": -0.276}

$$$$
LIB_OFMFURWBSVOBBK__M_PUB_ALL__e8__s20260927
     RDKit          3D

 23 24  0  0  0  0  0  0  0  0999 V2000
   13.7890  -11.8410   -3.9860 O   0  0  0  0  0  0  0  0  0  0  0  0
   12.9880  -11.8780   -3.0700 C   0  0  0  0  0  0  0  0  0  0  0  0
   11.7390  -12.7130   -3.0130 C   0  0  0  0  0  0  0  0  0  0  0  0
   11.2910  -12.6490   -1.5760 N   0  0  0  0  0  0  0  0  0  0  0  0
    9.8270  -12.6050   -1.4100 C   0  0  0  0  0  0  0  0  0  0  0  0
    9.0290  -12.6040   -2.5610 C   0  0  0  0  0  0  0  0  0  0  0  0
    7.6300  -12.5680   -2.4530 C   0  0  0  0  0  0  0  0  0  0  0  0
    7.0130  -12.5300   -1.1980 C   0  0  0  0  0  0  0  0  0  0  0  0
    5.2930  -12.5240   -1.1390 Cl  0  0  0  0  0  0  0  0  0  0  0  0
    7.8230  -12.5230   -0.0660 C   0  0  0  0  0  0  0  0  0  0  0  0
    7.2400  -12.4790    1.2530 N   0  0  0  0  0  0  0  0  0  0  0  0
    7.0330  -13.5630    1.8060 O   0  0  0  0  0  0  0  0  0  0  0  0
    6.9150  -11.3610    1.6690 O   0  0  0  0  0  0  0  0  0  0  0  0
    9.2260  -12.5620   -0.1500 C   0  0  0  0  0  0  0  0  0  0  0  0
   11.8930  -11.4590   -1.1030 N   0  0  0  0  0  0  0  0  0  0  0  0
   13.0810  -11.1600   -1.9070 O   0  0  0  0  0  0  0  0  0  0  0  0
   10.9665  -12.2986   -3.6774 H   0  0  0  0  0  0  0  0  0  0  0  0
   11.9182  -13.7467   -3.3438 H   0  0  0  0  0  0  0  0  0  0  0  0
   11.6650  -13.4690   -1.0680 H   0  0  0  0  0  0  0  0  0  0  0  0
    9.5008  -12.6316   -3.5543 H   0  0  0  0  0  0  0  0  0  0  0  0
    7.0130  -12.5697   -3.3637 H   0  0  0  0  0  0  0  0  0  0  0  0
    9.8406  -12.5587    0.7623 H   0  0  0  0  0  0  0  0  0  0  0  0
   12.2990  -11.5290   -0.1560 H   0  0  0  0  0  0  0  0  0  0  0  0
  1  2  2  0
  2  3  1  0
  3  4  1  0
  4  5  1  0
  5  6  2  0
  6  7  1  0
  7  8  2  0
  8  9  1  0
  8 10  1  0
 10 11  1  0
 11 12  2  0
 11 13  1  0
 10 14  2  0
  4 15  1  0
 15 16  1  0
 16  2  1  0
 14  5  1  0
  3 17  1  0
  3 18  1  0
  4 19  1  0
  6 20  1  0
  7 21  1  0
 14 22  1  0
 15 23  1  0
M  CHG  3   4   1  11   1  13  -1
M  END
>  <meeko>  (6) 
{"is_sidechain": [false], "free_energy": -5.625, "intermolecular_energy": -6.284, "internal_energy": -0.298}

$$$$
LIB_OFMFURWBSVOBBK__M_PUB_ALL__e8__s20260927
     RDKit          3D

 23 24  0  0  0  0  0  0  0  0999 V2000
    6.3470  -16.2170    0.0430 O   0  0  0  0  0  0  0  0  0  0  0  0
    6.9220  -15.1680    0.2740 C   0  0  0  0  0  0  0  0  0  0  0  0
    7.9180  -14.4840   -0.6210 C   0  0  0  0  0  0  0  0  0  0  0  0
    8.0750  -13.1010   -0.0440 N   0  0  0  0  0  0  0  0  0  0  0  0
    9.4490  -12.5750   -0.1260 C   0  0  0  0  0  0  0  0  0  0  0  0
    9.9630  -11.8870    0.9800 C   0  0  0  0  0  0  0  0  0  0  0  0
   11.2690  -11.3720    0.9500 C   0  0  0  0  0  0  0  0  0  0  0  0
   12.0730  -11.5340   -0.1820 C   0  0  0  0  0  0  0  0  0  0  0  0
   13.6750  -10.9090   -0.1360 Cl  0  0  0  0  0  0  0  0  0  0  0  0
   11.5420  -12.2130   -1.2750 C   0  0  0  0  0  0  0  0  0  0  0  0
   12.3250  -12.4050   -2.4710 N   0  0  0  0  0  0  0  0  0  0  0  0
   12.3770  -11.4570   -3.2590 O   0  0  0  0  0  0  0  0  0  0  0  0
   12.7970  -13.5350   -2.6400 O   0  0  0  0  0  0  0  0  0  0  0  0
   10.2390  -12.7410   -1.2660 C   0  0  0  0  0  0  0  0  0  0  0  0
    7.6710  -13.2640    1.3020 N   0  0  0  0  0  0  0  0  0  0  0  0
    6.7620  -14.4090    1.4030 O   0  0  0  0  0  0  0  0  0  0  0  0
    8.8791  -15.0190   -0.6099 H   0  0  0  0  0  0  0  0  0  0  0  0
    7.5835  -14.4592   -1.6686 H   0  0  0  0  0  0  0  0  0  0  0  0
    7.4350  -12.4550   -0.5370 H   0  0  0  0  0  0  0  0  0  0  0  0
    9.3408  -11.7493    1.8766 H   0  0  0  0  0  0  0  0  0  0  0  0
   11.6633  -10.8358    1.8258 H   0  0  0  0  0  0  0  0  0  0  0  0
    9.8476  -13.2767   -2.1434 H   0  0  0  0  0  0  0  0  0  0  0  0
    7.0810  -12.5010    1.6690 H   0  0  0  0  0  0  0  0  0  0  0  0
  1  2  2  0
  2  3  1  0
  3  4  1  0
  4  5  1  0
  5  6  2  0
  6  7  1  0
  7  8  2  0
  8  9  1  0
  8 10  1  0
 10 11  1  0
 11 12  2  0
 11 13  1  0
 10 14  2  0
  4 15  1  0
 15 16  1  0
 16  2  1  0
 14  5  1  0
  3 17  1  0
  3 18  1  0
  4 19  1  0
  6 20  1  0
  7 21  1  0
 14 22  1  0
 15 23  1  0
M  CHG  3   4   1  11   1  13  -1
M  END
>  <meeko>  (7) 
{"is_sidechain": [false], "free_energy": -5.516, "intermolecular_energy": -6.166, "internal_energy": -0.294}

$$$$
LIB_OFMFURWBSVOBBK__M_PUB_ALL__e8__s20260927
     RDKit          3D

 23 24  0  0  0  0  0  0  0  0999 V2000
  -14.5420  -17.3020   -4.2270 O   0  0  0  0  0  0  0  0  0  0  0  0
  -14.0780  -17.0830   -5.3310 C   0  0  0  0  0  0  0  0  0  0  0  0
  -12.7820  -16.3810   -5.6290 C   0  0  0  0  0  0  0  0  0  0  0  0
  -12.5160  -16.6550   -7.0860 N   0  0  0  0  0  0  0  0  0  0  0  0
  -11.9050  -15.5210   -7.8030 C   0  0  0  0  0  0  0  0  0  0  0  0
  -12.5000  -14.2600   -7.6790 C   0  0  0  0  0  0  0  0  0  0  0  0
  -11.9510  -13.1490   -8.3400 C   0  0  0  0  0  0  0  0  0  0  0  0
  -10.8060  -13.2850   -9.1310 C   0  0  0  0  0  0  0  0  0  0  0  0
  -10.1660  -11.8750   -9.8820 Cl  0  0  0  0  0  0  0  0  0  0  0  0
  -10.2330  -14.5480   -9.2480 C   0  0  0  0  0  0  0  0  0  0  0  0
   -9.0540  -14.7470  -10.0560 N   0  0  0  0  0  0  0  0  0  0  0  0
   -9.2270  -14.8620  -11.2720 O   0  0  0  0  0  0  0  0  0  0  0  0
   -7.9880  -14.8760   -9.4430 O   0  0  0  0  0  0  0  0  0  0  0  0
  -10.7630  -15.6740   -8.5930 C   0  0  0  0  0  0  0  0  0  0  0  0
  -13.8010  -16.9490   -7.6000 N   0  0  0  0  0  0  0  0  0  0  0  0
  -14.6570  -17.4450   -6.5190 O   0  0  0  0  0  0  0  0  0  0  0  0
  -12.8780  -15.2999   -5.4502 H   0  0  0  0  0  0  0  0  0  0  0  0
  -11.9629  -16.7352   -4.9858 H   0  0  0  0  0  0  0  0  0  0  0  0
  -11.8970  -17.4800   -7.1670 H   0  0  0  0  0  0  0  0  0  0  0  0
  -13.4018  -14.1386   -7.0609 H   0  0  0  0  0  0  0  0  0  0  0  0
  -12.4262  -12.1626   -8.2344 H   0  0  0  0  0  0  0  0  0  0  0  0
  -10.2860  -16.6593   -8.7010 H   0  0  0  0  0  0  0  0  0  0  0  0
  -13.8280  -17.7410   -8.2620 H   0  0  0  0  0  0  0  0  0  0  0  0
  1  2  2  0
  2  3  1  0
  3  4  1  0
  4  5  1  0
  5  6  2  0
  6  7  1  0
  7  8  2  0
  8  9  1  0
  8 10  1  0
 10 11  1  0
 11 12  2  0
 11 13  1  0
 10 14  2  0
  4 15  1  0
 15 16  1  0
 16  2  1  0
 14  5  1  0
  3 17  1  0
  3 18  1  0
  4 19  1  0
  6 20  1  0
  7 21  1  0
 14 22  1  0
 15 23  1  0
M  CHG  3   4   1  11   1  13  -1
M  END
>  <meeko>  (8) 
{"is_sidechain": [false], "free_energy": -5.313, "intermolecular_energy": -5.935, "internal_energy": -0.298}

$$$$
LIB_OFMFURWBSVOBBK__M_PUB_ALL__e8__s20260927
     RDKit          3D

 23 24  0  0  0  0  0  0  0  0999 V2000
   11.2970  -12.6660    1.6580 O   0  0  0  0  0  0  0  0  0  0  0  0
   11.5460  -12.3340    0.5130 C   0  0  0  0  0  0  0  0  0  0  0  0
   11.1310  -13.0640   -0.7340 C   0  0  0  0  0  0  0  0  0  0  0  0
   11.3930  -12.0960   -1.8590 N   0  0  0  0  0  0  0  0  0  0  0  0
   11.8850  -12.7340   -3.0920 C   0  0  0  0  0  0  0  0  0  0  0  0
   13.2520  -12.6470   -3.3850 C   0  0  0  0  0  0  0  0  0  0  0  0
   13.7680  -13.2440   -4.5460 C   0  0  0  0  0  0  0  0  0  0  0  0
   12.9270  -13.9310   -5.4270 C   0  0  0  0  0  0  0  0  0  0  0  0
   13.6320  -14.6690   -6.8120 Cl  0  0  0  0  0  0  0  0  0  0  0  0
   11.5710  -14.0010   -5.1230 C   0  0  0  0  0  0  0  0  0  0  0  0
   10.6570  -14.6930   -6.0000 N   0  0  0  0  0  0  0  0  0  0  0  0
   10.2900  -14.0860   -7.0110 O   0  0  0  0  0  0  0  0  0  0  0  0
   10.2540  -15.7940   -5.6100 O   0  0  0  0  0  0  0  0  0  0  0  0
   11.0320  -13.4140   -3.9650 C   0  0  0  0  0  0  0  0  0  0  0  0
   12.3650  -11.2230   -1.3140 N   0  0  0  0  0  0  0  0  0  0  0  0
   12.2530  -11.2190    0.1470 O   0  0  0  0  0  0  0  0  0  0  0  0
   11.7288  -13.9782   -0.8637 H   0  0  0  0  0  0  0  0  0  0  0  0
   10.0776  -13.3787   -0.6970 H   0  0  0  0  0  0  0  0  0  0  0  0
   10.5220  -11.5790   -2.0690 H   0  0  0  0  0  0  0  0  0  0  0  0
   13.9247  -12.1080   -2.7017 H   0  0  0  0  0  0  0  0  0  0  0  0
   14.8435  -13.1707   -4.7647 H   0  0  0  0  0  0  0  0  0  0  0  0
    9.9559  -13.4888   -3.7496 H   0  0  0  0  0  0  0  0  0  0  0  0
   12.2180  -10.2250   -1.5330 H   0  0  0  0  0  0  0  0  0  0  0  0
  1  2  2  0
  2  3  1  0
  3  4  1  0
  4  5  1  0
  5  6  2  0
  6  7  1  0
  7  8  2  0
  8  9  1  0
  8 10  1  0
 10 11  1  0
 11 12  2  0
 11 13  1  0
 10 14  2  0
  4 15  1  0
 15 16  1  0
 16  2  1  0
 14  5  1  0
  3 17  1  0
  3 18  1  0
  4 19  1  0
  6 20  1  0
  7 21  1  0
 14 22  1  0
 15 23  1  0
M  CHG  3   4   1  11   1  13  -1
M  END
>  <meeko>  (9) 
{"is_sidechain": [false], "free_energy": -5.253, "intermolecular_energy": -5.872, "internal_energy": -0.294}

$$$$
