LIB_IFIQVSCCFRXSJV__M_PUB_ALL__e8__s20260927
     RDKit          3D

 83 87  0  0  0  0  0  0  0  0999 V2000
    1.3680  -13.4120   -0.9090 C   0  0  0  0  0  0  0  0  0  0  0  0
    1.6920  -14.5950   -1.8450 C   0  0  0  0  0  0  0  0  0  0  0  0
    0.9230  -15.8240   -1.3100 C   0  0  0  0  0  0  0  0  0  0  0  0
    1.2130  -14.3130   -3.2810 C   0  0  0  0  0  0  0  0  0  0  0  0
    1.9390  -13.1370   -3.9220 C   0  0  0  0  0  0  0  0  0  0  0  0
    3.4860  -13.2590   -3.9230 C   0  0  2  0  0  0  0  0  0  0  0  0
    3.8580  -11.7630   -4.2200 C   0  0  0  0  0  0  0  0  0  0  0  0
    4.2700  -11.0820   -3.2370 O   0  0  0  0  0  0  0  0  0  0  0  0
    3.6670  -11.3760   -5.4100 O   0  0  0  0  0  0  0  0  0  0  0  0
    3.9520  -14.1750   -5.0620 C   0  0  0  0  0  0  0  0  0  0  0  0
    5.4740  -14.1450   -5.2080 C   0  0  0  0  0  0  0  0  0  0  0  0
    6.2550  -14.5260   -3.9180 C   0  0  2  0  0  0  0  0  0  0  0  0
    6.2870  -16.0890   -3.9020 C   0  0  0  0  0  0  0  0  0  0  0  0
    5.5630  -14.0910   -2.6090 C   0  0  0  0  0  0  0  0  0  0  0  0
    6.2860  -13.9270   -1.4800 C   0  0  0  0  0  0  0  0  0  0  0  0
    7.7750  -14.0650   -1.3600 C   0  0  0  0  0  0  0  0  0  0  0  0
    8.5220  -14.4240   -2.6690 C   0  0  2  0  0  0  0  0  0  0  0  0
   10.0920  -14.1740   -2.6240 C   0  0  1  0  0  0  0  0  0  0  0  0
   10.4440  -12.6820   -2.3960 C   0  0  0  0  0  0  0  0  0  0  0  0
   10.6830  -14.9870   -1.4350 C   0  0  0  0  0  0  0  0  0  0  0  0
   12.2050  -15.0900   -1.4510 C   0  0  1  0  0  0  0  0  0  0  0  0
   12.6410  -15.9580   -0.3910 O   0  0  0  0  0  0  0  0  0  0  0  0
   12.7220  -15.6780   -2.7690 C   0  0  2  0  0  0  0  0  0  0  0  0
   14.1560  -15.7370   -2.6930 O   0  0  0  0  0  0  0  0  0  0  0  0
   12.2530  -14.8980   -4.0310 C   0  0  2  0  0  0  0  0  0  0  0  0
   12.6380  -15.7660   -5.2650 C   0  0  0  0  0  0  0  0  0  0  0  0
   12.9980  -13.5450   -4.1720 C   0  0  0  0  0  0  0  0  0  0  0  0
   14.1670  -13.6500   -4.9830 O   0  0  0  0  0  0  0  0  0  0  0  0
   10.6850  -14.7550   -3.9630 C   0  0  2  0  0  0  0  0  0  0  0  0
   10.0440  -14.0730   -5.1890 C   0  0  0  0  0  0  0  0  0  0  0  0
    8.5300  -14.3050   -5.2310 C   0  0  0  0  0  0  0  0  0  0  0  0
    7.7600  -13.8940   -3.9430 C   0  0  1  0  0  0  0  0  0  0  0  0
    7.6820  -12.3330   -3.9380 C   0  0  0  0  0  0  0  0  0  0  0  0
    4.0550  -13.7500   -2.5670 C   0  0  2  0  0  0  0  0  0  0  0  0
    3.2170  -14.8710   -1.8670 C   0  0  2  0  0  0  0  0  0  0  0  0
    3.4380  -16.1540   -2.4630 O   0  0  0  0  0  0  0  0  0  0  0  0
    1.4572  -13.7377    0.1379 H   0  0  0  0  0  0  0  0  0  0  0  0
    2.0742  -12.5902   -1.0988 H   0  0  0  0  0  0  0  0  0  0  0  0
    0.3417  -13.0647   -1.0988 H   0  0  0  0  0  0  0  0  0  0  0  0
    0.9310  -15.8112   -0.2101 H   0  0  0  0  0  0  0  0  0  0  0  0
   -0.1161  -15.7914   -1.6695 H   0  0  0  0  0  0  0  0  0  0  0  0
    1.4067  -16.7442   -1.6695 H   0  0  0  0  0  0  0  0  0  0  0  0
    1.3875  -15.2103   -3.8929 H   0  0  0  0  0  0  0  0  0  0  0  0
    0.1444  -14.0567   -3.2308 H   0  0  0  0  0  0  0  0  0  0  0  0
    1.6004  -13.0515   -4.9651 H   0  0  0  0  0  0  0  0  0  0  0  0
    1.6954  -12.2514   -3.3167 H   0  0  0  0  0  0  0  0  0  0  0  0
    3.6323  -15.2054   -4.8474 H   0  0  0  0  0  0  0  0  0  0  0  0
    3.5048  -13.8179   -6.0014 H   0  0  0  0  0  0  0  0  0  0  0  0
    5.7567  -14.8520   -6.0018 H   0  0  0  0  0  0  0  0  0  0  0  0
    5.7448  -13.1046   -5.4410 H   0  0  0  0  0  0  0  0  0  0  0  0
    6.2943  -16.4450   -2.8612 H   0  0  0  0  0  0  0  0  0  0  0  0
    5.3967  -16.4793   -4.4168 H   0  0  0  0  0  0  0  0  0  0  0  0
    7.1926  -16.4425   -4.4168 H   0  0  0  0  0  0  0  0  0  0  0  0
    5.7326  -13.6687   -0.5651 H   0  0  0  0  0  0  0  0  0  0  0  0
    8.1751  -13.1081   -0.9937 H   0  0  0  0  0  0  0  0  0  0  0  0
    7.9446  -14.9093   -0.6757 H   0  0  0  0  0  0  0  0  0  0  0  0
    8.4894  -15.5191   -2.7671 H   0  0  0  0  0  0  0  0  0  0  0  0
   10.4922  -12.4775   -1.3163 H   0  0  0  0  0  0  0  0  0  0  0  0
   11.4189  -12.4610   -2.8550 H   0  0  0  0  0  0  0  0  0  0  0  0
    9.6706  -12.0485   -2.8550 H   0  0  0  0  0  0  0  0  0  0  0  0
   10.3789  -14.4992   -0.4971 H   0  0  0  0  0  0  0  0  0  0  0  0
   10.2932  -16.0117   -1.5245 H   0  0  0  0  0  0  0  0  0  0  0  0
   12.6007  -14.0711   -1.3269 H   0  0  0  0  0  0  0  0  0  0  0  0
   11.9420  -16.6270   -0.2670 H   0  0  0  0  0  0  0  0  0  0  0  0
   12.2939  -16.6840   -2.8901 H   0  0  0  0  0  0  0  0  0  0  0  0
   14.3730  -15.2450   -1.8730 H   0  0  0  0  0  0  0  0  0  0  0  0
   13.0619  -16.7217   -4.9231 H   0  0  0  0  0  0  0  0  0  0  0  0
   11.7410  -15.9589   -5.8718 H   0  0  0  0  0  0  0  0  0  0  0  0
   13.3830  -15.2306   -5.8718 H   0  0  0  0  0  0  0  0  0  0  0  0
   12.3162  -12.8121   -4.6281 H   0  0  0  0  0  0  0  0  0  0  0  0
   13.3143  -13.2298   -3.1667 H   0  0  0  0  0  0  0  0  0  0  0  0
   14.8960  -13.2490   -4.4600 H   0  0  0  0  0  0  0  0  0  0  0  0
   10.3867  -15.8136   -3.9805 H   0  0  0  0  0  0  0  0  0  0  0  0
   10.2389  -12.9915   -5.1394 H   0  0  0  0  0  0  0  0  0  0  0  0
   10.4859  -14.5085   -6.0973 H   0  0  0  0  0  0  0  0  0  0  0  0
    8.1203  -13.7258   -6.0716 H   0  0  0  0  0  0  0  0  0  0  0  0
    8.3908  -15.3911   -5.3359 H   0  0  0  0  0  0  0  0  0  0  0  0
    7.6639  -11.9701   -2.8997 H   0  0  0  0  0  0  0  0  0  0  0  0
    8.5606  -11.9203   -4.4554 H   0  0  0  0  0  0  0  0  0  0  0  0
    6.7666  -12.0100   -4.4554 H   0  0  0  0  0  0  0  0  0  0  0  0
    3.9517  -12.8667   -1.9196 H   0  0  0  0  0  0  0  0  0  0  0  0
    3.5769  -14.8690   -0.8275 H   0  0  0  0  0  0  0  0  0  0  0  0
    4.0670  -16.6000   -1.8720 H   0  0  0  0  0  0  0  0  0  0  0  0
  1  2  1  0
  2  3  1  0
  2  4  1  0
  4  5  1  0
  5  6  1  0
  6  7  1  6
  7  8  2  0
  7  9  1  0
  6 10  1  0
 10 11  1  0
 11 12  1  0
 12 13  1  1
 12 14  1  0
 14 15  2  0
 15 16  1  0
 16 17  1  0
 17 18  1  0
 18 19  1  1
 18 20  1  0
 20 21  1  0
 21 22  1  0
 21 23  1  0
 23 24  1  0
 23 25  1  0
 25 26  1  6
 25 27  1  0
 27 28  1  0
 25 29  1  0
 29 30  1  0
 30 31  1  0
 31 32  1  0
 32 33  1  1
 14 34  1  0
 34 35  1  0
 35 36  1  0
 35  2  1  0
 34  6  1  0
 32 12  1  0
 32 17  1  0
 29 18  1  0
  1 37  1  0
  1 38  1  0
  1 39  1  0
  3 40  1  0
  3 41  1  0
  3 42  1  0
  4 43  1  0
  4 44  1  0
  5 45  1  0
  5 46  1  0
 10 47  1  0
 10 48  1  0
 11 49  1  0
 11 50  1  0
 13 51  1  0
 13 52  1  0
 13 53  1  0
 15 54  1  0
 16 55  1  0
 16 56  1  0
 17 57  1  6
 19 58  1  0
 19 59  1  0
 19 60  1  0
 20 61  1  0
 20 62  1  0
 21 63  1  1
 22 64  1  0
 23 65  1  6
 24 66  1  0
 26 67  1  0
 26 68  1  0
 26 69  1  0
 27 70  1  0
 27 71  1  0
 28 72  1  0
 29 73  1  6
 30 74  1  0
 30 75  1  0
 31 76  1  0
 31 77  1  0
 33 78  1  0
 33 79  1  0
 33 80  1  0
 34 81  1  1
 35 82  1  1
 36 83  1  0
M  CHG  1   9  -1
M  END
>  <meeko>  (1) 
{"is_sidechain": [false], "free_energy": -8.208, "intermolecular_energy": -10.127, "internal_energy": -0.439}

$$$$
LIB_IFIQVSCCFRXSJV__M_PUB_ALL__e8__s20260927
     RDKit          3D

 83 87  0  0  0  0  0  0  0  0999 V2000
   -2.2960  -18.9460    4.7080 C   0  0  0  0  0  0  0  0  0  0  0  0
   -2.9610  -17.5790    4.4440 C   0  0  0  0  0  0  0  0  0  0  0  0
   -4.4790  -17.8300    4.3020 C   0  0  0  0  0  0  0  0  0  0  0  0
   -2.7390  -16.6170    5.6260 C   0  0  0  0  0  0  0  0  0  0  0  0
   -1.2700  -16.2680    5.8320 C   0  0  0  0  0  0  0  0  0  0  0  0
   -0.5630  -15.6940    4.5760 C   0  0  2  0  0  0  0  0  0  0  0  0
    0.9310  -15.8840    5.0170 C   0  0  0  0  0  0  0  0  0  0  0  0
    1.5680  -16.8180    4.4500 O   0  0  0  0  0  0  0  0  0  0  0  0
    1.3370  -15.1060    5.9290 O   0  0  0  0  0  0  0  0  0  0  0  0
   -0.8980  -14.2060    4.4050 C   0  0  0  0  0  0  0  0  0  0  0  0
   -0.0530  -13.5730    3.2980 C   0  0  0  0  0  0  0  0  0  0  0  0
   -0.1750  -14.2690    1.9130 C   0  0  2  0  0  0  0  0  0  0  0  0
   -1.4680  -13.6740    1.2650 C   0  0  0  0  0  0  0  0  0  0  0  0
   -0.3900  -15.7950    1.9890 C   0  0  0  0  0  0  0  0  0  0  0  0
   -0.0600  -16.5810    0.9410 C   0  0  0  0  0  0  0  0  0  0  0  0
    0.5830  -16.1230   -0.3350 C   0  0  0  0  0  0  0  0  0  0  0  0
    0.8900  -14.6070   -0.4250 C   0  0  2  0  0  0  0  0  0  0  0  0
    1.9120  -14.2070   -1.5750 C   0  0  1  0  0  0  0  0  0  0  0  0
    3.3060  -14.8530   -1.3740 C   0  0  0  0  0  0  0  0  0  0  0  0
    1.3450  -14.7150   -2.9330 C   0  0  0  0  0  0  0  0  0  0  0  0
    2.0580  -14.1430   -4.1550 C   0  0  1  0  0  0  0  0  0  0  0  0
    1.3850  -14.5730   -5.3500 O   0  0  0  0  0  0  0  0  0  0  0  0
    2.0530  -12.6090   -4.1490 C   0  0  2  0  0  0  0  0  0  0  0  0
    2.7420  -12.1630   -5.3300 O   0  0  0  0  0  0  0  0  0  0  0  0
    2.6680  -11.9840   -2.8650 C   0  0  2  0  0  0  0  0  0  0  0  0
    2.3470  -10.4620   -2.9080 C   0  0  0  0  0  0  0  0  0  0  0  0
    4.2120  -12.1270   -2.8470 C   0  0  0  0  0  0  0  0  0  0  0  0
    4.8600  -11.1270   -3.6320 O   0  0  0  0  0  0  0  0  0  0  0  0
    1.9570  -12.6320   -1.6160 C   0  0  2  0  0  0  0  0  0  0  0  0
    2.3940  -12.0580   -0.2530 C   0  0  0  0  0  0  0  0  0  0  0  0
    1.4150  -12.4500    0.8590 C   0  0  0  0  0  0  0  0  0  0  0  0
    1.1440  -13.9760    0.9970 C   0  0  1  0  0  0  0  0  0  0  0  0
    2.4080  -14.6030    1.6680 C   0  0  0  0  0  0  0  0  0  0  0  0
   -0.9000  -16.4760    3.2800 C   0  0  2  0  0  0  0  0  0  0  0  0
   -2.3900  -16.9340    3.1550 C   0  0  2  0  0  0  0  0  0  0  0  0
   -3.2500  -15.8570    2.7670 O   0  0  0  0  0  0  0  0  0  0  0  0
   -2.2156  -19.1113    5.7925 H   0  0  0  0  0  0  0  0  0  0  0  0
   -2.9068  -19.7435    4.2598 H   0  0  0  0  0  0  0  0  0  0  0  0
   -1.2915  -18.9578    4.2598 H   0  0  0  0  0  0  0  0  0  0  0  0
   -4.9333  -17.9051    5.3010 H   0  0  0  0  0  0  0  0  0  0  0  0
   -4.9387  -16.9957    3.7520 H   0  0  0  0  0  0  0  0  0  0  0  0
   -4.6457  -18.7679    3.7520 H   0  0  0  0  0  0  0  0  0  0  0  0
   -3.2977  -15.6890    5.4343 H   0  0  0  0  0  0  0  0  0  0  0  0
   -3.0913  -17.1229    6.5370 H   0  0  0  0  0  0  0  0  0  0  0  0
   -1.2040  -15.5197    6.6355 H   0  0  0  0  0  0  0  0  0  0  0  0
   -0.7563  -17.2091    6.0776 H   0  0  0  0  0  0  0  0  0  0  0  0
   -1.9624  -14.1052    4.1462 H   0  0  0  0  0  0  0  0  0  0  0  0
   -0.6783  -13.6884    5.3504 H   0  0  0  0  0  0  0  0  0  0  0  0
   -0.3663  -12.5247    3.1841 H   0  0  0  0  0  0  0  0  0  0  0  0
    0.9970  -13.6780    3.6084 H   0  0  0  0  0  0  0  0  0  0  0  0
   -2.1615  -13.3549    2.0569 H   0  0  0  0  0  0  0  0  0  0  0  0
   -1.2005  -12.8084    0.6411 H   0  0  0  0  0  0  0  0  0  0  0  0
   -1.9514  -14.4402    0.6411 H   0  0  0  0  0  0  0  0  0  0  0  0
   -0.2830  -17.6544    1.0313 H   0  0  0  0  0  0  0  0  0  0  0  0
    1.5318  -16.6676   -0.4500 H   0  0  0  0  0  0  0  0  0  0  0  0
   -0.1482  -16.3291   -1.1305 H   0  0  0  0  0  0  0  0  0  0  0  0
   -0.0257  -14.1135   -0.7828 H   0  0  0  0  0  0  0  0  0  0  0  0
    3.5138  -14.9493   -0.2981 H   0  0  0  0  0  0  0  0  0  0  0  0
    3.3193  -15.8490   -1.8406 H   0  0  0  0  0  0  0  0  0  0  0  0
    4.0745  -14.2193   -1.8406 H   0  0  0  0  0  0  0  0  0  0  0  0
    1.4387  -15.8107   -2.9590 H   0  0  0  0  0  0  0  0  0  0  0  0
    0.2992  -14.3784   -2.9876 H   0  0  0  0  0  0  0  0  0  0  0  0
    3.0967  -14.5037   -4.1254 H   0  0  0  0  0  0  0  0  0  0  0  0
    0.8950  -15.3840   -5.1230 H   0  0  0  0  0  0  0  0  0  0  0  0
    1.0078  -12.2662   -4.1499 H   0  0  0  0  0  0  0  0  0  0  0  0
    2.5800  -12.8760   -5.9850 H   0  0  0  0  0  0  0  0  0  0  0  0
    2.2654  -10.0753   -1.8814 H   0  0  0  0  0  0  0  0  0  0  0  0
    3.1531   -9.9320   -3.4365 H   0  0  0  0  0  0  0  0  0  0  0  0
    1.3955  -10.3027   -3.4365 H   0  0  0  0  0  0  0  0  0  0  0  0
    4.5625  -12.0424   -1.8078 H   0  0  0  0  0  0  0  0  0  0  0  0
    4.4631  -13.1071   -3.2786 H   0  0  0  0  0  0  0  0  0  0  0  0
    4.2040  -10.4040   -3.7440 H   0  0  0  0  0  0  0  0  0  0  0  0
    0.9183  -12.3141   -1.7891 H   0  0  0  0  0  0  0  0  0  0  0  0
    3.3924  -12.4471   -0.0044 H   0  0  0  0  0  0  0  0  0  0  0  0
    2.4103  -10.9607   -0.3288 H   0  0  0  0  0  0  0  0  0  0  0  0
    1.8235  -12.0894    1.8145 H   0  0  0  0  0  0  0  0  0  0  0  0
    0.4511  -11.9922    0.5918 H   0  0  0  0  0  0  0  0  0  0  0  0
    2.3056  -14.5522    2.7620 H   0  0  0  0  0  0  0  0  0  0  0  0
    2.5050  -15.6537    1.3572 H   0  0  0  0  0  0  0  0  0  0  0  0
    3.3033  -14.0445    1.3572 H   0  0  0  0  0  0  0  0  0  0  0  0
   -0.3219  -17.4050    3.3928 H   0  0  0  0  0  0  0  0  0  0  0  0
   -2.3702  -17.7047    2.3704 H   0  0  0  0  0  0  0  0  0  0  0  0
   -3.9070  -15.7900    3.4790 H   0  0  0  0  0  0  0  0  0  0  0  0
  1  2  1  0
  2  3  1  0
  2  4  1  0
  4  5  1  0
  5  6  1  0
  6  7  1  1
  7  8  2  0
  7  9  1  0
  6 10  1  0
 10 11  1  0
 11 12  1  0
 12 13  1  6
 12 14  1  0
 14 15  2  0
 15 16  1  0
 16 17  1  0
 17 18  1  0
 18 19  1  1
 18 20  1  0
 20 21  1  0
 21 22  1  0
 21 23  1  0
 23 24  1  0
 23 25  1  0
 25 26  1  6
 25 27  1  0
 27 28  1  0
 25 29  1  0
 29 30  1  0
 30 31  1  0
 31 32  1  0
 32 33  1  1
 14 34  1  0
 34 35  1  0
 35 36  1  0
 35  2  1  0
 34  6  1  0
 32 12  1  0
 32 17  1  0
 29 18  1  0
  1 37  1  0
  1 38  1  0
  1 39  1  0
  3 40  1  0
  3 41  1  0
  3 42  1  0
  4 43  1  0
  4 44  1  0
  5 45  1  0
  5 46  1  0
 10 47  1  0
 10 48  1  0
 11 49  1  0
 11 50  1  0
 13 51  1  0
 13 52  1  0
 13 53  1  0
 15 54  1  0
 16 55  1  0
 16 56  1  0
 17 57  1  6
 19 58  1  0
 19 59  1  0
 19 60  1  0
 20 61  1  0
 20 62  1  0
 21 63  1  6
 22 64  1  0
 23 65  1  6
 24 66  1  0
 26 67  1  0
 26 68  1  0
 26 69  1  0
 27 70  1  0
 27 71  1  0
 28 72  1  0
 29 73  1  6
 30 74  1  0
 30 75  1  0
 31 76  1  0
 31 77  1  0
 33 78  1  0
 33 79  1  0
 33 80  1  0
 34 81  1  1
 35 82  1  6
 36 83  1  0
M  CHG  1   9  -1
M  END
>  <meeko>  (2) 
{"is_sidechain": [false], "free_energy": -8.138, "intermolecular_energy": -10.01, "internal_energy": -0.469}

$$$$
LIB_IFIQVSCCFRXSJV__M_PUB_ALL__e8__s20260927
     RDKit          3D

 83 87  0  0  0  0  0  0  0  0999 V2000
   -2.0530  -10.6440   -0.3240 C   0  0  0  0  0  0  0  0  0  0  0  0
   -1.1000  -10.6810    0.8880 C   0  0  0  0  0  0  0  0  0  0  0  0
   -1.3180   -9.3730    1.6810 C   0  0  0  0  0  0  0  0  0  0  0  0
   -1.4260  -11.8680    1.8140 C   0  0  0  0  0  0  0  0  0  0  0  0
   -1.2050  -13.2170    1.1410 C   0  0  0  0  0  0  0  0  0  0  0  0
    0.2160  -13.4150    0.5500 C   0  0  2  0  0  0  0  0  0  0  0  0
   -0.0690  -14.6370   -0.3920 C   0  0  0  0  0  0  0  0  0  0  0  0
    0.0960  -14.4400   -1.6310 O   0  0  0  0  0  0  0  0  0  0  0  0
   -0.4790  -15.6890    0.1810 O   0  0  0  0  0  0  0  0  0  0  0  0
    1.2090  -13.7980    1.6560 C   0  0  0  0  0  0  0  0  0  0  0  0
    2.5630  -14.1980    1.0690 C   0  0  0  0  0  0  0  0  0  0  0  0
    3.2230  -13.1150    0.1690 C   0  0  2  0  0  0  0  0  0  0  0  0
    3.9390  -12.1370    1.1560 C   0  0  0  0  0  0  0  0  0  0  0  0
    2.2170  -12.2630   -0.6350 C   0  0  0  0  0  0  0  0  0  0  0  0
    2.6090  -11.6320   -1.7630 C   0  0  0  0  0  0  0  0  0  0  0  0
    3.9680  -11.7180   -2.3930 C   0  0  0  0  0  0  0  0  0  0  0  0
    4.9890  -12.6270   -1.6630 C   0  0  2  0  0  0  0  0  0  0  0  0
    6.2590  -13.0250   -2.5330 C   0  0  1  0  0  0  0  0  0  0  0  0
    5.8760  -13.8410   -3.7940 C   0  0  0  0  0  0  0  0  0  0  0  0
    6.9570  -11.7170   -3.0080 C   0  0  0  0  0  0  0  0  0  0  0  0
    8.3500  -11.9350   -3.5910 C   0  0  1  0  0  0  0  0  0  0  0  0
    8.9550  -10.6640   -3.8830 O   0  0  0  0  0  0  0  0  0  0  0  0
    9.2700  -12.6680   -2.6070 C   0  0  2  0  0  0  0  0  0  0  0  0
   10.5520  -12.8270   -3.2370 O   0  0  0  0  0  0  0  0  0  0  0  0
    8.7060  -14.0320   -2.1170 C   0  0  2  0  0  0  0  0  0  0  0  0
    9.6200  -14.5030   -0.9480 C   0  0  0  0  0  0  0  0  0  0  0  0
    8.7880  -15.1120   -3.2270 C   0  0  0  0  0  0  0  0  0  0  0  0
   10.0800  -15.7130   -3.3070 O   0  0  0  0  0  0  0  0  0  0  0  0
    7.2460  -13.7920   -1.5730 C   0  0  2  0  0  0  0  0  0  0  0  0
    6.5680  -15.0380   -0.9680 C   0  0  0  0  0  0  0  0  0  0  0  0
    5.3390  -14.6570   -0.1350 C   0  0  0  0  0  0  0  0  0  0  0  0
    4.2780  -13.7930   -0.8770 C   0  0  1  0  0  0  0  0  0  0  0  0
    3.5190  -14.7450   -1.8560 C   0  0  0  0  0  0  0  0  0  0  0  0
    0.7270  -12.1760   -0.2290 C   0  0  2  0  0  0  0  0  0  0  0  0
    0.3740  -10.7970    0.4200 C   0  0  2  0  0  0  0  0  0  0  0  0
    1.2280  -10.4930    1.5280 O   0  0  0  0  0  0  0  0  0  0  0  0
   -3.0940  -10.6036    0.0292 H   0  0  0  0  0  0  0  0  0  0  0  0
   -1.8375   -9.7535   -0.9328 H   0  0  0  0  0  0  0  0  0  0  0  0
   -1.9072  -11.5485   -0.9328 H   0  0  0  0  0  0  0  0  0  0  0  0
   -1.2822   -9.5876    2.7593 H   0  0  0  0  0  0  0  0  0  0  0  0
   -0.5276   -8.6524    1.4242 H   0  0  0  0  0  0  0  0  0  0  0  0
   -2.2994   -8.9477    1.4242 H   0  0  0  0  0  0  0  0  0  0  0  0
   -0.7808  -11.8083    2.7029 H   0  0  0  0  0  0  0  0  0  0  0  0
   -2.4914  -11.7996    2.0791 H   0  0  0  0  0  0  0  0  0  0  0  0
   -1.3800  -14.0061    1.8871 H   0  0  0  0  0  0  0  0  0  0  0  0
   -1.9057  -13.2632    0.2943 H   0  0  0  0  0  0  0  0  0  0  0  0
    1.3488  -12.9373    2.3266 H   0  0  0  0  0  0  0  0  0  0  0  0
    0.8010  -14.6575    2.2081 H   0  0  0  0  0  0  0  0  0  0  0  0
    3.2475  -14.4157    1.9021 H   0  0  0  0  0  0  0  0  0  0  0  0
    2.3782  -15.0696    0.4239 H   0  0  0  0  0  0  0  0  0  0  0  0
    3.7201  -12.4360    2.1917 H   0  0  0  0  0  0  0  0  0  0  0  0
    5.0251  -12.1739    0.9854 H   0  0  0  0  0  0  0  0  0  0  0  0
    3.5757  -11.1128    0.9854 H   0  0  0  0  0  0  0  0  0  0  0  0
    1.8642  -10.9973   -2.2655 H   0  0  0  0  0  0  0  0  0  0  0  0
    3.8430  -12.1031   -3.4158 H   0  0  0  0  0  0  0  0  0  0  0  0
    4.3850  -10.7011   -2.3481 H   0  0  0  0  0  0  0  0  0  0  0  0
    5.4595  -12.0168   -0.8780 H   0  0  0  0  0  0  0  0  0  0  0  0
    5.4269  -14.7978   -3.4892 H   0  0  0  0  0  0  0  0  0  0  0  0
    5.1516  -13.2705   -4.3938 H   0  0  0  0  0  0  0  0  0  0  0  0
    6.7777  -14.0338   -4.3938 H   0  0  0  0  0  0  0  0  0  0  0  0
    6.3279  -11.2497   -3.7799 H   0  0  0  0  0  0  0  0  0  0  0  0
    7.0793  -11.0801   -2.1195 H   0  0  0  0  0  0  0  0  0  0  0  0
    8.2307  -12.5431   -4.4999 H   0  0  0  0  0  0  0  0  0  0  0  0
    9.2650  -10.2960   -3.0350 H   0  0  0  0  0  0  0  0  0  0  0  0
    9.3542  -12.0598   -1.6943 H   0  0  0  0  0  0  0  0  0  0  0  0
   10.5450  -12.1670   -3.9630 H   0  0  0  0  0  0  0  0  0  0  0  0
    9.1430  -14.2572    0.0123 H   0  0  0  0  0  0  0  0  0  0  0  0
    9.7700  -15.5907   -1.0152 H   0  0  0  0  0  0  0  0  0  0  0  0
   10.5928  -13.9939   -1.0152 H   0  0  0  0  0  0  0  0  0  0  0  0
    8.0465  -15.8957   -3.0128 H   0  0  0  0  0  0  0  0  0  0  0  0
    8.5871  -14.6193   -4.1898 H   0  0  0  0  0  0  0  0  0  0  0  0
   10.6870  -15.0090   -3.6270 H   0  0  0  0  0  0  0  0  0  0  0  0
    7.4515  -13.0956   -0.7467 H   0  0  0  0  0  0  0  0  0  0  0  0
    6.2544  -15.7063   -1.7835 H   0  0  0  0  0  0  0  0  0  0  0  0
    7.2913  -15.5398   -0.3084 H   0  0  0  0  0  0  0  0  0  0  0  0
    4.8508  -15.5856    0.1958 H   0  0  0  0  0  0  0  0  0  0  0  0
    5.7119  -14.0375    0.6939 H   0  0  0  0  0  0  0  0  0  0  0  0
    2.9357  -15.4766   -1.2775 H   0  0  0  0  0  0  0  0  0  0  0  0
    2.8412  -14.1545   -2.4899 H   0  0  0  0  0  0  0  0  0  0  0  0
    4.2457  -15.2743   -2.4899 H   0  0  0  0  0  0  0  0  0  0  0  0
    0.1456  -12.2130   -1.1621 H   0  0  0  0  0  0  0  0  0  0  0  0
    0.5311  -10.0690   -0.3895 H   0  0  0  0  0  0  0  0  0  0  0  0
    1.8380   -9.8150    1.1970 H   0  0  0  0  0  0  0  0  0  0  0  0
  1  2  1  0
  2  3  1  0
  2  4  1  0
  4  5  1  0
  5  6  1  0
  6  7  1  6
  7  8  2  0
  7  9  1  0
  6 10  1  0
 10 11  1  0
 11 12  1  0
 12 13  1  1
 12 14  1  0
 14 15  2  0
 15 16  1  0
 16 17  1  0
 17 18  1  0
 18 19  1  6
 18 20  1  0
 20 21  1  0
 21 22  1  0
 21 23  1  0
 23 24  1  0
 23 25  1  0
 25 26  1  1
 25 27  1  0
 27 28  1  0
 25 29  1  0
 29 30  1  0
 30 31  1  0
 31 32  1  0
 32 33  1  6
 14 34  1  0
 34 35  1  0
 35 36  1  0
 35  2  1  0
 34  6  1  0
 32 12  1  0
 32 17  1  0
 29 18  1  0
  1 37  1  0
  1 38  1  0
  1 39  1  0
  3 40  1  0
  3 41  1  0
  3 42  1  0
  4 43  1  0
  4 44  1  0
  5 45  1  0
  5 46  1  0
 10 47  1  0
 10 48  1  0
 11 49  1  0
 11 50  1  0
 13 51  1  0
 13 52  1  0
 13 53  1  0
 15 54  1  0
 16 55  1  0
 16 56  1  0
 17 57  1  1
 19 58  1  0
 19 59  1  0
 19 60  1  0
 20 61  1  0
 20 62  1  0
 21 63  1  6
 22 64  1  0
 23 65  1  1
 24 66  1  0
 26 67  1  0
 26 68  1  0
 26 69  1  0
 27 70  1  0
 27 71  1  0
 28 72  1  0
 29 73  1  1
 30 74  1  0
 30 75  1  0
 31 76  1  0
 31 77  1  0
 33 78  1  0
 33 79  1  0
 33 80  1  0
 34 81  1  6
 35 82  1  6
 36 83  1  0
M  CHG  1   9  -1
M  END
>  <meeko>  (3) 
{"is_sidechain": [false], "free_energy": -7.881, "intermolecular_energy": -9.722, "internal_energy": -0.441}

$$$$
LIB_IFIQVSCCFRXSJV__M_PUB_ALL__e8__s20260927
     RDKit          3D

 83 87  0  0  0  0  0  0  0  0999 V2000
   -1.1770  -15.7250    3.6460 C   0  0  0  0  0  0  0  0  0  0  0  0
   -0.3080  -16.8890    3.1270 C   0  0  0  0  0  0  0  0  0  0  0  0
   -0.2050  -17.9260    4.2680 C   0  0  0  0  0  0  0  0  0  0  0  0
   -0.9640  -17.5710    1.9120 C   0  0  0  0  0  0  0  0  0  0  0  0
   -1.0800  -16.6440    0.7080 C   0  0  0  0  0  0  0  0  0  0  0  0
    0.2590  -16.0000    0.2620 C   0  0  2  0  0  0  0  0  0  0  0  0
   -0.3030  -14.8430   -0.6370 C   0  0  0  0  0  0  0  0  0  0  0  0
   -0.1490  -13.6670   -0.1970 O   0  0  0  0  0  0  0  0  0  0  0  0
   -0.8940  -15.2070   -1.6960 O   0  0  0  0  0  0  0  0  0  0  0  0
    1.0790  -16.9920   -0.5750 C   0  0  0  0  0  0  0  0  0  0  0  0
    2.3020  -16.3130   -1.1950 C   0  0  0  0  0  0  0  0  0  0  0  0
    3.2510  -15.6290   -0.1700 C   0  0  2  0  0  0  0  0  0  0  0  0
    4.1640  -16.7750    0.3760 C   0  0  0  0  0  0  0  0  0  0  0  0
    2.5300  -15.0260    1.0540 C   0  0  0  0  0  0  0  0  0  0  0  0
    3.1120  -14.0360    1.7650 C   0  0  0  0  0  0  0  0  0  0  0  0
    4.4210  -13.3770    1.4490 C   0  0  0  0  0  0  0  0  0  0  0  0
    5.1440  -13.8960    0.1810 C   0  0  2  0  0  0  0  0  0  0  0  0
    6.2950  -12.9420   -0.3610 C   0  0  1  0  0  0  0  0  0  0  0  0
    5.7560  -11.5530   -0.7880 C   0  0  0  0  0  0  0  0  0  0  0  0
    7.3260  -12.7190    0.7850 C   0  0  0  0  0  0  0  0  0  0  0  0
    8.6330  -12.0800    0.3250 C   0  0  1  0  0  0  0  0  0  0  0  0
    9.5580  -12.0300    1.4240 O   0  0  0  0  0  0  0  0  0  0  0  0
    9.2960  -12.8850   -0.7990 C   0  0  2  0  0  0  0  0  0  0  0  0
   10.5130  -12.2120   -1.1640 O   0  0  0  0  0  0  0  0  0  0  0  0
    8.3800  -13.1090   -2.0350 C   0  0  2  0  0  0  0  0  0  0  0  0
    9.0990  -14.1470   -2.9460 C   0  0  0  0  0  0  0  0  0  0  0  0
    8.2140  -11.8090   -2.8640 C   0  0  0  0  0  0  0  0  0  0  0  0
    9.4170  -11.4340   -3.5340 O   0  0  0  0  0  0  0  0  0  0  0  0
    7.0150  -13.7160   -1.5300 C   0  0  2  0  0  0  0  0  0  0  0  0
    6.0150  -14.0790   -2.6470 C   0  0  0  0  0  0  0  0  0  0  0  0
    4.9000  -14.9920   -2.1250 C   0  0  0  0  0  0  0  0  0  0  0  0
    4.1280  -14.4530   -0.8860 C   0  0  1  0  0  0  0  0  0  0  0  0
    3.1800  -13.3200   -1.3980 C   0  0  0  0  0  0  0  0  0  0  0  0
    1.1020  -15.4690    1.4500 C   0  0  2  0  0  0  0  0  0  0  0  0
    1.0990  -16.3810    2.7200 C   0  0  2  0  0  0  0  0  0  0  0  0
    1.9640  -17.5110    2.5700 O   0  0  0  0  0  0  0  0  0  0  0  0
   -1.1748  -15.7279    4.7460 H   0  0  0  0  0  0  0  0  0  0  0  0
   -0.7682  -14.7712    3.2811 H   0  0  0  0  0  0  0  0  0  0  0  0
   -2.2076  -15.8458    3.2811 H   0  0  0  0  0  0  0  0  0  0  0  0
   -0.2562  -17.4100    5.2381 H   0  0  0  0  0  0  0  0  0  0  0  0
   -1.0365  -18.6418    4.1890 H   0  0  0  0  0  0  0  0  0  0  0  0
    0.7510  -18.4643    4.1890 H   0  0  0  0  0  0  0  0  0  0  0  0
   -0.3565  -18.4428    1.6275 H   0  0  0  0  0  0  0  0  0  0  0  0
   -1.9831  -17.8631    2.2054 H   0  0  0  0  0  0  0  0  0  0  0  0
   -1.4799  -17.2251   -0.1360 H   0  0  0  0  0  0  0  0  0  0  0  0
   -1.7395  -15.8175    1.0113 H   0  0  0  0  0  0  0  0  0  0  0  0
    1.4152  -17.8156    0.0721 H   0  0  0  0  0  0  0  0  0  0  0  0
    0.4423  -17.3726   -1.3873 H   0  0  0  0  0  0  0  0  0  0  0  0
    2.8779  -17.0750   -1.7405 H   0  0  0  0  0  0  0  0  0  0  0  0
    1.9185  -15.5141   -1.8466 H   0  0  0  0  0  0  0  0  0  0  0  0
    4.1524  -16.7605    1.4758 H   0  0  0  0  0  0  0  0  0  0  0  0
    3.7885  -17.7450    0.0181 H   0  0  0  0  0  0  0  0  0  0  0  0
    5.1934  -16.6257    0.0181 H   0  0  0  0  0  0  0  0  0  0  0  0
    2.5765  -13.6807    2.6577 H   0  0  0  0  0  0  0  0  0  0  0  0
    4.2345  -12.3012    1.3156 H   0  0  0  0  0  0  0  0  0  0  0  0
    5.0871  -13.6123    2.2922 H   0  0  0  0  0  0  0  0  0  0  0  0
    5.7311  -14.7758    0.4833 H   0  0  0  0  0  0  0  0  0  0  0  0
    5.5251  -10.9580    0.1079 H   0  0  0  0  0  0  0  0  0  0  0  0
    6.5175  -11.0327   -1.3875 H   0  0  0  0  0  0  0  0  0  0  0  0
    4.8429  -11.6825   -1.3875 H   0  0  0  0  0  0  0  0  0  0  0  0
    6.8676  -12.0643    1.5408 H   0  0  0  0  0  0  0  0  0  0  0  0
    7.5793  -13.7121    1.1844 H   0  0  0  0  0  0  0  0  0  0  0  0
    8.3899  -11.0727   -0.0440 H   0  0  0  0  0  0  0  0  0  0  0  0
    9.1710  -12.5610    2.1450 H   0  0  0  0  0  0  0  0  0  0  0  0
    9.5048  -13.8972   -0.4225 H   0  0  0  0  0  0  0  0  0  0  0  0
   11.1900  -12.9220   -1.1580 H   0  0  0  0  0  0  0  0  0  0  0  0
    9.6138  -14.8903   -2.3195 H   0  0  0  0  0  0  0  0  0  0  0  0
    8.3572  -14.6535   -3.5811 H   0  0  0  0  0  0  0  0  0  0  0  0
    9.8339  -13.6306   -3.5811 H   0  0  0  0  0  0  0  0  0  0  0  0
    7.4259  -11.9670   -3.6149 H   0  0  0  0  0  0  0  0  0  0  0  0
    7.9509  -10.9987   -2.1682 H   0  0  0  0  0  0  0  0  0  0  0  0
   10.1110  -12.0490   -3.2080 H   0  0  0  0  0  0  0  0  0  0  0  0
    7.3672  -14.6582   -1.0849 H   0  0  0  0  0  0  0  0  0  0  0  0
    5.5662  -13.1547   -3.0397 H   0  0  0  0  0  0  0  0  0  0  0  0
    6.5596  -14.6154   -3.4380 H   0  0  0  0  0  0  0  0  0  0  0  0
    4.1751  -15.1430   -2.9384 H   0  0  0  0  0  0  0  0  0  0  0  0
    5.3929  -15.9194   -1.7979 H   0  0  0  0  0  0  0  0  0  0  0  0
    2.7397  -12.7938   -0.5382 H   0  0  0  0  0  0  0  0  0  0  0  0
    3.7555  -12.6082   -2.0080 H   0  0  0  0  0  0  0  0  0  0  0  0
    2.3778  -13.7609   -2.0080 H   0  0  0  0  0  0  0  0  0  0  0  0
    0.5637  -14.5576    1.7493 H   0  0  0  0  0  0  0  0  0  0  0  0
    1.4684  -15.7260    3.5228 H   0  0  0  0  0  0  0  0  0  0  0  0
    2.6930  -17.1970    2.0100 H   0  0  0  0  0  0  0  0  0  0  0  0
  1  2  1  0
  2  3  1  0
  2  4  1  0
  4  5  1  0
  5  6  1  0
  6  7  1  6
  7  8  2  0
  7  9  1  0
  6 10  1  0
 10 11  1  0
 11 12  1  0
 12 13  1  1
 12 14  1  0
 14 15  2  0
 15 16  1  0
 16 17  1  0
 17 18  1  0
 18 19  1  6
 18 20  1  0
 20 21  1  0
 21 22  1  0
 21 23  1  0
 23 24  1  0
 23 25  1  0
 25 26  1  6
 25 27  1  0
 27 28  1  0
 25 29  1  0
 29 30  1  0
 30 31  1  0
 31 32  1  0
 32 33  1  6
 14 34  1  0
 34 35  1  0
 35 36  1  0
 35  2  1  0
 34  6  1  0
 32 12  1  0
 32 17  1  0
 29 18  1  0
  1 37  1  0
  1 38  1  0
  1 39  1  0
  3 40  1  0
  3 41  1  0
  3 42  1  0
  4 43  1  0
  4 44  1  0
  5 45  1  0
  5 46  1  0
 10 47  1  0
 10 48  1  0
 11 49  1  0
 11 50  1  0
 13 51  1  0
 13 52  1  0
 13 53  1  0
 15 54  1  0
 16 55  1  0
 16 56  1  0
 17 57  1  1
 19 58  1  0
 19 59  1  0
 19 60  1  0
 20 61  1  0
 20 62  1  0
 21 63  1  6
 22 64  1  0
 23 65  1  1
 24 66  1  0
 26 67  1  0
 26 68  1  0
 26 69  1  0
 27 70  1  0
 27 71  1  0
 28 72  1  0
 29 73  1  1
 30 74  1  0
 30 75  1  0
 31 76  1  0
 31 77  1  0
 33 78  1  0
 33 79  1  0
 33 80  1  0
 34 81  1  1
 35 82  1  1
 36 83  1  0
M  CHG  1   9  -1
M  END
>  <meeko>  (4) 
{"is_sidechain": [false], "free_energy": -7.719, "intermolecular_energy": -9.521, "internal_energy": -0.441}

$$$$
LIB_IFIQVSCCFRXSJV__M_PUB_ALL__e8__s20260927
     RDKit          3D

 83 87  0  0  0  0  0  0  0  0999 V2000
    3.5560  -15.1780    1.8080 C   0  0  0  0  0  0  0  0  0  0  0  0
    3.3770  -14.6620    0.3650 C   0  0  0  0  0  0  0  0  0  0  0  0
    2.1560  -15.3950   -0.2340 C   0  0  0  0  0  0  0  0  0  0  0  0
    3.0890  -13.1500    0.3480 C   0  0  0  0  0  0  0  0  0  0  0  0
    4.2530  -12.3240    0.8840 C   0  0  0  0  0  0  0  0  0  0  0  0
    5.6070  -12.5860    0.1750 C   0  0  2  0  0  0  0  0  0  0  0  0
    6.5750  -11.9470    1.2330 C   0  0  0  0  0  0  0  0  0  0  0  0
    7.4540  -12.7130    1.7240 O   0  0  0  0  0  0  0  0  0  0  0  0
    6.3510  -10.7350    1.5210 O   0  0  0  0  0  0  0  0  0  0  0  0
    5.6730  -11.8240   -1.1560 C   0  0  0  0  0  0  0  0  0  0  0  0
    7.0720  -11.9030   -1.7690 C   0  0  0  0  0  0  0  0  0  0  0  0
    7.5960  -13.3480   -2.0010 C   0  0  2  0  0  0  0  0  0  0  0  0
    6.9740  -13.7990   -3.3630 C   0  0  0  0  0  0  0  0  0  0  0  0
    7.1210  -14.3700   -0.9470 C   0  0  0  0  0  0  0  0  0  0  0  0
    7.8240  -15.5040   -0.7340 C   0  0  0  0  0  0  0  0  0  0  0  0
    9.1170  -15.8760   -1.3980 C   0  0  0  0  0  0  0  0  0  0  0  0
    9.6740  -14.8420   -2.4080 C   0  0  2  0  0  0  0  0  0  0  0  0
   11.2030  -15.0490   -2.7890 C   0  0  1  0  0  0  0  0  0  0  0  0
   12.1400  -14.9070   -1.5630 C   0  0  0  0  0  0  0  0  0  0  0  0
   11.3770  -16.4890   -3.3540 C   0  0  0  0  0  0  0  0  0  0  0  0
   12.7180  -16.7270   -4.0420 C   0  0  1  0  0  0  0  0  0  0  0  0
   12.7300  -18.0380   -4.6330 O   0  0  0  0  0  0  0  0  0  0  0  0
   12.9700  -15.7130   -5.1640 C   0  0  2  0  0  0  0  0  0  0  0  0
   14.2480  -16.0140   -5.7510 O   0  0  0  0  0  0  0  0  0  0  0  0
   12.8950  -14.2310   -4.6990 C   0  0  2  0  0  0  0  0  0  0  0  0
   12.9090  -13.3550   -5.9850 C   0  0  0  0  0  0  0  0  0  0  0  0
   14.1380  -13.8350   -3.8610 C   0  0  0  0  0  0  0  0  0  0  0  0
   14.7200  -12.6070   -4.2980 O   0  0  0  0  0  0  0  0  0  0  0  0
   11.5280  -14.0240   -3.9420 C   0  0  2  0  0  0  0  0  0  0  0  0
   11.2560  -12.5770   -3.4830 C   0  0  0  0  0  0  0  0  0  0  0  0
    9.7830  -12.3770   -3.1070 C   0  0  0  0  0  0  0  0  0  0  0  0
    9.2280  -13.3740   -2.0490 C   0  0  1  0  0  0  0  0  0  0  0  0
    9.8080  -12.9370   -0.6650 C   0  0  0  0  0  0  0  0  0  0  0  0
    5.8920  -14.0930   -0.0500 C   0  0  2  0  0  0  0  0  0  0  0  0
    4.6490  -14.9420   -0.4760 C   0  0  2  0  0  0  0  0  0  0  0  0
    4.3280  -14.7630   -1.8600 O   0  0  0  0  0  0  0  0  0  0  0  0
    3.2807  -14.3843    2.5180 H   0  0  0  0  0  0  0  0  0  0  0  0
    2.9089  -16.0532    1.9674 H   0  0  0  0  0  0  0  0  0  0  0  0
    4.6060  -15.4645    1.9674 H   0  0  0  0  0  0  0  0  0  0  0  0
    1.5215  -15.7759    0.5798 H   0  0  0  0  0  0  0  0  0  0  0  0
    1.5763  -14.6954   -0.8541 H   0  0  0  0  0  0  0  0  0  0  0  0
    2.5009  -16.2355   -0.8541 H   0  0  0  0  0  0  0  0  0  0  0  0
    2.8864  -12.8418   -0.6883 H   0  0  0  0  0  0  0  0  0  0  0  0
    2.2236  -12.9689    1.0024 H   0  0  0  0  0  0  0  0  0  0  0  0
    4.0028  -11.2595    0.7645 H   0  0  0  0  0  0  0  0  0  0  0  0
    4.3879  -12.6185    1.9352 H   0  0  0  0  0  0  0  0  0  0  0  0
    4.9485  -12.2634   -1.8574 H   0  0  0  0  0  0  0  0  0  0  0  0
    5.4354  -10.7671   -0.9648 H   0  0  0  0  0  0  0  0  0  0  0  0
    7.0511  -11.3856   -2.7395 H   0  0  0  0  0  0  0  0  0  0  0  0
    7.7563  -11.4356   -1.0456 H   0  0  0  0  0  0  0  0  0  0  0  0
    6.0969  -14.4350   -3.1728 H   0  0  0  0  0  0  0  0  0  0  0  0
    6.6666  -12.9125   -3.9371 H   0  0  0  0  0  0  0  0  0  0  0  0
    7.7210  -14.3668   -3.9371 H   0  0  0  0  0  0  0  0  0  0  0  0
    7.4108  -16.2195   -0.0078 H   0  0  0  0  0  0  0  0  0  0  0  0
    9.8719  -16.0206   -0.6111 H   0  0  0  0  0  0  0  0  0  0  0  0
    8.9041  -16.7828   -1.9832 H   0  0  0  0  0  0  0  0  0  0  0  0
    9.1912  -15.0444   -3.3755 H   0  0  0  0  0  0  0  0  0  0  0  0
   11.5505  -14.9963   -0.6386 H   0  0  0  0  0  0  0  0  0  0  0  0
   12.9019  -15.6999   -1.5900 H   0  0  0  0  0  0  0  0  0  0  0  0
   12.6328  -13.9239   -1.5900 H   0  0  0  0  0  0  0  0  0  0  0  0
   11.2843  -17.2012   -2.5208 H   0  0  0  0  0  0  0  0  0  0  0  0
   10.5979  -16.6278   -4.1180 H   0  0  0  0  0  0  0  0  0  0  0  0
   13.5002  -16.6226   -3.2756 H   0  0  0  0  0  0  0  0  0  0  0  0
   12.2740  -17.9660   -5.4910 H   0  0  0  0  0  0  0  0  0  0  0  0
   12.1642  -15.8112   -5.9063 H   0  0  0  0  0  0  0  0  0  0  0  0
   14.5600  -16.8000   -5.2540 H   0  0  0  0  0  0  0  0  0  0  0  0
   12.9260  -12.2916   -5.7041 H   0  0  0  0  0  0  0  0  0  0  0  0
   13.8035  -13.5914   -6.5800 H   0  0  0  0  0  0  0  0  0  0  0  0
   12.0074  -13.5627   -6.5800 H   0  0  0  0  0  0  0  0  0  0  0  0
   13.8353  -13.7278   -2.8089 H   0  0  0  0  0  0  0  0  0  0  0  0
   14.8920  -14.6263   -3.9847 H   0  0  0  0  0  0  0  0  0  0  0  0
   15.4550  -12.8560   -4.9020 H   0  0  0  0  0  0  0  0  0  0  0  0
   10.8159  -14.2544   -4.7481 H   0  0  0  0  0  0  0  0  0  0  0  0
   11.8824  -12.3559   -2.6062 H   0  0  0  0  0  0  0  0  0  0  0  0
   11.4961  -11.8989   -4.3152 H   0  0  0  0  0  0  0  0  0  0  0  0
    9.6690  -11.3585   -2.7075 H   0  0  0  0  0  0  0  0  0  0  0  0
    9.2063  -12.5554   -4.0266 H   0  0  0  0  0  0  0  0  0  0  0  0
    9.2106  -13.3871    0.1415 H   0  0  0  0  0  0  0  0  0  0  0  0
   10.8513  -13.2755   -0.5812 H   0  0  0  0  0  0  0  0  0  0  0  0
    9.7703  -11.8408   -0.5812 H   0  0  0  0  0  0  0  0  0  0  0  0
    6.1537  -14.4496    0.9572 H   0  0  0  0  0  0  0  0  0  0  0  0
    4.9555  -15.9819   -0.2900 H   0  0  0  0  0  0  0  0  0  0  0  0
    5.1120  -15.0720   -2.3420 H   0  0  0  0  0  0  0  0  0  0  0  0
  1  2  1  0
  2  3  1  0
  2  4  1  0
  4  5  1  0
  5  6  1  0
  6  7  1  1
  7  8  2  0
  7  9  1  0
  6 10  1  0
 10 11  1  0
 11 12  1  0
 12 13  1  6
 12 14  1  0
 14 15  2  0
 15 16  1  0
 16 17  1  0
 17 18  1  0
 18 19  1  1
 18 20  1  0
 20 21  1  0
 21 22  1  0
 21 23  1  0
 23 24  1  0
 23 25  1  0
 25 26  1  6
 25 27  1  0
 27 28  1  0
 25 29  1  0
 29 30  1  0
 30 31  1  0
 31 32  1  0
 32 33  1  1
 14 34  1  0
 34 35  1  0
 35 36  1  0
 35  2  1  0
 34  6  1  0
 32 12  1  0
 32 17  1  0
 29 18  1  0
  1 37  1  0
  1 38  1  0
  1 39  1  0
  3 40  1  0
  3 41  1  0
  3 42  1  0
  4 43  1  0
  4 44  1  0
  5 45  1  0
  5 46  1  0
 10 47  1  0
 10 48  1  0
 11 49  1  0
 11 50  1  0
 13 51  1  0
 13 52  1  0
 13 53  1  0
 15 54  1  0
 16 55  1  0
 16 56  1  0
 17 57  1  6
 19 58  1  0
 19 59  1  0
 19 60  1  0
 20 61  1  0
 20 62  1  0
 21 63  1  1
 22 64  1  0
 23 65  1  6
 24 66  1  0
 26 67  1  0
 26 68  1  0
 26 69  1  0
 27 70  1  0
 27 71  1  0
 28 72  1  0
 29 73  1  6
 30 74  1  0
 30 75  1  0
 31 76  1  0
 31 77  1  0
 33 78  1  0
 33 79  1  0
 33 80  1  0
 34 81  1  1
 35 82  1  6
 36 83  1  0
M  CHG  1   9  -1
M  END
>  <meeko>  (5) 
{"is_sidechain": [false], "free_energy": -7.57, "intermolecular_energy": -9.558, "internal_energy": -0.221}

$$$$
LIB_IFIQVSCCFRXSJV__M_PUB_ALL__e8__s20260927
     RDKit          3D

 83 87  0  0  0  0  0  0  0  0999 V2000
   11.9320  -14.3460   -0.8720 C   0  0  0  0  0  0  0  0  0  0  0  0
   11.3770  -12.9090   -0.7760 C   0  0  0  0  0  0  0  0  0  0  0  0
   12.3110  -12.1210    0.1690 C   0  0  0  0  0  0  0  0  0  0  0  0
   11.3860  -12.2180   -2.1530 C   0  0  0  0  0  0  0  0  0  0  0  0
   10.4610  -12.8960   -3.1570 C   0  0  0  0  0  0  0  0  0  0  0  0
    8.9920  -13.0460   -2.6780 C   0  0  2  0  0  0  0  0  0  0  0  0
    8.4990  -14.1210   -3.7090 C   0  0  0  0  0  0  0  0  0  0  0  0
    8.3120  -15.2870   -3.2560 O   0  0  0  0  0  0  0  0  0  0  0  0
    8.3770  -13.7220   -4.9040 O   0  0  0  0  0  0  0  0  0  0  0  0
    8.2310  -11.7250   -2.8600 C   0  0  0  0  0  0  0  0  0  0  0  0
    6.7370  -11.9070   -2.5900 C   0  0  0  0  0  0  0  0  0  0  0  0
    6.3990  -12.4830   -1.1850 C   0  0  2  0  0  0  0  0  0  0  0  0
    6.4240  -11.2540   -0.2180 C   0  0  0  0  0  0  0  0  0  0  0  0
    7.4430  -13.4830   -0.6430 C   0  0  0  0  0  0  0  0  0  0  0  0
    7.0930  -14.3890    0.2950 C   0  0  0  0  0  0  0  0  0  0  0  0
    5.7170  -14.5870    0.8590 C   0  0  0  0  0  0  0  0  0  0  0  0
    4.6180  -13.6560    0.2860 C   0  0  2  0  0  0  0  0  0  0  0  0
    3.1300  -14.1320    0.5800 C   0  0  1  0  0  0  0  0  0  0  0  0
    2.8150  -15.5090   -0.0590 C   0  0  0  0  0  0  0  0  0  0  0  0
    2.9560  -14.2740    2.1210 C   0  0  0  0  0  0  0  0  0  0  0  0
    1.5050  -14.4260    2.5690 C   0  0  1  0  0  0  0  0  0  0  0  0
    1.4420  -14.4240    4.0050 O   0  0  0  0  0  0  0  0  0  0  0  0
    0.6310  -13.2710    2.0680 C   0  0  2  0  0  0  0  0  0  0  0  0
   -0.7090  -13.4980    2.5360 O   0  0  0  0  0  0  0  0  0  0  0  0
    0.6670  -13.0800    0.5250 C   0  0  2  0  0  0  0  0  0  0  0  0
   -0.0470  -11.7300    0.2220 C   0  0  0  0  0  0  0  0  0  0  0  0
   -0.1280  -14.1930   -0.2050 C   0  0  0  0  0  0  0  0  0  0  0  0
   -1.5370  -13.9680   -0.1680 O   0  0  0  0  0  0  0  0  0  0  0  0
    2.1760  -12.9830    0.0790 C   0  0  2  0  0  0  0  0  0  0  0  0
    2.3900  -12.7060   -1.4240 C   0  0  0  0  0  0  0  0  0  0  0  0
    3.8260  -12.2550   -1.7110 C   0  0  0  0  0  0  0  0  0  0  0  0
    4.9380  -13.2120   -1.1920 C   0  0  1  0  0  0  0  0  0  0  0  0
    4.9630  -14.4440   -2.1520 C   0  0  0  0  0  0  0  0  0  0  0  0
    8.8790  -13.5380   -1.2120 C   0  0  2  0  0  0  0  0  0  0  0  0
    9.9270  -12.9210   -0.2280 C   0  0  2  0  0  0  0  0  0  0  0  0
    9.5770  -11.5870    0.1580 O   0  0  0  0  0  0  0  0  0  0  0  0
   12.0871  -14.7475    0.1403 H   0  0  0  0  0  0  0  0  0  0  0  0
   11.2144  -14.9809   -1.4123 H   0  0  0  0  0  0  0  0  0  0  0  0
   12.8901  -14.3337   -1.4123 H   0  0  0  0  0  0  0  0  0  0  0  0
   12.0478  -12.3431    1.2137 H   0  0  0  0  0  0  0  0  0  0  0  0
   13.3543  -12.4159   -0.0169 H   0  0  0  0  0  0  0  0  0  0  0  0
   12.1960  -11.0429   -0.0169 H   0  0  0  0  0  0  0  0  0  0  0  0
   11.0625  -11.1744   -2.0253 H   0  0  0  0  0  0  0  0  0  0  0  0
   12.4101  -12.2805   -2.5496 H   0  0  0  0  0  0  0  0  0  0  0  0
   10.4619  -12.3005   -4.0819 H   0  0  0  0  0  0  0  0  0  0  0  0
   10.8489  -13.9151   -3.3019 H   0  0  0  0  0  0  0  0  0  0  0  0
    8.6342  -10.9790   -2.1594 H   0  0  0  0  0  0  0  0  0  0  0  0
    8.3592  -11.3890   -3.8996 H   0  0  0  0  0  0  0  0  0  0  0  0
    6.2490  -10.9258   -2.6852 H   0  0  0  0  0  0  0  0  0  0  0  0
    6.3745  -12.6418   -3.3240 H   0  0  0  0  0  0  0  0  0  0  0  0
    6.4168  -11.6070    0.8238 H   0  0  0  0  0  0  0  0  0  0  0  0
    7.3343  -10.6636   -0.3989 H   0  0  0  0  0  0  0  0  0  0  0  0
    5.5384  -10.6271   -0.3989 H   0  0  0  0  0  0  0  0  0  0  0  0
    7.8898  -15.0417    0.6810 H   0  0  0  0  0  0  0  0  0  0  0  0
    5.4167  -15.6266    0.6615 H   0  0  0  0  0  0  0  0  0  0  0  0
    5.7919  -14.3413    1.9286 H   0  0  0  0  0  0  0  0  0  0  0  0
    4.6543  -12.7215    0.8651 H   0  0  0  0  0  0  0  0  0  0  0  0
    2.6452  -16.2513    0.7348 H   0  0  0  0  0  0  0  0  0  0  0  0
    1.9126  -15.4260   -0.6826 H   0  0  0  0  0  0  0  0  0  0  0  0
    3.6637  -15.8266   -0.6826 H   0  0  0  0  0  0  0  0  0  0  0  0
    3.5153  -15.1614    2.4522 H   0  0  0  0  0  0  0  0  0  0  0  0
    3.3331  -13.3440    2.5715 H   0  0  0  0  0  0  0  0  0  0  0  0
    1.1323  -15.3722    2.1498 H   0  0  0  0  0  0  0  0  0  0  0  0
    0.5240  -14.2070    4.2480 H   0  0  0  0  0  0  0  0  0  0  0  0
    1.0347  -12.3312    2.4727 H   0  0  0  0  0  0  0  0  0  0  0  0
   -0.5920  -14.0480    3.3400 H   0  0  0  0  0  0  0  0  0  0  0  0
   -0.3095  -11.2337    1.1679 H   0  0  0  0  0  0  0  0  0  0  0  0
    0.6260  -11.0814   -0.3580 H   0  0  0  0  0  0  0  0  0  0  0  0
   -0.9619  -11.9212   -0.3580 H   0  0  0  0  0  0  0  0  0  0  0  0
    0.1968  -14.2283   -1.2554 H   0  0  0  0  0  0  0  0  0  0  0  0
    0.0738  -15.1432    0.3111 H   0  0  0  0  0  0  0  0  0  0  0  0
   -1.9550  -14.8520   -0.2690 H   0  0  0  0  0  0  0  0  0  0  0  0
    2.4894  -12.0828    0.6281 H   0  0  0  0  0  0  0  0  0  0  0  0
    2.1841  -13.6263   -1.9903 H   0  0  0  0  0  0  0  0  0  0  0  0
    1.7067  -11.8992   -1.7278 H   0  0  0  0  0  0  0  0  0  0  0  0
    3.9411  -12.1591   -2.8008 H   0  0  0  0  0  0  0  0  0  0  0  0
    3.9620  -11.3073   -1.1694 H   0  0  0  0  0  0  0  0  0  0  0  0
    4.9818  -15.3704   -1.5592 H   0  0  0  0  0  0  0  0  0  0  0  0
    4.0644  -14.4328   -2.7864 H   0  0  0  0  0  0  0  0  0  0  0  0
    5.8604  -14.3964   -2.7864 H   0  0  0  0  0  0  0  0  0  0  0  0
    9.1445  -14.6029   -1.2856 H   0  0  0  0  0  0  0  0  0  0  0  0
    9.9012  -13.5887    0.6458 H   0  0  0  0  0  0  0  0  0  0  0  0
    8.6130  -11.5390    0.0490 H   0  0  0  0  0  0  0  0  0  0  0  0
  1  2  1  0
  2  3  1  0
  2  4  1  0
  4  5  1  0
  5  6  1  0
  6  7  1  6
  7  8  2  0
  7  9  1  0
  6 10  1  0
 10 11  1  0
 11 12  1  0
 12 13  1  1
 12 14  1  0
 14 15  2  0
 15 16  1  0
 16 17  1  0
 17 18  1  0
 18 19  1  6
 18 20  1  0
 20 21  1  0
 21 22  1  0
 21 23  1  0
 23 24  1  0
 23 25  1  0
 25 26  1  1
 25 27  1  0
 27 28  1  0
 25 29  1  0
 29 30  1  0
 30 31  1  0
 31 32  1  0
 32 33  1  6
 14 34  1  0
 34 35  1  0
 35 36  1  0
 35  2  1  0
 34  6  1  0
 32 12  1  0
 32 17  1  0
 29 18  1  0
  1 37  1  0
  1 38  1  0
  1 39  1  0
  3 40  1  0
  3 41  1  0
  3 42  1  0
  4 43  1  0
  4 44  1  0
  5 45  1  0
  5 46  1  0
 10 47  1  0
 10 48  1  0
 11 49  1  0
 11 50  1  0
 13 51  1  0
 13 52  1  0
 13 53  1  0
 15 54  1  0
 16 55  1  0
 16 56  1  0
 17 57  1  1
 19 58  1  0
 19 59  1  0
 19 60  1  0
 20 61  1  0
 20 62  1  0
 21 63  1  6
 22 64  1  0
 23 65  1  1
 24 66  1  0
 26 67  1  0
 26 68  1  0
 26 69  1  0
 27 70  1  0
 27 71  1  0
 28 72  1  0
 29 73  1  1
 30 74  1  0
 30 75  1  0
 31 76  1  0
 31 77  1  0
 33 78  1  0
 33 79  1  0
 33 80  1  0
 34 81  1  6
 35 82  1  1
 36 83  1  0
M  CHG  1   9  -1
M  END
>  <meeko>  (6) 
{"is_sidechain": [false], "free_energy": -7.401, "intermolecular_energy": -9.104, "internal_energy": -0.467}

$$$$
LIB_IFIQVSCCFRXSJV__M_PUB_ALL__e8__s20260927
     RDKit          3D

 83 87  0  0  0  0  0  0  0  0999 V2000
    1.8670  -12.6590   -3.8800 C   0  0  0  0  0  0  0  0  0  0  0  0
    2.8860  -11.7570   -3.1530 C   0  0  0  0  0  0  0  0  0  0  0  0
    2.5850  -10.3000   -3.5720 C   0  0  0  0  0  0  0  0  0  0  0  0
    2.7290  -11.8630   -1.6250 C   0  0  0  0  0  0  0  0  0  0  0  0
    3.0430  -13.2580   -1.0970 C   0  0  0  0  0  0  0  0  0  0  0  0
    4.4410  -13.7980   -1.4990 C   0  0  2  0  0  0  0  0  0  0  0  0
    4.2230  -15.3210   -1.1880 C   0  0  0  0  0  0  0  0  0  0  0  0
    4.1060  -16.0860   -2.1890 O   0  0  0  0  0  0  0  0  0  0  0  0
    4.1440  -15.6250    0.0380 O   0  0  0  0  0  0  0  0  0  0  0  0
    5.5270  -13.2050   -0.5910 C   0  0  0  0  0  0  0  0  0  0  0  0
    6.8780  -13.8770   -0.8340 C   0  0  0  0  0  0  0  0  0  0  0  0
    7.3780  -13.8140   -2.3050 C   0  0  2  0  0  0  0  0  0  0  0  0
    8.0500  -12.4100   -2.4530 C   0  0  0  0  0  0  0  0  0  0  0  0
    6.2500  -13.8690   -3.3580 C   0  0  0  0  0  0  0  0  0  0  0  0
    6.5150  -14.2820   -4.6160 C   0  0  0  0  0  0  0  0  0  0  0  0
    7.8380  -14.7780   -5.1200 C   0  0  0  0  0  0  0  0  0  0  0  0
    8.9820  -14.8150   -4.0760 C   0  0  2  0  0  0  0  0  0  0  0  0
   10.2330  -15.7000   -4.4980 C   0  0  1  0  0  0  0  0  0  0  0  0
    9.8620  -17.1930   -4.6890 C   0  0  0  0  0  0  0  0  0  0  0  0
   10.7720  -15.1680   -5.8580 C   0  0  0  0  0  0  0  0  0  0  0  0
   12.1460  -15.7160   -6.2370 C   0  0  1  0  0  0  0  0  0  0  0  0
   12.6060  -15.0740   -7.4380 O   0  0  0  0  0  0  0  0  0  0  0  0
   13.1860  -15.4480   -5.1430 C   0  0  2  0  0  0  0  0  0  0  0  0
   14.4400  -15.9950   -5.5850 O   0  0  0  0  0  0  0  0  0  0  0  0
   12.7870  -16.0040   -3.7470 C   0  0  2  0  0  0  0  0  0  0  0  0
   13.8070  -15.4230   -2.7230 C   0  0  0  0  0  0  0  0  0  0  0  0
   12.9110  -17.5480   -3.6920 C   0  0  0  0  0  0  0  0  0  0  0  0
   14.2550  -17.9790   -3.4780 O   0  0  0  0  0  0  0  0  0  0  0  0
   11.3430  -15.4710   -3.4030 C   0  0  2  0  0  0  0  0  0  0  0  0
   10.8250  -15.8640   -2.0040 C   0  0  0  0  0  0  0  0  0  0  0  0
    9.6130  -15.0180   -1.5980 C   0  0  0  0  0  0  0  0  0  0  0  0
    8.4330  -15.0210   -2.6130 C   0  0  1  0  0  0  0  0  0  0  0  0
    7.7170  -16.4030   -2.4740 C   0  0  0  0  0  0  0  0  0  0  0  0
    4.7840  -13.5430   -2.9890 C   0  0  2  0  0  0  0  0  0  0  0  0
    4.3350  -12.1490   -3.5400 C   0  0  2  0  0  0  0  0  0  0  0  0
    5.2160  -11.1010   -3.1240 O   0  0  0  0  0  0  0  0  0  0  0  0
    1.2589  -13.1973   -3.1380 H   0  0  0  0  0  0  0  0  0  0  0  0
    1.2125  -12.0389   -4.5101 H   0  0  0  0  0  0  0  0  0  0  0  0
    2.4031  -13.3839   -4.5101 H   0  0  0  0  0  0  0  0  0  0  0  0
    2.4567   -9.6790   -2.6731 H   0  0  0  0  0  0  0  0  0  0  0  0
    3.4216   -9.9103   -4.1705 H   0  0  0  0  0  0  0  0  0  0  0  0
    1.6625  -10.2737   -4.1705 H   0  0  0  0  0  0  0  0  0  0  0  0
    3.4135  -11.1446   -1.1502 H   0  0  0  0  0  0  0  0  0  0  0  0
    1.6784  -11.6447   -1.3829 H   0  0  0  0  0  0  0  0  0  0  0  0
    2.9881  -13.2302    0.0013 H   0  0  0  0  0  0  0  0  0  0  0  0
    2.3038  -13.9369   -1.5473 H   0  0  0  0  0  0  0  0  0  0  0  0
    5.6193  -12.1286   -0.7979 H   0  0  0  0  0  0  0  0  0  0  0  0
    5.2366  -13.3751    0.4563 H   0  0  0  0  0  0  0  0  0  0  0  0
    7.6261  -13.3836   -0.1961 H   0  0  0  0  0  0  0  0  0  0  0  0
    6.7430  -14.9425   -0.5964 H   0  0  0  0  0  0  0  0  0  0  0  0
    8.2500  -11.9922   -1.4553 H   0  0  0  0  0  0  0  0  0  0  0  0
    8.9965  -12.5128   -3.0039 H   0  0  0  0  0  0  0  0  0  0  0  0
    7.3763  -11.7373   -3.0039 H   0  0  0  0  0  0  0  0  0  0  0  0
    5.6849  -14.2520   -5.3371 H   0  0  0  0  0  0  0  0  0  0  0  0
    7.6936  -15.8002   -5.4999 H   0  0  0  0  0  0  0  0  0  0  0  0
    8.1558  -14.0581   -5.8886 H   0  0  0  0  0  0  0  0  0  0  0  0
    9.4347  -13.8126   -4.0591 H   0  0  0  0  0  0  0  0  0  0  0  0
    9.7434  -17.6701   -3.7050 H   0  0  0  0  0  0  0  0  0  0  0  0
    8.9180  -17.2675   -5.2488 H   0  0  0  0  0  0  0  0  0  0  0  0
   10.6613  -17.7007   -5.2488 H   0  0  0  0  0  0  0  0  0  0  0  0
   10.0581  -15.4479   -6.6467 H   0  0  0  0  0  0  0  0  0  0  0  0
   10.8809  -14.0784   -5.7536 H   0  0  0  0  0  0  0  0  0  0  0  0
   12.0368  -16.8016   -6.3768 H   0  0  0  0  0  0  0  0  0  0  0  0
   11.9660  -15.2930   -8.1400 H   0  0  0  0  0  0  0  0  0  0  0  0
   13.2608  -14.3604   -4.9963 H   0  0  0  0  0  0  0  0  0  0  0  0
   14.5080  -16.8510   -5.1110 H   0  0  0  0  0  0  0  0  0  0  0  0
   13.4547  -15.6237   -1.7004 H   0  0  0  0  0  0  0  0  0  0  0  0
   14.7878  -15.8979   -2.8727 H   0  0  0  0  0  0  0  0  0  0  0  0
   13.8988  -14.3371   -2.8727 H   0  0  0  0  0  0  0  0  0  0  0  0
   12.2844  -17.9236   -2.8696 H   0  0  0  0  0  0  0  0  0  0  0  0
   12.5821  -17.9456   -4.6635 H   0  0  0  0  0  0  0  0  0  0  0  0
   14.3080  -18.8910   -3.8400 H   0  0  0  0  0  0  0  0  0  0  0  0
   11.5261  -14.3864   -3.3940 H   0  0  0  0  0  0  0  0  0  0  0  0
   10.5334  -16.9246   -2.0153 H   0  0  0  0  0  0  0  0  0  0  0  0
   11.6297  -15.6880   -1.2750 H   0  0  0  0  0  0  0  0  0  0  0  0
    9.2370  -15.4009   -0.6378 H   0  0  0  0  0  0  0  0  0  0  0  0
    9.9694  -13.9786   -1.5472 H   0  0  0  0  0  0  0  0  0  0  0  0
    7.5914  -16.6454   -1.4084 H   0  0  0  0  0  0  0  0  0  0  0  0
    6.7303  -16.3551   -2.9579 H   0  0  0  0  0  0  0  0  0  0  0  0
    8.3252  -17.1814   -2.9579 H   0  0  0  0  0  0  0  0  0  0  0  0
    4.1577  -14.2773   -3.5167 H   0  0  0  0  0  0  0  0  0  0  0  0
    4.3743  -12.2646   -4.6332 H   0  0  0  0  0  0  0  0  0  0  0  0
    5.8640  -11.5320   -2.5440 H   0  0  0  0  0  0  0  0  0  0  0  0
  1  2  1  0
  2  3  1  0
  2  4  1  0
  4  5  1  0
  5  6  1  0
  6  7  1  6
  7  8  2  0
  7  9  1  0
  6 10  1  0
 10 11  1  0
 11 12  1  0
 12 13  1  1
 12 14  1  0
 14 15  2  0
 15 16  1  0
 16 17  1  0
 17 18  1  0
 18 19  1  6
 18 20  1  0
 20 21  1  0
 21 22  1  0
 21 23  1  0
 23 24  1  0
 23 25  1  0
 25 26  1  1
 25 27  1  0
 27 28  1  0
 25 29  1  0
 29 30  1  0
 30 31  1  0
 31 32  1  0
 32 33  1  6
 14 34  1  0
 34 35  1  0
 35 36  1  0
 35  2  1  0
 34  6  1  0
 32 12  1  0
 32 17  1  0
 29 18  1  0
  1 37  1  0
  1 38  1  0
  1 39  1  0
  3 40  1  0
  3 41  1  0
  3 42  1  0
  4 43  1  0
  4 44  1  0
  5 45  1  0
  5 46  1  0
 10 47  1  0
 10 48  1  0
 11 49  1  0
 11 50  1  0
 13 51  1  0
 13 52  1  0
 13 53  1  0
 15 54  1  0
 16 55  1  0
 16 56  1  0
 17 57  1  1
 19 58  1  0
 19 59  1  0
 19 60  1  0
 20 61  1  0
 20 62  1  0
 21 63  1  6
 22 64  1  0
 23 65  1  1
 24 66  1  0
 26 67  1  0
 26 68  1  0
 26 69  1  0
 27 70  1  0
 27 71  1  0
 28 72  1  0
 29 73  1  1
 30 74  1  0
 30 75  1  0
 31 76  1  0
 31 77  1  0
 33 78  1  0
 33 79  1  0
 33 80  1  0
 34 81  1  6
 35 82  1  6
 36 83  1  0
M  CHG  1   9  -1
M  END
>  <meeko>  (7) 
{"is_sidechain": [false], "free_energy": -7.276, "intermolecular_energy": -8.944, "internal_energy": -0.472}

$$$$
LIB_IFIQVSCCFRXSJV__M_PUB_ALL__e8__s20260927
     RDKit          3D

 83 87  0  0  0  0  0  0  0  0999 V2000
    5.9680  -11.1720   -1.8560 C   0  0  0  0  0  0  0  0  0  0  0  0
    5.6190  -12.6120   -2.2870 C   0  0  0  0  0  0  0  0  0  0  0  0
    5.4950  -12.6110   -3.8270 C   0  0  0  0  0  0  0  0  0  0  0  0
    6.7380  -13.5940   -1.8920 C   0  0  0  0  0  0  0  0  0  0  0  0
    6.9190  -13.7030   -0.3830 C   0  0  0  0  0  0  0  0  0  0  0  0
    5.6280  -14.0720    0.3950 C   0  0  2  0  0  0  0  0  0  0  0  0
    6.0780  -13.6610    1.8410 C   0  0  0  0  0  0  0  0  0  0  0  0
    6.8800  -14.4480    2.4230 O   0  0  0  0  0  0  0  0  0  0  0  0
    5.5580  -12.6010    2.2980 O   0  0  0  0  0  0  0  0  0  0  0  0
    5.3640  -15.5810    0.3120 C   0  0  0  0  0  0  0  0  0  0  0  0
    4.2180  -15.9930    1.2380 C   0  0  0  0  0  0  0  0  0  0  0  0
    2.8800  -15.2440    0.9840 C   0  0  2  0  0  0  0  0  0  0  0  0
    2.1980  -16.0060   -0.1990 C   0  0  0  0  0  0  0  0  0  0  0  0
    3.0520  -13.7820    0.5180 C   0  0  0  0  0  0  0  0  0  0  0  0
    2.0560  -12.8890    0.6990 C   0  0  0  0  0  0  0  0  0  0  0  0
    0.7520  -13.1520    1.3940 C   0  0  0  0  0  0  0  0  0  0  0  0
    0.5670  -14.5870    1.9490 C   0  0  2  0  0  0  0  0  0  0  0  0
   -0.6080  -14.7380    3.0100 C   0  0  1  0  0  0  0  0  0  0  0  0
   -0.3690  -13.8800    4.2790 C   0  0  0  0  0  0  0  0  0  0  0  0
   -1.9300  -14.2480    2.3490 C   0  0  0  0  0  0  0  0  0  0  0  0
   -3.1870  -14.6160    3.1330 C   0  0  1  0  0  0  0  0  0  0  0  0
   -4.3520  -14.2320    2.3830 O   0  0  0  0  0  0  0  0  0  0  0  0
   -3.2790  -16.1250    3.3860 C   0  0  2  0  0  0  0  0  0  0  0  0
   -4.4860  -16.3760    4.1240 O   0  0  0  0  0  0  0  0  0  0  0  0
   -2.0370  -16.7170    4.1120 C   0  0  2  0  0  0  0  0  0  0  0  0
   -2.1760  -18.2660    4.0500 C   0  0  0  0  0  0  0  0  0  0  0  0
   -2.0120  -16.3190    5.6100 C   0  0  0  0  0  0  0  0  0  0  0  0
   -2.8630  -17.1420    6.4070 O   0  0  0  0  0  0  0  0  0  0  0  0
   -0.7490  -16.2760    3.3170 C   0  0  2  0  0  0  0  0  0  0  0  0
    0.5750  -16.8530    3.8610 C   0  0  0  0  0  0  0  0  0  0  0  0
    1.7110  -16.7010    2.8440 C   0  0  0  0  0  0  0  0  0  0  0  0
    1.9450  -15.2530    2.3230 C   0  0  1  0  0  0  0  0  0  0  0  0
    2.6530  -14.4650    3.4710 C   0  0  0  0  0  0  0  0  0  0  0  0
    4.3850  -13.2780   -0.0840 C   0  0  2  0  0  0  0  0  0  0  0  0
    4.2910  -13.0700   -1.6310 C   0  0  2  0  0  0  0  0  0  0  0  0
    3.8370  -14.2510   -2.3030 O   0  0  0  0  0  0  0  0  0  0  0  0
    5.9827  -11.1114   -0.7578 H   0  0  0  0  0  0  0  0  0  0  0  0
    6.9579  -10.9006   -2.2515 H   0  0  0  0  0  0  0  0  0  0  0  0
    5.2122  -10.4775   -2.2515 H   0  0  0  0  0  0  0  0  0  0  0  0
    4.4319  -12.6024   -4.1092 H   0  0  0  0  0  0  0  0  0  0  0  0
    5.9897  -11.7168   -4.2341 H   0  0  0  0  0  0  0  0  0  0  0  0
    5.9752  -13.5130   -4.2341 H   0  0  0  0  0  0  0  0  0  0  0  0
    6.4894  -14.5891   -2.2894 H   0  0  0  0  0  0  0  0  0  0  0  0
    7.6796  -13.2115   -2.3128 H   0  0  0  0  0  0  0  0  0  0  0  0
    7.6741  -14.4774   -0.1826 H   0  0  0  0  0  0  0  0  0  0  0  0
    7.2219  -12.7057   -0.0314 H   0  0  0  0  0  0  0  0  0  0  0  0
    5.1007  -15.8429   -0.7234 H   0  0  0  0  0  0  0  0  0  0  0  0
    6.2745  -16.1121    0.6264 H   0  0  0  0  0  0  0  0  0  0  0  0
    4.0391  -17.0701    1.1042 H   0  0  0  0  0  0  0  0  0  0  0  0
    4.5328  -15.7316    2.2591 H   0  0  0  0  0  0  0  0  0  0  0  0
    1.5148  -16.7693    0.2018 H   0  0  0  0  0  0  0  0  0  0  0  0
    1.6305  -15.2934   -0.8155 H   0  0  0  0  0  0  0  0  0  0  0  0
    2.9689  -16.4913   -0.8155 H   0  0  0  0  0  0  0  0  0  0  0  0
    2.2146  -11.8760    0.3007 H   0  0  0  0  0  0  0  0  0  0  0  0
    0.6700  -12.4499    2.2368 H   0  0  0  0  0  0  0  0  0  0  0  0
   -0.0282  -13.0219    0.6296 H   0  0  0  0  0  0  0  0  0  0  0  0
    0.1816  -15.2038    1.1237 H   0  0  0  0  0  0  0  0  0  0  0  0
   -0.5403  -14.4948    5.1749 H   0  0  0  0  0  0  0  0  0  0  0  0
    0.6666  -13.5092    4.2812 H   0  0  0  0  0  0  0  0  0  0  0  0
   -1.0638  -13.0272    4.2812 H   0  0  0  0  0  0  0  0  0  0  0  0
   -1.8866  -13.1526    2.2584 H   0  0  0  0  0  0  0  0  0  0  0  0
   -2.0041  -14.7499    1.3730 H   0  0  0  0  0  0  0  0  0  0  0  0
   -3.1351  -14.0884    4.0968 H   0  0  0  0  0  0  0  0  0  0  0  0
   -4.5850  -14.9880    1.8140 H   0  0  0  0  0  0  0  0  0  0  0  0
   -3.3009  -16.6374    2.4129 H   0  0  0  0  0  0  0  0  0  0  0  0
   -5.1690  -15.8540    3.6510 H   0  0  0  0  0  0  0  0  0  0  0  0
   -2.2124  -18.6721    5.0717 H   0  0  0  0  0  0  0  0  0  0  0  0
   -3.1015  -18.5301    3.5173 H   0  0  0  0  0  0  0  0  0  0  0  0
   -1.3123  -18.6906    3.5173 H   0  0  0  0  0  0  0  0  0  0  0  0
   -0.9812  -16.4117    5.9827 H   0  0  0  0  0  0  0  0  0  0  0  0
   -2.3779  -15.2846    5.6878 H   0  0  0  0  0  0  0  0  0  0  0  0
   -2.3370  -17.3870    7.2000 H   0  0  0  0  0  0  0  0  0  0  0  0
   -0.9409  -16.7512    2.3437 H   0  0  0  0  0  0  0  0  0  0  0  0
    0.8463  -16.3182    4.7832 H   0  0  0  0  0  0  0  0  0  0  0  0
    0.4296  -17.9251    4.0598 H   0  0  0  0  0  0  0  0  0  0  0  0
    2.6412  -17.0463    3.3188 H   0  0  0  0  0  0  0  0  0  0  0  0
    1.4175  -17.2971    1.9673 H   0  0  0  0  0  0  0  0  0  0  0  0
    2.3098  -14.8470    4.4438 H   0  0  0  0  0  0  0  0  0  0  0  0
    3.7420  -14.5968    3.3888 H   0  0  0  0  0  0  0  0  0  0  0  0
    2.4058  -13.3963    3.3888 H   0  0  0  0  0  0  0  0  0  0  0  0
    4.5563  -12.2738    0.3310 H   0  0  0  0  0  0  0  0  0  0  0  0
    3.5567  -12.2596   -1.7499 H   0  0  0  0  0  0  0  0  0  0  0  0
    4.4650  -14.3820   -3.0310 H   0  0  0  0  0  0  0  0  0  0  0  0
  1  2  1  0
  2  3  1  0
  2  4  1  0
  4  5  1  0
  5  6  1  0
  6  7  1  1
  7  8  2  0
  7  9  1  0
  6 10  1  0
 10 11  1  0
 11 12  1  0
 12 13  1  6
 12 14  1  0
 14 15  2  0
 15 16  1  0
 16 17  1  0
 17 18  1  0
 18 19  1  1
 18 20  1  0
 20 21  1  0
 21 22  1  0
 21 23  1  0
 23 24  1  0
 23 25  1  0
 25 26  1  1
 25 27  1  0
 27 28  1  0
 25 29  1  0
 29 30  1  0
 30 31  1  0
 31 32  1  0
 32 33  1  1
 14 34  1  0
 34 35  1  0
 35 36  1  0
 35  2  1  0
 34  6  1  0
 32 12  1  0
 32 17  1  0
 29 18  1  0
  1 37  1  0
  1 38  1  0
  1 39  1  0
  3 40  1  0
  3 41  1  0
  3 42  1  0
  4 43  1  0
  4 44  1  0
  5 45  1  0
  5 46  1  0
 10 47  1  0
 10 48  1  0
 11 49  1  0
 11 50  1  0
 13 51  1  0
 13 52  1  0
 13 53  1  0
 15 54  1  0
 16 55  1  0
 16 56  1  0
 17 57  1  6
 19 58  1  0
 19 59  1  0
 19 60  1  0
 20 61  1  0
 20 62  1  0
 21 63  1  1
 22 64  1  0
 23 65  1  6
 24 66  1  0
 26 67  1  0
 26 68  1  0
 26 69  1  0
 27 70  1  0
 27 71  1  0
 28 72  1  0
 29 73  1  6
 30 74  1  0
 30 75  1  0
 31 76  1  0
 31 77  1  0
 33 78  1  0
 33 79  1  0
 33 80  1  0
 34 81  1  1
 35 82  1  1
 36 83  1  0
M  CHG  1   9  -1
M  END
>  <meeko>  (8) 
{"is_sidechain": [false], "free_energy": -7.16, "intermolecular_energy": -8.833, "internal_energy": -0.441}

$$$$
LIB_IFIQVSCCFRXSJV__M_PUB_ALL__e8__s20260927
     RDKit          3D

 83 87  0  0  0  0  0  0  0  0999 V2000
    7.9500  -15.8170   -3.5260 C   0  0  0  0  0  0  0  0  0  0  0  0
    7.9220  -15.1200   -2.1490 C   0  0  0  0  0  0  0  0  0  0  0  0
    9.0970  -15.6910   -1.3240 C   0  0  0  0  0  0  0  0  0  0  0  0
    8.1250  -13.6000   -2.2930 C   0  0  0  0  0  0  0  0  0  0  0  0
    6.9950  -12.9260   -3.0620 C   0  0  0  0  0  0  0  0  0  0  0  0
    5.5780  -13.1920   -2.4870 C   0  0  2  0  0  0  0  0  0  0  0  0
    4.7170  -12.7530   -3.7230 C   0  0  0  0  0  0  0  0  0  0  0  0
    4.1540  -13.6810   -4.3720 O   0  0  0  0  0  0  0  0  0  0  0  0
    4.7060  -11.5110   -3.9710 O   0  0  0  0  0  0  0  0  0  0  0  0
    5.3080  -12.2820   -1.2810 C   0  0  0  0  0  0  0  0  0  0  0  0
    3.8510  -12.3810   -0.8290 C   0  0  0  0  0  0  0  0  0  0  0  0
    3.3790  -13.8200   -0.4760 C   0  0  2  0  0  0  0  0  0  0  0  0
    3.8510  -14.0600    0.9950 C   0  0  0  0  0  0  0  0  0  0  0  0
    4.0340  -14.9270   -1.3290 C   0  0  0  0  0  0  0  0  0  0  0  0
    3.4240  -16.1230   -1.4760 C   0  0  0  0  0  0  0  0  0  0  0  0
    2.0810  -16.5000   -0.9240 C   0  0  0  0  0  0  0  0  0  0  0  0
    1.3490  -15.3920   -0.1260 C   0  0  2  0  0  0  0  0  0  0  0  0
   -0.2030  -15.6540    0.0990 C   0  0  1  0  0  0  0  0  0  0  0  0
   -0.9870  -15.7250   -1.2360 C   0  0  0  0  0  0  0  0  0  0  0  0
   -0.3680  -17.0250    0.8190 C   0  0  0  0  0  0  0  0  0  0  0  0
   -1.7700  -17.2690    1.3710 C   0  0  1  0  0  0  0  0  0  0  0  0
   -1.7850  -18.4960    2.1190 O   0  0  0  0  0  0  0  0  0  0  0  0
   -2.2120  -16.1460    2.3170 C   0  0  2  0  0  0  0  0  0  0  0  0
   -3.5340  -16.4610    2.7860 O   0  0  0  0  0  0  0  0  0  0  0  0
   -2.1590  -14.7300    1.6780 C   0  0  2  0  0  0  0  0  0  0  0  0
   -2.3780  -13.7080    2.8320 C   0  0  0  0  0  0  0  0  0  0  0  0
   -3.3080  -14.5220    0.6580 C   0  0  0  0  0  0  0  0  0  0  0  0
   -4.1020  -13.3760    0.9590 O   0  0  0  0  0  0  0  0  0  0  0  0
   -0.7210  -14.5230    1.0650 C   0  0  2  0  0  0  0  0  0  0  0  0
   -0.4710  -13.1260    0.4600 C   0  0  0  0  0  0  0  0  0  0  0  0
    1.0240  -12.8730    0.2350 C   0  0  0  0  0  0  0  0  0  0  0  0
    1.7570  -13.9500   -0.6160 C   0  0  1  0  0  0  0  0  0  0  0  0
    1.3310  -13.7240   -2.1020 C   0  0  0  0  0  0  0  0  0  0  0  0
    5.3480  -14.6770   -2.1050 C   0  0  2  0  0  0  0  0  0  0  0  0
    6.5720  -15.3820   -1.4330 C   0  0  2  0  0  0  0  0  0  0  0  0
    6.7100  -15.0160   -0.0560 O   0  0  0  0  0  0  0  0  0  0  0  0
    7.9938  -16.9070   -3.3844 H   0  0  0  0  0  0  0  0  0  0  0  0
    7.0407  -15.5564   -4.0874 H   0  0  0  0  0  0  0  0  0  0  0  0
    8.8355  -15.4843   -4.0874 H   0  0  0  0  0  0  0  0  0  0  0  0
    8.8778  -15.5845   -0.2513 H   0  0  0  0  0  0  0  0  0  0  0  0
    9.2323  -16.7553   -1.5667 H   0  0  0  0  0  0  0  0  0  0  0  0
   10.0174  -15.1397   -1.5667 H   0  0  0  0  0  0  0  0  0  0  0  0
    8.1809  -13.1557   -1.2883 H   0  0  0  0  0  0  0  0  0  0  0  0
    9.0539  -13.4411   -2.8603 H   0  0  0  0  0  0  0  0  0  0  0  0
    7.1719  -11.8404   -3.0516 H   0  0  0  0  0  0  0  0  0  0  0  0
    7.0071  -13.3537   -4.0754 H   0  0  0  0  0  0  0  0  0  0  0  0
    5.9627  -12.5837   -0.4501 H   0  0  0  0  0  0  0  0  0  0  0  0
    5.5110  -11.2422   -1.5769 H   0  0  0  0  0  0  0  0  0  0  0  0
    3.7249  -11.7500    0.0632 H   0  0  0  0  0  0  0  0  0  0  0  0
    3.2374  -12.0518   -1.6805 H   0  0  0  0  0  0  0  0  0  0  0  0
    3.0919  -13.6740    1.6912 H   0  0  0  0  0  0  0  0  0  0  0  0
    3.9895  -15.1380    1.1644 H   0  0  0  0  0  0  0  0  0  0  0  0
    4.8037  -13.5368    1.1644 H   0  0  0  0  0  0  0  0  0  0  0  0
    3.9608  -16.8905   -2.0530 H   0  0  0  0  0  0  0  0  0  0  0  0
    1.4378  -16.7901   -1.7679 H   0  0  0  0  0  0  0  0  0  0  0  0
    2.2683  -17.3128   -0.2069 H   0  0  0  0  0  0  0  0  0  0  0  0
    1.7192  -15.4443    0.9085 H   0  0  0  0  0  0  0  0  0  0  0  0
   -2.0622  -15.8224   -1.0251 H   0  0  0  0  0  0  0  0  0  0  0  0
   -0.8086  -14.8070   -1.8152 H   0  0  0  0  0  0  0  0  0  0  0  0
   -0.6466  -16.5960   -1.8152 H   0  0  0  0  0  0  0  0  0  0  0  0
   -0.1350  -17.8241    0.0999 H   0  0  0  0  0  0  0  0  0  0  0  0
    0.3172  -17.0182    1.6795 H   0  0  0  0  0  0  0  0  0  0  0  0
   -2.4561  -17.3115    0.5123 H   0  0  0  0  0  0  0  0  0  0  0  0
   -1.6130  -19.2170    1.4860 H   0  0  0  0  0  0  0  0  0  0  0  0
   -1.4998  -16.0977    3.1539 H   0  0  0  0  0  0  0  0  0  0  0  0
   -3.8850  -15.6020    3.1060 H   0  0  0  0  0  0  0  0  0  0  0  0
   -2.2685  -14.2189    3.8000 H   0  0  0  0  0  0  0  0  0  0  0  0
   -1.6319  -12.9033    2.7557 H   0  0  0  0  0  0  0  0  0  0  0  0
   -3.3883  -13.2797    2.7557 H   0  0  0  0  0  0  0  0  0  0  0  0
   -2.8722  -14.3964   -0.3441 H   0  0  0  0  0  0  0  0  0  0  0  0
   -3.9623  -15.4050    0.7055 H   0  0  0  0  0  0  0  0  0  0  0  0
   -3.9570  -13.1890    1.9130 H   0  0  0  0  0  0  0  0  0  0  0  0
   -0.1026  -14.6055    1.9709 H   0  0  0  0  0  0  0  0  0  0  0  0
   -0.9951  -13.0547   -0.5045 H   0  0  0  0  0  0  0  0  0  0  0  0
   -0.8474  -12.3708    1.1657 H   0  0  0  0  0  0  0  0  0  0  0  0
    1.1323  -11.9044   -0.2750 H   0  0  0  0  0  0  0  0  0  0  0  0
    1.4916  -12.8999    1.2303 H   0  0  0  0  0  0  0  0  0  0  0  0
    0.3596  -13.2087   -2.1306 H   0  0  0  0  0  0  0  0  0  0  0  0
    2.0876  -13.1087   -2.6108 H   0  0  0  0  0  0  0  0  0  0  0  0
    1.2458  -14.6955   -2.6108 H   0  0  0  0  0  0  0  0  0  0  0  0
    5.2324  -15.1695   -3.0818 H   0  0  0  0  0  0  0  0  0  0  0  0
    6.3457  -16.4550   -1.5194 H   0  0  0  0  0  0  0  0  0  0  0  0
    5.8010  -14.9630    0.2820 H   0  0  0  0  0  0  0  0  0  0  0  0
  1  2  1  0
  2  3  1  0
  2  4  1  0
  4  5  1  0
  5  6  1  0
  6  7  1  6
  7  8  2  0
  7  9  1  0
  6 10  1  0
 10 11  1  0
 11 12  1  0
 12 13  1  1
 12 14  1  0
 14 15  2  0
 15 16  1  0
 16 17  1  0
 17 18  1  0
 18 19  1  6
 18 20  1  0
 20 21  1  0
 21 22  1  0
 21 23  1  0
 23 24  1  0
 23 25  1  0
 25 26  1  1
 25 27  1  0
 27 28  1  0
 25 29  1  0
 29 30  1  0
 30 31  1  0
 31 32  1  0
 32 33  1  6
 14 34  1  0
 34 35  1  0
 35 36  1  0
 35  2  1  0
 34  6  1  0
 32 12  1  0
 32 17  1  0
 29 18  1  0
  1 37  1  0
  1 38  1  0
  1 39  1  0
  3 40  1  0
  3 41  1  0
  3 42  1  0
  4 43  1  0
  4 44  1  0
  5 45  1  0
  5 46  1  0
 10 47  1  0
 10 48  1  0
 11 49  1  0
 11 50  1  0
 13 51  1  0
 13 52  1  0
 13 53  1  0
 15 54  1  0
 16 55  1  0
 16 56  1  0
 17 57  1  1
 19 58  1  0
 19 59  1  0
 19 60  1  0
 20 61  1  0
 20 62  1  0
 21 63  1  6
 22 64  1  0
 23 65  1  1
 24 66  1  0
 26 67  1  0
 26 68  1  0
 26 69  1  0
 27 70  1  0
 27 71  1  0
 28 72  1  0
 29 73  1  1
 30 74  1  0
 30 75  1  0
 31 76  1  0
 31 77  1  0
 33 78  1  0
 33 79  1  0
 33 80  1  0
 34 81  1  6
 35 82  1  1
 36 83  1  0
M  CHG  1   9  -1
M  END
>  <meeko>  (9) 
{"is_sidechain": [false], "free_energy": -7.133, "intermolecular_energy": -8.935, "internal_energy": -0.305}

$$$$
