LIB_HAKUBDUVAGUCGC__M_PUB_ALL__e8__s20260927
     RDKit          3D

 47 50  0  0  0  0  0  0  0  0999 V2000
   12.0570    0.1170  -11.0730 C   0  0  0  0  0  0  0  0  0  0  0  0
   11.9760   -1.3280  -11.5410 C   0  0  0  0  0  0  0  0  0  0  0  0
   11.1140   -1.5110  -12.7950 C   0  0  0  0  0  0  0  0  0  0  0  0
   10.4950   -2.8350  -12.8570 N   0  0  0  0  0  0  0  0  0  0  0  0
    9.0330   -2.9040  -12.8800 C   0  0  0  0  0  0  0  0  0  0  0  0
    8.4770   -1.8950  -13.8440 C   0  0  0  0  0  0  0  0  0  0  0  0
    7.2940   -1.0420  -13.4580 C   0  0  0  0  0  0  0  0  0  0  0  0
    7.1410   -2.1010  -14.5150 C   0  0  0  0  0  0  0  0  0  0  0  0
   11.2150   -4.0180  -12.8410 C   0  0  0  0  0  0  0  0  0  0  0  0
   10.9250   -5.0530  -11.9760 C   0  0  0  0  0  0  0  0  0  0  0  0
   11.7140   -6.1850  -12.0520 C   0  0  0  0  0  0  0  0  0  0  0  0
   11.4400   -7.3380  -11.1310 C   0  0  0  0  0  0  0  0  0  0  0  0
   10.9860   -7.1210  -10.0140 O   0  0  0  0  0  0  0  0  0  0  0  0
   11.7540   -8.5590  -11.6930 N   0  0  0  0  0  0  0  0  0  0  0  0
   11.6330   -9.8460  -11.1330 C   0  0  0  0  0  0  0  0  0  0  0  0
   12.6180  -10.4280  -10.3120 C   0  0  0  0  0  0  0  0  0  0  0  0
   12.4670  -11.7150   -9.7670 C   0  0  0  0  0  0  0  0  0  0  0  0
   11.2910  -12.4190  -10.0650 C   0  0  0  0  0  0  0  0  0  0  0  0
   10.8830  -13.6510   -9.6870 N   0  0  0  0  0  0  0  0  0  0  0  0
    9.6680  -13.8730  -10.2410 N   0  0  0  0  0  0  0  0  0  0  0  0
    9.3630  -12.7710  -10.9450 C   0  0  0  0  0  0  0  0  0  0  0  0
   10.3380  -11.8140  -10.8790 C   0  0  0  0  0  0  0  0  0  0  0  0
   10.4550  -10.5470  -11.4330 C   0  0  0  0  0  0  0  0  0  0  0  0
   12.7420   -6.3410  -12.9140 N   0  0  0  0  0  0  0  0  0  0  0  0
   12.9440   -5.2930  -13.7090 C   0  0  0  0  0  0  0  0  0  0  0  0
   12.2360   -4.1530  -13.7130 N   0  0  0  0  0  0  0  0  0  0  0  0
   12.0587    0.1467   -9.9734 H   0  0  0  0  0  0  0  0  0  0  0  0
   12.9822    0.5744  -11.4536 H   0  0  0  0  0  0  0  0  0  0  0  0
   11.1887    0.6749  -11.4536 H   0  0  0  0  0  0  0  0  0  0  0  0
   12.9940   -1.6810  -11.7624 H   0  0  0  0  0  0  0  0  0  0  0  0
   11.5036   -1.9064  -10.7333 H   0  0  0  0  0  0  0  0  0  0  0  0
   10.3202   -0.7495  -12.7924 H   0  0  0  0  0  0  0  0  0  0  0  0
   11.7701   -1.4058  -13.6716 H   0  0  0  0  0  0  0  0  0  0  0  0
    8.7225   -3.9123  -13.1913 H   0  0  0  0  0  0  0  0  0  0  0  0
    8.6492   -2.6848  -11.8727 H   0  0  0  0  0  0  0  0  0  0  0  0
    9.4999   -1.7039  -14.2006 H   0  0  0  0  0  0  0  0  0  0  0  0
    6.8187   -1.1740  -12.4748 H   0  0  0  0  0  0  0  0  0  0  0  0
    7.0992    0.0394  -13.4075 H   0  0  0  0  0  0  0  0  0  0  0  0
    6.5540   -3.0071  -14.3044 H   0  0  0  0  0  0  0  0  0  0  0  0
    6.7882   -2.1141  -15.5568 H   0  0  0  0  0  0  0  0  0  0  0  0
   10.0982   -4.9800  -11.2542 H   0  0  0  0  0  0  0  0  0  0  0  0
   12.1200   -8.5040  -12.6390 H   0  0  0  0  0  0  0  0  0  0  0  0
   13.5328   -9.8586  -10.0906 H   0  0  0  0  0  0  0  0  0  0  0  0
   13.2460  -12.1557   -9.1275 H   0  0  0  0  0  0  0  0  0  0  0  0
    8.4292  -12.6508  -11.5138 H   0  0  0  0  0  0  0  0  0  0  0  0
    9.6690  -10.1167  -12.0710 H   0  0  0  0  0  0  0  0  0  0  0  0
   13.7699   -5.3684  -14.4316 H   0  0  0  0  0  0  0  0  0  0  0  0
  1  2  1  0
  2  3  1  0
  3  4  1  0
  4  5  1  0
  5  6  1  0
  6  7  1  0
  7  8  1  0
  4  9  1  0
  9 10  2  0
 10 11  1  0
 11 12  1  0
 12 13  2  0
 12 14  1  0
 14 15  1  0
 15 16  2  0
 16 17  1  0
 17 18  2  0
 18 19  1  0
 19 20  1  0
 20 21  2  0
 21 22  1  0
 22 23  2  0
 11 24  2  0
 24 25  1  0
 25 26  2  0
  8  6  1  0
 26  9  1  0
 23 15  1  0
 22 18  1  0
  1 27  1  0
  1 28  1  0
  1 29  1  0
  2 30  1  0
  2 31  1  0
  3 32  1  0
  3 33  1  0
  5 34  1  0
  5 35  1  0
  6 36  1  0
  7 37  1  0
  7 38  1  0
  8 39  1  0
  8 40  1  0
 10 41  1  0
 14 42  1  0
 16 43  1  0
 17 44  1  0
 21 45  1  0
 23 46  1  0
 25 47  1  0
M  CHG  1  19  -1
M  END
>  <meeko>  (1) 
{"is_sidechain": [false], "free_energy": -8.062, "intermolecular_energy": -11.362, "internal_energy": -0.864}

$$$$
LIB_HAKUBDUVAGUCGC__M_PUB_ALL__e8__s20260927
     RDKit          3D

 47 50  0  0  0  0  0  0  0  0999 V2000
   14.8060  -12.9760  -13.6910 C   0  0  0  0  0  0  0  0  0  0  0  0
   13.4990  -12.6570  -12.9790 C   0  0  0  0  0  0  0  0  0  0  0  0
   13.6650  -12.4570  -11.4690 C   0  0  0  0  0  0  0  0  0  0  0  0
   12.3870  -12.2390  -10.7920 N   0  0  0  0  0  0  0  0  0  0  0  0
   11.9740  -13.2150   -9.7840 C   0  0  0  0  0  0  0  0  0  0  0  0
   12.7510  -14.4910   -9.9420 C   0  0  0  0  0  0  0  0  0  0  0  0
   12.1120  -15.7020  -10.5750 C   0  0  0  0  0  0  0  0  0  0  0  0
   12.4420  -15.7100   -9.1080 C   0  0  0  0  0  0  0  0  0  0  0  0
   11.5300  -11.1930  -11.0930 C   0  0  0  0  0  0  0  0  0  0  0  0
   11.8730   -9.8720  -10.9030 C   0  0  0  0  0  0  0  0  0  0  0  0
   10.9340   -8.9160  -11.2390 C   0  0  0  0  0  0  0  0  0  0  0  0
   11.2600   -7.4630  -11.0490 C   0  0  0  0  0  0  0  0  0  0  0  0
   11.2020   -6.9760   -9.9260 O   0  0  0  0  0  0  0  0  0  0  0  0
   11.5980   -6.8300  -12.2290 N   0  0  0  0  0  0  0  0  0  0  0  0
   11.9580   -5.4840  -12.4370 C   0  0  0  0  0  0  0  0  0  0  0  0
   13.2930   -5.0470  -12.5440 C   0  0  0  0  0  0  0  0  0  0  0  0
   13.6190   -3.6970  -12.7530 C   0  0  0  0  0  0  0  0  0  0  0  0
   12.5650   -2.7750  -12.8520 C   0  0  0  0  0  0  0  0  0  0  0  0
   12.5810   -1.4380  -13.0480 N   0  0  0  0  0  0  0  0  0  0  0  0
   11.2980   -1.0080  -13.0690 N   0  0  0  0  0  0  0  0  0  0  0  0
   10.5290   -2.0930  -12.8860 C   0  0  0  0  0  0  0  0  0  0  0  0
   11.2580   -3.2410  -12.7420 C   0  0  0  0  0  0  0  0  0  0  0  0
   10.9010   -4.5660  -12.5370 C   0  0  0  0  0  0  0  0  0  0  0  0
    9.7110   -9.1920  -11.7410 N   0  0  0  0  0  0  0  0  0  0  0  0
    9.4700  -10.4920  -11.8920 C   0  0  0  0  0  0  0  0  0  0  0  0
   10.3130  -11.4940  -11.5960 N   0  0  0  0  0  0  0  0  0  0  0  0
   15.5921  -13.1679  -12.9459 H   0  0  0  0  0  0  0  0  0  0  0  0
   14.6722  -13.8679  -14.3208 H   0  0  0  0  0  0  0  0  0  0  0  0
   15.0982  -12.1228  -14.3208 H   0  0  0  0  0  0  0  0  0  0  0  0
   13.0828  -11.7344  -13.4098 H   0  0  0  0  0  0  0  0  0  0  0  0
   12.8310  -13.5191  -13.1221 H   0  0  0  0  0  0  0  0  0  0  0  0
   14.1416  -13.3528  -11.0442 H   0  0  0  0  0  0  0  0  0  0  0  0
   14.2834  -11.5604  -11.3153 H   0  0  0  0  0  0  0  0  0  0  0  0
   12.1573  -12.8007   -8.7816 H   0  0  0  0  0  0  0  0  0  0  0  0
   10.9032  -13.4307   -9.9135 H   0  0  0  0  0  0  0  0  0  0  0  0
   13.6537  -13.8911  -10.1297 H   0  0  0  0  0  0  0  0  0  0  0  0
   11.0625  -15.6619  -10.9021 H   0  0  0  0  0  0  0  0  0  0  0  0
   12.3541  -16.3510  -11.4295 H   0  0  0  0  0  0  0  0  0  0  0  0
   11.6339  -15.6756   -8.3625 H   0  0  0  0  0  0  0  0  0  0  0  0
   13.0251  -16.3671   -8.4461 H   0  0  0  0  0  0  0  0  0  0  0  0
   12.8565   -9.5896  -10.4994 H   0  0  0  0  0  0  0  0  0  0  0  0
   11.5800   -7.4310  -13.0480 H   0  0  0  0  0  0  0  0  0  0  0  0
   14.1043   -5.7852  -12.4614 H   0  0  0  0  0  0  0  0  0  0  0  0
   14.6667   -3.3725  -12.8365 H   0  0  0  0  0  0  0  0  0  0  0  0
    9.4299   -2.0620  -12.8552 H   0  0  0  0  0  0  0  0  0  0  0  0
    9.8495   -4.8792  -12.4574 H   0  0  0  0  0  0  0  0  0  0  0  0
    8.4867  -10.7722  -12.2979 H   0  0  0  0  0  0  0  0  0  0  0  0
  1  2  1  0
  2  3  1  0
  3  4  1  0
  4  5  1  0
  5  6  1  0
  6  7  1  0
  7  8  1  0
  4  9  1  0
  9 10  2  0
 10 11  1  0
 11 12  1  0
 12 13  2  0
 12 14  1  0
 14 15  1  0
 15 16  2  0
 16 17  1  0
 17 18  2  0
 18 19  1  0
 19 20  1  0
 20 21  2  0
 21 22  1  0
 22 23  2  0
 11 24  2  0
 24 25  1  0
 25 26  2  0
  8  6  1  0
 26  9  1  0
 23 15  1  0
 22 18  1  0
  1 27  1  0
  1 28  1  0
  1 29  1  0
  2 30  1  0
  2 31  1  0
  3 32  1  0
  3 33  1  0
  5 34  1  0
  5 35  1  0
  6 36  1  0
  7 37  1  0
  7 38  1  0
  8 39  1  0
  8 40  1  0
 10 41  1  0
 14 42  1  0
 16 43  1  0
 17 44  1  0
 21 45  1  0
 23 46  1  0
 25 47  1  0
M  CHG  1  19  -1
M  END
>  <meeko>  (2) 
{"is_sidechain": [false], "free_energy": -7.237, "intermolecular_energy": -10.156, "internal_energy": -0.906}

$$$$
LIB_HAKUBDUVAGUCGC__M_PUB_ALL__e8__s20260927
     RDKit          3D

 47 50  0  0  0  0  0  0  0  0999 V2000
   -1.0680  -11.8780    3.6600 C   0  0  0  0  0  0  0  0  0  0  0  0
   -0.7280  -11.6290    2.1980 C   0  0  0  0  0  0  0  0  0  0  0  0
   -1.0530  -12.8200    1.2900 C   0  0  0  0  0  0  0  0  0  0  0  0
   -2.4010  -13.3420    1.5150 N   0  0  0  0  0  0  0  0  0  0  0  0
   -3.5300  -12.4440    1.2690 C   0  0  0  0  0  0  0  0  0  0  0  0
   -3.4120  -11.8160   -0.0910 C   0  0  0  0  0  0  0  0  0  0  0  0
   -3.2590  -10.3220   -0.2310 C   0  0  0  0  0  0  0  0  0  0  0  0
   -4.5310  -10.9900   -0.6750 C   0  0  0  0  0  0  0  0  0  0  0  0
   -2.6580  -14.6150    1.9980 C   0  0  0  0  0  0  0  0  0  0  0  0
   -3.4660  -14.8460    3.0910 C   0  0  0  0  0  0  0  0  0  0  0  0
   -3.6470  -16.1590    3.4810 C   0  0  0  0  0  0  0  0  0  0  0  0
   -4.5160  -16.4630    4.6670 C   0  0  0  0  0  0  0  0  0  0  0  0
   -4.1950  -17.3630    5.4330 O   0  0  0  0  0  0  0  0  0  0  0  0
   -5.6260  -15.6430    4.7430 N   0  0  0  0  0  0  0  0  0  0  0  0
   -6.6530  -15.6370    5.7060 C   0  0  0  0  0  0  0  0  0  0  0  0
   -6.5020  -15.0910    6.9960 C   0  0  0  0  0  0  0  0  0  0  0  0
   -7.5470  -15.0990    7.9350 C   0  0  0  0  0  0  0  0  0  0  0  0
   -8.7680  -15.6740    7.5510 C   0  0  0  0  0  0  0  0  0  0  0  0
   -9.9250  -15.8190    8.2340 N   0  0  0  0  0  0  0  0  0  0  0  0
  -10.8110  -16.4410    7.4200 N   0  0  0  0  0  0  0  0  0  0  0  0
  -10.1730  -16.6600    6.2600 C   0  0  0  0  0  0  0  0  0  0  0  0
   -8.8840  -16.2040    6.2690 C   0  0  0  0  0  0  0  0  0  0  0  0
   -7.8730  -16.2120    5.3190 C   0  0  0  0  0  0  0  0  0  0  0  0
   -3.0910  -17.2230    2.8620 N   0  0  0  0  0  0  0  0  0  0  0  0
   -2.3300  -16.9020    1.8170 C   0  0  0  0  0  0  0  0  0  0  0  0
   -2.0920  -15.6620    1.3610 N   0  0  0  0  0  0  0  0  0  0  0  0
   -0.3460  -11.3492    4.2996 H   0  0  0  0  0  0  0  0  0  0  0  0
   -2.0826  -11.5078    3.8687 H   0  0  0  0  0  0  0  0  0  0  0  0
   -1.0213  -12.9570    3.8687 H   0  0  0  0  0  0  0  0  0  0  0  0
   -1.3014  -10.7573    1.8495 H   0  0  0  0  0  0  0  0  0  0  0  0
    0.3575  -11.4607    2.1395 H   0  0  0  0  0  0  0  0  0  0  0  0
   -0.9695  -12.4979    0.2415 H   0  0  0  0  0  0  0  0  0  0  0  0
   -0.3391  -13.6238    1.5231 H   0  0  0  0  0  0  0  0  0  0  0  0
   -4.4675  -13.0168    1.3238 H   0  0  0  0  0  0  0  0  0  0  0  0
   -3.5275  -11.6502    2.0304 H   0  0  0  0  0  0  0  0  0  0  0  0
   -2.8460  -12.6979   -0.4257 H   0  0  0  0  0  0  0  0  0  0  0  0
   -3.2572   -9.6833    0.6646 H   0  0  0  0  0  0  0  0  0  0  0  0
   -2.5231   -9.6573   -0.7071 H   0  0  0  0  0  0  0  0  0  0  0  0
   -5.4591  -10.8397   -0.1040 H   0  0  0  0  0  0  0  0  0  0  0  0
   -5.1099  -11.0159   -1.6100 H   0  0  0  0  0  0  0  0  0  0  0  0
   -3.9476  -14.0176    3.6312 H   0  0  0  0  0  0  0  0  0  0  0  0
   -5.6940  -14.9590    3.9950 H   0  0  0  0  0  0  0  0  0  0  0  0
   -5.5365  -14.6448    7.2765 H   0  0  0  0  0  0  0  0  0  0  0  0
   -7.4124  -14.6686    8.9383 H   0  0  0  0  0  0  0  0  0  0  0  0
  -10.6376  -17.1539    5.3939 H   0  0  0  0  0  0  0  0  0  0  0  0
   -8.0196  -16.6449    4.3184 H   0  0  0  0  0  0  0  0  0  0  0  0
   -1.8511  -17.7317    1.2763 H   0  0  0  0  0  0  0  0  0  0  0  0
  1  2  1  0
  2  3  1  0
  3  4  1  0
  4  5  1  0
  5  6  1  0
  6  7  1  0
  7  8  1  0
  4  9  1  0
  9 10  2  0
 10 11  1  0
 11 12  1  0
 12 13  2  0
 12 14  1  0
 14 15  1  0
 15 16  2  0
 16 17  1  0
 17 18  2  0
 18 19  1  0
 19 20  1  0
 20 21  2  0
 21 22  1  0
 22 23  2  0
 11 24  2  0
 24 25  1  0
 25 26  2  0
  8  6  1  0
 26  9  1  0
 23 15  1  0
 22 18  1  0
  1 27  1  0
  1 28  1  0
  1 29  1  0
  2 30  1  0
  2 31  1  0
  3 32  1  0
  3 33  1  0
  5 34  1  0
  5 35  1  0
  6 36  1  0
  7 37  1  0
  7 38  1  0
  8 39  1  0
  8 40  1  0
 10 41  1  0
 14 42  1  0
 16 43  1  0
 17 44  1  0
 21 45  1  0
 23 46  1  0
 25 47  1  0
M  CHG  1  19  -1
M  END
>  <meeko>  (3) 
{"is_sidechain": [false], "free_energy": -6.743, "intermolecular_energy": -9.449, "internal_energy": -0.917}

$$$$
LIB_HAKUBDUVAGUCGC__M_PUB_ALL__e8__s20260927
     RDKit          3D

 47 50  0  0  0  0  0  0  0  0999 V2000
   12.8060  -13.7410  -14.4730 C   0  0  0  0  0  0  0  0  0  0  0  0
   13.7970  -13.1960  -13.4550 C   0  0  0  0  0  0  0  0  0  0  0  0
   14.2480  -14.2410  -12.4290 C   0  0  0  0  0  0  0  0  0  0  0  0
   14.5820  -13.6440  -11.1360 N   0  0  0  0  0  0  0  0  0  0  0  0
   14.5010  -12.1880  -11.0140 C   0  0  0  0  0  0  0  0  0  0  0  0
   13.4030  -11.8040  -10.0630 C   0  0  0  0  0  0  0  0  0  0  0  0
   11.9560  -11.9730  -10.4580 C   0  0  0  0  0  0  0  0  0  0  0  0
   12.5360  -10.5940  -10.3100 C   0  0  0  0  0  0  0  0  0  0  0  0
   15.0210  -14.3770  -10.0450 C   0  0  0  0  0  0  0  0  0  0  0  0
   14.4200  -14.2980   -8.8060 C   0  0  0  0  0  0  0  0  0  0  0  0
   14.9470  -15.0760   -7.7930 C   0  0  0  0  0  0  0  0  0  0  0  0
   14.3290  -15.0250   -6.4260 C   0  0  0  0  0  0  0  0  0  0  0  0
   14.4350  -15.9920   -5.6820 O   0  0  0  0  0  0  0  0  0  0  0  0
   13.6850  -13.8290   -6.1730 N   0  0  0  0  0  0  0  0  0  0  0  0
   12.9980  -13.4260   -5.0120 C   0  0  0  0  0  0  0  0  0  0  0  0
   11.6710  -13.8020   -4.7270 C   0  0  0  0  0  0  0  0  0  0  0  0
   11.0130  -13.3830   -3.5580 C   0  0  0  0  0  0  0  0  0  0  0  0
   11.7220  -12.5650   -2.6650 C   0  0  0  0  0  0  0  0  0  0  0  0
   11.3490  -12.0220   -1.4840 N   0  0  0  0  0  0  0  0  0  0  0  0
   12.3980  -11.3120   -1.0070 N   0  0  0  0  0  0  0  0  0  0  0  0
   13.3860  -11.4370   -1.9060 C   0  0  0  0  0  0  0  0  0  0  0  0
   13.0320  -12.2130   -2.9760 C   0  0  0  0  0  0  0  0  0  0  0  0
   13.7110  -12.6090   -4.1200 C   0  0  0  0  0  0  0  0  0  0  0  0
   16.0040  -15.9050   -7.9390 N   0  0  0  0  0  0  0  0  0  0  0  0
   16.5150  -15.9160   -9.1680 C   0  0  0  0  0  0  0  0  0  0  0  0
   16.0780  -15.2000  -10.2150 N   0  0  0  0  0  0  0  0  0  0  0  0
   11.9593  -14.2067  -13.9475 H   0  0  0  0  0  0  0  0  0  0  0  0
   12.4384  -12.9182  -15.1037 H   0  0  0  0  0  0  0  0  0  0  0  0
   13.3040  -14.4921  -15.1037 H   0  0  0  0  0  0  0  0  0  0  0  0
   14.6838  -12.8292  -13.9927 H   0  0  0  0  0  0  0  0  0  0  0  0
   13.2872  -12.3941  -12.9009 H   0  0  0  0  0  0  0  0  0  0  0  0
   13.4348  -14.9673  -12.2834 H   0  0  0  0  0  0  0  0  0  0  0  0
   15.1552  -14.7252  -12.8196 H   0  0  0  0  0  0  0  0  0  0  0  0
   15.4593  -11.8017  -10.6366 H   0  0  0  0  0  0  0  0  0  0  0  0
   14.2841  -11.7579  -12.0029 H   0  0  0  0  0  0  0  0  0  0  0  0
   14.0347  -12.1459   -9.2299 H   0  0  0  0  0  0  0  0  0  0  0  0
   11.7000  -12.3574  -11.4563 H   0  0  0  0  0  0  0  0  0  0  0  0
   11.0908  -12.5020  -10.0319 H   0  0  0  0  0  0  0  0  0  0  0  0
   12.7040   -9.9700  -11.2002 H   0  0  0  0  0  0  0  0  0  0  0  0
   12.2702   -9.6974   -9.7309 H   0  0  0  0  0  0  0  0  0  0  0  0
   13.5550  -13.6413   -8.6312 H   0  0  0  0  0  0  0  0  0  0  0  0
   13.7220  -13.1630   -6.9390 H   0  0  0  0  0  0  0  0  0  0  0  0
   11.1333  -14.4431   -5.4411 H   0  0  0  0  0  0  0  0  0  0  0  0
    9.9763  -13.6863   -3.3499 H   0  0  0  0  0  0  0  0  0  0  0  0
   14.3740  -10.9664   -1.7949 H   0  0  0  0  0  0  0  0  0  0  0  0
   14.7484  -12.3004   -4.3166 H   0  0  0  0  0  0  0  0  0  0  0  0
   17.3782  -16.5753   -9.3418 H   0  0  0  0  0  0  0  0  0  0  0  0
  1  2  1  0
  2  3  1  0
  3  4  1  0
  4  5  1  0
  5  6  1  0
  6  7  1  0
  7  8  1  0
  4  9  1  0
  9 10  2  0
 10 11  1  0
 11 12  1  0
 12 13  2  0
 12 14  1  0
 14 15  1  0
 15 16  2  0
 16 17  1  0
 17 18  2  0
 18 19  1  0
 19 20  1  0
 20 21  2  0
 21 22  1  0
 22 23  2  0
 11 24  2  0
 24 25  1  0
 25 26  2  0
  8  6  1  0
 26  9  1  0
 23 15  1  0
 22 18  1  0
  1 27  1  0
  1 28  1  0
  1 29  1  0
  2 30  1  0
  2 31  1  0
  3 32  1  0
  3 33  1  0
  5 34  1  0
  5 35  1  0
  6 36  1  0
  7 37  1  0
  7 38  1  0
  8 39  1  0
  8 40  1  0
 10 41  1  0
 14 42  1  0
 16 43  1  0
 17 44  1  0
 21 45  1  0
 23 46  1  0
 25 47  1  0
M  CHG  1  19  -1
M  END
>  <meeko>  (4) 
{"is_sidechain": [false], "free_energy": -6.723, "intermolecular_energy": -9.698, "internal_energy": -0.641}

$$$$
LIB_HAKUBDUVAGUCGC__M_PUB_ALL__e8__s20260927
     RDKit          3D

 47 50  0  0  0  0  0  0  0  0999 V2000
   -4.5340  -10.3610   -0.7820 C   0  0  0  0  0  0  0  0  0  0  0  0
   -3.9930  -11.7780   -0.6640 C   0  0  0  0  0  0  0  0  0  0  0  0
   -4.1220  -12.3610    0.7480 C   0  0  0  0  0  0  0  0  0  0  0  0
   -2.8460  -12.8550    1.2640 N   0  0  0  0  0  0  0  0  0  0  0  0
   -1.6450  -12.0670    0.9860 C   0  0  0  0  0  0  0  0  0  0  0  0
   -1.3680  -11.1190    2.1180 C   0  0  0  0  0  0  0  0  0  0  0  0
   -2.2490   -9.9140    2.3380 C   0  0  0  0  0  0  0  0  0  0  0  0
   -0.8320   -9.7310    1.8690 C   0  0  0  0  0  0  0  0  0  0  0  0
   -2.7100  -14.0510    1.9520 C   0  0  0  0  0  0  0  0  0  0  0  0
   -3.6110  -14.4630    2.9110 C   0  0  0  0  0  0  0  0  0  0  0  0
   -3.3700  -15.6740    3.5310 C   0  0  0  0  0  0  0  0  0  0  0  0
   -4.3200  -16.1660    4.5840 C   0  0  0  0  0  0  0  0  0  0  0  0
   -4.0360  -17.1690    5.2280 O   0  0  0  0  0  0  0  0  0  0  0  0
   -5.4520  -15.3830    4.6930 N   0  0  0  0  0  0  0  0  0  0  0  0
   -6.5510  -15.5360    5.5610 C   0  0  0  0  0  0  0  0  0  0  0  0
   -6.5810  -15.0180    6.8700 C   0  0  0  0  0  0  0  0  0  0  0  0
   -7.6940  -15.1870    7.7110 C   0  0  0  0  0  0  0  0  0  0  0  0
   -8.7940  -15.8980    7.2080 C   0  0  0  0  0  0  0  0  0  0  0  0
   -9.9780  -16.2090    7.7820 N   0  0  0  0  0  0  0  0  0  0  0  0
  -10.7030  -16.9100    6.8790 N   0  0  0  0  0  0  0  0  0  0  0  0
   -9.9460  -17.0100    5.7760 C   0  0  0  0  0  0  0  0  0  0  0  0
   -8.7310  -16.3960    5.9100 C   0  0  0  0  0  0  0  0  0  0  0  0
   -7.6490  -16.2470    5.0530 C   0  0  0  0  0  0  0  0  0  0  0  0
   -2.3170  -16.4750    3.2560 N   0  0  0  0  0  0  0  0  0  0  0  0
   -1.5050  -15.9960    2.3160 C   0  0  0  0  0  0  0  0  0  0  0  0
   -1.6510  -14.8360    1.6590 N   0  0  0  0  0  0  0  0  0  0  0  0
   -4.6931   -9.9443    0.2235 H   0  0  0  0  0  0  0  0  0  0  0  0
   -3.8110   -9.7367   -1.3274 H   0  0  0  0  0  0  0  0  0  0  0  0
   -5.4891  -10.3774   -1.3274 H   0  0  0  0  0  0  0  0  0  0  0  0
   -4.5491  -12.4231   -1.3602 H   0  0  0  0  0  0  0  0  0  0  0  0
   -2.9200  -11.7379   -0.9030 H   0  0  0  0  0  0  0  0  0  0  0  0
   -4.4958  -11.5760    1.4219 H   0  0  0  0  0  0  0  0  0  0  0  0
   -4.8167  -13.2124    0.6980 H   0  0  0  0  0  0  0  0  0  0  0  0
   -0.7873  -12.7446    0.8624 H   0  0  0  0  0  0  0  0  0  0  0  0
   -1.8037  -11.4869    0.0650 H   0  0  0  0  0  0  0  0  0  0  0  0
   -1.0427  -11.9756    2.7266 H   0  0  0  0  0  0  0  0  0  0  0  0
   -3.0853   -9.7120    1.6526 H   0  0  0  0  0  0  0  0  0  0  0  0
   -2.8450   -9.5301    3.1791 H   0  0  0  0  0  0  0  0  0  0  0  0
   -0.6324   -9.3951    0.8407 H   0  0  0  0  0  0  0  0  0  0  0  0
    0.0366   -9.1579    2.2253 H   0  0  0  0  0  0  0  0  0  0  0  0
   -4.4873  -13.8515    3.1722 H   0  0  0  0  0  0  0  0  0  0  0  0
   -5.4790  -14.5940    4.0530 H   0  0  0  0  0  0  0  0  0  0  0  0
   -5.7075  -14.4648    7.2453 H   0  0  0  0  0  0  0  0  0  0  0  0
   -7.7026  -14.7751    8.7309 H   0  0  0  0  0  0  0  0  0  0  0  0
  -10.2679  -17.5301    4.8617 H   0  0  0  0  0  0  0  0  0  0  0  0
   -7.6522  -16.6624    4.0344 H   0  0  0  0  0  0  0  0  0  0  0  0
   -0.6311  -16.6102    2.0532 H   0  0  0  0  0  0  0  0  0  0  0  0
  1  2  1  0
  2  3  1  0
  3  4  1  0
  4  5  1  0
  5  6  1  0
  6  7  1  0
  7  8  1  0
  4  9  1  0
  9 10  2  0
 10 11  1  0
 11 12  1  0
 12 13  2  0
 12 14  1  0
 14 15  1  0
 15 16  2  0
 16 17  1  0
 17 18  2  0
 18 19  1  0
 19 20  1  0
 20 21  2  0
 21 22  1  0
 22 23  2  0
 11 24  2  0
 24 25  1  0
 25 26  2  0
  8  6  1  0
 26  9  1  0
 23 15  1  0
 22 18  1  0
  1 27  1  0
  1 28  1  0
  1 29  1  0
  2 30  1  0
  2 31  1  0
  3 32  1  0
  3 33  1  0
  5 34  1  0
  5 35  1  0
  6 36  1  0
  7 37  1  0
  7 38  1  0
  8 39  1  0
  8 40  1  0
 10 41  1  0
 14 42  1  0
 16 43  1  0
 17 44  1  0
 21 45  1  0
 23 46  1  0
 25 47  1  0
M  CHG  1  19  -1
M  END
>  <meeko>  (5) 
{"is_sidechain": [false], "free_energy": -6.636, "intermolecular_energy": -9.102, "internal_energy": -1.114}

$$$$
LIB_HAKUBDUVAGUCGC__M_PUB_ALL__e8__s20260927
     RDKit          3D

 47 50  0  0  0  0  0  0  0  0999 V2000
   13.4760  -10.9790   -9.8860 C   0  0  0  0  0  0  0  0  0  0  0  0
   14.3880  -11.9940  -10.5610 C   0  0  0  0  0  0  0  0  0  0  0  0
   13.6520  -12.9100  -11.5440 C   0  0  0  0  0  0  0  0  0  0  0  0
   12.9190  -13.9800  -10.8680 N   0  0  0  0  0  0  0  0  0  0  0  0
   11.5110  -14.1700  -11.2170 C   0  0  0  0  0  0  0  0  0  0  0  0
   10.6490  -13.2020  -10.4560 C   0  0  0  0  0  0  0  0  0  0  0  0
    9.1460  -13.2850  -10.5470 C   0  0  0  0  0  0  0  0  0  0  0  0
    9.8700  -12.1200  -11.1620 C   0  0  0  0  0  0  0  0  0  0  0  0
   13.4720  -14.7810   -9.8820 C   0  0  0  0  0  0  0  0  0  0  0  0
   13.3890  -14.4730   -8.5400 C   0  0  0  0  0  0  0  0  0  0  0  0
   13.9800  -15.3480   -7.6490 C   0  0  0  0  0  0  0  0  0  0  0  0
   13.9180  -15.0560   -6.1780 C   0  0  0  0  0  0  0  0  0  0  0  0
   14.2720  -15.9150   -5.3790 O   0  0  0  0  0  0  0  0  0  0  0  0
   13.4430  -13.7890   -5.9020 N   0  0  0  0  0  0  0  0  0  0  0  0
   13.2480  -13.1730   -4.6500 C   0  0  0  0  0  0  0  0  0  0  0  0
   14.1990  -12.3280   -4.0470 C   0  0  0  0  0  0  0  0  0  0  0  0
   13.9740  -11.7280   -2.7960 C   0  0  0  0  0  0  0  0  0  0  0  0
   12.7570  -11.9940   -2.1510 C   0  0  0  0  0  0  0  0  0  0  0  0
   12.2780  -11.5630   -0.9620 N   0  0  0  0  0  0  0  0  0  0  0  0
   11.0510  -12.1060   -0.7890 N   0  0  0  0  0  0  0  0  0  0  0  0
   10.8090  -12.8570   -1.8760 C   0  0  0  0  0  0  0  0  0  0  0  0
   11.8390  -12.8330   -2.7750 C   0  0  0  0  0  0  0  0  0  0  0  0
   12.0290  -13.4420   -4.0080 C   0  0  0  0  0  0  0  0  0  0  0  0
   14.6280  -16.4780   -8.0060 N   0  0  0  0  0  0  0  0  0  0  0  0
   14.6550  -16.6930   -9.3200 C   0  0  0  0  0  0  0  0  0  0  0  0
   14.1130  -15.9070  -10.2620 N   0  0  0  0  0  0  0  0  0  0  0  0
   13.5637  -11.0766   -8.7939 H   0  0  0  0  0  0  0  0  0  0  0  0
   13.7708   -9.9632  -10.1882 H   0  0  0  0  0  0  0  0  0  0  0  0
   12.4346  -11.1638  -10.1882 H   0  0  0  0  0  0  0  0  0  0  0  0
   15.1705  -11.4496  -11.1099 H   0  0  0  0  0  0  0  0  0  0  0  0
   14.8058  -12.6337   -9.7697 H   0  0  0  0  0  0  0  0  0  0  0  0
   12.9392  -12.3054  -12.1240 H   0  0  0  0  0  0  0  0  0  0  0  0
   14.4057  -13.3788  -12.1938 H   0  0  0  0  0  0  0  0  0  0  0  0
   11.3790  -14.0025  -12.2961 H   0  0  0  0  0  0  0  0  0  0  0  0
   11.2131  -15.1961  -10.9554 H   0  0  0  0  0  0  0  0  0  0  0  0
   11.3884  -13.2163   -9.6417 H   0  0  0  0  0  0  0  0  0  0  0  0
    8.6754  -14.0420  -11.1916 H   0  0  0  0  0  0  0  0  0  0  0  0
    8.3284  -13.3954   -9.8194 H   0  0  0  0  0  0  0  0  0  0  0  0
    9.9290  -12.0250  -12.2563 H   0  0  0  0  0  0  0  0  0  0  0  0
    9.8012  -11.0260  -11.0704 H   0  0  0  0  0  0  0  0  0  0  0  0
   12.8724  -13.5661   -8.1927 H   0  0  0  0  0  0  0  0  0  0  0  0
   13.2060  -13.2410   -6.7240 H   0  0  0  0  0  0  0  0  0  0  0  0
   15.1463  -12.1315   -4.5705 H   0  0  0  0  0  0  0  0  0  0  0  0
   14.7279  -11.0711   -2.3376 H   0  0  0  0  0  0  0  0  0  0  0  0
    9.8820  -13.4297   -2.0268 H   0  0  0  0  0  0  0  0  0  0  0  0
   11.2680  -14.0977   -4.4562 H   0  0  0  0  0  0  0  0  0  0  0  0
   15.1706  -17.6012   -9.6655 H   0  0  0  0  0  0  0  0  0  0  0  0
  1  2  1  0
  2  3  1  0
  3  4  1  0
  4  5  1  0
  5  6  1  0
  6  7  1  0
  7  8  1  0
  4  9  1  0
  9 10  2  0
 10 11  1  0
 11 12  1  0
 12 13  2  0
 12 14  1  0
 14 15  1  0
 15 16  2  0
 16 17  1  0
 17 18  2  0
 18 19  1  0
 19 20  1  0
 20 21  2  0
 21 22  1  0
 22 23  2  0
 11 24  2  0
 24 25  1  0
 25 26  2  0
  8  6  1  0
 26  9  1  0
 23 15  1  0
 22 18  1  0
  1 27  1  0
  1 28  1  0
  1 29  1  0
  2 30  1  0
  2 31  1  0
  3 32  1  0
  3 33  1  0
  5 34  1  0
  5 35  1  0
  6 36  1  0
  7 37  1  0
  7 38  1  0
  8 39  1  0
  8 40  1  0
 10 41  1  0
 14 42  1  0
 16 43  1  0
 17 44  1  0
 21 45  1  0
 23 46  1  0
 25 47  1  0
M  CHG  1  19  -1
M  END
>  <meeko>  (6) 
{"is_sidechain": [false], "free_energy": -6.614, "intermolecular_energy": -9.112, "internal_energy": -1.073}

$$$$
LIB_HAKUBDUVAGUCGC__M_PUB_ALL__e8__s20260927
     RDKit          3D

 47 50  0  0  0  0  0  0  0  0999 V2000
    0.3610   -9.7660   -0.7170 C   0  0  0  0  0  0  0  0  0  0  0  0
    0.1370   -9.6140    0.7800 C   0  0  0  0  0  0  0  0  0  0  0  0
   -1.3020   -9.9200    1.2110 C   0  0  0  0  0  0  0  0  0  0  0  0
   -1.4790  -11.3150    1.6130 N   0  0  0  0  0  0  0  0  0  0  0  0
   -0.2870  -12.0710    1.9960 C   0  0  0  0  0  0  0  0  0  0  0  0
   -0.1530  -13.3030    1.1460 C   0  0  0  0  0  0  0  0  0  0  0  0
    1.1380  -14.0820    1.1280 C   0  0  0  0  0  0  0  0  0  0  0  0
    0.7100  -13.3140   -0.0920 C   0  0  0  0  0  0  0  0  0  0  0  0
   -2.7010  -11.9670    1.5980 C   0  0  0  0  0  0  0  0  0  0  0  0
   -3.0950  -12.8330    2.5960 C   0  0  0  0  0  0  0  0  0  0  0  0
   -4.3370  -13.4250    2.4710 C   0  0  0  0  0  0  0  0  0  0  0  0
   -4.8100  -14.3770    3.5310 C   0  0  0  0  0  0  0  0  0  0  0  0
   -4.1360  -15.3650    3.7960 O   0  0  0  0  0  0  0  0  0  0  0  0
   -6.0100  -13.9940    4.0980 N   0  0  0  0  0  0  0  0  0  0  0  0
   -6.7510  -14.6350    5.1110 C   0  0  0  0  0  0  0  0  0  0  0  0
   -6.5790  -14.3670    6.4830 C   0  0  0  0  0  0  0  0  0  0  0  0
   -7.3360  -15.0220    7.4690 C   0  0  0  0  0  0  0  0  0  0  0  0
   -8.2830  -15.9670    7.0480 C   0  0  0  0  0  0  0  0  0  0  0  0
   -9.1360  -16.7370    7.7610 N   0  0  0  0  0  0  0  0  0  0  0  0
   -9.8470  -17.4870    6.8870 N   0  0  0  0  0  0  0  0  0  0  0  0
   -9.4110  -17.1580    5.6600 C   0  0  0  0  0  0  0  0  0  0  0  0
   -8.4280  -16.2080    5.6850 C   0  0  0  0  0  0  0  0  0  0  0  0
   -7.6980  -15.5780    4.6850 C   0  0  0  0  0  0  0  0  0  0  0  0
   -5.1850  -13.2090    1.4420 N   0  0  0  0  0  0  0  0  0  0  0  0
   -4.7200  -12.3580    0.5290 C   0  0  0  0  0  0  0  0  0  0  0  0
   -3.5330  -11.7330    0.5600 N   0  0  0  0  0  0  0  0  0  0  0  0
    1.2595  -10.3757   -0.8933 H   0  0  0  0  0  0  0  0  0  0  0  0
   -0.5116  -10.2593   -1.1701 H   0  0  0  0  0  0  0  0  0  0  0  0
    0.4971   -8.7729   -1.1701 H   0  0  0  0  0  0  0  0  0  0  0  0
    0.8134  -10.3036    1.3062 H   0  0  0  0  0  0  0  0  0  0  0  0
    0.3373   -8.5628    1.0347 H   0  0  0  0  0  0  0  0  0  0  0  0
   -1.5616   -9.2718    2.0610 H   0  0  0  0  0  0  0  0  0  0  0  0
   -1.9574   -9.7341    0.3474 H   0  0  0  0  0  0  0  0  0  0  0  0
    0.6026  -11.4384    1.8603 H   0  0  0  0  0  0  0  0  0  0  0  0
   -0.3789  -12.3726    3.0498 H   0  0  0  0  0  0  0  0  0  0  0  0
   -1.2073  -13.5361    1.3560 H   0  0  0  0  0  0  0  0  0  0  0  0
    1.9969  -13.7361    1.7218 H   0  0  0  0  0  0  0  0  0  0  0  0
    1.4182  -15.1264    1.3300 H   0  0  0  0  0  0  0  0  0  0  0  0
    1.2557  -12.4065   -0.3899 H   0  0  0  0  0  0  0  0  0  0  0  0
    0.5475  -13.5642   -1.1508 H   0  0  0  0  0  0  0  0  0  0  0  0
   -2.4456  -13.0443    3.4583 H   0  0  0  0  0  0  0  0  0  0  0  0
   -6.3960  -13.1330    3.7220 H   0  0  0  0  0  0  0  0  0  0  0  0
   -5.8299  -13.6230    6.7917 H   0  0  0  0  0  0  0  0  0  0  0  0
   -7.1906  -14.8008    8.5367 H   0  0  0  0  0  0  0  0  0  0  0  0
   -9.8027  -17.6049    4.7343 H   0  0  0  0  0  0  0  0  0  0  0  0
   -7.8537  -15.8056    3.6201 H   0  0  0  0  0  0  0  0  0  0  0  0
   -5.3709  -12.1475   -0.3324 H   0  0  0  0  0  0  0  0  0  0  0  0
  1  2  1  0
  2  3  1  0
  3  4  1  0
  4  5  1  0
  5  6  1  0
  6  7  1  0
  7  8  1  0
  4  9  1  0
  9 10  2  0
 10 11  1  0
 11 12  1  0
 12 13  2  0
 12 14  1  0
 14 15  1  0
 15 16  2  0
 16 17  1  0
 17 18  2  0
 18 19  1  0
 19 20  1  0
 20 21  2  0
 21 22  1  0
 22 23  2  0
 11 24  2  0
 24 25  1  0
 25 26  2  0
  8  6  1  0
 26  9  1  0
 23 15  1  0
 22 18  1  0
  1 27  1  0
  1 28  1  0
  1 29  1  0
  2 30  1  0
  2 31  1  0
  3 32  1  0
  3 33  1  0
  5 34  1  0
  5 35  1  0
  6 36  1  0
  7 37  1  0
  7 38  1  0
  8 39  1  0
  8 40  1  0
 10 41  1  0
 14 42  1  0
 16 43  1  0
 17 44  1  0
 21 45  1  0
 23 46  1  0
 25 47  1  0
M  CHG  1  19  -1
M  END
>  <meeko>  (7) 
{"is_sidechain": [false], "free_energy": -6.576, "intermolecular_energy": -9.318, "internal_energy": -0.813}

$$$$
LIB_HAKUBDUVAGUCGC__M_PUB_ALL__e8__s20260927
     RDKit          3D

 47 50  0  0  0  0  0  0  0  0999 V2000
   -9.5890  -16.5830    5.9250 C   0  0  0  0  0  0  0  0  0  0  0  0
   -8.3400  -16.1010    5.2010 C   0  0  0  0  0  0  0  0  0  0  0  0
   -7.2180  -17.1430    5.1690 C   0  0  0  0  0  0  0  0  0  0  0  0
   -6.0440  -16.7220    5.9340 N   0  0  0  0  0  0  0  0  0  0  0  0
   -6.2460  -16.3160    7.3250 C   0  0  0  0  0  0  0  0  0  0  0  0
   -5.6420  -14.9610    7.5670 C   0  0  0  0  0  0  0  0  0  0  0  0
   -5.3960  -14.4760    8.9740 C   0  0  0  0  0  0  0  0  0  0  0  0
   -6.4580  -13.8250    8.1320 C   0  0  0  0  0  0  0  0  0  0  0  0
   -4.7700  -16.6370    5.3970 C   0  0  0  0  0  0  0  0  0  0  0  0
   -4.4390  -15.7350    4.4080 C   0  0  0  0  0  0  0  0  0  0  0  0
   -3.1360  -15.7450    3.9490 C   0  0  0  0  0  0  0  0  0  0  0  0
   -2.7260  -14.7830    2.8710 C   0  0  0  0  0  0  0  0  0  0  0  0
   -3.3500  -14.7610    1.8170 O   0  0  0  0  0  0  0  0  0  0  0  0
   -1.6400  -14.0090    3.2280 N   0  0  0  0  0  0  0  0  0  0  0  0
   -0.9840  -13.0120    2.4800 C   0  0  0  0  0  0  0  0  0  0  0  0
    0.0890  -13.2780    1.6070 C   0  0  0  0  0  0  0  0  0  0  0  0
    0.7220  -12.2600    0.8740 C   0  0  0  0  0  0  0  0  0  0  0  0
    0.2540  -10.9480    1.0350 C   0  0  0  0  0  0  0  0  0  0  0  0
    0.6640   -9.7910    0.4690 N   0  0  0  0  0  0  0  0  0  0  0  0
   -0.1130   -8.7940    0.9540 N   0  0  0  0  0  0  0  0  0  0  0  0
   -0.9800   -9.3660    1.8050 C   0  0  0  0  0  0  0  0  0  0  0  0
   -0.8080  -10.7190    1.9060 C   0  0  0  0  0  0  0  0  0  0  0  0
   -1.4560  -11.7000    2.6440 C   0  0  0  0  0  0  0  0  0  0  0  0
   -2.1720  -16.5730    4.4070 N   0  0  0  0  0  0  0  0  0  0  0  0
   -2.5840  -17.4050    5.3610 C   0  0  0  0  0  0  0  0  0  0  0  0
   -3.8230  -17.4740    5.8720 N   0  0  0  0  0  0  0  0  0  0  0  0
   -9.4296  -16.5215    7.0117 H   0  0  0  0  0  0  0  0  0  0  0  0
  -10.4434  -15.9500    5.6433 H   0  0  0  0  0  0  0  0  0  0  0  0
   -9.7967  -17.6258    5.6433 H   0  0  0  0  0  0  0  0  0  0  0  0
   -8.6121  -15.8491    4.1654 H   0  0  0  0  0  0  0  0  0  0  0  0
   -7.9593  -15.2293    5.7534 H   0  0  0  0  0  0  0  0  0  0  0  0
   -7.5976  -18.0840    5.5937 H   0  0  0  0  0  0  0  0  0  0  0  0
   -6.9078  -17.2699    4.1213 H   0  0  0  0  0  0  0  0  0  0  0  0
   -7.3244  -16.2757    7.5381 H   0  0  0  0  0  0  0  0  0  0  0  0
   -5.7580  -17.0479    7.9854 H   0  0  0  0  0  0  0  0  0  0  0  0
   -5.0281  -15.0973    6.6645 H   0  0  0  0  0  0  0  0  0  0  0  0
   -5.6819  -15.1048    9.8301 H   0  0  0  0  0  0  0  0  0  0  0  0
   -4.5171  -14.1179    9.5301 H   0  0  0  0  0  0  0  0  0  0  0  0
   -7.5205  -13.9778    8.3724 H   0  0  0  0  0  0  0  0  0  0  0  0
   -6.6770  -12.7939    7.8176 H   0  0  0  0  0  0  0  0  0  0  0  0
   -5.1832  -15.0349    4.0005 H   0  0  0  0  0  0  0  0  0  0  0  0
   -1.2780  -14.1970    4.1580 H   0  0  0  0  0  0  0  0  0  0  0  0
    0.4420  -14.3139    1.4958 H   0  0  0  0  0  0  0  0  0  0  0  0
    1.5580  -12.4851    0.1955 H   0  0  0  0  0  0  0  0  0  0  0  0
   -1.7464   -8.8063    2.3613 H   0  0  0  0  0  0  0  0  0  0  0  0
   -2.2917  -11.4629    3.3188 H   0  0  0  0  0  0  0  0  0  0  0  0
   -1.8378  -18.1024    5.7694 H   0  0  0  0  0  0  0  0  0  0  0  0
  1  2  1  0
  2  3  1  0
  3  4  1  0
  4  5  1  0
  5  6  1  0
  6  7  1  0
  7  8  1  0
  4  9  1  0
  9 10  2  0
 10 11  1  0
 11 12  1  0
 12 13  2  0
 12 14  1  0
 14 15  1  0
 15 16  2  0
 16 17  1  0
 17 18  2  0
 18 19  1  0
 19 20  1  0
 20 21  2  0
 21 22  1  0
 22 23  2  0
 11 24  2  0
 24 25  1  0
 25 26  2  0
  8  6  1  0
 26  9  1  0
 23 15  1  0
 22 18  1  0
  1 27  1  0
  1 28  1  0
  1 29  1  0
  2 30  1  0
  2 31  1  0
  3 32  1  0
  3 33  1  0
  5 34  1  0
  5 35  1  0
  6 36  1  0
  7 37  1  0
  7 38  1  0
  8 39  1  0
  8 40  1  0
 10 41  1  0
 14 42  1  0
 16 43  1  0
 17 44  1  0
 21 45  1  0
 23 46  1  0
 25 47  1  0
M  CHG  1  19  -1
M  END
>  <meeko>  (8) 
{"is_sidechain": [false], "free_energy": -6.561, "intermolecular_energy": -9.179, "internal_energy": -0.931}

$$$$
LIB_HAKUBDUVAGUCGC__M_PUB_ALL__e8__s20260927
     RDKit          3D

 47 50  0  0  0  0  0  0  0  0999 V2000
   -4.1420  -10.6490   -0.6960 C   0  0  0  0  0  0  0  0  0  0  0  0
   -4.1790  -12.1320   -0.3560 C   0  0  0  0  0  0  0  0  0  0  0  0
   -4.0090  -12.4150    1.1400 C   0  0  0  0  0  0  0  0  0  0  0  0
   -2.6070  -12.5950    1.5180 N   0  0  0  0  0  0  0  0  0  0  0  0
   -2.0840  -11.7740    2.6090 C   0  0  0  0  0  0  0  0  0  0  0  0
   -2.2800  -10.3150    2.3070 C   0  0  0  0  0  0  0  0  0  0  0  0
   -1.1900   -9.5230    1.6270 C   0  0  0  0  0  0  0  0  0  0  0  0
   -1.5310   -9.2470    3.0650 C   0  0  0  0  0  0  0  0  0  0  0  0
   -1.7430  -13.4570    0.8630 C   0  0  0  0  0  0  0  0  0  0  0  0
   -0.5780  -13.0280    0.2630 C   0  0  0  0  0  0  0  0  0  0  0  0
    0.2040  -13.9810   -0.3620 C   0  0  0  0  0  0  0  0  0  0  0  0
    1.4810  -13.5640   -1.0310 C   0  0  0  0  0  0  0  0  0  0  0  0
    2.4960  -13.4290   -0.3590 O   0  0  0  0  0  0  0  0  0  0  0  0
    1.3360  -13.3750   -2.3920 N   0  0  0  0  0  0  0  0  0  0  0  0
    2.3060  -12.9850   -3.3370 C   0  0  0  0  0  0  0  0  0  0  0  0
    2.5200  -11.6460   -3.7190 C   0  0  0  0  0  0  0  0  0  0  0  0
    3.4970  -11.2900   -4.6640 C   0  0  0  0  0  0  0  0  0  0  0  0
    4.2670  -12.3170   -5.2300 C   0  0  0  0  0  0  0  0  0  0  0  0
    5.2590  -12.2700   -6.1480 N   0  0  0  0  0  0  0  0  0  0  0  0
    5.6830  -13.5370   -6.3630 N   0  0  0  0  0  0  0  0  0  0  0  0
    4.9410  -14.3280   -5.5720 C   0  0  0  0  0  0  0  0  0  0  0  0
    4.0290  -13.6290   -4.8300 C   0  0  0  0  0  0  0  0  0  0  0  0
    3.0740  -14.0150   -3.9000 C   0  0  0  0  0  0  0  0  0  0  0  0
   -0.0970  -15.2970   -0.4190 N   0  0  0  0  0  0  0  0  0  0  0  0
   -1.2370  -15.6160    0.1890 C   0  0  0  0  0  0  0  0  0  0  0  0
   -2.0630  -14.7680    0.8210 N   0  0  0  0  0  0  0  0  0  0  0  0
   -4.1273  -10.0601    0.2330 H   0  0  0  0  0  0  0  0  0  0  0  0
   -3.2381  -10.4299   -1.2834 H   0  0  0  0  0  0  0  0  0  0  0  0
   -5.0338  -10.3851   -1.2834 H   0  0  0  0  0  0  0  0  0  0  0  0
   -5.1472  -12.5406   -0.6808 H   0  0  0  0  0  0  0  0  0  0  0  0
   -3.3335  -12.6066   -0.8756 H   0  0  0  0  0  0  0  0  0  0  0  0
   -4.4224  -11.5690    1.7087 H   0  0  0  0  0  0  0  0  0  0  0  0
   -4.5402  -13.3512    1.3667 H   0  0  0  0  0  0  0  0  0  0  0  0
   -2.6147  -12.0261    3.5389 H   0  0  0  0  0  0  0  0  0  0  0  0
   -1.0082  -11.9737    2.7218 H   0  0  0  0  0  0  0  0  0  0  0  0
   -3.3420  -10.5211    2.1080 H   0  0  0  0  0  0  0  0  0  0  0  0
   -0.2361  -10.0076    1.3715 H   0  0  0  0  0  0  0  0  0  0  0  0
   -1.1263   -8.9146    0.7128 H   0  0  0  0  0  0  0  0  0  0  0  0
   -0.8264   -9.5297    3.8610 H   0  0  0  0  0  0  0  0  0  0  0  0
   -1.8197   -8.3531    3.6373 H   0  0  0  0  0  0  0  0  0  0  0  0
   -0.2825  -11.9686    0.2811 H   0  0  0  0  0  0  0  0  0  0  0  0
    0.3970  -13.5440   -2.7420 H   0  0  0  0  0  0  0  0  0  0  0  0
    1.9042  -10.8561   -3.2642 H   0  0  0  0  0  0  0  0  0  0  0  0
    3.6531  -10.2396   -4.9508 H   0  0  0  0  0  0  0  0  0  0  0  0
    5.0543  -15.4212   -5.5255 H   0  0  0  0  0  0  0  0  0  0  0  0
    2.9276  -15.0687   -3.6203 H   0  0  0  0  0  0  0  0  0  0  0  0
   -1.5302  -16.6761    0.1719 H   0  0  0  0  0  0  0  0  0  0  0  0
  1  2  1  0
  2  3  1  0
  3  4  1  0
  4  5  1  0
  5  6  1  0
  6  7  1  0
  7  8  1  0
  4  9  1  0
  9 10  2  0
 10 11  1  0
 11 12  1  0
 12 13  2  0
 12 14  1  0
 14 15  1  0
 15 16  2  0
 16 17  1  0
 17 18  2  0
 18 19  1  0
 19 20  1  0
 20 21  2  0
 21 22  1  0
 22 23  2  0
 11 24  2  0
 24 25  1  0
 25 26  2  0
  8  6  1  0
 26  9  1  0
 23 15  1  0
 22 18  1  0
  1 27  1  0
  1 28  1  0
  1 29  1  0
  2 30  1  0
  2 31  1  0
  3 32  1  0
  3 33  1  0
  5 34  1  0
  5 35  1  0
  6 36  1  0
  7 37  1  0
  7 38  1  0
  8 39  1  0
  8 40  1  0
 10 41  1  0
 14 42  1  0
 16 43  1  0
 17 44  1  0
 21 45  1  0
 23 46  1  0
 25 47  1  0
M  CHG  1  19  -1
M  END
>  <meeko>  (9) 
{"is_sidechain": [false], "free_energy": -6.541, "intermolecular_energy": -8.852, "internal_energy": -1.23}

$$$$
