LIB_CHFMAFLBJKNXLK__M_PUB_ALL__e8__s20260927
     RDKit          3D

 83 89  0  0  0  0  0  0  0  0999 V2000
   -2.4820   -9.2400    1.6250 C   0  0  0  0  0  0  0  0  0  0  0  0
   -1.5290  -10.3710    1.8880 C   0  0  0  0  0  0  0  0  0  0  0  0
   -1.6220  -11.1050    3.0080 C   0  0  0  0  0  0  0  0  0  0  0  0
   -0.7170  -12.2180    3.3190 C   0  0  0  0  0  0  0  0  0  0  0  0
   -0.8110  -12.8610    4.3560 O   0  0  0  0  0  0  0  0  0  0  0  0
    0.2560  -12.5000    2.3730 O   0  0  0  0  0  0  0  0  0  0  0  0
    0.3930  -11.7590    1.1840 C   0  0  0  0  0  0  0  0  0  0  0  0
    1.4190  -12.1130    0.2990 C   0  0  0  0  0  0  0  0  0  0  0  0
    1.6060  -11.3690   -0.8640 C   0  0  0  0  0  0  0  0  0  0  0  0
    0.7450  -10.3190   -1.1670 C   0  0  0  0  0  0  0  0  0  0  0  0
   -0.2850   -9.9810   -0.2790 C   0  0  0  0  0  0  0  0  0  0  0  0
   -0.4720  -10.6920    0.9160 C   0  0  0  0  0  0  0  0  0  0  0  0
    2.6000  -11.6450   -1.7660 O   0  0  0  0  0  0  0  0  0  0  0  0
    3.7540  -12.1810   -1.1180 C   0  0  0  0  0  0  0  0  0  0  0  0
    3.4400  -13.5340   -0.4690 C   0  0  0  0  0  0  0  0  0  0  0  0
    2.8810  -14.5750   -1.4750 C   0  0  0  0  0  0  0  0  0  0  0  0
    1.6410  -15.3110   -1.0340 N   0  0  0  0  0  0  0  0  0  0  0  0
    1.7790  -16.8600   -0.9680 C   0  0  0  0  0  0  0  0  0  0  0  0
    0.6300  -17.3970   -0.0770 C   0  0  0  0  0  0  0  0  0  0  0  0
   -0.4670  -16.4020   -0.0420 N   0  0  0  0  0  0  0  0  0  0  0  0
   -1.3970  -16.4070    0.9910 C   0  0  0  0  0  0  0  0  0  0  0  0
   -1.9360  -15.2090    1.4920 C   0  0  0  0  0  0  0  0  0  0  0  0
   -2.8560  -15.1940    2.5460 C   0  0  0  0  0  0  0  0  0  0  0  0
   -3.2590  -16.3860    3.1350 C   0  0  0  0  0  0  0  0  0  0  0  0
   -2.7410  -17.5870    2.6680 C   0  0  0  0  0  0  0  0  0  0  0  0
   -1.8210  -17.5930    1.6110 C   0  0  0  0  0  0  0  0  0  0  0  0
   -0.8230  -15.8200   -1.3530 C   0  0  0  0  0  0  0  0  0  0  0  0
    0.3820  -15.0020   -1.8860 C   0  0  0  0  0  0  0  0  0  0  0  0
    4.7060  -13.9980    0.3170 C   0  0  0  0  0  0  0  0  0  0  0  0
    5.9930  -13.2410    0.0330 N   0  0  0  0  0  0  0  0  0  0  0  0
    6.7670  -12.7610    1.2580 C   0  0  0  0  0  0  0  0  0  0  0  0
    7.9870  -11.9100    0.8510 C   0  0  0  0  0  0  0  0  0  0  0  0
    8.8340  -12.6550   -0.0810 N   0  0  0  0  0  0  0  0  0  0  0  0
   10.1800  -12.3080   -0.2070 C   0  0  0  0  0  0  0  0  0  0  0  0
   10.8610  -12.5350   -1.4150 C   0  0  0  0  0  0  0  0  0  0  0  0
   12.2110  -12.2040   -1.5700 C   0  0  0  0  0  0  0  0  0  0  0  0
   12.9140  -11.6350   -0.5150 C   0  0  0  0  0  0  0  0  0  0  0  0
   12.2670  -11.4030    0.6930 C   0  0  0  0  0  0  0  0  0  0  0  0
   10.9160  -11.7390    0.8440 C   0  0  0  0  0  0  0  0  0  0  0  0
    8.1810  -13.2000   -1.2810 C   0  0  0  0  0  0  0  0  0  0  0  0
    6.9500  -14.0430   -0.8880 C   0  0  0  0  0  0  0  0  0  0  0  0
    2.3010  -13.2890    0.5110 C   0  0  0  0  0  0  0  0  0  0  0  0
    2.1020  -14.1160    1.3980 O   0  0  0  0  0  0  0  0  0  0  0  0
   -2.8316   -8.8251    2.5819 H   0  0  0  0  0  0  0  0  0  0  0  0
   -1.9693   -8.4546    1.0503 H   0  0  0  0  0  0  0  0  0  0  0  0
   -3.3429   -9.6121    1.0503 H   0  0  0  0  0  0  0  0  0  0  0  0
   -2.4161  -10.8602    3.7288 H   0  0  0  0  0  0  0  0  0  0  0  0
    0.8726   -9.7548   -2.1026 H   0  0  0  0  0  0  0  0  0  0  0  0
   -0.9574   -9.1452   -0.5226 H   0  0  0  0  0  0  0  0  0  0  0  0
    4.5541  -12.3153   -1.8609 H   0  0  0  0  0  0  0  0  0  0  0  0
    4.0721  -11.4803   -0.3320 H   0  0  0  0  0  0  0  0  0  0  0  0
    2.6458  -14.0476   -2.4112 H   0  0  0  0  0  0  0  0  0  0  0  0
    3.6633  -15.3414   -1.5787 H   0  0  0  0  0  0  0  0  0  0  0  0
    1.3050  -15.0810   -0.0830 H   0  0  0  0  0  0  0  0  0  0  0  0
    1.7002  -17.2867   -1.9788 H   0  0  0  0  0  0  0  0  0  0  0  0
    2.7561  -17.1426   -0.5492 H   0  0  0  0  0  0  0  0  0  0  0  0
    0.2545  -18.3438   -0.4924 H   0  0  0  0  0  0  0  0  0  0  0  0
    1.0040  -17.5698    0.9429 H   0  0  0  0  0  0  0  0  0  0  0  0
   -1.6250  -14.2548    1.0418 H   0  0  0  0  0  0  0  0  0  0  0  0
   -3.2606  -14.2376    2.9086 H   0  0  0  0  0  0  0  0  0  0  0  0
   -3.9820  -16.3786    3.9640 H   0  0  0  0  0  0  0  0  0  0  0  0
   -3.0536  -18.5356    3.1289 H   0  0  0  0  0  0  0  0  0  0  0  0
   -1.4197  -18.5541    1.2571 H   0  0  0  0  0  0  0  0  0  0  0  0
   -1.0637  -16.6264   -2.0614 H   0  0  0  0  0  0  0  0  0  0  0  0
   -1.6985  -15.1632   -1.2428 H   0  0  0  0  0  0  0  0  0  0  0  0
    0.5739  -15.2744   -2.9343 H   0  0  0  0  0  0  0  0  0  0  0  0
    0.1516  -13.9284   -1.8198 H   0  0  0  0  0  0  0  0  0  0  0  0
    4.4887  -13.8977    1.3907 H   0  0  0  0  0  0  0  0  0  0  0  0
    4.8944  -15.0295   -0.0153 H   0  0  0  0  0  0  0  0  0  0  0  0
    5.7820  -12.3980   -0.5480 H   0  0  0  0  0  0  0  0  0  0  0  0
    6.1004  -12.1537    1.8879 H   0  0  0  0  0  0  0  0  0  0  0  0
    7.1265  -13.6424    1.8093 H   0  0  0  0  0  0  0  0  0  0  0  0
    7.6399  -10.9853    0.3669 H   0  0  0  0  0  0  0  0  0  0  0  0
    8.5710  -11.6662    1.7507 H   0  0  0  0  0  0  0  0  0  0  0  0
   10.3187  -12.9843   -2.2600 H   0  0  0  0  0  0  0  0  0  0  0  0
   12.7168  -12.3943   -2.5281 H   0  0  0  0  0  0  0  0  0  0  0  0
   13.9749  -11.3701   -0.6351 H   0  0  0  0  0  0  0  0  0  0  0  0
   12.8177  -10.9542    1.5328 H   0  0  0  0  0  0  0  0  0  0  0  0
   10.4203  -11.5528    1.8082 H   0  0  0  0  0  0  0  0  0  0  0  0
    7.8603  -12.3699   -1.9276 H   0  0  0  0  0  0  0  0  0  0  0  0
    8.8965  -13.8416   -1.8161 H   0  0  0  0  0  0  0  0  0  0  0  0
    6.4091  -14.3355   -1.8001 H   0  0  0  0  0  0  0  0  0  0  0  0
    7.2965  -14.9323   -0.3412 H   0  0  0  0  0  0  0  0  0  0  0  0
  1  2  1  0
  2  3  2  0
  3  4  1  0
  4  5  2  0
  4  6  1  0
  6  7  1  0
  7  8  2  0
  8  9  1  0
  9 10  2  0
 10 11  1  0
 11 12  2  0
  9 13  1  0
 13 14  1  0
 14 15  1  0
 15 16  1  0
 16 17  1  0
 17 18  1  0
 18 19  1  0
 19 20  1  0
 20 21  1  0
 21 22  2  0
 22 23  1  0
 23 24  2  0
 24 25  1  0
 25 26  2  0
 20 27  1  0
 27 28  1  0
 15 29  1  0
 29 30  1  0
 30 31  1  0
 31 32  1  0
 32 33  1  0
 33 34  1  0
 34 35  2  0
 35 36  1  0
 36 37  2  0
 37 38  1  0
 38 39  2  0
 33 40  1  0
 40 41  1  0
 15 42  1  0
 42 43  2  0
 12  2  1  0
 28 17  1  0
 41 30  1  0
 12  7  1  0
 26 21  1  0
 39 34  1  0
 42  8  1  0
  1 44  1  0
  1 45  1  0
  1 46  1  0
  3 47  1  0
 10 48  1  0
 11 49  1  0
 14 50  1  0
 14 51  1  0
 16 52  1  0
 16 53  1  0
 17 54  1  0
 18 55  1  0
 18 56  1  0
 19 57  1  0
 19 58  1  0
 22 59  1  0
 23 60  1  0
 24 61  1  0
 25 62  1  0
 26 63  1  0
 27 64  1  0
 27 65  1  0
 28 66  1  0
 28 67  1  0
 29 68  1  0
 29 69  1  0
 30 70  1  0
 31 71  1  0
 31 72  1  0
 32 73  1  0
 32 74  1  0
 35 75  1  0
 36 76  1  0
 37 77  1  0
 38 78  1  0
 39 79  1  0
 40 80  1  0
 40 81  1  0
 41 82  1  0
 41 83  1  0
M  CHG  2  17   1  30   1
M  END
>  <meeko>  (1) 
{"is_sidechain": [false], "free_energy": -9.755, "intermolecular_energy": -13.177, "internal_energy": -2.179}

$$$$
LIB_CHFMAFLBJKNXLK__M_PUB_ALL__e8__s20260927
     RDKit          3D

 83 89  0  0  0  0  0  0  0  0999 V2000
   12.2970  -15.2270   11.0220 C   0  0  0  0  0  0  0  0  0  0  0  0
   11.9780  -14.3870   12.2250 C   0  0  0  0  0  0  0  0  0  0  0  0
   11.1240  -14.8230   13.1640 C   0  0  0  0  0  0  0  0  0  0  0  0
   10.7730  -14.0440   14.3580 C   0  0  0  0  0  0  0  0  0  0  0  0
    9.9780  -14.4580   15.1920 O   0  0  0  0  0  0  0  0  0  0  0  0
   11.3890  -12.8100   14.4880 O   0  0  0  0  0  0  0  0  0  0  0  0
   12.2890  -12.3090   13.5290 C   0  0  0  0  0  0  0  0  0  0  0  0
   12.8470  -11.0420   13.7440 C   0  0  0  0  0  0  0  0  0  0  0  0
   13.7080  -10.5030   12.7900 C   0  0  0  0  0  0  0  0  0  0  0  0
   14.0500  -11.2420   11.6620 C   0  0  0  0  0  0  0  0  0  0  0  0
   13.4950  -12.5130   11.4640 C   0  0  0  0  0  0  0  0  0  0  0  0
   12.5980  -13.0630   12.3920 C   0  0  0  0  0  0  0  0  0  0  0  0
   14.2750   -9.2620   12.9240 O   0  0  0  0  0  0  0  0  0  0  0  0
   13.4120   -8.3720   13.6320 C   0  0  0  0  0  0  0  0  0  0  0  0
   13.1930   -8.8490   15.0720 C   0  0  0  0  0  0  0  0  0  0  0  0
   14.5180   -9.0250   15.8620 C   0  0  0  0  0  0  0  0  0  0  0  0
   15.7680   -8.5700   15.1520 N   0  0  0  0  0  0  0  0  0  0  0  0
   16.9950   -9.5160   15.3010 C   0  0  0  0  0  0  0  0  0  0  0  0
   17.9970   -9.1680   14.1700 C   0  0  0  0  0  0  0  0  0  0  0  0
   17.7410   -7.7870   13.6990 N   0  0  0  0  0  0  0  0  0  0  0  0
   18.1680   -7.3770   12.4420 C   0  0  0  0  0  0  0  0  0  0  0  0
   17.3270   -6.6360   11.5930 C   0  0  0  0  0  0  0  0  0  0  0  0
   17.7320   -6.2340   10.3150 C   0  0  0  0  0  0  0  0  0  0  0  0
   18.9960   -6.5700    9.8470 C   0  0  0  0  0  0  0  0  0  0  0  0
   19.8490   -7.3070   10.6580 C   0  0  0  0  0  0  0  0  0  0  0  0
   19.4360   -7.7050   11.9370 C   0  0  0  0  0  0  0  0  0  0  0  0
   17.5340   -6.7910   14.7700 C   0  0  0  0  0  0  0  0  0  0  0  0
   16.2410   -7.1470   15.5470 C   0  0  0  0  0  0  0  0  0  0  0  0
   12.1520   -7.8990   15.7430 C   0  0  0  0  0  0  0  0  0  0  0  0
   10.6910   -8.1540   15.4090 N   0  0  0  0  0  0  0  0  0  0  0  0
    9.6740   -7.5640   16.3810 C   0  0  0  0  0  0  0  0  0  0  0  0
    8.2370   -7.9810   16.0090 C   0  0  0  0  0  0  0  0  0  0  0  0
    7.9490   -7.6190   14.6200 N   0  0  0  0  0  0  0  0  0  0  0  0
    6.6230   -7.4560   14.2170 C   0  0  0  0  0  0  0  0  0  0  0  0
    5.7080   -8.5150   14.3430 C   0  0  0  0  0  0  0  0  0  0  0  0
    4.3750   -8.3840   13.9430 C   0  0  0  0  0  0  0  0  0  0  0  0
    3.9240   -7.1850   13.4050 C   0  0  0  0  0  0  0  0  0  0  0  0
    4.8070   -6.1210   13.2650 C   0  0  0  0  0  0  0  0  0  0  0  0
    6.1420   -6.2580   13.6640 C   0  0  0  0  0  0  0  0  0  0  0  0
    8.8920   -8.1010   13.5990 C   0  0  0  0  0  0  0  0  0  0  0  0
   10.3360   -7.7020   13.9680 C   0  0  0  0  0  0  0  0  0  0  0  0
   12.6080  -10.2510   14.9770 C   0  0  0  0  0  0  0  0  0  0  0  0
   12.0230  -10.7100   15.9560 O   0  0  0  0  0  0  0  0  0  0  0  0
   12.6699  -16.2089   11.3488 H   0  0  0  0  0  0  0  0  0  0  0  0
   11.3878  -15.3626   10.4179 H   0  0  0  0  0  0  0  0  0  0  0  0
   13.0670  -14.7249   10.4179 H   0  0  0  0  0  0  0  0  0  0  0  0
   10.6640  -15.8135   13.0325 H   0  0  0  0  0  0  0  0  0  0  0  0
   14.7556  -10.8287   10.9262 H   0  0  0  0  0  0  0  0  0  0  0  0
   13.7668  -13.0887   10.5669 H   0  0  0  0  0  0  0  0  0  0  0  0
   13.8652   -7.3698   13.6500 H   0  0  0  0  0  0  0  0  0  0  0  0
   12.4390   -8.3457   13.1197 H   0  0  0  0  0  0  0  0  0  0  0  0
   14.4327   -8.4518   16.7969 H   0  0  0  0  0  0  0  0  0  0  0  0
   14.6359  -10.1083   16.0121 H   0  0  0  0  0  0  0  0  0  0  0  0
   15.6860   -8.4810   14.1250 H   0  0  0  0  0  0  0  0  0  0  0  0
   17.4690   -9.3635   16.2818 H   0  0  0  0  0  0  0  0  0  0  0  0
   16.6820  -10.5681   15.2289 H   0  0  0  0  0  0  0  0  0  0  0  0
   19.0251   -9.2408   14.5543 H   0  0  0  0  0  0  0  0  0  0  0  0
   17.8701   -9.8724   13.3347 H   0  0  0  0  0  0  0  0  0  0  0  0
   16.3205   -6.3641   11.9438 H   0  0  0  0  0  0  0  0  0  0  0  0
   17.0484   -5.6511    9.6802 H   0  0  0  0  0  0  0  0  0  0  0  0
   19.3182   -6.2553    8.8435 H   0  0  0  0  0  0  0  0  0  0  0  0
   20.8514   -7.5792   10.2958 H   0  0  0  0  0  0  0  0  0  0  0  0
   20.1252   -8.2910   12.5628 H   0  0  0  0  0  0  0  0  0  0  0  0
   18.3928   -6.8045   15.4572 H   0  0  0  0  0  0  0  0  0  0  0  0
   17.4391   -5.7870   14.3306 H   0  0  0  0  0  0  0  0  0  0  0  0
   16.4438   -7.1161   16.6277 H   0  0  0  0  0  0  0  0  0  0  0  0
   15.4545   -6.4196   15.2974 H   0  0  0  0  0  0  0  0  0  0  0  0
   12.2674   -7.9924   16.8329 H   0  0  0  0  0  0  0  0  0  0  0  0
   12.3721   -6.8970   15.3460 H   0  0  0  0  0  0  0  0  0  0  0  0
   10.5170   -9.1830   15.3670 H   0  0  0  0  0  0  0  0  0  0  0  0
    9.8995   -7.9217   17.3965 H   0  0  0  0  0  0  0  0  0  0  0  0
    9.7414   -6.4672   16.3310 H   0  0  0  0  0  0  0  0  0  0  0  0
    8.1316   -9.0692   16.1302 H   0  0  0  0  0  0  0  0  0  0  0  0
    7.5294   -7.4592   16.6700 H   0  0  0  0  0  0  0  0  0  0  0  0
    6.0492   -9.4709   14.7670 H   0  0  0  0  0  0  0  0  0  0  0  0
    3.6823   -9.2312   14.0543 H   0  0  0  0  0  0  0  0  0  0  0  0
    2.8749   -7.0786   13.0919 H   0  0  0  0  0  0  0  0  0  0  0  0
    4.4563   -5.1691   12.8398 H   0  0  0  0  0  0  0  0  0  0  0  0
    6.8296   -5.4082   13.5416 H   0  0  0  0  0  0  0  0  0  0  0  0
    8.8248   -9.1969   13.5323 H   0  0  0  0  0  0  0  0  0  0  0  0
    8.6328   -7.6464   12.6315 H   0  0  0  0  0  0  0  0  0  0  0  0
   11.0317   -8.1776   13.2610 H   0  0  0  0  0  0  0  0  0  0  0  0
   10.4193   -6.6064   13.9157 H   0  0  0  0  0  0  0  0  0  0  0  0
  1  2  1  0
  2  3  2  0
  3  4  1  0
  4  5  2  0
  4  6  1  0
  6  7  1  0
  7  8  2  0
  8  9  1  0
  9 10  2  0
 10 11  1  0
 11 12  2  0
  9 13  1  0
 13 14  1  0
 14 15  1  0
 15 16  1  0
 16 17  1  0
 17 18  1  0
 18 19  1  0
 19 20  1  0
 20 21  1  0
 21 22  2  0
 22 23  1  0
 23 24  2  0
 24 25  1  0
 25 26  2  0
 20 27  1  0
 27 28  1  0
 15 29  1  0
 29 30  1  0
 30 31  1  0
 31 32  1  0
 32 33  1  0
 33 34  1  0
 34 35  2  0
 35 36  1  0
 36 37  2  0
 37 38  1  0
 38 39  2  0
 33 40  1  0
 40 41  1  0
 15 42  1  0
 42 43  2  0
 12  2  1  0
 28 17  1  0
 41 30  1  0
 12  7  1  0
 26 21  1  0
 39 34  1  0
 42  8  1  0
  1 44  1  0
  1 45  1  0
  1 46  1  0
  3 47  1  0
 10 48  1  0
 11 49  1  0
 14 50  1  0
 14 51  1  0
 16 52  1  0
 16 53  1  0
 17 54  1  0
 18 55  1  0
 18 56  1  0
 19 57  1  0
 19 58  1  0
 22 59  1  0
 23 60  1  0
 24 61  1  0
 25 62  1  0
 26 63  1  0
 27 64  1  0
 27 65  1  0
 28 66  1  0
 28 67  1  0
 29 68  1  0
 29 69  1  0
 30 70  1  0
 31 71  1  0
 31 72  1  0
 32 73  1  0
 32 74  1  0
 35 75  1  0
 36 76  1  0
 37 77  1  0
 38 78  1  0
 39 79  1  0
 40 80  1  0
 40 81  1  0
 41 82  1  0
 41 83  1  0
M  CHG  2  17   1  30   1
M  END
>  <meeko>  (2) 
{"is_sidechain": [false], "free_energy": -9.56, "intermolecular_energy": -13.477, "internal_energy": -1.617}

$$$$
LIB_CHFMAFLBJKNXLK__M_PUB_ALL__e8__s20260927
     RDKit          3D

 83 89  0  0  0  0  0  0  0  0999 V2000
   -4.6890  -13.2090    1.4770 C   0  0  0  0  0  0  0  0  0  0  0  0
   -3.2550  -12.7630    1.4950 C   0  0  0  0  0  0  0  0  0  0  0  0
   -2.8610  -11.7420    2.2720 C   0  0  0  0  0  0  0  0  0  0  0  0
   -1.4750  -11.2610    2.3280 C   0  0  0  0  0  0  0  0  0  0  0  0
   -1.1440  -10.3160    3.0320 O   0  0  0  0  0  0  0  0  0  0  0  0
   -0.5590  -11.9340    1.5350 O   0  0  0  0  0  0  0  0  0  0  0  0
   -0.9250  -13.0090    0.7040 C   0  0  0  0  0  0  0  0  0  0  0  0
    0.0730  -13.6140   -0.0720 C   0  0  0  0  0  0  0  0  0  0  0  0
   -0.2690  -14.6520   -0.9370 C   0  0  0  0  0  0  0  0  0  0  0  0
   -1.5800  -15.1170   -0.9860 C   0  0  0  0  0  0  0  0  0  0  0  0
   -2.5660  -14.5110   -0.1970 C   0  0  0  0  0  0  0  0  0  0  0  0
   -2.2550  -13.4410    0.6560 C   0  0  0  0  0  0  0  0  0  0  0  0
    0.6490  -15.2770   -1.7400 O   0  0  0  0  0  0  0  0  0  0  0  0
    1.6820  -14.3780   -2.1420 C   0  0  0  0  0  0  0  0  0  0  0  0
    2.4950  -13.8990   -0.9340 C   0  0  0  0  0  0  0  0  0  0  0  0
    3.1120  -15.0650   -0.1160 C   0  0  0  0  0  0  0  0  0  0  0  0
    2.1980  -15.7100    0.8950 N   0  0  0  0  0  0  0  0  0  0  0  0
    2.6380  -15.5540    2.3800 C   0  0  0  0  0  0  0  0  0  0  0  0
    1.4000  -15.8370    3.2690 C   0  0  0  0  0  0  0  0  0  0  0  0
    0.4260  -16.6500    2.5050 N   0  0  0  0  0  0  0  0  0  0  0  0
   -0.9150  -16.6780    2.8700 C   0  0  0  0  0  0  0  0  0  0  0  0
   -1.7360  -17.7730    2.5470 C   0  0  0  0  0  0  0  0  0  0  0  0
   -3.0930  -17.8070    2.8870 C   0  0  0  0  0  0  0  0  0  0  0  0
   -3.6700  -16.7370    3.5600 C   0  0  0  0  0  0  0  0  0  0  0  0
   -2.8880  -15.6380    3.8890 C   0  0  0  0  0  0  0  0  0  0  0  0
   -1.5300  -15.6110    3.5450 C   0  0  0  0  0  0  0  0  0  0  0  0
    1.0090  -17.7800    1.7530 C   0  0  0  0  0  0  0  0  0  0  0  0
    1.9470  -17.2220    0.6520 C   0  0  0  0  0  0  0  0  0  0  0  0
    3.5210  -12.8340   -1.4330 C   0  0  0  0  0  0  0  0  0  0  0  0
    4.9780  -13.0820   -1.0760 N   0  0  0  0  0  0  0  0  0  0  0  0
    5.9720  -12.9750   -2.2280 C   0  0  0  0  0  0  0  0  0  0  0  0
    7.3970  -13.3570   -1.7770 C   0  0  0  0  0  0  0  0  0  0  0  0
    7.7950  -12.5470   -0.6250 N   0  0  0  0  0  0  0  0  0  0  0  0
    9.1530  -12.3700   -0.3520 C   0  0  0  0  0  0  0  0  0  0  0  0
    9.5670  -11.9020    0.9060 C   0  0  0  0  0  0  0  0  0  0  0  0
   10.9190  -11.7100    1.2090 C   0  0  0  0  0  0  0  0  0  0  0  0
   11.8920  -11.9820    0.2540 C   0  0  0  0  0  0  0  0  0  0  0  0
   11.5100  -12.4420   -1.0010 C   0  0  0  0  0  0  0  0  0  0  0  0
   10.1550  -12.6300   -1.2990 C   0  0  0  0  0  0  0  0  0  0  0  0
    6.8860  -12.5440    0.5310 C   0  0  0  0  0  0  0  0  0  0  0  0
    5.4550  -12.1760    0.0900 C   0  0  0  0  0  0  0  0  0  0  0  0
    1.5060  -13.2380    0.0160 C   0  0  0  0  0  0  0  0  0  0  0  0
    1.9390  -12.4740    0.8750 O   0  0  0  0  0  0  0  0  0  0  0  0
   -5.0510  -13.3216    2.5096 H   0  0  0  0  0  0  0  0  0  0  0  0
   -5.2999  -12.4584    0.9541 H   0  0  0  0  0  0  0  0  0  0  0  0
   -4.7664  -14.1737    0.9541 H   0  0  0  0  0  0  0  0  0  0  0  0
   -3.6139  -11.2407    2.8979 H   0  0  0  0  0  0  0  0  0  0  0  0
   -1.8414  -15.9593   -1.6435 H   0  0  0  0  0  0  0  0  0  0  0  0
   -3.6011  -14.8799   -0.2468 H   0  0  0  0  0  0  0  0  0  0  0  0
    2.3528  -14.8926   -2.8457 H   0  0  0  0  0  0  0  0  0  0  0  0
    1.2181  -13.5032   -2.6210 H   0  0  0  0  0  0  0  0  0  0  0  0
    3.4336  -15.8421   -0.8250 H   0  0  0  0  0  0  0  0  0  0  0  0
    3.9351  -14.6218    0.4638 H   0  0  0  0  0  0  0  0  0  0  0  0
    1.2310  -15.3430    0.9150 H   0  0  0  0  0  0  0  0  0  0  0  0
    3.4379  -16.2727    2.6115 H   0  0  0  0  0  0  0  0  0  0  0  0
    3.0216  -14.5397    2.5643 H   0  0  0  0  0  0  0  0  0  0  0  0
    1.7118  -16.3868    4.1693 H   0  0  0  0  0  0  0  0  0  0  0  0
    0.9341  -14.8860    3.5664 H   0  0  0  0  0  0  0  0  0  0  0  0
   -1.2985  -18.6283    2.0111 H   0  0  0  0  0  0  0  0  0  0  0  0
   -3.7039  -18.6822    2.6211 H   0  0  0  0  0  0  0  0  0  0  0  0
   -4.7362  -16.7605    3.8295 H   0  0  0  0  0  0  0  0  0  0  0  0
   -3.3359  -14.7859    4.4213 H   0  0  0  0  0  0  0  0  0  0  0  0
   -0.9286  -14.7292    3.8111 H   0  0  0  0  0  0  0  0  0  0  0  0
    1.5839  -18.4212    2.4374 H   0  0  0  0  0  0  0  0  0  0  0  0
    0.2060  -18.3737    1.2918 H   0  0  0  0  0  0  0  0  0  0  0  0
    2.9055  -17.7609    0.6807 H   0  0  0  0  0  0  0  0  0  0  0  0
    1.4752  -17.3592   -0.3322 H   0  0  0  0  0  0  0  0  0  0  0  0
    3.4482  -12.7867   -2.5296 H   0  0  0  0  0  0  0  0  0  0  0  0
    3.2481  -11.9008   -0.9186 H   0  0  0  0  0  0  0  0  0  0  0  0
    5.0800  -14.0390   -0.6690 H   0  0  0  0  0  0  0  0  0  0  0  0
    5.6583  -13.6524   -3.0359 H   0  0  0  0  0  0  0  0  0  0  0  0
    5.9867  -11.9322   -2.5778 H   0  0  0  0  0  0  0  0  0  0  0  0
    7.4172  -14.4208   -1.4979 H   0  0  0  0  0  0  0  0  0  0  0  0
    8.0976  -13.1734   -2.6049 H   0  0  0  0  0  0  0  0  0  0  0  0
    8.8091  -11.6810    1.6720 H   0  0  0  0  0  0  0  0  0  0  0  0
   11.2126  -11.3435    2.2037 H   0  0  0  0  0  0  0  0  0  0  0  0
   12.9563  -11.8343    0.4897 H   0  0  0  0  0  0  0  0  0  0  0  0
   12.2743  -12.6588   -1.7618 H   0  0  0  0  0  0  0  0  0  0  0  0
    9.8695  -12.9898   -2.2985 H   0  0  0  0  0  0  0  0  0  0  0  0
    6.8782  -13.5444    0.9883 H   0  0  0  0  0  0  0  0  0  0  0  0
    7.2376  -11.7979    1.2588 H   0  0  0  0  0  0  0  0  0  0  0  0
    4.7729  -12.3009    0.9439 H   0  0  0  0  0  0  0  0  0  0  0  0
    5.4544  -11.1321   -0.2567 H   0  0  0  0  0  0  0  0  0  0  0  0
  1  2  1  0
  2  3  2  0
  3  4  1  0
  4  5  2  0
  4  6  1  0
  6  7  1  0
  7  8  2  0
  8  9  1  0
  9 10  2  0
 10 11  1  0
 11 12  2  0
  9 13  1  0
 13 14  1  0
 14 15  1  0
 15 16  1  0
 16 17  1  0
 17 18  1  0
 18 19  1  0
 19 20  1  0
 20 21  1  0
 21 22  2  0
 22 23  1  0
 23 24  2  0
 24 25  1  0
 25 26  2  0
 20 27  1  0
 27 28  1  0
 15 29  1  0
 29 30  1  0
 30 31  1  0
 31 32  1  0
 32 33  1  0
 33 34  1  0
 34 35  2  0
 35 36  1  0
 36 37  2  0
 37 38  1  0
 38 39  2  0
 33 40  1  0
 40 41  1  0
 15 42  1  0
 42 43  2  0
 12  2  1  0
 28 17  1  0
 41 30  1  0
 12  7  1  0
 26 21  1  0
 39 34  1  0
 42  8  1  0
  1 44  1  0
  1 45  1  0
  1 46  1  0
  3 47  1  0
 10 48  1  0
 11 49  1  0
 14 50  1  0
 14 51  1  0
 16 52  1  0
 16 53  1  0
 17 54  1  0
 18 55  1  0
 18 56  1  0
 19 57  1  0
 19 58  1  0
 22 59  1  0
 23 60  1  0
 24 61  1  0
 25 62  1  0
 26 63  1  0
 27 64  1  0
 27 65  1  0
 28 66  1  0
 28 67  1  0
 29 68  1  0
 29 69  1  0
 30 70  1  0
 31 71  1  0
 31 72  1  0
 32 73  1  0
 32 74  1  0
 35 75  1  0
 36 76  1  0
 37 77  1  0
 38 78  1  0
 39 79  1  0
 40 80  1  0
 40 81  1  0
 41 82  1  0
 41 83  1  0
M  CHG  2  17   1  30   1
M  END
>  <meeko>  (3) 
{"is_sidechain": [false], "free_energy": -9.325, "intermolecular_energy": -11.913, "internal_energy": -2.862}

$$$$
LIB_CHFMAFLBJKNXLK__M_PUB_ALL__e8__s20260927
     RDKit          3D

 83 89  0  0  0  0  0  0  0  0999 V2000
    3.1350  -10.7100   -4.0310 C   0  0  0  0  0  0  0  0  0  0  0  0
    2.5930  -12.0510   -3.6240 C   0  0  0  0  0  0  0  0  0  0  0  0
    1.8330  -12.7710   -4.4630 C   0  0  0  0  0  0  0  0  0  0  0  0
    1.2750  -14.0840   -4.1190 C   0  0  0  0  0  0  0  0  0  0  0  0
    0.5700  -14.7140   -4.8970 O   0  0  0  0  0  0  0  0  0  0  0  0
    1.5880  -14.5730   -2.8610 O   0  0  0  0  0  0  0  0  0  0  0  0
    2.3800  -13.8540   -1.9450 C   0  0  0  0  0  0  0  0  0  0  0  0
    2.6250  -14.4280   -0.6910 C   0  0  0  0  0  0  0  0  0  0  0  0
    3.3700  -13.7190    0.2500 C   0  0  0  0  0  0  0  0  0  0  0  0
    3.9080  -12.4790   -0.0750 C   0  0  0  0  0  0  0  0  0  0  0  0
    3.6650  -11.9210   -1.3370 C   0  0  0  0  0  0  0  0  0  0  0  0
    2.8890  -12.5970   -2.2900 C   0  0  0  0  0  0  0  0  0  0  0  0
    3.6330  -14.2090    1.5030 O   0  0  0  0  0  0  0  0  0  0  0  0
    2.5680  -15.0360    1.9710 C   0  0  0  0  0  0  0  0  0  0  0  0
    2.4180  -16.2850    1.0970 C   0  0  0  0  0  0  0  0  0  0  0  0
    3.7220  -17.1230    1.0050 C   0  0  0  0  0  0  0  0  0  0  0  0
    4.5890  -16.8530   -0.1980 N   0  0  0  0  0  0  0  0  0  0  0  0
    4.8260  -18.0760   -1.1310 C   0  0  0  0  0  0  0  0  0  0  0  0
    5.3080  -17.5360   -2.5020 C   0  0  0  0  0  0  0  0  0  0  0  0
    5.8810  -16.1830   -2.3190 N   0  0  0  0  0  0  0  0  0  0  0  0
    5.9790  -15.3040   -3.3910 C   0  0  0  0  0  0  0  0  0  0  0  0
    6.2290  -13.9350   -3.1900 C   0  0  0  0  0  0  0  0  0  0  0  0
    6.3090  -13.0320   -4.2570 C   0  0  0  0  0  0  0  0  0  0  0  0
    6.1340  -13.4780   -5.5610 C   0  0  0  0  0  0  0  0  0  0  0  0
    5.8800  -14.8230   -5.7930 C   0  0  0  0  0  0  0  0  0  0  0  0
    5.8020  -15.7200   -4.7200 C   0  0  0  0  0  0  0  0  0  0  0  0
    6.7900  -16.0410   -1.1620 C   0  0  0  0  0  0  0  0  0  0  0  0
    5.9840  -16.2650    0.1430 C   0  0  0  0  0  0  0  0  0  0  0  0
    1.1660  -17.0750    1.5930 C   0  0  0  0  0  0  0  0  0  0  0  0
   -0.0170  -16.2430    2.0600 N   0  0  0  0  0  0  0  0  0  0  0  0
   -1.2500  -16.2750    1.1620 C   0  0  0  0  0  0  0  0  0  0  0  0
   -2.3390  -15.3090    1.6700 C   0  0  0  0  0  0  0  0  0  0  0  0
   -2.6640  -15.6040    3.0660 N   0  0  0  0  0  0  0  0  0  0  0  0
   -3.9010  -15.2100    3.5780 C   0  0  0  0  0  0  0  0  0  0  0  0
   -4.5550  -15.9990    4.5390 C   0  0  0  0  0  0  0  0  0  0  0  0
   -5.7980  -15.6330    5.0660 C   0  0  0  0  0  0  0  0  0  0  0  0
   -6.4180  -14.4640    4.6410 C   0  0  0  0  0  0  0  0  0  0  0  0
   -5.7960  -13.6670    3.6880 C   0  0  0  0  0  0  0  0  0  0  0  0
   -4.5530  -14.0380    3.1610 C   0  0  0  0  0  0  0  0  0  0  0  0
   -1.5410  -15.6400    4.0160 C   0  0  0  0  0  0  0  0  0  0  0  0
   -0.4380  -16.5930    3.5120 C   0  0  0  0  0  0  0  0  0  0  0  0
    2.1720  -15.7920   -0.3220 C   0  0  0  0  0  0  0  0  0  0  0  0
    1.6770  -16.5690   -1.1360 O   0  0  0  0  0  0  0  0  0  0  0  0
    3.3725  -10.1223   -3.1320 H   0  0  0  0  0  0  0  0  0  0  0  0
    4.0473  -10.8495   -4.6295 H   0  0  0  0  0  0  0  0  0  0  0  0
    2.3819  -10.1764   -4.6295 H   0  0  0  0  0  0  0  0  0  0  0  0
    1.6173  -12.3563   -5.4588 H   0  0  0  0  0  0  0  0  0  0  0  0
    4.5237  -11.9367    0.6577 H   0  0  0  0  0  0  0  0  0  0  0  0
    4.0896  -10.9369   -1.5844 H   0  0  0  0  0  0  0  0  0  0  0  0
    2.7798  -15.3442    3.0055 H   0  0  0  0  0  0  0  0  0  0  0  0
    1.6314  -14.4611    1.9243 H   0  0  0  0  0  0  0  0  0  0  0  0
    4.3198  -16.9178    1.9053 H   0  0  0  0  0  0  0  0  0  0  0  0
    3.3993  -18.1706    0.9129 H   0  0  0  0  0  0  0  0  0  0  0  0
    4.2240  -16.1440   -0.8570 H   0  0  0  0  0  0  0  0  0  0  0  0
    5.5925  -18.7351   -0.6974 H   0  0  0  0  0  0  0  0  0  0  0  0
    3.8987  -18.6558   -1.2495 H   0  0  0  0  0  0  0  0  0  0  0  0
    6.0759  -18.2081   -2.9127 H   0  0  0  0  0  0  0  0  0  0  0  0
    4.4582  -17.4860   -3.1986 H   0  0  0  0  0  0  0  0  0  0  0  0
    6.3658  -13.5624   -2.1641 H   0  0  0  0  0  0  0  0  0  0  0  0
    6.5106  -11.9683   -4.0626 H   0  0  0  0  0  0  0  0  0  0  0  0
    6.1961  -12.7718   -6.4021 H   0  0  0  0  0  0  0  0  0  0  0  0
    5.7396  -15.1852   -6.8221 H   0  0  0  0  0  0  0  0  0  0  0  0
    5.5961  -16.7810   -4.9247 H   0  0  0  0  0  0  0  0  0  0  0  0
    7.5947  -16.7877   -1.2313 H   0  0  0  0  0  0  0  0  0  0  0  0
    7.2319  -15.0337   -1.1578 H   0  0  0  0  0  0  0  0  0  0  0  0
    6.5277  -16.9667    0.7926 H   0  0  0  0  0  0  0  0  0  0  0  0
    5.8570  -15.3036    0.6622 H   0  0  0  0  0  0  0  0  0  0  0  0
    0.8215  -17.7108    0.7641 H   0  0  0  0  0  0  0  0  0  0  0  0
    1.5031  -17.6283    2.4820 H   0  0  0  0  0  0  0  0  0  0  0  0
    0.2730  -15.2430    2.1500 H   0  0  0  0  0  0  0  0  0  0  0  0
   -0.9584  -15.9820    0.1426 H   0  0  0  0  0  0  0  0  0  0  0  0
   -1.6598  -17.2958    1.1716 H   0  0  0  0  0  0  0  0  0  0  0  0
   -1.9722  -14.2748    1.5929 H   0  0  0  0  0  0  0  0  0  0  0  0
   -3.2437  -15.4329    1.0566 H   0  0  0  0  0  0  0  0  0  0  0  0
   -4.0778  -16.9275    4.8856 H   0  0  0  0  0  0  0  0  0  0  0  0
   -6.2854  -16.2712    5.8178 H   0  0  0  0  0  0  0  0  0  0  0  0
   -7.3939  -14.1720    5.0561 H   0  0  0  0  0  0  0  0  0  0  0  0
   -6.2818  -12.7412    3.3463 H   0  0  0  0  0  0  0  0  0  0  0  0
   -4.0768  -13.3976    2.4039 H   0  0  0  0  0  0  0  0  0  0  0  0
   -1.1241  -14.6276    4.1223 H   0  0  0  0  0  0  0  0  0  0  0  0
   -1.9081  -16.0026    4.9875 H   0  0  0  0  0  0  0  0  0  0  0  0
    0.4389  -16.5077    4.1706 H   0  0  0  0  0  0  0  0  0  0  0  0
   -0.8320  -17.6200    3.5233 H   0  0  0  0  0  0  0  0  0  0  0  0
  1  2  1  0
  2  3  2  0
  3  4  1  0
  4  5  2  0
  4  6  1  0
  6  7  1  0
  7  8  2  0
  8  9  1  0
  9 10  2  0
 10 11  1  0
 11 12  2  0
  9 13  1  0
 13 14  1  0
 14 15  1  0
 15 16  1  0
 16 17  1  0
 17 18  1  0
 18 19  1  0
 19 20  1  0
 20 21  1  0
 21 22  2  0
 22 23  1  0
 23 24  2  0
 24 25  1  0
 25 26  2  0
 20 27  1  0
 27 28  1  0
 15 29  1  0
 29 30  1  0
 30 31  1  0
 31 32  1  0
 32 33  1  0
 33 34  1  0
 34 35  2  0
 35 36  1  0
 36 37  2  0
 37 38  1  0
 38 39  2  0
 33 40  1  0
 40 41  1  0
 15 42  1  0
 42 43  2  0
 12  2  1  0
 28 17  1  0
 41 30  1  0
 12  7  1  0
 26 21  1  0
 39 34  1  0
 42  8  1  0
  1 44  1  0
  1 45  1  0
  1 46  1  0
  3 47  1  0
 10 48  1  0
 11 49  1  0
 14 50  1  0
 14 51  1  0
 16 52  1  0
 16 53  1  0
 17 54  1  0
 18 55  1  0
 18 56  1  0
 19 57  1  0
 19 58  1  0
 22 59  1  0
 23 60  1  0
 24 61  1  0
 25 62  1  0
 26 63  1  0
 27 64  1  0
 27 65  1  0
 28 66  1  0
 28 67  1  0
 29 68  1  0
 29 69  1  0
 30 70  1  0
 31 71  1  0
 31 72  1  0
 32 73  1  0
 32 74  1  0
 35 75  1  0
 36 76  1  0
 37 77  1  0
 38 78  1  0
 39 79  1  0
 40 80  1  0
 40 81  1  0
 41 82  1  0
 41 83  1  0
M  CHG  2  17   1  30   1
M  END
>  <meeko>  (4) 
{"is_sidechain": [false], "free_energy": -9.285, "intermolecular_energy": -11.861, "internal_energy": -2.86}

$$$$
LIB_CHFMAFLBJKNXLK__M_PUB_ALL__e8__s20260927
     RDKit          3D

 83 89  0  0  0  0  0  0  0  0999 V2000
   10.8010  -11.6290    0.9370 C   0  0  0  0  0  0  0  0  0  0  0  0
   10.0450  -12.5880    0.0620 C   0  0  0  0  0  0  0  0  0  0  0  0
   10.6850  -13.5490   -0.6210 C   0  0  0  0  0  0  0  0  0  0  0  0
    9.9990  -14.5110   -1.4930 C   0  0  0  0  0  0  0  0  0  0  0  0
   10.6070  -15.3680   -2.1190 O   0  0  0  0  0  0  0  0  0  0  0  0
    8.6200  -14.3930   -1.5710 O   0  0  0  0  0  0  0  0  0  0  0  0
    7.9050  -13.4000   -0.8750 C   0  0  0  0  0  0  0  0  0  0  0  0
    6.5140  -13.3540   -1.0330 C   0  0  0  0  0  0  0  0  0  0  0  0
    5.7860  -12.3550   -0.3900 C   0  0  0  0  0  0  0  0  0  0  0  0
    6.4310  -11.4480    0.4440 C   0  0  0  0  0  0  0  0  0  0  0  0
    7.8220  -11.5120    0.6040 C   0  0  0  0  0  0  0  0  0  0  0  0
    8.5820  -12.4860   -0.0610 C   0  0  0  0  0  0  0  0  0  0  0  0
    4.4260  -12.2360   -0.5140 O   0  0  0  0  0  0  0  0  0  0  0  0
    3.9830  -12.6700   -1.8000 C   0  0  0  0  0  0  0  0  0  0  0  0
    4.2560  -14.1650   -1.9990 C   0  0  0  0  0  0  0  0  0  0  0  0
    3.6080  -15.0520   -0.9010 C   0  0  0  0  0  0  0  0  0  0  0  0
    2.4360  -14.4420   -0.1740 N   0  0  0  0  0  0  0  0  0  0  0  0
    2.2230  -14.9510    1.2810 C   0  0  0  0  0  0  0  0  0  0  0  0
    1.3230  -13.9220    2.0120 C   0  0  0  0  0  0  0  0  0  0  0  0
    0.5580  -13.1440    1.0100 N   0  0  0  0  0  0  0  0  0  0  0  0
    0.0290  -11.9000    1.3310 C   0  0  0  0  0  0  0  0  0  0  0  0
    0.5090  -10.7250    0.7250 C   0  0  0  0  0  0  0  0  0  0  0  0
    0.0030   -9.4620    1.0530 C   0  0  0  0  0  0  0  0  0  0  0  0
   -0.9990   -9.3400    2.0070 C   0  0  0  0  0  0  0  0  0  0  0  0
   -1.4910  -10.4800    2.6290 C   0  0  0  0  0  0  0  0  0  0  0  0
   -0.9800  -11.7410    2.2950 C   0  0  0  0  0  0  0  0  0  0  0  0
   -0.0490  -13.9470   -0.0730 C   0  0  0  0  0  0  0  0  0  0  0  0
    1.0810  -14.5950   -0.9130 C   0  0  0  0  0  0  0  0  0  0  0  0
    3.8580  -14.5390   -3.4610 C   0  0  0  0  0  0  0  0  0  0  0  0
    4.7860  -14.0480   -4.5610 N   0  0  0  0  0  0  0  0  0  0  0  0
    5.4080  -15.1290   -5.4390 C   0  0  0  0  0  0  0  0  0  0  0  0
    6.4160  -14.5280   -6.4390 C   0  0  0  0  0  0  0  0  0  0  0  0
    5.7770  -13.4740   -7.2280 N   0  0  0  0  0  0  0  0  0  0  0  0
    6.3120  -13.1310   -8.4710 C   0  0  0  0  0  0  0  0  0  0  0  0
    6.5150  -11.7830   -8.8080 C   0  0  0  0  0  0  0  0  0  0  0  0
    7.0450  -11.4080  -10.0470 C   0  0  0  0  0  0  0  0  0  0  0  0
    7.3840  -12.3780  -10.9810 C   0  0  0  0  0  0  0  0  0  0  0  0
    7.1900  -13.7200  -10.6760 C   0  0  0  0  0  0  0  0  0  0  0  0
    6.6570  -14.0910   -9.4360 C   0  0  0  0  0  0  0  0  0  0  0  0
    5.1080  -12.3980   -6.4810 C   0  0  0  0  0  0  0  0  0  0  0  0
    4.1070  -12.9870   -5.4670 C   0  0  0  0  0  0  0  0  0  0  0  0
    5.7550  -14.3580   -1.8200 C   0  0  0  0  0  0  0  0  0  0  0  0
    6.2730  -15.3790   -2.2670 O   0  0  0  0  0  0  0  0  0  0  0  0
   10.6116  -11.8693    1.9936 H   0  0  0  0  0  0  0  0  0  0  0  0
   11.8778  -11.7138    0.7291 H   0  0  0  0  0  0  0  0  0  0  0  0
   10.4672  -10.6017    0.7291 H   0  0  0  0  0  0  0  0  0  0  0  0
   11.7783  -13.6199   -0.5230 H   0  0  0  0  0  0  0  0  0  0  0  0
    5.8501  -10.6812    0.9775 H   0  0  0  0  0  0  0  0  0  0  0  0
    8.3255  -10.7875    1.2610 H   0  0  0  0  0  0  0  0  0  0  0  0
    2.9020  -12.4867   -1.8889 H   0  0  0  0  0  0  0  0  0  0  0  0
    4.5336  -12.1077   -2.5686 H   0  0  0  0  0  0  0  0  0  0  0  0
    3.2633  -15.9816   -1.3775 H   0  0  0  0  0  0  0  0  0  0  0  0
    4.3872  -15.2030   -0.1394 H   0  0  0  0  0  0  0  0  0  0  0  0
    2.4830  -13.4170   -0.0420 H   0  0  0  0  0  0  0  0  0  0  0  0
    1.7313  -15.9349    1.2657 H   0  0  0  0  0  0  0  0  0  0  0  0
    3.1881  -15.0555    1.7983 H   0  0  0  0  0  0  0  0  0  0  0  0
    0.6252  -14.4512    2.6776 H   0  0  0  0  0  0  0  0  0  0  0  0
    1.9491  -13.2417    2.6080 H   0  0  0  0  0  0  0  0  0  0  0  0
    1.3060  -10.8010   -0.0293 H   0  0  0  0  0  0  0  0  0  0  0  0
    0.3993   -8.5650    0.5547 H   0  0  0  0  0  0  0  0  0  0  0  0
   -1.3993   -8.3491    2.2676 H   0  0  0  0  0  0  0  0  0  0  0  0
   -2.2842  -10.3927    3.3861 H   0  0  0  0  0  0  0  0  0  0  0  0
   -1.3802  -12.6314    2.8019 H   0  0  0  0  0  0  0  0  0  0  0  0
   -0.6831  -14.7337    0.3619 H   0  0  0  0  0  0  0  0  0  0  0  0
   -0.6658  -13.3006   -0.7147 H   0  0  0  0  0  0  0  0  0  0  0  0
    0.8622  -15.6633   -1.0578 H   0  0  0  0  0  0  0  0  0  0  0  0
    1.1409  -14.0941   -1.8905 H   0  0  0  0  0  0  0  0  0  0  0  0
    3.8137  -15.6362   -3.5255 H   0  0  0  0  0  0  0  0  0  0  0  0
    2.8981  -14.0329   -3.6410 H   0  0  0  0  0  0  0  0  0  0  0  0
    5.5730  -13.5050   -4.1370 H   0  0  0  0  0  0  0  0  0  0  0  0
    5.9291  -15.8553   -4.7979 H   0  0  0  0  0  0  0  0  0  0  0  0
    4.6042  -15.6185   -6.0085 H   0  0  0  0  0  0  0  0  0  0  0  0
    7.2669  -14.1031   -5.8863 H   0  0  0  0  0  0  0  0  0  0  0  0
    6.7666  -15.3210   -7.1160 H   0  0  0  0  0  0  0  0  0  0  0  0
    6.2506  -11.0024   -8.0794 H   0  0  0  0  0  0  0  0  0  0  0  0
    7.1934  -10.3436  -10.2817 H   0  0  0  0  0  0  0  0  0  0  0  0
    7.8031  -12.0863  -11.9553 H   0  0  0  0  0  0  0  0  0  0  0  0
    7.4562  -14.4933  -11.4116 H   0  0  0  0  0  0  0  0  0  0  0  0
    6.5052  -15.1573   -9.2127 H   0  0  0  0  0  0  0  0  0  0  0  0
    5.8636  -11.8071   -5.9425 H   0  0  0  0  0  0  0  0  0  0  0  0
    4.5618  -11.7587   -7.1901 H   0  0  0  0  0  0  0  0  0  0  0  0
    3.7147  -12.1751   -4.8370 H   0  0  0  0  0  0  0  0  0  0  0  0
    3.2925  -13.4737   -6.0236 H   0  0  0  0  0  0  0  0  0  0  0  0
  1  2  1  0
  2  3  2  0
  3  4  1  0
  4  5  2  0
  4  6  1  0
  6  7  1  0
  7  8  2  0
  8  9  1  0
  9 10  2  0
 10 11  1  0
 11 12  2  0
  9 13  1  0
 13 14  1  0
 14 15  1  0
 15 16  1  0
 16 17  1  0
 17 18  1  0
 18 19  1  0
 19 20  1  0
 20 21  1  0
 21 22  2  0
 22 23  1  0
 23 24  2  0
 24 25  1  0
 25 26  2  0
 20 27  1  0
 27 28  1  0
 15 29  1  0
 29 30  1  0
 30 31  1  0
 31 32  1  0
 32 33  1  0
 33 34  1  0
 34 35  2  0
 35 36  1  0
 36 37  2  0
 37 38  1  0
 38 39  2  0
 33 40  1  0
 40 41  1  0
 15 42  1  0
 42 43  2  0
 12  2  1  0
 28 17  1  0
 41 30  1  0
 12  7  1  0
 26 21  1  0
 39 34  1  0
 42  8  1  0
  1 44  1  0
  1 45  1  0
  1 46  1  0
  3 47  1  0
 10 48  1  0
 11 49  1  0
 14 50  1  0
 14 51  1  0
 16 52  1  0
 16 53  1  0
 17 54  1  0
 18 55  1  0
 18 56  1  0
 19 57  1  0
 19 58  1  0
 22 59  1  0
 23 60  1  0
 24 61  1  0
 25 62  1  0
 26 63  1  0
 27 64  1  0
 27 65  1  0
 28 66  1  0
 28 67  1  0
 29 68  1  0
 29 69  1  0
 30 70  1  0
 31 71  1  0
 31 72  1  0
 32 73  1  0
 32 74  1  0
 35 75  1  0
 36 76  1  0
 37 77  1  0
 38 78  1  0
 39 79  1  0
 40 80  1  0
 40 81  1  0
 41 82  1  0
 41 83  1  0
M  CHG  2  17   1  30   1
M  END
>  <meeko>  (5) 
{"is_sidechain": [false], "free_energy": -9.18, "intermolecular_energy": -12.772, "internal_energy": -1.808}

$$$$
LIB_CHFMAFLBJKNXLK__M_PUB_ALL__e8__s20260927
     RDKit          3D

 83 89  0  0  0  0  0  0  0  0999 V2000
   -4.5600  -12.9550    2.5260 C   0  0  0  0  0  0  0  0  0  0  0  0
   -3.4590  -13.5050    1.6650 C   0  0  0  0  0  0  0  0  0  0  0  0
   -3.5760  -14.7080    1.0830 C   0  0  0  0  0  0  0  0  0  0  0  0
   -2.5320  -15.2970    0.2340 C   0  0  0  0  0  0  0  0  0  0  0  0
   -2.6560  -16.4040   -0.2720 O   0  0  0  0  0  0  0  0  0  0  0  0
   -1.3940  -14.5310    0.0410 O   0  0  0  0  0  0  0  0  0  0  0  0
   -1.2260  -13.2640    0.6330 C   0  0  0  0  0  0  0  0  0  0  0  0
   -0.0310  -12.5750    0.3880 C   0  0  0  0  0  0  0  0  0  0  0  0
    0.1820  -11.3390    0.9960 C   0  0  0  0  0  0  0  0  0  0  0  0
   -0.8090  -10.7740    1.7920 C   0  0  0  0  0  0  0  0  0  0  0  0
   -2.0050  -11.4680    2.0200 C   0  0  0  0  0  0  0  0  0  0  0  0
   -2.2280  -12.7300    1.4490 C   0  0  0  0  0  0  0  0  0  0  0  0
    1.3330  -10.6170    0.8190 O   0  0  0  0  0  0  0  0  0  0  0  0
    2.4580  -11.4750    0.6270 C   0  0  0  0  0  0  0  0  0  0  0  0
    2.3150  -12.2880   -0.6640 C   0  0  0  0  0  0  0  0  0  0  0  0
    2.1190  -11.4000   -1.9230 C   0  0  0  0  0  0  0  0  0  0  0  0
    2.7360  -11.9230   -3.1950 N   0  0  0  0  0  0  0  0  0  0  0  0
    3.1590  -10.8330   -4.2230 C   0  0  0  0  0  0  0  0  0  0  0  0
    4.1660  -11.4810   -5.2070 C   0  0  0  0  0  0  0  0  0  0  0  0
    3.9820  -12.9510   -5.1970 N   0  0  0  0  0  0  0  0  0  0  0  0
    5.0000  -13.7960   -5.6230 C   0  0  0  0  0  0  0  0  0  0  0  0
    5.8050  -13.4670   -6.7280 C   0  0  0  0  0  0  0  0  0  0  0  0
    6.8200  -14.3170   -7.1840 C   0  0  0  0  0  0  0  0  0  0  0  0
    7.0530  -15.5290   -6.5450 C   0  0  0  0  0  0  0  0  0  0  0  0
    6.2710  -15.8860   -5.4550 C   0  0  0  0  0  0  0  0  0  0  0  0
    5.2580  -15.0300   -5.0040 C   0  0  0  0  0  0  0  0  0  0  0  0
    2.5770  -13.4040   -5.2470 C   0  0  0  0  0  0  0  0  0  0  0  0
    1.8520  -12.9460   -3.9560 C   0  0  0  0  0  0  0  0  0  0  0  0
    3.5140  -13.2830   -0.7450 C   0  0  0  0  0  0  0  0  0  0  0  0
    4.8970  -12.6950   -0.5110 N   0  0  0  0  0  0  0  0  0  0  0  0
    5.6380  -13.2090    0.7190 C   0  0  0  0  0  0  0  0  0  0  0  0
    6.9730  -12.4630    0.9220 C   0  0  0  0  0  0  0  0  0  0  0  0
    7.7870  -12.5480   -0.2910 N   0  0  0  0  0  0  0  0  0  0  0  0
    9.1700  -12.3810   -0.1980 C   0  0  0  0  0  0  0  0  0  0  0  0
    9.9980  -12.6990   -1.2880 C   0  0  0  0  0  0  0  0  0  0  0  0
   11.3860  -12.5460   -1.2240 C   0  0  0  0  0  0  0  0  0  0  0  0
   11.9820  -12.0720   -0.0610 C   0  0  0  0  0  0  0  0  0  0  0  0
   11.1880  -11.7540    1.0340 C   0  0  0  0  0  0  0  0  0  0  0  0
    9.7980  -11.9100    0.9660 C   0  0  0  0  0  0  0  0  0  0  0  0
    7.1560  -12.1160   -1.5470 C   0  0  0  0  0  0  0  0  0  0  0  0
    5.8130  -12.8450   -1.7540 C   0  0  0  0  0  0  0  0  0  0  0  0
    1.0170  -13.0740   -0.5380 C   0  0  0  0  0  0  0  0  0  0  0  0
    0.8490  -14.0510   -1.2640 O   0  0  0  0  0  0  0  0  0  0  0  0
   -4.2969  -13.0864    3.5860 H   0  0  0  0  0  0  0  0  0  0  0  0
   -4.6933  -11.8844    2.3113 H   0  0  0  0  0  0  0  0  0  0  0  0
   -5.4961  -13.4914    2.3113 H   0  0  0  0  0  0  0  0  0  0  0  0
   -4.4995  -15.2818    1.2498 H   0  0  0  0  0  0  0  0  0  0  0  0
   -0.6539   -9.7825    2.2425 H   0  0  0  0  0  0  0  0  0  0  0  0
   -2.7805  -11.0165    2.6562 H   0  0  0  0  0  0  0  0  0  0  0  0
    3.3706  -10.8637    0.5678 H   0  0  0  0  0  0  0  0  0  0  0  0
    2.5155  -12.1725    1.4757 H   0  0  0  0  0  0  0  0  0  0  0  0
    1.0379  -11.2886   -2.0929 H   0  0  0  0  0  0  0  0  0  0  0  0
    2.6366  -10.4540   -1.7059 H   0  0  0  0  0  0  0  0  0  0  0  0
    3.6120  -12.4600   -3.0740 H   0  0  0  0  0  0  0  0  0  0  0  0
    2.2766  -10.4733   -4.7724 H   0  0  0  0  0  0  0  0  0  0  0  0
    3.6186   -9.9757   -3.7093 H   0  0  0  0  0  0  0  0  0  0  0  0
    3.9885  -11.0952   -6.2217 H   0  0  0  0  0  0  0  0  0  0  0  0
    5.1930  -11.2357   -4.8986 H   0  0  0  0  0  0  0  0  0  0  0  0
    5.6323  -12.5140   -7.2495 H   0  0  0  0  0  0  0  0  0  0  0  0
    7.4337  -14.0251   -8.0490 H   0  0  0  0  0  0  0  0  0  0  0  0
    7.8498  -16.1993   -6.8997 H   0  0  0  0  0  0  0  0  0  0  0  0
    6.4473  -16.8440   -4.9439 H   0  0  0  0  0  0  0  0  0  0  0  0
    4.6474  -15.3329   -4.1406 H   0  0  0  0  0  0  0  0  0  0  0  0
    2.0793  -12.9656   -6.1246 H   0  0  0  0  0  0  0  0  0  0  0  0
    2.5430  -14.5009   -5.3227 H   0  0  0  0  0  0  0  0  0  0  0  0
    0.8942  -12.4751   -4.2220 H   0  0  0  0  0  0  0  0  0  0  0  0
    1.6682  -13.8187   -3.3122 H   0  0  0  0  0  0  0  0  0  0  0  0
    3.3509  -14.0659    0.0103 H   0  0  0  0  0  0  0  0  0  0  0  0
    3.5226  -13.6467   -1.7831 H   0  0  0  0  0  0  0  0  0  0  0  0
    4.8230  -11.6570   -0.4150 H   0  0  0  0  0  0  0  0  0  0  0  0
    5.0056  -13.0597    1.6066 H   0  0  0  0  0  0  0  0  0  0  0  0
    5.8562  -14.2770    0.5716 H   0  0  0  0  0  0  0  0  0  0  0  0
    6.7683  -11.4064    1.1493 H   0  0  0  0  0  0  0  0  0  0  0  0
    7.5207  -12.9263    1.7559 H   0  0  0  0  0  0  0  0  0  0  0  0
    9.5425  -13.0778   -2.2148 H   0  0  0  0  0  0  0  0  0  0  0  0
   12.0074  -12.8010   -2.0951 H   0  0  0  0  0  0  0  0  0  0  0  0
   13.0739  -11.9496   -0.0080 H   0  0  0  0  0  0  0  0  0  0  0  0
   11.6529  -11.3784    1.9575 H   0  0  0  0  0  0  0  0  0  0  0  0
    9.1848  -11.6580    1.8438 H   0  0  0  0  0  0  0  0  0  0  0  0
    6.9771  -11.0313   -1.5081 H   0  0  0  0  0  0  0  0  0  0  0  0
    7.8263  -12.3594   -2.3845 H   0  0  0  0  0  0  0  0  0  0  0  0
    5.3031  -12.4165   -2.6295 H   0  0  0  0  0  0  0  0  0  0  0  0
    6.0172  -13.9146   -1.9097 H   0  0  0  0  0  0  0  0  0  0  0  0
  1  2  1  0
  2  3  2  0
  3  4  1  0
  4  5  2  0
  4  6  1  0
  6  7  1  0
  7  8  2  0
  8  9  1  0
  9 10  2  0
 10 11  1  0
 11 12  2  0
  9 13  1  0
 13 14  1  0
 14 15  1  0
 15 16  1  0
 16 17  1  0
 17 18  1  0
 18 19  1  0
 19 20  1  0
 20 21  1  0
 21 22  2  0
 22 23  1  0
 23 24  2  0
 24 25  1  0
 25 26  2  0
 20 27  1  0
 27 28  1  0
 15 29  1  0
 29 30  1  0
 30 31  1  0
 31 32  1  0
 32 33  1  0
 33 34  1  0
 34 35  2  0
 35 36  1  0
 36 37  2  0
 37 38  1  0
 38 39  2  0
 33 40  1  0
 40 41  1  0
 15 42  1  0
 42 43  2  0
 12  2  1  0
 28 17  1  0
 41 30  1  0
 12  7  1  0
 26 21  1  0
 39 34  1  0
 42  8  1  0
  1 44  1  0
  1 45  1  0
  1 46  1  0
  3 47  1  0
 10 48  1  0
 11 49  1  0
 14 50  1  0
 14 51  1  0
 16 52  1  0
 16 53  1  0
 17 54  1  0
 18 55  1  0
 18 56  1  0
 19 57  1  0
 19 58  1  0
 22 59  1  0
 23 60  1  0
 24 61  1  0
 25 62  1  0
 26 63  1  0
 27 64  1  0
 27 65  1  0
 28 66  1  0
 28 67  1  0
 29 68  1  0
 29 69  1  0
 30 70  1  0
 31 71  1  0
 31 72  1  0
 32 73  1  0
 32 74  1  0
 35 75  1  0
 36 76  1  0
 37 77  1  0
 38 78  1  0
 39 79  1  0
 40 80  1  0
 40 81  1  0
 41 82  1  0
 41 83  1  0
M  CHG  2  17   1  30   1
M  END
>  <meeko>  (6) 
{"is_sidechain": [false], "free_energy": -8.989, "intermolecular_energy": -12.988, "internal_energy": -1.333}

$$$$
LIB_CHFMAFLBJKNXLK__M_PUB_ALL__e8__s20260927
     RDKit          3D

 83 89  0  0  0  0  0  0  0  0999 V2000
    1.7990  -18.7890    9.3740 C   0  0  0  0  0  0  0  0  0  0  0  0
    1.9400  -19.0680    7.9040 C   0  0  0  0  0  0  0  0  0  0  0  0
    2.4920  -20.2110    7.4690 C   0  0  0  0  0  0  0  0  0  0  0  0
    2.6580  -20.5360    6.0470 C   0  0  0  0  0  0  0  0  0  0  0  0
    3.1800  -21.5780    5.6760 O   0  0  0  0  0  0  0  0  0  0  0  0
    2.1920  -19.5930    5.1450 O   0  0  0  0  0  0  0  0  0  0  0  0
    1.6080  -18.3790    5.5530 C   0  0  0  0  0  0  0  0  0  0  0  0
    1.1830  -17.4840    4.5620 C   0  0  0  0  0  0  0  0  0  0  0  0
    0.6410  -16.2560    4.9380 C   0  0  0  0  0  0  0  0  0  0  0  0
    0.4740  -15.9490    6.2840 C   0  0  0  0  0  0  0  0  0  0  0  0
    0.8910  -16.8580    7.2660 C   0  0  0  0  0  0  0  0  0  0  0  0
    1.4730  -18.0850    6.9140 C   0  0  0  0  0  0  0  0  0  0  0  0
    0.2230  -15.3230    4.0240 O   0  0  0  0  0  0  0  0  0  0  0  0
    1.0070  -15.3770    2.8330 C   0  0  0  0  0  0  0  0  0  0  0  0
    0.8280  -16.7200    2.1170 C   0  0  0  0  0  0  0  0  0  0  0  0
   -0.6540  -17.0330    1.7760 C   0  0  0  0  0  0  0  0  0  0  0  0
   -1.5590  -15.8360    1.6280 N   0  0  0  0  0  0  0  0  0  0  0  0
   -2.7650  -15.7920    2.6100 C   0  0  0  0  0  0  0  0  0  0  0  0
   -3.2870  -14.3330    2.6490 C   0  0  0  0  0  0  0  0  0  0  0  0
   -2.8650  -13.6300    1.4150 N   0  0  0  0  0  0  0  0  0  0  0  0
   -2.8030  -12.2420    1.3750 C   0  0  0  0  0  0  0  0  0  0  0  0
   -3.1460  -11.5310    0.2120 C   0  0  0  0  0  0  0  0  0  0  0  0
   -3.0690  -10.1350    0.1480 C   0  0  0  0  0  0  0  0  0  0  0  0
   -2.6380   -9.4090    1.2520 C   0  0  0  0  0  0  0  0  0  0  0  0
   -2.2860  -10.0820    2.4140 C   0  0  0  0  0  0  0  0  0  0  0  0
   -2.3670  -11.4800    2.4710 C   0  0  0  0  0  0  0  0  0  0  0  0
   -3.0500  -14.3970    0.1660 C   0  0  0  0  0  0  0  0  0  0  0  0
   -2.1290  -15.6430    0.1980 C   0  0  0  0  0  0  0  0  0  0  0  0
    1.8000  -16.7520    0.8970 C   0  0  0  0  0  0  0  0  0  0  0  0
    1.9540  -15.4530    0.1210 N   0  0  0  0  0  0  0  0  0  0  0  0
    3.3830  -14.9560   -0.0680 C   0  0  0  0  0  0  0  0  0  0  0  0
    3.4110  -13.5800   -0.7640 C   0  0  0  0  0  0  0  0  0  0  0  0
    2.6740  -13.6380   -2.0270 N   0  0  0  0  0  0  0  0  0  0  0  0
    2.9530  -12.7030   -3.0250 C   0  0  0  0  0  0  0  0  0  0  0  0
    3.6690  -13.0830   -4.1720 C   0  0  0  0  0  0  0  0  0  0  0  0
    3.9680  -12.1680   -5.1870 C   0  0  0  0  0  0  0  0  0  0  0  0
    3.5580  -10.8450   -5.0740 C   0  0  0  0  0  0  0  0  0  0  0  0
    2.8530  -10.4400   -3.9480 C   0  0  0  0  0  0  0  0  0  0  0  0
    2.5570  -11.3590   -2.9340 C   0  0  0  0  0  0  0  0  0  0  0  0
    1.2940  -14.1440   -1.9680 C   0  0  0  0  0  0  0  0  0  0  0  0
    1.2520  -15.5140   -1.2620 C   0  0  0  0  0  0  0  0  0  0  0  0
    1.2340  -17.7970    3.1120 C   0  0  0  0  0  0  0  0  0  0  0  0
    1.5140  -18.9150    2.6850 O   0  0  0  0  0  0  0  0  0  0  0  0
    2.2221  -19.6263    9.9484 H   0  0  0  0  0  0  0  0  0  0  0  0
    2.3374  -17.8631    9.6248 H   0  0  0  0  0  0  0  0  0  0  0  0
    0.7342  -18.6734    9.6248 H   0  0  0  0  0  0  0  0  0  0  0  0
    2.8376  -20.9413    8.2155 H   0  0  0  0  0  0  0  0  0  0  0  0
    0.0150  -14.9935    6.5778 H   0  0  0  0  0  0  0  0  0  0  0  0
    0.7600  -16.6055    8.3286 H   0  0  0  0  0  0  0  0  0  0  0  0
    0.6938  -14.5658    2.1593 H   0  0  0  0  0  0  0  0  0  0  0  0
    2.0666  -15.2644    3.1060 H   0  0  0  0  0  0  0  0  0  0  0  0
   -0.6720  -17.5894    0.8272 H   0  0  0  0  0  0  0  0  0  0  0  0
   -1.0452  -17.5998    2.6337 H   0  0  0  0  0  0  0  0  0  0  0  0
   -1.1090  -14.9190    1.7940 H   0  0  0  0  0  0  0  0  0  0  0  0
   -3.5602  -16.4652    2.2573 H   0  0  0  0  0  0  0  0  0  0  0  0
   -2.4566  -16.1181    3.6143 H   0  0  0  0  0  0  0  0  0  0  0  0
   -4.3852  -14.3370    2.7126 H   0  0  0  0  0  0  0  0  0  0  0  0
   -2.8733  -13.8165    3.5277 H   0  0  0  0  0  0  0  0  0  0  0  0
   -3.4849  -12.0881   -0.6739 H   0  0  0  0  0  0  0  0  0  0  0  0
   -3.3501   -9.6115   -0.7777 H   0  0  0  0  0  0  0  0  0  0  0  0
   -2.5764   -8.3117    1.2055 H   0  0  0  0  0  0  0  0  0  0  0  0
   -1.9425   -9.5163    3.2927 H   0  0  0  0  0  0  0  0  0  0  0  0
   -2.0811  -11.9947    3.4002 H   0  0  0  0  0  0  0  0  0  0  0  0
   -4.0993  -14.7161    0.0811 H   0  0  0  0  0  0  0  0  0  0  0  0
   -2.7932  -13.7671   -0.6984 H   0  0  0  0  0  0  0  0  0  0  0  0
   -2.7084  -16.5333   -0.0878 H   0  0  0  0  0  0  0  0  0  0  0  0
   -1.2983  -15.5000   -0.5088 H   0  0  0  0  0  0  0  0  0  0  0  0
    2.7945  -17.0397    1.2688 H   0  0  0  0  0  0  0  0  0  0  0  0
    1.3552  -17.4653    0.1875 H   0  0  0  0  0  0  0  0  0  0  0  0
    1.4240  -14.6930    0.6040 H   0  0  0  0  0  0  0  0  0  0  0  0
    3.8652  -14.8691    0.9168 H   0  0  0  0  0  0  0  0  0  0  0  0
    3.9199  -15.6766   -0.7024 H   0  0  0  0  0  0  0  0  0  0  0  0
    2.9466  -12.8305   -0.1063 H   0  0  0  0  0  0  0  0  0  0  0  0
    4.4554  -13.3029   -0.9700 H   0  0  0  0  0  0  0  0  0  0  0  0
    4.0029  -14.1260   -4.2747 H   0  0  0  0  0  0  0  0  0  0  0  0
    4.5280  -12.4959   -6.0752 H   0  0  0  0  0  0  0  0  0  0  0  0
    3.7903  -10.1234   -5.8710 H   0  0  0  0  0  0  0  0  0  0  0  0
    2.5262   -9.3940   -3.8525 H   0  0  0  0  0  0  0  0  0  0  0  0
    2.0020  -11.0206   -2.0466 H   0  0  0  0  0  0  0  0  0  0  0  0
    0.6700  -13.4300   -1.4105 H   0  0  0  0  0  0  0  0  0  0  0  0
    0.9130  -14.2599   -2.9934 H   0  0  0  0  0  0  0  0  0  0  0  0
    0.2029  -15.8124   -1.1193 H   0  0  0  0  0  0  0  0  0  0  0  0
    1.7809  -16.2463   -1.8897 H   0  0  0  0  0  0  0  0  0  0  0  0
  1  2  1  0
  2  3  2  0
  3  4  1  0
  4  5  2  0
  4  6  1  0
  6  7  1  0
  7  8  2  0
  8  9  1  0
  9 10  2  0
 10 11  1  0
 11 12  2  0
  9 13  1  0
 13 14  1  0
 14 15  1  0
 15 16  1  0
 16 17  1  0
 17 18  1  0
 18 19  1  0
 19 20  1  0
 20 21  1  0
 21 22  2  0
 22 23  1  0
 23 24  2  0
 24 25  1  0
 25 26  2  0
 20 27  1  0
 27 28  1  0
 15 29  1  0
 29 30  1  0
 30 31  1  0
 31 32  1  0
 32 33  1  0
 33 34  1  0
 34 35  2  0
 35 36  1  0
 36 37  2  0
 37 38  1  0
 38 39  2  0
 33 40  1  0
 40 41  1  0
 15 42  1  0
 42 43  2  0
 12  2  1  0
 28 17  1  0
 41 30  1  0
 12  7  1  0
 26 21  1  0
 39 34  1  0
 42  8  1  0
  1 44  1  0
  1 45  1  0
  1 46  1  0
  3 47  1  0
 10 48  1  0
 11 49  1  0
 14 50  1  0
 14 51  1  0
 16 52  1  0
 16 53  1  0
 17 54  1  0
 18 55  1  0
 18 56  1  0
 19 57  1  0
 19 58  1  0
 22 59  1  0
 23 60  1  0
 24 61  1  0
 25 62  1  0
 26 63  1  0
 27 64  1  0
 27 65  1  0
 28 66  1  0
 28 67  1  0
 29 68  1  0
 29 69  1  0
 30 70  1  0
 31 71  1  0
 31 72  1  0
 32 73  1  0
 32 74  1  0
 35 75  1  0
 36 76  1  0
 37 77  1  0
 38 78  1  0
 39 79  1  0
 40 80  1  0
 40 81  1  0
 41 82  1  0
 41 83  1  0
M  CHG  2  17   1  30   1
M  END
>  <meeko>  (7) 
{"is_sidechain": [false], "free_energy": -8.915, "intermolecular_energy": -12.359, "internal_energy": -1.862}

$$$$
LIB_CHFMAFLBJKNXLK__M_PUB_ALL__e8__s20260927
     RDKit          3D

 83 89  0  0  0  0  0  0  0  0999 V2000
    7.9160  -14.7760   -0.7240 C   0  0  0  0  0  0  0  0  0  0  0  0
    6.7220  -14.6960    0.1840 C   0  0  0  0  0  0  0  0  0  0  0  0
    6.7110  -13.8660    1.2380 C   0  0  0  0  0  0  0  0  0  0  0  0
    5.5740  -13.7490    2.1590 C   0  0  0  0  0  0  0  0  0  0  0  0
    5.5950  -12.9960    3.1240 O   0  0  0  0  0  0  0  0  0  0  0  0
    4.4730  -14.5420    1.8790 O   0  0  0  0  0  0  0  0  0  0  0  0
    4.4380  -15.4290    0.7860 C   0  0  0  0  0  0  0  0  0  0  0  0
    3.2830  -16.2000    0.5970 C   0  0  0  0  0  0  0  0  0  0  0  0
    3.2380  -17.1180   -0.4510 C   0  0  0  0  0  0  0  0  0  0  0  0
    4.3100  -17.2250   -1.3320 C   0  0  0  0  0  0  0  0  0  0  0  0
    5.4540  -16.4390   -1.1390 C   0  0  0  0  0  0  0  0  0  0  0  0
    5.5390  -15.5340   -0.0710 C   0  0  0  0  0  0  0  0  0  0  0  0
    2.1510  -17.9190   -0.6850 O   0  0  0  0  0  0  0  0  0  0  0  0
    1.4820  -18.2520    0.5310 C   0  0  0  0  0  0  0  0  0  0  0  0
    0.8990  -17.0020    1.1990 C   0  0  0  0  0  0  0  0  0  0  0  0
   -0.0690  -16.2160    0.2740 C   0  0  0  0  0  0  0  0  0  0  0  0
    0.5550  -15.1050   -0.5340 N   0  0  0  0  0  0  0  0  0  0  0  0
    0.0650  -13.6720   -0.1770 C   0  0  0  0  0  0  0  0  0  0  0  0
    1.1070  -12.6670   -0.7310 C   0  0  0  0  0  0  0  0  0  0  0  0
    1.8760  -13.3120   -1.8210 N   0  0  0  0  0  0  0  0  0  0  0  0
    3.1260  -12.8300   -2.1880 C   0  0  0  0  0  0  0  0  0  0  0  0
    4.0320  -12.3460   -1.2280 C   0  0  0  0  0  0  0  0  0  0  0  0
    5.2860  -11.8370   -1.5820 C   0  0  0  0  0  0  0  0  0  0  0  0
    5.6670  -11.7920   -2.9180 C   0  0  0  0  0  0  0  0  0  0  0  0
    4.7940  -12.2560   -3.8920 C   0  0  0  0  0  0  0  0  0  0  0  0
    3.5400  -12.7660   -3.5290 C   0  0  0  0  0  0  0  0  0  0  0  0
    1.0630  -14.0720   -2.7930 C   0  0  0  0  0  0  0  0  0  0  0  0
    0.3990  -15.2700   -2.0680 C   0  0  0  0  0  0  0  0  0  0  0  0
    0.2920  -17.4250    2.5730 C   0  0  0  0  0  0  0  0  0  0  0  0
   -1.1640  -17.0590    2.8100 N   0  0  0  0  0  0  0  0  0  0  0  0
   -2.0150  -18.1220    3.4970 C   0  0  0  0  0  0  0  0  0  0  0  0
   -3.4930  -17.6900    3.5810 C   0  0  0  0  0  0  0  0  0  0  0  0
   -3.6010  -16.3870    4.2360 N   0  0  0  0  0  0  0  0  0  0  0  0
   -4.8060  -16.0230    4.8390 C   0  0  0  0  0  0  0  0  0  0  0  0
   -5.3080  -16.7620    5.9240 C   0  0  0  0  0  0  0  0  0  0  0  0
   -6.5140  -16.4260    6.5460 C   0  0  0  0  0  0  0  0  0  0  0  0
   -7.2510  -15.3380    6.0940 C   0  0  0  0  0  0  0  0  0  0  0  0
   -6.7820  -14.5920    5.0190 C   0  0  0  0  0  0  0  0  0  0  0  0
   -5.5750  -14.9340    4.3980 C   0  0  0  0  0  0  0  0  0  0  0  0
   -2.7900  -15.2930    3.6790 C   0  0  0  0  0  0  0  0  0  0  0  0
   -1.3100  -15.7180    3.5780 C   0  0  0  0  0  0  0  0  0  0  0  0
    2.0670  -16.0540    1.4350 C   0  0  0  0  0  0  0  0  0  0  0  0
    1.9320  -15.1510    2.2570 O   0  0  0  0  0  0  0  0  0  0  0  0
    8.8329  -14.8374   -0.1195 H   0  0  0  0  0  0  0  0  0  0  0  0
    7.8347  -15.6707   -1.3587 H   0  0  0  0  0  0  0  0  0  0  0  0
    7.9548  -13.8784   -1.3587 H   0  0  0  0  0  0  0  0  0  0  0  0
    7.5982  -13.2421    1.4211 H   0  0  0  0  0  0  0  0  0  0  0  0
    4.2594  -17.9255   -2.1786 H   0  0  0  0  0  0  0  0  0  0  0  0
    6.2992  -16.5334   -1.8366 H   0  0  0  0  0  0  0  0  0  0  0  0
    0.6658  -18.9558    0.3111 H   0  0  0  0  0  0  0  0  0  0  0  0
    2.2106  -18.7079    1.2175 H   0  0  0  0  0  0  0  0  0  0  0  0
   -0.5209  -16.9318   -0.4284 H   0  0  0  0  0  0  0  0  0  0  0  0
   -0.7937  -15.7292    0.9432 H   0  0  0  0  0  0  0  0  0  0  0  0
    1.5810  -15.0140   -0.4410 H   0  0  0  0  0  0  0  0  0  0  0  0
   -0.9166  -13.4860   -0.6373 H   0  0  0  0  0  0  0  0  0  0  0  0
   -0.0377  -13.5598    0.9124 H   0  0  0  0  0  0  0  0  0  0  0  0
    0.5893  -11.7787   -1.1220 H   0  0  0  0  0  0  0  0  0  0  0  0
    1.7920  -12.3639    0.0746 H   0  0  0  0  0  0  0  0  0  0  0  0
    3.7460  -12.3682   -0.1661 H   0  0  0  0  0  0  0  0  0  0  0  0
    5.9710  -11.4721   -0.8025 H   0  0  0  0  0  0  0  0  0  0  0  0
    6.6519  -11.3921   -3.2008 H   0  0  0  0  0  0  0  0  0  0  0  0
    5.0870  -12.2234   -4.9517 H   0  0  0  0  0  0  0  0  0  0  0  0
    2.8611  -13.1262   -4.3160 H   0  0  0  0  0  0  0  0  0  0  0  0
    0.2848  -13.4183   -3.2139 H   0  0  0  0  0  0  0  0  0  0  0  0
    1.7048  -14.4397   -3.6072 H   0  0  0  0  0  0  0  0  0  0  0  0
   -0.6700  -15.3059   -2.3250 H   0  0  0  0  0  0  0  0  0  0  0  0
    0.8870  -16.2034   -2.3852 H   0  0  0  0  0  0  0  0  0  0  0  0
    0.3799  -18.5184    2.6553 H   0  0  0  0  0  0  0  0  0  0  0  0
    0.8611  -16.8640    3.3290 H   0  0  0  0  0  0  0  0  0  0  0  0
   -1.6230  -16.8410    1.8960 H   0  0  0  0  0  0  0  0  0  0  0  0
   -1.9478  -19.0592    2.9251 H   0  0  0  0  0  0  0  0  0  0  0  0
   -1.6359  -18.2617    4.5201 H   0  0  0  0  0  0  0  0  0  0  0  0
   -3.9101  -17.6220    2.5654 H   0  0  0  0  0  0  0  0  0  0  0  0
   -4.0521  -18.4342    4.1671 H   0  0  0  0  0  0  0  0  0  0  0  0
   -4.7373  -17.6269    6.2932 H   0  0  0  0  0  0  0  0  0  0  0  0
   -6.8800  -17.0234    7.3940 H   0  0  0  0  0  0  0  0  0  0  0  0
   -8.1987  -15.0691    6.5834 H   0  0  0  0  0  0  0  0  0  0  0  0
   -7.3610  -13.7304    4.6552 H   0  0  0  0  0  0  0  0  0  0  0  0
   -5.2209  -14.3361    3.5452 H   0  0  0  0  0  0  0  0  0  0  0  0
   -3.1635  -15.0394    2.6759 H   0  0  0  0  0  0  0  0  0  0  0  0
   -2.8657  -14.4191    4.3427 H   0  0  0  0  0  0  0  0  0  0  0  0
   -0.7475  -14.9365    3.0462 H   0  0  0  0  0  0  0  0  0  0  0  0
   -0.9157  -15.8540    4.5958 H   0  0  0  0  0  0  0  0  0  0  0  0
  1  2  1  0
  2  3  2  0
  3  4  1  0
  4  5  2  0
  4  6  1  0
  6  7  1  0
  7  8  2  0
  8  9  1  0
  9 10  2  0
 10 11  1  0
 11 12  2  0
  9 13  1  0
 13 14  1  0
 14 15  1  0
 15 16  1  0
 16 17  1  0
 17 18  1  0
 18 19  1  0
 19 20  1  0
 20 21  1  0
 21 22  2  0
 22 23  1  0
 23 24  2  0
 24 25  1  0
 25 26  2  0
 20 27  1  0
 27 28  1  0
 15 29  1  0
 29 30  1  0
 30 31  1  0
 31 32  1  0
 32 33  1  0
 33 34  1  0
 34 35  2  0
 35 36  1  0
 36 37  2  0
 37 38  1  0
 38 39  2  0
 33 40  1  0
 40 41  1  0
 15 42  1  0
 42 43  2  0
 12  2  1  0
 28 17  1  0
 41 30  1  0
 12  7  1  0
 26 21  1  0
 39 34  1  0
 42  8  1  0
  1 44  1  0
  1 45  1  0
  1 46  1  0
  3 47  1  0
 10 48  1  0
 11 49  1  0
 14 50  1  0
 14 51  1  0
 16 52  1  0
 16 53  1  0
 17 54  1  0
 18 55  1  0
 18 56  1  0
 19 57  1  0
 19 58  1  0
 22 59  1  0
 23 60  1  0
 24 61  1  0
 25 62  1  0
 26 63  1  0
 27 64  1  0
 27 65  1  0
 28 66  1  0
 28 67  1  0
 29 68  1  0
 29 69  1  0
 30 70  1  0
 31 71  1  0
 31 72  1  0
 32 73  1  0
 32 74  1  0
 35 75  1  0
 36 76  1  0
 37 77  1  0
 38 78  1  0
 39 79  1  0
 40 80  1  0
 40 81  1  0
 41 82  1  0
 41 83  1  0
M  CHG  2  17   1  30   1
M  END
>  <meeko>  (8) 
{"is_sidechain": [false], "free_energy": -8.878, "intermolecular_energy": -11.422, "internal_energy": -2.75}

$$$$
LIB_CHFMAFLBJKNXLK__M_PUB_ALL__e8__s20260927
     RDKit          3D

 83 89  0  0  0  0  0  0  0  0999 V2000
    1.0720  -17.9400    6.1010 C   0  0  0  0  0  0  0  0  0  0  0  0
    1.5400  -17.8540    4.6770 C   0  0  0  0  0  0  0  0  0  0  0  0
    2.0940  -18.9140    4.0680 C   0  0  0  0  0  0  0  0  0  0  0  0
    2.5720  -18.8860    2.6800 C   0  0  0  0  0  0  0  0  0  0  0  0
    3.0890  -19.8620    2.1520 O   0  0  0  0  0  0  0  0  0  0  0  0
    2.4090  -17.6910    1.9980 O   0  0  0  0  0  0  0  0  0  0  0  0
    1.8350  -16.5520    2.5950 C   0  0  0  0  0  0  0  0  0  0  0  0
    1.7280  -15.3860    1.8260 C   0  0  0  0  0  0  0  0  0  0  0  0
    1.2040  -14.2310    2.4050 C   0  0  0  0  0  0  0  0  0  0  0  0
    0.7420  -14.2560    3.7160 C   0  0  0  0  0  0  0  0  0  0  0  0
    0.8430  -15.4320    4.4720 C   0  0  0  0  0  0  0  0  0  0  0  0
    1.3990  -16.5980    3.9240 C   0  0  0  0  0  0  0  0  0  0  0  0
    1.0880  -13.0490    1.7200 O   0  0  0  0  0  0  0  0  0  0  0  0
    2.1300  -12.9060    0.7540 C   0  0  0  0  0  0  0  0  0  0  0  0
    2.0280  -13.9860   -0.3280 C   0  0  0  0  0  0  0  0  0  0  0  0
    0.6520  -13.9970   -1.0470 C   0  0  0  0  0  0  0  0  0  0  0  0
   -0.4730  -14.6650   -0.2980 N   0  0  0  0  0  0  0  0  0  0  0  0
   -1.1600  -15.8440   -1.0470 C   0  0  0  0  0  0  0  0  0  0  0  0
   -1.9260  -16.6870    0.0040 C   0  0  0  0  0  0  0  0  0  0  0  0
   -2.2000  -15.8500    1.1950 N   0  0  0  0  0  0  0  0  0  0  0  0
   -2.4640  -16.4360    2.4280 C   0  0  0  0  0  0  0  0  0  0  0  0
   -3.1210  -15.7240    3.4470 C   0  0  0  0  0  0  0  0  0  0  0  0
   -3.3750  -16.2910    4.7010 C   0  0  0  0  0  0  0  0  0  0  0  0
   -2.9700  -17.5920    4.9720 C   0  0  0  0  0  0  0  0  0  0  0  0
   -2.3130  -18.3200    3.9890 C   0  0  0  0  0  0  0  0  0  0  0  0
   -2.0630  -17.7460    2.7360 C   0  0  0  0  0  0  0  0  0  0  0  0
   -2.7000  -14.4910    0.9020 C   0  0  0  0  0  0  0  0  0  0  0  0
   -1.5970  -13.6980    0.1560 C   0  0  0  0  0  0  0  0  0  0  0  0
    3.2600  -13.8390   -1.2750 C   0  0  0  0  0  0  0  0  0  0  0  0
    4.6000  -13.5770   -0.6050 N   0  0  0  0  0  0  0  0  0  0  0  0
    5.6370  -14.6880   -0.7330 C   0  0  0  0  0  0  0  0  0  0  0  0
    6.9080  -14.3640    0.0780 C   0  0  0  0  0  0  0  0  0  0  0  0
    7.4420  -13.0610   -0.3190 N   0  0  0  0  0  0  0  0  0  0  0  0
    8.7900  -12.7770   -0.0930 C   0  0  0  0  0  0  0  0  0  0  0  0
    9.1660  -11.9000    0.9370 C   0  0  0  0  0  0  0  0  0  0  0  0
   10.5070  -11.5920    1.1860 C   0  0  0  0  0  0  0  0  0  0  0  0
   11.5080  -12.1570    0.4040 C   0  0  0  0  0  0  0  0  0  0  0  0
   11.1640  -13.0250   -0.6260 C   0  0  0  0  0  0  0  0  0  0  0  0
    9.8200  -13.3280   -0.8720 C   0  0  0  0  0  0  0  0  0  0  0  0
    6.5140  -11.9210   -0.2740 C   0  0  0  0  0  0  0  0  0  0  0  0
    5.2310  -12.2380   -1.0700 C   0  0  0  0  0  0  0  0  0  0  0  0
    2.1020  -15.3250    0.3910 C   0  0  0  0  0  0  0  0  0  0  0  0
    2.3930  -16.3260   -0.2610 O   0  0  0  0  0  0  0  0  0  0  0  0
    1.9251  -17.7832    6.7774 H   0  0  0  0  0  0  0  0  0  0  0  0
    0.3117  -17.1665    6.2844 H   0  0  0  0  0  0  0  0  0  0  0  0
    0.6363  -18.9332    6.2844 H   0  0  0  0  0  0  0  0  0  0  0  0
    2.1949  -19.8500    4.6369 H   0  0  0  0  0  0  0  0  0  0  0  0
    0.2973  -13.3531    4.1599 H   0  0  0  0  0  0  0  0  0  0  0  0
    0.4809  -15.4410    5.5107 H   0  0  0  0  0  0  0  0  0  0  0  0
    2.0497  -11.9155    0.2823 H   0  0  0  0  0  0  0  0  0  0  0  0
    3.0984  -13.0123    1.2649 H   0  0  0  0  0  0  0  0  0  0  0  0
    0.3602  -12.9530   -1.2339 H   0  0  0  0  0  0  0  0  0  0  0  0
    0.7969  -14.5909   -1.9615 H   0  0  0  0  0  0  0  0  0  0  0  0
   -0.2060  -15.1040    0.6000 H   0  0  0  0  0  0  0  0  0  0  0  0
   -1.8625  -15.4526   -1.7976 H   0  0  0  0  0  0  0  0  0  0  0  0
   -0.4105  -16.4611   -1.5640 H   0  0  0  0  0  0  0  0  0  0  0  0
   -2.8761  -17.0364   -0.4264 H   0  0  0  0  0  0  0  0  0  0  0  0
   -1.3173  -17.5557    0.2953 H   0  0  0  0  0  0  0  0  0  0  0  0
   -3.4449  -14.6909    3.2528 H   0  0  0  0  0  0  0  0  0  0  0  0
   -3.8960  -15.7058    5.4731 H   0  0  0  0  0  0  0  0  0  0  0  0
   -3.1680  -18.0413    5.9564 H   0  0  0  0  0  0  0  0  0  0  0  0
   -1.9879  -19.3505    4.1948 H   0  0  0  0  0  0  0  0  0  0  0  0
   -1.5379  -18.3380    1.9719 H   0  0  0  0  0  0  0  0  0  0  0  0
   -3.5983  -14.5566    0.2705 H   0  0  0  0  0  0  0  0  0  0  0  0
   -2.9558  -13.9784    1.8411 H   0  0  0  0  0  0  0  0  0  0  0  0
   -2.0336  -13.2056   -0.7254 H   0  0  0  0  0  0  0  0  0  0  0  0
   -1.1739  -12.9399    0.8315 H   0  0  0  0  0  0  0  0  0  0  0  0
    3.3511  -14.7706   -1.8528 H   0  0  0  0  0  0  0  0  0  0  0  0
    3.0569  -12.9446   -1.8823 H   0  0  0  0  0  0  0  0  0  0  0  0
    4.4520  -13.4080    0.4160 H   0  0  0  0  0  0  0  0  0  0  0  0
    5.2035  -15.6276   -0.3597 H   0  0  0  0  0  0  0  0  0  0  0  0
    5.9159  -14.7823   -1.7929 H   0  0  0  0  0  0  0  0  0  0  0  0
    6.6601  -14.3439    1.1495 H   0  0  0  0  0  0  0  0  0  0  0  0
    7.6655  -15.1372   -0.1177 H   0  0  0  0  0  0  0  0  0  0  0  0
    8.3858  -11.4436    1.5640 H   0  0  0  0  0  0  0  0  0  0  0  0
   10.7701  -10.9021    2.0013 H   0  0  0  0  0  0  0  0  0  0  0  0
   12.5642  -11.9191    0.5988 H   0  0  0  0  0  0  0  0  0  0  0  0
   11.9506  -13.4750   -1.2495 H   0  0  0  0  0  0  0  0  0  0  0  0
    9.5649  -14.0131   -1.6939 H   0  0  0  0  0  0  0  0  0  0  0  0
    6.2483  -11.7114    0.7727 H   0  0  0  0  0  0  0  0  0  0  0  0
    7.0043  -11.0447   -0.7231 H   0  0  0  0  0  0  0  0  0  0  0  0
    4.5042  -11.4265   -0.9175 H   0  0  0  0  0  0  0  0  0  0  0  0
    5.4940  -12.3274   -2.1343 H   0  0  0  0  0  0  0  0  0  0  0  0
  1  2  1  0
  2  3  2  0
  3  4  1  0
  4  5  2  0
  4  6  1  0
  6  7  1  0
  7  8  2  0
  8  9  1  0
  9 10  2  0
 10 11  1  0
 11 12  2  0
  9 13  1  0
 13 14  1  0
 14 15  1  0
 15 16  1  0
 16 17  1  0
 17 18  1  0
 18 19  1  0
 19 20  1  0
 20 21  1  0
 21 22  2  0
 22 23  1  0
 23 24  2  0
 24 25  1  0
 25 26  2  0
 20 27  1  0
 27 28  1  0
 15 29  1  0
 29 30  1  0
 30 31  1  0
 31 32  1  0
 32 33  1  0
 33 34  1  0
 34 35  2  0
 35 36  1  0
 36 37  2  0
 37 38  1  0
 38 39  2  0
 33 40  1  0
 40 41  1  0
 15 42  1  0
 42 43  2  0
 12  2  1  0
 28 17  1  0
 41 30  1  0
 12  7  1  0
 26 21  1  0
 39 34  1  0
 42  8  1  0
  1 44  1  0
  1 45  1  0
  1 46  1  0
  3 47  1  0
 10 48  1  0
 11 49  1  0
 14 50  1  0
 14 51  1  0
 16 52  1  0
 16 53  1  0
 17 54  1  0
 18 55  1  0
 18 56  1  0
 19 57  1  0
 19 58  1  0
 22 59  1  0
 23 60  1  0
 24 61  1  0
 25 62  1  0
 26 63  1  0
 27 64  1  0
 27 65  1  0
 28 66  1  0
 28 67  1  0
 29 68  1  0
 29 69  1  0
 30 70  1  0
 31 71  1  0
 31 72  1  0
 32 73  1  0
 32 74  1  0
 35 75  1  0
 36 76  1  0
 37 77  1  0
 38 78  1  0
 39 79  1  0
 40 80  1  0
 40 81  1  0
 41 82  1  0
 41 83  1  0
M  CHG  2  17   1  30   1
M  END
>  <meeko>  (9) 
{"is_sidechain": [false], "free_energy": -8.547, "intermolecular_energy": -10.949, "internal_energy": -2.775}

$$$$
