LIB_KCKKRVQCMJXYOT__M_PUB_ALL__e8__s20260927
     RDKit          3D

 53 56  0  0  0  0  0  0  0  0999 V2000
   10.8720  -14.5790   -7.5590 C   0  0  0  0  0  0  0  0  0  0  0  0
    9.6550  -14.3810   -8.4300 C   0  0  0  0  0  0  0  0  0  0  0  0
    9.7350  -13.6770   -9.4330 O   0  0  0  0  0  0  0  0  0  0  0  0
    8.4490  -15.0650   -8.0910 N   0  0  0  0  0  0  0  0  0  0  0  0
    7.4750  -14.3540   -7.3170 C   0  0  0  0  0  0  0  0  0  0  0  0
    7.4960  -14.4690   -5.9270 C   0  0  0  0  0  0  0  0  0  0  0  0
    6.5650  -13.7670   -5.1570 C   0  0  0  0  0  0  0  0  0  0  0  0
    5.6090  -12.9380   -5.7580 C   0  0  0  0  0  0  0  0  0  0  0  0
    4.6280  -12.2600   -5.0150 N   0  0  0  0  0  0  0  0  0  0  0  0
    4.0250  -12.6220   -3.7810 C   0  0  0  0  0  0  0  0  0  0  0  0
    4.6560  -12.3080   -2.5490 C   0  0  0  0  0  0  0  0  0  0  0  0
    5.9050  -11.6460   -2.4340 C   0  0  0  0  0  0  0  0  0  0  0  0
    6.4670  -11.3650   -1.1890 C   0  0  0  0  0  0  0  0  0  0  0  0
    5.7820  -11.7550   -0.0410 C   0  0  0  0  0  0  0  0  0  0  0  0
    6.3500  -11.4710    1.2800 N   0  0  0  0  0  0  0  0  0  0  0  0
    6.5850  -10.2880    1.5630 O   0  0  0  0  0  0  0  0  0  0  0  0
    6.5620  -12.4290    2.0360 O   0  0  0  0  0  0  0  0  0  0  0  0
    4.5560  -12.4230   -0.1390 C   0  0  0  0  0  0  0  0  0  0  0  0
    3.9940  -12.7070   -1.3750 C   0  0  0  0  0  0  0  0  0  0  0  0
    2.8310  -13.3680   -1.3850 N   0  0  0  0  0  0  0  0  0  0  0  0
    2.2370  -13.6890   -2.5480 C   0  0  0  0  0  0  0  0  0  0  0  0
    1.0240  -14.3920   -2.5280 C   0  0  0  0  0  0  0  0  0  0  0  0
    0.4080  -14.7840   -1.2090 C   0  0  0  0  0  0  0  0  0  0  0  0
    0.3670  -14.7370   -3.7180 C   0  0  0  0  0  0  0  0  0  0  0  0
    0.9100  -14.3810   -4.9440 C   0  0  0  0  0  0  0  0  0  0  0  0
    2.1130  -13.6830   -4.9800 C   0  0  0  0  0  0  0  0  0  0  0  0
    2.7980  -13.3350   -3.7910 C   0  0  0  0  0  0  0  0  0  0  0  0
    5.5990  -12.8370   -7.1550 C   0  0  0  0  0  0  0  0  0  0  0  0
    6.5290  -13.5340   -7.9330 C   0  0  0  0  0  0  0  0  0  0  0  0
    7.8120  -16.2790   -9.0850 S   0  0  0  0  0  0  0  0  0  0  0  0
    9.2160  -17.3380   -9.3760 C   0  0  0  0  0  0  0  0  0  0  0  0
    6.8740  -17.0620   -8.3020 O   0  0  0  0  0  0  0  0  0  0  0  0
    7.3900  -15.6800  -10.3340 O   0  0  0  0  0  0  0  0  0  0  0  0
   10.5770  -14.5310   -6.5004 H   0  0  0  0  0  0  0  0  0  0  0  0
   11.3187  -15.5616   -7.7710 H   0  0  0  0  0  0  0  0  0  0  0  0
   11.6071  -13.7886   -7.7710 H   0  0  0  0  0  0  0  0  0  0  0  0
    8.2437  -15.1108   -5.4382 H   0  0  0  0  0  0  0  0  0  0  0  0
    6.5831  -13.8669   -4.0617 H   0  0  0  0  0  0  0  0  0  0  0  0
    4.3850  -11.3280   -5.3350 H   0  0  0  0  0  0  0  0  0  0  0  0
    6.4420  -11.3478   -3.3465 H   0  0  0  0  0  0  0  0  0  0  0  0
    7.4335  -10.8449   -1.1152 H   0  0  0  0  0  0  0  0  0  0  0  0
    4.0302  -12.7274    0.7780 H   0  0  0  0  0  0  0  0  0  0  0  0
    1.0237  -14.3922   -0.3859 H   0  0  0  0  0  0  0  0  0  0  0  0
   -0.6068  -14.3652   -1.1393 H   0  0  0  0  0  0  0  0  0  0  0  0
    0.3576  -15.8806   -1.1393 H   0  0  0  0  0  0  0  0  0  0  0  0
   -0.5821  -15.2918   -3.6792 H   0  0  0  0  0  0  0  0  0  0  0  0
    0.3945  -14.6479   -5.8784 H   0  0  0  0  0  0  0  0  0  0  0  0
    2.5405  -13.3957   -5.9520 H   0  0  0  0  0  0  0  0  0  0  0  0
    4.8490  -12.2004   -7.6472 H   0  0  0  0  0  0  0  0  0  0  0  0
    6.5147  -13.4359   -9.0285 H   0  0  0  0  0  0  0  0  0  0  0  0
    9.6400  -17.6578   -8.4127 H   0  0  0  0  0  0  0  0  0  0  0  0
    8.8964  -18.2219   -9.9474 H   0  0  0  0  0  0  0  0  0  0  0  0
    9.9781  -16.7878   -9.9474 H   0  0  0  0  0  0  0  0  0  0  0  0
  1  2  1  0
  2  3  2  0
  2  4  1  0
  4  5  1  0
  5  6  2  0
  6  7  1  0
  7  8  2  0
  8  9  1  0
  9 10  1  0
 10 11  1  0
 11 12  2  0
 12 13  1  0
 13 14  2  0
 14 15  1  0
 15 16  2  0
 15 17  1  0
 14 18  1  0
 18 19  2  0
 19 20  1  0
 20 21  2  0
 21 22  1  0
 22 23  1  0
 22 24  2  0
 24 25  1  0
 25 26  2  0
 26 27  1  0
  8 28  1  0
 28 29  2  0
  4 30  1  0
 30 31  1  0
 30 32  2  0
 30 33  2  0
 29  5  1  0
 27 10  2  0
 19 11  1  0
 27 21  1  0
  1 34  1  0
  1 35  1  0
  1 36  1  0
  6 37  1  0
  7 38  1  0
  9 39  1  0
 12 40  1  0
 13 41  1  0
 18 42  1  0
 23 43  1  0
 23 44  1  0
 23 45  1  0
 24 46  1  0
 25 47  1  0
 26 48  1  0
 28 49  1  0
 29 50  1  0
 31 51  1  0
 31 52  1  0
 31 53  1  0
M  CHG  2  15   1  17  -1
M  END
>  <meeko>  (1) 
{"is_sidechain": [false], "free_energy": -7.945, "intermolecular_energy": -10.732, "internal_energy": -1.157}

$$$$
LIB_KCKKRVQCMJXYOT__M_PUB_ALL__e8__s20260927
     RDKit          3D

 53 56  0  0  0  0  0  0  0  0999 V2000
   12.2880  -15.5620   -0.9020 C   0  0  0  0  0  0  0  0  0  0  0  0
   11.6910  -14.2250   -0.5380 C   0  0  0  0  0  0  0  0  0  0  0  0
   11.9350  -13.7300    0.5590 O   0  0  0  0  0  0  0  0  0  0  0  0
   10.8940  -13.5420   -1.5050 N   0  0  0  0  0  0  0  0  0  0  0  0
    9.4900  -13.4180   -1.2450 C   0  0  0  0  0  0  0  0  0  0  0  0
    9.0310  -12.3380   -0.4940 C   0  0  0  0  0  0  0  0  0  0  0  0
    7.6620  -12.1930   -0.2480 C   0  0  0  0  0  0  0  0  0  0  0  0
    6.7360  -13.1150   -0.7510 C   0  0  0  0  0  0  0  0  0  0  0  0
    5.3610  -13.0250   -0.4790 N   0  0  0  0  0  0  0  0  0  0  0  0
    4.2790  -13.7180   -1.0840 C   0  0  0  0  0  0  0  0  0  0  0  0
    3.7710  -14.9110   -0.5060 C   0  0  0  0  0  0  0  0  0  0  0  0
    4.2840  -15.5130    0.6720 C   0  0  0  0  0  0  0  0  0  0  0  0
    3.7340  -16.6850    1.1880 C   0  0  0  0  0  0  0  0  0  0  0  0
    2.6640  -17.2750    0.5190 C   0  0  0  0  0  0  0  0  0  0  0  0
    2.0670  -18.5080    1.0420 N   0  0  0  0  0  0  0  0  0  0  0  0
    0.9890  -18.4150    1.6440 O   0  0  0  0  0  0  0  0  0  0  0  0
    2.6760  -19.5700    0.8510 O   0  0  0  0  0  0  0  0  0  0  0  0
    2.1580  -16.7020   -0.6520 C   0  0  0  0  0  0  0  0  0  0  0  0
    2.7020  -15.5370   -1.1710 C   0  0  0  0  0  0  0  0  0  0  0  0
    2.1770  -15.0640   -2.3060 N   0  0  0  0  0  0  0  0  0  0  0  0
    2.6660  -13.9470   -2.8740 C   0  0  0  0  0  0  0  0  0  0  0  0
    2.1020  -13.4810   -4.0700 C   0  0  0  0  0  0  0  0  0  0  0  0
    0.9660  -14.2390   -4.7070 C   0  0  0  0  0  0  0  0  0  0  0  0
    2.5760  -12.3140   -4.6880 C   0  0  0  0  0  0  0  0  0  0  0  0
    3.6150  -11.5940   -4.1170 C   0  0  0  0  0  0  0  0  0  0  0  0
    4.1850  -12.0450   -2.9300 C   0  0  0  0  0  0  0  0  0  0  0  0
    3.7290  -13.2250   -2.2960 C   0  0  0  0  0  0  0  0  0  0  0  0
    7.2150  -14.1970   -1.5010 C   0  0  0  0  0  0  0  0  0  0  0  0
    8.5820  -14.3480   -1.7540 C   0  0  0  0  0  0  0  0  0  0  0  0
   11.5420  -12.3180   -2.4790 S   0  0  0  0  0  0  0  0  0  0  0  0
   12.6620  -13.2040   -3.5470 C   0  0  0  0  0  0  0  0  0  0  0  0
   10.4860  -11.8120   -3.3370 O   0  0  0  0  0  0  0  0  0  0  0  0
   12.2910  -11.4070   -1.6400 O   0  0  0  0  0  0  0  0  0  0  0  0
   12.5351  -16.1154    0.0160 H   0  0  0  0  0  0  0  0  0  0  0  0
   11.5620  -16.1389   -1.4937 H   0  0  0  0  0  0  0  0  0  0  0  0
   13.2022  -15.4065   -1.4937 H   0  0  0  0  0  0  0  0  0  0  0  0
    9.7438  -11.6010   -0.0955 H   0  0  0  0  0  0  0  0  0  0  0  0
    7.3069  -11.3409    0.3503 H   0  0  0  0  0  0  0  0  0  0  0  0
    5.0970  -12.4750    0.3320 H   0  0  0  0  0  0  0  0  0  0  0  0
    5.1343  -15.0445    1.1892 H   0  0  0  0  0  0  0  0  0  0  0  0
    4.1374  -17.1359    2.1067 H   0  0  0  0  0  0  0  0  0  0  0  0
    1.3150  -17.1832   -1.1696 H   0  0  0  0  0  0  0  0  0  0  0  0
    0.3249  -14.6668   -3.9221 H   0  0  0  0  0  0  0  0  0  0  0  0
    0.3734  -13.5547   -5.3319 H   0  0  0  0  0  0  0  0  0  0  0  0
    1.3704  -15.0489   -5.3319 H   0  0  0  0  0  0  0  0  0  0  0  0
    2.1221  -11.9688   -5.6286 H   0  0  0  0  0  0  0  0  0  0  0  0
    3.9847  -10.6760   -4.5973 H   0  0  0  0  0  0  0  0  0  0  0  0
    5.0068  -11.4724   -2.4754 H   0  0  0  0  0  0  0  0  0  0  0  0
    6.5054  -14.9386   -1.8966 H   0  0  0  0  0  0  0  0  0  0  0  0
    8.9410  -15.1979   -2.3529 H   0  0  0  0  0  0  0  0  0  0  0  0
   13.3794  -13.7715   -2.9361 H   0  0  0  0  0  0  0  0  0  0  0  0
   12.0915  -13.8979   -4.1819 H   0  0  0  0  0  0  0  0  0  0  0  0
   13.2060  -12.4891   -4.1819 H   0  0  0  0  0  0  0  0  0  0  0  0
  1  2  1  0
  2  3  2  0
  2  4  1  0
  4  5  1  0
  5  6  2  0
  6  7  1  0
  7  8  2  0
  8  9  1  0
  9 10  1  0
 10 11  1  0
 11 12  2  0
 12 13  1  0
 13 14  2  0
 14 15  1  0
 15 16  2  0
 15 17  1  0
 14 18  1  0
 18 19  2  0
 19 20  1  0
 20 21  2  0
 21 22  1  0
 22 23  1  0
 22 24  2  0
 24 25  1  0
 25 26  2  0
 26 27  1  0
  8 28  1  0
 28 29  2  0
  4 30  1  0
 30 31  1  0
 30 32  2  0
 30 33  2  0
 29  5  1  0
 27 10  2  0
 19 11  1  0
 27 21  1  0
  1 34  1  0
  1 35  1  0
  1 36  1  0
  6 37  1  0
  7 38  1  0
  9 39  1  0
 12 40  1  0
 13 41  1  0
 18 42  1  0
 23 43  1  0
 23 44  1  0
 23 45  1  0
 24 46  1  0
 25 47  1  0
 26 48  1  0
 28 49  1  0
 29 50  1  0
 31 51  1  0
 31 52  1  0
 31 53  1  0
M  CHG  2  15   1  17  -1
M  END
>  <meeko>  (2) 
{"is_sidechain": [false], "free_energy": -7.705, "intermolecular_energy": -10.476, "internal_energy": -1.089}

$$$$
LIB_KCKKRVQCMJXYOT__M_PUB_ALL__e8__s20260927
     RDKit          3D

 53 56  0  0  0  0  0  0  0  0999 V2000
    8.5270  -17.3460   -7.0790 C   0  0  0  0  0  0  0  0  0  0  0  0
    8.0380  -16.5370   -8.2550 C   0  0  0  0  0  0  0  0  0  0  0  0
    7.4900  -17.1050   -9.1970 O   0  0  0  0  0  0  0  0  0  0  0  0
    8.1790  -15.1180   -8.2190 N   0  0  0  0  0  0  0  0  0  0  0  0
    7.2770  -14.3780   -7.3880 C   0  0  0  0  0  0  0  0  0  0  0  0
    6.3380  -13.5370   -7.9840 C   0  0  0  0  0  0  0  0  0  0  0  0
    5.4370  -12.8240   -7.1870 C   0  0  0  0  0  0  0  0  0  0  0  0
    5.4560  -12.9440   -5.7920 C   0  0  0  0  0  0  0  0  0  0  0  0
    4.5990  -12.2030   -4.9610 N   0  0  0  0  0  0  0  0  0  0  0  0
    3.9880  -12.5800   -3.7350 C   0  0  0  0  0  0  0  0  0  0  0  0
    4.6020  -12.2650   -2.4950 C   0  0  0  0  0  0  0  0  0  0  0  0
    5.8410  -11.5870   -2.3640 C   0  0  0  0  0  0  0  0  0  0  0  0
    6.3860  -11.3050   -1.1120 C   0  0  0  0  0  0  0  0  0  0  0  0
    5.6940  -11.7110    0.0280 C   0  0  0  0  0  0  0  0  0  0  0  0
    6.2450  -11.4260    1.3560 N   0  0  0  0  0  0  0  0  0  0  0  0
    6.3970  -12.3790    2.1330 O   0  0  0  0  0  0  0  0  0  0  0  0
    6.5280  -10.2500    1.6240 O   0  0  0  0  0  0  0  0  0  0  0  0
    4.4790  -12.3940   -0.0870 C   0  0  0  0  0  0  0  0  0  0  0  0
    3.9330  -12.6790   -1.3300 C   0  0  0  0  0  0  0  0  0  0  0  0
    2.7800  -13.3540   -1.3560 N   0  0  0  0  0  0  0  0  0  0  0  0
    2.2020  -13.6770   -2.5270 C   0  0  0  0  0  0  0  0  0  0  0  0
    0.9980  -14.3970   -2.5230 C   0  0  0  0  0  0  0  0  0  0  0  0
    0.3730  -14.8030   -1.2130 C   0  0  0  0  0  0  0  0  0  0  0  0
    0.3580  -14.7440   -3.7220 C   0  0  0  0  0  0  0  0  0  0  0  0
    0.9090  -14.3730   -4.9400 C   0  0  0  0  0  0  0  0  0  0  0  0
    2.1030  -13.6600   -4.9590 C   0  0  0  0  0  0  0  0  0  0  0  0
    2.7710  -13.3090   -3.7620 C   0  0  0  0  0  0  0  0  0  0  0  0
    6.4080  -13.7900   -5.2090 C   0  0  0  0  0  0  0  0  0  0  0  0
    7.3110  -14.5090   -5.9990 C   0  0  0  0  0  0  0  0  0  0  0  0
    9.6790  -14.3730   -8.4700 S   0  0  0  0  0  0  0  0  0  0  0  0
   10.5890  -15.5990   -9.3900 C   0  0  0  0  0  0  0  0  0  0  0  0
    9.4860  -13.2540   -9.3740 O   0  0  0  0  0  0  0  0  0  0  0  0
   10.3120  -14.1630   -7.1850 O   0  0  0  0  0  0  0  0  0  0  0  0
    8.2277  -16.8508   -6.1435 H   0  0  0  0  0  0  0  0  0  0  0  0
    8.0863  -18.3531   -7.1181 H   0  0  0  0  0  0  0  0  0  0  0  0
    9.6235  -17.4239   -7.1181 H   0  0  0  0  0  0  0  0  0  0  0  0
    6.3061  -13.4346   -9.0788 H   0  0  0  0  0  0  0  0  0  0  0  0
    4.7019  -12.1586   -7.6633 H   0  0  0  0  0  0  0  0  0  0  0  0
    4.4760  -11.2240   -5.2000 H   0  0  0  0  0  0  0  0  0  0  0  0
    6.3834  -11.2771   -3.2694 H   0  0  0  0  0  0  0  0  0  0  0  0
    7.3443  -10.7720   -1.0254 H   0  0  0  0  0  0  0  0  0  0  0  0
    3.9478  -12.7103    0.8228 H   0  0  0  0  0  0  0  0  0  0  0  0
    0.9769  -14.4107   -0.3815 H   0  0  0  0  0  0  0  0  0  0  0  0
   -0.6463  -14.3941   -1.1507 H   0  0  0  0  0  0  0  0  0  0  0  0
    0.3323  -15.9005   -1.1507 H   0  0  0  0  0  0  0  0  0  0  0  0
   -0.5836  -15.3120   -3.6964 H   0  0  0  0  0  0  0  0  0  0  0  0
    0.4065  -14.6401   -5.8814 H   0  0  0  0  0  0  0  0  0  0  0  0
    2.5372  -13.3627   -5.9249 H   0  0  0  0  0  0  0  0  0  0  0  0
    6.4460  -13.8904   -4.1143 H   0  0  0  0  0  0  0  0  0  0  0  0
    8.0466  -15.1765   -5.5263 H   0  0  0  0  0  0  0  0  0  0  0  0
   11.0952  -16.2810   -8.6909 H   0  0  0  0  0  0  0  0  0  0  0  0
    9.8955  -16.1716  -10.0234 H   0  0  0  0  0  0  0  0  0  0  0  0
   11.3379  -15.1010  -10.0234 H   0  0  0  0  0  0  0  0  0  0  0  0
  1  2  1  0
  2  3  2  0
  2  4  1  0
  4  5  1  0
  5  6  2  0
  6  7  1  0
  7  8  2  0
  8  9  1  0
  9 10  1  0
 10 11  1  0
 11 12  2  0
 12 13  1  0
 13 14  2  0
 14 15  1  0
 15 16  2  0
 15 17  1  0
 14 18  1  0
 18 19  2  0
 19 20  1  0
 20 21  2  0
 21 22  1  0
 22 23  1  0
 22 24  2  0
 24 25  1  0
 25 26  2  0
 26 27  1  0
  8 28  1  0
 28 29  2  0
  4 30  1  0
 30 31  1  0
 30 32  2  0
 30 33  2  0
 29  5  1  0
 27 10  2  0
 19 11  1  0
 27 21  1  0
  1 34  1  0
  1 35  1  0
  1 36  1  0
  6 37  1  0
  7 38  1  0
  9 39  1  0
 12 40  1  0
 13 41  1  0
 18 42  1  0
 23 43  1  0
 23 44  1  0
 23 45  1  0
 24 46  1  0
 25 47  1  0
 26 48  1  0
 28 49  1  0
 29 50  1  0
 31 51  1  0
 31 52  1  0
 31 53  1  0
M  CHG  2  15   1  17  -1
M  END
>  <meeko>  (3) 
{"is_sidechain": [false], "free_energy": -7.621, "intermolecular_energy": -10.575, "internal_energy": -0.877}

$$$$
LIB_KCKKRVQCMJXYOT__M_PUB_ALL__e8__s20260927
     RDKit          3D

 53 56  0  0  0  0  0  0  0  0999 V2000
   10.3360  -14.1190   -3.0130 C   0  0  0  0  0  0  0  0  0  0  0  0
   10.5510  -12.7210   -2.4880 C   0  0  0  0  0  0  0  0  0  0  0  0
   11.0730  -11.8760   -3.2100 O   0  0  0  0  0  0  0  0  0  0  0  0
   10.0940  -12.4020   -1.1750 N   0  0  0  0  0  0  0  0  0  0  0  0
    8.6860  -12.4800   -0.9220 C   0  0  0  0  0  0  0  0  0  0  0  0
    7.8880  -11.3640   -1.1710 C   0  0  0  0  0  0  0  0  0  0  0  0
    6.5100  -11.4300   -0.9480 C   0  0  0  0  0  0  0  0  0  0  0  0
    5.9090  -12.6060   -0.4820 C   0  0  0  0  0  0  0  0  0  0  0  0
    4.5350  -12.6890   -0.1990 N   0  0  0  0  0  0  0  0  0  0  0  0
    3.5350  -13.4770   -0.8280 C   0  0  0  0  0  0  0  0  0  0  0  0
    2.9990  -14.6190   -0.1770 C   0  0  0  0  0  0  0  0  0  0  0  0
    3.4040  -15.0760    1.1030 C   0  0  0  0  0  0  0  0  0  0  0  0
    2.8310  -16.2050    1.6870 C   0  0  0  0  0  0  0  0  0  0  0  0
    1.8470  -16.8970    0.9840 C   0  0  0  0  0  0  0  0  0  0  0  0
    1.2290  -18.0870    1.5760 N   0  0  0  0  0  0  0  0  0  0  0  0
    0.0220  -18.0330    1.8510 O   0  0  0  0  0  0  0  0  0  0  0  0
    1.9480  -19.0780    1.7670 O   0  0  0  0  0  0  0  0  0  0  0  0
    1.4490  -16.4670   -0.2860 C   0  0  0  0  0  0  0  0  0  0  0  0
    2.0170  -15.3460   -0.8720 C   0  0  0  0  0  0  0  0  0  0  0  0
    1.5970  -15.0120   -2.0970 N   0  0  0  0  0  0  0  0  0  0  0  0
    2.1150  -13.9450   -2.7310 C   0  0  0  0  0  0  0  0  0  0  0  0
    1.6650  -13.6270   -4.0200 C   0  0  0  0  0  0  0  0  0  0  0  0
    0.6150  -14.4850   -4.6790 C   0  0  0  0  0  0  0  0  0  0  0  0
    2.1720  -12.5160   -4.7110 C   0  0  0  0  0  0  0  0  0  0  0  0
    3.1320  -11.7070   -4.1230 C   0  0  0  0  0  0  0  0  0  0  0  0
    3.5900  -12.0110   -2.8440 C   0  0  0  0  0  0  0  0  0  0  0  0
    3.0990  -13.1320   -2.1340 C   0  0  0  0  0  0  0  0  0  0  0  0
    6.7260  -13.7170   -0.2320 C   0  0  0  0  0  0  0  0  0  0  0  0
    8.1050  -13.6600   -0.4550 C   0  0  0  0  0  0  0  0  0  0  0  0
   11.0700  -12.6520    0.1860 S   0  0  0  0  0  0  0  0  0  0  0  0
   12.4040  -11.4940   -0.0580 C   0  0  0  0  0  0  0  0  0  0  0  0
   10.3470  -12.1890    1.3560 O   0  0  0  0  0  0  0  0  0  0  0  0
   11.5880  -14.0030    0.1420 O   0  0  0  0  0  0  0  0  0  0  0  0
   10.2289  -14.8154   -2.1683 H   0  0  0  0  0  0  0  0  0  0  0  0
    9.4235  -14.1439   -3.6267 H   0  0  0  0  0  0  0  0  0  0  0  0
   11.1989  -14.4169   -3.6267 H   0  0  0  0  0  0  0  0  0  0  0  0
    8.3422  -10.4335   -1.5422 H   0  0  0  0  0  0  0  0  0  0  0  0
    5.8874  -10.5441   -1.1416 H   0  0  0  0  0  0  0  0  0  0  0  0
    4.2180  -12.2090    0.6360 H   0  0  0  0  0  0  0  0  0  0  0  0
    4.1873  -14.5278    1.6470 H   0  0  0  0  0  0  0  0  0  0  0  0
    3.1498  -16.5430    2.6840 H   0  0  0  0  0  0  0  0  0  0  0  0
    0.6731  -17.0270   -0.8285 H   0  0  0  0  0  0  0  0  0  0  0  0
    0.0086  -14.9805   -3.9065 H   0  0  0  0  0  0  0  0  0  0  0  0
   -0.0332  -13.8548   -5.3057 H   0  0  0  0  0  0  0  0  0  0  0  0
    1.1035  -15.2457   -5.3057 H   0  0  0  0  0  0  0  0  0  0  0  0
    1.8065  -12.2862   -5.7227 H   0  0  0  0  0  0  0  0  0  0  0  0
    3.5279  -10.8335   -4.6617 H   0  0  0  0  0  0  0  0  0  0  0  0
    4.3489  -11.3667   -2.3760 H   0  0  0  0  0  0  0  0  0  0  0  0
    6.2758  -14.6471    0.1451 H   0  0  0  0  0  0  0  0  0  0  0  0
    8.7311  -14.5437   -0.2627 H   0  0  0  0  0  0  0  0  0  0  0  0
   12.7854  -11.1629    0.9192 H   0  0  0  0  0  0  0  0  0  0  0  0
   13.2135  -11.9807   -0.6218 H   0  0  0  0  0  0  0  0  0  0  0  0
   12.0359  -10.6242   -0.6218 H   0  0  0  0  0  0  0  0  0  0  0  0
  1  2  1  0
  2  3  2  0
  2  4  1  0
  4  5  1  0
  5  6  2  0
  6  7  1  0
  7  8  2  0
  8  9  1  0
  9 10  1  0
 10 11  1  0
 11 12  2  0
 12 13  1  0
 13 14  2  0
 14 15  1  0
 15 16  2  0
 15 17  1  0
 14 18  1  0
 18 19  2  0
 19 20  1  0
 20 21  2  0
 21 22  1  0
 22 23  1  0
 22 24  2  0
 24 25  1  0
 25 26  2  0
 26 27  1  0
  8 28  1  0
 28 29  2  0
  4 30  1  0
 30 31  1  0
 30 32  2  0
 30 33  2  0
 29  5  1  0
 27 10  2  0
 19 11  1  0
 27 21  1  0
  1 34  1  0
  1 35  1  0
  1 36  1  0
  6 37  1  0
  7 38  1  0
  9 39  1  0
 12 40  1  0
 13 41  1  0
 18 42  1  0
 23 43  1  0
 23 44  1  0
 23 45  1  0
 24 46  1  0
 25 47  1  0
 26 48  1  0
 28 49  1  0
 29 50  1  0
 31 51  1  0
 31 52  1  0
 31 53  1  0
M  CHG  2  15   1  17  -1
M  END
>  <meeko>  (4) 
{"is_sidechain": [false], "free_energy": -7.524, "intermolecular_energy": -10.342, "internal_energy": -0.978}

$$$$
LIB_KCKKRVQCMJXYOT__M_PUB_ALL__e8__s20260927
     RDKit          3D

 53 56  0  0  0  0  0  0  0  0999 V2000
    1.1370  -14.0540   -4.8120 C   0  0  0  0  0  0  0  0  0  0  0  0
    2.1370  -14.1210   -3.6840 C   0  0  0  0  0  0  0  0  0  0  0  0
    1.9030  -14.8270   -2.7070 O   0  0  0  0  0  0  0  0  0  0  0  0
    3.3600  -13.3950   -3.8060 N   0  0  0  0  0  0  0  0  0  0  0  0
    4.3490  -13.9020   -4.7090 C   0  0  0  0  0  0  0  0  0  0  0  0
    4.6430  -13.1850   -5.8680 C   0  0  0  0  0  0  0  0  0  0  0  0
    5.6190  -13.6560   -6.7500 C   0  0  0  0  0  0  0  0  0  0  0  0
    6.3190  -14.8410   -6.4870 C   0  0  0  0  0  0  0  0  0  0  0  0
    7.2690  -15.3680   -7.3770 N   0  0  0  0  0  0  0  0  0  0  0  0
    8.4240  -14.7500   -7.9270 C   0  0  0  0  0  0  0  0  0  0  0  0
    9.6660  -14.8010   -7.2430 C   0  0  0  0  0  0  0  0  0  0  0  0
    9.8650  -15.4320   -5.9880 C   0  0  0  0  0  0  0  0  0  0  0  0
   11.1150  -15.4480   -5.3720 C   0  0  0  0  0  0  0  0  0  0  0  0
   12.1840  -14.8200   -6.0080 C   0  0  0  0  0  0  0  0  0  0  0  0
   13.5100  -14.8230   -5.3820 N   0  0  0  0  0  0  0  0  0  0  0  0
   14.3380  -15.6470   -5.7940 O   0  0  0  0  0  0  0  0  0  0  0  0
   13.7240  -14.0030   -4.4800 O   0  0  0  0  0  0  0  0  0  0  0  0
   12.0000  -14.1800   -7.2390 C   0  0  0  0  0  0  0  0  0  0  0  0
   10.7570  -14.1600   -7.8550 C   0  0  0  0  0  0  0  0  0  0  0  0
   10.6580  -13.5090   -9.0190 N   0  0  0  0  0  0  0  0  0  0  0  0
    9.4800  -13.4360   -9.6640 C   0  0  0  0  0  0  0  0  0  0  0  0
    9.4030  -12.7370  -10.8770 C   0  0  0  0  0  0  0  0  0  0  0  0
   10.6350  -12.0730  -11.4370 C   0  0  0  0  0  0  0  0  0  0  0  0
    8.1960  -12.6470  -11.5850 C   0  0  0  0  0  0  0  0  0  0  0  0
    7.0510  -13.2570  -11.0950 C   0  0  0  0  0  0  0  0  0  0  0  0
    7.1110  -13.9530   -9.8920 C   0  0  0  0  0  0  0  0  0  0  0  0
    8.3160  -14.0480   -9.1560 C   0  0  0  0  0  0  0  0  0  0  0  0
    6.0090  -15.5520   -5.3200 C   0  0  0  0  0  0  0  0  0  0  0  0
    5.0350  -15.0850   -4.4310 C   0  0  0  0  0  0  0  0  0  0  0  0
    3.4220  -11.7210   -3.5580 S   0  0  0  0  0  0  0  0  0  0  0  0
    2.3060  -11.4750   -2.1890 C   0  0  0  0  0  0  0  0  0  0  0  0
    4.7440  -11.3830   -3.0630 O   0  0  0  0  0  0  0  0  0  0  0  0
    2.8980  -11.0590   -4.7340 O   0  0  0  0  0  0  0  0  0  0  0  0
    0.1205  -13.9859   -4.3973 H   0  0  0  0  0  0  0  0  0  0  0  0
    1.3408  -13.1675   -5.4305 H   0  0  0  0  0  0  0  0  0  0  0  0
    1.2207  -14.9598   -5.4305 H   0  0  0  0  0  0  0  0  0  0  0  0
    4.1073  -12.2497   -6.0878 H   0  0  0  0  0  0  0  0  0  0  0  0
    5.8413  -13.0876   -7.6652 H   0  0  0  0  0  0  0  0  0  0  0  0
    7.1950  -16.3590   -7.5800 H   0  0  0  0  0  0  0  0  0  0  0  0
    9.0138  -15.9194   -5.4901 H   0  0  0  0  0  0  0  0  0  0  0  0
   11.2551  -15.9471   -4.4018 H   0  0  0  0  0  0  0  0  0  0  0  0
   12.8537  -13.6854   -7.7254 H   0  0  0  0  0  0  0  0  0  0  0  0
   11.2738  -11.7287  -10.6103 H   0  0  0  0  0  0  0  0  0  0  0  0
   11.1912  -12.7935  -12.0547 H   0  0  0  0  0  0  0  0  0  0  0  0
   10.3390  -11.2123  -12.0547 H   0  0  0  0  0  0  0  0  0  0  0  0
    8.1572  -12.0903  -12.5329 H   0  0  0  0  0  0  0  0  0  0  0  0
    6.1048  -13.1912  -11.6520 H   0  0  0  0  0  0  0  0  0  0  0  0
    6.2034  -14.4394   -9.5050 H   0  0  0  0  0  0  0  0  0  0  0  0
    6.5389  -16.4905   -5.0998 H   0  0  0  0  0  0  0  0  0  0  0  0
    4.8102  -15.6495   -3.5141 H   0  0  0  0  0  0  0  0  0  0  0  0
    2.8540  -11.5958   -1.2429 H   0  0  0  0  0  0  0  0  0  0  0  0
    1.8811  -10.4616   -2.2398 H   0  0  0  0  0  0  0  0  0  0  0  0
    1.4945  -12.2158   -2.2398 H   0  0  0  0  0  0  0  0  0  0  0  0
  1  2  1  0
  2  3  2  0
  2  4  1  0
  4  5  1  0
  5  6  2  0
  6  7  1  0
  7  8  2  0
  8  9  1  0
  9 10  1  0
 10 11  1  0
 11 12  2  0
 12 13  1  0
 13 14  2  0
 14 15  1  0
 15 16  2  0
 15 17  1  0
 14 18  1  0
 18 19  2  0
 19 20  1  0
 20 21  2  0
 21 22  1  0
 22 23  1  0
 22 24  2  0
 24 25  1  0
 25 26  2  0
 26 27  1  0
  8 28  1  0
 28 29  2  0
  4 30  1  0
 30 31  1  0
 30 32  2  0
 30 33  2  0
 29  5  1  0
 27 10  2  0
 19 11  1  0
 27 21  1  0
  1 34  1  0
  1 35  1  0
  1 36  1  0
  6 37  1  0
  7 38  1  0
  9 39  1  0
 12 40  1  0
 13 41  1  0
 18 42  1  0
 23 43  1  0
 23 44  1  0
 23 45  1  0
 24 46  1  0
 25 47  1  0
 26 48  1  0
 28 49  1  0
 29 50  1  0
 31 51  1  0
 31 52  1  0
 31 53  1  0
M  CHG  2  15   1  17  -1
M  END
>  <meeko>  (5) 
{"is_sidechain": [false], "free_energy": -7.403, "intermolecular_energy": -10.274, "internal_energy": -0.883}

$$$$
LIB_KCKKRVQCMJXYOT__M_PUB_ALL__e8__s20260927
     RDKit          3D

 53 56  0  0  0  0  0  0  0  0999 V2000
   13.1100  -11.4540   -1.2560 C   0  0  0  0  0  0  0  0  0  0  0  0
   12.5430  -11.8470   -2.5980 C   0  0  0  0  0  0  0  0  0  0  0  0
   12.8770  -11.2260   -3.6030 O   0  0  0  0  0  0  0  0  0  0  0  0
   11.6670  -12.9710   -2.6710 N   0  0  0  0  0  0  0  0  0  0  0  0
   10.2960  -12.7730   -2.3050 C   0  0  0  0  0  0  0  0  0  0  0  0
    9.8640  -13.1770   -1.0420 C   0  0  0  0  0  0  0  0  0  0  0  0
    8.5340  -12.9730   -0.6630 C   0  0  0  0  0  0  0  0  0  0  0  0
    7.6220  -12.3590   -1.5310 C   0  0  0  0  0  0  0  0  0  0  0  0
    6.2680  -12.1850   -1.1990 N   0  0  0  0  0  0  0  0  0  0  0  0
    5.1540  -13.0080   -1.5140 C   0  0  0  0  0  0  0  0  0  0  0  0
    4.9050  -14.1990   -0.7840 C   0  0  0  0  0  0  0  0  0  0  0  0
    5.7200  -14.6750    0.2760 C   0  0  0  0  0  0  0  0  0  0  0  0
    5.4140  -15.8530    0.9550 C   0  0  0  0  0  0  0  0  0  0  0  0
    4.2870  -16.5760    0.5700 C   0  0  0  0  0  0  0  0  0  0  0  0
    3.9440  -17.8190    1.2680 N   0  0  0  0  0  0  0  0  0  0  0  0
    2.7580  -17.9950    1.5790 O   0  0  0  0  0  0  0  0  0  0  0  0
    4.8580  -18.6190    1.5060 O   0  0  0  0  0  0  0  0  0  0  0  0
    3.4830  -16.1280   -0.4840 C   0  0  0  0  0  0  0  0  0  0  0  0
    3.7840  -14.9570   -1.1640 C   0  0  0  0  0  0  0  0  0  0  0  0
    2.9790  -14.6080   -2.1730 N   0  0  0  0  0  0  0  0  0  0  0  0
    3.2190  -13.4920   -2.8850 C   0  0  0  0  0  0  0  0  0  0  0  0
    2.3650  -13.1570   -3.9450 C   0  0  0  0  0  0  0  0  0  0  0  0
    1.1970  -14.0510   -4.2770 C   0  0  0  0  0  0  0  0  0  0  0  0
    2.5750  -11.9970   -4.7060 C   0  0  0  0  0  0  0  0  0  0  0  0
    3.6380  -11.1540   -4.4150 C   0  0  0  0  0  0  0  0  0  0  0  0
    4.4940  -11.4740   -3.3660 C   0  0  0  0  0  0  0  0  0  0  0  0
    4.3070  -12.6450   -2.5930 C   0  0  0  0  0  0  0  0  0  0  0  0
    8.0710  -11.9630   -2.7970 C   0  0  0  0  0  0  0  0  0  0  0  0
    9.4000  -12.1610   -3.1830 C   0  0  0  0  0  0  0  0  0  0  0  0
   11.9270  -14.2240   -3.7800 S   0  0  0  0  0  0  0  0  0  0  0  0
   13.6600  -14.5910   -3.5730 C   0  0  0  0  0  0  0  0  0  0  0  0
   11.2100  -15.3980   -3.3170 O   0  0  0  0  0  0  0  0  0  0  0  0
   11.6960  -13.7150   -5.1160 O   0  0  0  0  0  0  0  0  0  0  0  0
   12.4897  -11.8839   -0.4557 H   0  0  0  0  0  0  0  0  0  0  0  0
   14.1384  -11.8340   -1.1670 H   0  0  0  0  0  0  0  0  0  0  0  0
   13.1152  -10.3576   -1.1670 H   0  0  0  0  0  0  0  0  0  0  0  0
   10.5684  -13.6552   -0.3455 H   0  0  0  0  0  0  0  0  0  0  0  0
    8.1984  -13.2997    0.3323 H   0  0  0  0  0  0  0  0  0  0  0  0
    6.0560  -11.4320   -0.5530 H   0  0  0  0  0  0  0  0  0  0  0  0
    6.6123  -14.1018    0.5679 H   0  0  0  0  0  0  0  0  0  0  0  0
    6.0507  -16.2055    1.7799 H   0  0  0  0  0  0  0  0  0  0  0  0
    2.5991  -16.7131   -0.7777 H   0  0  0  0  0  0  0  0  0  0  0  0
    0.7317  -14.4072   -3.3461 H   0  0  0  0  0  0  0  0  0  0  0  0
    0.4577  -13.4858   -4.8636 H   0  0  0  0  0  0  0  0  0  0  0  0
    1.5495  -14.9122   -4.8636 H   0  0  0  0  0  0  0  0  0  0  0  0
    1.8948  -11.7551   -5.5359 H   0  0  0  0  0  0  0  0  0  0  0  0
    3.8022  -10.2420   -5.0077 H   0  0  0  0  0  0  0  0  0  0  0  0
    5.3337  -10.8030   -3.1324 H   0  0  0  0  0  0  0  0  0  0  0  0
    7.3678  -11.4893   -3.4978 H   0  0  0  0  0  0  0  0  0  0  0  0
    9.7391  -11.8349   -4.1773 H   0  0  0  0  0  0  0  0  0  0  0  0
   13.8985  -14.6415   -2.5004 H   0  0  0  0  0  0  0  0  0  0  0  0
   13.8891  -15.5576   -4.0455 H   0  0  0  0  0  0  0  0  0  0  0  0
   14.2612  -13.8003   -4.0455 H   0  0  0  0  0  0  0  0  0  0  0  0
  1  2  1  0
  2  3  2  0
  2  4  1  0
  4  5  1  0
  5  6  2  0
  6  7  1  0
  7  8  2  0
  8  9  1  0
  9 10  1  0
 10 11  1  0
 11 12  2  0
 12 13  1  0
 13 14  2  0
 14 15  1  0
 15 16  2  0
 15 17  1  0
 14 18  1  0
 18 19  2  0
 19 20  1  0
 20 21  2  0
 21 22  1  0
 22 23  1  0
 22 24  2  0
 24 25  1  0
 25 26  2  0
 26 27  1  0
  8 28  1  0
 28 29  2  0
  4 30  1  0
 30 31  1  0
 30 32  2  0
 30 33  2  0
 29  5  1  0
 27 10  2  0
 19 11  1  0
 27 21  1  0
  1 34  1  0
  1 35  1  0
  1 36  1  0
  6 37  1  0
  7 38  1  0
  9 39  1  0
 12 40  1  0
 13 41  1  0
 18 42  1  0
 23 43  1  0
 23 44  1  0
 23 45  1  0
 24 46  1  0
 25 47  1  0
 26 48  1  0
 28 49  1  0
 29 50  1  0
 31 51  1  0
 31 52  1  0
 31 53  1  0
M  CHG  2  15   1  17  -1
M  END
>  <meeko>  (6) 
{"is_sidechain": [false], "free_energy": -7.339, "intermolecular_energy": -9.922, "internal_energy": -1.149}

$$$$
LIB_KCKKRVQCMJXYOT__M_PUB_ALL__e8__s20260927
     RDKit          3D

 53 56  0  0  0  0  0  0  0  0999 V2000
    4.5500  -12.5920   -6.5960 C   0  0  0  0  0  0  0  0  0  0  0  0
    3.9730  -12.2870   -5.2350 C   0  0  0  0  0  0  0  0  0  0  0  0
    3.5220  -11.1690   -5.0040 O   0  0  0  0  0  0  0  0  0  0  0  0
    3.9210  -13.3300   -4.2620 N   0  0  0  0  0  0  0  0  0  0  0  0
    5.1260  -13.6400   -3.5510 C   0  0  0  0  0  0  0  0  0  0  0  0
    5.5180  -12.8250   -2.4900 C   0  0  0  0  0  0  0  0  0  0  0  0
    6.6800  -13.1250   -1.7740 C   0  0  0  0  0  0  0  0  0  0  0  0
    7.4620  -14.2410   -2.1010 C   0  0  0  0  0  0  0  0  0  0  0  0
    8.6620  -14.5410   -1.4350 N   0  0  0  0  0  0  0  0  0  0  0  0
    9.9500  -13.9660   -1.6030 C   0  0  0  0  0  0  0  0  0  0  0  0
   10.8150  -14.4200   -2.6330 C   0  0  0  0  0  0  0  0  0  0  0  0
   10.4990  -15.4590   -3.5450 C   0  0  0  0  0  0  0  0  0  0  0  0
   11.3960  -15.8520   -4.5370 C   0  0  0  0  0  0  0  0  0  0  0  0
   12.6300  -15.2100   -4.6190 C   0  0  0  0  0  0  0  0  0  0  0  0
   13.5910  -15.6050   -5.6540 N   0  0  0  0  0  0  0  0  0  0  0  0
   14.4750  -14.7930   -5.9570 O   0  0  0  0  0  0  0  0  0  0  0  0
   13.4620  -16.7270   -6.1630 O   0  0  0  0  0  0  0  0  0  0  0  0
   12.9610  -14.1940   -3.7160 C   0  0  0  0  0  0  0  0  0  0  0  0
   12.0730  -13.8000   -2.7260 C   0  0  0  0  0  0  0  0  0  0  0  0
   12.4730  -12.8380   -1.8890 N   0  0  0  0  0  0  0  0  0  0  0  0
   11.6690  -12.4170   -0.8960 C   0  0  0  0  0  0  0  0  0  0  0  0
   12.1190  -11.4140   -0.0260 C   0  0  0  0  0  0  0  0  0  0  0  0
   13.4960  -10.8270   -0.2080 C   0  0  0  0  0  0  0  0  0  0  0  0
   11.3070  -10.9400    1.0150 C   0  0  0  0  0  0  0  0  0  0  0  0
   10.0340  -11.4580    1.1990 C   0  0  0  0  0  0  0  0  0  0  0  0
    9.5730  -12.4540    0.3430 C   0  0  0  0  0  0  0  0  0  0  0  0
   10.3800  -12.9540   -0.7060 C   0  0  0  0  0  0  0  0  0  0  0  0
    7.0560  -15.0470   -3.1730 C   0  0  0  0  0  0  0  0  0  0  0  0
    5.8930  -14.7550   -3.8920 C   0  0  0  0  0  0  0  0  0  0  0  0
    2.4950  -13.6820   -3.4200 S   0  0  0  0  0  0  0  0  0  0  0  0
    1.3310  -14.0280   -4.7260 C   0  0  0  0  0  0  0  0  0  0  0  0
    2.6830  -14.9330   -2.7080 O   0  0  0  0  0  0  0  0  0  0  0  0
    2.0770  -12.4960   -2.7010 O   0  0  0  0  0  0  0  0  0  0  0  0
    5.5169  -13.1031   -6.4782 H   0  0  0  0  0  0  0  0  0  0  0  0
    3.8571  -13.2416   -7.1508 H   0  0  0  0  0  0  0  0  0  0  0  0
    4.6965  -11.6536   -7.1508 H   0  0  0  0  0  0  0  0  0  0  0  0
    4.9137  -11.9474   -2.2169 H   0  0  0  0  0  0  0  0  0  0  0  0
    6.9856  -12.4751   -0.9408 H   0  0  0  0  0  0  0  0  0  0  0  0
    8.5920  -15.1760   -0.6470 H   0  0  0  0  0  0  0  0  0  0  0  0
    9.5256  -15.9654   -3.4680 H   0  0  0  0  0  0  0  0  0  0  0  0
   11.1344  -16.6545   -5.2424 H   0  0  0  0  0  0  0  0  0  0  0  0
   13.9408  -13.6999   -3.7923 H   0  0  0  0  0  0  0  0  0  0  0  0
   13.9460  -10.6352    0.7773 H   0  0  0  0  0  0  0  0  0  0  0  0
   14.1255  -11.5350   -0.7670 H   0  0  0  0  0  0  0  0  0  0  0  0
   13.4211   -9.8826   -0.7670 H   0  0  0  0  0  0  0  0  0  0  0  0
   11.6815  -10.1545    1.6878 H   0  0  0  0  0  0  0  0  0  0  0  0
    9.3950  -11.0856    2.0132 H   0  0  0  0  0  0  0  0  0  0  0  0
    8.5608  -12.8606    0.4850 H   0  0  0  0  0  0  0  0  0  0  0  0
    7.6610  -15.9220   -3.4528 H   0  0  0  0  0  0  0  0  0  0  0  0
    5.5830  -15.4030   -4.7251 H   0  0  0  0  0  0  0  0  0  0  0  0
    0.3637  -14.3155   -4.2883 H   0  0  0  0  0  0  0  0  0  0  0  0
    1.1998  -13.1300   -5.3476 H   0  0  0  0  0  0  0  0  0  0  0  0
    1.7116  -14.8519   -5.3476 H   0  0  0  0  0  0  0  0  0  0  0  0
  1  2  1  0
  2  3  2  0
  2  4  1  0
  4  5  1  0
  5  6  2  0
  6  7  1  0
  7  8  2  0
  8  9  1  0
  9 10  1  0
 10 11  1  0
 11 12  2  0
 12 13  1  0
 13 14  2  0
 14 15  1  0
 15 16  2  0
 15 17  1  0
 14 18  1  0
 18 19  2  0
 19 20  1  0
 20 21  2  0
 21 22  1  0
 22 23  1  0
 22 24  2  0
 24 25  1  0
 25 26  2  0
 26 27  1  0
  8 28  1  0
 28 29  2  0
  4 30  1  0
 30 31  1  0
 30 32  2  0
 30 33  2  0
 29  5  1  0
 27 10  2  0
 19 11  1  0
 27 21  1  0
  1 34  1  0
  1 35  1  0
  1 36  1  0
  6 37  1  0
  7 38  1  0
  9 39  1  0
 12 40  1  0
 13 41  1  0
 18 42  1  0
 23 43  1  0
 23 44  1  0
 23 45  1  0
 24 46  1  0
 25 47  1  0
 26 48  1  0
 28 49  1  0
 29 50  1  0
 31 51  1  0
 31 52  1  0
 31 53  1  0
M  CHG  2  15   1  17  -1
M  END
>  <meeko>  (7) 
{"is_sidechain": [false], "free_energy": -7.334, "intermolecular_energy": -9.896, "internal_energy": -1.167}

$$$$
LIB_KCKKRVQCMJXYOT__M_PUB_ALL__e8__s20260927
     RDKit          3D

 53 56  0  0  0  0  0  0  0  0999 V2000
   12.4980  -11.5660   -0.1450 C   0  0  0  0  0  0  0  0  0  0  0  0
   11.6540  -12.8150   -0.2150 C   0  0  0  0  0  0  0  0  0  0  0  0
   11.8860  -13.7480    0.5490 O   0  0  0  0  0  0  0  0  0  0  0  0
   10.5670  -12.8580   -1.1390 N   0  0  0  0  0  0  0  0  0  0  0  0
   10.7820  -13.5240   -2.3900 C   0  0  0  0  0  0  0  0  0  0  0  0
   11.4260  -12.8410   -3.4210 C   0  0  0  0  0  0  0  0  0  0  0  0
   11.6600  -13.4830   -4.6400 C   0  0  0  0  0  0  0  0  0  0  0  0
   11.2640  -14.8110   -4.8460 C   0  0  0  0  0  0  0  0  0  0  0  0
   11.4390  -15.4670   -6.0760 N   0  0  0  0  0  0  0  0  0  0  0  0
   11.6720  -14.9140   -7.3630 C   0  0  0  0  0  0  0  0  0  0  0  0
   10.5980  -14.3900   -8.1300 C   0  0  0  0  0  0  0  0  0  0  0  0
    9.2430  -14.3840   -7.7120 C   0  0  0  0  0  0  0  0  0  0  0  0
    8.2370  -13.8480   -8.5150 C   0  0  0  0  0  0  0  0  0  0  0  0
    8.5810  -13.3190   -9.7570 C   0  0  0  0  0  0  0  0  0  0  0  0
    7.5420  -12.7500  -10.6210 N   0  0  0  0  0  0  0  0  0  0  0  0
    7.3340  -11.5310  -10.5440 O   0  0  0  0  0  0  0  0  0  0  0  0
    6.9330  -13.5190  -11.3770 O   0  0  0  0  0  0  0  0  0  0  0  0
    9.9120  -13.3330  -10.1890 C   0  0  0  0  0  0  0  0  0  0  0  0
   10.9160  -13.8660   -9.3950 C   0  0  0  0  0  0  0  0  0  0  0  0
   12.1580  -13.8620   -9.8890 N   0  0  0  0  0  0  0  0  0  0  0  0
   13.1790  -14.3760   -9.1790 C   0  0  0  0  0  0  0  0  0  0  0  0
   14.4690  -14.3690   -9.7270 C   0  0  0  0  0  0  0  0  0  0  0  0
   14.6950  -13.7930  -11.1020 C   0  0  0  0  0  0  0  0  0  0  0  0
   15.5610  -14.8860   -9.0140 C   0  0  0  0  0  0  0  0  0  0  0  0
   15.3810  -15.4130   -7.7440 C   0  0  0  0  0  0  0  0  0  0  0  0
   14.1050  -15.4280   -7.1880 C   0  0  0  0  0  0  0  0  0  0  0  0
   12.9880  -14.9210   -7.8930 C   0  0  0  0  0  0  0  0  0  0  0  0
   10.6140  -15.4810   -3.8010 C   0  0  0  0  0  0  0  0  0  0  0  0
   10.3780  -14.8470   -2.5770 C   0  0  0  0  0  0  0  0  0  0  0  0
    8.9580  -12.8480   -0.6120 S   0  0  0  0  0  0  0  0  0  0  0  0
    9.0070  -11.7720    0.8090 C   0  0  0  0  0  0  0  0  0  0  0  0
    8.1570  -12.1610   -1.6090 O   0  0  0  0  0  0  0  0  0  0  0  0
    8.5990  -14.1870   -0.1940 O   0  0  0  0  0  0  0  0  0  0  0  0
   12.6761  -11.3024    0.9080 H   0  0  0  0  0  0  0  0  0  0  0  0
   13.4607  -11.7455   -0.6460 H   0  0  0  0  0  0  0  0  0  0  0  0
   11.9724  -10.7397   -0.6460 H   0  0  0  0  0  0  0  0  0  0  0  0
   11.7490  -11.7996   -3.2752 H   0  0  0  0  0  0  0  0  0  0  0  0
   12.1634  -12.9366   -5.4512 H   0  0  0  0  0  0  0  0  0  0  0  0
   11.5220  -16.4770   -6.0390 H   0  0  0  0  0  0  0  0  0  0  0  0
    8.9799  -14.8114   -6.7332 H   0  0  0  0  0  0  0  0  0  0  0  0
    7.1912  -13.8429   -8.1741 H   0  0  0  0  0  0  0  0  0  0  0  0
   10.1657  -12.9145  -11.1741 H   0  0  0  0  0  0  0  0  0  0  0  0
   15.0954  -12.7725  -11.0108 H   0  0  0  0  0  0  0  0  0  0  0  0
   15.4133  -14.4212  -11.6492 H   0  0  0  0  0  0  0  0  0  0  0  0
   13.7411  -13.7651  -11.6492 H   0  0  0  0  0  0  0  0  0  0  0  0
   16.5645  -14.8733   -9.4644 H   0  0  0  0  0  0  0  0  0  0  0  0
   16.2371  -15.8147   -7.1822 H   0  0  0  0  0  0  0  0  0  0  0  0
   13.9621  -15.8428   -6.1793 H   0  0  0  0  0  0  0  0  0  0  0  0
   10.2846  -16.5205   -3.9455 H   0  0  0  0  0  0  0  0  0  0  0  0
    9.8750  -15.3898   -1.7632 H   0  0  0  0  0  0  0  0  0  0  0  0
    8.9795  -12.3764    1.7277 H   0  0  0  0  0  0  0  0  0  0  0  0
    9.9331  -11.1788    0.7880 H   0  0  0  0  0  0  0  0  0  0  0  0
    8.1387  -11.0971    0.7880 H   0  0  0  0  0  0  0  0  0  0  0  0
  1  2  1  0
  2  3  2  0
  2  4  1  0
  4  5  1  0
  5  6  2  0
  6  7  1  0
  7  8  2  0
  8  9  1  0
  9 10  1  0
 10 11  1  0
 11 12  2  0
 12 13  1  0
 13 14  2  0
 14 15  1  0
 15 16  2  0
 15 17  1  0
 14 18  1  0
 18 19  2  0
 19 20  1  0
 20 21  2  0
 21 22  1  0
 22 23  1  0
 22 24  2  0
 24 25  1  0
 25 26  2  0
 26 27  1  0
  8 28  1  0
 28 29  2  0
  4 30  1  0
 30 31  1  0
 30 32  2  0
 30 33  2  0
 29  5  1  0
 27 10  2  0
 19 11  1  0
 27 21  1  0
  1 34  1  0
  1 35  1  0
  1 36  1  0
  6 37  1  0
  7 38  1  0
  9 39  1  0
 12 40  1  0
 13 41  1  0
 18 42  1  0
 23 43  1  0
 23 44  1  0
 23 45  1  0
 24 46  1  0
 25 47  1  0
 26 48  1  0
 28 49  1  0
 29 50  1  0
 31 51  1  0
 31 52  1  0
 31 53  1  0
M  CHG  2  15   1  17  -1
M  END
>  <meeko>  (8) 
{"is_sidechain": [false], "free_energy": -7.322, "intermolecular_energy": -9.989, "internal_energy": -1.058}

$$$$
LIB_KCKKRVQCMJXYOT__M_PUB_ALL__e8__s20260927
     RDKit          3D

 53 56  0  0  0  0  0  0  0  0999 V2000
    7.4450  -10.4140    0.9030 C   0  0  0  0  0  0  0  0  0  0  0  0
    7.9910  -11.7920    0.6180 C   0  0  0  0  0  0  0  0  0  0  0  0
    8.9260  -12.2250    1.2850 O   0  0  0  0  0  0  0  0  0  0  0  0
    7.3670  -12.5820   -0.3950 N   0  0  0  0  0  0  0  0  0  0  0  0
    6.0160  -13.0040   -0.1740 C   0  0  0  0  0  0  0  0  0  0  0  0
    5.7750  -14.1230    0.6220 C   0  0  0  0  0  0  0  0  0  0  0  0
    4.4620  -14.5360    0.8630 C   0  0  0  0  0  0  0  0  0  0  0  0
    3.3740  -13.8370    0.3220 C   0  0  0  0  0  0  0  0  0  0  0  0
    2.0460  -14.2560    0.5040 N   0  0  0  0  0  0  0  0  0  0  0  0
    1.1700  -14.0160    1.5960 C   0  0  0  0  0  0  0  0  0  0  0  0
    0.4300  -12.8070    1.6760 C   0  0  0  0  0  0  0  0  0  0  0  0
    0.5030  -11.7570    0.7250 C   0  0  0  0  0  0  0  0  0  0  0  0
   -0.2570  -10.5970    0.8640 C   0  0  0  0  0  0  0  0  0  0  0  0
   -1.0940  -10.4710    1.9700 C   0  0  0  0  0  0  0  0  0  0  0  0
   -1.9040   -9.2610    2.1390 N   0  0  0  0  0  0  0  0  0  0  0  0
   -2.7790   -9.0300    1.2930 O   0  0  0  0  0  0  0  0  0  0  0  0
   -1.6660   -8.5390    3.1180 O   0  0  0  0  0  0  0  0  0  0  0  0
   -1.1640  -11.4920    2.9250 C   0  0  0  0  0  0  0  0  0  0  0  0
   -0.4100  -12.6480    2.7920 C   0  0  0  0  0  0  0  0  0  0  0  0
   -0.5170  -13.5660    3.7580 N   0  0  0  0  0  0  0  0  0  0  0  0
    0.1970  -14.7050    3.7020 C   0  0  0  0  0  0  0  0  0  0  0  0
    0.0740  -15.6450    4.7350 C   0  0  0  0  0  0  0  0  0  0  0  0
   -0.8480  -15.3660    5.8950 C   0  0  0  0  0  0  0  0  0  0  0  0
    0.7930  -16.8490    4.7080 C   0  0  0  0  0  0  0  0  0  0  0  0
    1.6410  -17.1330    3.6480 C   0  0  0  0  0  0  0  0  0  0  0  0
    1.7740  -16.2090    2.6150 C   0  0  0  0  0  0  0  0  0  0  0  0
    1.0660  -14.9840    2.6280 C   0  0  0  0  0  0  0  0  0  0  0  0
    3.6340  -12.7170   -0.4780 C   0  0  0  0  0  0  0  0  0  0  0  0
    4.9450  -12.2960   -0.7220 C   0  0  0  0  0  0  0  0  0  0  0  0
    7.8030  -12.4330   -2.0240 S   0  0  0  0  0  0  0  0  0  0  0  0
    9.5770  -12.6130   -1.9850 C   0  0  0  0  0  0  0  0  0  0  0  0
    7.2980  -13.5920   -2.7380 O   0  0  0  0  0  0  0  0  0  0  0  0
    7.4620  -11.1000   -2.4750 O   0  0  0  0  0  0  0  0  0  0  0  0
    7.3845  -10.2613    1.9907 H   0  0  0  0  0  0  0  0  0  0  0  0
    8.1113   -9.6574    0.4630 H   0  0  0  0  0  0  0  0  0  0  0  0
    6.4413  -10.3191    0.4630 H   0  0  0  0  0  0  0  0  0  0  0  0
    6.6169  -14.6797    1.0595 H   0  0  0  0  0  0  0  0  0  0  0  0
    4.2793  -15.4234    1.4869 H   0  0  0  0  0  0  0  0  0  0  0  0
    1.6000  -14.6980   -0.2930 H   0  0  0  0  0  0  0  0  0  0  0  0
    1.1738  -11.8605   -0.1407 H   0  0  0  0  0  0  0  0  0  0  0  0
   -0.1968   -9.7951    0.1134 H   0  0  0  0  0  0  0  0  0  0  0  0
   -1.8275  -11.3754    3.7946 H   0  0  0  0  0  0  0  0  0  0  0  0
   -0.3085  -15.5292    6.8396 H   0  0  0  0  0  0  0  0  0  0  0  0
   -1.1939  -14.3230    5.8458 H   0  0  0  0  0  0  0  0  0  0  0  0
   -1.7142  -16.0423    5.8458 H   0  0  0  0  0  0  0  0  0  0  0  0
    0.6838  -17.5708    5.5308 H   0  0  0  0  0  0  0  0  0  0  0  0
    2.2027  -18.0785    3.6236 H   0  0  0  0  0  0  0  0  0  0  0  0
    2.4430  -16.4359    1.7718 H   0  0  0  0  0  0  0  0  0  0  0  0
    2.7948  -12.1605   -0.9207 H   0  0  0  0  0  0  0  0  0  0  0  0
    5.1319  -11.4086   -1.3446 H   0  0  0  0  0  0  0  0  0  0  0  0
    9.9191  -12.6477   -0.9401 H   0  0  0  0  0  0  0  0  0  0  0  0
    9.8623  -13.5447   -2.4954 H   0  0  0  0  0  0  0  0  0  0  0  0
   10.0437  -11.7576   -2.4954 H   0  0  0  0  0  0  0  0  0  0  0  0
  1  2  1  0
  2  3  2  0
  2  4  1  0
  4  5  1  0
  5  6  2  0
  6  7  1  0
  7  8  2  0
  8  9  1  0
  9 10  1  0
 10 11  1  0
 11 12  2  0
 12 13  1  0
 13 14  2  0
 14 15  1  0
 15 16  2  0
 15 17  1  0
 14 18  1  0
 18 19  2  0
 19 20  1  0
 20 21  2  0
 21 22  1  0
 22 23  1  0
 22 24  2  0
 24 25  1  0
 25 26  2  0
 26 27  1  0
  8 28  1  0
 28 29  2  0
  4 30  1  0
 30 31  1  0
 30 32  2  0
 30 33  2  0
 29  5  1  0
 27 10  2  0
 19 11  1  0
 27 21  1  0
  1 34  1  0
  1 35  1  0
  1 36  1  0
  6 37  1  0
  7 38  1  0
  9 39  1  0
 12 40  1  0
 13 41  1  0
 18 42  1  0
 23 43  1  0
 23 44  1  0
 23 45  1  0
 24 46  1  0
 25 47  1  0
 26 48  1  0
 28 49  1  0
 29 50  1  0
 31 51  1  0
 31 52  1  0
 31 53  1  0
M  CHG  2  15   1  17  -1
M  END
>  <meeko>  (9) 
{"is_sidechain": [false], "free_energy": -7.242, "intermolecular_energy": -9.896, "internal_energy": -1.044}

$$$$
