LIB_HAGKOYTUAINBNR__M_PUB_ALL__e8__s20260927
     RDKit          3D

 34 34  0  0  0  0  0  0  0  0999 V2000
   10.1160   -9.2230  -11.5350 C   0  0  0  0  0  0  0  0  0  0  0  0
   11.2810   -8.3660  -11.1180 C   0  0  0  0  0  0  0  0  0  0  0  0
   11.9250   -8.6200  -10.1000 O   0  0  0  0  0  0  0  0  0  0  0  0
   11.6130   -7.1970  -12.0240 C   0  0  0  0  0  0  0  0  0  0  0  0
   11.5970   -5.8680  -11.2720 C   0  0  0  0  0  0  0  0  0  0  0  0
   12.1160   -4.7510  -12.1340 C   0  0  0  0  0  0  0  0  0  0  0  0
   11.3870   -3.7380  -12.6250 C   0  0  0  0  0  0  0  0  0  0  0  0
    9.9390   -3.4490  -12.4940 C   0  0  0  0  0  0  0  0  0  0  0  0
    9.7130   -2.5930  -13.7260 C   0  0  1  0  0  0  0  0  0  0  0  0
    8.6540   -1.5460  -13.5240 C   0  0  0  0  0  0  0  0  0  0  0  0
    7.3170   -1.7180  -13.5330 C   0  0  0  0  0  0  0  0  0  0  0  0
    6.3900   -0.5450  -13.3500 C   0  0  0  0  0  0  0  0  0  0  0  0
    6.6170   -3.0380  -13.7090 C   0  0  0  0  0  0  0  0  0  0  0  0
   10.9610   -1.9280  -13.9750 O   0  0  0  0  0  0  0  0  0  0  0  0
   11.9800   -2.6740  -13.4700 C   0  0  0  0  0  0  0  0  0  0  0  0
   13.1660   -2.4800  -13.6570 O   0  0  0  0  0  0  0  0  0  0  0  0
    9.6008   -9.6020  -10.6401 H   0  0  0  0  0  0  0  0  0  0  0  0
    9.4157   -8.6232  -12.1348 H   0  0  0  0  0  0  0  0  0  0  0  0
   10.4801  -10.0701  -12.1348 H   0  0  0  0  0  0  0  0  0  0  0  0
   12.6151   -7.3517  -12.4506 H   0  0  0  0  0  0  0  0  0  0  0  0
   10.8477   -7.1504  -12.8128 H   0  0  0  0  0  0  0  0  0  0  0  0
   10.5644   -5.6386  -10.9702 H   0  0  0  0  0  0  0  0  0  0  0  0
   12.2472   -5.9586  -10.3894 H   0  0  0  0  0  0  0  0  0  0  0  0
   13.1872   -4.7658  -12.3838 H   0  0  0  0  0  0  0  0  0  0  0  0
    9.3373   -4.3694  -12.5235 H   0  0  0  0  0  0  0  0  0  0  0  0
    9.6518   -2.9710  -11.5458 H   0  0  0  0  0  0  0  0  0  0  0  0
    9.3766   -3.2322  -14.5556 H   0  0  0  0  0  0  0  0  0  0  0  0
    9.0112   -0.5205  -13.3485 H   0  0  0  0  0  0  0  0  0  0  0  0
    6.2425   -0.3583  -12.2760 H   0  0  0  0  0  0  0  0  0  0  0  0
    6.8299    0.3469  -13.8202 H   0  0  0  0  0  0  0  0  0  0  0  0
    5.4206   -0.7669  -13.8202 H   0  0  0  0  0  0  0  0  0  0  0  0
    6.3896   -3.4669  -12.7219 H   0  0  0  0  0  0  0  0  0  0  0  0
    5.6813   -2.8853  -14.2669 H   0  0  0  0  0  0  0  0  0  0  0  0
    7.2683   -3.7269  -14.2669 H   0  0  0  0  0  0  0  0  0  0  0  0
  1  2  1  0
  2  3  2  0
  2  4  1  0
  4  5  1  0
  5  6  1  0
  6  7  2  0
  7  8  1  0
  8  9  1  0
  9 10  1  0
 10 11  2  3
 11 12  1  0
 11 13  1  0
  9 14  1  0
 14 15  1  0
 15 16  2  0
 15  7  1  0
  1 17  1  0
  1 18  1  0
  1 19  1  0
  4 20  1  0
  4 21  1  0
  5 22  1  0
  5 23  1  0
  6 24  1  0
  8 25  1  0
  8 26  1  0
  9 27  1  6
 10 28  1  0
 12 29  1  0
 12 30  1  0
 12 31  1  0
 13 32  1  0
 13 33  1  0
 13 34  1  0
M  END
>  <meeko>  (1) 
{"is_sidechain": [false], "free_energy": -6.819, "intermolecular_energy": -8.414, "internal_energy": -0.342}

$$$$
LIB_HAGKOYTUAINBNR__M_PUB_ALL__e8__s20260927
     RDKit          3D

 34 34  0  0  0  0  0  0  0  0999 V2000
   12.1350   -6.9250  -13.6410 C   0  0  0  0  0  0  0  0  0  0  0  0
   12.1980   -5.9520  -12.4930 C   0  0  0  0  0  0  0  0  0  0  0  0
   11.2970   -5.8960  -11.6570 O   0  0  0  0  0  0  0  0  0  0  0  0
   13.4290   -5.0690  -12.4280 C   0  0  0  0  0  0  0  0  0  0  0  0
   13.3780   -3.9410  -13.4560 C   0  0  0  0  0  0  0  0  0  0  0  0
   12.7030   -2.7230  -12.8910 C   0  0  0  0  0  0  0  0  0  0  0  0
   11.3880   -2.4610  -12.9480 C   0  0  0  0  0  0  0  0  0  0  0  0
   10.2830   -3.2330  -13.5650 C   0  0  0  0  0  0  0  0  0  0  0  0
    9.2670   -2.1300  -13.7940 C   0  0  1  0  0  0  0  0  0  0  0  0
    7.8480   -2.6090  -13.6730 C   0  0  0  0  0  0  0  0  0  0  0  0
    6.7200   -1.8880  -13.8390 C   0  0  0  0  0  0  0  0  0  0  0  0
    5.3680   -2.5210  -13.6430 C   0  0  0  0  0  0  0  0  0  0  0  0
    6.6740   -0.4360  -14.2300 C   0  0  0  0  0  0  0  0  0  0  0  0
    9.5030   -1.1590  -12.7640 O   0  0  0  0  0  0  0  0  0  0  0  0
   10.8010   -1.2320  -12.3630 C   0  0  0  0  0  0  0  0  0  0  0  0
   11.3660   -0.4420  -11.6300 O   0  0  0  0  0  0  0  0  0  0  0  0
   12.0686   -7.9507  -13.2491 H   0  0  0  0  0  0  0  0  0  0  0  0
   11.2489   -6.7094  -14.2562 H   0  0  0  0  0  0  0  0  0  0  0  0
   13.0415   -6.8255  -14.2562 H   0  0  0  0  0  0  0  0  0  0  0  0
   13.4985   -4.6298  -11.4219 H   0  0  0  0  0  0  0  0  0  0  0  0
   14.3071   -5.6928  -12.6510 H   0  0  0  0  0  0  0  0  0  0  0  0
   14.4043   -3.6781  -13.7518 H   0  0  0  0  0  0  0  0  0  0  0  0
   12.8012   -4.2876  -14.3261 H   0  0  0  0  0  0  0  0  0  0  0  0
   13.3417   -1.9825  -12.3874 H   0  0  0  0  0  0  0  0  0  0  0  0
   10.5937   -3.7012  -14.5106 H   0  0  0  0  0  0  0  0  0  0  0  0
    9.9169   -4.0736  -12.9573 H   0  0  0  0  0  0  0  0  0  0  0  0
    9.3853   -1.7335  -14.8132 H   0  0  0  0  0  0  0  0  0  0  0  0
    7.7133   -3.6709  -13.4196 H   0  0  0  0  0  0  0  0  0  0  0  0
    5.1610   -2.6179  -12.5670 H   0  0  0  0  0  0  0  0  0  0  0  0
    4.5968   -1.8904  -14.1094 H   0  0  0  0  0  0  0  0  0  0  0  0
    5.3585   -3.5172  -14.1094 H   0  0  0  0  0  0  0  0  0  0  0  0
    6.6543    0.1873  -13.3238 H   0  0  0  0  0  0  0  0  0  0  0  0
    7.5648   -0.1884  -14.8260 H   0  0  0  0  0  0  0  0  0  0  0  0
    5.7694   -0.2453  -14.8260 H   0  0  0  0  0  0  0  0  0  0  0  0
  1  2  1  0
  2  3  2  0
  2  4  1  0
  4  5  1  0
  5  6  1  0
  6  7  2  0
  7  8  1  0
  8  9  1  0
  9 10  1  0
 10 11  2  3
 11 12  1  0
 11 13  1  0
  9 14  1  0
 14 15  1  0
 15 16  2  0
 15  7  1  0
  1 17  1  0
  1 18  1  0
  1 19  1  0
  4 20  1  0
  4 21  1  0
  5 22  1  0
  5 23  1  0
  6 24  1  0
  8 25  1  0
  8 26  1  0
  9 27  1  6
 10 28  1  0
 12 29  1  0
 12 30  1  0
 12 31  1  0
 13 32  1  0
 13 33  1  0
 13 34  1  0
M  END
>  <meeko>  (2) 
{"is_sidechain": [false], "free_energy": -6.528, "intermolecular_energy": -7.996, "internal_energy": -0.4}

$$$$
LIB_HAGKOYTUAINBNR__M_PUB_ALL__e8__s20260927
     RDKit          3D

 34 34  0  0  0  0  0  0  0  0999 V2000
  -15.5840  -16.9870   -6.3410 C   0  0  0  0  0  0  0  0  0  0  0  0
  -14.1400  -17.0780   -5.9250 C   0  0  0  0  0  0  0  0  0  0  0  0
  -13.8210  -17.5380   -4.8290 O   0  0  0  0  0  0  0  0  0  0  0  0
  -13.1190  -16.5860   -6.9320 C   0  0  0  0  0  0  0  0  0  0  0  0
  -12.0590  -15.6970   -6.2850 C   0  0  0  0  0  0  0  0  0  0  0  0
  -10.6760  -16.1190   -6.6940 C   0  0  0  0  0  0  0  0  0  0  0  0
  -10.0390  -15.7340   -7.8110 C   0  0  0  0  0  0  0  0  0  0  0  0
  -10.4890  -14.8540   -8.9150 C   0  0  0  0  0  0  0  0  0  0  0  0
   -9.5980  -15.3430  -10.0410 C   0  0  1  0  0  0  0  0  0  0  0  0
   -9.2320  -14.2540  -11.0100 C   0  0  0  0  0  0  0  0  0  0  0  0
   -9.5090  -14.1990  -12.3280 C   0  0  0  0  0  0  0  0  0  0  0  0
   -9.0310  -13.0430  -13.1670 C   0  0  0  0  0  0  0  0  0  0  0  0
  -10.2980  -15.2320  -13.0880 C   0  0  0  0  0  0  0  0  0  0  0  0
   -8.3940  -15.8090   -9.4140 O   0  0  0  0  0  0  0  0  0  0  0  0
   -8.6700  -16.1980   -8.1400 C   0  0  0  0  0  0  0  0  0  0  0  0
   -7.9130  -16.7940   -7.3960 O   0  0  0  0  0  0  0  0  0  0  0  0
  -16.2217  -16.9468   -5.4456 H   0  0  0  0  0  0  0  0  0  0  0  0
  -15.7362  -16.0775   -6.9407 H   0  0  0  0  0  0  0  0  0  0  0  0
  -15.8492  -17.8702   -6.9407 H   0  0  0  0  0  0  0  0  0  0  0  0
  -12.6230  -17.4553   -7.3883 H   0  0  0  0  0  0  0  0  0  0  0  0
  -13.6487  -15.9876   -7.6879 H   0  0  0  0  0  0  0  0  0  0  0  0
  -12.2240  -14.6554   -6.5978 H   0  0  0  0  0  0  0  0  0  0  0  0
  -12.1440  -15.7906   -5.1923 H   0  0  0  0  0  0  0  0  0  0  0  0
  -10.1392  -16.8025   -6.0197 H   0  0  0  0  0  0  0  0  0  0  0  0
  -11.5540  -15.0045   -9.1456 H   0  0  0  0  0  0  0  0  0  0  0  0
  -10.4102  -13.7774   -8.7035 H   0  0  0  0  0  0  0  0  0  0  0  0
  -10.1288  -16.1175  -10.6141 H   0  0  0  0  0  0  0  0  0  0  0  0
   -8.6728  -13.4024  -10.5952 H   0  0  0  0  0  0  0  0  0  0  0  0
   -8.6939  -12.2278  -12.5099 H   0  0  0  0  0  0  0  0  0  0  0  0
   -8.1950  -13.3717  -13.8019 H   0  0  0  0  0  0  0  0  0  0  0  0
   -9.8550  -12.6853  -13.8019 H   0  0  0  0  0  0  0  0  0  0  0  0
  -10.8079  -15.8995  -12.3778 H   0  0  0  0  0  0  0  0  0  0  0  0
  -11.0450  -14.7304  -13.7207 H   0  0  0  0  0  0  0  0  0  0  0  0
   -9.6175  -15.8207  -13.7207 H   0  0  0  0  0  0  0  0  0  0  0  0
  1  2  1  0
  2  3  2  0
  2  4  1  0
  4  5  1  0
  5  6  1  0
  6  7  2  0
  7  8  1  0
  8  9  1  0
  9 10  1  0
 10 11  2  3
 11 12  1  0
 11 13  1  0
  9 14  1  0
 14 15  1  0
 15 16  2  0
 15  7  1  0
  1 17  1  0
  1 18  1  0
  1 19  1  0
  4 20  1  0
  4 21  1  0
  5 22  1  0
  5 23  1  0
  6 24  1  0
  8 25  1  0
  8 26  1  0
  9 27  1  6
 10 28  1  0
 12 29  1  0
 12 30  1  0
 12 31  1  0
 13 32  1  0
 13 33  1  0
 13 34  1  0
M  END
>  <meeko>  (3) 
{"is_sidechain": [false], "free_energy": -5.993, "intermolecular_energy": -7.357, "internal_energy": -0.38}

$$$$
LIB_HAGKOYTUAINBNR__M_PUB_ALL__e8__s20260927
     RDKit          3D

 34 34  0  0  0  0  0  0  0  0999 V2000
   13.8310  -11.9810   11.7250 C   0  0  0  0  0  0  0  0  0  0  0  0
   14.6000  -10.7590   12.1520 C   0  0  0  0  0  0  0  0  0  0  0  0
   15.8100  -10.8130   12.3700 O   0  0  0  0  0  0  0  0  0  0  0  0
   13.8030   -9.4750   12.2820 C   0  0  0  0  0  0  0  0  0  0  0  0
   13.9530   -8.5820   11.0530 C   0  0  0  0  0  0  0  0  0  0  0  0
   14.4690   -7.2220   11.4300 C   0  0  0  0  0  0  0  0  0  0  0  0
   15.7580   -6.8970   11.6100 C   0  0  0  0  0  0  0  0  0  0  0  0
   16.9790   -7.7340   11.5180 C   0  0  0  0  0  0  0  0  0  0  0  0
   17.9260   -6.9410   12.3980 C   0  0  1  0  0  0  0  0  0  0  0  0
   19.3570   -7.0320   11.9470 C   0  0  0  0  0  0  0  0  0  0  0  0
   19.8340   -6.8920   10.6940 C   0  0  0  0  0  0  0  0  0  0  0  0
   21.3040   -7.0520   10.4090 C   0  0  0  0  0  0  0  0  0  0  0  0
   19.0000   -6.5660    9.4840 C   0  0  0  0  0  0  0  0  0  0  0  0
   17.5080   -5.5720   12.2920 O   0  0  0  0  0  0  0  0  0  0  0  0
   16.1840   -5.5270   11.9830 C   0  0  0  0  0  0  0  0  0  0  0  0
   15.4850   -4.5310   11.9850 O   0  0  0  0  0  0  0  0  0  0  0  0
   13.4871  -12.5275   12.6155 H   0  0  0  0  0  0  0  0  0  0  0  0
   12.9619  -11.6758   11.1238 H   0  0  0  0  0  0  0  0  0  0  0  0
   14.4822  -12.6325   11.1238 H   0  0  0  0  0  0  0  0  0  0  0  0
   12.7401   -9.7281   12.4095 H   0  0  0  0  0  0  0  0  0  0  0  0
   14.1877   -8.9229   13.1522 H   0  0  0  0  0  0  0  0  0  0  0  0
   14.6584   -9.0519   10.3519 H   0  0  0  0  0  0  0  0  0  0  0  0
   12.9642   -8.4626   10.5861 H   0  0  0  0  0  0  0  0  0  0  0  0
   13.7253   -6.4238   11.5706 H   0  0  0  0  0  0  0  0  0  0  0  0
   16.8083   -8.7459   11.9141 H   0  0  0  0  0  0  0  0  0  0  0  0
   17.3409   -7.9050   10.4934 H   0  0  0  0  0  0  0  0  0  0  0  0
   17.8870   -7.3388   13.4228 H   0  0  0  0  0  0  0  0  0  0  0  0
   20.1015   -7.2366   12.7305 H   0  0  0  0  0  0  0  0  0  0  0  0
   21.8570   -7.1122   11.3580 H   0  0  0  0  0  0  0  0  0  0  0  0
   21.4672   -7.9732    9.8304 H   0  0  0  0  0  0  0  0  0  0  0  0
   21.6616   -6.1875    9.8304 H   0  0  0  0  0  0  0  0  0  0  0  0
   18.0204   -6.1831    9.8062 H   0  0  0  0  0  0  0  0  0  0  0  0
   19.5120   -5.8018    8.8808 H   0  0  0  0  0  0  0  0  0  0  0  0
   18.8581   -7.4748    8.8808 H   0  0  0  0  0  0  0  0  0  0  0  0
  1  2  1  0
  2  3  2  0
  2  4  1  0
  4  5  1  0
  5  6  1  0
  6  7  2  0
  7  8  1  0
  8  9  1  0
  9 10  1  0
 10 11  2  3
 11 12  1  0
 11 13  1  0
  9 14  1  0
 14 15  1  0
 15 16  2  0
 15  7  1  0
  1 17  1  0
  1 18  1  0
  1 19  1  0
  4 20  1  0
  4 21  1  0
  5 22  1  0
  5 23  1  0
  6 24  1  0
  8 25  1  0
  8 26  1  0
  9 27  1  1
 10 28  1  0
 12 29  1  0
 12 30  1  0
 12 31  1  0
 13 32  1  0
 13 33  1  0
 13 34  1  0
M  END
>  <meeko>  (4) 
{"is_sidechain": [false], "free_energy": -5.683, "intermolecular_energy": -7.169, "internal_energy": -0.184}

$$$$
LIB_HAGKOYTUAINBNR__M_PUB_ALL__e8__s20260927
     RDKit          3D

 34 34  0  0  0  0  0  0  0  0999 V2000
   13.7100   -7.8940   11.0890 C   0  0  0  0  0  0  0  0  0  0  0  0
   13.2540   -8.4670   12.4050 C   0  0  0  0  0  0  0  0  0  0  0  0
   12.6770   -7.7690   13.2370 O   0  0  0  0  0  0  0  0  0  0  0  0
   13.5370   -9.9400   12.6290 C   0  0  0  0  0  0  0  0  0  0  0  0
   14.8340  -10.3820   11.9550 C   0  0  0  0  0  0  0  0  0  0  0  0
   15.9820  -10.3640   12.9250 C   0  0  0  0  0  0  0  0  0  0  0  0
   16.9780   -9.4650   12.9410 C   0  0  0  0  0  0  0  0  0  0  0  0
   17.2410   -8.3100   12.0490 C   0  0  0  0  0  0  0  0  0  0  0  0
   18.7380   -8.1510   12.2330 C   0  0  1  0  0  0  0  0  0  0  0  0
   19.1910   -6.7220   12.1270 C   0  0  0  0  0  0  0  0  0  0  0  0
   19.5750   -6.0620   11.0170 C   0  0  0  0  0  0  0  0  0  0  0  0
   20.0390   -4.6310   11.0950 C   0  0  0  0  0  0  0  0  0  0  0  0
   19.5800   -6.6390    9.6270 C   0  0  0  0  0  0  0  0  0  0  0  0
   19.0220   -8.6160   13.5600 O   0  0  0  0  0  0  0  0  0  0  0  0
   18.0770   -9.5190   13.9350 C   0  0  0  0  0  0  0  0  0  0  0  0
   18.1150  -10.2230   14.9270 O   0  0  0  0  0  0  0  0  0  0  0  0
   14.3853   -7.0454   11.2729 H   0  0  0  0  0  0  0  0  0  0  0  0
   14.2416   -8.6683   10.5165 H   0  0  0  0  0  0  0  0  0  0  0  0
   12.8361   -7.5498   10.5165 H   0  0  0  0  0  0  0  0  0  0  0  0
   13.6173  -10.1258   13.7102 H   0  0  0  0  0  0  0  0  0  0  0  0
   12.7107  -10.5159   12.1867 H   0  0  0  0  0  0  0  0  0  0  0  0
   14.7073  -11.4036   11.5674 H   0  0  0  0  0  0  0  0  0  0  0  0
   15.0579   -9.6825   11.1361 H   0  0  0  0  0  0  0  0  0  0  0  0
   16.0079  -11.1563   13.6877 H   0  0  0  0  0  0  0  0  0  0  0  0
   16.9825   -8.5371   11.0042 H   0  0  0  0  0  0  0  0  0  0  0  0
   16.6533   -7.4096   12.2811 H   0  0  0  0  0  0  0  0  0  0  0  0
   19.2621   -8.7118   11.4451 H   0  0  0  0  0  0  0  0  0  0  0  0
   19.2114   -6.1479   13.0651 H   0  0  0  0  0  0  0  0  0  0  0  0
   20.1354   -4.3338   12.1497 H   0  0  0  0  0  0  0  0  0  0  0  0
   21.0146   -4.5342   10.5961 H   0  0  0  0  0  0  0  0  0  0  0  0
   19.3059   -3.9801   10.5961 H   0  0  0  0  0  0  0  0  0  0  0  0
   19.5895   -7.7374    9.6860 H   0  0  0  0  0  0  0  0  0  0  0  0
   18.6790   -6.3085    9.0895 H   0  0  0  0  0  0  0  0  0  0  0  0
   20.4752   -6.2929    9.0895 H   0  0  0  0  0  0  0  0  0  0  0  0
  1  2  1  0
  2  3  2  0
  2  4  1  0
  4  5  1  0
  5  6  1  0
  6  7  2  0
  7  8  1  0
  8  9  1  0
  9 10  1  0
 10 11  2  3
 11 12  1  0
 11 13  1  0
  9 14  1  0
 14 15  1  0
 15 16  2  0
 15  7  1  0
  1 17  1  0
  1 18  1  0
  1 19  1  0
  4 20  1  0
  4 21  1  0
  5 22  1  0
  5 23  1  0
  6 24  1  0
  8 25  1  0
  8 26  1  0
  9 27  1  6
 10 28  1  0
 12 29  1  0
 12 30  1  0
 12 31  1  0
 13 32  1  0
 13 33  1  0
 13 34  1  0
M  END
>  <meeko>  (5) 
{"is_sidechain": [false], "free_energy": -5.667, "intermolecular_energy": -6.684, "internal_energy": -0.65}

$$$$
LIB_HAGKOYTUAINBNR__M_PUB_ALL__e8__s20260927
     RDKit          3D

 34 34  0  0  0  0  0  0  0  0999 V2000
  -15.7330  -17.5790   -3.3100 C   0  0  0  0  0  0  0  0  0  0  0  0
  -14.9600  -17.1840   -4.5410 C   0  0  0  0  0  0  0  0  0  0  0  0
  -13.7390  -17.0390   -4.5050 O   0  0  0  0  0  0  0  0  0  0  0  0
  -15.7700  -16.9900   -5.8080 C   0  0  0  0  0  0  0  0  0  0  0  0
  -14.9050  -17.1000   -7.0610 C   0  0  0  0  0  0  0  0  0  0  0  0
  -14.5430  -15.7400   -7.5910 C   0  0  0  0  0  0  0  0  0  0  0  0
  -13.3190  -15.3530   -7.9810 C   0  0  0  0  0  0  0  0  0  0  0  0
  -12.0350  -16.0940   -7.9840 C   0  0  0  0  0  0  0  0  0  0  0  0
  -11.0490  -14.9420   -7.9420 C   0  0  1  0  0  0  0  0  0  0  0  0
   -9.7720  -15.2400   -8.6750 C   0  0  0  0  0  0  0  0  0  0  0  0
   -8.6700  -15.8500   -8.1920 C   0  0  0  0  0  0  0  0  0  0  0  0
   -7.4530  -16.0380   -9.0590 C   0  0  0  0  0  0  0  0  0  0  0  0
   -8.5280  -16.3990   -6.7980 C   0  0  0  0  0  0  0  0  0  0  0  0
  -11.6990  -13.8450   -8.6000 O   0  0  0  0  0  0  0  0  0  0  0  0
  -13.0470  -13.9880   -8.4930 C   0  0  0  0  0  0  0  0  0  0  0  0
  -13.8800  -13.1530   -8.7930 O   0  0  0  0  0  0  0  0  0  0  0  0
  -15.1664  -17.2895   -2.4127 H   0  0  0  0  0  0  0  0  0  0  0  0
  -16.7072  -17.0682   -3.3092 H   0  0  0  0  0  0  0  0  0  0  0  0
  -15.8898  -18.6678   -3.3092 H   0  0  0  0  0  0  0  0  0  0  0  0
  -16.5548  -17.7596   -5.8493 H   0  0  0  0  0  0  0  0  0  0  0  0
  -16.2049  -15.9799   -5.7824 H   0  0  0  0  0  0  0  0  0  0  0  0
  -13.9828  -17.6463   -6.8139 H   0  0  0  0  0  0  0  0  0  0  0  0
  -15.4765  -17.6350   -7.8338 H   0  0  0  0  0  0  0  0  0  0  0  0
  -15.3518  -14.9982   -7.6654 H   0  0  0  0  0  0  0  0  0  0  0  0
  -11.9388  -16.7429   -7.1010 H   0  0  0  0  0  0  0  0  0  0  0  0
  -11.9034  -16.7784   -8.8351 H   0  0  0  0  0  0  0  0  0  0  0  0
  -10.7775  -14.7346   -6.8964 H   0  0  0  0  0  0  0  0  0  0  0  0
   -9.7308  -14.9241   -9.7279 H   0  0  0  0  0  0  0  0  0  0  0  0
   -6.5667  -16.1749   -8.4221 H   0  0  0  0  0  0  0  0  0  0  0  0
   -7.5888  -16.9258   -9.6941 H   0  0  0  0  0  0  0  0  0  0  0  0
   -7.3146  -15.1506   -9.6941 H   0  0  0  0  0  0  0  0  0  0  0  0
   -8.7340  -15.6027   -6.0676 H   0  0  0  0  0  0  0  0  0  0  0  0
   -9.2427  -17.2227   -6.6537 H   0  0  0  0  0  0  0  0  0  0  0  0
   -7.5036  -16.7729   -6.6537 H   0  0  0  0  0  0  0  0  0  0  0  0
  1  2  1  0
  2  3  2  0
  2  4  1  0
  4  5  1  0
  5  6  1  0
  6  7  2  0
  7  8  1  0
  8  9  1  0
  9 10  1  0
 10 11  2  3
 11 12  1  0
 11 13  1  0
  9 14  1  0
 14 15  1  0
 15 16  2  0
 15  7  1  0
  1 17  1  0
  1 18  1  0
  1 19  1  0
  4 20  1  0
  4 21  1  0
  5 22  1  0
  5 23  1  0
  6 24  1  0
  8 25  1  0
  8 26  1  0
  9 27  1  1
 10 28  1  0
 12 29  1  0
 12 30  1  0
 12 31  1  0
 13 32  1  0
 13 33  1  0
 13 34  1  0
M  END
>  <meeko>  (6) 
{"is_sidechain": [false], "free_energy": -5.622, "intermolecular_energy": -6.831, "internal_energy": -0.447}

$$$$
LIB_HAGKOYTUAINBNR__M_PUB_ALL__e8__s20260927
     RDKit          3D

 34 34  0  0  0  0  0  0  0  0999 V2000
   19.4680   -7.4100    9.5190 C   0  0  0  0  0  0  0  0  0  0  0  0
   20.2720   -6.2070    9.9360 C   0  0  0  0  0  0  0  0  0  0  0  0
   20.5700   -5.3300    9.1250 O   0  0  0  0  0  0  0  0  0  0  0  0
   20.6730   -6.1400   11.3960 C   0  0  0  0  0  0  0  0  0  0  0  0
   19.4590   -6.0390   12.3180 C   0  0  0  0  0  0  0  0  0  0  0  0
   19.4460   -7.1580   13.3210 C   0  0  0  0  0  0  0  0  0  0  0  0
   18.5880   -8.1910   13.3290 C   0  0  0  0  0  0  0  0  0  0  0  0
   17.4560   -8.5020   12.4240 C   0  0  0  0  0  0  0  0  0  0  0  0
   16.6110   -9.3800   13.3280 C   0  0  1  0  0  0  0  0  0  0  0  0
   15.8590  -10.4410   12.5750 C   0  0  0  0  0  0  0  0  0  0  0  0
   14.5760  -10.4020   12.1620 C   0  0  0  0  0  0  0  0  0  0  0  0
   13.9640  -11.5770   11.4460 C   0  0  0  0  0  0  0  0  0  0  0  0
   13.6440   -9.2350   12.3460 C   0  0  0  0  0  0  0  0  0  0  0  0
   17.5320  -10.0270   14.2180 O   0  0  0  0  0  0  0  0  0  0  0  0
   18.6440   -9.2570   14.3570 C   0  0  0  0  0  0  0  0  0  0  0  0
   19.5380   -9.4330   15.1640 O   0  0  0  0  0  0  0  0  0  0  0  0
   19.1126   -7.9417   10.4140 H   0  0  0  0  0  0  0  0  0  0  0  0
   18.6053   -7.0845    8.9192 H   0  0  0  0  0  0  0  0  0  0  0  0
   20.0987   -8.0826    8.9192 H   0  0  0  0  0  0  0  0  0  0  0  0
   21.2384   -7.0484   11.6512 H   0  0  0  0  0  0  0  0  0  0  0  0
   21.2851   -5.2374   11.5395 H   0  0  0  0  0  0  0  0  0  0  0  0
   19.4928   -5.0781   12.8524 H   0  0  0  0  0  0  0  0  0  0  0  0
   18.5483   -6.1090   11.7050 H   0  0  0  0  0  0  0  0  0  0  0  0
   20.2045   -7.1284   14.1171 H   0  0  0  0  0  0  0  0  0  0  0  0
   16.9163   -7.5924   12.1216 H   0  0  0  0  0  0  0  0  0  0  0  0
   17.7462   -8.9702   11.4718 H   0  0  0  0  0  0  0  0  0  0  0  0
   15.8611   -8.7590   13.8398 H   0  0  0  0  0  0  0  0  0  0  0  0
   16.4203  -11.3555   12.3326 H   0  0  0  0  0  0  0  0  0  0  0  0
   13.5872  -12.3004   12.1840 H   0  0  0  0  0  0  0  0  0  0  0  0
   13.1323  -11.2295   10.8155 H   0  0  0  0  0  0  0  0  0  0  0  0
   14.7254  -12.0593   10.8155 H   0  0  0  0  0  0  0  0  0  0  0  0
   13.4960   -9.0497   13.4201 H   0  0  0  0  0  0  0  0  0  0  0  0
   14.0791   -8.3406   11.8762 H   0  0  0  0  0  0  0  0  0  0  0  0
   12.6755   -9.4616   11.8762 H   0  0  0  0  0  0  0  0  0  0  0  0
  1  2  1  0
  2  3  2  0
  2  4  1  0
  4  5  1  0
  5  6  1  0
  6  7  2  0
  7  8  1  0
  8  9  1  0
  9 10  1  0
 10 11  2  3
 11 12  1  0
 11 13  1  0
  9 14  1  0
 14 15  1  0
 15 16  2  0
 15  7  1  0
  1 17  1  0
  1 18  1  0
  1 19  1  0
  4 20  1  0
  4 21  1  0
  5 22  1  0
  5 23  1  0
  6 24  1  0
  8 25  1  0
  8 26  1  0
  9 27  1  1
 10 28  1  0
 12 29  1  0
 12 30  1  0
 12 31  1  0
 13 32  1  0
 13 33  1  0
 13 34  1  0
M  END
>  <meeko>  (7) 
{"is_sidechain": [false], "free_energy": -5.547, "intermolecular_energy": -6.591, "internal_energy": -0.594}

$$$$
LIB_HAGKOYTUAINBNR__M_PUB_ALL__e8__s20260927
     RDKit          3D

 34 34  0  0  0  0  0  0  0  0999 V2000
   -5.4160  -13.1990    2.8710 C   0  0  0  0  0  0  0  0  0  0  0  0
   -4.6360  -12.9800    1.6030 C   0  0  0  0  0  0  0  0  0  0  0  0
   -5.1130  -12.3410    0.6650 O   0  0  0  0  0  0  0  0  0  0  0  0
   -3.2420  -13.5760    1.5600 C   0  0  0  0  0  0  0  0  0  0  0  0
   -2.3940  -13.1340    2.7500 C   0  0  0  0  0  0  0  0  0  0  0  0
   -2.1200  -11.6570    2.7020 C   0  0  0  0  0  0  0  0  0  0  0  0
   -1.3460  -11.0340    1.7990 C   0  0  0  0  0  0  0  0  0  0  0  0
   -0.5620  -11.5840    0.6680 C   0  0  0  0  0  0  0  0  0  0  0  0
    0.4830  -10.4970    0.4990 C   0  0  1  0  0  0  0  0  0  0  0  0
    0.9210  -10.3250   -0.9280 C   0  0  0  0  0  0  0  0  0  0  0  0
    1.8540  -11.0360   -1.5930 C   0  0  0  0  0  0  0  0  0  0  0  0
    2.2000  -10.7040   -3.0200 C   0  0  0  0  0  0  0  0  0  0  0  0
    2.6230  -12.1970   -1.0230 C   0  0  0  0  0  0  0  0  0  0  0  0
   -0.1460   -9.2800    0.9260 O   0  0  0  0  0  0  0  0  0  0  0  0
   -1.1280   -9.5680    1.8220 C   0  0  0  0  0  0  0  0  0  0  0  0
   -1.7360   -8.7600    2.4980 O   0  0  0  0  0  0  0  0  0  0  0  0
   -4.7647  -13.0161    3.7384 H   0  0  0  0  0  0  0  0  0  0  0  0
   -6.2696  -12.5058    2.9008 H   0  0  0  0  0  0  0  0  0  0  0  0
   -5.7840  -14.2352    2.9008 H   0  0  0  0  0  0  0  0  0  0  0  0
   -3.3243  -14.6729    1.5705 H   0  0  0  0  0  0  0  0  0  0  0  0
   -2.7496  -13.2226    0.6420 H   0  0  0  0  0  0  0  0  0  0  0  0
   -2.9310  -13.3695    3.6807 H   0  0  0  0  0  0  0  0  0  0  0  0
   -1.4333  -13.6684    2.7114 H   0  0  0  0  0  0  0  0  0  0  0  0
   -2.5946  -11.0325    3.4733 H   0  0  0  0  0  0  0  0  0  0  0  0
   -0.1041  -12.5509    0.9239 H   0  0  0  0  0  0  0  0  0  0  0  0
   -1.1509  -11.7972   -0.2363 H   0  0  0  0  0  0  0  0  0  0  0  0
    1.3795  -10.7611    1.0792 H   0  0  0  0  0  0  0  0  0  0  0  0
    0.4225   -9.5260   -1.4964 H   0  0  0  0  0  0  0  0  0  0  0  0
    2.9936   -9.9425   -3.0372 H   0  0  0  0  0  0  0  0  0  0  0  0
    2.5514  -11.6115   -3.5327 H   0  0  0  0  0  0  0  0  0  0  0  0
    1.3078  -10.3154   -3.5327 H   0  0  0  0  0  0  0  0  0  0  0  0
    2.5934  -12.1524    0.0757 H   0  0  0  0  0  0  0  0  0  0  0  0
    2.1701  -13.1396   -1.3640 H   0  0  0  0  0  0  0  0  0  0  0  0
    3.6676  -12.1477   -1.3640 H   0  0  0  0  0  0  0  0  0  0  0  0
  1  2  1  0
  2  3  2  0
  2  4  1  0
  4  5  1  0
  5  6  1  0
  6  7  2  0
  7  8  1  0
  8  9  1  0
  9 10  1  0
 10 11  2  3
 11 12  1  0
 11 13  1  0
  9 14  1  0
 14 15  1  0
 15 16  2  0
 15  7  1  0
  1 17  1  0
  1 18  1  0
  1 19  1  0
  4 20  1  0
  4 21  1  0
  5 22  1  0
  5 23  1  0
  6 24  1  0
  8 25  1  0
  8 26  1  0
  9 27  1  1
 10 28  1  0
 12 29  1  0
 12 30  1  0
 12 31  1  0
 13 32  1  0
 13 33  1  0
 13 34  1  0
M  END
>  <meeko>  (8) 
{"is_sidechain": [false], "free_energy": -5.472, "intermolecular_energy": -6.678, "internal_energy": -0.416}

$$$$
LIB_HAGKOYTUAINBNR__M_PUB_ALL__e8__s20260927
     RDKit          3D

 34 34  0  0  0  0  0  0  0  0999 V2000
   11.9360  -15.0480   10.9820 C   0  0  0  0  0  0  0  0  0  0  0  0
   12.8420  -14.4170   12.0060 C   0  0  0  0  0  0  0  0  0  0  0  0
   13.6160  -15.0980   12.6770 O   0  0  0  0  0  0  0  0  0  0  0  0
   12.7480  -12.9100   12.1470 C   0  0  0  0  0  0  0  0  0  0  0  0
   14.0620  -12.2190   11.7910 C   0  0  0  0  0  0  0  0  0  0  0  0
   13.8490  -10.7570   11.5150 C   0  0  0  0  0  0  0  0  0  0  0  0
   14.7080   -9.7710   11.8170 C   0  0  0  0  0  0  0  0  0  0  0  0
   16.0270   -9.8230   12.4910 C   0  0  0  0  0  0  0  0  0  0  0  0
   16.1190   -8.4080   13.0300 C   0  0  1  0  0  0  0  0  0  0  0  0
   17.5290   -7.8900   13.0740 C   0  0  0  0  0  0  0  0  0  0  0  0
   18.3800   -7.9100   14.1200 C   0  0  0  0  0  0  0  0  0  0  0  0
   19.7560   -7.3100   14.0030 C   0  0  0  0  0  0  0  0  0  0  0  0
   18.0790   -8.5100   15.4670 C   0  0  0  0  0  0  0  0  0  0  0  0
   15.3680   -7.5920   12.1200 O   0  0  0  0  0  0  0  0  0  0  0  0
   14.4190   -8.3500   11.5090 C   0  0  0  0  0  0  0  0  0  0  0  0
   13.5130   -7.9340   10.8110 O   0  0  0  0  0  0  0  0  0  0  0  0
   11.1367  -15.6047   11.4931 H   0  0  0  0  0  0  0  0  0  0  0  0
   11.4914  -14.2631   10.3525 H   0  0  0  0  0  0  0  0  0  0  0  0
   12.5181  -15.7371   10.3525 H   0  0  0  0  0  0  0  0  0  0  0  0
   11.9588  -12.5392   11.4765 H   0  0  0  0  0  0  0  0  0  0  0  0
   12.5176  -12.6809   13.1979 H   0  0  0  0  0  0  0  0  0  0  0  0
   14.7636  -12.3272   12.6313 H   0  0  0  0  0  0  0  0  0  0  0  0
   14.4687  -12.6895   10.8837 H   0  0  0  0  0  0  0  0  0  0  0  0
   12.9078  -10.4704   11.0230 H   0  0  0  0  0  0  0  0  0  0  0  0
   16.0401  -10.5675   13.3007 H   0  0  0  0  0  0  0  0  0  0  0  0
   16.8625  -10.1205   11.8403 H   0  0  0  0  0  0  0  0  0  0  0  0
   15.7385   -8.3873   14.0619 H   0  0  0  0  0  0  0  0  0  0  0  0
   17.9115   -7.4424   12.1448 H   0  0  0  0  0  0  0  0  0  0  0  0
   20.1650   -7.1317   15.0085 H   0  0  0  0  0  0  0  0  0  0  0  0
   20.4131   -8.0033   13.4575 H   0  0  0  0  0  0  0  0  0  0  0  0
   19.6952   -6.3567   13.4575 H   0  0  0  0  0  0  0  0  0  0  0  0
   18.4219   -7.8265   16.2577 H   0  0  0  0  0  0  0  0  0  0  0  0
   16.9948   -8.6683   15.5639 H   0  0  0  0  0  0  0  0  0  0  0  0
   18.6003   -9.4737   15.5639 H   0  0  0  0  0  0  0  0  0  0  0  0
  1  2  1  0
  2  3  2  0
  2  4  1  0
  4  5  1  0
  5  6  1  0
  6  7  2  0
  7  8  1  0
  8  9  1  0
  9 10  1  0
 10 11  2  3
 11 12  1  0
 11 13  1  0
  9 14  1  0
 14 15  1  0
 15 16  2  0
 15  7  1  0
  1 17  1  0
  1 18  1  0
  1 19  1  0
  4 20  1  0
  4 21  1  0
  5 22  1  0
  5 23  1  0
  6 24  1  0
  8 25  1  0
  8 26  1  0
  9 27  1  1
 10 28  1  0
 12 29  1  0
 12 30  1  0
 12 31  1  0
 13 32  1  0
 13 33  1  0
 13 34  1  0
M  END
>  <meeko>  (9) 
{"is_sidechain": [false], "free_energy": -5.347, "intermolecular_energy": -6.592, "internal_energy": -0.346}

$$$$
