LIB_RNNSZIOJHWINFW__M_PUB_ALL__e8__s20260927
     RDKit          3D

 30 31  0  0  0  0  0  0  0  0999 V2000
   -8.9670  -16.4050   -6.6940 C   0  0  0  0  0  0  0  0  0  0  0  0
   -9.4400  -15.6640   -7.8940 C   0  0  0  0  0  0  0  0  0  0  0  0
   -8.6800  -15.3470   -8.9220 N   0  0  0  0  0  0  0  0  0  0  0  0
   -9.4860  -14.7100   -9.8270 C   0  0  0  0  0  0  0  0  0  0  0  0
  -10.7560  -14.6070   -9.3230 C   0  0  0  0  0  0  0  0  0  0  0  0
  -11.8850  -13.9840   -9.9180 N   0  0  0  0  0  0  0  0  0  0  0  0
  -12.0500  -12.7810   -9.6660 O   0  0  0  0  0  0  0  0  0  0  0  0
  -12.5940  -14.6770  -10.6480 O   0  0  0  0  0  0  0  0  0  0  0  0
  -10.7360  -15.2200   -8.0920 N   0  0  0  0  0  0  0  0  0  0  0  0
  -11.8400  -15.4230   -7.1690 C   0  0  0  0  0  0  0  0  0  0  0  0
  -12.8240  -16.4810   -7.6650 C   0  0  0  0  0  0  0  0  0  0  0  0
  -13.8460  -16.7450   -6.6220 N   0  0  0  0  0  0  0  0  0  0  0  0
  -13.4620  -17.0000   -5.3480 C   0  0  0  0  0  0  0  0  0  0  0  0
  -14.4070  -17.2460   -4.3590 C   0  0  0  0  0  0  0  0  0  0  0  0
  -15.7570  -17.2250   -4.6850 C   0  0  0  0  0  0  0  0  0  0  0  0
  -16.1380  -16.9520   -5.9920 C   0  0  0  0  0  0  0  0  0  0  0  0
  -15.1610  -16.7100   -6.9520 C   0  0  0  0  0  0  0  0  0  0  0  0
   -9.3006  -15.8825   -5.7853 H   0  0  0  0  0  0  0  0  0  0  0  0
   -9.3824  -17.4235   -6.7047 H   0  0  0  0  0  0  0  0  0  0  0  0
   -7.8683  -16.4570   -6.7047 H   0  0  0  0  0  0  0  0  0  0  0  0
   -9.1629  -14.3372  -10.8102 H   0  0  0  0  0  0  0  0  0  0  0  0
  -11.4348  -15.7444   -6.1982 H   0  0  0  0  0  0  0  0  0  0  0  0
  -12.3849  -14.4714   -7.0820 H   0  0  0  0  0  0  0  0  0  0  0  0
  -13.3192  -16.1196   -8.5783 H   0  0  0  0  0  0  0  0  0  0  0  0
  -12.2783  -17.4110   -7.8826 H   0  0  0  0  0  0  0  0  0  0  0  0
  -12.3918  -17.0125   -5.0939 H   0  0  0  0  0  0  0  0  0  0  0  0
  -14.0886  -17.4555   -3.3271 H   0  0  0  0  0  0  0  0  0  0  0  0
  -16.5172  -17.4228   -3.9149 H   0  0  0  0  0  0  0  0  0  0  0  0
  -17.2031  -16.9273   -6.2658 H   0  0  0  0  0  0  0  0  0  0  0  0
  -15.4575  -16.4883   -7.9878 H   0  0  0  0  0  0  0  0  0  0  0  0
  1  2  1  0
  2  3  2  0
  3  4  1  0
  4  5  2  0
  5  6  1  0
  6  7  2  0
  6  8  1  0
  5  9  1  0
  9 10  1  0
 10 11  1  0
 11 12  1  0
 12 13  2  0
 13 14  1  0
 14 15  2  0
 15 16  1  0
 16 17  2  0
  9  2  1  0
 17 12  1  0
  1 18  1  0
  1 19  1  0
  1 20  1  0
  4 21  1  0
 10 22  1  0
 10 23  1  0
 11 24  1  0
 11 25  1  0
 13 26  1  0
 14 27  1  0
 15 28  1  0
 16 29  1  0
 17 30  1  0
M  CHG  3   6   1   8  -1  12   1
M  END
>  <meeko>  (1) 
{"is_sidechain": [false], "free_energy": -5.659, "intermolecular_energy": -6.982, "internal_energy": -0.413}

$$$$
LIB_RNNSZIOJHWINFW__M_PUB_ALL__e8__s20260927
     RDKit          3D

 30 31  0  0  0  0  0  0  0  0999 V2000
   12.1650  -12.7190   -3.9940 C   0  0  0  0  0  0  0  0  0  0  0  0
   12.3260  -12.2230   -2.6010 C   0  0  0  0  0  0  0  0  0  0  0  0
   13.3010  -11.4340   -2.1970 N   0  0  0  0  0  0  0  0  0  0  0  0
   13.0770  -11.1770   -0.8710 C   0  0  0  0  0  0  0  0  0  0  0  0
   11.9610  -11.8510   -0.4510 C   0  0  0  0  0  0  0  0  0  0  0  0
   11.4040  -11.8920    0.8540 N   0  0  0  0  0  0  0  0  0  0  0  0
   10.9850  -10.8180    1.3120 O   0  0  0  0  0  0  0  0  0  0  0  0
   11.3620  -12.9860    1.4170 O   0  0  0  0  0  0  0  0  0  0  0  0
   11.4720  -12.5160   -1.5520 N   0  0  0  0  0  0  0  0  0  0  0  0
   10.2770  -13.3370   -1.6500 C   0  0  0  0  0  0  0  0  0  0  0  0
    9.0030  -12.5000   -1.7440 C   0  0  0  0  0  0  0  0  0  0  0  0
    8.1400  -12.7640   -0.5670 N   0  0  0  0  0  0  0  0  0  0  0  0
    7.8460  -11.7600    0.2960 C   0  0  0  0  0  0  0  0  0  0  0  0
    7.0360  -11.9910    1.4010 C   0  0  0  0  0  0  0  0  0  0  0  0
    6.5220  -13.2630    1.6170 C   0  0  0  0  0  0  0  0  0  0  0  0
    6.8220  -14.2800    0.7210 C   0  0  0  0  0  0  0  0  0  0  0  0
    7.6350  -14.0080   -0.3740 C   0  0  0  0  0  0  0  0  0  0  0  0
   11.8254  -13.7651   -3.9738 H   0  0  0  0  0  0  0  0  0  0  0  0
   11.4210  -12.1021   -4.5192 H   0  0  0  0  0  0  0  0  0  0  0  0
   13.1295  -12.6567   -4.5192 H   0  0  0  0  0  0  0  0  0  0  0  0
   13.6994  -10.5272   -0.2383 H   0  0  0  0  0  0  0  0  0  0  0  0
   10.3534  -13.9666   -2.5488 H   0  0  0  0  0  0  0  0  0  0  0  0
   10.2121  -13.9460   -0.7363 H   0  0  0  0  0  0  0  0  0  0  0  0
    9.2684  -11.4328   -1.7701 H   0  0  0  0  0  0  0  0  0  0  0  0
    8.4585  -12.7693   -2.6611 H   0  0  0  0  0  0  0  0  0  0  0  0
    8.2526  -10.7533    0.1195 H   0  0  0  0  0  0  0  0  0  0  0  0
    6.8037  -11.1732    2.0990 H   0  0  0  0  0  0  0  0  0  0  0  0
    5.8831  -13.4627    2.4899 H   0  0  0  0  0  0  0  0  0  0  0  0
    6.4201  -15.2922    0.8758 H   0  0  0  0  0  0  0  0  0  0  0  0
    7.8707  -14.8090   -1.0901 H   0  0  0  0  0  0  0  0  0  0  0  0
  1  2  1  0
  2  3  2  0
  3  4  1  0
  4  5  2  0
  5  6  1  0
  6  7  2  0
  6  8  1  0
  5  9  1  0
  9 10  1  0
 10 11  1  0
 11 12  1  0
 12 13  2  0
 13 14  1  0
 14 15  2  0
 15 16  1  0
 16 17  2  0
  9  2  1  0
 17 12  1  0
  1 18  1  0
  1 19  1  0
  1 20  1  0
  4 21  1  0
 10 22  1  0
 10 23  1  0
 11 24  1  0
 11 25  1  0
 13 26  1  0
 14 27  1  0
 15 28  1  0
 16 29  1  0
 17 30  1  0
M  CHG  3   6   1   8  -1  12   1
M  END
>  <meeko>  (2) 
{"is_sidechain": [false], "free_energy": -5.54, "intermolecular_energy": -6.727, "internal_energy": -0.522}

$$$$
LIB_RNNSZIOJHWINFW__M_PUB_ALL__e8__s20260927
     RDKit          3D

 30 31  0  0  0  0  0  0  0  0999 V2000
    0.5230  -15.2100    3.7360 C   0  0  0  0  0  0  0  0  0  0  0  0
   -0.2070  -15.9330    2.6600 C   0  0  0  0  0  0  0  0  0  0  0  0
   -0.3310  -17.2430    2.5910 N   0  0  0  0  0  0  0  0  0  0  0  0
   -1.0960  -17.5100    1.4880 C   0  0  0  0  0  0  0  0  0  0  0  0
   -1.4170  -16.3390    0.8540 C   0  0  0  0  0  0  0  0  0  0  0  0
   -2.1590  -16.1700   -0.3450 N   0  0  0  0  0  0  0  0  0  0  0  0
   -1.5100  -16.1550   -1.4020 O   0  0  0  0  0  0  0  0  0  0  0  0
   -3.3820  -16.0720   -0.2440 O   0  0  0  0  0  0  0  0  0  0  0  0
   -0.8590  -15.3270    1.6000 N   0  0  0  0  0  0  0  0  0  0  0  0
   -0.9460  -13.8940    1.3800 C   0  0  0  0  0  0  0  0  0  0  0  0
   -2.1890  -13.2820    2.0240 C   0  0  0  0  0  0  0  0  0  0  0  0
   -2.7950  -12.2880    1.1030 N   0  0  0  0  0  0  0  0  0  0  0  0
   -2.2280  -11.0660    0.9590 C   0  0  0  0  0  0  0  0  0  0  0  0
   -2.7810  -10.1250    0.0990 C   0  0  0  0  0  0  0  0  0  0  0  0
   -3.9240  -10.4480   -0.6210 C   0  0  0  0  0  0  0  0  0  0  0  0
   -4.4900  -11.7070   -0.4710 C   0  0  0  0  0  0  0  0  0  0  0  0
   -3.9050  -12.6200    0.3990 C   0  0  0  0  0  0  0  0  0  0  0  0
    0.1700  -15.5596    4.7174 H   0  0  0  0  0  0  0  0  0  0  0  0
    1.6014  -15.4060    3.6431 H   0  0  0  0  0  0  0  0  0  0  0  0
    0.3374  -14.1298    3.6431 H   0  0  0  0  0  0  0  0  0  0  0  0
   -1.4061  -18.5132    1.1602 H   0  0  0  0  0  0  0  0  0  0  0  0
   -0.0534  -13.4155    1.8093 H   0  0  0  0  0  0  0  0  0  0  0  0
   -1.0111  -13.7238    0.2952 H   0  0  0  0  0  0  0  0  0  0  0  0
   -2.9195  -14.0767    2.2355 H   0  0  0  0  0  0  0  0  0  0  0  0
   -1.9035  -12.7819    2.9612 H   0  0  0  0  0  0  0  0  0  0  0  0
   -1.3207  -10.8162    1.5286 H   0  0  0  0  0  0  0  0  0  0  0  0
   -2.3178   -9.1333   -0.0106 H   0  0  0  0  0  0  0  0  0  0  0  0
   -4.3765   -9.7135   -1.3035 H   0  0  0  0  0  0  0  0  0  0  0  0
   -5.3937  -11.9797   -1.0358 H   0  0  0  0  0  0  0  0  0  0  0  0
   -4.3466  -13.6205    0.5172 H   0  0  0  0  0  0  0  0  0  0  0  0
  1  2  1  0
  2  3  2  0
  3  4  1  0
  4  5  2  0
  5  6  1  0
  6  7  2  0
  6  8  1  0
  5  9  1  0
  9 10  1  0
 10 11  1  0
 11 12  1  0
 12 13  2  0
 13 14  1  0
 14 15  2  0
 15 16  1  0
 16 17  2  0
  9  2  1  0
 17 12  1  0
  1 18  1  0
  1 19  1  0
  1 20  1  0
  4 21  1  0
 10 22  1  0
 10 23  1  0
 11 24  1  0
 11 25  1  0
 13 26  1  0
 14 27  1  0
 15 28  1  0
 16 29  1  0
 17 30  1  0
M  CHG  3   6   1   8  -1  12   1
M  END
>  <meeko>  (3) 
{"is_sidechain": [false], "free_energy": -5.246, "intermolecular_energy": -6.356, "internal_energy": -0.53}

$$$$
LIB_RNNSZIOJHWINFW__M_PUB_ALL__e8__s20260927
     RDKit          3D

 30 31  0  0  0  0  0  0  0  0999 V2000
   -2.0440  -10.1190    3.0190 C   0  0  0  0  0  0  0  0  0  0  0  0
   -0.9310  -10.1030    2.0320 C   0  0  0  0  0  0  0  0  0  0  0  0
   -0.4920   -9.0220    1.4190 N   0  0  0  0  0  0  0  0  0  0  0  0
    0.5540   -9.4140    0.6280 C   0  0  0  0  0  0  0  0  0  0  0  0
    0.7330  -10.7680    0.7360 C   0  0  0  0  0  0  0  0  0  0  0  0
    1.6780  -11.5820    0.0560 N   0  0  0  0  0  0  0  0  0  0  0  0
    2.7940  -11.6940    0.5840 O   0  0  0  0  0  0  0  0  0  0  0  0
    1.3090  -12.1250   -0.9860 O   0  0  0  0  0  0  0  0  0  0  0  0
   -0.2070  -11.2140    1.6360 N   0  0  0  0  0  0  0  0  0  0  0  0
   -0.4070  -12.5650    2.1330 C   0  0  0  0  0  0  0  0  0  0  0  0
   -1.1830  -13.4370    1.1480 C   0  0  0  0  0  0  0  0  0  0  0  0
   -2.6410  -13.2630    1.3610 N   0  0  0  0  0  0  0  0  0  0  0  0
   -3.3980  -12.6650    0.4080 C   0  0  0  0  0  0  0  0  0  0  0  0
   -4.7650  -12.4970    0.5920 C   0  0  0  0  0  0  0  0  0  0  0  0
   -5.3570  -12.9520    1.7640 C   0  0  0  0  0  0  0  0  0  0  0  0
   -4.5720  -13.5700    2.7270 C   0  0  0  0  0  0  0  0  0  0  0  0
   -3.2080  -13.7210    2.5050 C   0  0  0  0  0  0  0  0  0  0  0  0
   -1.6303  -10.1131    4.0382 H   0  0  0  0  0  0  0  0  0  0  0  0
   -2.6752   -9.2298    2.8743 H   0  0  0  0  0  0  0  0  0  0  0  0
   -2.6494  -11.0259    2.8743 H   0  0  0  0  0  0  0  0  0  0  0  0
    1.1594   -8.7433    0.0005 H   0  0  0  0  0  0  0  0  0  0  0  0
    0.5760  -13.0245    2.3136 H   0  0  0  0  0  0  0  0  0  0  0  0
   -0.9962  -12.4985    3.0595 H   0  0  0  0  0  0  0  0  0  0  0  0
   -0.9268  -13.1425    0.1196 H   0  0  0  0  0  0  0  0  0  0  0  0
   -0.9163  -14.4919    1.3096 H   0  0  0  0  0  0  0  0  0  0  0  0
   -2.9254  -12.3095   -0.5195 H   0  0  0  0  0  0  0  0  0  0  0  0
   -5.3732  -12.0081   -0.1833 H   0  0  0  0  0  0  0  0  0  0  0  0
   -6.4373  -12.8235    1.9267 H   0  0  0  0  0  0  0  0  0  0  0  0
   -5.0257  -13.9377    3.6592 H   0  0  0  0  0  0  0  0  0  0  0  0
   -2.5834  -14.2159    3.2632 H   0  0  0  0  0  0  0  0  0  0  0  0
  1  2  1  0
  2  3  2  0
  3  4  1  0
  4  5  2  0
  5  6  1  0
  6  7  2  0
  6  8  1  0
  5  9  1  0
  9 10  1  0
 10 11  1  0
 11 12  1  0
 12 13  2  0
 13 14  1  0
 14 15  2  0
 15 16  1  0
 16 17  2  0
  9  2  1  0
 17 12  1  0
  1 18  1  0
  1 19  1  0
  1 20  1  0
  4 21  1  0
 10 22  1  0
 10 23  1  0
 11 24  1  0
 11 25  1  0
 13 26  1  0
 14 27  1  0
 15 28  1  0
 16 29  1  0
 17 30  1  0
M  CHG  3   6   1   8  -1  12   1
M  END
>  <meeko>  (4) 
{"is_sidechain": [false], "free_energy": -5.215, "intermolecular_energy": -6.083, "internal_energy": -0.764}

$$$$
LIB_RNNSZIOJHWINFW__M_PUB_ALL__e8__s20260927
     RDKit          3D

 30 31  0  0  0  0  0  0  0  0999 V2000
   10.6450  -11.6000    1.2510 C   0  0  0  0  0  0  0  0  0  0  0  0
   11.6790  -11.5080    0.1850 C   0  0  0  0  0  0  0  0  0  0  0  0
   12.8160  -10.8530    0.3030 N   0  0  0  0  0  0  0  0  0  0  0  0
   13.5010  -11.0380   -0.8670 C   0  0  0  0  0  0  0  0  0  0  0  0
   12.7510  -11.7940   -1.7280 C   0  0  0  0  0  0  0  0  0  0  0  0
   13.0700  -12.1830   -3.0560 N   0  0  0  0  0  0  0  0  0  0  0  0
   12.9270  -11.3210   -3.9350 O   0  0  0  0  0  0  0  0  0  0  0  0
   13.4810  -13.3320   -3.2250 O   0  0  0  0  0  0  0  0  0  0  0  0
   11.5880  -12.1040   -1.0600 N   0  0  0  0  0  0  0  0  0  0  0  0
   10.4800  -12.9260   -1.5170 C   0  0  0  0  0  0  0  0  0  0  0  0
    9.6990  -12.2680   -2.6530 C   0  0  0  0  0  0  0  0  0  0  0  0
    8.2790  -12.1000   -2.2550 N   0  0  0  0  0  0  0  0  0  0  0  0
    7.3490  -11.7800   -3.1880 C   0  0  0  0  0  0  0  0  0  0  0  0
    6.0150  -11.6220   -2.8330 C   0  0  0  0  0  0  0  0  0  0  0  0
    5.6360  -11.7990   -1.5080 C   0  0  0  0  0  0  0  0  0  0  0  0
    6.5970  -12.1360   -0.5650 C   0  0  0  0  0  0  0  0  0  0  0  0
    7.9210  -12.2870   -0.9610 C   0  0  0  0  0  0  0  0  0  0  0  0
   11.1303  -11.5568    2.2372 H   0  0  0  0  0  0  0  0  0  0  0  0
    9.9406  -10.7610    1.1519 H   0  0  0  0  0  0  0  0  0  0  0  0
   10.0998  -12.5502    1.1519 H   0  0  0  0  0  0  0  0  0  0  0  0
   14.5032  -10.6395   -1.0834 H   0  0  0  0  0  0  0  0  0  0  0  0
   10.8767  -13.8886   -1.8719 H   0  0  0  0  0  0  0  0  0  0  0  0
    9.7911  -13.0625   -0.6704 H   0  0  0  0  0  0  0  0  0  0  0  0
   10.1355  -11.2827   -2.8736 H   0  0  0  0  0  0  0  0  0  0  0  0
    9.7526  -12.9056   -3.5478 H   0  0  0  0  0  0  0  0  0  0  0  0
    7.6534  -11.6441   -4.2363 H   0  0  0  0  0  0  0  0  0  0  0  0
    5.2656  -11.3591   -3.5941 H   0  0  0  0  0  0  0  0  0  0  0  0
    4.5848  -11.6733   -1.2094 H   0  0  0  0  0  0  0  0  0  0  0  0
    6.3132  -12.2825    0.4876 H   0  0  0  0  0  0  0  0  0  0  0  0
    8.6846  -12.5605   -0.2180 H   0  0  0  0  0  0  0  0  0  0  0  0
  1  2  1  0
  2  3  2  0
  3  4  1  0
  4  5  2  0
  5  6  1  0
  6  7  2  0
  6  8  1  0
  5  9  1  0
  9 10  1  0
 10 11  1  0
 11 12  1  0
 12 13  2  0
 13 14  1  0
 14 15  2  0
 15 16  1  0
 16 17  2  0
  9  2  1  0
 17 12  1  0
  1 18  1  0
  1 19  1  0
  1 20  1  0
  4 21  1  0
 10 22  1  0
 10 23  1  0
 11 24  1  0
 11 25  1  0
 13 26  1  0
 14 27  1  0
 15 28  1  0
 16 29  1  0
 17 30  1  0
M  CHG  3   6   1   8  -1  12   1
M  END
>  <meeko>  (5) 
{"is_sidechain": [false], "free_energy": -5.177, "intermolecular_energy": -6.338, "internal_energy": -0.464}

$$$$
LIB_RNNSZIOJHWINFW__M_PUB_ALL__e8__s20260927
     RDKit          3D

 30 31  0  0  0  0  0  0  0  0999 V2000
   13.6260  -12.2800   -3.3660 C   0  0  0  0  0  0  0  0  0  0  0  0
   13.0980  -11.8510   -2.0430 C   0  0  0  0  0  0  0  0  0  0  0  0
   13.4740  -10.7600   -1.4080 N   0  0  0  0  0  0  0  0  0  0  0  0
   12.7370  -10.7000   -0.2560 C   0  0  0  0  0  0  0  0  0  0  0  0
   11.9200  -11.7960   -0.1730 C   0  0  0  0  0  0  0  0  0  0  0  0
   11.0260  -12.1430    0.8750 N   0  0  0  0  0  0  0  0  0  0  0  0
   11.4550  -12.9310    1.7310 O   0  0  0  0  0  0  0  0  0  0  0  0
    9.9110  -11.6210    0.8630 O   0  0  0  0  0  0  0  0  0  0  0  0
   12.1400  -12.5330   -1.3140 N   0  0  0  0  0  0  0  0  0  0  0  0
   11.4880  -13.7620   -1.7310 C   0  0  0  0  0  0  0  0  0  0  0  0
   11.9480  -14.9690   -0.9160 C   0  0  0  0  0  0  0  0  0  0  0  0
   12.3310  -16.0750   -1.8270 N   0  0  0  0  0  0  0  0  0  0  0  0
   13.3800  -15.9230   -2.6720 C   0  0  0  0  0  0  0  0  0  0  0  0
   13.7540  -16.9510   -3.5290 C   0  0  0  0  0  0  0  0  0  0  0  0
   13.0450  -18.1450   -3.5130 C   0  0  0  0  0  0  0  0  0  0  0  0
   11.9780  -18.2920   -2.6360 C   0  0  0  0  0  0  0  0  0  0  0  0
   11.6370  -17.2400   -1.7930 C   0  0  0  0  0  0  0  0  0  0  0  0
   14.4719  -12.9673   -3.2178 H   0  0  0  0  0  0  0  0  0  0  0  0
   12.8319  -12.7920   -3.9292 H   0  0  0  0  0  0  0  0  0  0  0  0
   13.9646  -11.3979   -3.9292 H   0  0  0  0  0  0  0  0  0  0  0  0
   12.7926   -9.8936    0.4901 H   0  0  0  0  0  0  0  0  0  0  0  0
   10.4012  -13.6452   -1.6072 H   0  0  0  0  0  0  0  0  0  0  0  0
   11.7559  -13.9445   -2.7822 H   0  0  0  0  0  0  0  0  0  0  0  0
   12.8151  -14.6854   -0.3014 H   0  0  0  0  0  0  0  0  0  0  0  0
   11.1257  -15.3026   -0.2660 H   0  0  0  0  0  0  0  0  0  0  0  0
   13.9407  -14.9767   -2.6794 H   0  0  0  0  0  0  0  0  0  0  0  0
   14.6045  -16.8201   -4.2143 H   0  0  0  0  0  0  0  0  0  0  0  0
   13.3258  -18.9665   -4.1885 H   0  0  0  0  0  0  0  0  0  0  0  0
   11.4078  -19.2323   -2.6086 H   0  0  0  0  0  0  0  0  0  0  0  0
   10.7968  -17.3536   -1.0922 H   0  0  0  0  0  0  0  0  0  0  0  0
  1  2  1  0
  2  3  2  0
  3  4  1  0
  4  5  2  0
  5  6  1  0
  6  7  2  0
  6  8  1  0
  5  9  1  0
  9 10  1  0
 10 11  1  0
 11 12  1  0
 12 13  2  0
 13 14  1  0
 14 15  2  0
 15 16  1  0
 16 17  2  0
  9  2  1  0
 17 12  1  0
  1 18  1  0
  1 19  1  0
  1 20  1  0
  4 21  1  0
 10 22  1  0
 10 23  1  0
 11 24  1  0
 11 25  1  0
 13 26  1  0
 14 27  1  0
 15 28  1  0
 16 29  1  0
 17 30  1  0
M  CHG  3   6   1   8  -1  12   1
M  END
>  <meeko>  (6) 
{"is_sidechain": [false], "free_energy": -5.16, "intermolecular_energy": -6.322, "internal_energy": -0.458}

$$$$
LIB_RNNSZIOJHWINFW__M_PUB_ALL__e8__s20260927
     RDKit          3D

 30 31  0  0  0  0  0  0  0  0999 V2000
    7.8140  -11.5090   -2.8210 C   0  0  0  0  0  0  0  0  0  0  0  0
    6.9860  -12.0700   -1.7200 C   0  0  0  0  0  0  0  0  0  0  0  0
    5.7490  -12.5000   -1.8620 N   0  0  0  0  0  0  0  0  0  0  0  0
    5.3520  -12.9700   -0.6390 C   0  0  0  0  0  0  0  0  0  0  0  0
    6.3580  -12.7920    0.2730 C   0  0  0  0  0  0  0  0  0  0  0  0
    6.3470  -13.1030    1.6590 N   0  0  0  0  0  0  0  0  0  0  0  0
    5.8150  -12.2720    2.4090 O   0  0  0  0  0  0  0  0  0  0  0  0
    6.8450  -14.1760    2.0010 O   0  0  0  0  0  0  0  0  0  0  0  0
    7.4080  -12.2240   -0.4110 N   0  0  0  0  0  0  0  0  0  0  0  0
    8.7270  -11.8790    0.0890 C   0  0  0  0  0  0  0  0  0  0  0  0
    9.7580  -12.9730   -0.1850 C   0  0  0  0  0  0  0  0  0  0  0  0
   11.0360  -12.3620   -0.6250 N   0  0  0  0  0  0  0  0  0  0  0  0
   11.7840  -11.6520    0.2550 C   0  0  0  0  0  0  0  0  0  0  0  0
   12.9860  -11.0760   -0.1410 C   0  0  0  0  0  0  0  0  0  0  0  0
   13.4200  -11.2360   -1.4510 C   0  0  0  0  0  0  0  0  0  0  0  0
   12.6480  -11.9730   -2.3390 C   0  0  0  0  0  0  0  0  0  0  0  0
   11.4530  -12.5350   -1.9030 C   0  0  0  0  0  0  0  0  0  0  0  0
    8.6536  -10.9401   -2.3951 H   0  0  0  0  0  0  0  0  0  0  0  0
    8.2041  -12.3296   -3.4411 H   0  0  0  0  0  0  0  0  0  0  0  0
    7.1966  -10.8425   -3.4411 H   0  0  0  0  0  0  0  0  0  0  0  0
    4.3731  -13.4222   -0.4217 H   0  0  0  0  0  0  0  0  0  0  0  0
    9.0584  -10.9508   -0.3995 H   0  0  0  0  0  0  0  0  0  0  0  0
    8.6507  -11.7554    1.1794 H   0  0  0  0  0  0  0  0  0  0  0  0
    9.9281  -13.5527    0.7343 H   0  0  0  0  0  0  0  0  0  0  0  0
    9.3812  -13.6361   -0.9777 H   0  0  0  0  0  0  0  0  0  0  0  0
   11.4369  -11.5305    1.2917 H   0  0  0  0  0  0  0  0  0  0  0  0
   13.5878  -10.4989    0.5765 H   0  0  0  0  0  0  0  0  0  0  0  0
   14.3663  -10.7831   -1.7816 H   0  0  0  0  0  0  0  0  0  0  0  0
   12.9789  -12.1112   -3.3789 H   0  0  0  0  0  0  0  0  0  0  0  0
   10.8410  -13.1249   -2.6012 H   0  0  0  0  0  0  0  0  0  0  0  0
  1  2  1  0
  2  3  2  0
  3  4  1  0
  4  5  2  0
  5  6  1  0
  6  7  2  0
  6  8  1  0
  5  9  1  0
  9 10  1  0
 10 11  1  0
 11 12  1  0
 12 13  2  0
 13 14  1  0
 14 15  2  0
 15 16  1  0
 16 17  2  0
  9  2  1  0
 17 12  1  0
  1 18  1  0
  1 19  1  0
  1 20  1  0
  4 21  1  0
 10 22  1  0
 10 23  1  0
 11 24  1  0
 11 25  1  0
 13 26  1  0
 14 27  1  0
 15 28  1  0
 16 29  1  0
 17 30  1  0
M  CHG  3   6   1   8  -1  12   1
M  END
>  <meeko>  (7) 
{"is_sidechain": [false], "free_energy": -5.148, "intermolecular_energy": -6.287, "internal_energy": -0.478}

$$$$
LIB_RNNSZIOJHWINFW__M_PUB_ALL__e8__s20260927
     RDKit          3D

 30 31  0  0  0  0  0  0  0  0999 V2000
   -3.6760  -13.1510    0.9940 C   0  0  0  0  0  0  0  0  0  0  0  0
   -3.0160  -14.4760    0.8410 C   0  0  0  0  0  0  0  0  0  0  0  0
   -3.3010  -15.3460   -0.1060 N   0  0  0  0  0  0  0  0  0  0  0  0
   -2.4590  -16.4110    0.0700 C   0  0  0  0  0  0  0  0  0  0  0  0
   -1.6690  -16.1980    1.1690 C   0  0  0  0  0  0  0  0  0  0  0  0
   -0.6930  -17.0670    1.7250 N   0  0  0  0  0  0  0  0  0  0  0  0
   -1.1160  -18.0090    2.4120 O   0  0  0  0  0  0  0  0  0  0  0  0
    0.4870  -16.8300    1.4660 O   0  0  0  0  0  0  0  0  0  0  0  0
   -2.0140  -14.9610    1.6620 N   0  0  0  0  0  0  0  0  0  0  0  0
   -1.4380  -14.2500    2.7910 C   0  0  0  0  0  0  0  0  0  0  0  0
   -0.2010  -13.4440    2.4000 C   0  0  0  0  0  0  0  0  0  0  0  0
   -0.5430  -12.0030    2.3200 N   0  0  0  0  0  0  0  0  0  0  0  0
   -1.2920  -11.4310    3.2940 C   0  0  0  0  0  0  0  0  0  0  0  0
   -1.6190  -10.0810    3.2350 C   0  0  0  0  0  0  0  0  0  0  0  0
   -1.1670   -9.3160    2.1680 C   0  0  0  0  0  0  0  0  0  0  0  0
   -0.3920   -9.9120    1.1820 C   0  0  0  0  0  0  0  0  0  0  0  0
   -0.0870  -11.2650    1.2780 C   0  0  0  0  0  0  0  0  0  0  0  0
   -3.7911  -12.9200    2.0633 H   0  0  0  0  0  0  0  0  0  0  0  0
   -3.0585  -12.3764    0.5159 H   0  0  0  0  0  0  0  0  0  0  0  0
   -4.6663  -13.1773    0.5159 H   0  0  0  0  0  0  0  0  0  0  0  0
   -2.4223  -17.3025   -0.5733 H   0  0  0  0  0  0  0  0  0  0  0  0
   -2.1937  -13.5624    3.1985 H   0  0  0  0  0  0  0  0  0  0  0  0
   -1.1300  -14.9974    3.5370 H   0  0  0  0  0  0  0  0  0  0  0  0
    0.5844  -13.5912    3.1560 H   0  0  0  0  0  0  0  0  0  0  0  0
    0.1593  -13.7861    1.4186 H   0  0  0  0  0  0  0  0  0  0  0  0
   -1.6445  -12.0406    4.1391 H   0  0  0  0  0  0  0  0  0  0  0  0
   -2.2303   -9.6230    4.0265 H   0  0  0  0  0  0  0  0  0  0  0  0
   -1.4206   -8.2475    2.1044 H   0  0  0  0  0  0  0  0  0  0  0  0
   -0.0226   -9.3189    0.3324 H   0  0  0  0  0  0  0  0  0  0  0  0
    0.5298  -11.7411    0.5016 H   0  0  0  0  0  0  0  0  0  0  0  0
  1  2  1  0
  2  3  2  0
  3  4  1  0
  4  5  2  0
  5  6  1  0
  6  7  2  0
  6  8  1  0
  5  9  1  0
  9 10  1  0
 10 11  1  0
 11 12  1  0
 12 13  2  0
 13 14  1  0
 14 15  2  0
 15 16  1  0
 16 17  2  0
  9  2  1  0
 17 12  1  0
  1 18  1  0
  1 19  1  0
  1 20  1  0
  4 21  1  0
 10 22  1  0
 10 23  1  0
 11 24  1  0
 11 25  1  0
 13 26  1  0
 14 27  1  0
 15 28  1  0
 16 29  1  0
 17 30  1  0
M  CHG  3   6   1   8  -1  12   1
M  END
>  <meeko>  (8) 
{"is_sidechain": [false], "free_energy": -5.141, "intermolecular_energy": -6.074, "internal_energy": -0.683}

$$$$
LIB_RNNSZIOJHWINFW__M_PUB_ALL__e8__s20260927
     RDKit          3D

 30 31  0  0  0  0  0  0  0  0999 V2000
   -4.9150  -13.2830    0.9680 C   0  0  0  0  0  0  0  0  0  0  0  0
   -4.0980  -12.0820    0.6460 C   0  0  0  0  0  0  0  0  0  0  0  0
   -4.2890  -11.3100   -0.4040 N   0  0  0  0  0  0  0  0  0  0  0  0
   -3.3670  -10.3010   -0.3250 C   0  0  0  0  0  0  0  0  0  0  0  0
   -2.5770  -10.4830    0.7800 C   0  0  0  0  0  0  0  0  0  0  0  0
   -1.4790   -9.6910    1.2090 N   0  0  0  0  0  0  0  0  0  0  0  0
   -0.3760   -9.9540    0.7060 O   0  0  0  0  0  0  0  0  0  0  0  0
   -1.7100   -8.7990    2.0250 O   0  0  0  0  0  0  0  0  0  0  0  0
   -3.0430  -11.6140    1.4090 N   0  0  0  0  0  0  0  0  0  0  0  0
   -2.5780  -12.2100    2.6500 C   0  0  0  0  0  0  0  0  0  0  0  0
   -1.2850  -13.0030    2.4650 C   0  0  0  0  0  0  0  0  0  0  0  0
   -1.5670  -14.2620    1.7320 N   0  0  0  0  0  0  0  0  0  0  0  0
   -1.1690  -14.3980    0.4430 C   0  0  0  0  0  0  0  0  0  0  0  0
   -1.4230  -15.5720   -0.2560 C   0  0  0  0  0  0  0  0  0  0  0  0
   -2.0870  -16.6140    0.3790 C   0  0  0  0  0  0  0  0  0  0  0  0
   -2.4800  -16.4650    1.7020 C   0  0  0  0  0  0  0  0  0  0  0  0
   -2.2060  -15.2750    2.3670 C   0  0  0  0  0  0  0  0  0  0  0  0
   -4.9901  -13.3934    2.0599 H   0  0  0  0  0  0  0  0  0  0  0  0
   -5.9221  -13.1666    0.5411 H   0  0  0  0  0  0  0  0  0  0  0  0
   -4.4369  -14.1769    0.5411 H   0  0  0  0  0  0  0  0  0  0  0  0
   -3.2743   -9.4702   -1.0400 H   0  0  0  0  0  0  0  0  0  0  0  0
   -2.3995  -11.4085    3.3820 H   0  0  0  0  0  0  0  0  0  0  0  0
   -3.3533  -12.9080    2.9987 H   0  0  0  0  0  0  0  0  0  0  0  0
   -0.5658  -12.3999    1.8914 H   0  0  0  0  0  0  0  0  0  0  0  0
   -0.8631  -13.2444    3.4518 H   0  0  0  0  0  0  0  0  0  0  0  0
   -0.6402  -13.5714   -0.0541 H   0  0  0  0  0  0  0  0  0  0  0  0
   -1.1011  -15.6752   -1.3028 H   0  0  0  0  0  0  0  0  0  0  0  0
   -2.2993  -17.5483   -0.1614 H   0  0  0  0  0  0  0  0  0  0  0  0
   -3.0039  -17.2817    2.2201 H   0  0  0  0  0  0  0  0  0  0  0  0
   -2.5103  -15.1546    3.4172 H   0  0  0  0  0  0  0  0  0  0  0  0
  1  2  1  0
  2  3  2  0
  3  4  1  0
  4  5  2  0
  5  6  1  0
  6  7  2  0
  6  8  1  0
  5  9  1  0
  9 10  1  0
 10 11  1  0
 11 12  1  0
 12 13  2  0
 13 14  1  0
 14 15  2  0
 15 16  1  0
 16 17  2  0
  9  2  1  0
 17 12  1  0
  1 18  1  0
  1 19  1  0
  1 20  1  0
  4 21  1  0
 10 22  1  0
 10 23  1  0
 11 24  1  0
 11 25  1  0
 13 26  1  0
 14 27  1  0
 15 28  1  0
 16 29  1  0
 17 30  1  0
M  CHG  3   6   1   8  -1  12   1
M  END
>  <meeko>  (9) 
{"is_sidechain": [false], "free_energy": -5.049, "intermolecular_energy": -5.922, "internal_energy": -0.721}

$$$$
