LIB_CYSDHZJPDQKSJB__M_PUB_ALL__e8__s20260927
     RDKit          3D

 48 52  0  0  0  0  0  0  0  0999 V2000
   12.1780   -3.6340  -13.4570 C   0  0  0  0  0  0  0  0  0  0  0  0
   12.7620   -4.8450  -13.8280 C   0  0  0  0  0  0  0  0  0  0  0  0
   12.5800   -5.9800  -13.0370 C   0  0  0  0  0  0  0  0  0  0  0  0
   11.8160   -5.9130  -11.8640 C   0  0  0  0  0  0  0  0  0  0  0  0
   11.6000   -7.1460  -11.0150 C   0  0  0  0  0  0  0  0  0  0  0  0
   11.2840   -8.3990  -11.8410 C   0  0  0  0  0  0  0  0  0  0  0  0
   11.8450   -9.5980  -11.2550 N   0  0  0  0  0  0  0  0  0  0  0  0
   11.1010  -10.7440  -11.0970 C   0  0  0  0  0  0  0  0  0  0  0  0
    9.7330  -10.7530  -11.2650 N   0  0  0  0  0  0  0  0  0  0  0  0
    8.9620  -11.8760  -11.1170 C   0  0  0  0  0  0  0  0  0  0  0  0
    7.5950  -11.7580  -11.3070 C   0  0  0  0  0  0  0  0  0  0  0  0
    6.7190  -12.8480  -11.1810 C   0  0  0  0  0  0  0  0  0  0  0  0
    7.2050  -14.1120  -10.8540 C   0  0  0  0  0  0  0  0  0  0  0  0
    8.5680  -14.2900  -10.6520 C   0  0  0  0  0  0  0  0  0  0  0  0
    9.4330  -13.1780  -10.7840 C   0  0  0  0  0  0  0  0  0  0  0  0
   10.8340  -13.1510  -10.6220 C   0  0  0  0  0  0  0  0  0  0  0  0
   11.6530  -14.2010  -10.3070 C   0  0  0  0  0  0  0  0  0  0  0  0
   12.9330  -13.6870  -10.2690 N   0  0  0  0  0  0  0  0  0  0  0  0
   14.1430  -14.3850   -9.9860 C   0  0  0  0  0  0  0  0  0  0  0  0
   14.4840  -14.7540   -8.6760 C   0  0  0  0  0  0  0  0  0  0  0  0
   15.6790  -15.4390   -8.4300 C   0  0  0  0  0  0  0  0  0  0  0  0
   16.5360  -15.7590   -9.4810 C   0  0  0  0  0  0  0  0  0  0  0  0
   16.2040  -15.3950  -10.7840 C   0  0  0  0  0  0  0  0  0  0  0  0
   15.0130  -14.7110  -11.0390 C   0  0  0  0  0  0  0  0  0  0  0  0
   12.9570  -12.3560  -10.5490 N   0  0  0  0  0  0  0  0  0  0  0  0
   11.6750  -12.0030  -10.7640 C   0  0  0  0  0  0  0  0  0  0  0  0
   11.2310   -4.6920  -11.5020 C   0  0  0  0  0  0  0  0  0  0  0  0
   11.4120   -3.5580  -12.2960 C   0  0  0  0  0  0  0  0  0  0  0  0
   12.3222   -2.7395  -14.0808 H   0  0  0  0  0  0  0  0  0  0  0  0
   13.3666   -4.9054  -14.7450 H   0  0  0  0  0  0  0  0  0  0  0  0
   13.0393   -6.9337  -13.3361 H   0  0  0  0  0  0  0  0  0  0  0  0
   12.5133   -7.3331  -10.4311 H   0  0  0  0  0  0  0  0  0  0  0  0
   10.7305   -6.9512  -10.3699 H   0  0  0  0  0  0  0  0  0  0  0  0
   10.1920   -8.5142  -11.9056 H   0  0  0  0  0  0  0  0  0  0  0  0
   11.7333   -8.2685  -12.8366 H   0  0  0  0  0  0  0  0  0  0  0  0
   12.8500   -9.6930  -11.1600 H   0  0  0  0  0  0  0  0  0  0  0  0
    7.1800  -10.7729  -11.5665 H   0  0  0  0  0  0  0  0  0  0  0  0
    5.6405  -12.7028  -11.3417 H   0  0  0  0  0  0  0  0  0  0  0  0
    6.5147  -14.9628  -10.7565 H   0  0  0  0  0  0  0  0  0  0  0  0
    8.9689  -15.2811  -10.3932 H   0  0  0  0  0  0  0  0  0  0  0  0
   11.3522  -15.2427  -10.1218 H   0  0  0  0  0  0  0  0  0  0  0  0
   13.8116  -14.5047   -7.8419 H   0  0  0  0  0  0  0  0  0  0  0  0
   15.9433  -15.7264   -7.4016 H   0  0  0  0  0  0  0  0  0  0  0  0
   17.4737  -16.2985   -9.2820 H   0  0  0  0  0  0  0  0  0  0  0  0
   16.8810  -15.6467  -11.6137 H   0  0  0  0  0  0  0  0  0  0  0  0
   14.7553  -14.4263  -12.0698 H   0  0  0  0  0  0  0  0  0  0  0  0
   10.6252   -4.6267  -10.5862 H   0  0  0  0  0  0  0  0  0  0  0  0
   10.9493   -2.6036  -12.0045 H   0  0  0  0  0  0  0  0  0  0  0  0
  1  2  2  0
  2  3  1  0
  3  4  2  0
  4  5  1  0
  5  6  1  0
  6  7  1  0
  7  8  1  0
  8  9  2  0
  9 10  1  0
 10 11  2  0
 11 12  1  0
 12 13  2  0
 13 14  1  0
 14 15  2  0
 15 16  1  0
 16 17  2  0
 17 18  1  0
 18 19  1  0
 19 20  2  0
 20 21  1  0
 21 22  2  0
 22 23  1  0
 23 24  2  0
 18 25  1  0
 25 26  2  0
  4 27  1  0
 27 28  2  0
 28  1  1  0
 26  8  1  0
 15 10  1  0
 26 16  1  0
 24 19  1  0
  1 29  1  0
  2 30  1  0
  3 31  1  0
  5 32  1  0
  5 33  1  0
  6 34  1  0
  6 35  1  0
  7 36  1  0
 11 37  1  0
 12 38  1  0
 13 39  1  0
 14 40  1  0
 17 41  1  0
 20 42  1  0
 21 43  1  0
 22 44  1  0
 23 45  1  0
 24 46  1  0
 27 47  1  0
 28 48  1  0
M  END
>  <meeko>  (1) 
{"is_sidechain": [false], "free_energy": -8.77, "intermolecular_energy": -11.334, "internal_energy": -0.576}

$$$$
LIB_CYSDHZJPDQKSJB__M_PUB_ALL__e8__s20260927
     RDKit          3D

 48 52  0  0  0  0  0  0  0  0999 V2000
   -4.3470  -11.9730    0.1220 C   0  0  0  0  0  0  0  0  0  0  0  0
   -3.8710  -12.3280    1.3830 C   0  0  0  0  0  0  0  0  0  0  0  0
   -2.8500  -11.5860    1.9800 C   0  0  0  0  0  0  0  0  0  0  0  0
   -2.2930  -10.4850    1.3180 C   0  0  0  0  0  0  0  0  0  0  0  0
   -1.2000   -9.6670    1.9690 C   0  0  0  0  0  0  0  0  0  0  0  0
    0.0250   -9.4700    1.0660 C   0  0  0  0  0  0  0  0  0  0  0  0
    0.9520  -10.5770    1.1520 N   0  0  0  0  0  0  0  0  0  0  0  0
    1.0570  -11.5140    0.1490 C   0  0  0  0  0  0  0  0  0  0  0  0
    1.7200  -11.2480   -1.0290 N   0  0  0  0  0  0  0  0  0  0  0  0
    1.8450  -12.1580   -2.0460 C   0  0  0  0  0  0  0  0  0  0  0  0
    2.5310  -11.7710   -3.1860 C   0  0  0  0  0  0  0  0  0  0  0  0
    2.7170  -12.6270   -4.2820 C   0  0  0  0  0  0  0  0  0  0  0  0
    2.2070  -13.9240   -4.2610 C   0  0  0  0  0  0  0  0  0  0  0  0
    1.5110  -14.3670   -3.1440 C   0  0  0  0  0  0  0  0  0  0  0  0
    1.3350  -13.4870   -2.0490 C   0  0  0  0  0  0  0  0  0  0  0  0
    0.6670  -13.7440   -0.8340 C   0  0  0  0  0  0  0  0  0  0  0  0
    0.0490  -14.9050   -0.4560 C   0  0  0  0  0  0  0  0  0  0  0  0
   -0.4500  -14.6750    0.8100 N   0  0  0  0  0  0  0  0  0  0  0  0
   -1.1750  -15.5820    1.6360 C   0  0  0  0  0  0  0  0  0  0  0  0
   -1.2800  -16.9420    1.3110 C   0  0  0  0  0  0  0  0  0  0  0  0
   -1.9990  -17.8080    2.1430 C   0  0  0  0  0  0  0  0  0  0  0  0
   -2.6140  -17.3260    3.2960 C   0  0  0  0  0  0  0  0  0  0  0  0
   -2.5150  -15.9760    3.6250 C   0  0  0  0  0  0  0  0  0  0  0  0
   -1.7990  -15.1050    2.8010 C   0  0  0  0  0  0  0  0  0  0  0  0
   -0.1710  -13.4180    1.2480 N   0  0  0  0  0  0  0  0  0  0  0  0
    0.5100  -12.8240    0.2500 C   0  0  0  0  0  0  0  0  0  0  0  0
   -2.7810  -10.1340    0.0510 C   0  0  0  0  0  0  0  0  0  0  0  0
   -3.8040  -10.8760   -0.5420 C   0  0  0  0  0  0  0  0  0  0  0  0
   -5.1507  -12.5587   -0.3481 H   0  0  0  0  0  0  0  0  0  0  0  0
   -4.3003  -13.1938    1.9085 H   0  0  0  0  0  0  0  0  0  0  0  0
   -2.4807  -11.8682    2.9770 H   0  0  0  0  0  0  0  0  0  0  0  0
   -1.6084   -8.6783    2.2252 H   0  0  0  0  0  0  0  0  0  0  0  0
   -0.8649  -10.2183    2.8599 H   0  0  0  0  0  0  0  0  0  0  0  0
   -0.3149   -9.3729    0.0243 H   0  0  0  0  0  0  0  0  0  0  0  0
    0.5498   -8.5637    1.4025 H   0  0  0  0  0  0  0  0  0  0  0  0
    1.6990  -10.5620    1.8370 H   0  0  0  0  0  0  0  0  0  0  0  0
    2.9458  -10.7533   -3.2336 H   0  0  0  0  0  0  0  0  0  0  0  0
    3.2694  -12.2719   -5.1644 H   0  0  0  0  0  0  0  0  0  0  0  0
    2.3547  -14.5916   -5.1227 H   0  0  0  0  0  0  0  0  0  0  0  0
    1.1020  -15.3876   -3.1104 H   0  0  0  0  0  0  0  0  0  0  0  0
   -0.0333  -15.8324   -1.0418 H   0  0  0  0  0  0  0  0  0  0  0  0
   -0.7969  -17.3286    0.4015 H   0  0  0  0  0  0  0  0  0  0  0  0
   -2.0787  -18.8743    1.8850 H   0  0  0  0  0  0  0  0  0  0  0  0
   -3.1776  -18.0110    3.9465 H   0  0  0  0  0  0  0  0  0  0  0  0
   -3.0015  -15.5955    4.5352 H   0  0  0  0  0  0  0  0  0  0  0  0
   -1.7232  -14.0399    3.0654 H   0  0  0  0  0  0  0  0  0  0  0  0
   -2.3552   -9.2690   -0.4786 H   0  0  0  0  0  0  0  0  0  0  0  0
   -4.1819  -10.5936   -1.5357 H   0  0  0  0  0  0  0  0  0  0  0  0
  1  2  2  0
  2  3  1  0
  3  4  2  0
  4  5  1  0
  5  6  1  0
  6  7  1  0
  7  8  1  0
  8  9  2  0
  9 10  1  0
 10 11  2  0
 11 12  1  0
 12 13  2  0
 13 14  1  0
 14 15  2  0
 15 16  1  0
 16 17  2  0
 17 18  1  0
 18 19  1  0
 19 20  2  0
 20 21  1  0
 21 22  2  0
 22 23  1  0
 23 24  2  0
 18 25  1  0
 25 26  2  0
  4 27  1  0
 27 28  2  0
 28  1  1  0
 26  8  1  0
 15 10  1  0
 26 16  1  0
 24 19  1  0
  1 29  1  0
  2 30  1  0
  3 31  1  0
  5 32  1  0
  5 33  1  0
  6 34  1  0
  6 35  1  0
  7 36  1  0
 11 37  1  0
 12 38  1  0
 13 39  1  0
 14 40  1  0
 17 41  1  0
 20 42  1  0
 21 43  1  0
 22 44  1  0
 23 45  1  0
 24 46  1  0
 27 47  1  0
 28 48  1  0
M  END
>  <meeko>  (2) 
{"is_sidechain": [false], "free_energy": -8.649, "intermolecular_energy": -10.393, "internal_energy": -1.361}

$$$$
LIB_CYSDHZJPDQKSJB__M_PUB_ALL__e8__s20260927
     RDKit          3D

 48 52  0  0  0  0  0  0  0  0999 V2000
    4.3040   -7.3170   13.6100 C   0  0  0  0  0  0  0  0  0  0  0  0
    5.1450   -6.2700   13.2350 C   0  0  0  0  0  0  0  0  0  0  0  0
    6.5200   -6.3640   13.4550 C   0  0  0  0  0  0  0  0  0  0  0  0
    7.0660   -7.5050   14.0580 C   0  0  0  0  0  0  0  0  0  0  0  0
    8.5570   -7.6190   14.2810 C   0  0  0  0  0  0  0  0  0  0  0  0
    9.0830   -9.0520   14.1190 C   0  0  0  0  0  0  0  0  0  0  0  0
   10.5200   -9.1280   14.2660 N   0  0  0  0  0  0  0  0  0  0  0  0
   11.2530  -10.1500   13.7060 C   0  0  0  0  0  0  0  0  0  0  0  0
   10.7880  -11.4470   13.6740 N   0  0  0  0  0  0  0  0  0  0  0  0
   11.4900  -12.4860   13.1230 C   0  0  0  0  0  0  0  0  0  0  0  0
   10.9190  -13.7480   13.1550 C   0  0  0  0  0  0  0  0  0  0  0  0
   11.5540  -14.8780   12.6160 C   0  0  0  0  0  0  0  0  0  0  0  0
   12.8070  -14.7670   12.0180 C   0  0  0  0  0  0  0  0  0  0  0  0
   13.4280  -13.5250   11.9570 C   0  0  0  0  0  0  0  0  0  0  0  0
   12.7700  -12.3990   12.5060 C   0  0  0  0  0  0  0  0  0  0  0  0
   13.2270  -11.0650   12.5420 C   0  0  0  0  0  0  0  0  0  0  0  0
   14.4070  -10.5790   12.0470 C   0  0  0  0  0  0  0  0  0  0  0  0
   14.4000   -9.2240   12.3120 N   0  0  0  0  0  0  0  0  0  0  0  0
   15.4080   -8.2700   11.9900 C   0  0  0  0  0  0  0  0  0  0  0  0
   15.0880   -7.0420   11.3930 C   0  0  0  0  0  0  0  0  0  0  0  0
   16.1000   -6.1260   11.0890 C   0  0  0  0  0  0  0  0  0  0  0  0
   17.4300   -6.4260   11.3760 C   0  0  0  0  0  0  0  0  0  0  0  0
   17.7560   -7.6430   11.9690 C   0  0  0  0  0  0  0  0  0  0  0  0
   16.7520   -8.5630   12.2760 C   0  0  0  0  0  0  0  0  0  0  0  0
   13.2640   -8.8350   12.9510 N   0  0  0  0  0  0  0  0  0  0  0  0
   12.5300   -9.9530   13.1090 C   0  0  0  0  0  0  0  0  0  0  0  0
    6.2120   -8.5530   14.4290 C   0  0  0  0  0  0  0  0  0  0  0  0
    4.8370   -8.4580   14.2050 C   0  0  0  0  0  0  0  0  0  0  0  0
    3.2204   -7.2419   13.4361 H   0  0  0  0  0  0  0  0  0  0  0  0
    4.7242   -5.3688   12.7652 H   0  0  0  0  0  0  0  0  0  0  0  0
    7.1794   -5.5370   13.1531 H   0  0  0  0  0  0  0  0  0  0  0  0
    9.0701   -6.9735   13.5530 H   0  0  0  0  0  0  0  0  0  0  0  0
    8.7577   -7.3115   15.3179 H   0  0  0  0  0  0  0  0  0  0  0  0
    8.6148   -9.6895   14.8835 H   0  0  0  0  0  0  0  0  0  0  0  0
    8.8297   -9.3913   13.1038 H   0  0  0  0  0  0  0  0  0  0  0  0
   11.0420   -8.3200   14.5860 H   0  0  0  0  0  0  0  0  0  0  0  0
    9.9299  -13.8691   13.6208 H   0  0  0  0  0  0  0  0  0  0  0  0
   11.0582  -15.8586   12.6663 H   0  0  0  0  0  0  0  0  0  0  0  0
   13.3012  -15.6552   11.5974 H   0  0  0  0  0  0  0  0  0  0  0  0
   14.4175  -13.4189   11.4883 H   0  0  0  0  0  0  0  0  0  0  0  0
   15.1989  -11.1510   11.5414 H   0  0  0  0  0  0  0  0  0  0  0  0
   14.0400   -6.7991   11.1636 H   0  0  0  0  0  0  0  0  0  0  0  0
   15.8447   -5.1638   10.6210 H   0  0  0  0  0  0  0  0  0  0  0  0
   18.2220   -5.7019   11.1343 H   0  0  0  0  0  0  0  0  0  0  0  0
   18.8060   -7.8797   12.1958 H   0  0  0  0  0  0  0  0  0  0  0  0
   17.0146   -9.5229   12.7446 H   0  0  0  0  0  0  0  0  0  0  0  0
    6.6278   -9.4561   14.8997 H   0  0  0  0  0  0  0  0  0  0  0  0
    4.1741   -9.2852   14.4988 H   0  0  0  0  0  0  0  0  0  0  0  0
  1  2  2  0
  2  3  1  0
  3  4  2  0
  4  5  1  0
  5  6  1  0
  6  7  1  0
  7  8  1  0
  8  9  2  0
  9 10  1  0
 10 11  2  0
 11 12  1  0
 12 13  2  0
 13 14  1  0
 14 15  2  0
 15 16  1  0
 16 17  2  0
 17 18  1  0
 18 19  1  0
 19 20  2  0
 20 21  1  0
 21 22  2  0
 22 23  1  0
 23 24  2  0
 18 25  1  0
 25 26  2  0
  4 27  1  0
 27 28  2  0
 28  1  1  0
 26  8  1  0
 15 10  1  0
 26 16  1  0
 24 19  1  0
  1 29  1  0
  2 30  1  0
  3 31  1  0
  5 32  1  0
  5 33  1  0
  6 34  1  0
  6 35  1  0
  7 36  1  0
 11 37  1  0
 12 38  1  0
 13 39  1  0
 14 40  1  0
 17 41  1  0
 20 42  1  0
 21 43  1  0
 22 44  1  0
 23 45  1  0
 24 46  1  0
 27 47  1  0
 28 48  1  0
M  END
>  <meeko>  (3) 
{"is_sidechain": [false], "free_energy": -8.563, "intermolecular_energy": -11.082, "internal_energy": -0.56}

$$$$
LIB_CYSDHZJPDQKSJB__M_PUB_ALL__e8__s20260927
     RDKit          3D

 48 52  0  0  0  0  0  0  0  0999 V2000
    2.1320  -11.1420   -2.9500 C   0  0  0  0  0  0  0  0  0  0  0  0
    2.1750  -12.5320   -3.0510 C   0  0  0  0  0  0  0  0  0  0  0  0
    2.9460  -13.1380   -4.0440 C   0  0  0  0  0  0  0  0  0  0  0  0
    3.6770  -12.3580   -4.9490 C   0  0  0  0  0  0  0  0  0  0  0  0
    4.5290  -13.0110   -6.0150 C   0  0  0  0  0  0  0  0  0  0  0  0
    5.7950  -13.6720   -5.4530 C   0  0  0  0  0  0  0  0  0  0  0  0
    6.7460  -12.7020   -4.9550 N   0  0  0  0  0  0  0  0  0  0  0  0
    7.0500  -12.6060   -3.6160 C   0  0  0  0  0  0  0  0  0  0  0  0
    6.0700  -12.5690   -2.6480 N   0  0  0  0  0  0  0  0  0  0  0  0
    6.3380  -12.4770   -1.3070 C   0  0  0  0  0  0  0  0  0  0  0  0
    5.2670  -12.4430   -0.4290 C   0  0  0  0  0  0  0  0  0  0  0  0
    5.4340  -12.3510    0.9620 C   0  0  0  0  0  0  0  0  0  0  0  0
    6.7090  -12.2910    1.5190 C   0  0  0  0  0  0  0  0  0  0  0  0
    7.8210  -12.3210    0.6860 C   0  0  0  0  0  0  0  0  0  0  0  0
    7.6310  -12.4140   -0.7130 C   0  0  0  0  0  0  0  0  0  0  0  0
    8.6190  -12.4600   -1.7170 C   0  0  0  0  0  0  0  0  0  0  0  0
    9.9770  -12.4280   -1.5470 C   0  0  0  0  0  0  0  0  0  0  0  0
   10.5200  -12.5040   -2.8130 N   0  0  0  0  0  0  0  0  0  0  0  0
   11.9010  -12.5100   -3.1680 C   0  0  0  0  0  0  0  0  0  0  0  0
   12.8200  -11.6560   -2.5400 C   0  0  0  0  0  0  0  0  0  0  0  0
   14.1690  -11.6860   -2.9100 C   0  0  0  0  0  0  0  0  0  0  0  0
   14.6080  -12.5610   -3.9020 C   0  0  0  0  0  0  0  0  0  0  0  0
   13.7010  -13.4110   -4.5300 C   0  0  0  0  0  0  0  0  0  0  0  0
   12.3520  -13.3880   -4.1660 C   0  0  0  0  0  0  0  0  0  0  0  0
    9.5630  -12.5850   -3.7750 N   0  0  0  0  0  0  0  0  0  0  0  0
    8.3850  -12.5530   -3.1250 C   0  0  0  0  0  0  0  0  0  0  0  0
    3.6290  -10.9610   -4.8370 C   0  0  0  0  0  0  0  0  0  0  0  0
    2.8600  -10.3580   -3.8420 C   0  0  0  0  0  0  0  0  0  0  0  0
    1.5240  -10.6652   -2.1670 H   0  0  0  0  0  0  0  0  0  0  0  0
    1.6004  -13.1518   -2.3470 H   0  0  0  0  0  0  0  0  0  0  0  0
    2.9798  -14.2351   -4.1164 H   0  0  0  0  0  0  0  0  0  0  0  0
    3.9276  -13.7805   -6.5211 H   0  0  0  0  0  0  0  0  0  0  0  0
    4.8520  -12.2194   -6.7071 H   0  0  0  0  0  0  0  0  0  0  0  0
    5.5083  -14.3417   -4.6288 H   0  0  0  0  0  0  0  0  0  0  0  0
    6.2771  -14.2262   -6.2718 H   0  0  0  0  0  0  0  0  0  0  0  0
    7.3730  -12.2310   -5.5960 H   0  0  0  0  0  0  0  0  0  0  0  0
    4.2467  -12.4899   -0.8373 H   0  0  0  0  0  0  0  0  0  0  0  0
    4.5507  -12.3261    1.6171 H   0  0  0  0  0  0  0  0  0  0  0  0
    6.8349  -12.2204    2.6095 H   0  0  0  0  0  0  0  0  0  0  0  0
    8.8354  -12.2731    1.1087 H   0  0  0  0  0  0  0  0  0  0  0  0
   10.5237  -12.3563   -0.5952 H   0  0  0  0  0  0  0  0  0  0  0  0
   12.4799  -10.9627   -1.7566 H   0  0  0  0  0  0  0  0  0  0  0  0
   14.8870  -11.0154   -2.4153 H   0  0  0  0  0  0  0  0  0  0  0  0
   15.6698  -12.5802   -4.1886 H   0  0  0  0  0  0  0  0  0  0  0  0
   14.0469  -14.1013   -5.3135 H   0  0  0  0  0  0  0  0  0  0  0  0
   11.6395  -14.0618   -4.6644 H   0  0  0  0  0  0  0  0  0  0  0  0
    4.2017  -10.3366   -5.5386 H   0  0  0  0  0  0  0  0  0  0  0  0
    2.8283   -9.2614   -3.7615 H   0  0  0  0  0  0  0  0  0  0  0  0
  1  2  2  0
  2  3  1  0
  3  4  2  0
  4  5  1  0
  5  6  1  0
  6  7  1  0
  7  8  1  0
  8  9  2  0
  9 10  1  0
 10 11  2  0
 11 12  1  0
 12 13  2  0
 13 14  1  0
 14 15  2  0
 15 16  1  0
 16 17  2  0
 17 18  1  0
 18 19  1  0
 19 20  2  0
 20 21  1  0
 21 22  2  0
 22 23  1  0
 23 24  2  0
 18 25  1  0
 25 26  2  0
  4 27  1  0
 27 28  2  0
 28  1  1  0
 26  8  1  0
 15 10  1  0
 26 16  1  0
 24 19  1  0
  1 29  1  0
  2 30  1  0
  3 31  1  0
  5 32  1  0
  5 33  1  0
  6 34  1  0
  6 35  1  0
  7 36  1  0
 11 37  1  0
 12 38  1  0
 13 39  1  0
 14 40  1  0
 17 41  1  0
 20 42  1  0
 21 43  1  0
 22 44  1  0
 23 45  1  0
 24 46  1  0
 27 47  1  0
 28 48  1  0
M  END
>  <meeko>  (4) 
{"is_sidechain": [false], "free_energy": -8.269, "intermolecular_energy": -10.221, "internal_energy": -1.041}

$$$$
LIB_CYSDHZJPDQKSJB__M_PUB_ALL__e8__s20260927
     RDKit          3D

 48 52  0  0  0  0  0  0  0  0999 V2000
   -3.1850  -14.6180    1.4660 C   0  0  0  0  0  0  0  0  0  0  0  0
   -2.6730  -14.7190    0.1730 C   0  0  0  0  0  0  0  0  0  0  0  0
   -1.4110  -15.2760   -0.0380 C   0  0  0  0  0  0  0  0  0  0  0  0
   -0.6470  -15.7330    1.0440 C   0  0  0  0  0  0  0  0  0  0  0  0
    0.7130  -16.3550    0.8180 C   0  0  0  0  0  0  0  0  0  0  0  0
    1.2340  -16.1620   -0.6130 C   0  0  0  0  0  0  0  0  0  0  0  0
    2.4170  -15.3300   -0.6570 N   0  0  0  0  0  0  0  0  0  0  0  0
    2.4300  -14.1220   -1.3170 C   0  0  0  0  0  0  0  0  0  0  0  0
    3.0860  -13.9560   -2.5170 N   0  0  0  0  0  0  0  0  0  0  0  0
    3.1170  -12.7690   -3.2020 C   0  0  0  0  0  0  0  0  0  0  0  0
    3.8140  -12.7240   -4.3980 C   0  0  0  0  0  0  0  0  0  0  0  0
    3.9040  -11.5590   -5.1750 C   0  0  0  0  0  0  0  0  0  0  0  0
    3.2830  -10.3830   -4.7620 C   0  0  0  0  0  0  0  0  0  0  0  0
    2.5690  -10.3680   -3.5690 C   0  0  0  0  0  0  0  0  0  0  0  0
    2.4900  -11.5540   -2.8010 C   0  0  0  0  0  0  0  0  0  0  0  0
    1.8200  -11.7450   -1.5750 C   0  0  0  0  0  0  0  0  0  0  0  0
    1.0980  -10.8200   -0.8720 C   0  0  0  0  0  0  0  0  0  0  0  0
    0.6320  -11.4740    0.2500 N   0  0  0  0  0  0  0  0  0  0  0  0
   -0.1740  -10.9400    1.2970 C   0  0  0  0  0  0  0  0  0  0  0  0
   -0.5320   -9.5840    1.3230 C   0  0  0  0  0  0  0  0  0  0  0  0
   -1.3250   -9.0890    2.3640 C   0  0  0  0  0  0  0  0  0  0  0  0
   -1.7640   -9.9370    3.3790 C   0  0  0  0  0  0  0  0  0  0  0  0
   -1.4120  -11.2840    3.3600 C   0  0  0  0  0  0  0  0  0  0  0  0
   -0.6210  -11.7870    2.3240 C   0  0  0  0  0  0  0  0  0  0  0  0
    1.0270  -12.7750    0.2830 N   0  0  0  0  0  0  0  0  0  0  0  0
    1.7650  -12.9630   -0.8280 C   0  0  0  0  0  0  0  0  0  0  0  0
   -1.1720  -15.6300    2.3400 C   0  0  0  0  0  0  0  0  0  0  0  0
   -2.4350  -15.0750    2.5480 C   0  0  0  0  0  0  0  0  0  0  0  0
   -4.1795  -14.1782    1.6318 H   0  0  0  0  0  0  0  0  0  0  0  0
   -3.2646  -14.3592   -0.6818 H   0  0  0  0  0  0  0  0  0  0  0  0
   -1.0134  -15.3568   -1.0604 H   0  0  0  0  0  0  0  0  0  0  0  0
    1.4284  -15.8953    1.5158 H   0  0  0  0  0  0  0  0  0  0  0  0
    0.6104  -17.4372    0.9862 H   0  0  0  0  0  0  0  0  0  0  0  0
    1.4780  -17.1473   -1.0369 H   0  0  0  0  0  0  0  0  0  0  0  0
    0.4465  -15.6598   -1.1940 H   0  0  0  0  0  0  0  0  0  0  0  0
    3.1850  -15.5060   -0.0190 H   0  0  0  0  0  0  0  0  0  0  0  0
    4.3162  -13.6363   -4.7523 H   0  0  0  0  0  0  0  0  0  0  0  0
    4.4698  -11.5748   -6.1182 H   0  0  0  0  0  0  0  0  0  0  0  0
    3.3568   -9.4727   -5.3750 H   0  0  0  0  0  0  0  0  0  0  0  0
    2.0728   -9.4477   -3.2272 H   0  0  0  0  0  0  0  0  0  0  0  0
    0.9243   -9.7688   -1.1455 H   0  0  0  0  0  0  0  0  0  0  0  0
   -0.1891   -8.9095    0.5246 H   0  0  0  0  0  0  0  0  0  0  0  0
   -1.6034   -8.0250    2.3814 H   0  0  0  0  0  0  0  0  0  0  0  0
   -2.3880   -9.5425    4.1945 H   0  0  0  0  0  0  0  0  0  0  0  0
   -1.7572  -11.9532    4.1619 H   0  0  0  0  0  0  0  0  0  0  0  0
   -0.3469  -12.8522    2.3128 H   0  0  0  0  0  0  0  0  0  0  0  0
   -0.5845  -15.9889    3.1979 H   0  0  0  0  0  0  0  0  0  0  0  0
   -2.8396  -14.9980    3.5680 H   0  0  0  0  0  0  0  0  0  0  0  0
  1  2  2  0
  2  3  1  0
  3  4  2  0
  4  5  1  0
  5  6  1  0
  6  7  1  0
  7  8  1  0
  8  9  2  0
  9 10  1  0
 10 11  2  0
 11 12  1  0
 12 13  2  0
 13 14  1  0
 14 15  2  0
 15 16  1  0
 16 17  2  0
 17 18  1  0
 18 19  1  0
 19 20  2  0
 20 21  1  0
 21 22  2  0
 22 23  1  0
 23 24  2  0
 18 25  1  0
 25 26  2  0
  4 27  1  0
 27 28  2  0
 28  1  1  0
 26  8  1  0
 15 10  1  0
 26 16  1  0
 24 19  1  0
  1 29  1  0
  2 30  1  0
  3 31  1  0
  5 32  1  0
  5 33  1  0
  6 34  1  0
  6 35  1  0
  7 36  1  0
 11 37  1  0
 12 38  1  0
 13 39  1  0
 14 40  1  0
 17 41  1  0
 20 42  1  0
 21 43  1  0
 22 44  1  0
 23 45  1  0
 24 46  1  0
 27 47  1  0
 28 48  1  0
M  END
>  <meeko>  (5) 
{"is_sidechain": [false], "free_energy": -8.093, "intermolecular_energy": -9.52, "internal_energy": -1.516}

$$$$
LIB_CYSDHZJPDQKSJB__M_PUB_ALL__e8__s20260927
     RDKit          3D

 48 52  0  0  0  0  0  0  0  0999 V2000
    6.7310  -13.0020    1.4790 C   0  0  0  0  0  0  0  0  0  0  0  0
    5.5760  -12.8720    2.2490 C   0  0  0  0  0  0  0  0  0  0  0  0
    4.5150  -13.7620    2.0750 C   0  0  0  0  0  0  0  0  0  0  0  0
    4.5980  -14.7870    1.1240 C   0  0  0  0  0  0  0  0  0  0  0  0
    3.4590  -15.7660    0.9460 C   0  0  0  0  0  0  0  0  0  0  0  0
    2.3010  -15.5280    1.9240 C   0  0  0  0  0  0  0  0  0  0  0  0
    1.0930  -15.1020    1.2510 N   0  0  0  0  0  0  0  0  0  0  0  0
    0.7020  -13.7830    1.2280 C   0  0  0  0  0  0  0  0  0  0  0  0
   -0.0480  -13.2280    2.2420 N   0  0  0  0  0  0  0  0  0  0  0  0
   -0.4520  -11.9190    2.2520 C   0  0  0  0  0  0  0  0  0  0  0  0
   -1.2080  -11.4780    3.3260 C   0  0  0  0  0  0  0  0  0  0  0  0
   -1.6690  -10.1570    3.4320 C   0  0  0  0  0  0  0  0  0  0  0  0
   -1.3750   -9.2230    2.4410 C   0  0  0  0  0  0  0  0  0  0  0  0
   -0.6200   -9.6090    1.3400 C   0  0  0  0  0  0  0  0  0  0  0  0
   -0.1650  -10.9460    1.2530 C   0  0  0  0  0  0  0  0  0  0  0  0
    0.6080  -11.5290    0.2280 C   0  0  0  0  0  0  0  0  0  0  0  0
    1.0870  -10.9190   -0.9000 C   0  0  0  0  0  0  0  0  0  0  0  0
    1.7870  -11.8880   -1.5890 N   0  0  0  0  0  0  0  0  0  0  0  0
    2.4770  -11.7470   -2.8280 C   0  0  0  0  0  0  0  0  0  0  0  0
    2.9610  -12.8640   -3.5250 C   0  0  0  0  0  0  0  0  0  0  0  0
    3.6350  -12.6930   -4.7390 C   0  0  0  0  0  0  0  0  0  0  0  0
    3.8290  -11.4160   -5.2630 C   0  0  0  0  0  0  0  0  0  0  0  0
    3.3510  -10.3030   -4.5760 C   0  0  0  0  0  0  0  0  0  0  0  0
    2.6780  -10.4640   -3.3630 C   0  0  0  0  0  0  0  0  0  0  0  0
    1.7730  -13.0840   -0.9420 N   0  0  0  0  0  0  0  0  0  0  0  0
    1.0480  -12.8890    0.1760 C   0  0  0  0  0  0  0  0  0  0  0  0
    5.7650  -14.9110    0.3570 C   0  0  0  0  0  0  0  0  0  0  0  0
    6.8250  -14.0210    0.5340 C   0  0  0  0  0  0  0  0  0  0  0  0
    7.5670  -12.3007    1.6176 H   0  0  0  0  0  0  0  0  0  0  0  0
    5.5008  -12.0669    2.9947 H   0  0  0  0  0  0  0  0  0  0  0  0
    3.6080  -13.6578    2.6885 H   0  0  0  0  0  0  0  0  0  0  0  0
    3.0748  -15.6729   -0.0805 H   0  0  0  0  0  0  0  0  0  0  0  0
    3.8568  -16.7715    1.1478 H   0  0  0  0  0  0  0  0  0  0  0  0
    2.0945  -16.4647    2.4625 H   0  0  0  0  0  0  0  0  0  0  0  0
    2.6025  -14.7262    2.6141 H   0  0  0  0  0  0  0  0  0  0  0  0
    0.6330  -15.7220    0.5940 H   0  0  0  0  0  0  0  0  0  0  0  0
   -1.4563  -12.1907    4.1262 H   0  0  0  0  0  0  0  0  0  0  0  0
   -2.2674   -9.8564    4.3047 H   0  0  0  0  0  0  0  0  0  0  0  0
   -1.7376   -8.1882    2.5293 H   0  0  0  0  0  0  0  0  0  0  0  0
   -0.3795   -8.8853    0.5473 H   0  0  0  0  0  0  0  0  0  0  0  0
    0.9431   -9.8696   -1.1968 H   0  0  0  0  0  0  0  0  0  0  0  0
    2.8106  -13.8744   -3.1170 H   0  0  0  0  0  0  0  0  0  0  0  0
    4.0138  -13.5709   -5.2828 H   0  0  0  0  0  0  0  0  0  0  0  0
    4.3591  -11.2876   -6.2182 H   0  0  0  0  0  0  0  0  0  0  0  0
    3.5038   -9.2952   -4.9895 H   0  0  0  0  0  0  0  0  0  0  0  0
    2.3034   -9.5815   -2.8238 H   0  0  0  0  0  0  0  0  0  0  0  0
    5.8455  -15.7152   -0.3892 H   0  0  0  0  0  0  0  0  0  0  0  0
    7.7361  -14.1242   -0.0736 H   0  0  0  0  0  0  0  0  0  0  0  0
  1  2  2  0
  2  3  1  0
  3  4  2  0
  4  5  1  0
  5  6  1  0
  6  7  1  0
  7  8  1  0
  8  9  2  0
  9 10  1  0
 10 11  2  0
 11 12  1  0
 12 13  2  0
 13 14  1  0
 14 15  2  0
 15 16  1  0
 16 17  2  0
 17 18  1  0
 18 19  1  0
 19 20  2  0
 20 21  1  0
 21 22  2  0
 22 23  1  0
 23 24  2  0
 18 25  1  0
 25 26  2  0
  4 27  1  0
 27 28  2  0
 28  1  1  0
 26  8  1  0
 15 10  1  0
 26 16  1  0
 24 19  1  0
  1 29  1  0
  2 30  1  0
  3 31  1  0
  5 32  1  0
  5 33  1  0
  6 34  1  0
  6 35  1  0
  7 36  1  0
 11 37  1  0
 12 38  1  0
 13 39  1  0
 14 40  1  0
 17 41  1  0
 20 42  1  0
 21 43  1  0
 22 44  1  0
 23 45  1  0
 24 46  1  0
 27 47  1  0
 28 48  1  0
M  END
>  <meeko>  (6) 
{"is_sidechain": [false], "free_energy": -8.061, "intermolecular_energy": -9.831, "internal_energy": -1.163}

$$$$
LIB_CYSDHZJPDQKSJB__M_PUB_ALL__e8__s20260927
     RDKit          3D

 48 52  0  0  0  0  0  0  0  0999 V2000
    7.3960  -10.9290    0.8950 C   0  0  0  0  0  0  0  0  0  0  0  0
    7.9340  -12.2130    0.8240 C   0  0  0  0  0  0  0  0  0  0  0  0
    7.1360  -13.3220    1.1060 C   0  0  0  0  0  0  0  0  0  0  0  0
    5.7930  -13.1570    1.4660 C   0  0  0  0  0  0  0  0  0  0  0  0
    4.9190  -14.3580    1.7530 C   0  0  0  0  0  0  0  0  0  0  0  0
    4.6480  -15.2170    0.5100 C   0  0  0  0  0  0  0  0  0  0  0  0
    3.3520  -14.9430   -0.0730 N   0  0  0  0  0  0  0  0  0  0  0  0
    3.1350  -13.8470   -0.8760 C   0  0  0  0  0  0  0  0  0  0  0  0
    3.7490  -13.7090   -2.1020 N   0  0  0  0  0  0  0  0  0  0  0  0
    3.5540  -12.6320   -2.9260 C   0  0  0  0  0  0  0  0  0  0  0  0
    4.2320  -12.6040   -4.1340 C   0  0  0  0  0  0  0  0  0  0  0  0
    4.1000  -11.5480   -5.0490 C   0  0  0  0  0  0  0  0  0  0  0  0
    3.2640  -10.4700   -4.7700 C   0  0  0  0  0  0  0  0  0  0  0  0
    2.5580  -10.4440   -3.5730 C   0  0  0  0  0  0  0  0  0  0  0  0
    2.7050  -11.5180   -2.6640 C   0  0  0  0  0  0  0  0  0  0  0  0
    2.0810  -11.6800   -1.4100 C   0  0  0  0  0  0  0  0  0  0  0  0
    1.1930  -10.8290   -0.8090 C   0  0  0  0  0  0  0  0  0  0  0  0
    0.8590  -11.4160    0.3940 N   0  0  0  0  0  0  0  0  0  0  0  0
   -0.0380  -10.9190    1.3840 C   0  0  0  0  0  0  0  0  0  0  0  0
   -0.4650   -9.5840    1.3780 C   0  0  0  0  0  0  0  0  0  0  0  0
   -1.3460   -9.1260    2.3640 C   0  0  0  0  0  0  0  0  0  0  0  0
   -1.8030   -9.9910    3.3560 C   0  0  0  0  0  0  0  0  0  0  0  0
   -1.3820  -11.3180    3.3690 C   0  0  0  0  0  0  0  0  0  0  0  0
   -0.5030  -11.7840    2.3890 C   0  0  0  0  0  0  0  0  0  0  0  0
    1.4960  -12.6040    0.5770 N   0  0  0  0  0  0  0  0  0  0  0  0
    2.2580  -12.7840   -0.5180 C   0  0  0  0  0  0  0  0  0  0  0  0
    5.2600  -11.8620    1.5320 C   0  0  0  0  0  0  0  0  0  0  0  0
    6.0590  -10.7540    1.2470 C   0  0  0  0  0  0  0  0  0  0  0  0
    8.0260  -10.0549    0.6734 H   0  0  0  0  0  0  0  0  0  0  0  0
    8.9890  -12.3519    0.5453 H   0  0  0  0  0  0  0  0  0  0  0  0
    7.5649  -14.3331    1.0451 H   0  0  0  0  0  0  0  0  0  0  0  0
    5.4193  -14.9826    2.5078 H   0  0  0  0  0  0  0  0  0  0  0  0
    3.9489  -13.9801    2.1081 H   0  0  0  0  0  0  0  0  0  0  0  0
    5.4249  -15.0090   -0.2404 H   0  0  0  0  0  0  0  0  0  0  0  0
    4.6622  -16.2724    0.8197 H   0  0  0  0  0  0  0  0  0  0  0  0
    2.6420  -15.6660   -0.0920 H   0  0  0  0  0  0  0  0  0  0  0  0
    4.8993  -13.4415   -4.3855 H   0  0  0  0  0  0  0  0  0  0  0  0
    4.6617  -11.5722   -5.9945 H   0  0  0  0  0  0  0  0  0  0  0  0
    3.1631   -9.6455   -5.4912 H   0  0  0  0  0  0  0  0  0  0  0  0
    1.8940   -9.5998   -3.3357 H   0  0  0  0  0  0  0  0  0  0  0  0
    0.8215   -9.8722   -1.2046 H   0  0  0  0  0  0  0  0  0  0  0  0
   -0.1074   -8.8960    0.5978 H   0  0  0  0  0  0  0  0  0  0  0  0
   -1.6794   -8.0778    2.3558 H   0  0  0  0  0  0  0  0  0  0  0  0
   -2.4959   -9.6258    4.1283 H   0  0  0  0  0  0  0  0  0  0  0  0
   -1.7424  -12.0006    4.1526 H   0  0  0  0  0  0  0  0  0  0  0  0
   -0.1731  -12.8332    2.4039 H   0  0  0  0  0  0  0  0  0  0  0  0
    4.2055  -11.7184    1.8102 H   0  0  0  0  0  0  0  0  0  0  0  0
    5.6330   -9.7412    1.3002 H   0  0  0  0  0  0  0  0  0  0  0  0
  1  2  2  0
  2  3  1  0
  3  4  2  0
  4  5  1  0
  5  6  1  0
  6  7  1  0
  7  8  1  0
  8  9  2  0
  9 10  1  0
 10 11  2  0
 11 12  1  0
 12 13  2  0
 13 14  1  0
 14 15  2  0
 15 16  1  0
 16 17  2  0
 17 18  1  0
 18 19  1  0
 19 20  2  0
 20 21  1  0
 21 22  2  0
 22 23  1  0
 23 24  2  0
 18 25  1  0
 25 26  2  0
  4 27  1  0
 27 28  2  0
 28  1  1  0
 26  8  1  0
 15 10  1  0
 26 16  1  0
 24 19  1  0
  1 29  1  0
  2 30  1  0
  3 31  1  0
  5 32  1  0
  5 33  1  0
  6 34  1  0
  6 35  1  0
  7 36  1  0
 11 37  1  0
 12 38  1  0
 13 39  1  0
 14 40  1  0
 17 41  1  0
 20 42  1  0
 21 43  1  0
 22 44  1  0
 23 45  1  0
 24 46  1  0
 27 47  1  0
 28 48  1  0
M  END
>  <meeko>  (7) 
{"is_sidechain": [false], "free_energy": -8.051, "intermolecular_energy": -9.811, "internal_energy": -1.171}

$$$$
LIB_CYSDHZJPDQKSJB__M_PUB_ALL__e8__s20260927
     RDKit          3D

 48 52  0  0  0  0  0  0  0  0999 V2000
    1.5270  -16.0880    3.9480 C   0  0  0  0  0  0  0  0  0  0  0  0
    2.0420  -14.9100    3.4080 C   0  0  0  0  0  0  0  0  0  0  0  0
    2.6980  -14.9340    2.1770 C   0  0  0  0  0  0  0  0  0  0  0  0
    2.8510  -16.1370    1.4760 C   0  0  0  0  0  0  0  0  0  0  0  0
    3.5440  -16.1630    0.1330 C   0  0  0  0  0  0  0  0  0  0  0  0
    2.6570  -16.7150   -0.9920 C   0  0  0  0  0  0  0  0  0  0  0  0
    1.5930  -15.8020   -1.3480 N   0  0  0  0  0  0  0  0  0  0  0  0
    1.8510  -14.5450   -1.8460 C   0  0  0  0  0  0  0  0  0  0  0  0
    2.5570  -14.3560   -3.0140 N   0  0  0  0  0  0  0  0  0  0  0  0
    2.8300  -13.1200   -3.5390 C   0  0  0  0  0  0  0  0  0  0  0  0
    3.5540  -13.0570   -4.7190 C   0  0  0  0  0  0  0  0  0  0  0  0
    3.8830  -11.8420   -5.3380 C   0  0  0  0  0  0  0  0  0  0  0  0
    3.4860  -10.6310   -4.7770 C   0  0  0  0  0  0  0  0  0  0  0  0
    2.7580  -10.6320   -3.5940 C   0  0  0  0  0  0  0  0  0  0  0  0
    2.4360  -11.8680   -2.9850 C   0  0  0  0  0  0  0  0  0  0  0  0
    1.7100  -12.0820   -1.7950 C   0  0  0  0  0  0  0  0  0  0  0  0
    1.1590  -11.1320   -0.9780 C   0  0  0  0  0  0  0  0  0  0  0  0
    0.5480  -11.8220    0.0490 N   0  0  0  0  0  0  0  0  0  0  0  0
   -0.1690  -11.2810    1.1550 C   0  0  0  0  0  0  0  0  0  0  0  0
   -0.5260  -12.0760    2.2540 C   0  0  0  0  0  0  0  0  0  0  0  0
   -1.2290  -11.5150    3.3250 C   0  0  0  0  0  0  0  0  0  0  0  0
   -1.5800  -10.1660    3.3080 C   0  0  0  0  0  0  0  0  0  0  0  0
   -1.2290   -9.3710    2.2200 C   0  0  0  0  0  0  0  0  0  0  0  0
   -0.5270   -9.9230    1.1470 C   0  0  0  0  0  0  0  0  0  0  0  0
    0.6880  -13.1680   -0.0870 N   0  0  0  0  0  0  0  0  0  0  0  0
    1.4050  -13.3510   -1.2120 C   0  0  0  0  0  0  0  0  0  0  0  0
    2.3270  -17.3150    2.0260 C   0  0  0  0  0  0  0  0  0  0  0  0
    1.6690  -17.2890    3.2570 C   0  0  0  0  0  0  0  0  0  0  0  0
    1.0093  -16.0688    4.9184 H   0  0  0  0  0  0  0  0  0  0  0  0
    1.9309  -13.9610    3.9531 H   0  0  0  0  0  0  0  0  0  0  0  0
    3.0982  -14.0010    1.7536 H   0  0  0  0  0  0  0  0  0  0  0  0
    3.8413  -15.1365   -0.1274 H   0  0  0  0  0  0  0  0  0  0  0  0
    4.4119  -16.8326    0.2247 H   0  0  0  0  0  0  0  0  0  0  0  0
    3.2815  -16.8943   -1.8796 H   0  0  0  0  0  0  0  0  0  0  0  0
    2.1958  -17.6464   -0.6316 H   0  0  0  0  0  0  0  0  0  0  0  0
    0.6440  -16.1440   -1.4550 H   0  0  0  0  0  0  0  0  0  0  0  0
    3.8833  -13.9958   -5.1882 H   0  0  0  0  0  0  0  0  0  0  0  0
    4.4596  -11.8459   -6.2747 H   0  0  0  0  0  0  0  0  0  0  0  0
    3.7468   -9.6812   -5.2667 H   0  0  0  0  0  0  0  0  0  0  0  0
    2.4361   -9.6847   -3.1368 H   0  0  0  0  0  0  0  0  0  0  0  0
    1.1958  -10.0409   -1.1127 H   0  0  0  0  0  0  0  0  0  0  0  0
   -0.2529  -13.1414    2.2735 H   0  0  0  0  0  0  0  0  0  0  0  0
   -1.5065  -12.1416    4.1854 H   0  0  0  0  0  0  0  0  0  0  0  0
   -2.1334   -9.7302    4.1528 H   0  0  0  0  0  0  0  0  0  0  0  0
   -1.5053   -8.3064    2.2060 H   0  0  0  0  0  0  0  0  0  0  0  0
   -0.2526   -9.2904    0.2900 H   0  0  0  0  0  0  0  0  0  0  0  0
    2.4349  -18.2662    1.4841 H   0  0  0  0  0  0  0  0  0  0  0  0
    1.2621  -18.2184    3.6819 H   0  0  0  0  0  0  0  0  0  0  0  0
  1  2  2  0
  2  3  1  0
  3  4  2  0
  4  5  1  0
  5  6  1  0
  6  7  1  0
  7  8  1  0
  8  9  2  0
  9 10  1  0
 10 11  2  0
 11 12  1  0
 12 13  2  0
 13 14  1  0
 14 15  2  0
 15 16  1  0
 16 17  2  0
 17 18  1  0
 18 19  1  0
 19 20  2  0
 20 21  1  0
 21 22  2  0
 22 23  1  0
 23 24  2  0
 18 25  1  0
 25 26  2  0
  4 27  1  0
 27 28  2  0
 28  1  1  0
 26  8  1  0
 15 10  1  0
 26 16  1  0
 24 19  1  0
  1 29  1  0
  2 30  1  0
  3 31  1  0
  5 32  1  0
  5 33  1  0
  6 34  1  0
  6 35  1  0
  7 36  1  0
 11 37  1  0
 12 38  1  0
 13 39  1  0
 14 40  1  0
 17 41  1  0
 20 42  1  0
 21 43  1  0
 22 44  1  0
 23 45  1  0
 24 46  1  0
 27 47  1  0
 28 48  1  0
M  END
>  <meeko>  (8) 
{"is_sidechain": [false], "free_energy": -8.008, "intermolecular_energy": -9.676, "internal_energy": -1.249}

$$$$
LIB_CYSDHZJPDQKSJB__M_PUB_ALL__e8__s20260927
     RDKit          3D

 48 52  0  0  0  0  0  0  0  0999 V2000
  -10.0810  -16.5040    6.7500 C   0  0  0  0  0  0  0  0  0  0  0  0
   -9.9070  -16.5340    5.3660 C   0  0  0  0  0  0  0  0  0  0  0  0
   -8.7200  -16.0670    4.8000 C   0  0  0  0  0  0  0  0  0  0  0  0
   -7.6980  -15.5600    5.6120 C   0  0  0  0  0  0  0  0  0  0  0  0
   -6.4020  -15.0710    5.0040 C   0  0  0  0  0  0  0  0  0  0  0  0
   -5.1790  -15.8730    5.4670 C   0  0  0  0  0  0  0  0  0  0  0  0
   -4.5590  -16.6030    4.3820 N   0  0  0  0  0  0  0  0  0  0  0  0
   -3.2360  -16.4230    4.0490 C   0  0  0  0  0  0  0  0  0  0  0  0
   -2.2470  -17.2610    4.5190 N   0  0  0  0  0  0  0  0  0  0  0  0
   -0.9210  -17.1120    4.2060 C   0  0  0  0  0  0  0  0  0  0  0  0
   -0.0190  -18.0160    4.7430 C   0  0  0  0  0  0  0  0  0  0  0  0
    1.3580  -17.9520    4.4830 C   0  0  0  0  0  0  0  0  0  0  0  0
    1.8770  -16.9570    3.6580 C   0  0  0  0  0  0  0  0  0  0  0  0
    1.0190  -16.0230    3.0900 C   0  0  0  0  0  0  0  0  0  0  0  0
   -0.3660  -16.1050    3.3650 C   0  0  0  0  0  0  0  0  0  0  0  0
   -1.3930  -15.2630    2.8900 C   0  0  0  0  0  0  0  0  0  0  0  0
   -1.2620  -14.1860    2.0550 C   0  0  0  0  0  0  0  0  0  0  0  0
   -2.5360  -13.6900    1.8720 N   0  0  0  0  0  0  0  0  0  0  0  0
   -2.9290  -12.5720    1.0800 C   0  0  0  0  0  0  0  0  0  0  0  0
   -4.0330  -12.6390    0.2180 C   0  0  0  0  0  0  0  0  0  0  0  0
   -4.3940  -11.5240   -0.5460 C   0  0  0  0  0  0  0  0  0  0  0  0
   -3.6610  -10.3420   -0.4560 C   0  0  0  0  0  0  0  0  0  0  0  0
   -2.5630  -10.2690    0.3980 C   0  0  0  0  0  0  0  0  0  0  0  0
   -2.1960  -11.3770    1.1640 C   0  0  0  0  0  0  0  0  0  0  0  0
   -3.4670  -14.4100    2.5540 N   0  0  0  0  0  0  0  0  0  0  0  0
   -2.7850  -15.3790    3.1930 C   0  0  0  0  0  0  0  0  0  0  0  0
   -7.8810  -15.5370    7.0020 C   0  0  0  0  0  0  0  0  0  0  0  0
   -9.0680  -16.0070    7.5660 C   0  0  0  0  0  0  0  0  0  0  0  0
  -11.0168  -16.8723    7.1958 H   0  0  0  0  0  0  0  0  0  0  0  0
  -10.7064  -16.9262    4.7202 H   0  0  0  0  0  0  0  0  0  0  0  0
   -8.5863  -16.0974    3.7086 H   0  0  0  0  0  0  0  0  0  0  0  0
   -6.4776  -15.1489    3.9094 H   0  0  0  0  0  0  0  0  0  0  0  0
   -6.2566  -14.0319    5.3342 H   0  0  0  0  0  0  0  0  0  0  0  0
   -4.4407  -15.1779    5.8933 H   0  0  0  0  0  0  0  0  0  0  0  0
   -5.5193  -16.6049    6.2143 H   0  0  0  0  0  0  0  0  0  0  0  0
   -5.0160  -17.4210    3.9940 H   0  0  0  0  0  0  0  0  0  0  0  0
   -0.3970  -18.8145    5.3983 H   0  0  0  0  0  0  0  0  0  0  0  0
    2.0334  -18.6937    4.9344 H   0  0  0  0  0  0  0  0  0  0  0  0
    2.9576  -16.9109    3.4576 H   0  0  0  0  0  0  0  0  0  0  0  0
    1.4116  -15.2308    2.4355 H   0  0  0  0  0  0  0  0  0  0  0  0
   -0.3306  -13.7957    1.6189 H   0  0  0  0  0  0  0  0  0  0  0  0
   -4.6156  -13.5690    0.1425 H   0  0  0  0  0  0  0  0  0  0  0  0
   -5.2606  -11.5805   -1.2211 H   0  0  0  0  0  0  0  0  0  0  0  0
   -3.9492   -9.4680   -1.0585 H   0  0  0  0  0  0  0  0  0  0  0  0
   -1.9839   -9.3365    0.4690 H   0  0  0  0  0  0  0  0  0  0  0  0
   -1.3281  -11.3137    1.8369 H   0  0  0  0  0  0  0  0  0  0  0  0
   -7.0842  -15.1462    7.6519 H   0  0  0  0  0  0  0  0  0  0  0  0
   -9.2036  -15.9848    8.6574 H   0  0  0  0  0  0  0  0  0  0  0  0
  1  2  2  0
  2  3  1  0
  3  4  2  0
  4  5  1  0
  5  6  1  0
  6  7  1  0
  7  8  1  0
  8  9  2  0
  9 10  1  0
 10 11  2  0
 11 12  1  0
 12 13  2  0
 13 14  1  0
 14 15  2  0
 15 16  1  0
 16 17  2  0
 17 18  1  0
 18 19  1  0
 19 20  2  0
 20 21  1  0
 21 22  2  0
 22 23  1  0
 23 24  2  0
 18 25  1  0
 25 26  2  0
  4 27  1  0
 27 28  2  0
 28  1  1  0
 26  8  1  0
 15 10  1  0
 26 16  1  0
 24 19  1  0
  1 29  1  0
  2 30  1  0
  3 31  1  0
  5 32  1  0
  5 33  1  0
  6 34  1  0
  6 35  1  0
  7 36  1  0
 11 37  1  0
 12 38  1  0
 13 39  1  0
 14 40  1  0
 17 41  1  0
 20 42  1  0
 21 43  1  0
 22 44  1  0
 23 45  1  0
 24 46  1  0
 27 47  1  0
 28 48  1  0
M  END
>  <meeko>  (9) 
{"is_sidechain": [false], "free_energy": -7.863, "intermolecular_energy": -10.051, "internal_energy": -0.686}

$$$$
