LIB_VOUOASQOVFWLIE__M_PUB_ALL__e8__s20260927
     RDKit          3D

 67 68  0  0  0  0  0  0  0  0999 V2000
   -7.1900  -15.0960    6.2480 C   0  0  0  0  0  0  0  0  0  0  0  0
   -7.6590  -15.3510    7.6730 C   0  0  0  0  0  0  0  0  0  0  0  0
   -8.1760  -16.7860    7.8360 C   0  0  0  0  0  0  0  0  0  0  0  0
   -9.7130  -16.9390    8.0670 C   0  0  0  0  0  0  0  0  0  0  0  0
  -10.4240  -15.5500    8.1470 C   0  0  0  0  0  0  0  0  0  0  0  0
  -11.5250  -15.4220    9.2060 C   0  0  0  0  0  0  0  0  0  0  0  0
  -12.9060  -15.5720    8.5830 C   0  0  0  0  0  0  0  0  0  0  0  0
  -10.3260  -17.7620    6.9000 C   0  0  0  0  0  0  0  0  0  0  0  0
   -9.8950  -19.2320    6.8850 C   0  0  0  0  0  0  0  0  0  0  0  0
  -10.2010  -19.9770    8.2070 C   0  0  0  0  0  0  0  0  0  0  0  0
   -9.5120  -21.3700    8.1950 C   0  0  0  0  0  0  0  0  0  0  0  0
  -10.3660  -22.4350    7.5270 C   0  0  0  0  0  0  0  0  0  0  0  0
  -11.6630  -22.6560    8.3000 N   0  0  0  0  0  0  0  0  0  0  0  0
  -11.6780  -23.9080    9.1590 C   0  0  0  0  0  0  0  0  0  0  0  0
  -13.0800  -24.5340    9.2180 C   0  0  0  0  0  0  0  0  0  0  0  0
  -13.0370  -25.8890    9.9390 C   0  0  0  0  0  0  0  0  0  0  0  0
  -13.8700  -25.8820   11.2060 N   0  0  0  0  0  0  0  0  0  0  0  0
  -14.3880  -24.4880   11.5140 C   0  0  0  0  0  0  0  0  0  0  0  0
  -13.1640  -26.4410   12.4200 C   0  0  0  0  0  0  0  0  0  0  0  0
  -12.0870  -21.4320    9.1180 C   0  0  0  0  0  0  0  0  0  0  0  0
  -11.7380  -20.1630    8.3560 C   0  0  0  0  0  0  0  0  0  0  0  0
   -9.6130  -19.1640    9.3880 C   0  0  0  0  0  0  0  0  0  0  0  0
  -10.0140  -17.6860    9.3940 C   0  0  0  0  0  0  0  0  0  0  0  0
   -6.2238  -14.5707    6.2685 H   0  0  0  0  0  0  0  0  0  0  0  0
   -7.0746  -16.0556    5.7227 H   0  0  0  0  0  0  0  0  0  0  0  0
   -7.9326  -14.4775    5.7227 H   0  0  0  0  0  0  0  0  0  0  0  0
   -6.8166  -15.1922    8.3623 H   0  0  0  0  0  0  0  0  0  0  0  0
   -8.4807  -14.6558    7.9000 H   0  0  0  0  0  0  0  0  0  0  0  0
   -7.9159  -17.3429    6.9237 H   0  0  0  0  0  0  0  0  0  0  0  0
   -7.6995  -17.1704    8.7499 H   0  0  0  0  0  0  0  0  0  0  0  0
   -9.6578  -14.7911    8.3638 H   0  0  0  0  0  0  0  0  0  0  0  0
  -10.9262  -15.4161    7.1775 H   0  0  0  0  0  0  0  0  0  0  0  0
  -11.3863  -16.2062    9.9648 H   0  0  0  0  0  0  0  0  0  0  0  0
  -11.4550  -14.4241    9.6634 H   0  0  0  0  0  0  0  0  0  0  0  0
  -13.6605  -15.6540    9.3792 H   0  0  0  0  0  0  0  0  0  0  0  0
  -13.1246  -14.6923    7.9598 H   0  0  0  0  0  0  0  0  0  0  0  0
  -12.9307  -16.4781    7.9598 H   0  0  0  0  0  0  0  0  0  0  0  0
  -11.4219  -17.7231    6.9867 H   0  0  0  0  0  0  0  0  0  0  0  0
   -9.9606  -17.3121    5.9651 H   0  0  0  0  0  0  0  0  0  0  0  0
  -10.4246  -19.7421    6.0669 H   0  0  0  0  0  0  0  0  0  0  0  0
   -8.8036  -19.2486    6.7486 H   0  0  0  0  0  0  0  0  0  0  0  0
   -8.5599  -21.2881    7.6502 H   0  0  0  0  0  0  0  0  0  0  0  0
   -9.3545  -21.6744    9.2402 H   0  0  0  0  0  0  0  0  0  0  0  0
  -10.6072  -22.1135    6.5031 H   0  0  0  0  0  0  0  0  0  0  0  0
   -9.8015  -23.3789    7.5100 H   0  0  0  0  0  0  0  0  0  0  0  0
  -12.3980  -22.7440    7.5840 H   0  0  0  0  0  0  0  0  0  0  0  0
  -10.9768  -24.6413    8.7342 H   0  0  0  0  0  0  0  0  0  0  0  0
  -11.3815  -23.6289   10.1809 H   0  0  0  0  0  0  0  0  0  0  0  0
  -13.7557  -23.8568    9.7610 H   0  0  0  0  0  0  0  0  0  0  0  0
  -13.4422  -24.6901    8.1911 H   0  0  0  0  0  0  0  0  0  0  0  0
  -13.4254  -26.6644    9.2623 H   0  0  0  0  0  0  0  0  0  0  0  0
  -11.9929  -26.0934   10.2186 H   0  0  0  0  0  0  0  0  0  0  0  0
  -14.7160  -26.4540   11.0640 H   0  0  0  0  0  0  0  0  0  0  0  0
  -14.4398  -24.3486   12.6039 H   0  0  0  0  0  0  0  0  0  0  0  0
  -13.7078  -23.7400   11.0806 H   0  0  0  0  0  0  0  0  0  0  0  0
  -15.3916  -24.3657   11.0806 H   0  0  0  0  0  0  0  0  0  0  0  0
  -13.6458  -26.0595   13.3323 H   0  0  0  0  0  0  0  0  0  0  0  0
  -13.2238  -27.5393   12.4056 H   0  0  0  0  0  0  0  0  0  0  0  0
  -12.1087  -26.1310   12.4056 H   0  0  0  0  0  0  0  0  0  0  0  0
  -13.1724  -21.4669    9.2932 H   0  0  0  0  0  0  0  0  0  0  0  0
  -11.5579  -21.4361   10.0824 H   0  0  0  0  0  0  0  0  0  0  0  0
  -12.1882  -20.2154    7.3537 H   0  0  0  0  0  0  0  0  0  0  0  0
  -12.1304  -19.3067    8.9241 H   0  0  0  0  0  0  0  0  0  0  0  0
   -9.9603  -19.6195   10.3271 H   0  0  0  0  0  0  0  0  0  0  0  0
   -8.5189  -19.1942    9.2788 H   0  0  0  0  0  0  0  0  0  0  0  0
  -11.0949  -17.6227    9.5878 H   0  0  0  0  0  0  0  0  0  0  0  0
   -9.4115  -17.1985   10.1746 H   0  0  0  0  0  0  0  0  0  0  0  0
  1  2  1  0
  2  3  1  0
  3  4  1  0
  4  5  1  0
  5  6  1  0
  6  7  1  0
  4  8  1  0
  8  9  1  0
  9 10  1  0
 10 11  1  0
 11 12  1  0
 12 13  1  0
 13 14  1  0
 14 15  1  0
 15 16  1  0
 16 17  1  0
 17 18  1  0
 17 19  1  0
 13 20  1  0
 20 21  1  0
 10 22  1  0
 22 23  1  0
 23  4  1  0
 21 10  1  0
  1 24  1  0
  1 25  1  0
  1 26  1  0
  2 27  1  0
  2 28  1  0
  3 29  1  0
  3 30  1  0
  5 31  1  0
  5 32  1  0
  6 33  1  0
  6 34  1  0
  7 35  1  0
  7 36  1  0
  7 37  1  0
  8 38  1  0
  8 39  1  0
  9 40  1  0
  9 41  1  0
 11 42  1  0
 11 43  1  0
 12 44  1  0
 12 45  1  0
 13 46  1  0
 14 47  1  0
 14 48  1  0
 15 49  1  0
 15 50  1  0
 16 51  1  0
 16 52  1  0
 17 53  1  0
 18 54  1  0
 18 55  1  0
 18 56  1  0
 19 57  1  0
 19 58  1  0
 19 59  1  0
 20 60  1  0
 20 61  1  0
 21 62  1  0
 21 63  1  0
 22 64  1  0
 22 65  1  0
 23 66  1  0
 23 67  1  0
M  CHG  2  13   1  17   1
M  END
>  <meeko>  (1) 
{"is_sidechain": [false], "free_energy": -5.815, "intermolecular_energy": -8.534, "internal_energy": -0.868}

$$$$
LIB_VOUOASQOVFWLIE__M_PUB_ALL__e8__s20260927
     RDKit          3D

 67 68  0  0  0  0  0  0  0  0999 V2000
    5.5560  -12.7970   -7.1880 C   0  0  0  0  0  0  0  0  0  0  0  0
    4.4500  -12.3860   -6.2260 C   0  0  0  0  0  0  0  0  0  0  0  0
    4.3140  -13.3920   -5.0770 C   0  0  0  0  0  0  0  0  0  0  0  0
    4.0160  -12.7890   -3.6680 C   0  0  0  0  0  0  0  0  0  0  0  0
    2.5290  -12.3270   -3.5420 C   0  0  0  0  0  0  0  0  0  0  0  0
    2.2910  -11.0510   -2.7250 C   0  0  0  0  0  0  0  0  0  0  0  0
    1.8070  -11.3820   -1.3200 C   0  0  0  0  0  0  0  0  0  0  0  0
    4.3150  -13.8570   -2.5800 C   0  0  0  0  0  0  0  0  0  0  0  0
    5.8020  -14.1950   -2.4340 C   0  0  0  0  0  0  0  0  0  0  0  0
    6.6890  -12.9590   -2.1450 C   0  0  0  0  0  0  0  0  0  0  0  0
    8.1880  -13.3510   -2.2630 C   0  0  0  0  0  0  0  0  0  0  0  0
    8.7450  -13.9140   -0.9660 C   0  0  0  0  0  0  0  0  0  0  0  0
    8.7090  -12.8660    0.1420 N   0  0  0  0  0  0  0  0  0  0  0  0
   10.0500  -12.2210    0.4430 C   0  0  0  0  0  0  0  0  0  0  0  0
   11.2080  -13.0020   -0.1970 C   0  0  0  0  0  0  0  0  0  0  0  0
   11.7130  -12.2830   -1.4570 C   0  0  0  0  0  0  0  0  0  0  0  0
   13.1820  -11.9230   -1.3510 N   0  0  0  0  0  0  0  0  0  0  0  0
   13.4030  -10.8140   -0.3380 C   0  0  0  0  0  0  0  0  0  0  0  0
   13.8270  -11.5450   -2.6650 C   0  0  0  0  0  0  0  0  0  0  0  0
    7.6310  -11.8000   -0.0790 C   0  0  0  0  0  0  0  0  0  0  0  0
    6.4030  -12.4380   -0.7080 C   0  0  0  0  0  0  0  0  0  0  0  0
    6.3940  -11.8710   -3.2100 C   0  0  0  0  0  0  0  0  0  0  0  0
    4.9070  -11.5490   -3.3840 C   0  0  0  0  0  0  0  0  0  0  0  0
    6.4367  -13.1243   -6.6159 H   0  0  0  0  0  0  0  0  0  0  0  0
    5.2024  -13.6237   -7.8216 H   0  0  0  0  0  0  0  0  0  0  0  0
    5.8281  -11.9400   -7.8216 H   0  0  0  0  0  0  0  0  0  0  0  0
    4.6859  -11.3954   -5.8099 H   0  0  0  0  0  0  0  0  0  0  0  0
    3.4995  -12.3574   -6.7790 H   0  0  0  0  0  0  0  0  0  0  0  0
    3.4937  -14.0804   -5.3283 H   0  0  0  0  0  0  0  0  0  0  0  0
    5.2982  -13.8755   -4.9894 H   0  0  0  0  0  0  0  0  0  0  0  0
    2.1426  -12.1541   -4.5573 H   0  0  0  0  0  0  0  0  0  0  0  0
    2.0128  -13.1306   -2.9962 H   0  0  0  0  0  0  0  0  0  0  0  0
    3.2330  -10.4871   -2.6569 H   0  0  0  0  0  0  0  0  0  0  0  0
    1.5177  -10.4526   -3.2290 H   0  0  0  0  0  0  0  0  0  0  0  0
    2.4804  -10.9214   -0.5822 H   0  0  0  0  0  0  0  0  0  0  0  0
    0.7884  -10.9905   -1.1813 H   0  0  0  0  0  0  0  0  0  0  0  0
    1.8024  -12.4732   -1.1813 H   0  0  0  0  0  0  0  0  0  0  0  0
    3.9493  -13.4790   -1.6139 H   0  0  0  0  0  0  0  0  0  0  0  0
    3.8066  -14.7813   -2.8917 H   0  0  0  0  0  0  0  0  0  0  0  0
    5.9175  -14.9084   -1.6047 H   0  0  0  0  0  0  0  0  0  0  0  0
    6.1348  -14.6157   -3.3943 H   0  0  0  0  0  0  0  0  0  0  0  0
    8.2931  -14.1107   -3.0515 H   0  0  0  0  0  0  0  0  0  0  0  0
    8.7546  -12.4391   -2.5027 H   0  0  0  0  0  0  0  0  0  0  0  0
    8.1411  -14.7814   -0.6611 H   0  0  0  0  0  0  0  0  0  0  0  0
    9.7902  -14.2133   -1.1329 H   0  0  0  0  0  0  0  0  0  0  0  0
    8.3930  -13.3670    0.9850 H   0  0  0  0  0  0  0  0  0  0  0  0
   10.0496  -11.1946    0.0473 H   0  0  0  0  0  0  0  0  0  0  0  0
   10.1954  -12.2209    1.5333 H   0  0  0  0  0  0  0  0  0  0  0  0
   12.0321  -13.0848    0.5269 H   0  0  0  0  0  0  0  0  0  0  0  0
   10.8481  -14.0024   -0.4794 H   0  0  0  0  0  0  0  0  0  0  0  0
   11.5703  -12.9436   -2.3249 H   0  0  0  0  0  0  0  0  0  0  0  0
   11.1405  -11.3506   -1.5705 H   0  0  0  0  0  0  0  0  0  0  0  0
   13.7080  -12.7290   -0.9810 H   0  0  0  0  0  0  0  0  0  0  0  0
   13.3211  -11.2248    0.6791 H   0  0  0  0  0  0  0  0  0  0  0  0
   14.4048  -10.3824   -0.4796 H   0  0  0  0  0  0  0  0  0  0  0  0
   12.6432  -10.0313   -0.4796 H   0  0  0  0  0  0  0  0  0  0  0  0
   14.7611  -10.9976   -2.4708 H   0  0  0  0  0  0  0  0  0  0  0  0
   14.0487  -12.4561   -3.2401 H   0  0  0  0  0  0  0  0  0  0  0  0
   13.1405  -10.9063   -3.2401 H   0  0  0  0  0  0  0  0  0  0  0  0
    7.3562  -11.3517    0.8872 H   0  0  0  0  0  0  0  0  0  0  0  0
    8.0210  -11.0202   -0.7496 H   0  0  0  0  0  0  0  0  0  0  0  0
    6.0813  -13.2829   -0.0813 H   0  0  0  0  0  0  0  0  0  0  0  0
    5.6177  -11.6706   -0.7747 H   0  0  0  0  0  0  0  0  0  0  0  0
    6.9143  -10.9483   -2.9136 H   0  0  0  0  0  0  0  0  0  0  0  0
    6.7460  -12.2684   -4.1734 H   0  0  0  0  0  0  0  0  0  0  0  0
    4.5475  -11.0700   -2.4613 H   0  0  0  0  0  0  0  0  0  0  0  0
    4.8264  -10.8937   -4.2638 H   0  0  0  0  0  0  0  0  0  0  0  0
  1  2  1  0
  2  3  1  0
  3  4  1  0
  4  5  1  0
  5  6  1  0
  6  7  1  0
  4  8  1  0
  8  9  1  0
  9 10  1  0
 10 11  1  0
 11 12  1  0
 12 13  1  0
 13 14  1  0
 14 15  1  0
 15 16  1  0
 16 17  1  0
 17 18  1  0
 17 19  1  0
 13 20  1  0
 20 21  1  0
 10 22  1  0
 22 23  1  0
 23  4  1  0
 21 10  1  0
  1 24  1  0
  1 25  1  0
  1 26  1  0
  2 27  1  0
  2 28  1  0
  3 29  1  0
  3 30  1  0
  5 31  1  0
  5 32  1  0
  6 33  1  0
  6 34  1  0
  7 35  1  0
  7 36  1  0
  7 37  1  0
  8 38  1  0
  8 39  1  0
  9 40  1  0
  9 41  1  0
 11 42  1  0
 11 43  1  0
 12 44  1  0
 12 45  1  0
 13 46  1  0
 14 47  1  0
 14 48  1  0
 15 49  1  0
 15 50  1  0
 16 51  1  0
 16 52  1  0
 17 53  1  0
 18 54  1  0
 18 55  1  0
 18 56  1  0
 19 57  1  0
 19 58  1  0
 19 59  1  0
 20 60  1  0
 20 61  1  0
 21 62  1  0
 21 63  1  0
 22 64  1  0
 22 65  1  0
 23 66  1  0
 23 67  1  0
M  CHG  2  13   1  17   1
M  END
>  <meeko>  (2) 
{"is_sidechain": [false], "free_energy": -5.779, "intermolecular_energy": -8.396, "internal_energy": -0.953}

$$$$
LIB_VOUOASQOVFWLIE__M_PUB_ALL__e8__s20260927
     RDKit          3D

 67 68  0  0  0  0  0  0  0  0999 V2000
    3.7290  -16.7750   -1.6320 C   0  0  0  0  0  0  0  0  0  0  0  0
    2.8800  -15.5350   -1.8720 C   0  0  0  0  0  0  0  0  0  0  0  0
    3.4270  -14.3320   -1.0940 C   0  0  0  0  0  0  0  0  0  0  0  0
    3.7820  -13.0690   -1.9430 C   0  0  0  0  0  0  0  0  0  0  0  0
    2.4980  -12.3270   -2.4340 C   0  0  0  0  0  0  0  0  0  0  0  0
    2.5650  -11.7380   -3.8490 C   0  0  0  0  0  0  0  0  0  0  0  0
    2.8470  -10.2430   -3.8080 C   0  0  0  0  0  0  0  0  0  0  0  0
    4.6380  -12.0990   -1.0840 C   0  0  0  0  0  0  0  0  0  0  0  0
    6.0400  -12.6270   -0.7640 C   0  0  0  0  0  0  0  0  0  0  0  0
    6.8600  -12.9990   -2.0230 C   0  0  0  0  0  0  0  0  0  0  0  0
    8.1530  -13.7520   -1.6010 C   0  0  0  0  0  0  0  0  0  0  0  0
    9.2960  -12.8060   -1.2740 C   0  0  0  0  0  0  0  0  0  0  0  0
    9.7050  -12.0000   -2.5040 N   0  0  0  0  0  0  0  0  0  0  0  0
   10.9750  -12.4840   -3.1800 C   0  0  0  0  0  0  0  0  0  0  0  0
   12.0280  -12.9250   -2.1520 C   0  0  0  0  0  0  0  0  0  0  0  0
   13.0060  -11.7800   -1.8540 C   0  0  0  0  0  0  0  0  0  0  0  0
   13.2670  -11.6300   -0.3670 N   0  0  0  0  0  0  0  0  0  0  0  0
   12.5260  -12.6910    0.4280 C   0  0  0  0  0  0  0  0  0  0  0  0
   12.9440  -10.2620    0.1880 C   0  0  0  0  0  0  0  0  0  0  0  0
    8.5720  -11.8510   -3.5240 C   0  0  0  0  0  0  0  0  0  0  0  0
    7.2450  -11.7060   -2.7960 C   0  0  0  0  0  0  0  0  0  0  0  0
    6.0170  -13.9560   -2.9050 C   0  0  0  0  0  0  0  0  0  0  0  0
    4.6030  -13.4500   -3.2050 C   0  0  0  0  0  0  0  0  0  0  0  0
    3.8412  -16.9388   -0.5501 H   0  0  0  0  0  0  0  0  0  0  0  0
    3.2387  -17.6486   -2.0862 H   0  0  0  0  0  0  0  0  0  0  0  0
    4.7208  -16.6338   -2.0862 H   0  0  0  0  0  0  0  0  0  0  0  0
    2.8836  -15.2996   -2.9465 H   0  0  0  0  0  0  0  0  0  0  0  0
    1.8567  -15.7397   -1.5244 H   0  0  0  0  0  0  0  0  0  0  0  0
    2.6686  -14.0373   -0.3538 H   0  0  0  0  0  0  0  0  0  0  0  0
    4.3774  -14.6705   -0.6557 H   0  0  0  0  0  0  0  0  0  0  0  0
    1.6634  -13.0430   -2.4060 H   0  0  0  0  0  0  0  0  0  0  0  0
    2.3742  -11.4673   -1.7590 H   0  0  0  0  0  0  0  0  0  0  0  0
    3.3678  -12.2397   -4.4092 H   0  0  0  0  0  0  0  0  0  0  0  0
    1.5933  -11.8967   -4.3396 H   0  0  0  0  0  0  0  0  0  0  0  0
    2.9098   -9.9103   -2.7614 H   0  0  0  0  0  0  0  0  0  0  0  0
    3.8001  -10.0356   -4.3165 H   0  0  0  0  0  0  0  0  0  0  0  0
    2.0349   -9.7026   -4.3165 H   0  0  0  0  0  0  0  0  0  0  0  0
    4.7416  -11.1507   -1.6317 H   0  0  0  0  0  0  0  0  0  0  0  0
    4.1156  -11.9768   -0.1237 H   0  0  0  0  0  0  0  0  0  0  0  0
    6.5866  -11.8503   -0.2090 H   0  0  0  0  0  0  0  0  0  0  0  0
    5.9133  -13.5478   -0.1757 H   0  0  0  0  0  0  0  0  0  0  0  0
    7.9327  -14.3601   -0.7113 H   0  0  0  0  0  0  0  0  0  0  0  0
    8.4683  -14.3768   -2.4496 H   0  0  0  0  0  0  0  0  0  0  0  0
    8.9755  -12.1147   -0.4807 H   0  0  0  0  0  0  0  0  0  0  0  0
   10.1594  -13.4002   -0.9402 H   0  0  0  0  0  0  0  0  0  0  0  0
    9.8630  -11.0400   -2.1650 H   0  0  0  0  0  0  0  0  0  0  0  0
   10.7309  -13.3372   -3.8299 H   0  0  0  0  0  0  0  0  0  0  0  0
   11.3924  -11.6518   -3.7658 H   0  0  0  0  0  0  0  0  0  0  0  0
   11.5224  -13.2200   -1.2207 H   0  0  0  0  0  0  0  0  0  0  0  0
   12.5921  -13.7744   -2.5647 H   0  0  0  0  0  0  0  0  0  0  0  0
   13.9592  -11.9852   -2.3632 H   0  0  0  0  0  0  0  0  0  0  0  0
   12.5554  -10.8443   -2.2166 H   0  0  0  0  0  0  0  0  0  0  0  0
   14.2650  -11.8030   -0.1750 H   0  0  0  0  0  0  0  0  0  0  0  0
   12.6579  -12.5021    1.5036 H   0  0  0  0  0  0  0  0  0  0  0  0
   11.4554  -12.6554    0.1781 H   0  0  0  0  0  0  0  0  0  0  0  0
   12.9280  -13.6839    0.1781 H   0  0  0  0  0  0  0  0  0  0  0  0
   12.9532  -10.3008    1.2873 H   0  0  0  0  0  0  0  0  0  0  0  0
   13.6960   -9.5384   -0.1596 H   0  0  0  0  0  0  0  0  0  0  0  0
   11.9478   -9.9511   -0.1596 H   0  0  0  0  0  0  0  0  0  0  0  0
    8.7503  -10.9581   -4.1411 H   0  0  0  0  0  0  0  0  0  0  0  0
    8.5400  -12.7430   -4.1669 H   0  0  0  0  0  0  0  0  0  0  0  0
    7.3216  -10.8741   -2.0805 H   0  0  0  0  0  0  0  0  0  0  0  0
    6.4647  -11.5144   -3.5472 H   0  0  0  0  0  0  0  0  0  0  0  0
    6.5429  -14.0976   -3.8607 H   0  0  0  0  0  0  0  0  0  0  0  0
    5.9045  -14.8920   -2.3382 H   0  0  0  0  0  0  0  0  0  0  0  0
    4.6840  -12.5595   -3.8457 H   0  0  0  0  0  0  0  0  0  0  0  0
    4.0676  -14.2783   -3.6921 H   0  0  0  0  0  0  0  0  0  0  0  0
  1  2  1  0
  2  3  1  0
  3  4  1  0
  4  5  1  0
  5  6  1  0
  6  7  1  0
  4  8  1  0
  8  9  1  0
  9 10  1  0
 10 11  1  0
 11 12  1  0
 12 13  1  0
 13 14  1  0
 14 15  1  0
 15 16  1  0
 16 17  1  0
 17 18  1  0
 17 19  1  0
 13 20  1  0
 20 21  1  0
 10 22  1  0
 22 23  1  0
 23  4  1  0
 21 10  1  0
  1 24  1  0
  1 25  1  0
  1 26  1  0
  2 27  1  0
  2 28  1  0
  3 29  1  0
  3 30  1  0
  5 31  1  0
  5 32  1  0
  6 33  1  0
  6 34  1  0
  7 35  1  0
  7 36  1  0
  7 37  1  0
  8 38  1  0
  8 39  1  0
  9 40  1  0
  9 41  1  0
 11 42  1  0
 11 43  1  0
 12 44  1  0
 12 45  1  0
 13 46  1  0
 14 47  1  0
 14 48  1  0
 15 49  1  0
 15 50  1  0
 16 51  1  0
 16 52  1  0
 17 53  1  0
 18 54  1  0
 18 55  1  0
 18 56  1  0
 19 57  1  0
 19 58  1  0
 19 59  1  0
 20 60  1  0
 20 61  1  0
 21 62  1  0
 21 63  1  0
 22 64  1  0
 22 65  1  0
 23 66  1  0
 23 67  1  0
M  CHG  2  13   1  17   1
M  END
>  <meeko>  (3) 
{"is_sidechain": [false], "free_energy": -5.687, "intermolecular_energy": -8.077, "internal_energy": -1.137}

$$$$
LIB_VOUOASQOVFWLIE__M_PUB_ALL__e8__s20260927
     RDKit          3D

 67 68  0  0  0  0  0  0  0  0999 V2000
    1.1930  -14.6560   -2.7010 C   0  0  0  0  0  0  0  0  0  0  0  0
    1.6390  -14.2080   -4.0860 C   0  0  0  0  0  0  0  0  0  0  0  0
    2.3770  -12.8650   -4.0210 C   0  0  0  0  0  0  0  0  0  0  0  0
    3.8450  -12.8630   -4.5560 C   0  0  0  0  0  0  0  0  0  0  0  0
    3.9040  -13.2180   -6.0760 C   0  0  0  0  0  0  0  0  0  0  0  0
    4.8430  -12.3560   -6.9280 C   0  0  0  0  0  0  0  0  0  0  0  0
    5.9310  -13.2030   -7.5720 C   0  0  0  0  0  0  0  0  0  0  0  0
    4.4680  -11.4570   -4.3340 C   0  0  0  0  0  0  0  0  0  0  0  0
    4.7030  -11.1090   -2.8610 C   0  0  0  0  0  0  0  0  0  0  0  0
    5.5830  -12.1430   -2.1160 C   0  0  0  0  0  0  0  0  0  0  0  0
    5.5590  -11.8490   -0.5910 C   0  0  0  0  0  0  0  0  0  0  0  0
    6.6090  -10.8290   -0.1790 C   0  0  0  0  0  0  0  0  0  0  0  0
    8.0150  -11.3570   -0.4460 N   0  0  0  0  0  0  0  0  0  0  0  0
    8.7480  -11.8500    0.7880 C   0  0  0  0  0  0  0  0  0  0  0  0
   10.0760  -12.5300    0.4220 C   0  0  0  0  0  0  0  0  0  0  0  0
   11.2650  -11.6400    0.8130 C   0  0  0  0  0  0  0  0  0  0  0  0
   12.4860  -11.9200   -0.0420 N   0  0  0  0  0  0  0  0  0  0  0  0
   13.3290  -10.6690   -0.2200 C   0  0  0  0  0  0  0  0  0  0  0  0
   12.1760  -12.5190   -1.3950 C   0  0  0  0  0  0  0  0  0  0  0  0
    8.0560  -12.4090   -1.5580 C   0  0  0  0  0  0  0  0  0  0  0  0
    7.0450  -12.0540   -2.6370 C   0  0  0  0  0  0  0  0  0  0  0  0
    4.9880  -13.5580   -2.3380 C   0  0  0  0  0  0  0  0  0  0  0  0
    4.7210  -13.9020   -3.8060 C   0  0  0  0  0  0  0  0  0  0  0  0
    1.7512  -14.0953   -1.9368 H   0  0  0  0  0  0  0  0  0  0  0  0
    0.1163  -14.4645   -2.5827 H   0  0  0  0  0  0  0  0  0  0  0  0
    1.3893  -15.7319   -2.5827 H   0  0  0  0  0  0  0  0  0  0  0  0
    2.3122  -14.9677   -4.5098 H   0  0  0  0  0  0  0  0  0  0  0  0
    0.7469  -14.0862   -4.7179 H   0  0  0  0  0  0  0  0  0  0  0  0
    1.8025  -12.1365   -4.6120 H   0  0  0  0  0  0  0  0  0  0  0  0
    2.4511  -12.6190   -2.9514 H   0  0  0  0  0  0  0  0  0  0  0  0
    4.2324  -14.2640   -6.1655 H   0  0  0  0  0  0  0  0  0  0  0  0
    2.8923  -13.0310   -6.4653 H   0  0  0  0  0  0  0  0  0  0  0  0
    4.2586  -11.8609   -7.7175 H   0  0  0  0  0  0  0  0  0  0  0  0
    5.3210  -11.6105   -6.2755 H   0  0  0  0  0  0  0  0  0  0  0  0
    6.5395  -13.6767   -6.7875 H   0  0  0  0  0  0  0  0  0  0  0  0
    5.4683  -13.9810   -8.1970 H   0  0  0  0  0  0  0  0  0  0  0  0
    6.5717  -12.5636   -8.1970 H   0  0  0  0  0  0  0  0  0  0  0  0
    5.4348  -11.4198   -4.8574 H   0  0  0  0  0  0  0  0  0  0  0  0
    3.7481  -10.7229   -4.7251 H   0  0  0  0  0  0  0  0  0  0  0  0
    5.1985  -10.1283   -2.8095 H   0  0  0  0  0  0  0  0  0  0  0  0
    3.7197  -11.1053   -2.3680 H   0  0  0  0  0  0  0  0  0  0  0  0
    4.5654  -11.4611   -0.3219 H   0  0  0  0  0  0  0  0  0  0  0  0
    5.7815  -12.7893   -0.0653 H   0  0  0  0  0  0  0  0  0  0  0  0
    6.4568   -9.9033   -0.7534 H   0  0  0  0  0  0  0  0  0  0  0  0
    6.5056  -10.6338    0.8986 H   0  0  0  0  0  0  0  0  0  0  0  0
    8.5380  -10.5600   -0.8390 H   0  0  0  0  0  0  0  0  0  0  0  0
    8.9549  -10.9935    1.4465 H   0  0  0  0  0  0  0  0  0  0  0  0
    8.1106  -12.5896    1.2947 H   0  0  0  0  0  0  0  0  0  0  0  0
   10.1507  -13.4884    0.9566 H   0  0  0  0  0  0  0  0  0  0  0  0
   10.1008  -12.6975   -0.6649 H   0  0  0  0  0  0  0  0  0  0  0  0
   10.9768  -10.5859    0.6871 H   0  0  0  0  0  0  0  0  0  0  0  0
   11.5243  -11.8578    1.8596 H   0  0  0  0  0  0  0  0  0  0  0  0
   13.1010  -12.5870    0.4470 H   0  0  0  0  0  0  0  0  0  0  0  0
   13.6004  -10.2662    0.7670 H   0  0  0  0  0  0  0  0  0  0  0  0
   14.2434  -10.9193   -0.7779 H   0  0  0  0  0  0  0  0  0  0  0  0
   12.7537   -9.9155   -0.7779 H   0  0  0  0  0  0  0  0  0  0  0  0
   11.6742  -13.4886   -1.2605 H   0  0  0  0  0  0  0  0  0  0  0  0
   11.5165  -11.8393   -1.9545 H   0  0  0  0  0  0  0  0  0  0  0  0
   13.1118  -12.6649   -1.9545 H   0  0  0  0  0  0  0  0  0  0  0  0
    9.0642  -12.4380   -1.9969 H   0  0  0  0  0  0  0  0  0  0  0  0
    7.8081  -13.3944   -1.1366 H   0  0  0  0  0  0  0  0  0  0  0  0
    7.2379  -11.0270   -2.9805 H   0  0  0  0  0  0  0  0  0  0  0  0
    7.1576  -12.7759   -3.4593 H   0  0  0  0  0  0  0  0  0  0  0  0
    5.6950  -14.2972   -1.9333 H   0  0  0  0  0  0  0  0  0  0  0  0
    4.0144  -13.5759   -1.8264 H   0  0  0  0  0  0  0  0  0  0  0  0
    5.6885  -13.9751   -4.3242 H   0  0  0  0  0  0  0  0  0  0  0  0
    4.1609  -14.8487   -3.8110 H   0  0  0  0  0  0  0  0  0  0  0  0
  1  2  1  0
  2  3  1  0
  3  4  1  0
  4  5  1  0
  5  6  1  0
  6  7  1  0
  4  8  1  0
  8  9  1  0
  9 10  1  0
 10 11  1  0
 11 12  1  0
 12 13  1  0
 13 14  1  0
 14 15  1  0
 15 16  1  0
 16 17  1  0
 17 18  1  0
 17 19  1  0
 13 20  1  0
 20 21  1  0
 10 22  1  0
 22 23  1  0
 23  4  1  0
 21 10  1  0
  1 24  1  0
  1 25  1  0
  1 26  1  0
  2 27  1  0
  2 28  1  0
  3 29  1  0
  3 30  1  0
  5 31  1  0
  5 32  1  0
  6 33  1  0
  6 34  1  0
  7 35  1  0
  7 36  1  0
  7 37  1  0
  8 38  1  0
  8 39  1  0
  9 40  1  0
  9 41  1  0
 11 42  1  0
 11 43  1  0
 12 44  1  0
 12 45  1  0
 13 46  1  0
 14 47  1  0
 14 48  1  0
 15 49  1  0
 15 50  1  0
 16 51  1  0
 16 52  1  0
 17 53  1  0
 18 54  1  0
 18 55  1  0
 18 56  1  0
 19 57  1  0
 19 58  1  0
 19 59  1  0
 20 60  1  0
 20 61  1  0
 21 62  1  0
 21 63  1  0
 22 64  1  0
 22 65  1  0
 23 66  1  0
 23 67  1  0
M  CHG  2  13   1  17   1
M  END
>  <meeko>  (4) 
{"is_sidechain": [false], "free_energy": -5.685, "intermolecular_energy": -8.203, "internal_energy": -1.009}

$$$$
LIB_VOUOASQOVFWLIE__M_PUB_ALL__e8__s20260927
     RDKit          3D

 67 68  0  0  0  0  0  0  0  0999 V2000
  -12.1300  -19.6370    6.5620 C   0  0  0  0  0  0  0  0  0  0  0  0
  -11.6440  -18.5610    7.5230 C   0  0  0  0  0  0  0  0  0  0  0  0
  -10.2140  -18.1220    7.1840 C   0  0  0  0  0  0  0  0  0  0  0  0
  -10.0080  -16.5960    6.9230 C   0  0  0  0  0  0  0  0  0  0  0  0
  -11.2470  -15.7620    7.3810 C   0  0  0  0  0  0  0  0  0  0  0  0
  -11.1860  -15.2020    8.8070 C   0  0  0  0  0  0  0  0  0  0  0  0
  -12.5520  -15.2600    9.4780 C   0  0  0  0  0  0  0  0  0  0  0  0
   -8.7500  -16.1110    7.6940 C   0  0  0  0  0  0  0  0  0  0  0  0
   -7.4330  -16.6710    7.1470 C   0  0  0  0  0  0  0  0  0  0  0  0
   -7.2150  -16.3750    5.6430 C   0  0  0  0  0  0  0  0  0  0  0  0
   -5.9960  -17.1850    5.1210 C   0  0  0  0  0  0  0  0  0  0  0  0
   -4.6780  -16.4590    5.3400 C   0  0  0  0  0  0  0  0  0  0  0  0
   -4.6380  -15.1550    4.5490 N   0  0  0  0  0  0  0  0  0  0  0  0
   -3.8080  -15.2130    3.2800 C   0  0  0  0  0  0  0  0  0  0  0  0
   -3.9780  -13.9400    2.4360 C   0  0  0  0  0  0  0  0  0  0  0  0
   -2.7420  -13.7070    1.5550 C   0  0  0  0  0  0  0  0  0  0  0  0
   -2.6540  -12.2730    1.0710 N   0  0  0  0  0  0  0  0  0  0  0  0
   -2.5490  -11.3060    2.2370 C   0  0  0  0  0  0  0  0  0  0  0  0
   -3.7870  -11.8520    0.1620 C   0  0  0  0  0  0  0  0  0  0  0  0
   -6.0320  -14.5880    4.2610 C   0  0  0  0  0  0  0  0  0  0  0  0
   -6.9480  -14.8560    5.4450 C   0  0  0  0  0  0  0  0  0  0  0  0
   -8.4680  -16.8360    4.8550 C   0  0  0  0  0  0  0  0  0  0  0  0
   -9.7910  -16.3060    5.4130 C   0  0  0  0  0  0  0  0  0  0  0  0
  -12.5165  -20.4928    7.1349 H   0  0  0  0  0  0  0  0  0  0  0  0
  -12.9308  -19.2281    5.9284 H   0  0  0  0  0  0  0  0  0  0  0  0
  -11.2938  -19.9675    5.9284 H   0  0  0  0  0  0  0  0  0  0  0  0
  -12.3126  -17.6902    7.4551 H   0  0  0  0  0  0  0  0  0  0  0  0
  -11.6498  -18.9747    8.5422 H   0  0  0  0  0  0  0  0  0  0  0  0
   -9.5657  -18.4098    8.0248 H   0  0  0  0  0  0  0  0  0  0  0  0
   -9.9690  -18.6202    6.2344 H   0  0  0  0  0  0  0  0  0  0  0  0
  -11.3564  -14.9133    6.6898 H   0  0  0  0  0  0  0  0  0  0  0  0
  -12.0967  -16.4605    7.3711 H   0  0  0  0  0  0  0  0  0  0  0  0
  -10.4711  -15.7956    9.3957 H   0  0  0  0  0  0  0  0  0  0  0  0
  -10.8663  -14.1507    8.7560 H   0  0  0  0  0  0  0  0  0  0  0  0
  -12.4244  -15.2546   10.5706 H   0  0  0  0  0  0  0  0  0  0  0  0
  -13.1472  -14.3863    9.1740 H   0  0  0  0  0  0  0  0  0  0  0  0
  -13.0710  -16.1810    9.1740 H   0  0  0  0  0  0  0  0  0  0  0  0
   -8.7102  -15.0132    7.6363 H   0  0  0  0  0  0  0  0  0  0  0  0
   -8.8479  -16.4761    8.7270 H   0  0  0  0  0  0  0  0  0  0  0  0
   -6.6025  -16.2249    7.7139 H   0  0  0  0  0  0  0  0  0  0  0  0
   -7.4741  -17.7645    7.2596 H   0  0  0  0  0  0  0  0  0  0  0  0
   -5.9601  -18.1488    5.6500 H   0  0  0  0  0  0  0  0  0  0  0  0
   -6.1256  -17.3232    4.0374 H   0  0  0  0  0  0  0  0  0  0  0  0
   -4.5638  -16.2346    6.4108 H   0  0  0  0  0  0  0  0  0  0  0  0
   -3.8583  -17.1058    4.9940 H   0  0  0  0  0  0  0  0  0  0  0  0
   -4.2150  -14.4620    5.1830 H   0  0  0  0  0  0  0  0  0  0  0  0
   -2.7477  -15.3228    3.5513 H   0  0  0  0  0  0  0  0  0  0  0  0
   -4.1507  -16.0709    2.6828 H   0  0  0  0  0  0  0  0  0  0  0  0
   -4.8646  -14.0476    1.7939 H   0  0  0  0  0  0  0  0  0  0  0  0
   -4.0995  -13.0802    3.1113 H   0  0  0  0  0  0  0  0  0  0  0  0
   -1.8398  -13.9410    2.1392 H   0  0  0  0  0  0  0  0  0  0  0  0
   -2.8243  -14.3596    0.6733 H   0  0  0  0  0  0  0  0  0  0  0  0
   -1.7810  -12.1430    0.5390 H   0  0  0  0  0  0  0  0  0  0  0  0
   -2.6096  -11.8642    3.1829 H   0  0  0  0  0  0  0  0  0  0  0  0
   -1.5878  -10.7736    2.1864 H   0  0  0  0  0  0  0  0  0  0  0  0
   -3.3736  -10.5797    2.1864 H   0  0  0  0  0  0  0  0  0  0  0  0
   -4.6460  -11.5328    0.7705 H   0  0  0  0  0  0  0  0  0  0  0  0
   -3.4567  -11.0166   -0.4728 H   0  0  0  0  0  0  0  0  0  0  0  0
   -4.0824  -12.7004   -0.4728 H   0  0  0  0  0  0  0  0  0  0  0  0
   -5.9583  -13.5033    4.0937 H   0  0  0  0  0  0  0  0  0  0  0  0
   -6.4445  -15.0725    3.3638 H   0  0  0  0  0  0  0  0  0  0  0  0
   -6.4775  -14.4565    6.3555 H   0  0  0  0  0  0  0  0  0  0  0  0
   -7.9120  -14.3647    5.2467 H   0  0  0  0  0  0  0  0  0  0  0  0
   -8.3686  -16.4895    3.8157 H   0  0  0  0  0  0  0  0  0  0  0  0
   -8.5071  -17.9322    4.9372 H   0  0  0  0  0  0  0  0  0  0  0  0
   -9.8161  -15.2164    5.2641 H   0  0  0  0  0  0  0  0  0  0  0  0
  -10.5936  -16.8292    4.8726 H   0  0  0  0  0  0  0  0  0  0  0  0
  1  2  1  0
  2  3  1  0
  3  4  1  0
  4  5  1  0
  5  6  1  0
  6  7  1  0
  4  8  1  0
  8  9  1  0
  9 10  1  0
 10 11  1  0
 11 12  1  0
 12 13  1  0
 13 14  1  0
 14 15  1  0
 15 16  1  0
 16 17  1  0
 17 18  1  0
 17 19  1  0
 13 20  1  0
 20 21  1  0
 10 22  1  0
 22 23  1  0
 23  4  1  0
 21 10  1  0
  1 24  1  0
  1 25  1  0
  1 26  1  0
  2 27  1  0
  2 28  1  0
  3 29  1  0
  3 30  1  0
  5 31  1  0
  5 32  1  0
  6 33  1  0
  6 34  1  0
  7 35  1  0
  7 36  1  0
  7 37  1  0
  8 38  1  0
  8 39  1  0
  9 40  1  0
  9 41  1  0
 11 42  1  0
 11 43  1  0
 12 44  1  0
 12 45  1  0
 13 46  1  0
 14 47  1  0
 14 48  1  0
 15 49  1  0
 15 50  1  0
 16 51  1  0
 16 52  1  0
 17 53  1  0
 18 54  1  0
 18 55  1  0
 18 56  1  0
 19 57  1  0
 19 58  1  0
 19 59  1  0
 20 60  1  0
 20 61  1  0
 21 62  1  0
 21 63  1  0
 22 64  1  0
 22 65  1  0
 23 66  1  0
 23 67  1  0
M  CHG  2  13   1  17   1
M  END
>  <meeko>  (5) 
{"is_sidechain": [false], "free_energy": -5.638, "intermolecular_energy": -8.328, "internal_energy": -0.815}

$$$$
LIB_VOUOASQOVFWLIE__M_PUB_ALL__e8__s20260927
     RDKit          3D

 67 68  0  0  0  0  0  0  0  0999 V2000
   -3.9840  -12.0370   -0.5030 C   0  0  0  0  0  0  0  0  0  0  0  0
   -3.5430  -10.7870    0.2450 C   0  0  0  0  0  0  0  0  0  0  0  0
   -2.1890  -10.2840   -0.2690 C   0  0  0  0  0  0  0  0  0  0  0  0
   -1.0520  -10.1650    0.7960 C   0  0  0  0  0  0  0  0  0  0  0  0
   -1.4490   -9.1960    1.9560 C   0  0  0  0  0  0  0  0  0  0  0  0
   -1.6300   -9.8410    3.3350 C   0  0  0  0  0  0  0  0  0  0  0  0
   -1.5110   -8.8060    4.4450 C   0  0  0  0  0  0  0  0  0  0  0  0
   -0.7530  -11.5710    1.3840 C   0  0  0  0  0  0  0  0  0  0  0  0
   -0.1040  -12.5350    0.3860 C   0  0  0  0  0  0  0  0  0  0  0  0
    1.2040  -11.9900   -0.2360 C   0  0  0  0  0  0  0  0  0  0  0  0
    1.6500  -12.9090   -1.4070 C   0  0  0  0  0  0  0  0  0  0  0  0
    2.4960  -14.0810   -0.9360 C   0  0  0  0  0  0  0  0  0  0  0  0
    3.8010  -13.5950   -0.3120 N   0  0  0  0  0  0  0  0  0  0  0  0
    5.0180  -13.7370   -1.2070 C   0  0  0  0  0  0  0  0  0  0  0  0
    5.3330  -12.4250   -1.9420 C   0  0  0  0  0  0  0  0  0  0  0  0
    6.7410  -11.9280   -1.5820 C   0  0  0  0  0  0  0  0  0  0  0  0
    7.3230  -12.6840   -0.4030 N   0  0  0  0  0  0  0  0  0  0  0  0
    7.4890  -11.7760    0.8030 C   0  0  0  0  0  0  0  0  0  0  0  0
    8.6310  -13.3830   -0.6960 C   0  0  0  0  0  0  0  0  0  0  0  0
    3.7010  -12.1730    0.2480 C   0  0  0  0  0  0  0  0  0  0  0  0
    2.3200  -11.9540    0.8460 C   0  0  0  0  0  0  0  0  0  0  0  0
    0.9330  -10.5770   -0.8150 C   0  0  0  0  0  0  0  0  0  0  0  0
    0.2570   -9.6160    0.1670 C   0  0  0  0  0  0  0  0  0  0  0  0
   -4.2598  -12.8188    0.2200 H   0  0  0  0  0  0  0  0  0  0  0  0
   -4.8524  -11.7990   -1.1348 H   0  0  0  0  0  0  0  0  0  0  0  0
   -3.1585  -12.3966   -1.1348 H   0  0  0  0  0  0  0  0  0  0  0  0
   -4.2967   -9.9985    0.1024 H   0  0  0  0  0  0  0  0  0  0  0  0
   -3.4407  -11.0363    1.3115 H   0  0  0  0  0  0  0  0  0  0  0  0
   -1.8467  -10.9786   -1.0502 H   0  0  0  0  0  0  0  0  0  0  0  0
   -2.3697   -9.2590   -0.6249 H   0  0  0  0  0  0  0  0  0  0  0  0
   -0.6617   -8.4326    2.0417 H   0  0  0  0  0  0  0  0  0  0  0  0
   -2.4360   -8.7942    1.6835 H   0  0  0  0  0  0  0  0  0  0  0  0
   -2.6245  -10.3085    3.3850 H   0  0  0  0  0  0  0  0  0  0  0  0
   -0.8407  -10.5944    3.4742 H   0  0  0  0  0  0  0  0  0  0  0  0
   -1.5687   -9.3080    5.4221 H   0  0  0  0  0  0  0  0  0  0  0  0
   -0.5469   -8.2837    4.3575 H   0  0  0  0  0  0  0  0  0  0  0  0
   -2.3314   -8.0785    4.3575 H   0  0  0  0  0  0  0  0  0  0  0  0
   -0.0742  -11.4509    2.2412 H   0  0  0  0  0  0  0  0  0  0  0  0
   -1.7201  -12.0102    1.6700 H   0  0  0  0  0  0  0  0  0  0  0  0
    0.1243  -13.4757    0.9085 H   0  0  0  0  0  0  0  0  0  0  0  0
   -0.8190  -12.6786   -0.4375 H   0  0  0  0  0  0  0  0  0  0  0  0
    0.7533  -13.3004   -1.9097 H   0  0  0  0  0  0  0  0  0  0  0  0
    2.2652  -12.3054   -2.0906 H   0  0  0  0  0  0  0  0  0  0  0  0
    1.9307  -14.6552   -0.1872 H   0  0  0  0  0  0  0  0  0  0  0  0
    2.7356  -14.7126   -1.8041 H   0  0  0  0  0  0  0  0  0  0  0  0
    3.9410  -14.1820    0.5230 H   0  0  0  0  0  0  0  0  0  0  0  0
    5.8844  -14.0180   -0.5902 H   0  0  0  0  0  0  0  0  0  0  0  0
    4.8048  -14.5111   -1.9589 H   0  0  0  0  0  0  0  0  0  0  0  0
    5.2765  -12.5960   -3.0272 H   0  0  0  0  0  0  0  0  0  0  0  0
    4.5997  -11.6635   -1.6380 H   0  0  0  0  0  0  0  0  0  0  0  0
    7.3997  -12.0646   -2.4523 H   0  0  0  0  0  0  0  0  0  0  0  0
    6.6671  -10.8664   -1.3035 H   0  0  0  0  0  0  0  0  0  0  0  0
    6.6580  -13.4110   -0.0990 H   0  0  0  0  0  0  0  0  0  0  0  0
    7.3810  -12.3669    1.7245 H   0  0  0  0  0  0  0  0  0  0  0  0
    8.4866  -11.3132    0.7790 H   0  0  0  0  0  0  0  0  0  0  0  0
    6.7196  -10.9902    0.7790 H   0  0  0  0  0  0  0  0  0  0  0  0
    9.1255  -13.6473    0.2504 H   0  0  0  0  0  0  0  0  0  0  0  0
    8.4363  -14.2973   -1.2758 H   0  0  0  0  0  0  0  0  0  0  0  0
    9.2829  -12.7130   -1.2758 H   0  0  0  0  0  0  0  0  0  0  0  0
    4.4638  -12.0327    1.0281 H   0  0  0  0  0  0  0  0  0  0  0  0
    3.8656  -11.4492   -0.5638 H   0  0  0  0  0  0  0  0  0  0  0  0
    2.1236  -12.7447    1.5851 H   0  0  0  0  0  0  0  0  0  0  0  0
    2.3067  -10.9589    1.3146 H   0  0  0  0  0  0  0  0  0  0  0  0
    1.8947  -10.1387   -1.1199 H   0  0  0  0  0  0  0  0  0  0  0  0
    0.2385  -10.7083   -1.6579 H   0  0  0  0  0  0  0  0  0  0  0  0
    0.9655   -9.3986    0.9799 H   0  0  0  0  0  0  0  0  0  0  0  0
   -0.0202   -8.7201   -0.4079 H   0  0  0  0  0  0  0  0  0  0  0  0
  1  2  1  0
  2  3  1  0
  3  4  1  0
  4  5  1  0
  5  6  1  0
  6  7  1  0
  4  8  1  0
  8  9  1  0
  9 10  1  0
 10 11  1  0
 11 12  1  0
 12 13  1  0
 13 14  1  0
 14 15  1  0
 15 16  1  0
 16 17  1  0
 17 18  1  0
 17 19  1  0
 13 20  1  0
 20 21  1  0
 10 22  1  0
 22 23  1  0
 23  4  1  0
 21 10  1  0
  1 24  1  0
  1 25  1  0
  1 26  1  0
  2 27  1  0
  2 28  1  0
  3 29  1  0
  3 30  1  0
  5 31  1  0
  5 32  1  0
  6 33  1  0
  6 34  1  0
  7 35  1  0
  7 36  1  0
  7 37  1  0
  8 38  1  0
  8 39  1  0
  9 40  1  0
  9 41  1  0
 11 42  1  0
 11 43  1  0
 12 44  1  0
 12 45  1  0
 13 46  1  0
 14 47  1  0
 14 48  1  0
 15 49  1  0
 15 50  1  0
 16 51  1  0
 16 52  1  0
 17 53  1  0
 18 54  1  0
 18 55  1  0
 18 56  1  0
 19 57  1  0
 19 58  1  0
 19 59  1  0
 20 60  1  0
 20 61  1  0
 21 62  1  0
 21 63  1  0
 22 64  1  0
 22 65  1  0
 23 66  1  0
 23 67  1  0
M  CHG  2  13   1  17   1
M  END
>  <meeko>  (6) 
{"is_sidechain": [false], "free_energy": -5.461, "intermolecular_energy": -7.745, "internal_energy": -1.139}

$$$$
LIB_VOUOASQOVFWLIE__M_PUB_ALL__e8__s20260927
     RDKit          3D

 67 68  0  0  0  0  0  0  0  0999 V2000
    1.2320  -14.1760   -4.8500 C   0  0  0  0  0  0  0  0  0  0  0  0
    1.1620  -13.9130   -3.3520 C   0  0  0  0  0  0  0  0  0  0  0  0
    2.5640  -13.8750   -2.7310 C   0  0  0  0  0  0  0  0  0  0  0  0
    3.2070  -12.4600   -2.5760 C   0  0  0  0  0  0  0  0  0  0  0  0
    2.1220  -11.3530   -2.3830 C   0  0  0  0  0  0  0  0  0  0  0  0
    1.5000  -11.2620   -0.9850 C   0  0  0  0  0  0  0  0  0  0  0  0
    0.5680  -10.0630   -0.8760 C   0  0  0  0  0  0  0  0  0  0  0  0
    4.1600  -12.4630   -1.3490 C   0  0  0  0  0  0  0  0  0  0  0  0
    5.4130  -13.3230   -1.5390 C   0  0  0  0  0  0  0  0  0  0  0  0
    6.2430  -12.9350   -2.7860 C   0  0  0  0  0  0  0  0  0  0  0  0
    7.3400  -14.0070   -3.0390 C   0  0  0  0  0  0  0  0  0  0  0  0
    8.6100  -13.7360   -2.2490 C   0  0  0  0  0  0  0  0  0  0  0  0
    9.2510  -12.4210   -2.6830 N   0  0  0  0  0  0  0  0  0  0  0  0
   10.4580  -12.5780   -3.5890 C   0  0  0  0  0  0  0  0  0  0  0  0
   11.6880  -13.0710   -2.8110 C   0  0  0  0  0  0  0  0  0  0  0  0
   11.9350  -12.1930   -1.5770 C   0  0  0  0  0  0  0  0  0  0  0  0
   12.2810  -13.0200   -0.3540 N   0  0  0  0  0  0  0  0  0  0  0  0
   11.9580  -14.4870   -0.5750 C   0  0  0  0  0  0  0  0  0  0  0  0
   11.6310  -12.5440    0.9250 C   0  0  0  0  0  0  0  0  0  0  0  0
    8.2450  -11.4360   -3.2850 C   0  0  0  0  0  0  0  0  0  0  0  0
    6.9160  -11.5520   -2.5550 C   0  0  0  0  0  0  0  0  0  0  0  0
    5.3080  -12.9090   -4.0220 C   0  0  0  0  0  0  0  0  0  0  0  0
    4.0370  -12.0760   -3.8310 C   0  0  0  0  0  0  0  0  0  0  0  0
    1.5113  -15.2254   -5.0254 H   0  0  0  0  0  0  0  0  0  0  0  0
    0.2497  -13.9773   -5.3035 H   0  0  0  0  0  0  0  0  0  0  0  0
    1.9856  -13.5153   -5.3035 H   0  0  0  0  0  0  0  0  0  0  0  0
    0.6667  -12.9460   -3.1799 H   0  0  0  0  0  0  0  0  0  0  0  0
    0.5935  -14.7283   -2.8807 H   0  0  0  0  0  0  0  0  0  0  0  0
    2.5010  -14.3273   -1.7303 H   0  0  0  0  0  0  0  0  0  0  0  0
    3.2133  -14.4202   -3.4319 H   0  0  0  0  0  0  0  0  0  0  0  0
    2.5872  -10.3821   -2.6088 H   0  0  0  0  0  0  0  0  0  0  0  0
    1.2973  -11.6234   -3.0588 H   0  0  0  0  0  0  0  0  0  0  0  0
    0.9284  -12.1805   -0.7858 H   0  0  0  0  0  0  0  0  0  0  0  0
    2.3095  -11.1429   -0.2498 H   0  0  0  0  0  0  0  0  0  0  0  0
    0.3891   -9.8329    0.1847 H   0  0  0  0  0  0  0  0  0  0  0  0
    1.0299   -9.1937   -1.3670 H   0  0  0  0  0  0  0  0  0  0  0  0
   -0.3883  -10.2961   -1.3670 H   0  0  0  0  0  0  0  0  0  0  0  0
    4.4767  -11.4278   -1.1538 H   0  0  0  0  0  0  0  0  0  0  0  0
    3.5983  -12.8981   -0.5093 H   0  0  0  0  0  0  0  0  0  0  0  0
    6.0495  -13.2128   -0.6487 H   0  0  0  0  0  0  0  0  0  0  0  0
    5.0756  -14.3599   -1.6840 H   0  0  0  0  0  0  0  0  0  0  0  0
    6.9457  -14.9914   -2.7466 H   0  0  0  0  0  0  0  0  0  0  0  0
    7.5977  -13.9765   -4.1080 H   0  0  0  0  0  0  0  0  0  0  0  0
    8.3633  -13.6803   -1.1785 H   0  0  0  0  0  0  0  0  0  0  0  0
    9.3221  -14.5530   -2.4372 H   0  0  0  0  0  0  0  0  0  0  0  0
    9.5560  -11.9630   -1.8110 H   0  0  0  0  0  0  0  0  0  0  0  0
   10.2196  -13.3058   -4.3786 H   0  0  0  0  0  0  0  0  0  0  0  0
   10.6950  -11.5943   -4.0205 H   0  0  0  0  0  0  0  0  0  0  0  0
   11.5192  -14.1089   -2.4881 H   0  0  0  0  0  0  0  0  0  0  0  0
   12.5686  -13.0149   -3.4678 H   0  0  0  0  0  0  0  0  0  0  0  0
   12.7682  -11.5071   -1.7897 H   0  0  0  0  0  0  0  0  0  0  0  0
   11.0094  -11.6386   -1.3626 H   0  0  0  0  0  0  0  0  0  0  0  0
   13.3000  -12.9930   -0.1990 H   0  0  0  0  0  0  0  0  0  0  0  0
   11.8475  -14.9887    0.3977 H   0  0  0  0  0  0  0  0  0  0  0  0
   11.0191  -14.5744   -1.1414 H   0  0  0  0  0  0  0  0  0  0  0  0
   12.7734  -14.9607   -1.1414 H   0  0  0  0  0  0  0  0  0  0  0  0
   12.1813  -12.9470    1.7880 H   0  0  0  0  0  0  0  0  0  0  0  0
   11.6500  -11.4447    0.9589 H   0  0  0  0  0  0  0  0  0  0  0  0
   10.5887  -12.8939    0.9589 H   0  0  0  0  0  0  0  0  0  0  0  0
    8.6305  -10.4109   -3.1824 H   0  0  0  0  0  0  0  0  0  0  0  0
    8.0979  -11.6700   -4.3497 H   0  0  0  0  0  0  0  0  0  0  0  0
    7.0899  -11.4173   -1.4772 H   0  0  0  0  0  0  0  0  0  0  0  0
    6.2429  -10.7765   -2.9495 H   0  0  0  0  0  0  0  0  0  0  0  0
    5.8697  -12.4915   -4.8706 H   0  0  0  0  0  0  0  0  0  0  0  0
    4.9833  -13.9458   -4.1943 H   0  0  0  0  0  0  0  0  0  0  0  0
    4.3275  -11.0188   -3.7422 H   0  0  0  0  0  0  0  0  0  0  0  0
    3.3974  -12.2703   -4.7046 H   0  0  0  0  0  0  0  0  0  0  0  0
  1  2  1  0
  2  3  1  0
  3  4  1  0
  4  5  1  0
  5  6  1  0
  6  7  1  0
  4  8  1  0
  8  9  1  0
  9 10  1  0
 10 11  1  0
 11 12  1  0
 12 13  1  0
 13 14  1  0
 14 15  1  0
 15 16  1  0
 16 17  1  0
 17 18  1  0
 17 19  1  0
 13 20  1  0
 20 21  1  0
 10 22  1  0
 22 23  1  0
 23  4  1  0
 21 10  1  0
  1 24  1  0
  1 25  1  0
  1 26  1  0
  2 27  1  0
  2 28  1  0
  3 29  1  0
  3 30  1  0
  5 31  1  0
  5 32  1  0
  6 33  1  0
  6 34  1  0
  7 35  1  0
  7 36  1  0
  7 37  1  0
  8 38  1  0
  8 39  1  0
  9 40  1  0
  9 41  1  0
 11 42  1  0
 11 43  1  0
 12 44  1  0
 12 45  1  0
 13 46  1  0
 14 47  1  0
 14 48  1  0
 15 49  1  0
 15 50  1  0
 16 51  1  0
 16 52  1  0
 17 53  1  0
 18 54  1  0
 18 55  1  0
 18 56  1  0
 19 57  1  0
 19 58  1  0
 19 59  1  0
 20 60  1  0
 20 61  1  0
 21 62  1  0
 21 63  1  0
 22 64  1  0
 22 65  1  0
 23 66  1  0
 23 67  1  0
M  CHG  2  13   1  17   1
M  END
>  <meeko>  (7) 
{"is_sidechain": [false], "free_energy": -5.461, "intermolecular_energy": -7.955, "internal_energy": -0.928}

$$$$
LIB_VOUOASQOVFWLIE__M_PUB_ALL__e8__s20260927
     RDKit          3D

 67 68  0  0  0  0  0  0  0  0999 V2000
   13.3500  -13.2530   11.3830 C   0  0  0  0  0  0  0  0  0  0  0  0
   14.3520  -12.1900   11.8110 C   0  0  0  0  0  0  0  0  0  0  0  0
   13.8750  -10.7880   11.4130 C   0  0  0  0  0  0  0  0  0  0  0  0
   13.5980   -9.7980   12.5890 C   0  0  0  0  0  0  0  0  0  0  0  0
   12.2740  -10.1500   13.3390 C   0  0  0  0  0  0  0  0  0  0  0  0
   12.4370  -10.8460   14.6960 C   0  0  0  0  0  0  0  0  0  0  0  0
   11.8210  -12.2380   14.6760 C   0  0  0  0  0  0  0  0  0  0  0  0
   14.7840   -9.8510   13.5920 C   0  0  0  0  0  0  0  0  0  0  0  0
   16.0910   -9.2750   13.0390 C   0  0  0  0  0  0  0  0  0  0  0  0
   15.9560   -7.8170   12.5360 C   0  0  0  0  0  0  0  0  0  0  0  0
   17.2450   -7.4060   11.7700 C   0  0  0  0  0  0  0  0  0  0  0  0
   18.3240   -6.8680   12.6960 C   0  0  0  0  0  0  0  0  0  0  0  0
   17.8620   -5.5870   13.3840 N   0  0  0  0  0  0  0  0  0  0  0  0
   18.4450   -4.3130   12.8010 C   0  0  0  0  0  0  0  0  0  0  0  0
   19.9810   -4.3600   12.7650 C   0  0  0  0  0  0  0  0  0  0  0  0
   20.5160   -3.6010   11.5420 C   0  0  0  0  0  0  0  0  0  0  0  0
   21.2620   -4.5160   10.5900 N   0  0  0  0  0  0  0  0  0  0  0  0
   20.6750   -4.4470    9.1910 C   0  0  0  0  0  0  0  0  0  0  0  0
   21.3330   -5.9580   11.0390 C   0  0  0  0  0  0  0  0  0  0  0  0
   16.3380   -5.4850   13.4950 C   0  0  0  0  0  0  0  0  0  0  0  0
   15.7500   -6.8640   13.7480 C   0  0  0  0  0  0  0  0  0  0  0  0
   14.7670   -7.7360   11.5450 C   0  0  0  0  0  0  0  0  0  0  0  0
   13.4640   -8.3380   12.0790 C   0  0  0  0  0  0  0  0  0  0  0  0
   12.9086  -13.7212   12.2752 H   0  0  0  0  0  0  0  0  0  0  0  0
   12.5551  -12.7869   10.7823 H   0  0  0  0  0  0  0  0  0  0  0  0
   13.8622  -14.0190   10.7823 H   0  0  0  0  0  0  0  0  0  0  0  0
   14.4743  -12.2310   12.9034 H   0  0  0  0  0  0  0  0  0  0  0  0
   15.3090  -12.3893   11.3065 H   0  0  0  0  0  0  0  0  0  0  0  0
   14.6474  -10.3397   10.7709 H   0  0  0  0  0  0  0  0  0  0  0  0
   12.9050  -10.9355   10.9156 H   0  0  0  0  0  0  0  0  0  0  0  0
   11.7215   -9.2134   13.5049 H   0  0  0  0  0  0  0  0  0  0  0  0
   11.7504  -10.8721   12.6953 H   0  0  0  0  0  0  0  0  0  0  0  0
   13.5085  -10.9307   14.9298 H   0  0  0  0  0  0  0  0  0  0  0  0
   11.9205  -10.2466   15.4602 H   0  0  0  0  0  0  0  0  0  0  0  0
   11.6671  -12.5857   15.7082 H   0  0  0  0  0  0  0  0  0  0  0  0
   10.8541  -12.2036   14.1527 H   0  0  0  0  0  0  0  0  0  0  0  0
   12.4967  -12.9305   14.1527 H   0  0  0  0  0  0  0  0  0  0  0  0
   14.5051   -9.2781   14.4887 H   0  0  0  0  0  0  0  0  0  0  0  0
   14.9703  -10.9129   13.8102 H   0  0  0  0  0  0  0  0  0  0  0  0
   16.8481   -9.3000   13.8366 H   0  0  0  0  0  0  0  0  0  0  0  0
   16.3775   -9.8917   12.1743 H   0  0  0  0  0  0  0  0  0  0  0  0
   17.6391   -8.2877   11.2435 H   0  0  0  0  0  0  0  0  0  0  0  0
   16.9757   -6.6034   11.0676 H   0  0  0  0  0  0  0  0  0  0  0  0
   18.5527   -7.6251   13.4606 H   0  0  0  0  0  0  0  0  0  0  0  0
   19.2196   -6.6426   12.0984 H   0  0  0  0  0  0  0  0  0  0  0  0
   18.1780   -5.6710   14.3620 H   0  0  0  0  0  0  0  0  0  0  0  0
   18.0674   -4.1838   11.7759 H   0  0  0  0  0  0  0  0  0  0  0  0
   18.1408   -3.4709   13.4400 H   0  0  0  0  0  0  0  0  0  0  0  0
   20.3785   -3.8970   13.6802 H   0  0  0  0  0  0  0  0  0  0  0  0
   20.3024   -5.4100   12.6995 H   0  0  0  0  0  0  0  0  0  0  0  0
   19.6691   -3.1460   11.0075 H   0  0  0  0  0  0  0  0  0  0  0  0
   21.2190   -2.8335   11.8980 H   0  0  0  0  0  0  0  0  0  0  0  0
   22.2330   -4.1870   10.4880 H   0  0  0  0  0  0  0  0  0  0  0  0
   19.5845   -4.3188    9.2568 H   0  0  0  0  0  0  0  0  0  0  0  0
   21.1125   -3.5941    8.6514 H   0  0  0  0  0  0  0  0  0  0  0  0
   20.9028   -5.3781    8.6514 H   0  0  0  0  0  0  0  0  0  0  0  0
   21.3351   -6.0001   12.1382 H   0  0  0  0  0  0  0  0  0  0  0  0
   20.4607   -6.5057   10.6527 H   0  0  0  0  0  0  0  0  0  0  0  0
   22.2549   -6.4173   10.6527 H   0  0  0  0  0  0  0  0  0  0  0  0
   16.0759   -4.8170   14.3287 H   0  0  0  0  0  0  0  0  0  0  0  0
   15.9303   -5.0814   12.5565 H   0  0  0  0  0  0  0  0  0  0  0  0
   16.2386   -7.3018   14.6310 H   0  0  0  0  0  0  0  0  0  0  0  0
   14.6680   -6.7476   13.9085 H   0  0  0  0  0  0  0  0  0  0  0  0
   14.5864   -6.6770   11.3083 H   0  0  0  0  0  0  0  0  0  0  0  0
   15.0502   -8.3272   10.6617 H   0  0  0  0  0  0  0  0  0  0  0  0
   13.1116   -7.7127   12.9125 H   0  0  0  0  0  0  0  0  0  0  0  0
   12.7586   -8.3620   11.2353 H   0  0  0  0  0  0  0  0  0  0  0  0
  1  2  1  0
  2  3  1  0
  3  4  1  0
  4  5  1  0
  5  6  1  0
  6  7  1  0
  4  8  1  0
  8  9  1  0
  9 10  1  0
 10 11  1  0
 11 12  1  0
 12 13  1  0
 13 14  1  0
 14 15  1  0
 15 16  1  0
 16 17  1  0
 17 18  1  0
 17 19  1  0
 13 20  1  0
 20 21  1  0
 10 22  1  0
 22 23  1  0
 23  4  1  0
 21 10  1  0
  1 24  1  0
  1 25  1  0
  1 26  1  0
  2 27  1  0
  2 28  1  0
  3 29  1  0
  3 30  1  0
  5 31  1  0
  5 32  1  0
  6 33  1  0
  6 34  1  0
  7 35  1  0
  7 36  1  0
  7 37  1  0
  8 38  1  0
  8 39  1  0
  9 40  1  0
  9 41  1  0
 11 42  1  0
 11 43  1  0
 12 44  1  0
 12 45  1  0
 13 46  1  0
 14 47  1  0
 14 48  1  0
 15 49  1  0
 15 50  1  0
 16 51  1  0
 16 52  1  0
 17 53  1  0
 18 54  1  0
 18 55  1  0
 18 56  1  0
 19 57  1  0
 19 58  1  0
 19 59  1  0
 20 60  1  0
 20 61  1  0
 21 62  1  0
 21 63  1  0
 22 64  1  0
 22 65  1  0
 23 66  1  0
 23 67  1  0
M  CHG  2  13   1  17   1
M  END
>  <meeko>  (8) 
{"is_sidechain": [false], "free_energy": -5.449, "intermolecular_energy": -7.788, "internal_energy": -1.078}

$$$$
LIB_VOUOASQOVFWLIE__M_PUB_ALL__e8__s20260927
     RDKit          3D

 67 68  0  0  0  0  0  0  0  0999 V2000
    2.5730  -16.6550   -0.8550 C   0  0  0  0  0  0  0  0  0  0  0  0
    2.0570  -15.6690   -1.8940 C   0  0  0  0  0  0  0  0  0  0  0  0
    2.1910  -14.2240   -1.3990 C   0  0  0  0  0  0  0  0  0  0  0  0
    3.0750  -13.2780   -2.2730 C   0  0  0  0  0  0  0  0  0  0  0  0
    2.4080  -12.9800   -3.6530 C   0  0  0  0  0  0  0  0  0  0  0  0
    2.5220  -11.5350   -4.1540 C   0  0  0  0  0  0  0  0  0  0  0  0
    3.6570  -11.3900   -5.1580 C   0  0  0  0  0  0  0  0  0  0  0  0
    3.3000  -11.9420   -1.5130 C   0  0  0  0  0  0  0  0  0  0  0  0
    4.1800  -12.0770   -0.2670 C   0  0  0  0  0  0  0  0  0  0  0  0
    5.5670  -12.7010   -0.5560 C   0  0  0  0  0  0  0  0  0  0  0  0
    6.2830  -13.0310    0.7830 C   0  0  0  0  0  0  0  0  0  0  0  0
    7.0560  -11.8440    1.3360 C   0  0  0  0  0  0  0  0  0  0  0  0
    8.1830  -11.4400    0.3890 N   0  0  0  0  0  0  0  0  0  0  0  0
    9.5640  -11.8920    0.8240 C   0  0  0  0  0  0  0  0  0  0  0  0
   10.3030  -12.6200   -0.3100 C   0  0  0  0  0  0  0  0  0  0  0  0
   11.7230  -13.0040    0.1300 C   0  0  0  0  0  0  0  0  0  0  0  0
   12.7810  -12.3350   -0.7260 N   0  0  0  0  0  0  0  0  0  0  0  0
   13.0780  -10.9300   -0.2310 C   0  0  0  0  0  0  0  0  0  0  0  0
   12.4550  -12.2950   -2.2020 C   0  0  0  0  0  0  0  0  0  0  0  0
    7.9130  -11.8420   -1.0650 C   0  0  0  0  0  0  0  0  0  0  0  0
    6.4300  -11.6950   -1.3700 C   0  0  0  0  0  0  0  0  0  0  0  0
    5.3670  -14.0300   -1.3300 C   0  0  0  0  0  0  0  0  0  0  0  0
    4.4640  -13.9090   -2.5610 C   0  0  0  0  0  0  0  0  0  0  0  0
    2.3691  -16.2654    0.1533 H   0  0  0  0  0  0  0  0  0  0  0  0
    2.0656  -17.6224   -0.9838 H   0  0  0  0  0  0  0  0  0  0  0  0
    3.6571  -16.7896   -0.9838 H   0  0  0  0  0  0  0  0  0  0  0  0
    2.6382  -15.7866   -2.8205 H   0  0  0  0  0  0  0  0  0  0  0  0
    0.9925  -15.8785   -2.0757 H   0  0  0  0  0  0  0  0  0  0  0  0
    1.1813  -13.7904   -1.3501 H   0  0  0  0  0  0  0  0  0  0  0  0
    2.7010  -14.2906   -0.4266 H   0  0  0  0  0  0  0  0  0  0  0  0
    2.8771  -13.6345   -4.4024 H   0  0  0  0  0  0  0  0  0  0  0  0
    1.3326  -13.1612   -3.5091 H   0  0  0  0  0  0  0  0  0  0  0  0
    1.5766  -11.2467   -4.6367 H   0  0  0  0  0  0  0  0  0  0  0  0
    2.7319  -10.8828   -3.2934 H   0  0  0  0  0  0  0  0  0  0  0  0
    4.6089  -11.2684   -4.6203 H   0  0  0  0  0  0  0  0  0  0  0  0
    3.7050  -12.2893   -5.7896 H   0  0  0  0  0  0  0  0  0  0  0  0
    3.4773  -10.5075   -5.7896 H   0  0  0  0  0  0  0  0  0  0  0  0
    3.7796  -11.2293   -2.2001 H   0  0  0  0  0  0  0  0  0  0  0  0
    2.3124  -11.5995   -1.1706 H   0  0  0  0  0  0  0  0  0  0  0  0
    4.3312  -11.0758    0.1627 H   0  0  0  0  0  0  0  0  0  0  0  0
    3.6585  -12.7536    0.4260 H   0  0  0  0  0  0  0  0  0  0  0  0
    5.5271  -13.3353    1.5219 H   0  0  0  0  0  0  0  0  0  0  0  0
    7.0039  -13.8384    0.5872 H   0  0  0  0  0  0  0  0  0  0  0  0
    6.3693  -10.9940    1.4621 H   0  0  0  0  0  0  0  0  0  0  0  0
    7.4948  -12.1297    2.3034 H   0  0  0  0  0  0  0  0  0  0  0  0
    8.1690  -10.4100    0.3690 H   0  0  0  0  0  0  0  0  0  0  0  0
   10.1501  -11.0109    1.1244 H   0  0  0  0  0  0  0  0  0  0  0  0
    9.4486  -12.5917    1.6649 H   0  0  0  0  0  0  0  0  0  0  0  0
    9.7481  -13.5316   -0.5764 H   0  0  0  0  0  0  0  0  0  0  0  0
   10.3701  -11.9481   -1.1784 H   0  0  0  0  0  0  0  0  0  0  0  0
   11.8661  -12.6972    1.1766 H   0  0  0  0  0  0  0  0  0  0  0  0
   11.8319  -14.0928    0.0173 H   0  0  0  0  0  0  0  0  0  0  0  0
   13.6720  -12.8440   -0.6310 H   0  0  0  0  0  0  0  0  0  0  0  0
   13.0798  -10.9215    0.8690 H   0  0  0  0  0  0  0  0  0  0  0  0
   14.0634  -10.6113   -0.6017 H   0  0  0  0  0  0  0  0  0  0  0  0
   12.3059  -10.2398   -0.6017 H   0  0  0  0  0  0  0  0  0  0  0  0
   11.3712  -12.1620   -2.3346 H   0  0  0  0  0  0  0  0  0  0  0  0
   12.9877  -11.4555   -2.6725 H   0  0  0  0  0  0  0  0  0  0  0  0
   12.7690  -13.2384   -2.6725 H   0  0  0  0  0  0  0  0  0  0  0  0
    8.4910  -11.1914   -1.7377 H   0  0  0  0  0  0  0  0  0  0  0  0
    8.2141  -12.8892   -1.2156 H   0  0  0  0  0  0  0  0  0  0  0  0
    6.1151  -10.6716   -1.1183 H   0  0  0  0  0  0  0  0  0  0  0  0
    6.2798  -11.9049   -2.4393 H   0  0  0  0  0  0  0  0  0  0  0  0
    6.3531  -14.3893   -1.6594 H   0  0  0  0  0  0  0  0  0  0  0  0
    4.8689  -14.7264   -0.6394 H   0  0  0  0  0  0  0  0  0  0  0  0
    4.9786  -13.2845   -3.3061 H   0  0  0  0  0  0  0  0  0  0  0  0
    4.2778  -14.9327   -2.9178 H   0  0  0  0  0  0  0  0  0  0  0  0
  1  2  1  0
  2  3  1  0
  3  4  1  0
  4  5  1  0
  5  6  1  0
  6  7  1  0
  4  8  1  0
  8  9  1  0
  9 10  1  0
 10 11  1  0
 11 12  1  0
 12 13  1  0
 13 14  1  0
 14 15  1  0
 15 16  1  0
 16 17  1  0
 17 18  1  0
 17 19  1  0
 13 20  1  0
 20 21  1  0
 10 22  1  0
 22 23  1  0
 23  4  1  0
 21 10  1  0
  1 24  1  0
  1 25  1  0
  1 26  1  0
  2 27  1  0
  2 28  1  0
  3 29  1  0
  3 30  1  0
  5 31  1  0
  5 32  1  0
  6 33  1  0
  6 34  1  0
  7 35  1  0
  7 36  1  0
  7 37  1  0
  8 38  1  0
  8 39  1  0
  9 40  1  0
  9 41  1  0
 11 42  1  0
 11 43  1  0
 12 44  1  0
 12 45  1  0
 13 46  1  0
 14 47  1  0
 14 48  1  0
 15 49  1  0
 15 50  1  0
 16 51  1  0
 16 52  1  0
 17 53  1  0
 18 54  1  0
 18 55  1  0
 18 56  1  0
 19 57  1  0
 19 58  1  0
 19 59  1  0
 20 60  1  0
 20 61  1  0
 21 62  1  0
 21 63  1  0
 22 64  1  0
 22 65  1  0
 23 66  1  0
 23 67  1  0
M  CHG  2  13   1  17   1
M  END
>  <meeko>  (9) 
{"is_sidechain": [false], "free_energy": -5.441, "intermolecular_energy": -7.731, "internal_energy": -1.122}

$$$$
