LIB_NEBOKDKFXPUVNX__M_PUB_ALL__e8__s20260927
     RDKit          3D

 62 66  0  0  0  0  0  0  0  0999 V2000
   -0.0430  -16.1890    2.0660 C   0  0  0  0  0  0  0  0  0  0  0  0
    0.1360  -15.7050    0.6680 C   0  0  0  0  0  0  0  0  0  0  0  0
    1.4470  -15.5200    0.2300 N   0  0  0  0  0  0  0  0  0  0  0  0
    1.4450  -15.0970   -1.0160 C   0  0  0  0  0  0  0  0  0  0  0  0
    2.8000  -14.8020   -1.7750 C   0  0  0  0  0  0  0  0  0  0  0  0
    2.9210  -14.7280   -3.1720 C   0  0  0  0  0  0  0  0  0  0  0  0
    4.2450  -14.4180   -3.4240 C   0  0  0  0  0  0  0  0  0  0  0  0
    4.8290  -14.0750   -4.7170 C   0  0  0  0  0  0  0  0  0  0  0  0
    5.7990  -14.9020   -5.3010 C   0  0  0  0  0  0  0  0  0  0  0  0
    6.3700  -14.5600   -6.5310 C   0  0  0  0  0  0  0  0  0  0  0  0
    5.9790  -13.3860   -7.1710 C   0  0  0  0  0  0  0  0  0  0  0  0
    6.6780  -12.9670   -8.6860 Cl  0  0  0  0  0  0  0  0  0  0  0  0
    5.0290  -12.5470   -6.5920 C   0  0  0  0  0  0  0  0  0  0  0  0
    4.4590  -12.8890   -5.3630 C   0  0  0  0  0  0  0  0  0  0  0  0
    4.8740  -14.4260   -2.1750 N   0  0  0  0  0  0  0  0  0  0  0  0
    6.2600  -14.3260   -1.8290 C   0  0  0  0  0  0  0  0  0  0  0  0
    7.0220  -15.4370   -1.4420 C   0  0  0  0  0  0  0  0  0  0  0  0
    8.3740  -15.2860   -1.1110 C   0  0  0  0  0  0  0  0  0  0  0  0
    8.9610  -14.0280   -1.1530 C   0  0  0  0  0  0  0  0  0  0  0  0
   10.2550  -13.8930   -0.8340 F   0  0  0  0  0  0  0  0  0  0  0  0
    8.2220  -12.9100   -1.5120 C   0  0  0  0  0  0  0  0  0  0  0  0
    6.8730  -13.0570   -1.8430 C   0  0  0  0  0  0  0  0  0  0  0  0
    3.9670  -14.5690   -1.1710 N   0  0  0  0  0  0  0  0  0  0  0  0
   -0.0890  -14.8950   -1.7330 S   0  0  0  0  0  0  0  0  0  0  0  0
   -0.8520  -15.4120   -0.2710 C   0  0  0  0  0  0  0  0  0  0  0  0
   -2.3140  -15.4650   -0.2370 C   0  0  0  0  0  0  0  0  0  0  0  0
   -2.9460  -16.5030   -0.0350 O   0  0  0  0  0  0  0  0  0  0  0  0
   -2.8600  -14.2600   -0.4510 N   0  0  0  0  0  0  0  0  0  0  0  0
   -2.3880  -13.2480    0.5310 N   0  0  0  0  0  0  0  0  0  0  0  0
   -3.2640  -12.4900    1.2450 C   0  0  0  0  0  0  0  0  0  0  0  0
   -4.4870  -12.6300    1.2690 O   0  0  0  0  0  0  0  0  0  0  0  0
   -2.7070  -11.4780    2.0040 N   0  0  0  0  0  0  0  0  0  0  0  0
   -1.4900  -10.8140    2.0490 C   0  0  0  0  0  0  0  0  0  0  0  0
   -1.1780  -10.1580    3.0450 O   0  0  0  0  0  0  0  0  0  0  0  0
   -0.5540  -10.8530    0.9010 C   0  0  0  0  0  0  0  0  0  0  0  0
   -0.6660   -9.9640   -0.1720 C   0  0  0  0  0  0  0  0  0  0  0  0
    0.2380  -10.0310   -1.2350 C   0  0  0  0  0  0  0  0  0  0  0  0
    1.2780  -10.9740   -1.2280 C   0  0  0  0  0  0  0  0  0  0  0  0
    2.2610  -11.0480   -2.3690 C   0  0  0  0  0  0  0  0  0  0  0  0
    2.4630   -9.8640   -3.0130 F   0  0  0  0  0  0  0  0  0  0  0  0
    3.4970  -11.4460   -1.9470 F   0  0  0  0  0  0  0  0  0  0  0  0
    1.9050  -11.9440   -3.3340 F   0  0  0  0  0  0  0  0  0  0  0  0
    1.4110  -11.8320   -0.1240 C   0  0  0  0  0  0  0  0  0  0  0  0
    0.5030  -11.7700    0.9350 C   0  0  0  0  0  0  0  0  0  0  0  0
    0.2504  -15.3956    2.7691 H   0  0  0  0  0  0  0  0  0  0  0  0
   -1.0982  -16.4528    2.2304 H   0  0  0  0  0  0  0  0  0  0  0  0
    0.5866  -17.0759    2.2304 H   0  0  0  0  0  0  0  0  0  0  0  0
    2.1248  -14.8847   -3.9147 H   0  0  0  0  0  0  0  0  0  0  0  0
    6.1123  -15.8240   -4.7894 H   0  0  0  0  0  0  0  0  0  0  0  0
    7.1245  -15.2151   -6.9910 H   0  0  0  0  0  0  0  0  0  0  0  0
    4.7289  -11.6189   -7.1006 H   0  0  0  0  0  0  0  0  0  0  0  0
    3.7157  -12.2230   -4.9005 H   0  0  0  0  0  0  0  0  0  0  0  0
    6.5556  -16.4322   -1.3981 H   0  0  0  0  0  0  0  0  0  0  0  0
    8.9705  -16.1626   -0.8181 H   0  0  0  0  0  0  0  0  0  0  0  0
    8.6942  -11.9168   -1.5357 H   0  0  0  0  0  0  0  0  0  0  0  0
    6.2816  -12.1712   -2.1181 H   0  0  0  0  0  0  0  0  0  0  0  0
   -1.3790  -13.2150    0.6280 H   0  0  0  0  0  0  0  0  0  0  0  0
   -3.3590  -11.1600    2.7020 H   0  0  0  0  0  0  0  0  0  0  0  0
   -1.4673   -9.2104   -0.1793 H   0  0  0  0  0  0  0  0  0  0  0  0
    0.1341   -9.3395   -2.0841 H   0  0  0  0  0  0  0  0  0  0  0  0
    2.2366  -12.5582   -0.0934 H   0  0  0  0  0  0  0  0  0  0  0  0
    0.6186  -12.4429    1.7974 H   0  0  0  0  0  0  0  0  0  0  0  0
  1  2  1  0
  2  3  1  0
  3  4  2  0
  4  5  1  0
  5  6  1  0
  6  7  2  0
  7  8  1  0
  8  9  2  0
  9 10  1  0
 10 11  2  0
 11 12  1  0
 11 13  1  0
 13 14  2  0
  7 15  1  0
 15 16  1  0
 16 17  2  0
 17 18  1  0
 18 19  2  0
 19 20  1  0
 19 21  1  0
 21 22  2  0
 15 23  1  0
  4 24  1  0
 24 25  1  0
 25 26  1  0
 26 27  2  0
 26 28  1  0
 28 29  1  0
 29 30  1  0
 30 31  2  0
 30 32  1  0
 32 33  1  0
 33 34  2  0
 33 35  1  0
 35 36  2  0
 36 37  1  0
 37 38  2  0
 38 39  1  0
 39 40  1  0
 39 41  1  0
 39 42  1  0
 38 43  1  0
 43 44  2  0
 25  2  2  0
 44 35  1  0
 23  5  2  0
 14  8  1  0
 22 16  1  0
  1 45  1  0
  1 46  1  0
  1 47  1  0
  6 48  1  0
  9 49  1  0
 10 50  1  0
 13 51  1  0
 14 52  1  0
 17 53  1  0
 18 54  1  0
 21 55  1  0
 22 56  1  0
 29 57  1  0
 32 58  1  0
 36 59  1  0
 37 60  1  0
 43 61  1  0
 44 62  1  0
M  CHG  1  28  -1
M  END
>  <meeko>  (1) 
{"is_sidechain": [false], "free_energy": -8.786, "intermolecular_energy": -12.895, "internal_energy": -3.441}

$$$$
LIB_NEBOKDKFXPUVNX__M_PUB_ALL__e8__s20260927
     RDKit          3D

 62 66  0  0  0  0  0  0  0  0999 V2000
    3.0860  -11.0970   -3.2060 C   0  0  0  0  0  0  0  0  0  0  0  0
    3.7630  -12.2840   -2.6120 C   0  0  0  0  0  0  0  0  0  0  0  0
    5.1570  -12.2790   -2.6180 N   0  0  0  0  0  0  0  0  0  0  0  0
    5.6090  -13.3830   -2.0630 C   0  0  0  0  0  0  0  0  0  0  0  0
    7.1610  -13.6510   -1.9310 C   0  0  0  0  0  0  0  0  0  0  0  0
    7.7730  -14.8880   -2.1890 C   0  0  0  0  0  0  0  0  0  0  0  0
    9.1280  -14.6910   -1.9960 C   0  0  0  0  0  0  0  0  0  0  0  0
   10.1980  -15.6350   -2.2990 C   0  0  0  0  0  0  0  0  0  0  0  0
   10.6770  -15.7720   -3.6090 C   0  0  0  0  0  0  0  0  0  0  0  0
   11.6900  -16.6910   -3.8980 C   0  0  0  0  0  0  0  0  0  0  0  0
   12.2160  -17.4830   -2.8800 C   0  0  0  0  0  0  0  0  0  0  0  0
   13.4650  -18.6120   -3.2350 Cl  0  0  0  0  0  0  0  0  0  0  0  0
   11.7360  -17.3690   -1.5770 C   0  0  0  0  0  0  0  0  0  0  0  0
   10.7240  -16.4500   -1.2880 C   0  0  0  0  0  0  0  0  0  0  0  0
    9.2510  -13.3780   -1.5310 N   0  0  0  0  0  0  0  0  0  0  0  0
   10.3890  -12.6710   -1.0220 C   0  0  0  0  0  0  0  0  0  0  0  0
   10.4460  -12.1820    0.2910 C   0  0  0  0  0  0  0  0  0  0  0  0
   11.5810  -11.4970    0.7400 C   0  0  0  0  0  0  0  0  0  0  0  0
   12.6500  -11.2870   -0.1220 C   0  0  0  0  0  0  0  0  0  0  0  0
   13.7320  -10.6290    0.3160 F   0  0  0  0  0  0  0  0  0  0  0  0
   12.6070  -11.7430   -1.4320 C   0  0  0  0  0  0  0  0  0  0  0  0
   11.4770  -12.4280   -1.8840 C   0  0  0  0  0  0  0  0  0  0  0  0
    8.0580  -12.7250   -1.5840 N   0  0  0  0  0  0  0  0  0  0  0  0
    4.4240  -14.4790   -1.5090 S   0  0  0  0  0  0  0  0  0  0  0  0
    3.1740  -13.4130   -2.0440 C   0  0  0  0  0  0  0  0  0  0  0  0
    1.7830  -13.8190   -1.8350 C   0  0  0  0  0  0  0  0  0  0  0  0
    1.0440  -14.1870   -2.7500 O   0  0  0  0  0  0  0  0  0  0  0  0
    1.4300  -13.7370   -0.5450 N   0  0  0  0  0  0  0  0  0  0  0  0
    1.0940  -12.3460   -0.1420 N   0  0  0  0  0  0  0  0  0  0  0  0
    1.9610  -11.5890    0.5830 C   0  0  0  0  0  0  0  0  0  0  0  0
    3.1200  -11.8910    0.8670 O   0  0  0  0  0  0  0  0  0  0  0  0
    1.4730  -10.3750    1.0310 N   0  0  0  0  0  0  0  0  0  0  0  0
    0.2230   -9.7950    1.1880 C   0  0  0  0  0  0  0  0  0  0  0  0
    0.1190   -8.5740    1.3260 O   0  0  0  0  0  0  0  0  0  0  0  0
   -1.0060  -10.6210    1.2170 C   0  0  0  0  0  0  0  0  0  0  0  0
   -1.2900  -11.4810    2.2830 C   0  0  0  0  0  0  0  0  0  0  0  0
   -2.4610  -12.2420    2.2750 C   0  0  0  0  0  0  0  0  0  0  0  0
   -3.3740  -12.1380    1.2130 C   0  0  0  0  0  0  0  0  0  0  0  0
   -4.6420  -12.9520    1.2020 C   0  0  0  0  0  0  0  0  0  0  0  0
   -5.0880  -13.3140    2.4380 F   0  0  0  0  0  0  0  0  0  0  0  0
   -5.6770  -12.2680    0.6300 F   0  0  0  0  0  0  0  0  0  0  0  0
   -4.5370  -14.1090    0.4870 F   0  0  0  0  0  0  0  0  0  0  0  0
   -3.1030  -11.2370    0.1700 C   0  0  0  0  0  0  0  0  0  0  0  0
   -1.9280  -10.4810    0.1740 C   0  0  0  0  0  0  0  0  0  0  0  0
    2.7146  -10.4458   -2.4011 H   0  0  0  0  0  0  0  0  0  0  0  0
    3.8020  -10.5395   -3.8277 H   0  0  0  0  0  0  0  0  0  0  0  0
    2.2416  -11.4294   -3.8277 H   0  0  0  0  0  0  0  0  0  0  0  0
    7.2757  -15.8236   -2.4846 H   0  0  0  0  0  0  0  0  0  0  0  0
   10.2537  -15.1532   -4.4139 H   0  0  0  0  0  0  0  0  0  0  0  0
   12.0703  -16.7883   -4.9256 H   0  0  0  0  0  0  0  0  0  0  0  0
   12.1524  -18.0005   -0.7784 H   0  0  0  0  0  0  0  0  0  0  0  0
   10.3382  -16.3659   -0.2613 H   0  0  0  0  0  0  0  0  0  0  0  0
    9.5953  -12.3374    0.9708 H   0  0  0  0  0  0  0  0  0  0  0  0
   11.6265  -11.1253    1.7743 H   0  0  0  0  0  0  0  0  0  0  0  0
   13.4560  -11.5664   -2.1088 H   0  0  0  0  0  0  0  0  0  0  0  0
   11.4358  -12.7819   -2.9247 H   0  0  0  0  0  0  0  0  0  0  0  0
    0.1950  -12.0280   -0.4890 H   0  0  0  0  0  0  0  0  0  0  0  0
    2.2290   -9.7680    1.3000 H   0  0  0  0  0  0  0  0  0  0  0  0
   -0.5904  -11.5580    3.1283 H   0  0  0  0  0  0  0  0  0  0  0  0
   -2.6701  -12.9291    3.1081 H   0  0  0  0  0  0  0  0  0  0  0  0
   -3.8210  -11.1258   -0.6559 H   0  0  0  0  0  0  0  0  0  0  0  0
   -1.7274   -9.7742   -0.6447 H   0  0  0  0  0  0  0  0  0  0  0  0
  1  2  1  0
  2  3  1  0
  3  4  2  0
  4  5  1  0
  5  6  1  0
  6  7  2  0
  7  8  1  0
  8  9  2  0
  9 10  1  0
 10 11  2  0
 11 12  1  0
 11 13  1  0
 13 14  2  0
  7 15  1  0
 15 16  1  0
 16 17  2  0
 17 18  1  0
 18 19  2  0
 19 20  1  0
 19 21  1  0
 21 22  2  0
 15 23  1  0
  4 24  1  0
 24 25  1  0
 25 26  1  0
 26 27  2  0
 26 28  1  0
 28 29  1  0
 29 30  1  0
 30 31  2  0
 30 32  1  0
 32 33  1  0
 33 34  2  0
 33 35  1  0
 35 36  2  0
 36 37  1  0
 37 38  2  0
 38 39  1  0
 39 40  1  0
 39 41  1  0
 39 42  1  0
 38 43  1  0
 43 44  2  0
 25  2  2  0
 44 35  1  0
 23  5  2  0
 14  8  1  0
 22 16  1  0
  1 45  1  0
  1 46  1  0
  1 47  1  0
  6 48  1  0
  9 49  1  0
 10 50  1  0
 13 51  1  0
 14 52  1  0
 17 53  1  0
 18 54  1  0
 21 55  1  0
 22 56  1  0
 29 57  1  0
 32 58  1  0
 36 59  1  0
 37 60  1  0
 43 61  1  0
 44 62  1  0
M  CHG  1  28  -1
M  END
>  <meeko>  (2) 
{"is_sidechain": [false], "free_energy": -8.678, "intermolecular_energy": -14.193, "internal_energy": -1.984}

$$$$
LIB_NEBOKDKFXPUVNX__M_PUB_ALL__e8__s20260927
     RDKit          3D

 62 66  0  0  0  0  0  0  0  0999 V2000
   -4.4630  -14.5230    3.3070 C   0  0  0  0  0  0  0  0  0  0  0  0
   -3.2240  -15.3240    3.1020 C   0  0  0  0  0  0  0  0  0  0  0  0
   -2.3260  -14.8580    2.1430 N   0  0  0  0  0  0  0  0  0  0  0  0
   -1.2870  -15.6620    2.0780 C   0  0  0  0  0  0  0  0  0  0  0  0
   -0.1020  -15.3790    1.0700 C   0  0  0  0  0  0  0  0  0  0  0  0
   -0.1760  -14.4720    0.0010 C   0  0  0  0  0  0  0  0  0  0  0  0
    1.0680  -14.4920   -0.6040 C   0  0  0  0  0  0  0  0  0  0  0  0
    1.5380  -13.6020   -1.6600 C   0  0  0  0  0  0  0  0  0  0  0  0
    1.6910  -14.0730   -2.9710 C   0  0  0  0  0  0  0  0  0  0  0  0
    2.1600  -13.2210   -3.9760 C   0  0  0  0  0  0  0  0  0  0  0  0
    2.4870  -11.9030   -3.6680 C   0  0  0  0  0  0  0  0  0  0  0  0
    3.0610  -10.8530   -4.9050 Cl  0  0  0  0  0  0  0  0  0  0  0  0
    2.3580  -11.4280   -2.3640 C   0  0  0  0  0  0  0  0  0  0  0  0
    1.8880  -12.2800   -1.3600 C   0  0  0  0  0  0  0  0  0  0  0  0
    1.7910  -15.4840    0.0660 N   0  0  0  0  0  0  0  0  0  0  0  0
    3.0750  -16.0540   -0.2170 C   0  0  0  0  0  0  0  0  0  0  0  0
    3.2750  -16.9880   -1.2430 C   0  0  0  0  0  0  0  0  0  0  0  0
    4.5490  -17.5160   -1.4790 C   0  0  0  0  0  0  0  0  0  0  0  0
    5.6190  -17.1250   -0.6840 C   0  0  0  0  0  0  0  0  0  0  0  0
    6.8360  -17.6360   -0.9160 F   0  0  0  0  0  0  0  0  0  0  0  0
    5.4410  -16.2180    0.3510 C   0  0  0  0  0  0  0  0  0  0  0  0
    4.1710  -15.6880    0.5890 C   0  0  0  0  0  0  0  0  0  0  0  0
    1.1020  -15.9520    1.1420 N   0  0  0  0  0  0  0  0  0  0  0  0
   -1.3110  -17.0010    3.1340 S   0  0  0  0  0  0  0  0  0  0  0  0
   -2.8420  -16.4940    3.7560 C   0  0  0  0  0  0  0  0  0  0  0  0
   -3.4650  -17.3060    4.8030 C   0  0  0  0  0  0  0  0  0  0  0  0
   -4.5130  -17.9320    4.6360 O   0  0  0  0  0  0  0  0  0  0  0  0
   -2.7590  -17.2760    5.9420 N   0  0  0  0  0  0  0  0  0  0  0  0
   -3.3430  -16.3420    6.9400 N   0  0  0  0  0  0  0  0  0  0  0  0
   -2.9710  -16.3790    8.2480 C   0  0  0  0  0  0  0  0  0  0  0  0
   -2.0590  -17.0570    8.7210 O   0  0  0  0  0  0  0  0  0  0  0  0
   -3.6980  -15.5730    9.1050 N   0  0  0  0  0  0  0  0  0  0  0  0
   -4.9150  -14.9090    9.0640 C   0  0  0  0  0  0  0  0  0  0  0  0
   -5.1600  -14.0120    9.8730 O   0  0  0  0  0  0  0  0  0  0  0  0
   -5.9540  -15.2750    8.0730 C   0  0  0  0  0  0  0  0  0  0  0  0
   -6.2010  -14.4900    6.9420 C   0  0  0  0  0  0  0  0  0  0  0  0
   -7.1880  -14.8690    6.0290 C   0  0  0  0  0  0  0  0  0  0  0  0
   -7.9230  -16.0490    6.2210 C   0  0  0  0  0  0  0  0  0  0  0  0
   -8.9840  -16.4680    5.2360 C   0  0  0  0  0  0  0  0  0  0  0  0
   -9.0800  -17.8150    5.0520 F   0  0  0  0  0  0  0  0  0  0  0  0
  -10.2290  -16.0680    5.6330 F   0  0  0  0  0  0  0  0  0  0  0  0
   -8.8130  -15.9300    3.9950 F   0  0  0  0  0  0  0  0  0  0  0  0
   -7.6350  -16.8560    7.3350 C   0  0  0  0  0  0  0  0  0  0  0  0
   -6.6540  -16.4720    8.2530 C   0  0  0  0  0  0  0  0  0  0  0  0
   -4.6481  -14.4033    4.3847 H   0  0  0  0  0  0  0  0  0  0  0  0
   -4.3403  -13.5328    2.8439 H   0  0  0  0  0  0  0  0  0  0  0  0
   -5.3155  -15.0413    2.8439 H   0  0  0  0  0  0  0  0  0  0  0  0
   -1.0463  -13.8681   -0.2954 H   0  0  0  0  0  0  0  0  0  0  0  0
    1.4412  -15.1171   -3.2105 H   0  0  0  0  0  0  0  0  0  0  0  0
    2.2702  -13.5907   -5.0061 H   0  0  0  0  0  0  0  0  0  0  0  0
    2.6247  -10.3877   -2.1259 H   0  0  0  0  0  0  0  0  0  0  0  0
    1.7927  -11.9096   -0.3286 H   0  0  0  0  0  0  0  0  0  0  0  0
    2.4262  -17.3073   -1.8656 H   0  0  0  0  0  0  0  0  0  0  0  0
    4.7031  -18.2397   -2.2929 H   0  0  0  0  0  0  0  0  0  0  0  0
    6.2932  -15.9189    0.9789 H   0  0  0  0  0  0  0  0  0  0  0  0
    4.0248  -14.9767    1.4152 H   0  0  0  0  0  0  0  0  0  0  0  0
   -3.9980  -15.6770    6.5410 H   0  0  0  0  0  0  0  0  0  0  0  0
   -3.2000  -15.4360    9.9690 H   0  0  0  0  0  0  0  0  0  0  0  0
   -5.6175  -13.5733    6.7713 H   0  0  0  0  0  0  0  0  0  0  0  0
   -7.3909  -14.2370    5.1519 H   0  0  0  0  0  0  0  0  0  0  0  0
   -8.1856  -17.7963    7.4853 H   0  0  0  0  0  0  0  0  0  0  0  0
   -6.4319  -17.1127    9.1191 H   0  0  0  0  0  0  0  0  0  0  0  0
  1  2  1  0
  2  3  1  0
  3  4  2  0
  4  5  1  0
  5  6  1  0
  6  7  2  0
  7  8  1  0
  8  9  2  0
  9 10  1  0
 10 11  2  0
 11 12  1  0
 11 13  1  0
 13 14  2  0
  7 15  1  0
 15 16  1  0
 16 17  2  0
 17 18  1  0
 18 19  2  0
 19 20  1  0
 19 21  1  0
 21 22  2  0
 15 23  1  0
  4 24  1  0
 24 25  1  0
 25 26  1  0
 26 27  2  0
 26 28  1  0
 28 29  1  0
 29 30  1  0
 30 31  2  0
 30 32  1  0
 32 33  1  0
 33 34  2  0
 33 35  1  0
 35 36  2  0
 36 37  1  0
 37 38  2  0
 38 39  1  0
 39 40  1  0
 39 41  1  0
 39 42  1  0
 38 43  1  0
 43 44  2  0
 25  2  2  0
 44 35  1  0
 23  5  2  0
 14  8  1  0
 22 16  1  0
  1 45  1  0
  1 46  1  0
  1 47  1  0
  6 48  1  0
  9 49  1  0
 10 50  1  0
 13 51  1  0
 14 52  1  0
 17 53  1  0
 18 54  1  0
 21 55  1  0
 22 56  1  0
 29 57  1  0
 32 58  1  0
 36 59  1  0
 37 60  1  0
 43 61  1  0
 44 62  1  0
M  CHG  1  28  -1
M  END
>  <meeko>  (3) 
{"is_sidechain": [false], "free_energy": -8.675, "intermolecular_energy": -13.97, "internal_energy": -2.203}

$$$$
LIB_NEBOKDKFXPUVNX__M_PUB_ALL__e8__s20260927
     RDKit          3D

 62 66  0  0  0  0  0  0  0  0999 V2000
   -0.0290  -16.0070    2.2710 C   0  0  0  0  0  0  0  0  0  0  0  0
    0.2420  -15.6090    0.8610 C   0  0  0  0  0  0  0  0  0  0  0  0
    1.5780  -15.4310    0.5040 N   0  0  0  0  0  0  0  0  0  0  0  0
    1.6590  -15.0860   -0.7630 C   0  0  0  0  0  0  0  0  0  0  0  0
    3.0600  -14.8170   -1.4440 C   0  0  0  0  0  0  0  0  0  0  0  0
    4.2500  -14.5870   -0.7350 C   0  0  0  0  0  0  0  0  0  0  0  0
    5.2400  -14.4370   -1.6900 C   0  0  0  0  0  0  0  0  0  0  0  0
    6.6760  -14.3400   -1.4490 C   0  0  0  0  0  0  0  0  0  0  0  0
    7.2810  -13.0920   -1.2490 C   0  0  0  0  0  0  0  0  0  0  0  0
    8.6600  -13.0030   -1.0370 C   0  0  0  0  0  0  0  0  0  0  0  0
    9.4360  -14.1600   -1.0360 C   0  0  0  0  0  0  0  0  0  0  0  0
   11.1320  -14.0510   -0.7720 Cl  0  0  0  0  0  0  0  0  0  0  0  0
    8.8480  -15.4050   -1.2530 C   0  0  0  0  0  0  0  0  0  0  0  0
    7.4700  -15.4940   -1.4640 C   0  0  0  0  0  0  0  0  0  0  0  0
    4.5780  -14.4800   -2.9210 N   0  0  0  0  0  0  0  0  0  0  0  0
    5.0600  -14.2270   -4.2470 C   0  0  0  0  0  0  0  0  0  0  0  0
    5.9200  -15.1090   -4.9160 C   0  0  0  0  0  0  0  0  0  0  0  0
    6.3640  -14.8160   -6.2110 C   0  0  0  0  0  0  0  0  0  0  0  0
    5.9620  -13.6400   -6.8310 C   0  0  0  0  0  0  0  0  0  0  0  0
    6.3920  -13.3670   -8.0710 F   0  0  0  0  0  0  0  0  0  0  0  0
    5.1280  -12.7420   -6.1800 C   0  0  0  0  0  0  0  0  0  0  0  0
    4.6830  -13.0310   -4.8890 C   0  0  0  0  0  0  0  0  0  0  0  0
    3.2670  -14.8040   -2.7630 N   0  0  0  0  0  0  0  0  0  0  0  0
    0.1770  -14.9530   -1.5960 S   0  0  0  0  0  0  0  0  0  0  0  0
   -0.6810  -15.3900   -0.1610 C   0  0  0  0  0  0  0  0  0  0  0  0
   -2.1420  -15.4630   -0.2250 C   0  0  0  0  0  0  0  0  0  0  0  0
   -2.7720  -16.5060   -0.0420 O   0  0  0  0  0  0  0  0  0  0  0  0
   -2.6870  -14.2710   -0.5040 N   0  0  0  0  0  0  0  0  0  0  0  0
   -2.2640  -13.2210    0.4600 N   0  0  0  0  0  0  0  0  0  0  0  0
   -3.1720  -12.4200    1.0800 C   0  0  0  0  0  0  0  0  0  0  0  0
   -4.3960  -12.5430    1.0300 O   0  0  0  0  0  0  0  0  0  0  0  0
   -2.6490  -11.3810    1.8270 N   0  0  0  0  0  0  0  0  0  0  0  0
   -1.4270  -10.7310    1.9210 C   0  0  0  0  0  0  0  0  0  0  0  0
   -1.1700  -10.0340    2.9050 O   0  0  0  0  0  0  0  0  0  0  0  0
   -0.4190  -10.8360    0.8410 C   0  0  0  0  0  0  0  0  0  0  0  0
    0.6280  -11.7610    0.8990 C   0  0  0  0  0  0  0  0  0  0  0  0
    1.5580  -11.8320   -0.1410 C   0  0  0  0  0  0  0  0  0  0  0  0
    1.4410  -10.9950   -1.2620 C   0  0  0  0  0  0  0  0  0  0  0  0
    2.4380  -11.0710   -2.3900 C   0  0  0  0  0  0  0  0  0  0  0  0
    3.6950  -11.4310   -2.0060 F   0  0  0  0  0  0  0  0  0  0  0  0
    2.0690  -11.9920   -3.3300 F   0  0  0  0  0  0  0  0  0  0  0  0
    2.5750   -9.8970   -3.0720 F   0  0  0  0  0  0  0  0  0  0  0  0
    0.3590  -10.1020   -1.3330 C   0  0  0  0  0  0  0  0  0  0  0  0
   -0.5660  -10.0250   -0.2890 C   0  0  0  0  0  0  0  0  0  0  0  0
    0.4567  -15.2937    2.9531 H   0  0  0  0  0  0  0  0  0  0  0  0
   -1.1143  -16.0051    2.4504 H   0  0  0  0  0  0  0  0  0  0  0  0
    0.3705  -17.0161    2.4504 H   0  0  0  0  0  0  0  0  0  0  0  0
    4.3706  -14.5364    0.3572 H   0  0  0  0  0  0  0  0  0  0  0  0
    6.6683  -12.1785   -1.2588 H   0  0  0  0  0  0  0  0  0  0  0  0
    9.1307  -12.0227   -0.8715 H   0  0  0  0  0  0  0  0  0  0  0  0
    9.4670  -16.3143   -1.2581 H   0  0  0  0  0  0  0  0  0  0  0  0
    7.0060  -16.4752   -1.6428 H   0  0  0  0  0  0  0  0  0  0  0  0
    6.2474  -16.0353   -4.4213 H   0  0  0  0  0  0  0  0  0  0  0  0
    7.0301  -15.5160   -6.7366 H   0  0  0  0  0  0  0  0  0  0  0  0
    4.8202  -11.8103   -6.6772 H   0  0  0  0  0  0  0  0  0  0  0  0
    4.0301  -12.3163   -4.3666 H   0  0  0  0  0  0  0  0  0  0  0  0
   -1.2630  -13.1970    0.6210 H   0  0  0  0  0  0  0  0  0  0  0  0
   -3.3400  -11.0220    2.4650 H   0  0  0  0  0  0  0  0  0  0  0  0
    0.7195  -12.4336    1.7646 H   0  0  0  0  0  0  0  0  0  0  0  0
    2.3892  -12.5500   -0.0810 H   0  0  0  0  0  0  0  0  0  0  0  0
    0.2392   -9.4586   -2.2171 H   0  0  0  0  0  0  0  0  0  0  0  0
   -1.4119   -9.3250   -0.3558 H   0  0  0  0  0  0  0  0  0  0  0  0
  1  2  1  0
  2  3  1  0
  3  4  2  0
  4  5  1  0
  5  6  1  0
  6  7  2  0
  7  8  1  0
  8  9  2  0
  9 10  1  0
 10 11  2  0
 11 12  1  0
 11 13  1  0
 13 14  2  0
  7 15  1  0
 15 16  1  0
 16 17  2  0
 17 18  1  0
 18 19  2  0
 19 20  1  0
 19 21  1  0
 21 22  2  0
 15 23  1  0
  4 24  1  0
 24 25  1  0
 25 26  1  0
 26 27  2  0
 26 28  1  0
 28 29  1  0
 29 30  1  0
 30 31  2  0
 30 32  1  0
 32 33  1  0
 33 34  2  0
 33 35  1  0
 35 36  2  0
 36 37  1  0
 37 38  2  0
 38 39  1  0
 39 40  1  0
 39 41  1  0
 39 42  1  0
 38 43  1  0
 43 44  2  0
 25  2  2  0
 44 35  1  0
 23  5  2  0
 14  8  1  0
 22 16  1  0
  1 45  1  0
  1 46  1  0
  1 47  1  0
  6 48  1  0
  9 49  1  0
 10 50  1  0
 13 51  1  0
 14 52  1  0
 17 53  1  0
 18 54  1  0
 21 55  1  0
 22 56  1  0
 29 57  1  0
 32 58  1  0
 36 59  1  0
 37 60  1  0
 43 61  1  0
 44 62  1  0
M  CHG  1  28  -1
M  END
>  <meeko>  (4) 
{"is_sidechain": [false], "free_energy": -8.665, "intermolecular_energy": -12.702, "internal_energy": -3.455}

$$$$
LIB_NEBOKDKFXPUVNX__M_PUB_ALL__e8__s20260927
     RDKit          3D

 62 66  0  0  0  0  0  0  0  0999 V2000
    2.7960  -10.9000   -3.0560 C   0  0  0  0  0  0  0  0  0  0  0  0
    3.4470  -11.9110   -2.1760 C   0  0  0  0  0  0  0  0  0  0  0  0
    4.8240  -12.0750   -2.3190 N   0  0  0  0  0  0  0  0  0  0  0  0
    5.2530  -12.9930   -1.4810 C   0  0  0  0  0  0  0  0  0  0  0  0
    6.7820  -13.3880   -1.4220 C   0  0  0  0  0  0  0  0  0  0  0  0
    7.2670  -14.6940   -1.5940 C   0  0  0  0  0  0  0  0  0  0  0  0
    8.6450  -14.6050   -1.5070 C   0  0  0  0  0  0  0  0  0  0  0  0
    9.6060  -15.6680   -1.7820 C   0  0  0  0  0  0  0  0  0  0  0  0
   10.7310  -15.8380   -0.9630 C   0  0  0  0  0  0  0  0  0  0  0  0
   11.6590  -16.8470   -1.2400 C   0  0  0  0  0  0  0  0  0  0  0  0
   11.4700  -17.6760   -2.3430 C   0  0  0  0  0  0  0  0  0  0  0  0
   12.6100  -18.9180   -2.6830 Cl  0  0  0  0  0  0  0  0  0  0  0  0
   10.3660  -17.5040   -3.1760 C   0  0  0  0  0  0  0  0  0  0  0  0
    9.4380  -16.4970   -2.8980 C   0  0  0  0  0  0  0  0  0  0  0  0
    8.9110  -13.2710   -1.1840 N   0  0  0  0  0  0  0  0  0  0  0  0
   10.1390  -12.6280   -0.8200 C   0  0  0  0  0  0  0  0  0  0  0  0
   10.3880  -12.1600    0.4780 C   0  0  0  0  0  0  0  0  0  0  0  0
   11.6040  -11.5360    0.7830 C   0  0  0  0  0  0  0  0  0  0  0  0
   12.5630  -11.3660   -0.2080 C   0  0  0  0  0  0  0  0  0  0  0  0
   13.7230  -10.7670    0.0920 F   0  0  0  0  0  0  0  0  0  0  0  0
   12.3290  -11.8010   -1.5050 C   0  0  0  0  0  0  0  0  0  0  0  0
   11.1180  -12.4240   -1.8130 C   0  0  0  0  0  0  0  0  0  0  0  0
    7.7780  -12.5200   -1.2250 N   0  0  0  0  0  0  0  0  0  0  0  0
    4.0670  -13.7090   -0.4860 S   0  0  0  0  0  0  0  0  0  0  0  0
    2.8470  -12.7250   -1.2160 C   0  0  0  0  0  0  0  0  0  0  0  0
    1.4670  -12.8770   -0.7500 C   0  0  0  0  0  0  0  0  0  0  0  0
    0.8420  -11.9740   -0.1920 O   0  0  0  0  0  0  0  0  0  0  0  0
    0.9890  -14.1020   -1.0070 N   0  0  0  0  0  0  0  0  0  0  0  0
   -0.0010  -14.5420    0.0120 N   0  0  0  0  0  0  0  0  0  0  0  0
   -0.8810  -15.5480   -0.2430 C   0  0  0  0  0  0  0  0  0  0  0  0
   -0.8830  -16.2710   -1.2390 O   0  0  0  0  0  0  0  0  0  0  0  0
   -1.8530  -15.7570    0.7180 N   0  0  0  0  0  0  0  0  0  0  0  0
   -2.3760  -15.0430    1.7860 C   0  0  0  0  0  0  0  0  0  0  0  0
   -3.0310  -15.6190    2.6570 O   0  0  0  0  0  0  0  0  0  0  0  0
   -2.1840  -13.5780    1.8940 C   0  0  0  0  0  0  0  0  0  0  0  0
   -2.8220  -12.6860    1.0260 C   0  0  0  0  0  0  0  0  0  0  0  0
   -2.6180  -11.3100    1.1620 C   0  0  0  0  0  0  0  0  0  0  0  0
   -1.7900  -10.8080    2.1780 C   0  0  0  0  0  0  0  0  0  0  0  0
   -1.5710   -9.3250    2.3330 C   0  0  0  0  0  0  0  0  0  0  0  0
   -2.5420   -8.5520    1.7700 F   0  0  0  0  0  0  0  0  0  0  0  0
   -1.5300   -8.9540    3.6470 F   0  0  0  0  0  0  0  0  0  0  0  0
   -0.3910   -8.8930    1.8010 F   0  0  0  0  0  0  0  0  0  0  0  0
   -1.1900  -11.7090    3.0740 C   0  0  0  0  0  0  0  0  0  0  0  0
   -1.3890  -13.0850    2.9340 C   0  0  0  0  0  0  0  0  0  0  0  0
    2.3042  -10.1363   -2.4356 H   0  0  0  0  0  0  0  0  0  0  0  0
    3.5567  -10.4225   -3.6910 H   0  0  0  0  0  0  0  0  0  0  0  0
    2.0465  -11.3949   -3.6910 H   0  0  0  0  0  0  0  0  0  0  0  0
    6.6722  -15.6036   -1.7636 H   0  0  0  0  0  0  0  0  0  0  0  0
   10.8845  -15.1750   -0.0988 H   0  0  0  0  0  0  0  0  0  0  0  0
   12.5349  -16.9853   -0.5891 H   0  0  0  0  0  0  0  0  0  0  0  0
   10.2257  -18.1584   -4.0489 H   0  0  0  0  0  0  0  0  0  0  0  0
    8.5707  -16.3547   -3.5595 H   0  0  0  0  0  0  0  0  0  0  0  0
    9.6247  -12.2836    1.2604 H   0  0  0  0  0  0  0  0  0  0  0  0
   11.7997  -11.1810    1.8056 H   0  0  0  0  0  0  0  0  0  0  0  0
   13.0917  -11.6561   -2.2843 H   0  0  0  0  0  0  0  0  0  0  0  0
   10.9258  -12.7595   -2.8428 H   0  0  0  0  0  0  0  0  0  0  0  0
    0.0780  -14.0490    0.8950 H   0  0  0  0  0  0  0  0  0  0  0  0
   -2.2710  -16.6660    0.6060 H   0  0  0  0  0  0  0  0  0  0  0  0
   -3.4849  -13.0677    0.2356 H   0  0  0  0  0  0  0  0  0  0  0  0
   -3.1107  -10.6144    0.4667 H   0  0  0  0  0  0  0  0  0  0  0  0
   -0.5594  -11.3286    3.8911 H   0  0  0  0  0  0  0  0  0  0  0  0
   -0.9193  -13.7822    3.6434 H   0  0  0  0  0  0  0  0  0  0  0  0
  1  2  1  0
  2  3  1  0
  3  4  2  0
  4  5  1  0
  5  6  1  0
  6  7  2  0
  7  8  1  0
  8  9  2  0
  9 10  1  0
 10 11  2  0
 11 12  1  0
 11 13  1  0
 13 14  2  0
  7 15  1  0
 15 16  1  0
 16 17  2  0
 17 18  1  0
 18 19  2  0
 19 20  1  0
 19 21  1  0
 21 22  2  0
 15 23  1  0
  4 24  1  0
 24 25  1  0
 25 26  1  0
 26 27  2  0
 26 28  1  0
 28 29  1  0
 29 30  1  0
 30 31  2  0
 30 32  1  0
 32 33  1  0
 33 34  2  0
 33 35  1  0
 35 36  2  0
 36 37  1  0
 37 38  2  0
 38 39  1  0
 39 40  1  0
 39 41  1  0
 39 42  1  0
 38 43  1  0
 43 44  2  0
 25  2  2  0
 44 35  1  0
 23  5  2  0
 14  8  1  0
 22 16  1  0
  1 45  1  0
  1 46  1  0
  1 47  1  0
  6 48  1  0
  9 49  1  0
 10 50  1  0
 13 51  1  0
 14 52  1  0
 17 53  1  0
 18 54  1  0
 21 55  1  0
 22 56  1  0
 29 57  1  0
 32 58  1  0
 36 59  1  0
 37 60  1  0
 43 61  1  0
 44 62  1  0
M  CHG  1  28  -1
M  END
>  <meeko>  (5) 
{"is_sidechain": [false], "free_energy": -8.254, "intermolecular_energy": -13.716, "internal_energy": -1.838}

$$$$
LIB_NEBOKDKFXPUVNX__M_PUB_ALL__e8__s20260927
     RDKit          3D

 62 66  0  0  0  0  0  0  0  0999 V2000
    6.4400  -10.6580    1.2970 C   0  0  0  0  0  0  0  0  0  0  0  0
    5.6840  -11.8320    0.7770 C   0  0  0  0  0  0  0  0  0  0  0  0
    4.3340  -11.9120    1.1180 N   0  0  0  0  0  0  0  0  0  0  0  0
    3.8040  -12.9930    0.5880 C   0  0  0  0  0  0  0  0  0  0  0  0
    2.2780  -13.3410    0.8090 C   0  0  0  0  0  0  0  0  0  0  0  0
    1.8110  -14.5810    1.2730 C   0  0  0  0  0  0  0  0  0  0  0  0
    0.4360  -14.4630    1.3610 C   0  0  0  0  0  0  0  0  0  0  0  0
   -0.4860  -15.4290    1.9480 C   0  0  0  0  0  0  0  0  0  0  0  0
   -1.0090  -15.2250    3.2320 C   0  0  0  0  0  0  0  0  0  0  0  0
   -1.8790  -16.1630    3.7970 C   0  0  0  0  0  0  0  0  0  0  0  0
   -2.2160  -17.3110    3.0840 C   0  0  0  0  0  0  0  0  0  0  0  0
   -3.2880  -18.4630    3.7780 Cl  0  0  0  0  0  0  0  0  0  0  0  0
   -1.6870  -17.5340    1.8140 C   0  0  0  0  0  0  0  0  0  0  0  0
   -0.8190  -16.5960    1.2490 C   0  0  0  0  0  0  0  0  0  0  0  0
    0.1380  -13.1970    0.8470 N   0  0  0  0  0  0  0  0  0  0  0  0
   -1.1230  -12.5860    0.5470 C   0  0  0  0  0  0  0  0  0  0  0  0
   -1.3320  -11.2030    0.6430 C   0  0  0  0  0  0  0  0  0  0  0  0
   -2.5840  -10.6550    0.3400 C   0  0  0  0  0  0  0  0  0  0  0  0
   -3.6290  -11.4860   -0.0440 C   0  0  0  0  0  0  0  0  0  0  0  0
   -4.8240  -10.9530   -0.3310 F   0  0  0  0  0  0  0  0  0  0  0  0
   -3.4520  -12.8590   -0.1260 C   0  0  0  0  0  0  0  0  0  0  0  0
   -2.2040  -13.4100    0.1750 C   0  0  0  0  0  0  0  0  0  0  0  0
    1.2720  -12.4880    0.6010 N   0  0  0  0  0  0  0  0  0  0  0  0
    4.8590  -13.9670   -0.3330 S   0  0  0  0  0  0  0  0  0  0  0  0
    6.1600  -12.8740   -0.0170 C   0  0  0  0  0  0  0  0  0  0  0  0
    7.4720  -13.1790   -0.5910 C   0  0  0  0  0  0  0  0  0  0  0  0
    8.2340  -14.0230   -0.1170 O   0  0  0  0  0  0  0  0  0  0  0  0
    7.7260  -12.4320   -1.6740 N   0  0  0  0  0  0  0  0  0  0  0  0
    7.7920  -13.2490   -2.9150 N   0  0  0  0  0  0  0  0  0  0  0  0
    8.7950  -13.0830   -3.8200 C   0  0  0  0  0  0  0  0  0  0  0  0
    9.7910  -12.3740   -3.6730 O   0  0  0  0  0  0  0  0  0  0  0  0
    8.6610  -13.7840   -5.0040 N   0  0  0  0  0  0  0  0  0  0  0  0
    7.6320  -14.4280   -5.6760 C   0  0  0  0  0  0  0  0  0  0  0  0
    7.8870  -15.2330   -6.5740 O   0  0  0  0  0  0  0  0  0  0  0  0
    6.2140  -14.1500   -5.3510 C   0  0  0  0  0  0  0  0  0  0  0  0
    5.5630  -13.0040   -5.8190 C   0  0  0  0  0  0  0  0  0  0  0  0
    4.2230  -12.7780   -5.4920 C   0  0  0  0  0  0  0  0  0  0  0  0
    3.5120  -13.7040   -4.7130 C   0  0  0  0  0  0  0  0  0  0  0  0
    2.0650  -13.4690   -4.3630 C   0  0  0  0  0  0  0  0  0  0  0  0
    1.1940  -14.3200   -4.9750 F   0  0  0  0  0  0  0  0  0  0  0  0
    1.8370  -13.6190   -3.0250 F   0  0  0  0  0  0  0  0  0  0  0  0
    1.6330  -12.2100   -4.6620 F   0  0  0  0  0  0  0  0  0  0  0  0
    4.1610  -14.8740   -4.2870 C   0  0  0  0  0  0  0  0  0  0  0  0
    5.5030  -15.0970   -4.6070 C   0  0  0  0  0  0  0  0  0  0  0  0
    6.4301  -10.6734    2.3968 H   0  0  0  0  0  0  0  0  0  0  0  0
    7.4791  -10.7032    0.9390 H   0  0  0  0  0  0  0  0  0  0  0  0
    5.9689   -9.7307    0.9390 H   0  0  0  0  0  0  0  0  0  0  0  0
    2.4160  -15.4667    1.5170 H   0  0  0  0  0  0  0  0  0  0  0  0
   -0.7340  -14.3229    3.7982 H   0  0  0  0  0  0  0  0  0  0  0  0
   -2.2957  -15.9947    4.8010 H   0  0  0  0  0  0  0  0  0  0  0  0
   -1.9520  -18.4455    1.2582 H   0  0  0  0  0  0  0  0  0  0  0  0
   -0.3950  -16.7751    0.2499 H   0  0  0  0  0  0  0  0  0  0  0  0
   -0.5083  -10.5454    0.9579 H   0  0  0  0  0  0  0  0  0  0  0  0
   -2.7401   -9.5681    0.4058 H   0  0  0  0  0  0  0  0  0  0  0  0
   -4.2874  -13.5089   -0.4256 H   0  0  0  0  0  0  0  0  0  0  0  0
   -2.0635  -14.4997    0.1210 H   0  0  0  0  0  0  0  0  0  0  0  0
    7.0540  -13.9400   -2.9880 H   0  0  0  0  0  0  0  0  0  0  0  0
    9.5440  -13.8380   -5.4840 H   0  0  0  0  0  0  0  0  0  0  0  0
    6.1058  -12.2802   -6.4447 H   0  0  0  0  0  0  0  0  0  0  0  0
    3.7212  -11.8663   -5.8484 H   0  0  0  0  0  0  0  0  0  0  0  0
    3.6091  -15.6206   -3.6971 H   0  0  0  0  0  0  0  0  0  0  0  0
    6.0010  -16.0192   -4.2730 H   0  0  0  0  0  0  0  0  0  0  0  0
  1  2  1  0
  2  3  1  0
  3  4  2  0
  4  5  1  0
  5  6  1  0
  6  7  2  0
  7  8  1  0
  8  9  2  0
  9 10  1  0
 10 11  2  0
 11 12  1  0
 11 13  1  0
 13 14  2  0
  7 15  1  0
 15 16  1  0
 16 17  2  0
 17 18  1  0
 18 19  2  0
 19 20  1  0
 19 21  1  0
 21 22  2  0
 15 23  1  0
  4 24  1  0
 24 25  1  0
 25 26  1  0
 26 27  2  0
 26 28  1  0
 28 29  1  0
 29 30  1  0
 30 31  2  0
 30 32  1  0
 32 33  1  0
 33 34  2  0
 33 35  1  0
 35 36  2  0
 36 37  1  0
 37 38  2  0
 38 39  1  0
 39 40  1  0
 39 41  1  0
 39 42  1  0
 38 43  1  0
 43 44  2  0
 25  2  2  0
 44 35  1  0
 23  5  2  0
 14  8  1  0
 22 16  1  0
  1 45  1  0
  1 46  1  0
  1 47  1  0
  6 48  1  0
  9 49  1  0
 10 50  1  0
 13 51  1  0
 14 52  1  0
 17 53  1  0
 18 54  1  0
 21 55  1  0
 22 56  1  0
 29 57  1  0
 32 58  1  0
 36 59  1  0
 37 60  1  0
 43 61  1  0
 44 62  1  0
M  CHG  1  28  -1
M  END
>  <meeko>  (6) 
{"is_sidechain": [false], "free_energy": -8.215, "intermolecular_energy": -13.227, "internal_energy": -2.271}

$$$$
LIB_NEBOKDKFXPUVNX__M_PUB_ALL__e8__s20260927
     RDKit          3D

 62 66  0  0  0  0  0  0  0  0999 V2000
   -2.1830  -16.3650   -0.0260 C   0  0  0  0  0  0  0  0  0  0  0  0
   -0.8080  -16.0650    0.4630 C   0  0  0  0  0  0  0  0  0  0  0  0
    0.0450  -15.4080   -0.4220 N   0  0  0  0  0  0  0  0  0  0  0  0
    1.2140  -15.2120    0.1480 C   0  0  0  0  0  0  0  0  0  0  0  0
    2.3840  -14.4840   -0.6270 C   0  0  0  0  0  0  0  0  0  0  0  0
    3.6710  -14.2800   -0.1030 C   0  0  0  0  0  0  0  0  0  0  0  0
    4.3930  -13.6490   -1.0990 C   0  0  0  0  0  0  0  0  0  0  0  0
    5.8260  -13.3730   -1.0950 C   0  0  0  0  0  0  0  0  0  0  0  0
    6.2960  -12.0560   -1.1870 C   0  0  0  0  0  0  0  0  0  0  0  0
    7.6700  -11.7960   -1.2010 C   0  0  0  0  0  0  0  0  0  0  0  0
    8.5740  -12.8550   -1.1350 C   0  0  0  0  0  0  0  0  0  0  0  0
   10.2650  -12.5360   -1.1490 Cl  0  0  0  0  0  0  0  0  0  0  0  0
    8.1180  -14.1700   -1.0630 C   0  0  0  0  0  0  0  0  0  0  0  0
    6.7450  -14.4280   -1.0480 C   0  0  0  0  0  0  0  0  0  0  0  0
    3.4780  -13.4120   -2.1290 N   0  0  0  0  0  0  0  0  0  0  0  0
    3.6130  -12.6610   -3.3420 C   0  0  0  0  0  0  0  0  0  0  0  0
    3.1530  -11.3420   -3.4660 C   0  0  0  0  0  0  0  0  0  0  0  0
    3.3070  -10.6510   -4.6740 C   0  0  0  0  0  0  0  0  0  0  0  0
    3.9070  -11.2780   -5.7590 C   0  0  0  0  0  0  0  0  0  0  0  0
    4.0500  -10.6090   -6.9110 F   0  0  0  0  0  0  0  0  0  0  0  0
    4.3510  -12.5900   -5.6660 C   0  0  0  0  0  0  0  0  0  0  0  0
    4.1990  -13.2820   -4.4630 C   0  0  0  0  0  0  0  0  0  0  0  0
    2.2820  -14.0060   -1.8700 N   0  0  0  0  0  0  0  0  0  0  0  0
    1.3710  -15.7870    1.7460 S   0  0  0  0  0  0  0  0  0  0  0  0
   -0.2580  -16.3610    1.7100 C   0  0  0  0  0  0  0  0  0  0  0  0
   -0.7840  -17.0220    2.9060 C   0  0  0  0  0  0  0  0  0  0  0  0
   -1.0830  -18.2160    2.9390 O   0  0  0  0  0  0  0  0  0  0  0  0
   -0.8950  -16.1700    3.9350 N   0  0  0  0  0  0  0  0  0  0  0  0
   -2.0070  -15.2010    3.7440 N   0  0  0  0  0  0  0  0  0  0  0  0
   -3.2740  -15.6200    3.4740 C   0  0  0  0  0  0  0  0  0  0  0  0
   -3.6670  -16.7860    3.4870 O   0  0  0  0  0  0  0  0  0  0  0  0
   -4.1830  -14.6270    3.1600 N   0  0  0  0  0  0  0  0  0  0  0  0
   -4.1190  -13.2980    2.7670 C   0  0  0  0  0  0  0  0  0  0  0  0
   -5.1140  -12.5760    2.8550 O   0  0  0  0  0  0  0  0  0  0  0  0
   -2.8710  -12.7240    2.2110 C   0  0  0  0  0  0  0  0  0  0  0  0
   -1.9320  -12.0810    3.0230 C   0  0  0  0  0  0  0  0  0  0  0  0
   -0.7650  -11.5540    2.4630 C   0  0  0  0  0  0  0  0  0  0  0  0
   -0.5130  -11.6820    1.0880 C   0  0  0  0  0  0  0  0  0  0  0  0
    0.7460  -11.1210    0.4770 C   0  0  0  0  0  0  0  0  0  0  0  0
    0.9150   -9.7830    0.6710 F   0  0  0  0  0  0  0  0  0  0  0  0
    1.8650  -11.7060    0.9990 F   0  0  0  0  0  0  0  0  0  0  0  0
    0.8310  -11.3200   -0.8690 F   0  0  0  0  0  0  0  0  0  0  0  0
   -1.4410  -12.3700    0.2880 C   0  0  0  0  0  0  0  0  0  0  0  0
   -2.6100  -12.8910    0.8470 C   0  0  0  0  0  0  0  0  0  0  0  0
   -2.8540  -16.5114    0.8333 H   0  0  0  0  0  0  0  0  0  0  0  0
   -2.5466  -15.5250   -0.6362 H   0  0  0  0  0  0  0  0  0  0  0  0
   -2.1637  -17.2801   -0.6362 H   0  0  0  0  0  0  0  0  0  0  0  0
    4.0313  -14.5644    0.8966 H   0  0  0  0  0  0  0  0  0  0  0  0
    5.5806  -11.2226   -1.2485 H   0  0  0  0  0  0  0  0  0  0  0  0
    8.0357  -10.7605   -1.2638 H   0  0  0  0  0  0  0  0  0  0  0  0
    8.8365  -15.0017   -1.0181 H   0  0  0  0  0  0  0  0  0  0  0  0
    6.3841  -15.4659   -0.9990 H   0  0  0  0  0  0  0  0  0  0  0  0
    2.6691  -10.8481   -2.6105 H   0  0  0  0  0  0  0  0  0  0  0  0
    2.9535   -9.6132   -4.7639 H   0  0  0  0  0  0  0  0  0  0  0  0
    4.8186  -13.0802   -6.5327 H   0  0  0  0  0  0  0  0  0  0  0  0
    4.5409  -14.3249   -4.3893 H   0  0  0  0  0  0  0  0  0  0  0  0
   -1.7300  -14.2340    3.8700 H   0  0  0  0  0  0  0  0  0  0  0  0
   -5.1250  -14.9680    3.2540 H   0  0  0  0  0  0  0  0  0  0  0  0
   -2.1120  -11.9897    4.1043 H   0  0  0  0  0  0  0  0  0  0  0  0
   -0.0381  -11.0347    3.1049 H   0  0  0  0  0  0  0  0  0  0  0  0
   -1.2452  -12.4992   -0.7867 H   0  0  0  0  0  0  0  0  0  0  0  0
   -3.3269  -13.4338    0.2134 H   0  0  0  0  0  0  0  0  0  0  0  0
  1  2  1  0
  2  3  1  0
  3  4  2  0
  4  5  1  0
  5  6  1  0
  6  7  2  0
  7  8  1  0
  8  9  2  0
  9 10  1  0
 10 11  2  0
 11 12  1  0
 11 13  1  0
 13 14  2  0
  7 15  1  0
 15 16  1  0
 16 17  2  0
 17 18  1  0
 18 19  2  0
 19 20  1  0
 19 21  1  0
 21 22  2  0
 15 23  1  0
  4 24  1  0
 24 25  1  0
 25 26  1  0
 26 27  2  0
 26 28  1  0
 28 29  1  0
 29 30  1  0
 30 31  2  0
 30 32  1  0
 32 33  1  0
 33 34  2  0
 33 35  1  0
 35 36  2  0
 36 37  1  0
 37 38  2  0
 38 39  1  0
 39 40  1  0
 39 41  1  0
 39 42  1  0
 38 43  1  0
 43 44  2  0
 25  2  2  0
 44 35  1  0
 23  5  2  0
 14  8  1  0
 22 16  1  0
  1 45  1  0
  1 46  1  0
  1 47  1  0
  6 48  1  0
  9 49  1  0
 10 50  1  0
 13 51  1  0
 14 52  1  0
 17 53  1  0
 18 54  1  0
 21 55  1  0
 22 56  1  0
 29 57  1  0
 32 58  1  0
 36 59  1  0
 37 60  1  0
 43 61  1  0
 44 62  1  0
M  CHG  1  28  -1
M  END
>  <meeko>  (7) 
{"is_sidechain": [false], "free_energy": -8.179, "intermolecular_energy": -12.655, "internal_energy": -2.79}

$$$$
LIB_NEBOKDKFXPUVNX__M_PUB_ALL__e8__s20260927
     RDKit          3D

 62 66  0  0  0  0  0  0  0  0999 V2000
    8.2070  -11.5030    0.8750 C   0  0  0  0  0  0  0  0  0  0  0  0
    7.0410  -12.1630    0.2230 C   0  0  0  0  0  0  0  0  0  0  0  0
    5.9570  -12.4750    1.0420 N   0  0  0  0  0  0  0  0  0  0  0  0
    5.0100  -13.0470    0.3300 C   0  0  0  0  0  0  0  0  0  0  0  0
    3.6560  -13.5110    1.0010 C   0  0  0  0  0  0  0  0  0  0  0  0
    3.5760  -14.4040    2.0810 C   0  0  0  0  0  0  0  0  0  0  0  0
    2.2320  -14.5140    2.3860 C   0  0  0  0  0  0  0  0  0  0  0  0
    1.6530  -15.2000    3.5370 C   0  0  0  0  0  0  0  0  0  0  0  0
    1.4510  -16.5870    3.5110 C   0  0  0  0  0  0  0  0  0  0  0  0
    0.8790  -17.2370    4.6080 C   0  0  0  0  0  0  0  0  0  0  0  0
    0.4970  -16.5000    5.7270 C   0  0  0  0  0  0  0  0  0  0  0  0
   -0.2040  -17.3000    7.0790 Cl  0  0  0  0  0  0  0  0  0  0  0  0
    0.6760  -15.1180    5.7570 C   0  0  0  0  0  0  0  0  0  0  0  0
    1.2480  -14.4690    4.6610 C   0  0  0  0  0  0  0  0  0  0  0  0
    1.5660  -13.7660    1.4100 N   0  0  0  0  0  0  0  0  0  0  0  0
    0.1670  -13.6390    1.1270 C   0  0  0  0  0  0  0  0  0  0  0  0
   -0.5890  -12.5350    1.5450 C   0  0  0  0  0  0  0  0  0  0  0  0
   -1.9540  -12.4590    1.2440 C   0  0  0  0  0  0  0  0  0  0  0  0
   -2.5660  -13.4880    0.5390 C   0  0  0  0  0  0  0  0  0  0  0  0
   -3.8730  -13.4070    0.2560 F   0  0  0  0  0  0  0  0  0  0  0  0
   -1.8430  -14.6010    0.1350 C   0  0  0  0  0  0  0  0  0  0  0  0
   -0.4810  -14.6800    0.4320 C   0  0  0  0  0  0  0  0  0  0  0  0
    2.4470  -13.0860    0.6280 N   0  0  0  0  0  0  0  0  0  0  0  0
    5.3440  -13.2480   -1.3310 S   0  0  0  0  0  0  0  0  0  0  0  0
    6.8940  -12.5130   -1.1190 C   0  0  0  0  0  0  0  0  0  0  0  0
    7.7580  -12.3720   -2.2920 C   0  0  0  0  0  0  0  0  0  0  0  0
    7.8300  -11.3370   -2.9550 O   0  0  0  0  0  0  0  0  0  0  0  0
    8.4430  -13.4970   -2.5410 N   0  0  0  0  0  0  0  0  0  0  0  0
    8.0890  -14.0880   -3.8590 N   0  0  0  0  0  0  0  0  0  0  0  0
    8.9600  -14.0620   -4.9040 C   0  0  0  0  0  0  0  0  0  0  0  0
   10.1320  -13.6900   -4.8590 O   0  0  0  0  0  0  0  0  0  0  0  0
    8.4590  -14.4990   -6.1170 N   0  0  0  0  0  0  0  0  0  0  0  0
    7.2020  -14.7170   -6.6610 C   0  0  0  0  0  0  0  0  0  0  0  0
    7.0770  -15.4050   -7.6770 O   0  0  0  0  0  0  0  0  0  0  0  0
    5.9910  -14.1140   -6.0570 C   0  0  0  0  0  0  0  0  0  0  0  0
    5.6140  -12.7940   -6.3260 C   0  0  0  0  0  0  0  0  0  0  0  0
    4.4630  -12.2620   -5.7390 C   0  0  0  0  0  0  0  0  0  0  0  0
    3.6650  -13.0470   -4.8930 C   0  0  0  0  0  0  0  0  0  0  0  0
    2.4190  -12.4810   -4.2610 C   0  0  0  0  0  0  0  0  0  0  0  0
    2.3460  -12.6540   -2.9110 F   0  0  0  0  0  0  0  0  0  0  0  0
    2.3200  -11.1320   -4.4580 F   0  0  0  0  0  0  0  0  0  0  0  0
    1.2670  -13.0040   -4.7700 F   0  0  0  0  0  0  0  0  0  0  0  0
    4.0270  -14.3850   -4.6650 C   0  0  0  0  0  0  0  0  0  0  0  0
    5.1810  -14.9160   -5.2470 C   0  0  0  0  0  0  0  0  0  0  0  0
    8.0990  -11.5641    1.9680 H   0  0  0  0  0  0  0  0  0  0  0  0
    9.1338  -12.0104    0.5692 H   0  0  0  0  0  0  0  0  0  0  0  0
    8.2490  -10.4472    0.5692 H   0  0  0  0  0  0  0  0  0  0  0  0
    4.4124  -14.9128    2.5826 H   0  0  0  0  0  0  0  0  0  0  0  0
    1.7441  -17.1664    2.6231 H   0  0  0  0  0  0  0  0  0  0  0  0
    0.7309  -18.3268    4.5881 H   0  0  0  0  0  0  0  0  0  0  0  0
    0.3677  -14.5406    6.6411 H   0  0  0  0  0  0  0  0  0  0  0  0
    1.3813  -13.3773    4.6804 H   0  0  0  0  0  0  0  0  0  0  0  0
   -0.1074  -11.7247    2.1121 H   0  0  0  0  0  0  0  0  0  0  0  0
   -2.5411  -11.5860    1.5651 H   0  0  0  0  0  0  0  0  0  0  0  0
   -2.3387  -15.4146   -0.4148 H   0  0  0  0  0  0  0  0  0  0  0  0
    0.0930  -15.5650    0.1200 H   0  0  0  0  0  0  0  0  0  0  0  0
    7.1750  -14.5280   -3.8750 H   0  0  0  0  0  0  0  0  0  0  0  0
    9.2100  -14.7170   -6.7510 H   0  0  0  0  0  0  0  0  0  0  0  0
    6.2240  -12.1745   -7.0000 H   0  0  0  0  0  0  0  0  0  0  0  0
    4.1800  -11.2186   -5.9419 H   0  0  0  0  0  0  0  0  0  0  0  0
    3.3974  -15.0193   -4.0237 H   0  0  0  0  0  0  0  0  0  0  0  0
    5.4528  -15.9667   -5.0677 H   0  0  0  0  0  0  0  0  0  0  0  0
  1  2  1  0
  2  3  1  0
  3  4  2  0
  4  5  1  0
  5  6  1  0
  6  7  2  0
  7  8  1  0
  8  9  2  0
  9 10  1  0
 10 11  2  0
 11 12  1  0
 11 13  1  0
 13 14  2  0
  7 15  1  0
 15 16  1  0
 16 17  2  0
 17 18  1  0
 18 19  2  0
 19 20  1  0
 19 21  1  0
 21 22  2  0
 15 23  1  0
  4 24  1  0
 24 25  1  0
 25 26  1  0
 26 27  2  0
 26 28  1  0
 28 29  1  0
 29 30  1  0
 30 31  2  0
 30 32  1  0
 32 33  1  0
 33 34  2  0
 33 35  1  0
 35 36  2  0
 36 37  1  0
 37 38  2  0
 38 39  1  0
 39 40  1  0
 39 41  1  0
 39 42  1  0
 38 43  1  0
 43 44  2  0
 25  2  2  0
 44 35  1  0
 23  5  2  0
 14  8  1  0
 22 16  1  0
  1 45  1  0
  1 46  1  0
  1 47  1  0
  6 48  1  0
  9 49  1  0
 10 50  1  0
 13 51  1  0
 14 52  1  0
 17 53  1  0
 18 54  1  0
 21 55  1  0
 22 56  1  0
 29 57  1  0
 32 58  1  0
 36 59  1  0
 37 60  1  0
 43 61  1  0
 44 62  1  0
M  CHG  1  28  -1
M  END
>  <meeko>  (8) 
{"is_sidechain": [false], "free_energy": -8.073, "intermolecular_energy": -12.678, "internal_energy": -2.612}

$$$$
LIB_NEBOKDKFXPUVNX__M_PUB_ALL__e8__s20260927
     RDKit          3D

 62 66  0  0  0  0  0  0  0  0999 V2000
    6.8810  -11.0750   -2.0760 C   0  0  0  0  0  0  0  0  0  0  0  0
    6.3810  -12.2300   -1.2800 C   0  0  0  0  0  0  0  0  0  0  0  0
    5.0720  -12.1480   -0.8080 N   0  0  0  0  0  0  0  0  0  0  0  0
    4.7730  -13.2350   -0.1300 C   0  0  0  0  0  0  0  0  0  0  0  0
    3.3460  -13.4180    0.5250 C   0  0  0  0  0  0  0  0  0  0  0  0
    2.1850  -12.7660    0.0800 C   0  0  0  0  0  0  0  0  0  0  0  0
    1.1580  -13.2220    0.8870 C   0  0  0  0  0  0  0  0  0  0  0  0
   -0.2670  -12.9610    0.7160 C   0  0  0  0  0  0  0  0  0  0  0  0
   -1.1290  -13.9780    0.2820 C   0  0  0  0  0  0  0  0  0  0  0  0
   -2.4910  -13.7190    0.1020 C   0  0  0  0  0  0  0  0  0  0  0  0
   -2.9890  -12.4400    0.3420 C   0  0  0  0  0  0  0  0  0  0  0  0
   -4.6660  -12.1220    0.1230 Cl  0  0  0  0  0  0  0  0  0  0  0  0
   -2.1390  -11.4160    0.7550 C   0  0  0  0  0  0  0  0  0  0  0  0
   -0.7780  -11.6760    0.9370 C   0  0  0  0  0  0  0  0  0  0  0  0
    1.7700  -14.0420    1.8400 N   0  0  0  0  0  0  0  0  0  0  0  0
    1.2370  -14.6640    3.0160 C   0  0  0  0  0  0  0  0  0  0  0  0
    0.4070  -13.9830    3.9170 C   0  0  0  0  0  0  0  0  0  0  0  0
   -0.0870  -14.6350    5.0530 C   0  0  0  0  0  0  0  0  0  0  0  0
    0.2570  -15.9590    5.2960 C   0  0  0  0  0  0  0  0  0  0  0  0
   -0.2200  -16.5750    6.3860 F   0  0  0  0  0  0  0  0  0  0  0  0
    1.0940  -16.6470    4.4300 C   0  0  0  0  0  0  0  0  0  0  0  0
    1.5890  -15.9990    3.2950 C   0  0  0  0  0  0  0  0  0  0  0  0
    3.0870  -14.2280    1.5540 N   0  0  0  0  0  0  0  0  0  0  0  0
    6.0090  -14.4050   -0.0120 S   0  0  0  0  0  0  0  0  0  0  0  0
    7.0620  -13.3990   -0.9440 C   0  0  0  0  0  0  0  0  0  0  0  0
    8.4140  -13.8880   -1.2250 C   0  0  0  0  0  0  0  0  0  0  0  0
    9.1740  -14.3050   -0.3500 O   0  0  0  0  0  0  0  0  0  0  0  0
    8.7050  -13.8190   -2.5310 N   0  0  0  0  0  0  0  0  0  0  0  0
    7.8560  -14.7310   -3.3430 N   0  0  0  0  0  0  0  0  0  0  0  0
    8.3850  -15.4910   -4.3410 C   0  0  0  0  0  0  0  0  0  0  0  0
    9.5820  -15.6160   -4.5960 O   0  0  0  0  0  0  0  0  0  0  0  0
    7.4740  -16.1740   -5.1260 N   0  0  0  0  0  0  0  0  0  0  0  0
    6.1110  -16.1030   -5.3700 C   0  0  0  0  0  0  0  0  0  0  0  0
    5.5250  -17.0520   -5.8950 O   0  0  0  0  0  0  0  0  0  0  0  0
    5.3350  -14.8870   -5.0330 C   0  0  0  0  0  0  0  0  0  0  0  0
    5.4170  -13.7240   -5.8060 C   0  0  0  0  0  0  0  0  0  0  0  0
    4.6680  -12.5980   -5.4560 C   0  0  0  0  0  0  0  0  0  0  0  0
    3.8110  -12.6260   -4.3440 C   0  0  0  0  0  0  0  0  0  0  0  0
    2.9960  -11.4160   -3.9660 C   0  0  0  0  0  0  0  0  0  0  0  0
    1.8660  -11.7000   -3.2580 F   0  0  0  0  0  0  0  0  0  0  0  0
    3.7060  -10.5520   -3.1820 F   0  0  0  0  0  0  0  0  0  0  0  0
    2.5920  -10.6780   -5.0390 F   0  0  0  0  0  0  0  0  0  0  0  0
    3.7010  -13.8130   -3.6020 C   0  0  0  0  0  0  0  0  0  0  0  0
    4.4550  -14.9380   -3.9460 C   0  0  0  0  0  0  0  0  0  0  0  0
    7.2243  -10.2819   -1.3955 H   0  0  0  0  0  0  0  0  0  0  0  0
    7.7182  -11.4018   -2.7102 H   0  0  0  0  0  0  0  0  0  0  0  0
    6.0698  -10.6882   -2.7102 H   0  0  0  0  0  0  0  0  0  0  0  0
    2.1077  -12.0402   -0.7429 H   0  0  0  0  0  0  0  0  0  0  0  0
   -0.7319  -14.9842    0.0822 H   0  0  0  0  0  0  0  0  0  0  0  0
   -3.1668  -14.5218   -0.2278 H   0  0  0  0  0  0  0  0  0  0  0  0
   -2.5376  -10.4071    0.9370 H   0  0  0  0  0  0  0  0  0  0  0  0
   -0.1044  -10.8668    1.2556 H   0  0  0  0  0  0  0  0  0  0  0  0
    0.1426  -12.9316    3.7307 H   0  0  0  0  0  0  0  0  0  0  0  0
   -0.7465  -14.0999    5.7521 H   0  0  0  0  0  0  0  0  0  0  0  0
    1.3657  -17.6931    4.6347 H   0  0  0  0  0  0  0  0  0  0  0  0
    2.2615  -16.5379    2.6114 H   0  0  0  0  0  0  0  0  0  0  0  0
    6.8840  -14.7470   -3.0540 H   0  0  0  0  0  0  0  0  0  0  0  0
    7.9310  -16.9120   -5.6360 H   0  0  0  0  0  0  0  0  0  0  0  0
    6.0715  -13.6961   -6.6897 H   0  0  0  0  0  0  0  0  0  0  0  0
    4.7503  -11.6806   -6.0573 H   0  0  0  0  0  0  0  0  0  0  0  0
    3.0156  -13.8576   -2.7428 H   0  0  0  0  0  0  0  0  0  0  0  0
    4.3568  -15.8648   -3.3617 H   0  0  0  0  0  0  0  0  0  0  0  0
  1  2  1  0
  2  3  1  0
  3  4  2  0
  4  5  1  0
  5  6  1  0
  6  7  2  0
  7  8  1  0
  8  9  2  0
  9 10  1  0
 10 11  2  0
 11 12  1  0
 11 13  1  0
 13 14  2  0
  7 15  1  0
 15 16  1  0
 16 17  2  0
 17 18  1  0
 18 19  2  0
 19 20  1  0
 19 21  1  0
 21 22  2  0
 15 23  1  0
  4 24  1  0
 24 25  1  0
 25 26  1  0
 26 27  2  0
 26 28  1  0
 28 29  1  0
 29 30  1  0
 30 31  2  0
 30 32  1  0
 32 33  1  0
 33 34  2  0
 33 35  1  0
 35 36  2  0
 36 37  1  0
 37 38  2  0
 38 39  1  0
 39 40  1  0
 39 41  1  0
 39 42  1  0
 38 43  1  0
 43 44  2  0
 25  2  2  0
 44 35  1  0
 23  5  2  0
 14  8  1  0
 22 16  1  0
  1 45  1  0
  1 46  1  0
  1 47  1  0
  6 48  1  0
  9 49  1  0
 10 50  1  0
 13 51  1  0
 14 52  1  0
 17 53  1  0
 18 54  1  0
 21 55  1  0
 22 56  1  0
 29 57  1  0
 32 58  1  0
 36 59  1  0
 37 60  1  0
 43 61  1  0
 44 62  1  0
M  CHG  1  28  -1
M  END
>  <meeko>  (9) 
{"is_sidechain": [false], "free_energy": -8.049, "intermolecular_energy": -12.204, "internal_energy": -3.05}

$$$$
