LIB_WBNHNWSPTHTRMQ__M_PUB_ALL__e8__s20260927
     RDKit          3D

 61 63  0  0  0  0  0  0  0  0999 V2000
   10.3660  -13.8790   11.7630 C   0  0  0  0  0  0  0  0  0  0  0  0
   10.7900  -12.9940   12.9450 C   0  0  0  0  0  0  0  0  0  0  0  0
    9.6450  -12.0140   13.2560 C   0  0  0  0  0  0  0  0  0  0  0  0
   11.0420  -13.8630   14.1870 C   0  0  0  0  0  0  0  0  0  0  0  0
   11.9840  -12.2100   12.6080 N   0  0  0  0  0  0  0  0  0  0  0  0
   13.1740  -12.7130   12.1860 C   0  0  0  0  0  0  0  0  0  0  0  0
   13.4440  -13.8890   11.9990 O   0  0  0  0  0  0  0  0  0  0  0  0
   14.0430  -11.6850   11.9930 O   0  0  0  0  0  0  0  0  0  0  0  0
   13.4920  -10.3900   12.2220 C   0  0  1  0  0  0  0  0  0  0  0  0
   14.0530   -9.7270   13.4820 C   0  0  0  0  0  0  0  0  0  0  0  0
   13.7830   -8.2440   13.2570 C   0  0  1  0  0  0  0  0  0  0  0  0
   14.8520   -7.2950   13.7970 C   0  0  0  0  0  0  0  0  0  0  0  0
   14.9480   -6.2260   12.7150 C   0  0  1  0  0  0  0  0  0  0  0  0
   16.2410   -5.4860   12.7780 N   0  0  0  0  0  0  0  0  0  0  0  0
   17.1630   -5.8550   13.9340 C   0  0  0  0  0  0  0  0  0  0  0  0
   18.6090   -6.1470   13.4650 C   0  0  0  0  0  0  0  0  0  0  0  0
   19.4190   -5.2470   13.3010 O   0  0  0  0  0  0  0  0  0  0  0  0
   19.1860   -7.5230   13.3570 N   0  0  0  0  0  0  0  0  0  0  0  0
   18.7070   -8.4400   14.4780 C   0  0  0  0  0  0  0  0  0  0  0  0
   18.0060   -9.6000   13.7850 C   0  0  0  0  0  0  0  0  0  0  0  0
   17.5860   -9.0580   12.4300 C   0  0  0  0  0  0  0  0  0  0  0  0
   18.7820   -8.2190   12.0280 C   0  0  1  0  0  0  0  0  0  0  0  0
   18.5250   -7.2250   10.9740 C   0  0  0  0  0  0  0  0  0  0  0  0
   18.4140   -6.2300   10.3840 N   0  0  0  0  0  0  0  0  0  0  0  0
   14.8560   -7.0280   11.4210 C   0  0  0  0  0  0  0  0  0  0  0  0
   13.7590   -8.0470   11.7270 C   0  0  1  0  0  0  0  0  0  0  0  0
   13.9580   -9.4340   11.1220 C   0  0  0  0  0  0  0  0  0  0  0  0
    9.9200  -14.8098   12.1434 H   0  0  0  0  0  0  0  0  0  0  0  0
    9.6272  -13.3424   11.1497 H   0  0  0  0  0  0  0  0  0  0  0  0
   11.2472  -14.1185   11.1497 H   0  0  0  0  0  0  0  0  0  0  0  0
    9.5314  -11.9168   14.3458 H   0  0  0  0  0  0  0  0  0  0  0  0
    9.8766  -11.0300   12.8223 H   0  0  0  0  0  0  0  0  0  0  0  0
    8.7086  -12.3947   12.8223 H   0  0  0  0  0  0  0  0  0  0  0  0
   10.8687  -13.2653   15.0940 H   0  0  0  0  0  0  0  0  0  0  0  0
   10.3563  -14.7230   14.1780 H   0  0  0  0  0  0  0  0  0  0  0  0
   12.0815  -14.2228   14.1780 H   0  0  0  0  0  0  0  0  0  0  0  0
   11.9650  -11.2070   12.7350 H   0  0  0  0  0  0  0  0  0  0  0  0
   12.4044  -10.5441   12.2798 H   0  0  0  0  0  0  0  0  0  0  0  0
   13.5328  -10.0889   14.3811 H   0  0  0  0  0  0  0  0  0  0  0  0
   15.1185   -9.9479   13.6430 H   0  0  0  0  0  0  0  0  0  0  0  0
   12.8508   -8.0012   13.7881 H   0  0  0  0  0  0  0  0  0  0  0  0
   14.5420   -6.8573   14.7574 H   0  0  0  0  0  0  0  0  0  0  0  0
   15.8116   -7.7947   13.9958 H   0  0  0  0  0  0  0  0  0  0  0  0
   14.1668   -5.4582   12.8161 H   0  0  0  0  0  0  0  0  0  0  0  0
   16.7410   -5.5940   11.8780 H   0  0  0  0  0  0  0  0  0  0  0  0
   16.0180   -4.4680   12.8210 H   0  0  0  0  0  0  0  0  0  0  0  0
   17.1854   -5.0192   14.6487 H   0  0  0  0  0  0  0  0  0  0  0  0
   16.7692   -6.7714   14.3979 H   0  0  0  0  0  0  0  0  0  0  0  0
   20.2090   -7.4570   13.4050 H   0  0  0  0  0  0  0  0  0  0  0  0
   19.5611   -8.8043   15.0677 H   0  0  0  0  0  0  0  0  0  0  0  0
   18.0361   -7.9159   15.1745 H   0  0  0  0  0  0  0  0  0  0  0  0
   18.6938  -10.4499   13.6643 H   0  0  0  0  0  0  0  0  0  0  0  0
   17.1469   -9.9676   14.3654 H   0  0  0  0  0  0  0  0  0  0  0  0
   17.4128   -9.8732   11.7120 H   0  0  0  0  0  0  0  0  0  0  0  0
   16.6427   -8.4928   12.4568 H   0  0  0  0  0  0  0  0  0  0  0  0
   19.5627   -8.8510   11.5795 H   0  0  0  0  0  0  0  0  0  0  0  0
   14.5728   -6.3837   10.5756 H   0  0  0  0  0  0  0  0  0  0  0  0
   15.8098   -7.4916   11.1290 H   0  0  0  0  0  0  0  0  0  0  0  0
   12.8268   -7.6480   11.3006 H   0  0  0  0  0  0  0  0  0  0  0  0
   13.3482   -9.5556   10.2146 H   0  0  0  0  0  0  0  0  0  0  0  0
   14.9988   -9.6165   10.8165 H   0  0  0  0  0  0  0  0  0  0  0  0
  1  2  1  0
  2  3  1  0
  2  4  1  0
  2  5  1  0
  5  6  1  0
  6  7  2  0
  6  8  1  0
  8  9  1  0
  9 10  1  0
 10 11  1  0
 11 12  1  0
 12 13  1  0
 13 14  1  0
 14 15  1  0
 15 16  1  0
 16 17  2  0
 16 18  1  0
 18 19  1  0
 19 20  1  0
 20 21  1  0
 21 22  1  0
 22 23  1  0
 23 24  3  0
 13 25  1  0
 25 26  1  0
 26 27  1  0
 27  9  1  0
 26 11  1  0
 22 18  1  0
  1 28  1  0
  1 29  1  0
  1 30  1  0
  3 31  1  0
  3 32  1  0
  3 33  1  0
  4 34  1  0
  4 35  1  0
  4 36  1  0
  5 37  1  0
  9 38  1  1
 10 39  1  0
 10 40  1  0
 11 41  1  1
 12 42  1  0
 12 43  1  0
 13 44  1  1
 14 45  1  0
 14 46  1  0
 15 47  1  0
 15 48  1  0
 18 49  1  0
 19 50  1  0
 19 51  1  0
 20 52  1  0
 20 53  1  0
 21 54  1  0
 21 55  1  0
 22 56  1  6
 25 57  1  0
 25 58  1  0
 26 59  1  6
 27 60  1  0
 27 61  1  0
M  CHG  2  14   1  18   1
M  END
>  <meeko>  (1) 
{"is_sidechain": [false], "free_energy": -6.436, "intermolecular_energy": -9.07, "internal_energy": -1.108}

$$$$
LIB_WBNHNWSPTHTRMQ__M_PUB_ALL__e8__s20260927
     RDKit          3D

 61 63  0  0  0  0  0  0  0  0999 V2000
   -1.8530   -9.3030    3.0010 C   0  0  0  0  0  0  0  0  0  0  0  0
   -1.8600  -10.4180    1.9430 C   0  0  0  0  0  0  0  0  0  0  0  0
   -2.5860  -11.6400    2.5310 C   0  0  0  0  0  0  0  0  0  0  0  0
   -2.6210   -9.9500    0.6930 C   0  0  0  0  0  0  0  0  0  0  0  0
   -0.4920  -10.8200    1.5990 N   0  0  0  0  0  0  0  0  0  0  0  0
    0.4700  -10.0110    1.0810 C   0  0  0  0  0  0  0  0  0  0  0  0
    0.3660   -8.8200    0.8350 O   0  0  0  0  0  0  0  0  0  0  0  0
    1.5980  -10.7420    0.8770 O   0  0  0  0  0  0  0  0  0  0  0  0
    1.3680  -12.1150    0.5680 C   0  0  1  0  0  0  0  0  0  0  0  0
    0.8590  -12.3180   -0.8610 C   0  0  0  0  0  0  0  0  0  0  0  0
    1.1880  -13.7770   -1.1550 C   0  0  1  0  0  0  0  0  0  0  0  0
    1.6000  -14.0780   -2.5950 C   0  0  0  0  0  0  0  0  0  0  0  0
    2.7250  -15.0930   -2.4320 C   0  0  1  0  0  0  0  0  0  0  0  0
    3.5960  -15.1560   -3.6400 N   0  0  0  0  0  0  0  0  0  0  0  0
    3.2350  -14.2030   -4.7720 C   0  0  0  0  0  0  0  0  0  0  0  0
    4.4540  -13.3890   -5.2700 C   0  0  0  0  0  0  0  0  0  0  0  0
    5.2670  -13.8710   -6.0440 O   0  0  0  0  0  0  0  0  0  0  0  0
    4.6400  -11.9280   -5.0110 N   0  0  0  0  0  0  0  0  0  0  0  0
    3.3270  -11.1560   -5.0810 C   0  0  0  0  0  0  0  0  0  0  0  0
    3.1580  -10.5120   -3.7120 C   0  0  0  0  0  0  0  0  0  0  0  0
    3.9890  -11.3620   -2.7680 C   0  0  0  0  0  0  0  0  0  0  0  0
    5.2220  -11.6600   -3.5950 C   0  0  1  0  0  0  0  0  0  0  0  0
    6.0250  -12.8040   -3.1340 C   0  0  0  0  0  0  0  0  0  0  0  0
    6.5810  -13.8230   -3.0730 N   0  0  0  0  0  0  0  0  0  0  0  0
    3.5080  -14.5580   -1.2370 C   0  0  0  0  0  0  0  0  0  0  0  0
    2.4060  -14.1210   -0.2730 C   0  0  1  0  0  0  0  0  0  0  0  0
    2.7010  -12.8650    0.5430 C   0  0  0  0  0  0  0  0  0  0  0  0
   -1.8558   -9.7509    4.0057 H   0  0  0  0  0  0  0  0  0  0  0  0
   -0.9510   -8.6857    2.8772 H   0  0  0  0  0  0  0  0  0  0  0  0
   -2.7472   -8.6745    2.8772 H   0  0  0  0  0  0  0  0  0  0  0  0
   -2.5566  -11.5905    3.6295 H   0  0  0  0  0  0  0  0  0  0  0  0
   -3.6325  -11.6430    2.1920 H   0  0  0  0  0  0  0  0  0  0  0  0
   -2.0881  -12.5604    2.1920 H   0  0  0  0  0  0  0  0  0  0  0  0
   -3.5213   -9.3963    0.9977 H   0  0  0  0  0  0  0  0  0  0  0  0
   -1.9728   -9.2943    0.0932 H   0  0  0  0  0  0  0  0  0  0  0  0
   -2.9137  -10.8244    0.0932 H   0  0  0  0  0  0  0  0  0  0  0  0
   -0.2240  -11.7900    1.7040 H   0  0  0  0  0  0  0  0  0  0  0  0
    0.6478  -12.4646    1.3224 H   0  0  0  0  0  0  0  0  0  0  0  0
   -0.2249  -12.1401   -0.9208 H   0  0  0  0  0  0  0  0  0  0  0  0
    1.3169  -11.6233   -1.5805 H   0  0  0  0  0  0  0  0  0  0  0  0
    0.2746  -14.3588   -0.9623 H   0  0  0  0  0  0  0  0  0  0  0  0
    0.7615  -14.5068   -3.1635 H   0  0  0  0  0  0  0  0  0  0  0  0
    1.9070  -13.1804   -3.1518 H   0  0  0  0  0  0  0  0  0  0  0  0
    2.3475  -16.1166   -2.2912 H   0  0  0  0  0  0  0  0  0  0  0  0
    4.5820  -15.0140   -3.3580 H   0  0  0  0  0  0  0  0  0  0  0  0
    3.5750  -16.1390   -3.9900 H   0  0  0  0  0  0  0  0  0  0  0  0
    2.8342  -14.7887   -5.6125 H   0  0  0  0  0  0  0  0  0  0  0  0
    2.4912  -13.4905   -4.3860 H   0  0  0  0  0  0  0  0  0  0  0  0
    5.2800  -11.5460   -5.7150 H   0  0  0  0  0  0  0  0  0  0  0  0
    3.3758  -10.3855   -5.8645 H   0  0  0  0  0  0  0  0  0  0  0  0
    2.4807  -11.8135   -5.3291 H   0  0  0  0  0  0  0  0  0  0  0  0
    3.5273   -9.4759   -3.7247 H   0  0  0  0  0  0  0  0  0  0  0  0
    2.1025  -10.4684   -3.4053 H   0  0  0  0  0  0  0  0  0  0  0  0
    4.2476  -10.8054   -1.8551 H   0  0  0  0  0  0  0  0  0  0  0  0
    3.4678  -12.2648   -2.4168 H   0  0  0  0  0  0  0  0  0  0  0  0
    5.9354  -10.8247   -3.5376 H   0  0  0  0  0  0  0  0  0  0  0  0
    4.1349  -15.3441   -0.7909 H   0  0  0  0  0  0  0  0  0  0  0  0
    4.2009  -13.7454   -1.5009 H   0  0  0  0  0  0  0  0  0  0  0  0
    2.2712  -14.9408    0.4479 H   0  0  0  0  0  0  0  0  0  0  0  0
    3.0205  -13.1276    1.5623 H   0  0  0  0  0  0  0  0  0  0  0  0
    3.5158  -12.2638    0.1131 H   0  0  0  0  0  0  0  0  0  0  0  0
  1  2  1  0
  2  3  1  0
  2  4  1  0
  2  5  1  0
  5  6  1  0
  6  7  2  0
  6  8  1  0
  8  9  1  0
  9 10  1  0
 10 11  1  0
 11 12  1  0
 12 13  1  0
 13 14  1  0
 14 15  1  0
 15 16  1  0
 16 17  2  0
 16 18  1  0
 18 19  1  0
 19 20  1  0
 20 21  1  0
 21 22  1  0
 22 23  1  0
 23 24  3  0
 13 25  1  0
 25 26  1  0
 26 27  1  0
 27  9  1  0
 26 11  1  0
 22 18  1  0
  1 28  1  0
  1 29  1  0
  1 30  1  0
  3 31  1  0
  3 32  1  0
  3 33  1  0
  4 34  1  0
  4 35  1  0
  4 36  1  0
  5 37  1  0
  9 38  1  1
 10 39  1  0
 10 40  1  0
 11 41  1  1
 12 42  1  0
 12 43  1  0
 13 44  1  1
 14 45  1  0
 14 46  1  0
 15 47  1  0
 15 48  1  0
 18 49  1  0
 19 50  1  0
 19 51  1  0
 20 52  1  0
 20 53  1  0
 21 54  1  0
 21 55  1  0
 22 56  1  6
 25 57  1  0
 25 58  1  0
 26 59  1  1
 27 60  1  0
 27 61  1  0
M  CHG  2  14   1  18   1
M  END
>  <meeko>  (2) 
{"is_sidechain": [false], "free_energy": -6.319, "intermolecular_energy": -8.938, "internal_energy": -1.075}

$$$$
LIB_WBNHNWSPTHTRMQ__M_PUB_ALL__e8__s20260927
     RDKit          3D

 61 63  0  0  0  0  0  0  0  0999 V2000
   -1.9450   -9.3790    2.4290 C   0  0  0  0  0  0  0  0  0  0  0  0
   -1.9990  -10.5980    1.4960 C   0  0  0  0  0  0  0  0  0  0  0  0
   -2.7110  -11.7450    2.2340 C   0  0  0  0  0  0  0  0  0  0  0  0
   -2.8030  -10.2570    0.2310 C   0  0  0  0  0  0  0  0  0  0  0  0
   -0.6470  -11.0490    1.1470 N   0  0  0  0  0  0  0  0  0  0  0  0
    0.3750  -10.2550    0.7320 C   0  0  0  0  0  0  0  0  0  0  0  0
    0.3480   -9.0420    0.6000 O   0  0  0  0  0  0  0  0  0  0  0  0
    1.4640  -11.0310    0.4850 O   0  0  0  0  0  0  0  0  0  0  0  0
    1.4620  -11.6670   -0.7910 C   0  0  1  0  0  0  0  0  0  0  0  0
    1.8830  -10.7230   -1.9190 C   0  0  0  0  0  0  0  0  0  0  0  0
    2.3260  -11.6670   -3.0310 C   0  0  1  0  0  0  0  0  0  0  0  0
    3.5020  -11.1790   -3.8750 C   0  0  0  0  0  0  0  0  0  0  0  0
    4.3230  -12.4430   -4.0960 C   0  0  1  0  0  0  0  0  0  0  0  0
    5.7360  -12.1330   -4.4560 N   0  0  0  0  0  0  0  0  0  0  0  0
    6.8010  -12.7130   -3.5340 C   0  0  0  0  0  0  0  0  0  0  0  0
    7.7480  -11.6250   -2.9690 C   0  0  0  0  0  0  0  0  0  0  0  0
    8.4580  -10.9560   -3.7050 O   0  0  0  0  0  0  0  0  0  0  0  0
    7.7420  -11.1770   -1.5430 N   0  0  0  0  0  0  0  0  0  0  0  0
    6.3280  -10.9800   -1.0040 C   0  0  0  0  0  0  0  0  0  0  0  0
    6.2070  -11.9290    0.1800 C   0  0  0  0  0  0  0  0  0  0  0  0
    7.2460  -13.0070   -0.0670 C   0  0  0  0  0  0  0  0  0  0  0  0
    8.4190  -12.2150   -0.6060 C   0  0  1  0  0  0  0  0  0  0  0  0
    9.4240  -13.0020   -1.3360 C   0  0  0  0  0  0  0  0  0  0  0  0
   10.1280  -13.4200   -2.1620 N   0  0  0  0  0  0  0  0  0  0  0  0
    4.2600  -13.1420   -2.7410 C   0  0  0  0  0  0  0  0  0  0  0  0
    2.8010  -12.9540   -2.3260 C   0  0  1  0  0  0  0  0  0  0  0  0
    2.5610  -12.7300   -0.8350 C   0  0  0  0  0  0  0  0  0  0  0  0
   -1.9600   -9.7173    3.4756 H   0  0  0  0  0  0  0  0  0  0  0  0
   -1.0209   -8.8131    2.2398 H   0  0  0  0  0  0  0  0  0  0  0  0
   -2.8154   -8.7336    2.2398 H   0  0  0  0  0  0  0  0  0  0  0  0
   -2.6183  -11.5957    3.3199 H   0  0  0  0  0  0  0  0  0  0  0  0
   -3.7749  -11.7560    1.9549 H   0  0  0  0  0  0  0  0  0  0  0  0
   -2.2488  -12.7034    1.9549 H   0  0  0  0  0  0  0  0  0  0  0  0
   -3.7805   -9.8424    0.5185 H   0  0  0  0  0  0  0  0  0  0  0  0
   -2.2512   -9.5154   -0.3653 H   0  0  0  0  0  0  0  0  0  0  0  0
   -2.9526  -11.1691   -0.3653 H   0  0  0  0  0  0  0  0  0  0  0  0
   -0.4400  -12.0390    1.1630 H   0  0  0  0  0  0  0  0  0  0  0  0
    0.4379  -12.0459   -0.9237 H   0  0  0  0  0  0  0  0  0  0  0  0
    1.0372  -10.1005   -2.2462 H   0  0  0  0  0  0  0  0  0  0  0  0
    2.6729  -10.0203   -1.6154 H   0  0  0  0  0  0  0  0  0  0  0  0
    1.4738  -11.7799   -3.7173 H   0  0  0  0  0  0  0  0  0  0  0  0
    3.1543  -10.7626   -4.8319 H   0  0  0  0  0  0  0  0  0  0  0  0
    4.0739  -10.3733   -3.3915 H   0  0  0  0  0  0  0  0  0  0  0  0
    3.9370  -13.0516   -4.9271 H   0  0  0  0  0  0  0  0  0  0  0  0
    5.9130  -12.4290   -5.4320 H   0  0  0  0  0  0  0  0  0  0  0  0
    5.8300  -11.0940   -4.4890 H   0  0  0  0  0  0  0  0  0  0  0  0
    6.3034  -13.2193   -2.6938 H   0  0  0  0  0  0  0  0  0  0  0  0
    7.4095  -13.4145   -4.1235 H   0  0  0  0  0  0  0  0  0  0  0  0
    8.2430  -10.2850   -1.4750 H   0  0  0  0  0  0  0  0  0  0  0  0
    6.1823   -9.9393   -0.6788 H   0  0  0  0  0  0  0  0  0  0  0  0
    5.5670  -11.1861   -1.7710 H   0  0  0  0  0  0  0  0  0  0  0  0
    6.4162  -11.4000    1.1215 H   0  0  0  0  0  0  0  0  0  0  0  0
    5.1936  -12.3473    0.2700 H   0  0  0  0  0  0  0  0  0  0  0  0
    7.5114  -13.5246    0.8666 H   0  0  0  0  0  0  0  0  0  0  0  0
    6.9021  -13.7994   -0.7481 H   0  0  0  0  0  0  0  0  0  0  0  0
    9.0036  -11.7822    0.2192 H   0  0  0  0  0  0  0  0  0  0  0  0
    4.5103  -14.2091   -2.8344 H   0  0  0  0  0  0  0  0  0  0  0  0
    4.9748  -12.7365   -2.0099 H   0  0  0  0  0  0  0  0  0  0  0  0
    2.2725  -13.8808   -2.5939 H   0  0  0  0  0  0  0  0  0  0  0  0
    2.2262  -13.6585   -0.3493 H   0  0  0  0  0  0  0  0  0  0  0  0
    3.4717  -12.4188   -0.3023 H   0  0  0  0  0  0  0  0  0  0  0  0
  1  2  1  0
  2  3  1  0
  2  4  1  0
  2  5  1  0
  5  6  1  0
  6  7  2  0
  6  8  1  0
  8  9  1  0
  9 10  1  0
 10 11  1  0
 11 12  1  0
 12 13  1  0
 13 14  1  0
 14 15  1  0
 15 16  1  0
 16 17  2  0
 16 18  1  0
 18 19  1  0
 19 20  1  0
 20 21  1  0
 21 22  1  0
 22 23  1  0
 23 24  3  0
 13 25  1  0
 25 26  1  0
 26 27  1  0
 27  9  1  0
 26 11  1  0
 22 18  1  0
  1 28  1  0
  1 29  1  0
  1 30  1  0
  3 31  1  0
  3 32  1  0
  3 33  1  0
  4 34  1  0
  4 35  1  0
  4 36  1  0
  5 37  1  0
  9 38  1  6
 10 39  1  0
 10 40  1  0
 11 41  1  6
 12 42  1  0
 12 43  1  0
 13 44  1  6
 14 45  1  0
 14 46  1  0
 15 47  1  0
 15 48  1  0
 18 49  1  0
 19 50  1  0
 19 51  1  0
 20 52  1  0
 20 53  1  0
 21 54  1  0
 21 55  1  0
 22 56  1  1
 25 57  1  0
 25 58  1  0
 26 59  1  6
 27 60  1  0
 27 61  1  0
M  CHG  2  14   1  18   1
M  END
>  <meeko>  (3) 
{"is_sidechain": [false], "free_energy": -6.145, "intermolecular_energy": -9.212, "internal_energy": -0.556}

$$$$
LIB_WBNHNWSPTHTRMQ__M_PUB_ALL__e8__s20260927
     RDKit          3D

 61 63  0  0  0  0  0  0  0  0999 V2000
   12.6810  -10.5220    0.3900 C   0  0  0  0  0  0  0  0  0  0  0  0
   11.8160  -11.7640    0.1240 C   0  0  0  0  0  0  0  0  0  0  0  0
   12.5990  -13.0080    0.5800 C   0  0  0  0  0  0  0  0  0  0  0  0
   10.5140  -11.6810    0.9360 C   0  0  0  0  0  0  0  0  0  0  0  0
   11.5280  -11.9040   -1.3080 N   0  0  0  0  0  0  0  0  0  0  0  0
   12.4330  -11.7930   -2.3160 C   0  0  0  0  0  0  0  0  0  0  0  0
   13.6290  -11.5800   -2.2020 O   0  0  0  0  0  0  0  0  0  0  0  0
   11.7930  -11.9640   -3.5030 O   0  0  0  0  0  0  0  0  0  0  0  0
   11.8630  -13.2870   -4.0310 C   0  0  1  0  0  0  0  0  0  0  0  0
   10.6210  -13.6620   -4.8430 C   0  0  0  0  0  0  0  0  0  0  0  0
   11.1000  -14.8120   -5.7210 C   0  0  1  0  0  0  0  0  0  0  0  0
   10.4940  -14.8620   -7.1220 C   0  0  0  0  0  0  0  0  0  0  0  0
   11.6730  -15.2710   -7.9980 C   0  0  1  0  0  0  0  0  0  0  0  0
   11.4560  -14.9090   -9.4270 N   0  0  0  0  0  0  0  0  0  0  0  0
   10.6040  -13.6710   -9.6780 C   0  0  0  0  0  0  0  0  0  0  0  0
   10.0700  -13.6060  -11.1300 C   0  0  0  0  0  0  0  0  0  0  0  0
   10.8290  -13.6030  -12.0870 O   0  0  0  0  0  0  0  0  0  0  0  0
    8.6230  -13.7320  -11.4900 N   0  0  0  0  0  0  0  0  0  0  0  0
    7.8880  -14.7230  -10.5940 C   0  0  0  0  0  0  0  0  0  0  0  0
    6.7780  -13.9250   -9.9250 C   0  0  0  0  0  0  0  0  0  0  0  0
    7.2460  -12.4810   -9.9680 C   0  0  0  0  0  0  0  0  0  0  0  0
    7.8710  -12.3800  -11.3440 C   0  0  1  0  0  0  0  0  0  0  0  0
    8.7890  -11.2460  -11.5330 C   0  0  0  0  0  0  0  0  0  0  0  0
    9.7320  -10.5980  -11.7410 N   0  0  0  0  0  0  0  0  0  0  0  0
   12.8350  -14.4720   -7.4150 C   0  0  0  0  0  0  0  0  0  0  0  0
   12.6150  -14.5960   -5.9080 C   0  0  1  0  0  0  0  0  0  0  0  0
   12.9690  -13.3610   -5.0850 C   0  0  0  0  0  0  0  0  0  0  0  0
   12.7848  -10.3730    1.4749 H   0  0  0  0  0  0  0  0  0  0  0  0
   13.6757  -10.6653   -0.0572 H   0  0  0  0  0  0  0  0  0  0  0  0
   12.2017   -9.6387   -0.0572 H   0  0  0  0  0  0  0  0  0  0  0  0
   12.6219  -13.0443    1.6792 H   0  0  0  0  0  0  0  0  0  0  0  0
   12.1073  -13.9128    0.1934 H   0  0  0  0  0  0  0  0  0  0  0  0
   13.6275  -12.9560    0.1934 H   0  0  0  0  0  0  0  0  0  0  0  0
   10.7502  -11.6961    2.0102 H   0  0  0  0  0  0  0  0  0  0  0  0
    9.9870  -10.7474    0.6895 H   0  0  0  0  0  0  0  0  0  0  0  0
    9.8727  -12.5401    0.6895 H   0  0  0  0  0  0  0  0  0  0  0  0
   10.5730  -12.0520   -1.6050 H   0  0  0  0  0  0  0  0  0  0  0  0
   12.0045  -13.9397   -3.1569 H   0  0  0  0  0  0  0  0  0  0  0  0
    9.8033  -13.9864   -4.1826 H   0  0  0  0  0  0  0  0  0  0  0  0
   10.2201  -12.8187   -5.4246 H   0  0  0  0  0  0  0  0  0  0  0  0
   10.8057  -15.7459   -5.2198 H   0  0  0  0  0  0  0  0  0  0  0  0
    9.6859  -15.6064   -7.1757 H   0  0  0  0  0  0  0  0  0  0  0  0
   10.0390  -13.9088   -7.4291 H   0  0  0  0  0  0  0  0  0  0  0  0
   11.8384  -16.3585   -7.9954 H   0  0  0  0  0  0  0  0  0  0  0  0
   12.3730  -14.8090   -9.8980 H   0  0  0  0  0  0  0  0  0  0  0  0
   11.0220  -15.7330   -9.8970 H   0  0  0  0  0  0  0  0  0  0  0  0
    9.7481  -13.6853   -8.9872 H   0  0  0  0  0  0  0  0  0  0  0  0
   11.2393  -12.7880   -9.5146 H   0  0  0  0  0  0  0  0  0  0  0  0
    8.5510  -14.0540  -12.4600 H   0  0  0  0  0  0  0  0  0  0  0  0
    7.4642  -15.5418  -11.1939 H   0  0  0  0  0  0  0  0  0  0  0  0
    8.5620  -15.1810   -9.8551 H   0  0  0  0  0  0  0  0  0  0  0  0
    5.8332  -14.0411  -10.4762 H   0  0  0  0  0  0  0  0  0  0  0  0
    6.5885  -14.2658   -8.8964 H   0  0  0  0  0  0  0  0  0  0  0  0
    6.4001  -11.7857   -9.8636 H   0  0  0  0  0  0  0  0  0  0  0  0
    7.9362  -12.2192   -9.1525 H   0  0  0  0  0  0  0  0  0  0  0  0
    7.0990  -12.1958  -12.1057 H   0  0  0  0  0  0  0  0  0  0  0  0
   13.8013  -14.9065   -7.7106 H   0  0  0  0  0  0  0  0  0  0  0  0
   12.8631  -13.4295   -7.7648 H   0  0  0  0  0  0  0  0  0  0  0  0
   13.2702  -15.4066   -5.5564 H   0  0  0  0  0  0  0  0  0  0  0  0
   13.9543  -13.4773   -4.6099 H   0  0  0  0  0  0  0  0  0  0  0  0
   13.0315  -12.4490   -5.6969 H   0  0  0  0  0  0  0  0  0  0  0  0
  1  2  1  0
  2  3  1  0
  2  4  1  0
  2  5  1  0
  5  6  1  0
  6  7  2  0
  6  8  1  0
  8  9  1  0
  9 10  1  0
 10 11  1  0
 11 12  1  0
 12 13  1  0
 13 14  1  0
 14 15  1  0
 15 16  1  0
 16 17  2  0
 16 18  1  0
 18 19  1  0
 19 20  1  0
 20 21  1  0
 21 22  1  0
 22 23  1  0
 23 24  3  0
 13 25  1  0
 25 26  1  0
 26 27  1  0
 27  9  1  0
 26 11  1  0
 22 18  1  0
  1 28  1  0
  1 29  1  0
  1 30  1  0
  3 31  1  0
  3 32  1  0
  3 33  1  0
  4 34  1  0
  4 35  1  0
  4 36  1  0
  5 37  1  0
  9 38  1  1
 10 39  1  0
 10 40  1  0
 11 41  1  1
 12 42  1  0
 12 43  1  0
 13 44  1  6
 14 45  1  0
 14 46  1  0
 15 47  1  0
 15 48  1  0
 18 49  1  0
 19 50  1  0
 19 51  1  0
 20 52  1  0
 20 53  1  0
 21 54  1  0
 21 55  1  0
 22 56  1  6
 25 57  1  0
 25 58  1  0
 26 59  1  1
 27 60  1  0
 27 61  1  0
M  CHG  2  14   1  18   1
M  END
>  <meeko>  (4) 
{"is_sidechain": [false], "free_energy": -6.14, "intermolecular_energy": -9.626, "internal_energy": -0.135}

$$$$
LIB_WBNHNWSPTHTRMQ__M_PUB_ALL__e8__s20260927
     RDKit          3D

 61 63  0  0  0  0  0  0  0  0999 V2000
    2.5600  -11.7460   -4.0460 C   0  0  0  0  0  0  0  0  0  0  0  0
    2.8380  -13.2490   -4.2030 C   0  0  0  0  0  0  0  0  0  0  0  0
    1.5100  -13.9600   -4.5170 C   0  0  0  0  0  0  0  0  0  0  0  0
    3.8080  -13.4840   -5.3720 C   0  0  0  0  0  0  0  0  0  0  0  0
    3.3760  -13.8140   -2.9600 N   0  0  0  0  0  0  0  0  0  0  0  0
    2.8160  -13.7010   -1.7260 C   0  0  0  0  0  0  0  0  0  0  0  0
    1.7720  -13.1330   -1.4490 O   0  0  0  0  0  0  0  0  0  0  0  0
    3.6090  -14.3340   -0.8220 O   0  0  0  0  0  0  0  0  0  0  0  0
    4.1730  -13.4830    0.1730 C   0  0  1  0  0  0  0  0  0  0  0  0
    5.4330  -14.0760    0.8080 C   0  0  0  0  0  0  0  0  0  0  0  0
    6.1440  -12.8630    1.3950 C   0  0  1  0  0  0  0  0  0  0  0  0
    7.6700  -12.9070    1.3340 C   0  0  0  0  0  0  0  0  0  0  0  0
    8.0470  -11.4720    0.9840 C   0  0  1  0  0  0  0  0  0  0  0  0
    9.4140  -11.3840    0.3950 N   0  0  0  0  0  0  0  0  0  0  0  0
    9.9110  -12.6340   -0.3210 C   0  0  0  0  0  0  0  0  0  0  0  0
   11.3490  -13.0230    0.1020 C   0  0  0  0  0  0  0  0  0  0  0  0
   11.6370  -13.2170    1.2740 O   0  0  0  0  0  0  0  0  0  0  0  0
   12.4340  -13.3730   -0.8650 N   0  0  0  0  0  0  0  0  0  0  0  0
   11.9310  -14.2530   -2.0060 C   0  0  0  0  0  0  0  0  0  0  0  0
   12.2120  -13.4690   -3.2800 C   0  0  0  0  0  0  0  0  0  0  0  0
   12.2930  -12.0170   -2.8440 C   0  0  0  0  0  0  0  0  0  0  0  0
   13.0450  -12.1100   -1.5330 C   0  0  1  0  0  0  0  0  0  0  0  0
   12.9170  -10.9390   -0.6520 C   0  0  0  0  0  0  0  0  0  0  0  0
   12.6820  -10.2410    0.2480 N   0  0  0  0  0  0  0  0  0  0  0  0
    6.9960  -11.0770   -0.0480 C   0  0  0  0  0  0  0  0  0  0  0  0
    5.7090  -11.6610    0.5320 C   0  0  1  0  0  0  0  0  0  0  0  0
    4.7150  -12.2130   -0.4870 C   0  0  0  0  0  0  0  0  0  0  0  0
    2.5129  -11.4915   -2.9769 H   0  0  0  0  0  0  0  0  0  0  0  0
    3.3672  -11.1719   -4.5244 H   0  0  0  0  0  0  0  0  0  0  0  0
    1.6009  -11.4986   -4.5244 H   0  0  0  0  0  0  0  0  0  0  0  0
    1.0070  -14.2293   -3.5766 H   0  0  0  0  0  0  0  0  0  0  0  0
    0.8629  -13.2877   -5.0995 H   0  0  0  0  0  0  0  0  0  0  0  0
    1.7108  -14.8713   -5.0995 H   0  0  0  0  0  0  0  0  0  0  0  0
    4.8059  -13.7258   -4.9775 H   0  0  0  0  0  0  0  0  0  0  0  0
    3.4446  -14.3201   -5.9876 H   0  0  0  0  0  0  0  0  0  0  0  0
    3.8676  -12.5743   -5.9876 H   0  0  0  0  0  0  0  0  0  0  0  0
    4.2640  -14.2960   -2.9830 H   0  0  0  0  0  0  0  0  0  0  0  0
    3.3694  -13.3241    0.9072 H   0  0  0  0  0  0  0  0  0  0  0  0
    5.1730  -14.7981    1.5960 H   0  0  0  0  0  0  0  0  0  0  0  0
    6.0546  -14.6286    0.0881 H   0  0  0  0  0  0  0  0  0  0  0  0
    5.8735  -12.8137    2.4601 H   0  0  0  0  0  0  0  0  0  0  0  0
    8.0951  -13.2007    2.3051 H   0  0  0  0  0  0  0  0  0  0  0  0
    8.0514  -13.6418    0.6097 H   0  0  0  0  0  0  0  0  0  0  0  0
    8.0677  -10.8177    1.8680 H   0  0  0  0  0  0  0  0  0  0  0  0
    9.4610  -10.5690   -0.2410 H   0  0  0  0  0  0  0  0  0  0  0  0
   10.0720  -11.1380    1.1670 H   0  0  0  0  0  0  0  0  0  0  0  0
    9.2350  -13.4690   -0.0847 H   0  0  0  0  0  0  0  0  0  0  0  0
    9.9246  -12.4200   -1.3999 H   0  0  0  0  0  0  0  0  0  0  0  0
   13.1720  -13.8800   -0.3650 H   0  0  0  0  0  0  0  0  0  0  0  0
   12.4700  -15.2118   -2.0181 H   0  0  0  0  0  0  0  0  0  0  0  0
   10.8616  -14.4873   -1.8991 H   0  0  0  0  0  0  0  0  0  0  0  0
   13.1633  -13.7906   -3.7290 H   0  0  0  0  0  0  0  0  0  0  0  0
   11.4330  -13.6271   -4.0404 H   0  0  0  0  0  0  0  0  0  0  0  0
   12.8461  -11.4120   -3.5775 H   0  0  0  0  0  0  0  0  0  0  0  0
   11.3104  -11.5312   -2.7524 H   0  0  0  0  0  0  0  0  0  0  0  0
   14.1289  -12.1596   -1.7139 H   0  0  0  0  0  0  0  0  0  0  0  0
    6.9264   -9.9833   -0.1428 H   0  0  0  0  0  0  0  0  0  0  0  0
    7.2218  -11.4451   -1.0597 H   0  0  0  0  0  0  0  0  0  0  0  0
    5.1977  -10.8417    1.0585 H   0  0  0  0  0  0  0  0  0  0  0  0
    3.9047  -11.4926   -0.6723 H   0  0  0  0  0  0  0  0  0  0  0  0
    5.1776  -12.4094   -1.4655 H   0  0  0  0  0  0  0  0  0  0  0  0
  1  2  1  0
  2  3  1  0
  2  4  1  0
  2  5  1  0
  5  6  1  0
  6  7  2  0
  6  8  1  0
  8  9  1  0
  9 10  1  0
 10 11  1  0
 11 12  1  0
 12 13  1  0
 13 14  1  0
 14 15  1  0
 15 16  1  0
 16 17  2  0
 16 18  1  0
 18 19  1  0
 19 20  1  0
 20 21  1  0
 21 22  1  0
 22 23  1  0
 23 24  3  0
 13 25  1  0
 25 26  1  0
 26 27  1  0
 27  9  1  0
 26 11  1  0
 22 18  1  0
  1 28  1  0
  1 29  1  0
  1 30  1  0
  3 31  1  0
  3 32  1  0
  3 33  1  0
  4 34  1  0
  4 35  1  0
  4 36  1  0
  5 37  1  0
  9 38  1  1
 10 39  1  0
 10 40  1  0
 11 41  1  1
 12 42  1  0
 12 43  1  0
 13 44  1  1
 14 45  1  0
 14 46  1  0
 15 47  1  0
 15 48  1  0
 18 49  1  0
 19 50  1  0
 19 51  1  0
 20 52  1  0
 20 53  1  0
 21 54  1  0
 21 55  1  0
 22 56  1  6
 25 57  1  0
 25 58  1  0
 26 59  1  1
 27 60  1  0
 27 61  1  0
M  CHG  2  14   1  18   1
M  END
>  <meeko>  (5) 
{"is_sidechain": [false], "free_energy": -6.114, "intermolecular_energy": -9.575, "internal_energy": -0.148}

$$$$
LIB_WBNHNWSPTHTRMQ__M_PUB_ALL__e8__s20260927
     RDKit          3D

 61 63  0  0  0  0  0  0  0  0999 V2000
    6.5360  -13.6950  -10.8080 C   0  0  0  0  0  0  0  0  0  0  0  0
    7.3470  -12.6290  -10.0540 C   0  0  0  0  0  0  0  0  0  0  0  0
    8.8350  -13.0170  -10.1140 C   0  0  0  0  0  0  0  0  0  0  0  0
    7.1700  -11.2600  -10.7290 C   0  0  0  0  0  0  0  0  0  0  0  0
    6.9460  -12.5700   -8.6430 N   0  0  0  0  0  0  0  0  0  0  0  0
    6.7510  -13.6370   -7.8250 C   0  0  0  0  0  0  0  0  0  0  0  0
    6.8920  -14.8140   -8.1160 O   0  0  0  0  0  0  0  0  0  0  0  0
    6.3680  -13.1900   -6.6000 O   0  0  0  0  0  0  0  0  0  0  0  0
    4.9800  -13.3460   -6.3170 C   0  0  1  0  0  0  0  0  0  0  0  0
    4.7120  -14.4370   -5.2770 C   0  0  0  0  0  0  0  0  0  0  0  0
    3.3280  -14.0890   -4.7400 C   0  0  1  0  0  0  0  0  0  0  0  0
    3.1140  -14.3690   -3.2540 C   0  0  0  0  0  0  0  0  0  0  0  0
    2.2920  -13.1740   -2.7880 C   0  0  1  0  0  0  0  0  0  0  0  0
    2.3840  -12.9780   -1.3130 N   0  0  0  0  0  0  0  0  0  0  0  0
    3.5720  -12.1600   -0.8230 C   0  0  0  0  0  0  0  0  0  0  0  0
    4.7190  -13.0490   -0.2850 C   0  0  0  0  0  0  0  0  0  0  0  0
    4.4990  -13.9840    0.4710 O   0  0  0  0  0  0  0  0  0  0  0  0
    6.1310  -12.9710   -0.7730 N   0  0  0  0  0  0  0  0  0  0  0  0
    6.2130  -12.8870   -2.2940 C   0  0  0  0  0  0  0  0  0  0  0  0
    6.9330  -11.5800   -2.5930 C   0  0  0  0  0  0  0  0  0  0  0  0
    6.7130  -10.7150   -1.3640 C   0  0  0  0  0  0  0  0  0  0  0  0
    6.8620  -11.7100   -0.2320 C   0  0  1  0  0  0  0  0  0  0  0  0
    6.2900  -11.2860    1.0550 C   0  0  0  0  0  0  0  0  0  0  0  0
    5.6520  -11.2230    2.0240 N   0  0  0  0  0  0  0  0  0  0  0  0
    2.9350  -12.0010   -3.5220 C   0  0  0  0  0  0  0  0  0  0  0  0
    3.1780  -12.5640   -4.9210 C   0  0  1  0  0  0  0  0  0  0  0  0
    4.4560  -12.0940   -5.6100 C   0  0  0  0  0  0  0  0  0  0  0  0
    6.0345  -14.3542  -10.0841 H   0  0  0  0  0  0  0  0  0  0  0  0
    5.7818  -13.2030  -11.4397 H   0  0  0  0  0  0  0  0  0  0  0  0
    7.2113  -14.2907  -11.4397 H   0  0  0  0  0  0  0  0  0  0  0  0
    9.2287  -13.1196   -9.0920 H   0  0  0  0  0  0  0  0  0  0  0  0
    8.9434  -13.9734  -10.6464 H   0  0  0  0  0  0  0  0  0  0  0  0
    9.3966  -12.2353  -10.6464 H   0  0  0  0  0  0  0  0  0  0  0  0
    7.0693  -10.4815   -9.9584 H   0  0  0  0  0  0  0  0  0  0  0  0
    8.0477  -11.0441  -11.3559 H   0  0  0  0  0  0  0  0  0  0  0  0
    6.2662  -11.2744  -11.3559 H   0  0  0  0  0  0  0  0  0  0  0  0
    6.7470  -11.6700   -8.2270 H   0  0  0  0  0  0  0  0  0  0  0  0
    4.5104  -13.5671   -7.2868 H   0  0  0  0  0  0  0  0  0  0  0  0
    4.7131  -15.4331   -5.7437 H   0  0  0  0  0  0  0  0  0  0  0  0
    5.4790  -14.4740   -4.4893 H   0  0  0  0  0  0  0  0  0  0  0  0
    2.6034  -14.7124   -5.2843 H   0  0  0  0  0  0  0  0  0  0  0  0
    2.5623  -15.3090   -3.1054 H   0  0  0  0  0  0  0  0  0  0  0  0
    4.0557  -14.4873   -2.6979 H   0  0  0  0  0  0  0  0  0  0  0  0
    1.2195  -13.2955   -3.0003 H   0  0  0  0  0  0  0  0  0  0  0  0
    1.5000  -12.5620   -0.9670 H   0  0  0  0  0  0  0  0  0  0  0  0
    2.4050  -13.9230   -0.8720 H   0  0  0  0  0  0  0  0  0  0  0  0
    3.9550  -11.5572   -1.6597 H   0  0  0  0  0  0  0  0  0  0  0  0
    3.2233  -11.5251    0.0049 H   0  0  0  0  0  0  0  0  0  0  0  0
    6.6340  -13.8090   -0.4650 H   0  0  0  0  0  0  0  0  0  0  0  0
    6.7811  -13.7390   -2.6956 H   0  0  0  0  0  0  0  0  0  0  0  0
    5.2161  -12.9181   -2.7579 H   0  0  0  0  0  0  0  0  0  0  0  0
    8.0067  -11.7585   -2.7521 H   0  0  0  0  0  0  0  0  0  0  0  0
    6.5528  -11.1005   -3.5071 H   0  0  0  0  0  0  0  0  0  0  0  0
    7.4702   -9.9200   -1.2967 H   0  0  0  0  0  0  0  0  0  0  0  0
    5.7454  -10.1918   -1.3635 H   0  0  0  0  0  0  0  0  0  0  0  0
    7.9241  -11.8589    0.0125 H   0  0  0  0  0  0  0  0  0  0  0  0
    2.2564  -11.1359   -3.5562 H   0  0  0  0  0  0  0  0  0  0  0  0
    3.8516  -11.6352   -3.0363 H   0  0  0  0  0  0  0  0  0  0  0  0
    2.3403  -12.2272   -5.5493 H   0  0  0  0  0  0  0  0  0  0  0  0
    4.2378  -11.2975   -6.3366 H   0  0  0  0  0  0  0  0  0  0  0  0
    5.1856  -11.6710   -4.9038 H   0  0  0  0  0  0  0  0  0  0  0  0
  1  2  1  0
  2  3  1  0
  2  4  1  0
  2  5  1  0
  5  6  1  0
  6  7  2  0
  6  8  1  0
  8  9  1  0
  9 10  1  0
 10 11  1  0
 11 12  1  0
 12 13  1  0
 13 14  1  0
 14 15  1  0
 15 16  1  0
 16 17  2  0
 16 18  1  0
 18 19  1  0
 19 20  1  0
 20 21  1  0
 21 22  1  0
 22 23  1  0
 23 24  3  0
 13 25  1  0
 25 26  1  0
 26 27  1  0
 27  9  1  0
 26 11  1  0
 22 18  1  0
  1 28  1  0
  1 29  1  0
  1 30  1  0
  3 31  1  0
  3 32  1  0
  3 33  1  0
  4 34  1  0
  4 35  1  0
  4 36  1  0
  5 37  1  0
  9 38  1  6
 10 39  1  0
 10 40  1  0
 11 41  1  6
 12 42  1  0
 12 43  1  0
 13 44  1  6
 14 45  1  0
 14 46  1  0
 15 47  1  0
 15 48  1  0
 18 49  1  0
 19 50  1  0
 19 51  1  0
 20 52  1  0
 20 53  1  0
 21 54  1  0
 21 55  1  0
 22 56  1  1
 25 57  1  0
 25 58  1  0
 26 59  1  6
 27 60  1  0
 27 61  1  0
M  CHG  2  14   1  18   1
M  END
>  <meeko>  (6) 
{"is_sidechain": [false], "free_energy": -6.095, "intermolecular_energy": -9.036, "internal_energy": -0.661}

$$$$
LIB_WBNHNWSPTHTRMQ__M_PUB_ALL__e8__s20260927
     RDKit          3D

 61 63  0  0  0  0  0  0  0  0999 V2000
   12.6060  -11.3500   -0.5570 C   0  0  0  0  0  0  0  0  0  0  0  0
   11.5500  -12.3780   -0.9920 C   0  0  0  0  0  0  0  0  0  0  0  0
   11.5380  -12.4420   -2.5290 C   0  0  0  0  0  0  0  0  0  0  0  0
   11.9140  -13.7680   -0.4470 C   0  0  0  0  0  0  0  0  0  0  0  0
   10.2130  -11.9760   -0.5400 N   0  0  0  0  0  0  0  0  0  0  0  0
    9.7940  -11.9140    0.7510 C   0  0  0  0  0  0  0  0  0  0  0  0
   10.4570  -12.1610    1.7450 O   0  0  0  0  0  0  0  0  0  0  0  0
    8.4920  -11.5210    0.7740 O   0  0  0  0  0  0  0  0  0  0  0  0
    7.5670  -12.5030    0.3140 C   0  0  1  0  0  0  0  0  0  0  0  0
    6.8170  -13.1860    1.4590 C   0  0  0  0  0  0  0  0  0  0  0  0
    5.5730  -13.7540    0.7860 C   0  0  1  0  0  0  0  0  0  0  0  0
    4.3020  -13.7300    1.6340 C   0  0  0  0  0  0  0  0  0  0  0  0
    3.2200  -13.3470    0.6320 C   0  0  1  0  0  0  0  0  0  0  0  0
    2.0130  -12.7880    1.3040 N   0  0  0  0  0  0  0  0  0  0  0  0
    0.6900  -12.9960    0.5770 C   0  0  0  0  0  0  0  0  0  0  0  0
   -0.3810  -13.6590    1.4770 C   0  0  0  0  0  0  0  0  0  0  0  0
   -0.2610  -14.8110    1.8650 O   0  0  0  0  0  0  0  0  0  0  0  0
   -1.5250  -12.9170    2.0920 N   0  0  0  0  0  0  0  0  0  0  0  0
   -1.1070  -11.5500    2.6270 C   0  0  0  0  0  0  0  0  0  0  0  0
   -1.9620  -10.5400    1.8750 C   0  0  0  0  0  0  0  0  0  0  0  0
   -2.3700  -11.2410    0.5920 C   0  0  0  0  0  0  0  0  0  0  0  0
   -2.6610  -12.6490    1.0660 C   0  0  1  0  0  0  0  0  0  0  0  0
   -2.6680  -13.6770    0.0130 C   0  0  0  0  0  0  0  0  0  0  0  0
   -2.4240  -14.6120   -0.6330 N   0  0  0  0  0  0  0  0  0  0  0  0
    3.8970  -12.2780   -0.2210 C   0  0  0  0  0  0  0  0  0  0  0  0
    5.3010  -12.8450   -0.4300 C   0  0  1  0  0  0  0  0  0  0  0  0
    6.4310  -11.8200   -0.4510 C   0  0  0  0  0  0  0  0  0  0  0  0
   12.6476  -11.3095    0.5415 H   0  0  0  0  0  0  0  0  0  0  0  0
   13.5897  -11.6459   -0.9505 H   0  0  0  0  0  0  0  0  0  0  0  0
   12.3367  -10.3587   -0.9505 H   0  0  0  0  0  0  0  0  0  0  0  0
   11.3442  -13.4757   -2.8514 H   0  0  0  0  0  0  0  0  0  0  0  0
   10.7479  -11.7825   -2.9173 H   0  0  0  0  0  0  0  0  0  0  0  0
   12.5134  -12.1136   -2.9173 H   0  0  0  0  0  0  0  0  0  0  0  0
   11.9077  -13.7438    0.6527 H   0  0  0  0  0  0  0  0  0  0  0  0
   11.1786  -14.5051   -0.8018 H   0  0  0  0  0  0  0  0  0  0  0  0
   12.9163  -14.0500   -0.8018 H   0  0  0  0  0  0  0  0  0  0  0  0
    9.5050  -11.7630   -1.2300 H   0  0  0  0  0  0  0  0  0  0  0  0
    8.1679  -13.2121   -0.2743 H   0  0  0  0  0  0  0  0  0  0  0  0
    7.4245  -13.9887    1.9025 H   0  0  0  0  0  0  0  0  0  0  0  0
    6.5797  -12.4983    2.2841 H   0  0  0  0  0  0  0  0  0  0  0  0
    5.7804  -14.8106    0.5611 H   0  0  0  0  0  0  0  0  0  0  0  0
    4.1015  -14.7190    2.0718 H   0  0  0  0  0  0  0  0  0  0  0  0
    4.3654  -13.0365    2.4855 H   0  0  0  0  0  0  0  0  0  0  0  0
    2.8593  -14.2116    0.0555 H   0  0  0  0  0  0  0  0  0  0  0  0
    1.9510  -13.1660    2.2660 H   0  0  0  0  0  0  0  0  0  0  0  0
    2.1770  -11.7680    1.4460 H   0  0  0  0  0  0  0  0  0  0  0  0
    0.3136  -12.0182    0.2420 H   0  0  0  0  0  0  0  0  0  0  0  0
    0.8769  -13.6691   -0.2728 H   0  0  0  0  0  0  0  0  0  0  0  0
   -1.8980  -13.4710    2.8700 H   0  0  0  0  0  0  0  0  0  0  0  0
   -1.2978  -11.4857    3.7084 H   0  0  0  0  0  0  0  0  0  0  0  0
   -0.0327  -11.3652    2.4795 H   0  0  0  0  0  0  0  0  0  0  0  0
   -2.8495  -10.2699    2.4661 H   0  0  0  0  0  0  0  0  0  0  0  0
   -1.4163   -9.6056    1.6773 H   0  0  0  0  0  0  0  0  0  0  0  0
   -3.2651  -10.7765    0.1526 H   0  0  0  0  0  0  0  0  0  0  0  0
   -1.6043  -11.1932   -0.1963 H   0  0  0  0  0  0  0  0  0  0  0  0
   -3.6801  -12.7145    1.4748 H   0  0  0  0  0  0  0  0  0  0  0  0
    3.3755  -12.1490   -1.1809 H   0  0  0  0  0  0  0  0  0  0  0  0
    3.8961  -11.2832    0.2485 H   0  0  0  0  0  0  0  0  0  0  0  0
    5.3027  -13.3350   -1.4149 H   0  0  0  0  0  0  0  0  0  0  0  0
    6.7354  -11.5951   -1.4839 H   0  0  0  0  0  0  0  0  0  0  0  0
    6.1381  -10.8588   -0.0035 H   0  0  0  0  0  0  0  0  0  0  0  0
  1  2  1  0
  2  3  1  0
  2  4  1  0
  2  5  1  0
  5  6  1  0
  6  7  2  0
  6  8  1  0
  8  9  1  0
  9 10  1  0
 10 11  1  0
 11 12  1  0
 12 13  1  0
 13 14  1  0
 14 15  1  0
 15 16  1  0
 16 17  2  0
 16 18  1  0
 18 19  1  0
 19 20  1  0
 20 21  1  0
 21 22  1  0
 22 23  1  0
 23 24  3  0
 13 25  1  0
 25 26  1  0
 26 27  1  0
 27  9  1  0
 26 11  1  0
 22 18  1  0
  1 28  1  0
  1 29  1  0
  1 30  1  0
  3 31  1  0
  3 32  1  0
  3 33  1  0
  4 34  1  0
  4 35  1  0
  4 36  1  0
  5 37  1  0
  9 38  1  6
 10 39  1  0
 10 40  1  0
 11 41  1  6
 12 42  1  0
 12 43  1  0
 13 44  1  6
 14 45  1  0
 14 46  1  0
 15 47  1  0
 15 48  1  0
 18 49  1  0
 19 50  1  0
 19 51  1  0
 20 52  1  0
 20 53  1  0
 21 54  1  0
 21 55  1  0
 22 56  1  1
 25 57  1  0
 25 58  1  0
 26 59  1  6
 27 60  1  0
 27 61  1  0
M  CHG  2  14   1  18   1
M  END
>  <meeko>  (7) 
{"is_sidechain": [false], "free_energy": -5.906, "intermolecular_energy": -9.28, "internal_energy": -0.151}

$$$$
LIB_WBNHNWSPTHTRMQ__M_PUB_ALL__e8__s20260927
     RDKit          3D

 61 63  0  0  0  0  0  0  0  0999 V2000
   -1.5720  -12.5370    0.5170 C   0  0  0  0  0  0  0  0  0  0  0  0
   -0.7570  -11.4800    1.2800 C   0  0  0  0  0  0  0  0  0  0  0  0
   -1.3880  -10.1010    1.0220 C   0  0  0  0  0  0  0  0  0  0  0  0
   -0.8070  -11.7670    2.7890 C   0  0  0  0  0  0  0  0  0  0  0  0
    0.6300  -11.4450    0.8020 N   0  0  0  0  0  0  0  0  0  0  0  0
    1.4710  -12.5100    0.7200 C   0  0  0  0  0  0  0  0  0  0  0  0
    1.2110  -13.6680    1.0070 O   0  0  0  0  0  0  0  0  0  0  0  0
    2.6750  -12.0860    0.2520 O   0  0  0  0  0  0  0  0  0  0  0  0
    3.7950  -12.8120    0.7510 C   0  0  1  0  0  0  0  0  0  0  0  0
    4.6810  -13.3670   -0.3660 C   0  0  0  0  0  0  0  0  0  0  0  0
    6.0200  -13.6070    0.3220 C   0  0  1  0  0  0  0  0  0  0  0  0
    7.2540  -13.3430   -0.5380 C   0  0  0  0  0  0  0  0  0  0  0  0
    8.2210  -12.6780    0.4340 C   0  0  1  0  0  0  0  0  0  0  0  0
    9.2750  -11.8980   -0.2770 N   0  0  0  0  0  0  0  0  0  0  0  0
   10.1210  -12.6790   -1.2740 C   0  0  0  0  0  0  0  0  0  0  0  0
   11.4740  -13.1320   -0.6730 C   0  0  0  0  0  0  0  0  0  0  0  0
   11.5730  -13.4490    0.5030 O   0  0  0  0  0  0  0  0  0  0  0  0
   12.6990  -13.3970   -1.4890 N   0  0  0  0  0  0  0  0  0  0  0  0
   12.3910  -14.1910   -2.7540 C   0  0  0  0  0  0  0  0  0  0  0  0
   12.8440  -13.3110   -3.9090 C   0  0  0  0  0  0  0  0  0  0  0  0
   12.8290  -11.8960   -3.3610 C   0  0  0  0  0  0  0  0  0  0  0  0
   13.3770  -12.0810   -1.9610 C   0  0  1  0  0  0  0  0  0  0  0  0
   13.0940  -10.9810   -1.0260 C   0  0  0  0  0  0  0  0  0  0  0  0
   12.7130  -10.3570   -0.1230 N   0  0  0  0  0  0  0  0  0  0  0  0
    7.3210  -11.7460    1.2390 C   0  0  0  0  0  0  0  0  0  0  0  0
    6.0790  -12.6010    1.4890 C   0  0  1  0  0  0  0  0  0  0  0  0
    4.7480  -11.8540    1.4700 C   0  0  0  0  0  0  0  0  0  0  0  0
   -2.0807  -13.1967    1.2354 H   0  0  0  0  0  0  0  0  0  0  0  0
   -2.3205  -12.0369   -0.1152 H   0  0  0  0  0  0  0  0  0  0  0  0
   -0.8980  -13.1337   -0.1152 H   0  0  0  0  0  0  0  0  0  0  0  0
   -1.6108   -9.6141    1.9829 H   0  0  0  0  0  0  0  0  0  0  0  0
   -0.6855   -9.4777    0.4493 H   0  0  0  0  0  0  0  0  0  0  0  0
   -2.3189  -10.2251    0.4493 H   0  0  0  0  0  0  0  0  0  0  0  0
   -0.6442  -10.8323    3.3456 H   0  0  0  0  0  0  0  0  0  0  0  0
   -1.7911  -12.1829    3.0507 H   0  0  0  0  0  0  0  0  0  0  0  0
   -0.0215  -12.4912    3.0507 H   0  0  0  0  0  0  0  0  0  0  0  0
    1.0390  -10.5570    0.5480 H   0  0  0  0  0  0  0  0  0  0  0  0
    3.3672  -13.6071    1.3793 H   0  0  0  0  0  0  0  0  0  0  0  0
    4.2696  -14.3068   -0.7628 H   0  0  0  0  0  0  0  0  0  0  0  0
    4.7593  -12.6863   -1.2266 H   0  0  0  0  0  0  0  0  0  0  0  0
    6.0547  -14.6705    0.6008 H   0  0  0  0  0  0  0  0  0  0  0  0
    7.6712  -14.2831   -0.9281 H   0  0  0  0  0  0  0  0  0  0  0  0
    7.0389  -12.7253   -1.4224 H   0  0  0  0  0  0  0  0  0  0  0  0
    8.7645  -13.4099    1.0496 H   0  0  0  0  0  0  0  0  0  0  0  0
    8.8400  -11.0820   -0.7430 H   0  0  0  0  0  0  0  0  0  0  0  0
    9.8920  -11.4730    0.4480 H   0  0  0  0  0  0  0  0  0  0  0  0
    9.5597  -13.5700   -1.5919 H   0  0  0  0  0  0  0  0  0  0  0  0
   10.3372  -12.0144   -2.1234 H   0  0  0  0  0  0  0  0  0  0  0  0
   13.3640  -13.9330   -0.9210 H   0  0  0  0  0  0  0  0  0  0  0  0
   12.9447  -15.1415   -2.7552 H   0  0  0  0  0  0  0  0  0  0  0  0
   11.3224  -14.4415   -2.8276 H   0  0  0  0  0  0  0  0  0  0  0  0
   13.8584  -13.5892   -4.2310 H   0  0  0  0  0  0  0  0  0  0  0  0
   12.1915  -13.4183   -4.7880 H   0  0  0  0  0  0  0  0  0  0  0  0
   13.4738  -11.2324   -3.9559 H   0  0  0  0  0  0  0  0  0  0  0  0
   11.8342  -11.4272   -3.3842 H   0  0  0  0  0  0  0  0  0  0  0  0
   14.4766  -12.1064   -1.9778 H   0  0  0  0  0  0  0  0  0  0  0  0
    7.7986  -11.4556    2.1864 H   0  0  0  0  0  0  0  0  0  0  0  0
    7.1004  -10.8011    0.7208 H   0  0  0  0  0  0  0  0  0  0  0  0
    6.1845  -13.0291    2.4968 H   0  0  0  0  0  0  0  0  0  0  0  0
    4.3993  -11.6506    2.4932 H   0  0  0  0  0  0  0  0  0  0  0  0
    4.8191  -10.8755    0.9726 H   0  0  0  0  0  0  0  0  0  0  0  0
  1  2  1  0
  2  3  1  0
  2  4  1  0
  2  5  1  0
  5  6  1  0
  6  7  2  0
  6  8  1  0
  8  9  1  0
  9 10  1  0
 10 11  1  0
 11 12  1  0
 12 13  1  0
 13 14  1  0
 14 15  1  0
 15 16  1  0
 16 17  2  0
 16 18  1  0
 18 19  1  0
 19 20  1  0
 20 21  1  0
 21 22  1  0
 22 23  1  0
 23 24  3  0
 13 25  1  0
 25 26  1  0
 26 27  1  0
 27  9  1  0
 26 11  1  0
 22 18  1  0
  1 28  1  0
  1 29  1  0
  1 30  1  0
  3 31  1  0
  3 32  1  0
  3 33  1  0
  4 34  1  0
  4 35  1  0
  4 36  1  0
  5 37  1  0
  9 38  1  1
 10 39  1  0
 10 40  1  0
 11 41  1  1
 12 42  1  0
 12 43  1  0
 13 44  1  1
 14 45  1  0
 14 46  1  0
 15 47  1  0
 15 48  1  0
 18 49  1  0
 19 50  1  0
 19 51  1  0
 20 52  1  0
 20 53  1  0
 21 54  1  0
 21 55  1  0
 22 56  1  6
 25 57  1  0
 25 58  1  0
 26 59  1  1
 27 60  1  0
 27 61  1  0
M  CHG  2  14   1  18   1
M  END
>  <meeko>  (8) 
{"is_sidechain": [false], "free_energy": -5.86, "intermolecular_energy": -9.225, "internal_energy": -0.141}

$$$$
LIB_WBNHNWSPTHTRMQ__M_PUB_ALL__e8__s20260927
     RDKit          3D

 61 63  0  0  0  0  0  0  0  0999 V2000
    0.3860   -9.9490   -1.2810 C   0  0  0  0  0  0  0  0  0  0  0  0
    0.4920  -10.5680    0.1220 C   0  0  0  0  0  0  0  0  0  0  0  0
    0.6050   -9.4280    1.1490 C   0  0  0  0  0  0  0  0  0  0  0  0
   -0.7720  -11.3850    0.4330 C   0  0  0  0  0  0  0  0  0  0  0  0
    1.6930  -11.4050    0.2340 N   0  0  0  0  0  0  0  0  0  0  0  0
    1.8820  -12.6100   -0.3650 C   0  0  0  0  0  0  0  0  0  0  0  0
    1.1020  -13.1860   -1.1060 O   0  0  0  0  0  0  0  0  0  0  0  0
    3.1040  -13.0910   -0.0120 O   0  0  0  0  0  0  0  0  0  0  0  0
    4.1330  -12.1070    0.0530 C   0  0  1  0  0  0  0  0  0  0  0  0
    5.0610  -12.3060    1.2540 C   0  0  0  0  0  0  0  0  0  0  0  0
    6.3250  -11.5520    0.8590 C   0  0  1  0  0  0  0  0  0  0  0  0
    7.6360  -12.1790    1.3330 C   0  0  0  0  0  0  0  0  0  0  0  0
    8.5700  -11.9740    0.1460 C   0  0  1  0  0  0  0  0  0  0  0  0
    9.7230  -12.9190    0.1770 N   0  0  0  0  0  0  0  0  0  0  0  0
   10.4050  -13.1810   -1.1590 C   0  0  0  0  0  0  0  0  0  0  0  0
   11.9490  -13.1670   -1.0470 C   0  0  0  0  0  0  0  0  0  0  0  0
   12.5270  -12.3630   -0.3320 O   0  0  0  0  0  0  0  0  0  0  0  0
   12.8340  -14.2210   -1.6320 N   0  0  0  0  0  0  0  0  0  0  0  0
   12.2640  -15.6230   -1.4480 C   0  0  0  0  0  0  0  0  0  0  0  0
   12.0970  -16.1840   -2.8530 C   0  0  0  0  0  0  0  0  0  0  0  0
   11.9960  -14.9670   -3.7570 C   0  0  0  0  0  0  0  0  0  0  0  0
   13.0280  -14.0310   -3.1620 C   0  0  1  0  0  0  0  0  0  0  0  0
   12.8810  -12.6160   -3.5370 C   0  0  0  0  0  0  0  0  0  0  0  0
   12.7270  -11.4650   -3.5030 N   0  0  0  0  0  0  0  0  0  0  0  0
    7.6760  -12.2640   -1.0560 C   0  0  0  0  0  0  0  0  0  0  0  0
    6.3650  -11.5730   -0.6820 C   0  0  1  0  0  0  0  0  0  0  0  0
    5.0910  -12.2880   -1.1260 C   0  0  0  0  0  0  0  0  0  0  0  0
    0.2009   -8.8683   -1.1920 H   0  0  0  0  0  0  0  0  0  0  0  0
    1.3259  -10.1163   -1.8275 H   0  0  0  0  0  0  0  0  0  0  0  0
   -0.4447  -10.4194   -1.8275 H   0  0  0  0  0  0  0  0  0  0  0  0
    0.5636   -9.8452    2.1660 H   0  0  0  0  0  0  0  0  0  0  0  0
    1.5598   -8.9005    1.0077 H   0  0  0  0  0  0  0  0  0  0  0  0
   -0.2277   -8.7233    1.0077 H   0  0  0  0  0  0  0  0  0  0  0  0
   -0.8973  -11.4660    1.5228 H   0  0  0  0  0  0  0  0  0  0  0  0
   -1.6492  -10.8826   -0.0006 H   0  0  0  0  0  0  0  0  0  0  0  0
   -0.6742  -12.3912   -0.0006 H   0  0  0  0  0  0  0  0  0  0  0  0
    2.4450  -11.1060    0.8400 H   0  0  0  0  0  0  0  0  0  0  0  0
    3.6077  -11.1411    0.0856 H   0  0  0  0  0  0  0  0  0  0  0  0
    4.6188  -11.8803    2.1668 H   0  0  0  0  0  0  0  0  0  0  0  0
    5.2484  -13.3665    1.4783 H   0  0  0  0  0  0  0  0  0  0  0  0
    6.2664  -10.5573    1.3249 H   0  0  0  0  0  0  0  0  0  0  0  0
    8.0175  -11.6660    2.2282 H   0  0  0  0  0  0  0  0  0  0  0  0
    7.5295  -13.2354    1.6204 H   0  0  0  0  0  0  0  0  0  0  0  0
    9.0163  -10.9687    0.1337 H   0  0  0  0  0  0  0  0  0  0  0  0
   10.4170  -12.5890    0.8710 H   0  0  0  0  0  0  0  0  0  0  0  0
    9.3790  -13.8190    0.5770 H   0  0  0  0  0  0  0  0  0  0  0  0
   10.0868  -14.1662   -1.5307 H   0  0  0  0  0  0  0  0  0  0  0  0
   10.1117  -12.3757   -1.8485 H   0  0  0  0  0  0  0  0  0  0  0  0
   13.7490  -14.1780   -1.1690 H   0  0  0  0  0  0  0  0  0  0  0  0
   12.9583  -16.2465   -0.8655 H   0  0  0  0  0  0  0  0  0  0  0  0
   11.3103  -15.6062   -0.9002 H   0  0  0  0  0  0  0  0  0  0  0  0
   12.9664  -16.7987   -3.1290 H   0  0  0  0  0  0  0  0  0  0  0  0
   11.2121  -16.8323   -2.9349 H   0  0  0  0  0  0  0  0  0  0  0  0
   12.2443  -15.2229   -4.7976 H   0  0  0  0  0  0  0  0  0  0  0  0
   10.9852  -14.5352   -3.8003 H   0  0  0  0  0  0  0  0  0  0  0  0
   14.0329  -14.2769   -3.5358 H   0  0  0  0  0  0  0  0  0  0  0  0
    8.0999  -11.8365   -1.9766 H   0  0  0  0  0  0  0  0  0  0  0  0
    7.5576  -13.3385   -1.2598 H   0  0  0  0  0  0  0  0  0  0  0  0
    6.3678  -10.5938   -1.1832 H   0  0  0  0  0  0  0  0  0  0  0  0
    4.6813  -11.8268   -2.0367 H   0  0  0  0  0  0  0  0  0  0  0  0
    5.2638  -13.3462   -1.3716 H   0  0  0  0  0  0  0  0  0  0  0  0
  1  2  1  0
  2  3  1  0
  2  4  1  0
  2  5  1  0
  5  6  1  0
  6  7  2  0
  6  8  1  0
  8  9  1  0
  9 10  1  0
 10 11  1  0
 11 12  1  0
 12 13  1  0
 13 14  1  0
 14 15  1  0
 15 16  1  0
 16 17  2  0
 16 18  1  0
 18 19  1  0
 19 20  1  0
 20 21  1  0
 21 22  1  0
 22 23  1  0
 23 24  3  0
 13 25  1  0
 25 26  1  0
 26 27  1  0
 27  9  1  0
 26 11  1  0
 22 18  1  0
  1 28  1  0
  1 29  1  0
  1 30  1  0
  3 31  1  0
  3 32  1  0
  3 33  1  0
  4 34  1  0
  4 35  1  0
  4 36  1  0
  5 37  1  0
  9 38  1  1
 10 39  1  0
 10 40  1  0
 11 41  1  6
 12 42  1  0
 12 43  1  0
 13 44  1  6
 14 45  1  0
 14 46  1  0
 15 47  1  0
 15 48  1  0
 18 49  1  0
 19 50  1  0
 19 51  1  0
 20 52  1  0
 20 53  1  0
 21 54  1  0
 21 55  1  0
 22 56  1  6
 25 57  1  0
 25 58  1  0
 26 59  1  6
 27 60  1  0
 27 61  1  0
M  CHG  2  14   1  18   1
M  END
>  <meeko>  (9) 
{"is_sidechain": [false], "free_energy": -5.811, "intermolecular_energy": -9.116, "internal_energy": -0.181}

$$$$
