LIB_YFXUIKYIQHGCCE__M_PUB_ALL__e8__s20260927
     RDKit          3D

 48 50  0  0  0  0  0  0  0  0999 V2000
    6.6470   -8.1050    2.2000 C   0  0  0  0  0  0  0  0  0  0  0  0
    6.4880   -9.5000    1.9850 O   0  0  0  0  0  0  0  0  0  0  0  0
    7.3030   -9.9670    0.9050 C   0  0  0  0  0  0  0  0  0  0  0  0
    7.4060  -11.5100    0.8960 C   0  0  1  0  0  0  0  0  0  0  0  0
    6.0600  -12.1550    1.1410 C   0  0  0  0  0  0  0  0  0  0  0  0
    5.8380  -13.0520    2.3360 C   0  0  0  0  0  0  0  0  0  0  0  0
    5.8750  -13.6410    0.9550 C   0  0  0  0  0  0  0  0  0  0  0  0
    8.0490  -12.0130   -0.3260 N   0  0  0  0  0  0  0  0  0  0  0  0
    7.3810  -11.9180   -1.5190 N   0  0  0  0  0  0  0  0  0  0  0  0
    7.9670  -12.3110   -2.6040 C   0  0  0  0  0  0  0  0  0  0  0  0
    7.2420  -12.2030   -3.9160 C   0  0  0  0  0  0  0  0  0  0  0  0
    9.2230  -12.8400   -2.6860 N   0  0  0  0  0  0  0  0  0  0  0  0
    9.9210  -12.9530   -1.6000 C   0  0  0  0  0  0  0  0  0  0  0  0
   11.2120  -13.4530   -1.5190 N   0  0  0  0  0  0  0  0  0  0  0  0
   12.0090  -14.0610   -2.5070 C   0  0  0  0  0  0  0  0  0  0  0  0
   11.7400  -15.3460   -2.9940 C   0  0  0  0  0  0  0  0  0  0  0  0
   12.5210  -15.9160   -3.9980 C   0  0  0  0  0  0  0  0  0  0  0  0
   13.5640  -15.1790   -4.5170 C   0  0  0  0  0  0  0  0  0  0  0  0
   14.3120  -15.7800   -5.5070 O   0  0  0  0  0  0  0  0  0  0  0  0
   13.7230  -15.6690   -6.7990 C   0  0  0  0  0  0  0  0  0  0  0  0
   13.8630  -13.9360   -4.1030 N   0  0  0  0  0  0  0  0  0  0  0  0
   13.0910  -13.3840   -3.1110 C   0  0  0  0  0  0  0  0  0  0  0  0
   13.4180  -11.9540   -2.7160 C   0  0  0  0  0  0  0  0  0  0  0  0
   12.5510  -11.0460   -3.2510 F   0  0  0  0  0  0  0  0  0  0  0  0
   13.3590  -11.7520   -1.3620 F   0  0  0  0  0  0  0  0  0  0  0  0
   14.6650  -11.5430   -3.0830 F   0  0  0  0  0  0  0  0  0  0  0  0
    9.3400  -12.4930   -0.2610 C   0  0  0  0  0  0  0  0  0  0  0  0
   10.0480  -12.5870    0.7350 O   0  0  0  0  0  0  0  0  0  0  0  0
    6.6703   -7.9009    3.2806 H   0  0  0  0  0  0  0  0  0  0  0  0
    7.5893   -7.7686    1.7429 H   0  0  0  0  0  0  0  0  0  0  0  0
    5.8046   -7.5652    1.7429 H   0  0  0  0  0  0  0  0  0  0  0  0
    6.8617   -9.6331   -0.0456 H   0  0  0  0  0  0  0  0  0  0  0  0
    8.3148   -9.5552    1.0343 H   0  0  0  0  0  0  0  0  0  0  0  0
    8.0598  -11.7986    1.7322 H   0  0  0  0  0  0  0  0  0  0  0  0
    5.5736  -11.2516    0.7444 H   0  0  0  0  0  0  0  0  0  0  0  0
    6.6620  -13.2458    3.0385 H   0  0  0  0  0  0  0  0  0  0  0  0
    5.1214  -13.0718    3.1703 H   0  0  0  0  0  0  0  0  0  0  0  0
    6.7260  -14.2663    0.6470 H   0  0  0  0  0  0  0  0  0  0  0  0
    5.1963  -14.2706    0.3609 H   0  0  0  0  0  0  0  0  0  0  0  0
    6.1696  -12.0433   -3.7303 H   0  0  0  0  0  0  0  0  0  0  0  0
    7.6452  -11.3550   -4.4890 H   0  0  0  0  0  0  0  0  0  0  0  0
    7.3805  -13.1317   -4.4890 H   0  0  0  0  0  0  0  0  0  0  0  0
   11.6070  -13.4070   -0.5750 H   0  0  0  0  0  0  0  0  0  0  0  0
   10.8969  -15.9161   -2.5766 H   0  0  0  0  0  0  0  0  0  0  0  0
   12.3100  -16.9303   -4.3676 H   0  0  0  0  0  0  0  0  0  0  0  0
   12.6469  -15.4662   -6.6952 H   0  0  0  0  0  0  0  0  0  0  0  0
   14.2000  -14.8449   -7.3498 H   0  0  0  0  0  0  0  0  0  0  0  0
   13.8673  -16.6101   -7.3498 H   0  0  0  0  0  0  0  0  0  0  0  0
  1  2  1  0
  2  3  1  0
  3  4  1  0
  4  5  1  0
  5  6  1  0
  6  7  1  0
  4  8  1  0
  8  9  1  0
  9 10  2  0
 10 11  1  0
 10 12  1  0
 12 13  2  0
 13 14  1  0
 14 15  1  0
 15 16  2  0
 16 17  1  0
 17 18  2  0
 18 19  1  0
 19 20  1  0
 18 21  1  0
 21 22  2  0
 22 23  1  0
 23 24  1  0
 23 25  1  0
 23 26  1  0
 13 27  1  0
 27 28  2  0
  7  5  1  0
 27  8  1  0
 22 15  1  0
  1 29  1  0
  1 30  1  0
  1 31  1  0
  3 32  1  0
  3 33  1  0
  4 34  1  1
  5 35  1  0
  6 36  1  0
  6 37  1  0
  7 38  1  0
  7 39  1  0
 11 40  1  0
 11 41  1  0
 11 42  1  0
 14 43  1  0
 16 44  1  0
 17 45  1  0
 20 46  1  0
 20 47  1  0
 20 48  1  0
M  END
>  <meeko>  (1) 
{"is_sidechain": [false], "free_energy": -6.572, "intermolecular_energy": -9.261, "internal_energy": -0.808}

$$$$
LIB_YFXUIKYIQHGCCE__M_PUB_ALL__e8__s20260927
     RDKit          3D

 48 50  0  0  0  0  0  0  0  0999 V2000
   -3.4310  -10.4400   -0.2680 C   0  0  0  0  0  0  0  0  0  0  0  0
   -3.9540  -11.7450   -0.4680 O   0  0  0  0  0  0  0  0  0  0  0  0
   -3.3500  -12.7010    0.4100 C   0  0  0  0  0  0  0  0  0  0  0  0
   -2.0560  -12.1460    1.0510 C   0  0  1  0  0  0  0  0  0  0  0  0
   -2.0430  -12.3650    2.5480 C   0  0  0  0  0  0  0  0  0  0  0  0
   -1.4900  -11.3110    3.4770 C   0  0  0  0  0  0  0  0  0  0  0  0
   -0.7430  -12.5990    3.2780 C   0  0  0  0  0  0  0  0  0  0  0  0
   -0.8490  -12.6760    0.4010 N   0  0  0  0  0  0  0  0  0  0  0  0
   -0.8050  -14.0010    0.0530 N   0  0  0  0  0  0  0  0  0  0  0  0
    0.2350  -14.4570   -0.5670 C   0  0  0  0  0  0  0  0  0  0  0  0
    0.2860  -15.9070   -0.9570 C   0  0  0  0  0  0  0  0  0  0  0  0
    1.3400  -13.7310   -0.9130 N   0  0  0  0  0  0  0  0  0  0  0  0
    1.3680  -12.4680   -0.6260 C   0  0  0  0  0  0  0  0  0  0  0  0
    2.4040  -11.5960   -0.9230 N   0  0  0  0  0  0  0  0  0  0  0  0
    3.6790  -11.8580   -1.4590 C   0  0  0  0  0  0  0  0  0  0  0  0
    4.6920  -12.4670   -0.7070 C   0  0  0  0  0  0  0  0  0  0  0  0
    5.9370  -12.7490   -1.2680 C   0  0  0  0  0  0  0  0  0  0  0  0
    6.1500  -12.4270   -2.5910 C   0  0  0  0  0  0  0  0  0  0  0  0
    7.3940  -12.7210   -3.1050 O   0  0  0  0  0  0  0  0  0  0  0  0
    8.2080  -11.5680   -3.2960 C   0  0  0  0  0  0  0  0  0  0  0  0
    5.2130  -11.8560   -3.3680 N   0  0  0  0  0  0  0  0  0  0  0  0
    3.9920  -11.5770   -2.8070 C   0  0  0  0  0  0  0  0  0  0  0  0
    2.9390  -10.9930   -3.7340 C   0  0  0  0  0  0  0  0  0  0  0  0
    3.4500  -10.6100   -4.9400 F   0  0  0  0  0  0  0  0  0  0  0  0
    1.9430  -11.8850   -4.0330 F   0  0  0  0  0  0  0  0  0  0  0  0
    2.2990   -9.8980   -3.2340 F   0  0  0  0  0  0  0  0  0  0  0  0
    0.1790  -11.8140    0.0820 C   0  0  0  0  0  0  0  0  0  0  0  0
    0.2340  -10.6100    0.3040 O   0  0  0  0  0  0  0  0  0  0  0  0
   -3.3503  -10.2386    0.8104 H   0  0  0  0  0  0  0  0  0  0  0  0
   -2.4351  -10.3694   -0.7297 H   0  0  0  0  0  0  0  0  0  0  0  0
   -4.1025   -9.7011   -0.7297 H   0  0  0  0  0  0  0  0  0  0  0  0
   -4.0637  -12.9540    1.2079 H   0  0  0  0  0  0  0  0  0  0  0  0
   -3.0878  -13.5922   -0.1790 H   0  0  0  0  0  0  0  0  0  0  0  0
   -2.0477  -11.0588    0.8839 H   0  0  0  0  0  0  0  0  0  0  0  0
   -2.9981  -12.9039    2.4622 H   0  0  0  0  0  0  0  0  0  0  0  0
   -1.0875  -10.3731    3.0666 H   0  0  0  0  0  0  0  0  0  0  0  0
   -1.8768  -10.7639    4.3494 H   0  0  0  0  0  0  0  0  0  0  0  0
    0.2062  -12.6035    2.7222 H   0  0  0  0  0  0  0  0  0  0  0  0
   -0.3571  -13.3841    3.9448 H   0  0  0  0  0  0  0  0  0  0  0  0
    0.3079  -16.5299   -0.0506 H   0  0  0  0  0  0  0  0  0  0  0  0
   -0.6039  -16.1579   -1.5530 H   0  0  0  0  0  0  0  0  0  0  0  0
    1.1913  -16.0948   -1.5530 H   0  0  0  0  0  0  0  0  0  0  0  0
    2.2070  -10.6270   -0.6590 H   0  0  0  0  0  0  0  0  0  0  0  0
    4.5019  -12.7273    0.3447 H   0  0  0  0  0  0  0  0  0  0  0  0
    6.7311  -13.2178   -0.6683 H   0  0  0  0  0  0  0  0  0  0  0  0
    8.4978  -11.1576   -2.3174 H   0  0  0  0  0  0  0  0  0  0  0  0
    9.1112  -11.8460   -3.8590 H   0  0  0  0  0  0  0  0  0  0  0  0
    7.6437  -10.8100   -3.8590 H   0  0  0  0  0  0  0  0  0  0  0  0
  1  2  1  0
  2  3  1  0
  3  4  1  0
  4  5  1  0
  5  6  1  0
  6  7  1  0
  4  8  1  0
  8  9  1  0
  9 10  2  0
 10 11  1  0
 10 12  1  0
 12 13  2  0
 13 14  1  0
 14 15  1  0
 15 16  2  0
 16 17  1  0
 17 18  2  0
 18 19  1  0
 19 20  1  0
 18 21  1  0
 21 22  2  0
 22 23  1  0
 23 24  1  0
 23 25  1  0
 23 26  1  0
 13 27  1  0
 27 28  2  0
  7  5  1  0
 27  8  1  0
 22 15  1  0
  1 29  1  0
  1 30  1  0
  1 31  1  0
  3 32  1  0
  3 33  1  0
  4 34  1  1
  5 35  1  0
  6 36  1  0
  6 37  1  0
  7 38  1  0
  7 39  1  0
 11 40  1  0
 11 41  1  0
 11 42  1  0
 14 43  1  0
 16 44  1  0
 17 45  1  0
 20 46  1  0
 20 47  1  0
 20 48  1  0
M  END
>  <meeko>  (2) 
{"is_sidechain": [false], "free_energy": -6.531, "intermolecular_energy": -9.059, "internal_energy": -0.953}

$$$$
LIB_YFXUIKYIQHGCCE__M_PUB_ALL__e8__s20260927
     RDKit          3D

 48 50  0  0  0  0  0  0  0  0999 V2000
   15.8780  -18.9430  -10.9870 C   0  0  0  0  0  0  0  0  0  0  0  0
   15.4550  -18.4840   -9.7110 O   0  0  0  0  0  0  0  0  0  0  0  0
   14.2960  -17.6490   -9.8020 C   0  0  0  0  0  0  0  0  0  0  0  0
   14.6680  -16.1500   -9.7330 C   0  0  1  0  0  0  0  0  0  0  0  0
   14.5360  -15.4850  -11.0860 C   0  0  0  0  0  0  0  0  0  0  0  0
   15.7550  -15.2110  -11.9340 C   0  0  0  0  0  0  0  0  0  0  0  0
   15.0160  -14.0700  -11.2950 C   0  0  0  0  0  0  0  0  0  0  0  0
   13.9120  -15.4420   -8.6900 N   0  0  0  0  0  0  0  0  0  0  0  0
   12.6170  -15.0690   -8.9410 N   0  0  0  0  0  0  0  0  0  0  0  0
   11.9330  -14.4940   -8.0050 C   0  0  0  0  0  0  0  0  0  0  0  0
   10.5110  -14.0890   -8.2720 C   0  0  0  0  0  0  0  0  0  0  0  0
   12.3870  -14.1980   -6.7510 N   0  0  0  0  0  0  0  0  0  0  0  0
   13.6000  -14.5290   -6.4360 C   0  0  0  0  0  0  0  0  0  0  0  0
   14.2010  -14.3140   -5.2050 N   0  0  0  0  0  0  0  0  0  0  0  0
   13.7340  -13.6020   -4.0850 C   0  0  0  0  0  0  0  0  0  0  0  0
   13.9320  -12.2230   -3.9430 C   0  0  0  0  0  0  0  0  0  0  0  0
   13.4310  -11.5310   -2.8410 C   0  0  0  0  0  0  0  0  0  0  0  0
   12.7190  -12.2330   -1.8930 C   0  0  0  0  0  0  0  0  0  0  0  0
   12.2430  -11.5110   -0.8190 O   0  0  0  0  0  0  0  0  0  0  0  0
   13.2420  -10.7120   -0.1940 C   0  0  0  0  0  0  0  0  0  0  0  0
   12.4820  -13.5530   -1.9790 N   0  0  0  0  0  0  0  0  0  0  0  0
   12.9830  -14.2280   -3.0650 C   0  0  0  0  0  0  0  0  0  0  0  0
   12.6400  -15.7050   -3.1620 C   0  0  0  0  0  0  0  0  0  0  0  0
   12.0410  -16.1830   -2.0320 F   0  0  0  0  0  0  0  0  0  0  0  0
   11.7610  -15.9790   -4.1770 F   0  0  0  0  0  0  0  0  0  0  0  0
   13.7120  -16.5160   -3.3890 F   0  0  0  0  0  0  0  0  0  0  0  0
   14.4920  -15.2410   -7.4560 C   0  0  0  0  0  0  0  0  0  0  0  0
   15.6210  -15.5660   -7.1030 O   0  0  0  0  0  0  0  0  0  0  0  0
   16.6185  -19.7465  -10.8607 H   0  0  0  0  0  0  0  0  0  0  0  0
   15.0111  -19.3276  -11.5442 H   0  0  0  0  0  0  0  0  0  0  0  0
   16.3320  -18.1103  -11.5442 H   0  0  0  0  0  0  0  0  0  0  0  0
   13.7874  -17.8470  -10.7570 H   0  0  0  0  0  0  0  0  0  0  0  0
   13.6379  -17.8798   -8.9513 H   0  0  0  0  0  0  0  0  0  0  0  0
   15.7278  -16.0889   -9.4447 H   0  0  0  0  0  0  0  0  0  0  0  0
   13.5857  -16.0178  -11.2380 H   0  0  0  0  0  0  0  0  0  0  0  0
   16.7535  -15.4927  -11.5684 H   0  0  0  0  0  0  0  0  0  0  0  0
   16.0597  -15.4617  -12.9608 H   0  0  0  0  0  0  0  0  0  0  0  0
   15.4740  -13.5165  -10.4620 H   0  0  0  0  0  0  0  0  0  0  0  0
   14.5564  -13.1401  -11.6612 H   0  0  0  0  0  0  0  0  0  0  0  0
    9.9867  -13.9397   -7.3166 H   0  0  0  0  0  0  0  0  0  0  0  0
   10.4986  -13.1516   -8.8475 H   0  0  0  0  0  0  0  0  0  0  0  0
   10.0066  -14.8792   -8.8475 H   0  0  0  0  0  0  0  0  0  0  0  0
   15.1470  -14.6990   -5.1430 H   0  0  0  0  0  0  0  0  0  0  0  0
   14.4930  -11.6757   -4.7149 H   0  0  0  0  0  0  0  0  0  0  0  0
   13.6003  -10.4497   -2.7310 H   0  0  0  0  0  0  0  0  0  0  0  0
   13.1437  -10.7906    0.8988 H   0  0  0  0  0  0  0  0  0  0  0  0
   14.2380  -11.0654   -0.4989 H   0  0  0  0  0  0  0  0  0  0  0  0
   13.1161   -9.6626   -0.4989 H   0  0  0  0  0  0  0  0  0  0  0  0
  1  2  1  0
  2  3  1  0
  3  4  1  0
  4  5  1  0
  5  6  1  0
  6  7  1  0
  4  8  1  0
  8  9  1  0
  9 10  2  0
 10 11  1  0
 10 12  1  0
 12 13  2  0
 13 14  1  0
 14 15  1  0
 15 16  2  0
 16 17  1  0
 17 18  2  0
 18 19  1  0
 19 20  1  0
 18 21  1  0
 21 22  2  0
 22 23  1  0
 23 24  1  0
 23 25  1  0
 23 26  1  0
 13 27  1  0
 27 28  2  0
  7  5  1  0
 27  8  1  0
 22 15  1  0
  1 29  1  0
  1 30  1  0
  1 31  1  0
  3 32  1  0
  3 33  1  0
  4 34  1  1
  5 35  1  0
  6 36  1  0
  6 37  1  0
  7 38  1  0
  7 39  1  0
 11 40  1  0
 11 41  1  0
 11 42  1  0
 14 43  1  0
 16 44  1  0
 17 45  1  0
 20 46  1  0
 20 47  1  0
 20 48  1  0
M  END
>  <meeko>  (3) 
{"is_sidechain": [false], "free_energy": -6.478, "intermolecular_energy": -8.954, "internal_energy": -0.983}

$$$$
LIB_YFXUIKYIQHGCCE__M_PUB_ALL__e8__s20260927
     RDKit          3D

 48 50  0  0  0  0  0  0  0  0999 V2000
   13.3950  -11.7380   -2.5440 C   0  0  0  0  0  0  0  0  0  0  0  0
   12.7870  -11.0880   -1.4380 O   0  0  0  0  0  0  0  0  0  0  0  0
   12.2550  -12.0270   -0.4960 C   0  0  0  0  0  0  0  0  0  0  0  0
   11.5530  -13.2080   -1.2050 C   0  0  1  0  0  0  0  0  0  0  0  0
   11.9990  -14.5370   -0.6380 C   0  0  0  0  0  0  0  0  0  0  0  0
   12.6750  -15.5640   -1.5160 C   0  0  0  0  0  0  0  0  0  0  0  0
   11.2810  -15.8110   -1.0120 C   0  0  0  0  0  0  0  0  0  0  0  0
   10.0900  -13.0640   -1.1990 N   0  0  0  0  0  0  0  0  0  0  0  0
    9.4470  -12.8380   -0.0090 N   0  0  0  0  0  0  0  0  0  0  0  0
    8.1660  -12.6570   -0.0080 C   0  0  0  0  0  0  0  0  0  0  0  0
    7.4570  -12.4020    1.2920 C   0  0  0  0  0  0  0  0  0  0  0  0
    7.3560  -12.6810   -1.1080 N   0  0  0  0  0  0  0  0  0  0  0  0
    7.8920  -12.8810   -2.2700 C   0  0  0  0  0  0  0  0  0  0  0  0
    7.2120  -12.9160   -3.4780 N   0  0  0  0  0  0  0  0  0  0  0  0
    5.8290  -12.8860   -3.7360 C   0  0  0  0  0  0  0  0  0  0  0  0
    5.0490  -11.7490   -3.4860 C   0  0  0  0  0  0  0  0  0  0  0  0
    3.6870  -11.7280   -3.7820 C   0  0  0  0  0  0  0  0  0  0  0  0
    3.1190  -12.8520   -4.3410 C   0  0  0  0  0  0  0  0  0  0  0  0
    1.7700  -12.7900   -4.6160 O   0  0  0  0  0  0  0  0  0  0  0  0
    1.1390  -14.0670   -4.6190 C   0  0  0  0  0  0  0  0  0  0  0  0
    3.8160  -13.9680   -4.6180 N   0  0  0  0  0  0  0  0  0  0  0  0
    5.1560  -13.9820   -4.3200 C   0  0  0  0  0  0  0  0  0  0  0  0
    5.9230  -15.2350   -4.7070 C   0  0  0  0  0  0  0  0  0  0  0  0
    6.4410  -15.8910   -3.6290 F   0  0  0  0  0  0  0  0  0  0  0  0
    5.1390  -16.1590   -5.3470 F   0  0  0  0  0  0  0  0  0  0  0  0
    6.9710  -15.0110   -5.5500 F   0  0  0  0  0  0  0  0  0  0  0  0
    9.4050  -13.0780   -2.3950 C   0  0  0  0  0  0  0  0  0  0  0  0
    9.8740  -13.2290   -3.5180 O   0  0  0  0  0  0  0  0  0  0  0  0
   14.1040  -12.4959   -2.1795 H   0  0  0  0  0  0  0  0  0  0  0  0
   12.6201  -12.2244   -3.1548 H   0  0  0  0  0  0  0  0  0  0  0  0
   13.9320  -10.9973   -3.1548 H   0  0  0  0  0  0  0  0  0  0  0  0
   13.0772  -12.4187    0.1209 H   0  0  0  0  0  0  0  0  0  0  0  0
   11.5110  -11.5072    0.1255 H   0  0  0  0  0  0  0  0  0  0  0  0
   11.8631  -13.1865   -2.2602 H   0  0  0  0  0  0  0  0  0  0  0  0
   12.2523  -14.0315    0.3056 H   0  0  0  0  0  0  0  0  0  0  0  0
   12.8444  -15.3501   -2.5816 H   0  0  0  0  0  0  0  0  0  0  0  0
   13.6253  -16.1164   -1.4754 H   0  0  0  0  0  0  0  0  0  0  0  0
   10.4308  -15.7781   -1.7092 H   0  0  0  0  0  0  0  0  0  0  0  0
   10.7902  -16.6194   -0.4503 H   0  0  0  0  0  0  0  0  0  0  0  0
    8.1283  -12.6434    2.1293 H   0  0  0  0  0  0  0  0  0  0  0  0
    7.1658  -11.3428    1.3492 H   0  0  0  0  0  0  0  0  0  0  0  0
    6.5579  -13.0331    1.3492 H   0  0  0  0  0  0  0  0  0  0  0  0
    7.8280  -13.0320   -4.2870 H   0  0  0  0  0  0  0  0  0  0  0  0
    5.5202  -10.8567   -3.0481 H   0  0  0  0  0  0  0  0  0  0  0  0
    3.0797  -10.8347   -3.5741 H   0  0  0  0  0  0  0  0  0  0  0  0
    0.9756  -14.3977   -3.5827 H   0  0  0  0  0  0  0  0  0  0  0  0
    0.1718  -13.9969   -5.1383 H   0  0  0  0  0  0  0  0  0  0  0  0
    1.7823  -14.7926   -5.1383 H   0  0  0  0  0  0  0  0  0  0  0  0
  1  2  1  0
  2  3  1  0
  3  4  1  0
  4  5  1  0
  5  6  1  0
  6  7  1  0
  4  8  1  0
  8  9  1  0
  9 10  2  0
 10 11  1  0
 10 12  1  0
 12 13  2  0
 13 14  1  0
 14 15  1  0
 15 16  2  0
 16 17  1  0
 17 18  2  0
 18 19  1  0
 19 20  1  0
 18 21  1  0
 21 22  2  0
 22 23  1  0
 23 24  1  0
 23 25  1  0
 23 26  1  0
 13 27  1  0
 27 28  2  0
  7  5  1  0
 27  8  1  0
 22 15  1  0
  1 29  1  0
  1 30  1  0
  1 31  1  0
  3 32  1  0
  3 33  1  0
  4 34  1  6
  5 35  1  0
  6 36  1  0
  6 37  1  0
  7 38  1  0
  7 39  1  0
 11 40  1  0
 11 41  1  0
 11 42  1  0
 14 43  1  0
 16 44  1  0
 17 45  1  0
 20 46  1  0
 20 47  1  0
 20 48  1  0
M  END
>  <meeko>  (4) 
{"is_sidechain": [false], "free_energy": -6.307, "intermolecular_energy": -8.651, "internal_energy": -1.046}

$$$$
LIB_YFXUIKYIQHGCCE__M_PUB_ALL__e8__s20260927
     RDKit          3D

 48 50  0  0  0  0  0  0  0  0999 V2000
    7.4320   -7.9940    1.1920 C   0  0  0  0  0  0  0  0  0  0  0  0
    7.8140   -9.3590    1.1060 O   0  0  0  0  0  0  0  0  0  0  0  0
    6.6910  -10.2360    1.2450 C   0  0  0  0  0  0  0  0  0  0  0  0
    7.1120  -11.7200    1.1430 C   0  0  1  0  0  0  0  0  0  0  0  0
    5.9380  -12.6450    1.3810 C   0  0  0  0  0  0  0  0  0  0  0  0
    5.9810  -13.6820    2.4780 C   0  0  0  0  0  0  0  0  0  0  0  0
    6.0360  -14.1120    1.0400 C   0  0  0  0  0  0  0  0  0  0  0  0
    7.8020  -12.0110   -0.1220 N   0  0  0  0  0  0  0  0  0  0  0  0
    7.1180  -11.8750   -1.3020 N   0  0  0  0  0  0  0  0  0  0  0  0
    7.7380  -12.0780   -2.4190 C   0  0  0  0  0  0  0  0  0  0  0  0
    6.9960  -11.9230   -3.7160 C   0  0  0  0  0  0  0  0  0  0  0  0
    9.0490  -12.4410   -2.5490 N   0  0  0  0  0  0  0  0  0  0  0  0
    9.7640  -12.5810   -1.4770 C   0  0  0  0  0  0  0  0  0  0  0  0
   11.1060  -12.9270   -1.4420 N   0  0  0  0  0  0  0  0  0  0  0  0
   11.9630  -13.3280   -2.4840 C   0  0  0  0  0  0  0  0  0  0  0  0
   12.5510  -12.4070   -3.3600 C   0  0  0  0  0  0  0  0  0  0  0  0
   13.4250  -12.8220   -4.3640 C   0  0  0  0  0  0  0  0  0  0  0  0
   13.7120  -14.1650   -4.4720 C   0  0  0  0  0  0  0  0  0  0  0  0
   14.5780  -14.5330   -5.4780 O   0  0  0  0  0  0  0  0  0  0  0  0
   13.9690  -15.3550   -6.4690 C   0  0  0  0  0  0  0  0  0  0  0  0
   13.1920  -15.0960   -3.6520 N   0  0  0  0  0  0  0  0  0  0  0  0
   12.3290  -14.6790   -2.6690 C   0  0  0  0  0  0  0  0  0  0  0  0
   11.8130  -15.7500   -1.7230 C   0  0  0  0  0  0  0  0  0  0  0  0
   12.0200  -15.4390   -0.4100 F   0  0  0  0  0  0  0  0  0  0  0  0
   10.4630  -15.9510   -1.8350 F   0  0  0  0  0  0  0  0  0  0  0  0
   12.3740  -16.9790   -1.9090 F   0  0  0  0  0  0  0  0  0  0  0  0
    9.1410  -12.3360   -0.1000 C   0  0  0  0  0  0  0  0  0  0  0  0
    9.8630  -12.4470    0.8840 O   0  0  0  0  0  0  0  0  0  0  0  0
    7.3503   -7.7020    2.2494 H   0  0  0  0  0  0  0  0  0  0  0  0
    8.1898   -7.3693    0.6966 H   0  0  0  0  0  0  0  0  0  0  0  0
    6.4600   -7.8534    0.6966 H   0  0  0  0  0  0  0  0  0  0  0  0
    6.2231  -10.0642    2.2256 H   0  0  0  0  0  0  0  0  0  0  0  0
    5.9843  -10.0220    0.4297 H   0  0  0  0  0  0  0  0  0  0  0  0
    7.8404  -11.9098    1.9452 H   0  0  0  0  0  0  0  0  0  0  0  0
    5.2569  -11.8242    1.1120 H   0  0  0  0  0  0  0  0  0  0  0  0
    6.8742  -13.7731    3.1135 H   0  0  0  0  0  0  0  0  0  0  0  0
    5.3426  -13.9292    3.3390 H   0  0  0  0  0  0  0  0  0  0  0  0
    6.9695  -14.5181    0.6233 H   0  0  0  0  0  0  0  0  0  0  0  0
    5.4543  -14.8043    0.4136 H   0  0  0  0  0  0  0  0  0  0  0  0
    5.9384  -11.7021   -3.5093 H   0  0  0  0  0  0  0  0  0  0  0  0
    7.4368  -11.0975   -4.2942 H   0  0  0  0  0  0  0  0  0  0  0  0
    7.0695  -12.8559   -4.2942 H   0  0  0  0  0  0  0  0  0  0  0  0
   11.4990  -12.9320   -0.4970 H   0  0  0  0  0  0  0  0  0  0  0  0
   12.3192  -11.3369   -3.2541 H   0  0  0  0  0  0  0  0  0  0  0  0
   13.8752  -12.0934   -5.0543 H   0  0  0  0  0  0  0  0  0  0  0  0
   13.3827  -16.1464   -5.9792 H   0  0  0  0  0  0  0  0  0  0  0  0
   13.3053  -14.7421   -7.0966 H   0  0  0  0  0  0  0  0  0  0  0  0
   14.7487  -15.8114   -7.0966 H   0  0  0  0  0  0  0  0  0  0  0  0
  1  2  1  0
  2  3  1  0
  3  4  1  0
  4  5  1  0
  5  6  1  0
  6  7  1  0
  4  8  1  0
  8  9  1  0
  9 10  2  0
 10 11  1  0
 10 12  1  0
 12 13  2  0
 13 14  1  0
 14 15  1  0
 15 16  2  0
 16 17  1  0
 17 18  2  0
 18 19  1  0
 19 20  1  0
 18 21  1  0
 21 22  2  0
 22 23  1  0
 23 24  1  0
 23 25  1  0
 23 26  1  0
 13 27  1  0
 27 28  2  0
  7  5  1  0
 27  8  1  0
 22 15  1  0
  1 29  1  0
  1 30  1  0
  1 31  1  0
  3 32  1  0
  3 33  1  0
  4 34  1  1
  5 35  1  0
  6 36  1  0
  6 37  1  0
  7 38  1  0
  7 39  1  0
 11 40  1  0
 11 41  1  0
 11 42  1  0
 14 43  1  0
 16 44  1  0
 17 45  1  0
 20 46  1  0
 20 47  1  0
 20 48  1  0
M  END
>  <meeko>  (5) 
{"is_sidechain": [false], "free_energy": -6.285, "intermolecular_energy": -8.685, "internal_energy": -0.98}

$$$$
LIB_YFXUIKYIQHGCCE__M_PUB_ALL__e8__s20260927
     RDKit          3D

 48 50  0  0  0  0  0  0  0  0999 V2000
   -2.8650  -15.7930    0.6760 C   0  0  0  0  0  0  0  0  0  0  0  0
   -2.0180  -15.3940    1.7440 O   0  0  0  0  0  0  0  0  0  0  0  0
   -2.2020  -14.0140    2.0810 C   0  0  0  0  0  0  0  0  0  0  0  0
   -2.2850  -13.1270    0.8180 C   0  0  1  0  0  0  0  0  0  0  0  0
   -3.4830  -12.2030    0.8700 C   0  0  0  0  0  0  0  0  0  0  0  0
   -4.8660  -12.7130    0.5390 C   0  0  0  0  0  0  0  0  0  0  0  0
   -4.1720  -11.7680   -0.4010 C   0  0  0  0  0  0  0  0  0  0  0  0
   -1.0320  -12.3990    0.5720 N   0  0  0  0  0  0  0  0  0  0  0  0
   -0.9230  -11.0980    0.9930 N   0  0  0  0  0  0  0  0  0  0  0  0
    0.1980  -10.4730    0.8250 C   0  0  0  0  0  0  0  0  0  0  0  0
    0.3270   -9.0500    1.2900 C   0  0  0  0  0  0  0  0  0  0  0  0
    1.3200  -10.9890    0.2400 N   0  0  0  0  0  0  0  0  0  0  0  0
    1.2960  -12.2160   -0.1750 C   0  0  0  0  0  0  0  0  0  0  0  0
    2.3520  -12.8870   -0.7710 N   0  0  0  0  0  0  0  0  0  0  0  0
    3.6080  -12.4060   -1.1850 C   0  0  0  0  0  0  0  0  0  0  0  0
    4.7760  -12.6440   -0.4490 C   0  0  0  0  0  0  0  0  0  0  0  0
    6.0160  -12.1880   -0.8950 C   0  0  0  0  0  0  0  0  0  0  0  0
    6.0740  -11.5050   -2.0900 C   0  0  0  0  0  0  0  0  0  0  0  0
    7.3190  -11.0710   -2.4930 O   0  0  0  0  0  0  0  0  0  0  0  0
    8.1230  -12.1100   -3.0440 C   0  0  0  0  0  0  0  0  0  0  0  0
    4.9920  -11.2580   -2.8490 N   0  0  0  0  0  0  0  0  0  0  0  0
    3.7750  -11.7060   -2.4010 C   0  0  0  0  0  0  0  0  0  0  0  0
    2.5860  -11.4670   -3.3160 C   0  0  0  0  0  0  0  0  0  0  0  0
    1.7650  -10.4730   -2.8680 F   0  0  0  0  0  0  0  0  0  0  0  0
    2.9590  -11.0830   -4.5780 F   0  0  0  0  0  0  0  0  0  0  0  0
    1.7890  -12.5580   -3.4960 F   0  0  0  0  0  0  0  0  0  0  0  0
    0.0310  -13.0610   -0.0020 C   0  0  0  0  0  0  0  0  0  0  0  0
    0.0650  -14.2280   -0.3780 O   0  0  0  0  0  0  0  0  0  0  0  0
   -3.7892  -16.2283    1.0839 H   0  0  0  0  0  0  0  0  0  0  0  0
   -3.1137  -14.9173    0.0584 H   0  0  0  0  0  0  0  0  0  0  0  0
   -2.3482  -16.5423    0.0584 H   0  0  0  0  0  0  0  0  0  0  0  0
   -3.1349  -13.9076    2.6541 H   0  0  0  0  0  0  0  0  0  0  0  0
   -1.3366  -13.6863    2.6757 H   0  0  0  0  0  0  0  0  0  0  0  0
   -2.4295  -13.7962   -0.0430 H   0  0  0  0  0  0  0  0  0  0  0  0
   -3.0283  -11.6861    1.7280 H   0  0  0  0  0  0  0  0  0  0  0  0
   -5.0099  -13.7655    0.2534 H   0  0  0  0  0  0  0  0  0  0  0  0
   -5.8361  -12.7205    1.0574 H   0  0  0  0  0  0  0  0  0  0  0  0
   -3.8086  -12.1293   -1.3743 H   0  0  0  0  0  0  0  0  0  0  0  0
   -4.4250  -10.7983   -0.8545 H   0  0  0  0  0  0  0  0  0  0  0  0
    0.3295   -9.0224    2.3897 H   0  0  0  0  0  0  0  0  0  0  0  0
    1.2674   -8.6240    0.9104 H   0  0  0  0  0  0  0  0  0  0  0  0
   -0.5215   -8.4619    0.9104 H   0  0  0  0  0  0  0  0  0  0  0  0
    2.1460  -13.8680   -0.9770 H   0  0  0  0  0  0  0  0  0  0  0  0
    4.7138  -13.2006    0.4977 H   0  0  0  0  0  0  0  0  0  0  0  0
    6.9271  -12.3695   -0.3060 H   0  0  0  0  0  0  0  0  0  0  0  0
    8.5754  -12.6946   -2.2294 H   0  0  0  0  0  0  0  0  0  0  0  0
    7.4969  -12.7685   -3.6640 H   0  0  0  0  0  0  0  0  0  0  0  0
    8.9175  -11.6691   -3.6640 H   0  0  0  0  0  0  0  0  0  0  0  0
  1  2  1  0
  2  3  1  0
  3  4  1  0
  4  5  1  0
  5  6  1  0
  6  7  1  0
  4  8  1  0
  8  9  1  0
  9 10  2  0
 10 11  1  0
 10 12  1  0
 12 13  2  0
 13 14  1  0
 14 15  1  0
 15 16  2  0
 16 17  1  0
 17 18  2  0
 18 19  1  0
 19 20  1  0
 18 21  1  0
 21 22  2  0
 22 23  1  0
 23 24  1  0
 23 25  1  0
 23 26  1  0
 13 27  1  0
 27 28  2  0
  7  5  1  0
 27  8  1  0
 22 15  1  0
  1 29  1  0
  1 30  1  0
  1 31  1  0
  3 32  1  0
  3 33  1  0
  4 34  1  6
  5 35  1  0
  6 36  1  0
  6 37  1  0
  7 38  1  0
  7 39  1  0
 11 40  1  0
 11 41  1  0
 11 42  1  0
 14 43  1  0
 16 44  1  0
 17 45  1  0
 20 46  1  0
 20 47  1  0
 20 48  1  0
M  END
>  <meeko>  (6) 
{"is_sidechain": [false], "free_energy": -6.274, "intermolecular_energy": -8.871, "internal_energy": -0.779}

$$$$
LIB_YFXUIKYIQHGCCE__M_PUB_ALL__e8__s20260927
     RDKit          3D

 48 50  0  0  0  0  0  0  0  0999 V2000
    1.4370  -14.8430   -2.6220 C   0  0  0  0  0  0  0  0  0  0  0  0
    1.3140  -13.6820   -3.4310 O   0  0  0  0  0  0  0  0  0  0  0  0
    1.9550  -13.8480   -4.7010 C   0  0  0  0  0  0  0  0  0  0  0  0
    3.1850  -12.9230   -4.8430 C   0  0  1  0  0  0  0  0  0  0  0  0
    3.5150  -12.2390   -3.5340 C   0  0  0  0  0  0  0  0  0  0  0  0
    3.4500  -10.7350   -3.4100 C   0  0  0  0  0  0  0  0  0  0  0  0
    4.7820  -11.4300   -3.3890 C   0  0  0  0  0  0  0  0  0  0  0  0
    4.3430  -13.6290   -5.4090 N   0  0  0  0  0  0  0  0  0  0  0  0
    4.6680  -14.8710   -4.9280 N   0  0  0  0  0  0  0  0  0  0  0  0
    5.6540  -15.5160   -5.4620 C   0  0  0  0  0  0  0  0  0  0  0  0
    6.0100  -16.8810   -4.9440 C   0  0  0  0  0  0  0  0  0  0  0  0
    6.4420  -15.0680   -6.4840 N   0  0  0  0  0  0  0  0  0  0  0  0
    6.1900  -13.9050   -6.9970 C   0  0  0  0  0  0  0  0  0  0  0  0
    6.8840  -13.3190   -8.0450 N   0  0  0  0  0  0  0  0  0  0  0  0
    8.0570  -13.7390   -8.6990 C   0  0  0  0  0  0  0  0  0  0  0  0
    9.1530  -14.2610   -8.0000 C   0  0  0  0  0  0  0  0  0  0  0  0
   10.2920  -14.7050   -8.6710 C   0  0  0  0  0  0  0  0  0  0  0  0
   10.3150  -14.6320  -10.0460 C   0  0  0  0  0  0  0  0  0  0  0  0
   11.4600  -15.0790  -10.6690 O   0  0  0  0  0  0  0  0  0  0  0  0
   12.5110  -15.3830   -9.7580 C   0  0  0  0  0  0  0  0  0  0  0  0
    9.2900  -14.1560  -10.7740 N   0  0  0  0  0  0  0  0  0  0  0  0
    8.1740  -13.7170  -10.1060 C   0  0  0  0  0  0  0  0  0  0  0  0
    7.0120  -13.2470  -10.9650 C   0  0  0  0  0  0  0  0  0  0  0  0
    7.2130  -13.4730  -12.2960 F   0  0  0  0  0  0  0  0  0  0  0  0
    5.8390  -13.8880  -10.6650 F   0  0  0  0  0  0  0  0  0  0  0  0
    6.7310  -11.9180  -10.8500 F   0  0  0  0  0  0  0  0  0  0  0  0
    5.0280  -13.0650   -6.4640 C   0  0  0  0  0  0  0  0  0  0  0  0
    4.8050  -11.9860   -7.0020 O   0  0  0  0  0  0  0  0  0  0  0  0
    1.4065  -14.5553   -1.5607 H   0  0  0  0  0  0  0  0  0  0  0  0
    0.6067  -15.5310   -2.8394 H   0  0  0  0  0  0  0  0  0  0  0  0
    2.3930  -15.3418   -2.8394 H   0  0  0  0  0  0  0  0  0  0  0  0
    2.2812  -14.8936   -4.8022 H   0  0  0  0  0  0  0  0  0  0  0  0
    1.2332  -13.5836   -5.4878 H   0  0  0  0  0  0  0  0  0  0  0  0
    2.9205  -12.1341   -5.5625 H   0  0  0  0  0  0  0  0  0  0  0  0
    3.0622  -13.0848   -2.9958 H   0  0  0  0  0  0  0  0  0  0  0  0
    3.1626  -10.1239   -4.2783 H   0  0  0  0  0  0  0  0  0  0  0  0
    2.9298  -10.0323   -2.7425 H   0  0  0  0  0  0  0  0  0  0  0  0
    5.4690  -11.3272   -4.2419 H   0  0  0  0  0  0  0  0  0  0  0  0
    5.6391  -11.4458   -2.6997 H   0  0  0  0  0  0  0  0  0  0  0  0
    6.0066  -16.8681   -3.8441 H   0  0  0  0  0  0  0  0  0  0  0  0
    5.2729  -17.6137   -5.3044 H   0  0  0  0  0  0  0  0  0  0  0  0
    7.0110  -17.1604   -5.3044 H   0  0  0  0  0  0  0  0  0  0  0  0
    6.4920  -12.4190   -8.3380 H   0  0  0  0  0  0  0  0  0  0  0  0
    9.1145  -14.3218   -6.9024 H   0  0  0  0  0  0  0  0  0  0  0  0
   11.1527  -15.1045   -8.1145 H   0  0  0  0  0  0  0  0  0  0  0  0
   12.1442  -15.2769   -8.7264 H   0  0  0  0  0  0  0  0  0  0  0  0
   12.8509  -16.4163   -9.9219 H   0  0  0  0  0  0  0  0  0  0  0  0
   13.3500  -14.6907   -9.9219 H   0  0  0  0  0  0  0  0  0  0  0  0
  1  2  1  0
  2  3  1  0
  3  4  1  0
  4  5  1  0
  5  6  1  0
  6  7  1  0
  4  8  1  0
  8  9  1  0
  9 10  2  0
 10 11  1  0
 10 12  1  0
 12 13  2  0
 13 14  1  0
 14 15  1  0
 15 16  2  0
 16 17  1  0
 17 18  2  0
 18 19  1  0
 19 20  1  0
 18 21  1  0
 21 22  2  0
 22 23  1  0
 23 24  1  0
 23 25  1  0
 23 26  1  0
 13 27  1  0
 27 28  2  0
  7  5  1  0
 27  8  1  0
 22 15  1  0
  1 29  1  0
  1 30  1  0
  1 31  1  0
  3 32  1  0
  3 33  1  0
  4 34  1  6
  5 35  1  0
  6 36  1  0
  6 37  1  0
  7 38  1  0
  7 39  1  0
 11 40  1  0
 11 41  1  0
 11 42  1  0
 14 43  1  0
 16 44  1  0
 17 45  1  0
 20 46  1  0
 20 47  1  0
 20 48  1  0
M  END
>  <meeko>  (7) 
{"is_sidechain": [false], "free_energy": -6.2, "intermolecular_energy": -8.898, "internal_energy": -0.648}

$$$$
LIB_YFXUIKYIQHGCCE__M_PUB_ALL__e8__s20260927
     RDKit          3D

 48 50  0  0  0  0  0  0  0  0999 V2000
  -13.8180  -21.6650   13.0470 C   0  0  0  0  0  0  0  0  0  0  0  0
  -14.4320  -21.1820   11.8610 O   0  0  0  0  0  0  0  0  0  0  0  0
  -14.8470  -22.2500   11.0030 C   0  0  0  0  0  0  0  0  0  0  0  0
  -13.6930  -22.7300   10.0930 C   0  0  1  0  0  0  0  0  0  0  0  0
  -13.9850  -24.0920    9.5010 C   0  0  0  0  0  0  0  0  0  0  0  0
  -13.4020  -25.3420   10.1150 C   0  0  0  0  0  0  0  0  0  0  0  0
  -12.9070  -24.8630    8.7800 C   0  0  0  0  0  0  0  0  0  0  0  0
  -13.3540  -21.7380    9.0630 N   0  0  0  0  0  0  0  0  0  0  0  0
  -14.2830  -21.4280    8.1040 N   0  0  0  0  0  0  0  0  0  0  0  0
  -14.0060  -20.5160    7.2290 C   0  0  0  0  0  0  0  0  0  0  0  0
  -15.0230  -20.1670    6.1790 C   0  0  0  0  0  0  0  0  0  0  0  0
  -12.8380  -19.8120    7.1510 N   0  0  0  0  0  0  0  0  0  0  0  0
  -11.9140  -20.0430    8.0300 C   0  0  0  0  0  0  0  0  0  0  0  0
  -10.6860  -19.4040    8.0970 N   0  0  0  0  0  0  0  0  0  0  0  0
  -10.0940  -18.4910    7.2050 C   0  0  0  0  0  0  0  0  0  0  0  0
   -9.4070  -18.9090    6.0570 C   0  0  0  0  0  0  0  0  0  0  0  0
   -8.8580  -17.9860    5.1680 C   0  0  0  0  0  0  0  0  0  0  0  0
   -9.0150  -16.6430    5.4340 C   0  0  0  0  0  0  0  0  0  0  0  0
   -8.4560  -15.7650    4.5310 O   0  0  0  0  0  0  0  0  0  0  0  0
   -7.1460  -15.3440    4.8970 C   0  0  0  0  0  0  0  0  0  0  0  0
   -9.6760  -16.1790    6.5090 N   0  0  0  0  0  0  0  0  0  0  0  0
  -10.2100  -17.0940    7.3820 C   0  0  0  0  0  0  0  0  0  0  0  0
  -11.0050  -16.5330    8.5490 C   0  0  0  0  0  0  0  0  0  0  0  0
  -12.3420  -16.7850    8.4470 F   0  0  0  0  0  0  0  0  0  0  0  0
  -10.6290  -17.0690    9.7530 F   0  0  0  0  0  0  0  0  0  0  0  0
  -10.8890  -15.1840    8.7080 F   0  0  0  0  0  0  0  0  0  0  0  0
  -12.1440  -21.0810    9.1310 C   0  0  0  0  0  0  0  0  0  0  0  0
  -11.2570  -21.2430    9.9620 O   0  0  0  0  0  0  0  0  0  0  0  0
  -14.3402  -21.2542   13.9237 H   0  0  0  0  0  0  0  0  0  0  0  0
  -13.8744  -22.7634   13.0680 H   0  0  0  0  0  0  0  0  0  0  0  0
  -12.7638  -21.3515   13.0680 H   0  0  0  0  0  0  0  0  0  0  0  0
  -15.1880  -23.0931   11.6218 H   0  0  0  0  0  0  0  0  0  0  0  0
  -15.6600  -21.8797   10.3612 H   0  0  0  0  0  0  0  0  0  0  0  0
  -12.8005  -22.8378   10.7269 H   0  0  0  0  0  0  0  0  0  0  0  0
  -14.9992  -23.7478    9.2502 H   0  0  0  0  0  0  0  0  0  0  0  0
  -12.7534  -25.2685   11.0004 H   0  0  0  0  0  0  0  0  0  0  0  0
  -13.8168  -26.2866   10.4967 H   0  0  0  0  0  0  0  0  0  0  0  0
  -11.8960  -24.4393    8.6886 H   0  0  0  0  0  0  0  0  0  0  0  0
  -12.8097  -25.3125    7.7808 H   0  0  0  0  0  0  0  0  0  0  0  0
  -15.9565  -19.8467    6.6648 H   0  0  0  0  0  0  0  0  0  0  0  0
  -14.6369  -19.3499    5.5518 H   0  0  0  0  0  0  0  0  0  0  0  0
  -15.2200  -21.0490    5.5518 H   0  0  0  0  0  0  0  0  0  0  0  0
  -10.1210  -19.6930    8.9000 H   0  0  0  0  0  0  0  0  0  0  0  0
   -9.2991  -19.9847    5.8538 H   0  0  0  0  0  0  0  0  0  0  0  0
   -8.3118  -18.3222    4.2743 H   0  0  0  0  0  0  0  0  0  0  0  0
   -7.0625  -15.3172    5.9935 H   0  0  0  0  0  0  0  0  0  0  0  0
   -6.4069  -16.0499    4.4901 H   0  0  0  0  0  0  0  0  0  0  0  0
   -6.9565  -14.3397    4.4901 H   0  0  0  0  0  0  0  0  0  0  0  0
  1  2  1  0
  2  3  1  0
  3  4  1  0
  4  5  1  0
  5  6  1  0
  6  7  1  0
  4  8  1  0
  8  9  1  0
  9 10  2  0
 10 11  1  0
 10 12  1  0
 12 13  2  0
 13 14  1  0
 14 15  1  0
 15 16  2  0
 16 17  1  0
 17 18  2  0
 18 19  1  0
 19 20  1  0
 18 21  1  0
 21 22  2  0
 22 23  1  0
 23 24  1  0
 23 25  1  0
 23 26  1  0
 13 27  1  0
 27 28  2  0
  7  5  1  0
 27  8  1  0
 22 15  1  0
  1 29  1  0
  1 30  1  0
  1 31  1  0
  3 32  1  0
  3 33  1  0
  4 34  1  1
  5 35  1  0
  6 36  1  0
  6 37  1  0
  7 38  1  0
  7 39  1  0
 11 40  1  0
 11 41  1  0
 11 42  1  0
 14 43  1  0
 16 44  1  0
 17 45  1  0
 20 46  1  0
 20 47  1  0
 20 48  1  0
M  END
>  <meeko>  (8) 
{"is_sidechain": [false], "free_energy": -6.184, "intermolecular_energy": -8.462, "internal_energy": -1.06}

$$$$
LIB_YFXUIKYIQHGCCE__M_PUB_ALL__e8__s20260927
     RDKit          3D

 48 50  0  0  0  0  0  0  0  0999 V2000
   13.2350  -10.5430   -0.1790 C   0  0  0  0  0  0  0  0  0  0  0  0
   12.0790  -11.3620   -0.0820 O   0  0  0  0  0  0  0  0  0  0  0  0
   12.2810  -12.6420   -0.6910 C   0  0  0  0  0  0  0  0  0  0  0  0
   11.8400  -12.6430   -2.1730 C   0  0  1  0  0  0  0  0  0  0  0  0
   12.8820  -13.2900   -3.0590 C   0  0  0  0  0  0  0  0  0  0  0  0
   13.8180  -12.4490   -3.8940 C   0  0  0  0  0  0  0  0  0  0  0  0
   12.7400  -13.2550   -4.5610 C   0  0  0  0  0  0  0  0  0  0  0  0
   10.5090  -13.2400   -2.3520 N   0  0  0  0  0  0  0  0  0  0  0  0
   10.2550  -14.4760   -1.8160 N   0  0  0  0  0  0  0  0  0  0  0  0
    9.0690  -14.9800   -1.9260 C   0  0  0  0  0  0  0  0  0  0  0  0
    8.7820  -16.3320   -1.3350 C   0  0  0  0  0  0  0  0  0  0  0  0
    8.0070  -14.3920   -2.5530 N   0  0  0  0  0  0  0  0  0  0  0  0
    8.1670  -13.2180   -3.0770 C   0  0  0  0  0  0  0  0  0  0  0  0
    7.1880  -12.4850   -3.7300 N   0  0  0  0  0  0  0  0  0  0  0  0
    5.8800  -12.8520   -4.0980 C   0  0  0  0  0  0  0  0  0  0  0  0
    5.5980  -13.4810   -5.3170 C   0  0  0  0  0  0  0  0  0  0  0  0
    4.3000  -13.8670   -5.6470 C   0  0  0  0  0  0  0  0  0  0  0  0
    3.2920  -13.6300   -4.7370 C   0  0  0  0  0  0  0  0  0  0  0  0
    2.0240  -14.0260   -5.1030 O   0  0  0  0  0  0  0  0  0  0  0  0
    1.1590  -14.2330   -3.9910 C   0  0  0  0  0  0  0  0  0  0  0  0
    3.5010  -13.0440   -3.5450 N   0  0  0  0  0  0  0  0  0  0  0  0
    4.7820  -12.6630   -3.2300 C   0  0  0  0  0  0  0  0  0  0  0  0
    4.9890  -12.0650   -1.8490 C   0  0  0  0  0  0  0  0  0  0  0  0
    5.6630  -12.9020   -1.0070 F   0  0  0  0  0  0  0  0  0  0  0  0
    5.7290  -10.9120   -1.8760 F   0  0  0  0  0  0  0  0  0  0  0  0
    3.8350  -11.7330   -1.2030 F   0  0  0  0  0  0  0  0  0  0  0  0
    9.5220  -12.5120   -2.9810 C   0  0  0  0  0  0  0  0  0  0  0  0
    9.6190  -11.3880   -3.4600 O   0  0  0  0  0  0  0  0  0  0  0  0
   13.5913  -10.2906    0.8306 H   0  0  0  0  0  0  0  0  0  0  0  0
   14.0238  -11.0849   -0.7214 H   0  0  0  0  0  0  0  0  0  0  0  0
   12.9854   -9.6191   -0.7214 H   0  0  0  0  0  0  0  0  0  0  0  0
   13.3492  -12.8988   -0.6362 H   0  0  0  0  0  0  0  0  0  0  0  0
   11.6712  -13.3806   -0.1500 H   0  0  0  0  0  0  0  0  0  0  0  0
   11.7540  -11.5930   -2.4894 H   0  0  0  0  0  0  0  0  0  0  0  0
   13.0098  -14.0800   -2.3043 H   0  0  0  0  0  0  0  0  0  0  0  0
   13.7453  -11.3518   -3.8645 H   0  0  0  0  0  0  0  0  0  0  0  0
   14.9104  -12.3743   -3.9997 H   0  0  0  0  0  0  0  0  0  0  0  0
   11.8787  -12.7474   -5.0198 H   0  0  0  0  0  0  0  0  0  0  0  0
   12.7177  -14.0140   -5.3569 H   0  0  0  0  0  0  0  0  0  0  0  0
    8.7967  -16.2629   -0.2373 H   0  0  0  0  0  0  0  0  0  0  0  0
    7.7911  -16.6747   -1.6676 H   0  0  0  0  0  0  0  0  0  0  0  0
    9.5482  -17.0477   -1.6676 H   0  0  0  0  0  0  0  0  0  0  0  0
    7.5040  -11.5560   -4.0220 H   0  0  0  0  0  0  0  0  0  0  0  0
    6.4157  -13.6739   -6.0270 H   0  0  0  0  0  0  0  0  0  0  0  0
    4.0848  -14.3498   -6.6117 H   0  0  0  0  0  0  0  0  0  0  0  0
    1.7239  -14.0978   -3.0569 H   0  0  0  0  0  0  0  0  0  0  0  0
    0.3334  -13.5071   -4.0286 H   0  0  0  0  0  0  0  0  0  0  0  0
    0.7515  -15.2540   -4.0286 H   0  0  0  0  0  0  0  0  0  0  0  0
  1  2  1  0
  2  3  1  0
  3  4  1  0
  4  5  1  0
  5  6  1  0
  6  7  1  0
  4  8  1  0
  8  9  1  0
  9 10  2  0
 10 11  1  0
 10 12  1  0
 12 13  2  0
 13 14  1  0
 14 15  1  0
 15 16  2  0
 16 17  1  0
 17 18  2  0
 18 19  1  0
 19 20  1  0
 18 21  1  0
 21 22  2  0
 22 23  1  0
 23 24  1  0
 23 25  1  0
 23 26  1  0
 13 27  1  0
 27 28  2  0
  7  5  1  0
 27  8  1  0
 22 15  1  0
  1 29  1  0
  1 30  1  0
  1 31  1  0
  3 32  1  0
  3 33  1  0
  4 34  1  6
  5 35  1  0
  6 36  1  0
  6 37  1  0
  7 38  1  0
  7 39  1  0
 11 40  1  0
 11 41  1  0
 11 42  1  0
 14 43  1  0
 16 44  1  0
 17 45  1  0
 20 46  1  0
 20 47  1  0
 20 48  1  0
M  END
>  <meeko>  (9) 
{"is_sidechain": [false], "free_energy": -6.165, "intermolecular_energy": -8.519, "internal_energy": -0.977}

$$$$
