LIB_SOTRSERIYXCWEZ__M_PUB_ALL__e8__s20260927
     RDKit          3D

 54 57  0  0  0  0  0  0  0  0999 V2000
    3.3890  -13.8970   -5.0300 C   0  0  0  0  0  0  0  0  0  0  0  0
    4.7970  -14.0950   -5.0670 O   0  0  0  0  0  0  0  0  0  0  0  0
    5.4890  -13.6800   -6.1710 C   0  0  0  0  0  0  0  0  0  0  0  0
    5.3080  -12.4200   -6.7660 C   0  0  0  0  0  0  0  0  0  0  0  0
    5.9870  -12.0280   -7.9150 C   0  0  0  0  0  0  0  0  0  0  0  0
    5.7640  -10.8090   -8.4190 N   0  0  0  0  0  0  0  0  0  0  0  0
    6.4330  -10.4680   -9.5230 C   0  0  0  0  0  0  0  0  0  0  0  0
    7.2820  -11.2480  -10.2170 N   0  0  0  0  0  0  0  0  0  0  0  0
    7.5190  -12.4660   -9.6720 C   0  0  0  0  0  0  0  0  0  0  0  0
    8.4080  -13.2920  -10.3680 N   0  0  0  0  0  0  0  0  0  0  0  0
    8.4430  -13.0770  -11.8250 C   0  0  0  0  0  0  0  0  0  0  0  0
    9.3360  -11.8610  -12.1870 C   0  0  0  0  0  0  0  0  0  0  0  0
   10.1330  -11.4190  -10.9830 N   0  0  0  0  0  0  0  0  0  0  0  0
   11.0370  -10.3410  -11.2830 C   0  0  0  0  0  0  0  0  0  0  0  0
   12.1880  -10.6990  -11.4290 O   0  0  0  0  0  0  0  0  0  0  0  0
   10.4920   -9.0940  -11.3680 N   0  0  0  0  0  0  0  0  0  0  0  0
   11.1800   -7.8920  -11.6460 C   0  0  0  0  0  0  0  0  0  0  0  0
   11.5920   -7.6820  -12.9690 C   0  0  0  0  0  0  0  0  0  0  0  0
   12.2800   -6.5180  -13.3290 C   0  0  0  0  0  0  0  0  0  0  0  0
   12.5650   -5.5450  -12.3690 C   0  0  0  0  0  0  0  0  0  0  0  0
   13.2690   -4.3510  -12.7340 C   0  0  0  0  0  0  0  0  0  0  0  0
   13.8400   -3.3870  -13.0330 N   0  0  0  0  0  0  0  0  0  0  0  0
   12.1570   -5.7490  -11.0490 C   0  0  0  0  0  0  0  0  0  0  0  0
   11.4680   -6.9150  -10.6880 C   0  0  0  0  0  0  0  0  0  0  0  0
   10.8010  -12.5700  -10.2750 C   0  0  0  0  0  0  0  0  0  0  0  0
    9.7180  -13.5350   -9.7330 C   0  0  0  0  0  0  0  0  0  0  0  0
    6.8780  -12.9220   -8.5060 C   0  0  0  0  0  0  0  0  0  0  0  0
    7.0850  -14.1850   -7.9100 C   0  0  0  0  0  0  0  0  0  0  0  0
    6.4070  -14.5680   -6.7480 C   0  0  0  0  0  0  0  0  0  0  0  0
    6.7400  -15.8330   -6.3460 O   0  0  0  0  0  0  0  0  0  0  0  0
    7.0660  -16.7940   -7.3430 C   0  0  0  0  0  0  0  0  0  0  0  0
    3.0527  -13.8497   -3.9837 H   0  0  0  0  0  0  0  0  0  0  0  0
    3.1377  -12.9547   -5.5388 H   0  0  0  0  0  0  0  0  0  0  0  0
    2.8876  -14.7335   -5.5388 H   0  0  0  0  0  0  0  0  0  0  0  0
    4.6008  -11.7151   -6.3045 H   0  0  0  0  0  0  0  0  0  0  0  0
    6.2744   -9.4480   -9.9031 H   0  0  0  0  0  0  0  0  0  0  0  0
    8.8466  -13.9771  -12.3117 H   0  0  0  0  0  0  0  0  0  0  0  0
    7.4194  -12.8759  -12.1740 H   0  0  0  0  0  0  0  0  0  0  0  0
   10.0264  -12.1455  -12.9947 H   0  0  0  0  0  0  0  0  0  0  0  0
    8.6937  -11.0306  -12.5153 H   0  0  0  0  0  0  0  0  0  0  0  0
    9.4400  -11.0840  -10.3000 H   0  0  0  0  0  0  0  0  0  0  0  0
    9.4950   -8.9910  -11.2300 H   0  0  0  0  0  0  0  0  0  0  0  0
   11.3718   -8.4415  -13.7337 H   0  0  0  0  0  0  0  0  0  0  0  0
   12.5974   -6.3690  -14.3716 H   0  0  0  0  0  0  0  0  0  0  0  0
   12.3783   -4.9881  -10.2861 H   0  0  0  0  0  0  0  0  0  0  0  0
   11.1519   -7.0624   -9.6447 H   0  0  0  0  0  0  0  0  0  0  0  0
   11.4522  -13.1072  -10.9803 H   0  0  0  0  0  0  0  0  0  0  0  0
   11.4057  -12.1878   -9.4394 H   0  0  0  0  0  0  0  0  0  0  0  0
   10.0275  -14.5705   -9.9378 H   0  0  0  0  0  0  0  0  0  0  0  0
    9.6137  -13.3632   -8.6515 H   0  0  0  0  0  0  0  0  0  0  0  0
    7.7972  -14.8853   -8.3709 H   0  0  0  0  0  0  0  0  0  0  0  0
    7.3835  -17.7300   -6.8602 H   0  0  0  0  0  0  0  0  0  0  0  0
    6.1827  -16.9861   -7.9699 H   0  0  0  0  0  0  0  0  0  0  0  0
    7.8838  -16.4090   -7.9699 H   0  0  0  0  0  0  0  0  0  0  0  0
  1  2  1  0
  2  3  1  0
  3  4  2  0
  4  5  1  0
  5  6  2  0
  6  7  1  0
  7  8  2  0
  8  9  1  0
  9 10  1  0
 10 11  1  0
 11 12  1  0
 12 13  1  0
 13 14  1  0
 14 15  2  0
 14 16  1  0
 16 17  1  0
 17 18  2  0
 18 19  1  0
 19 20  2  0
 20 21  1  0
 21 22  3  0
 20 23  1  0
 23 24  2  0
 13 25  1  0
 25 26  1  0
  9 27  2  0
 27 28  1  0
 28 29  2  0
 29 30  1  0
 30 31  1  0
 29  3  1  0
 27  5  1  0
 26 10  1  0
 24 17  1  0
  1 32  1  0
  1 33  1  0
  1 34  1  0
  4 35  1  0
  7 36  1  0
 11 37  1  0
 11 38  1  0
 12 39  1  0
 12 40  1  0
 13 41  1  0
 16 42  1  0
 18 43  1  0
 19 44  1  0
 23 45  1  0
 24 46  1  0
 25 47  1  0
 25 48  1  0
 26 49  1  0
 26 50  1  0
 28 51  1  0
 31 52  1  0
 31 53  1  0
 31 54  1  0
M  CHG  1  13   1
M  END
>  <meeko>  (1) 
{"is_sidechain": [false], "free_energy": -7.911, "intermolecular_energy": -10.223, "internal_energy": -0.345}

$$$$
LIB_SOTRSERIYXCWEZ__M_PUB_ALL__e8__s20260927
     RDKit          3D

 54 57  0  0  0  0  0  0  0  0999 V2000
    9.2270  -17.4640   -9.7570 C   0  0  0  0  0  0  0  0  0  0  0  0
    7.8530  -17.1080   -9.6570 O   0  0  0  0  0  0  0  0  0  0  0  0
    7.4360  -16.4020   -8.5630 C   0  0  0  0  0  0  0  0  0  0  0  0
    6.9390  -17.0100   -7.3980 C   0  0  0  0  0  0  0  0  0  0  0  0
    6.4770  -16.2790   -6.3090 C   0  0  0  0  0  0  0  0  0  0  0  0
    6.0240  -16.9300   -5.2310 N   0  0  0  0  0  0  0  0  0  0  0  0
    5.5870  -16.1960   -4.2060 C   0  0  0  0  0  0  0  0  0  0  0  0
    5.5100  -14.8530   -4.1600 N   0  0  0  0  0  0  0  0  0  0  0  0
    6.0040  -14.2110   -5.2470 C   0  0  0  0  0  0  0  0  0  0  0  0
    5.9460  -12.8140   -5.2190 N   0  0  0  0  0  0  0  0  0  0  0  0
    4.8070  -12.2260   -5.9450 C   0  0  0  0  0  0  0  0  0  0  0  0
    3.5170  -12.2670   -5.0840 C   0  0  0  0  0  0  0  0  0  0  0  0
    3.8490  -12.6360   -3.6580 N   0  0  0  0  0  0  0  0  0  0  0  0
    2.6960  -12.6140   -2.7980 C   0  0  0  0  0  0  0  0  0  0  0  0
    1.8840  -13.4800   -3.0540 O   0  0  0  0  0  0  0  0  0  0  0  0
    2.6750  -11.6540   -1.8290 N   0  0  0  0  0  0  0  0  0  0  0  0
    1.6520  -11.4400   -0.8790 C   0  0  0  0  0  0  0  0  0  0  0  0
    0.8380  -10.3120   -1.0610 C   0  0  0  0  0  0  0  0  0  0  0  0
   -0.1990  -10.0270   -0.1660 C   0  0  0  0  0  0  0  0  0  0  0  0
   -0.4370  -10.8670    0.9240 C   0  0  0  0  0  0  0  0  0  0  0  0
   -1.4980  -10.5770    1.8440 C   0  0  0  0  0  0  0  0  0  0  0  0
   -2.3580  -10.3390    2.5850 N   0  0  0  0  0  0  0  0  0  0  0  0
    0.3710  -11.9900    1.1100 C   0  0  0  0  0  0  0  0  0  0  0  0
    1.4090  -12.2760    0.2130 C   0  0  0  0  0  0  0  0  0  0  0  0
    5.0100  -11.8460   -3.1100 C   0  0  0  0  0  0  0  0  0  0  0  0
    6.2800  -12.1650   -3.9360 C   0  0  0  0  0  0  0  0  0  0  0  0
    6.4990  -14.8870   -6.3770 C   0  0  0  0  0  0  0  0  0  0  0  0
    7.0110  -14.2610   -7.5340 C   0  0  0  0  0  0  0  0  0  0  0  0
    7.4850  -15.0030   -8.6210 C   0  0  0  0  0  0  0  0  0  0  0  0
    7.9230  -14.2060   -9.6430 O   0  0  0  0  0  0  0  0  0  0  0  0
    9.1930  -13.5790   -9.5120 C   0  0  0  0  0  0  0  0  0  0  0  0
    9.6516  -17.5740   -8.7482 H   0  0  0  0  0  0  0  0  0  0  0  0
    9.3205  -18.4160  -10.3000 H   0  0  0  0  0  0  0  0  0  0  0  0
    9.7711  -16.6772  -10.3000 H   0  0  0  0  0  0  0  0  0  0  0  0
    6.9143  -18.1085   -7.3452 H   0  0  0  0  0  0  0  0  0  0  0  0
    5.2571  -16.7424   -3.3101 H   0  0  0  0  0  0  0  0  0  0  0  0
    5.0403  -11.1802   -6.1936 H   0  0  0  0  0  0  0  0  0  0  0  0
    4.6356  -12.8111   -6.8606 H   0  0  0  0  0  0  0  0  0  0  0  0
    3.0384  -11.2767   -5.1003 H   0  0  0  0  0  0  0  0  0  0  0  0
    2.8342  -13.0230   -5.4991 H   0  0  0  0  0  0  0  0  0  0  0  0
    4.2090  -13.5990   -3.6980 H   0  0  0  0  0  0  0  0  0  0  0  0
    3.4610  -11.0220   -1.7580 H   0  0  0  0  0  0  0  0  0  0  0  0
    1.0170   -9.6443   -1.9167 H   0  0  0  0  0  0  0  0  0  0  0  0
   -0.8287   -9.1386   -0.3214 H   0  0  0  0  0  0  0  0  0  0  0  0
    0.1916  -12.6555    1.9672 H   0  0  0  0  0  0  0  0  0  0  0  0
    2.0369  -13.1654    0.3701 H   0  0  0  0  0  0  0  0  0  0  0  0
    4.7878  -10.7708   -3.1779 H   0  0  0  0  0  0  0  0  0  0  0  0
    5.1768  -12.1176   -2.0572 H   0  0  0  0  0  0  0  0  0  0  0  0
    6.8179  -11.2274   -4.1398 H   0  0  0  0  0  0  0  0  0  0  0  0
    6.9043  -12.8578   -3.3527 H   0  0  0  0  0  0  0  0  0  0  0  0
    7.0379  -13.1624   -7.5820 H   0  0  0  0  0  0  0  0  0  0  0  0
    9.4347  -13.4597   -8.4455 H   0  0  0  0  0  0  0  0  0  0  0  0
    9.9608  -14.2016   -9.9946 H   0  0  0  0  0  0  0  0  0  0  0  0
    9.1656  -12.5909   -9.9946 H   0  0  0  0  0  0  0  0  0  0  0  0
  1  2  1  0
  2  3  1  0
  3  4  2  0
  4  5  1  0
  5  6  2  0
  6  7  1  0
  7  8  2  0
  8  9  1  0
  9 10  1  0
 10 11  1  0
 11 12  1  0
 12 13  1  0
 13 14  1  0
 14 15  2  0
 14 16  1  0
 16 17  1  0
 17 18  2  0
 18 19  1  0
 19 20  2  0
 20 21  1  0
 21 22  3  0
 20 23  1  0
 23 24  2  0
 13 25  1  0
 25 26  1  0
  9 27  2  0
 27 28  1  0
 28 29  2  0
 29 30  1  0
 30 31  1  0
 29  3  1  0
 27  5  1  0
 26 10  1  0
 24 17  1  0
  1 32  1  0
  1 33  1  0
  1 34  1  0
  4 35  1  0
  7 36  1  0
 11 37  1  0
 11 38  1  0
 12 39  1  0
 12 40  1  0
 13 41  1  0
 16 42  1  0
 18 43  1  0
 19 44  1  0
 23 45  1  0
 24 46  1  0
 25 47  1  0
 25 48  1  0
 26 49  1  0
 26 50  1  0
 28 51  1  0
 31 52  1  0
 31 53  1  0
 31 54  1  0
M  CHG  1  13   1
M  END
>  <meeko>  (2) 
{"is_sidechain": [false], "free_energy": -7.49, "intermolecular_energy": -9.388, "internal_energy": -0.636}

$$$$
LIB_SOTRSERIYXCWEZ__M_PUB_ALL__e8__s20260927
     RDKit          3D

 54 57  0  0  0  0  0  0  0  0999 V2000
   -5.3260  -13.3710    3.1470 C   0  0  0  0  0  0  0  0  0  0  0  0
   -4.9980  -12.6950    1.9390 O   0  0  0  0  0  0  0  0  0  0  0  0
   -3.7720  -12.9150    1.3750 C   0  0  0  0  0  0  0  0  0  0  0  0
   -3.4940  -14.0110    0.5420 C   0  0  0  0  0  0  0  0  0  0  0  0
   -2.2300  -14.2480    0.0100 C   0  0  0  0  0  0  0  0  0  0  0  0
   -2.0440  -15.3110   -0.7800 N   0  0  0  0  0  0  0  0  0  0  0  0
   -0.8190  -15.5070   -1.2710 C   0  0  0  0  0  0  0  0  0  0  0  0
    0.2740  -14.7650   -1.0140 N   0  0  0  0  0  0  0  0  0  0  0  0
    0.0580  -13.6740   -0.2390 C   0  0  0  0  0  0  0  0  0  0  0  0
    1.1760  -12.8780    0.0350 N   0  0  0  0  0  0  0  0  0  0  0  0
    2.4650  -13.5900    0.0050 C   0  0  0  0  0  0  0  0  0  0  0  0
    2.9760  -13.7550   -1.4510 C   0  0  0  0  0  0  0  0  0  0  0  0
    2.1580  -12.9050   -2.3940 N   0  0  0  0  0  0  0  0  0  0  0  0
    2.6380  -12.9630   -3.7490 C   0  0  0  0  0  0  0  0  0  0  0  0
    1.7510  -12.9940   -4.5770 O   0  0  0  0  0  0  0  0  0  0  0  0
    3.9920  -12.9670   -3.9170 N   0  0  0  0  0  0  0  0  0  0  0  0
    4.6870  -13.0230   -5.1460 C   0  0  0  0  0  0  0  0  0  0  0  0
    4.4920  -11.9600   -6.0390 C   0  0  0  0  0  0  0  0  0  0  0  0
    5.1420  -11.9380   -7.2780 C   0  0  0  0  0  0  0  0  0  0  0  0
    5.9990  -12.9790   -7.6410 C   0  0  0  0  0  0  0  0  0  0  0  0
    6.6660  -12.9600   -8.9090 C   0  0  0  0  0  0  0  0  0  0  0  0
    7.2040  -12.9410   -9.9360 N   0  0  0  0  0  0  0  0  0  0  0  0
    6.1960  -14.0410   -6.7550 C   0  0  0  0  0  0  0  0  0  0  0  0
    5.5440  -14.0630   -5.5140 C   0  0  0  0  0  0  0  0  0  0  0  0
    1.9730  -11.4960   -1.8920 C   0  0  0  0  0  0  0  0  0  0  0  0
    1.1850  -11.5270   -0.5600 C   0  0  0  0  0  0  0  0  0  0  0  0
   -1.1950  -13.3670    0.3210 C   0  0  0  0  0  0  0  0  0  0  0  0
   -1.4640  -12.2510    1.1430 C   0  0  0  0  0  0  0  0  0  0  0  0
   -2.7390  -12.0140    1.6650 C   0  0  0  0  0  0  0  0  0  0  0  0
   -2.7800  -10.8900    2.4450 O   0  0  0  0  0  0  0  0  0  0  0  0
   -2.1760   -9.7020    1.9480 C   0  0  0  0  0  0  0  0  0  0  0  0
   -5.0261  -12.7529    4.0061 H   0  0  0  0  0  0  0  0  0  0  0  0
   -6.4108  -13.5493    3.1845 H   0  0  0  0  0  0  0  0  0  0  0  0
   -4.7947  -14.3335    3.1845 H   0  0  0  0  0  0  0  0  0  0  0  0
   -4.3080  -14.7102    0.3003 H   0  0  0  0  0  0  0  0  0  0  0  0
   -0.6895  -16.3598   -1.9537 H   0  0  0  0  0  0  0  0  0  0  0  0
    3.2054  -13.0179    0.5833 H   0  0  0  0  0  0  0  0  0  0  0  0
    2.3233  -14.5895    0.4418 H   0  0  0  0  0  0  0  0  0  0  0  0
    4.0296  -13.4433   -1.5031 H   0  0  0  0  0  0  0  0  0  0  0  0
    2.8797  -14.8103   -1.7462 H   0  0  0  0  0  0  0  0  0  0  0  0
    1.2070  -13.2980   -2.3680 H   0  0  0  0  0  0  0  0  0  0  0  0
    4.5810  -12.9190   -3.0970 H   0  0  0  0  0  0  0  0  0  0  0  0
    3.8204  -11.1338   -5.7626 H   0  0  0  0  0  0  0  0  0  0  0  0
    4.9773  -11.0977   -7.9685 H   0  0  0  0  0  0  0  0  0  0  0  0
    6.8679  -14.8663   -7.0332 H   0  0  0  0  0  0  0  0  0  0  0  0
    5.7084  -14.9049   -4.8254 H   0  0  0  0  0  0  0  0  0  0  0  0
    2.9569  -11.0328   -1.7262 H   0  0  0  0  0  0  0  0  0  0  0  0
    1.4149  -10.9097   -2.6368 H   0  0  0  0  0  0  0  0  0  0  0  0
    1.6538  -10.8281    0.1484 H   0  0  0  0  0  0  0  0  0  0  0  0
    0.1449  -11.2362   -0.7688 H   0  0  0  0  0  0  0  0  0  0  0  0
   -0.6496  -11.5502    1.3787 H   0  0  0  0  0  0  0  0  0  0  0  0
   -1.8561   -9.0727    2.7916 H   0  0  0  0  0  0  0  0  0  0  0  0
   -1.3018   -9.9643    1.3340 H   0  0  0  0  0  0  0  0  0  0  0  0
   -2.9030   -9.1502    1.3340 H   0  0  0  0  0  0  0  0  0  0  0  0
  1  2  1  0
  2  3  1  0
  3  4  2  0
  4  5  1  0
  5  6  2  0
  6  7  1  0
  7  8  2  0
  8  9  1  0
  9 10  1  0
 10 11  1  0
 11 12  1  0
 12 13  1  0
 13 14  1  0
 14 15  2  0
 14 16  1  0
 16 17  1  0
 17 18  2  0
 18 19  1  0
 19 20  2  0
 20 21  1  0
 21 22  3  0
 20 23  1  0
 23 24  2  0
 13 25  1  0
 25 26  1  0
  9 27  2  0
 27 28  1  0
 28 29  2  0
 29 30  1  0
 30 31  1  0
 29  3  1  0
 27  5  1  0
 26 10  1  0
 24 17  1  0
  1 32  1  0
  1 33  1  0
  1 34  1  0
  4 35  1  0
  7 36  1  0
 11 37  1  0
 11 38  1  0
 12 39  1  0
 12 40  1  0
 13 41  1  0
 16 42  1  0
 18 43  1  0
 19 44  1  0
 23 45  1  0
 24 46  1  0
 25 47  1  0
 25 48  1  0
 26 49  1  0
 26 50  1  0
 28 51  1  0
 31 52  1  0
 31 53  1  0
 31 54  1  0
M  CHG  1  13   1
M  END
>  <meeko>  (3) 
{"is_sidechain": [false], "free_energy": -7.475, "intermolecular_energy": -9.765, "internal_energy": -0.24}

$$$$
LIB_SOTRSERIYXCWEZ__M_PUB_ALL__e8__s20260927
     RDKit          3D

 54 57  0  0  0  0  0  0  0  0999 V2000
    0.7340   -9.5700   -1.4380 C   0  0  0  0  0  0  0  0  0  0  0  0
    0.4370   -9.7980   -0.0660 O   0  0  0  0  0  0  0  0  0  0  0  0
   -0.2610  -10.9230    0.2760 C   0  0  0  0  0  0  0  0  0  0  0  0
   -1.6640  -10.9730    0.3280 C   0  0  0  0  0  0  0  0  0  0  0  0
   -2.3600  -12.1120    0.7200 C   0  0  0  0  0  0  0  0  0  0  0  0
   -3.6980  -12.0840    0.7390 N   0  0  0  0  0  0  0  0  0  0  0  0
   -4.3310  -13.1940    1.1220 C   0  0  0  0  0  0  0  0  0  0  0  0
   -3.7590  -14.3380    1.5400 N   0  0  0  0  0  0  0  0  0  0  0  0
   -2.4050  -14.3580    1.4820 C   0  0  0  0  0  0  0  0  0  0  0  0
   -1.7860  -15.5400    1.9010 N   0  0  0  0  0  0  0  0  0  0  0  0
   -1.1140  -15.4580    3.2090 C   0  0  0  0  0  0  0  0  0  0  0  0
   -2.1330  -15.6170    4.3690 C   0  0  0  0  0  0  0  0  0  0  0  0
   -3.4660  -16.0850    3.8360 N   0  0  0  0  0  0  0  0  0  0  0  0
   -4.4270  -16.3210    4.8790 C   0  0  0  0  0  0  0  0  0  0  0  0
   -4.0690  -17.1510    5.6890 O   0  0  0  0  0  0  0  0  0  0  0  0
   -5.5790  -15.5930    4.8240 N   0  0  0  0  0  0  0  0  0  0  0  0
   -6.6600  -15.6580    5.7310 C   0  0  0  0  0  0  0  0  0  0  0  0
   -7.8420  -16.2600    5.2740 C   0  0  0  0  0  0  0  0  0  0  0  0
   -8.9590  -16.3660    6.1090 C   0  0  0  0  0  0  0  0  0  0  0  0
   -8.9120  -15.8720    7.4140 C   0  0  0  0  0  0  0  0  0  0  0  0
  -10.0560  -15.9780    8.2720 C   0  0  0  0  0  0  0  0  0  0  0  0
  -10.9830  -16.0660    8.9620 N   0  0  0  0  0  0  0  0  0  0  0  0
   -7.7380  -15.2710    7.8740 C   0  0  0  0  0  0  0  0  0  0  0  0
   -6.6180  -15.1650    7.0380 C   0  0  0  0  0  0  0  0  0  0  0  0
   -3.3340  -17.2430    2.8810 C   0  0  0  0  0  0  0  0  0  0  0  0
   -2.5180  -16.7960    1.6430 C   0  0  0  0  0  0  0  0  0  0  0  0
   -1.6380  -13.2480    1.0830 C   0  0  0  0  0  0  0  0  0  0  0  0
   -0.2290  -13.2190    1.0190 C   0  0  0  0  0  0  0  0  0  0  0  0
    0.4640  -12.0740    0.6130 C   0  0  0  0  0  0  0  0  0  0  0  0
    1.8210  -12.2530    0.6350 O   0  0  0  0  0  0  0  0  0  0  0  0
    2.4450  -12.8160   -0.5130 C   0  0  0  0  0  0  0  0  0  0  0  0
    1.6042   -8.9020   -1.5187 H   0  0  0  0  0  0  0  0  0  0  0  0
    0.9607  -10.5283   -1.9283 H   0  0  0  0  0  0  0  0  0  0  0  0
   -0.1331   -9.1034   -1.9283 H   0  0  0  0  0  0  0  0  0  0  0  0
   -2.2351  -10.0757    0.0475 H   0  0  0  0  0  0  0  0  0  0  0  0
   -5.4304  -13.1719    1.0932 H   0  0  0  0  0  0  0  0  0  0  0  0
   -0.3625  -16.2583    3.2781 H   0  0  0  0  0  0  0  0  0  0  0  0
   -0.6354  -14.4714    3.2958 H   0  0  0  0  0  0  0  0  0  0  0  0
   -1.7507  -16.3555    5.0890 H   0  0  0  0  0  0  0  0  0  0  0  0
   -2.2673  -14.6433    4.8629 H   0  0  0  0  0  0  0  0  0  0  0  0
   -3.8110  -15.3190    3.2410 H   0  0  0  0  0  0  0  0  0  0  0  0
   -5.6940  -14.9270    4.0720 H   0  0  0  0  0  0  0  0  0  0  0  0
   -7.8908  -16.6529    4.2477 H   0  0  0  0  0  0  0  0  0  0  0  0
   -9.8785  -16.8406    5.7359 H   0  0  0  0  0  0  0  0  0  0  0  0
   -7.6921  -14.8778    8.9003 H   0  0  0  0  0  0  0  0  0  0  0  0
   -5.6994  -14.6904    7.4133 H   0  0  0  0  0  0  0  0  0  0  0  0
   -2.8163  -18.0746    3.3814 H   0  0  0  0  0  0  0  0  0  0  0  0
   -4.3337  -17.5739    2.5631 H   0  0  0  0  0  0  0  0  0  0  0  0
   -1.7951  -17.5848    1.3877 H   0  0  0  0  0  0  0  0  0  0  0  0
   -3.2184  -16.6225    0.8127 H   0  0  0  0  0  0  0  0  0  0  0  0
    0.3389  -14.1196    1.2954 H   0  0  0  0  0  0  0  0  0  0  0  0
    3.2271  -13.5217   -0.1962 H   0  0  0  0  0  0  0  0  0  0  0  0
    1.6935  -13.3477   -1.1152 H   0  0  0  0  0  0  0  0  0  0  0  0
    2.8968  -12.0140   -1.1152 H   0  0  0  0  0  0  0  0  0  0  0  0
  1  2  1  0
  2  3  1  0
  3  4  2  0
  4  5  1  0
  5  6  2  0
  6  7  1  0
  7  8  2  0
  8  9  1  0
  9 10  1  0
 10 11  1  0
 11 12  1  0
 12 13  1  0
 13 14  1  0
 14 15  2  0
 14 16  1  0
 16 17  1  0
 17 18  2  0
 18 19  1  0
 19 20  2  0
 20 21  1  0
 21 22  3  0
 20 23  1  0
 23 24  2  0
 13 25  1  0
 25 26  1  0
  9 27  2  0
 27 28  1  0
 28 29  2  0
 29 30  1  0
 30 31  1  0
 29  3  1  0
 27  5  1  0
 26 10  1  0
 24 17  1  0
  1 32  1  0
  1 33  1  0
  1 34  1  0
  4 35  1  0
  7 36  1  0
 11 37  1  0
 11 38  1  0
 12 39  1  0
 12 40  1  0
 13 41  1  0
 16 42  1  0
 18 43  1  0
 19 44  1  0
 23 45  1  0
 24 46  1  0
 25 47  1  0
 25 48  1  0
 26 49  1  0
 26 50  1  0
 28 51  1  0
 31 52  1  0
 31 53  1  0
 31 54  1  0
M  CHG  1  13   1
M  END
>  <meeko>  (4) 
{"is_sidechain": [false], "free_energy": -7.456, "intermolecular_energy": -9.274, "internal_energy": -0.706}

$$$$
LIB_SOTRSERIYXCWEZ__M_PUB_ALL__e8__s20260927
     RDKit          3D

 54 57  0  0  0  0  0  0  0  0999 V2000
   13.5610  -10.6760   -0.0550 C   0  0  0  0  0  0  0  0  0  0  0  0
   12.9990  -11.9820   -0.0920 O   0  0  0  0  0  0  0  0  0  0  0  0
   11.6660  -12.1150   -0.3690 C   0  0  0  0  0  0  0  0  0  0  0  0
   10.6670  -12.0760    0.6180 C   0  0  0  0  0  0  0  0  0  0  0  0
    9.3180  -12.2570    0.3270 C   0  0  0  0  0  0  0  0  0  0  0  0
    8.4240  -12.2010    1.3210 N   0  0  0  0  0  0  0  0  0  0  0  0
    7.1410  -12.3800    1.0050 C   0  0  0  0  0  0  0  0  0  0  0  0
    6.6490  -12.6610   -0.2150 N   0  0  0  0  0  0  0  0  0  0  0  0
    7.5650  -12.6810   -1.2130 C   0  0  0  0  0  0  0  0  0  0  0  0
    7.0780  -12.9600   -2.4950 N   0  0  0  0  0  0  0  0  0  0  0  0
    6.2890  -14.1990   -2.6020 C   0  0  0  0  0  0  0  0  0  0  0  0
    4.8280  -13.9710   -2.1290 C   0  0  0  0  0  0  0  0  0  0  0  0
    4.5560  -12.4950   -1.9600 N   0  0  0  0  0  0  0  0  0  0  0  0
    3.1920  -12.2220   -1.5950 C   0  0  0  0  0  0  0  0  0  0  0  0
    2.4790  -11.9610   -2.5420 O   0  0  0  0  0  0  0  0  0  0  0  0
    2.8880  -12.3000   -0.2670 N   0  0  0  0  0  0  0  0  0  0  0  0
    1.6240  -12.0700    0.3210 C   0  0  0  0  0  0  0  0  0  0  0  0
    0.8250  -13.1930    0.5750 C   0  0  0  0  0  0  0  0  0  0  0  0
   -0.4400  -13.0540    1.1570 C   0  0  0  0  0  0  0  0  0  0  0  0
   -0.9240  -11.7880    1.4930 C   0  0  0  0  0  0  0  0  0  0  0  0
   -2.2200  -11.6420    2.0890 C   0  0  0  0  0  0  0  0  0  0  0  0
   -3.2680  -11.5280    2.5700 N   0  0  0  0  0  0  0  0  0  0  0  0
   -0.1320  -10.6660    1.2420 C   0  0  0  0  0  0  0  0  0  0  0  0
    1.1360  -10.8060    0.6600 C   0  0  0  0  0  0  0  0  0  0  0  0
    5.0270  -11.6800   -3.1370 C   0  0  0  0  0  0  0  0  0  0  0  0
    6.5640  -11.8130   -3.2690 C   0  0  0  0  0  0  0  0  0  0  0  0
    8.9420  -12.4930   -0.9940 C   0  0  0  0  0  0  0  0  0  0  0  0
    9.9330  -12.5180   -1.9990 C   0  0  0  0  0  0  0  0  0  0  0  0
   11.2860  -12.3240   -1.7010 C   0  0  0  0  0  0  0  0  0  0  0  0
   12.0780  -12.4010   -2.8140 O   0  0  0  0  0  0  0  0  0  0  0  0
   11.6300  -13.1910   -3.9080 C   0  0  0  0  0  0  0  0  0  0  0  0
   13.6952  -10.3641    0.9913 H   0  0  0  0  0  0  0  0  0  0  0  0
   14.5362  -10.6819   -0.5638 H   0  0  0  0  0  0  0  0  0  0  0  0
   12.8862   -9.9719   -0.5638 H   0  0  0  0  0  0  0  0  0  0  0  0
   10.9626  -11.8953    1.6620 H   0  0  0  0  0  0  0  0  0  0  0  0
    6.4121  -12.2888    1.8238 H   0  0  0  0  0  0  0  0  0  0  0  0
    6.2799  -14.5302   -3.6509 H   0  0  0  0  0  0  0  0  0  0  0  0
    6.7497  -14.9643   -1.9601 H   0  0  0  0  0  0  0  0  0  0  0  0
    4.1357  -14.3842   -2.8773 H   0  0  0  0  0  0  0  0  0  0  0  0
    4.6823  -14.4747   -1.1620 H   0  0  0  0  0  0  0  0  0  0  0  0
    5.1680  -12.1860   -1.1920 H   0  0  0  0  0  0  0  0  0  0  0  0
    3.6210  -12.5520    0.3820 H   0  0  0  0  0  0  0  0  0  0  0  0
    1.1964  -14.1950    0.3139 H   0  0  0  0  0  0  0  0  0  0  0  0
   -1.0552  -13.9451    1.3505 H   0  0  0  0  0  0  0  0  0  0  0  0
   -0.5055   -9.6647    1.5027 H   0  0  0  0  0  0  0  0  0  0  0  0
    1.7507   -9.9140    0.4691 H   0  0  0  0  0  0  0  0  0  0  0  0
    4.5461  -12.0484   -4.0551 H   0  0  0  0  0  0  0  0  0  0  0  0
    4.7602  -10.6238   -2.9844 H   0  0  0  0  0  0  0  0  0  0  0  0
    6.8205  -11.9540   -4.3293 H   0  0  0  0  0  0  0  0  0  0  0  0
    7.0243  -10.8960   -2.8724 H   0  0  0  0  0  0  0  0  0  0  0  0
    9.6338  -12.6945   -3.0427 H   0  0  0  0  0  0  0  0  0  0  0  0
   11.1208  -14.0888   -3.5277 H   0  0  0  0  0  0  0  0  0  0  0  0
   10.9300  -12.6046   -4.5213 H   0  0  0  0  0  0  0  0  0  0  0  0
   12.4925  -13.4907   -4.5213 H   0  0  0  0  0  0  0  0  0  0  0  0
  1  2  1  0
  2  3  1  0
  3  4  2  0
  4  5  1  0
  5  6  2  0
  6  7  1  0
  7  8  2  0
  8  9  1  0
  9 10  1  0
 10 11  1  0
 11 12  1  0
 12 13  1  0
 13 14  1  0
 14 15  2  0
 14 16  1  0
 16 17  1  0
 17 18  2  0
 18 19  1  0
 19 20  2  0
 20 21  1  0
 21 22  3  0
 20 23  1  0
 23 24  2  0
 13 25  1  0
 25 26  1  0
  9 27  2  0
 27 28  1  0
 28 29  2  0
 29 30  1  0
 30 31  1  0
 29  3  1  0
 27  5  1  0
 26 10  1  0
 24 17  1  0
  1 32  1  0
  1 33  1  0
  1 34  1  0
  4 35  1  0
  7 36  1  0
 11 37  1  0
 11 38  1  0
 12 39  1  0
 12 40  1  0
 13 41  1  0
 16 42  1  0
 18 43  1  0
 19 44  1  0
 23 45  1  0
 24 46  1  0
 25 47  1  0
 25 48  1  0
 26 49  1  0
 26 50  1  0
 28 51  1  0
 31 52  1  0
 31 53  1  0
 31 54  1  0
M  CHG  1  13   1
M  END
>  <meeko>  (5) 
{"is_sidechain": [false], "free_energy": -7.333, "intermolecular_energy": -9.396, "internal_energy": -0.425}

$$$$
LIB_SOTRSERIYXCWEZ__M_PUB_ALL__e8__s20260927
     RDKit          3D

 54 57  0  0  0  0  0  0  0  0999 V2000
   -4.5280  -11.2340   -0.5810 C   0  0  0  0  0  0  0  0  0  0  0  0
   -3.9980  -11.9650    0.5180 O   0  0  0  0  0  0  0  0  0  0  0  0
   -2.6920  -12.3670    0.4700 C   0  0  0  0  0  0  0  0  0  0  0  0
   -1.6090  -11.4800    0.5900 C   0  0  0  0  0  0  0  0  0  0  0  0
   -0.2850  -11.8970    0.4960 C   0  0  0  0  0  0  0  0  0  0  0  0
    0.6930  -10.9930    0.6270 N   0  0  0  0  0  0  0  0  0  0  0  0
    1.9510  -11.4290    0.5300 C   0  0  0  0  0  0  0  0  0  0  0  0
    2.3430  -12.6880    0.2640 N   0  0  0  0  0  0  0  0  0  0  0  0
    1.3390  -13.5940    0.1690 C   0  0  0  0  0  0  0  0  0  0  0  0
    1.7210  -14.9140   -0.0950 N   0  0  0  0  0  0  0  0  0  0  0  0
    1.2610  -15.4450   -1.3900 C   0  0  0  0  0  0  0  0  0  0  0  0
    2.1870  -14.9780   -2.5440 C   0  0  0  0  0  0  0  0  0  0  0  0
    3.4430  -14.3510   -1.9880 N   0  0  0  0  0  0  0  0  0  0  0  0
    4.3730  -13.9680   -3.0160 C   0  0  0  0  0  0  0  0  0  0  0  0
    5.3280  -13.3450   -2.5990 O   0  0  0  0  0  0  0  0  0  0  0  0
    4.0680  -14.3530   -4.2890 N   0  0  0  0  0  0  0  0  0  0  0  0
    4.8250  -14.0880   -5.4520 C   0  0  0  0  0  0  0  0  0  0  0  0
    4.4550  -12.9710   -6.2140 C   0  0  0  0  0  0  0  0  0  0  0  0
    5.1520  -12.6380   -7.3800 C   0  0  0  0  0  0  0  0  0  0  0  0
    6.2310  -13.4180   -7.8010 C   0  0  0  0  0  0  0  0  0  0  0  0
    6.9480  -13.0800   -8.9960 C   0  0  0  0  0  0  0  0  0  0  0  0
    7.5240  -12.8030   -9.9630 N   0  0  0  0  0  0  0  0  0  0  0  0
    6.6030  -14.5320   -7.0470 C   0  0  0  0  0  0  0  0  0  0  0  0
    5.9050  -14.8660   -5.8780 C   0  0  0  0  0  0  0  0  0  0  0  0
    4.0740  -15.1820   -0.9010 C   0  0  0  0  0  0  0  0  0  0  0  0
    3.0930  -15.2940    0.2920 C   0  0  0  0  0  0  0  0  0  0  0  0
   -0.0200  -13.2460    0.2670 C   0  0  0  0  0  0  0  0  0  0  0  0
   -1.0980  -14.1520    0.1610 C   0  0  0  0  0  0  0  0  0  0  0  0
   -2.4260  -13.7270    0.2680 C   0  0  0  0  0  0  0  0  0  0  0  0
   -3.3140  -14.7590    0.1230 O   0  0  0  0  0  0  0  0  0  0  0  0
   -2.8190  -16.0900    0.2020 C   0  0  0  0  0  0  0  0  0  0  0  0
   -5.1350  -10.3968   -0.2060 H   0  0  0  0  0  0  0  0  0  0  0  0
   -3.7023  -10.8427   -1.1935 H   0  0  0  0  0  0  0  0  0  0  0  0
   -5.1566  -11.8971   -1.1935 H   0  0  0  0  0  0  0  0  0  0  0  0
   -1.8160  -10.4140    0.7652 H   0  0  0  0  0  0  0  0  0  0  0  0
    2.7463  -10.6846    0.6828 H   0  0  0  0  0  0  0  0  0  0  0  0
    1.2637  -16.5442   -1.3493 H   0  0  0  0  0  0  0  0  0  0  0  0
    0.2454  -15.0685   -1.5819 H   0  0  0  0  0  0  0  0  0  0  0  0
    2.4583  -15.8447   -3.1647 H   0  0  0  0  0  0  0  0  0  0  0  0
    1.6533  -14.2317   -3.1508 H   0  0  0  0  0  0  0  0  0  0  0  0
    3.1340  -13.5020   -1.4950 H   0  0  0  0  0  0  0  0  0  0  0  0
    3.2240  -14.8890   -4.4430 H   0  0  0  0  0  0  0  0  0  0  0  0
    3.6069  -12.3493   -5.8912 H   0  0  0  0  0  0  0  0  0  0  0  0
    4.8491  -11.7586   -7.9674 H   0  0  0  0  0  0  0  0  0  0  0  0
    7.4506  -15.1529   -7.3726 H   0  0  0  0  0  0  0  0  0  0  0  0
    6.2093  -15.7460   -5.2923 H   0  0  0  0  0  0  0  0  0  0  0  0
    4.2968  -16.1868   -1.2891 H   0  0  0  0  0  0  0  0  0  0  0  0
    5.0073  -14.7050   -0.5672 H   0  0  0  0  0  0  0  0  0  0  0  0
    3.0872  -16.3331    0.6529 H   0  0  0  0  0  0  0  0  0  0  0  0
    3.4309  -14.6058    1.0808 H   0  0  0  0  0  0  0  0  0  0  0  0
   -0.8880  -15.2182   -0.0099 H   0  0  0  0  0  0  0  0  0  0  0  0
   -2.7115  -16.3791    1.2579 H   0  0  0  0  0  0  0  0  0  0  0  0
   -3.5232  -16.7732   -0.2954 H   0  0  0  0  0  0  0  0  0  0  0  0
   -1.8395  -16.1471   -0.2954 H   0  0  0  0  0  0  0  0  0  0  0  0
  1  2  1  0
  2  3  1  0
  3  4  2  0
  4  5  1  0
  5  6  2  0
  6  7  1  0
  7  8  2  0
  8  9  1  0
  9 10  1  0
 10 11  1  0
 11 12  1  0
 12 13  1  0
 13 14  1  0
 14 15  2  0
 14 16  1  0
 16 17  1  0
 17 18  2  0
 18 19  1  0
 19 20  2  0
 20 21  1  0
 21 22  3  0
 20 23  1  0
 23 24  2  0
 13 25  1  0
 25 26  1  0
  9 27  2  0
 27 28  1  0
 28 29  2  0
 29 30  1  0
 30 31  1  0
 29  3  1  0
 27  5  1  0
 26 10  1  0
 24 17  1  0
  1 32  1  0
  1 33  1  0
  1 34  1  0
  4 35  1  0
  7 36  1  0
 11 37  1  0
 11 38  1  0
 12 39  1  0
 12 40  1  0
 13 41  1  0
 16 42  1  0
 18 43  1  0
 19 44  1  0
 23 45  1  0
 24 46  1  0
 25 47  1  0
 25 48  1  0
 26 49  1  0
 26 50  1  0
 28 51  1  0
 31 52  1  0
 31 53  1  0
 31 54  1  0
M  CHG  1  13   1
M  END
>  <meeko>  (6) 
{"is_sidechain": [false], "free_energy": -7.292, "intermolecular_energy": -9.16, "internal_energy": -0.608}

$$$$
LIB_SOTRSERIYXCWEZ__M_PUB_ALL__e8__s20260927
     RDKit          3D

 54 57  0  0  0  0  0  0  0  0999 V2000
  -12.7500  -26.9000    9.5370 C   0  0  0  0  0  0  0  0  0  0  0  0
  -12.5550  -26.1590   10.7350 O   0  0  0  0  0  0  0  0  0  0  0  0
  -12.0020  -24.9110   10.6530 C   0  0  0  0  0  0  0  0  0  0  0  0
  -12.1080  -24.0960    9.5140 C   0  0  0  0  0  0  0  0  0  0  0  0
  -11.5030  -22.8460    9.4270 C   0  0  0  0  0  0  0  0  0  0  0  0
  -11.6540  -22.1250    8.3110 N   0  0  0  0  0  0  0  0  0  0  0  0
  -11.0590  -20.9320    8.2630 C   0  0  0  0  0  0  0  0  0  0  0  0
  -10.2730  -20.3910    9.2120 N   0  0  0  0  0  0  0  0  0  0  0  0
  -10.1600  -21.1220   10.3480 C   0  0  0  0  0  0  0  0  0  0  0  0
   -9.3580  -20.5760   11.3560 N   0  0  0  0  0  0  0  0  0  0  0  0
   -7.9450  -20.9930   11.3190 C   0  0  0  0  0  0  0  0  0  0  0  0
   -7.1480  -20.1640   10.2770 C   0  0  0  0  0  0  0  0  0  0  0  0
   -7.9680  -18.9880    9.8030 N   0  0  0  0  0  0  0  0  0  0  0  0
   -7.2470  -18.1420    8.8910 C   0  0  0  0  0  0  0  0  0  0  0  0
   -6.0580  -18.0790    9.1250 O   0  0  0  0  0  0  0  0  0  0  0  0
   -7.9770  -17.5450    7.9050 N   0  0  0  0  0  0  0  0  0  0  0  0
   -7.4880  -16.6750    6.9050 C   0  0  0  0  0  0  0  0  0  0  0  0
   -7.2330  -15.3490    7.2820 C   0  0  0  0  0  0  0  0  0  0  0  0
   -6.7470  -14.4220    6.3530 C   0  0  0  0  0  0  0  0  0  0  0  0
   -6.5070  -14.8090    5.0330 C   0  0  0  0  0  0  0  0  0  0  0  0
   -6.0100  -13.8620    4.0790 C   0  0  0  0  0  0  0  0  0  0  0  0
   -5.6070  -13.0930    3.3100 N   0  0  0  0  0  0  0  0  0  0  0  0
   -6.7590  -16.1290    4.6520 C   0  0  0  0  0  0  0  0  0  0  0  0
   -7.2460  -17.0580    5.5830 C   0  0  0  0  0  0  0  0  0  0  0  0
   -8.6030  -18.2280   10.9390 C   0  0  0  0  0  0  0  0  0  0  0  0
   -9.5890  -19.1570   11.6890 C   0  0  0  0  0  0  0  0  0  0  0  0
  -10.7550  -22.3860   10.5100 C   0  0  0  0  0  0  0  0  0  0  0  0
  -10.6530  -23.1870   11.6680 C   0  0  0  0  0  0  0  0  0  0  0  0
  -11.2740  -24.4370   11.7520 C   0  0  0  0  0  0  0  0  0  0  0  0
  -11.0390  -25.0540   12.9510 O   0  0  0  0  0  0  0  0  0  0  0  0
  -11.9190  -24.7780   14.0340 C   0  0  0  0  0  0  0  0  0  0  0  0
  -13.0226  -27.9360    9.7869 H   0  0  0  0  0  0  0  0  0  0  0  0
  -13.5577  -26.4400    8.9487 H   0  0  0  0  0  0  0  0  0  0  0  0
  -11.8205  -26.8972    8.9487 H   0  0  0  0  0  0  0  0  0  0  0  0
  -12.6927  -24.4605    8.6565 H   0  0  0  0  0  0  0  0  0  0  0  0
  -11.2276  -20.3306    7.3575 H   0  0  0  0  0  0  0  0  0  0  0  0
   -7.4998  -20.8441   12.3138 H   0  0  0  0  0  0  0  0  0  0  0  0
   -7.8999  -22.0538   11.0316 H   0  0  0  0  0  0  0  0  0  0  0  0
   -6.2201  -19.7963   10.7393 H   0  0  0  0  0  0  0  0  0  0  0  0
   -6.9119  -20.8055    9.4152 H   0  0  0  0  0  0  0  0  0  0  0  0
   -8.7720  -19.3950    9.3050 H   0  0  0  0  0  0  0  0  0  0  0  0
   -8.9690  -17.7320    7.8580 H   0  0  0  0  0  0  0  0  0  0  0  0
   -7.4170  -15.0337    8.3196 H   0  0  0  0  0  0  0  0  0  0  0  0
   -6.5534  -13.3847    6.6638 H   0  0  0  0  0  0  0  0  0  0  0  0
   -6.5741  -16.4423    3.6139 H   0  0  0  0  0  0  0  0  0  0  0  0
   -7.4387  -18.0949    5.2706 H   0  0  0  0  0  0  0  0  0  0  0  0
   -7.8219  -17.8844   11.6331 H   0  0  0  0  0  0  0  0  0  0  0  0
   -9.1465  -17.3580   10.5418 H   0  0  0  0  0  0  0  0  0  0  0  0
   -9.4565  -19.0183   12.7721 H   0  0  0  0  0  0  0  0  0  0  0  0
  -10.6117  -18.8934   11.3816 H   0  0  0  0  0  0  0  0  0  0  0  0
  -10.0706  -22.8187   12.5254 H   0  0  0  0  0  0  0  0  0  0  0  0
  -11.3924  -24.9432   14.9856 H   0  0  0  0  0  0  0  0  0  0  0  0
  -12.2537  -23.7317   13.9770 H   0  0  0  0  0  0  0  0  0  0  0  0
  -12.7913  -25.4457   13.9770 H   0  0  0  0  0  0  0  0  0  0  0  0
  1  2  1  0
  2  3  1  0
  3  4  2  0
  4  5  1  0
  5  6  2  0
  6  7  1  0
  7  8  2  0
  8  9  1  0
  9 10  1  0
 10 11  1  0
 11 12  1  0
 12 13  1  0
 13 14  1  0
 14 15  2  0
 14 16  1  0
 16 17  1  0
 17 18  2  0
 18 19  1  0
 19 20  2  0
 20 21  1  0
 21 22  3  0
 20 23  1  0
 23 24  2  0
 13 25  1  0
 25 26  1  0
  9 27  2  0
 27 28  1  0
 28 29  2  0
 29 30  1  0
 30 31  1  0
 29  3  1  0
 27  5  1  0
 26 10  1  0
 24 17  1  0
  1 32  1  0
  1 33  1  0
  1 34  1  0
  4 35  1  0
  7 36  1  0
 11 37  1  0
 11 38  1  0
 12 39  1  0
 12 40  1  0
 13 41  1  0
 16 42  1  0
 18 43  1  0
 19 44  1  0
 23 45  1  0
 24 46  1  0
 25 47  1  0
 25 48  1  0
 26 49  1  0
 26 50  1  0
 28 51  1  0
 31 52  1  0
 31 53  1  0
 31 54  1  0
M  CHG  1  13   1
M  END
>  <meeko>  (7) 
{"is_sidechain": [false], "free_energy": -7.279, "intermolecular_energy": -9.191, "internal_energy": -0.561}

$$$$
LIB_SOTRSERIYXCWEZ__M_PUB_ALL__e8__s20260927
     RDKit          3D

 54 57  0  0  0  0  0  0  0  0999 V2000
   13.4040  -15.6030   -3.1890 C   0  0  0  0  0  0  0  0  0  0  0  0
   13.0370  -14.2550   -2.9230 O   0  0  0  0  0  0  0  0  0  0  0  0
   11.8690  -14.0120   -2.2540 C   0  0  0  0  0  0  0  0  0  0  0  0
   10.9010  -15.0010   -2.0120 C   0  0  0  0  0  0  0  0  0  0  0  0
    9.6970  -14.7310   -1.3680 C   0  0  0  0  0  0  0  0  0  0  0  0
    8.8270  -15.7270   -1.1690 N   0  0  0  0  0  0  0  0  0  0  0  0
    7.6830  -15.4310   -0.5500 C   0  0  0  0  0  0  0  0  0  0  0  0
    7.2870  -14.2110   -0.1420 N   0  0  0  0  0  0  0  0  0  0  0  0
    8.1950  -13.2220   -0.3230 C   0  0  0  0  0  0  0  0  0  0  0  0
    7.8130  -11.9450    0.1030 N   0  0  0  0  0  0  0  0  0  0  0  0
    7.2730  -11.0740   -0.9550 C   0  0  0  0  0  0  0  0  0  0  0  0
    5.7810  -11.3960   -1.2330 C   0  0  0  0  0  0  0  0  0  0  0  0
    5.2310  -12.3060   -0.1610 N   0  0  0  0  0  0  0  0  0  0  0  0
    3.8290  -12.5760   -0.3300 C   0  0  0  0  0  0  0  0  0  0  0  0
    3.5890  -13.3470   -1.2360 O   0  0  0  0  0  0  0  0  0  0  0  0
    2.9790  -11.9510    0.5360 N   0  0  0  0  0  0  0  0  0  0  0  0
    1.5710  -12.0600    0.5580 C   0  0  0  0  0  0  0  0  0  0  0  0
    1.0310  -13.3520    0.6340 C   0  0  0  0  0  0  0  0  0  0  0  0
   -0.3540  -13.5490    0.6610 C   0  0  0  0  0  0  0  0  0  0  0  0
   -1.2200  -12.4550    0.6120 C   0  0  0  0  0  0  0  0  0  0  0  0
   -2.6400  -12.6530    0.6390 C   0  0  0  0  0  0  0  0  0  0  0  0
   -3.7870  -12.8180    0.6610 N   0  0  0  0  0  0  0  0  0  0  0  0
   -0.6880  -11.1660    0.5350 C   0  0  0  0  0  0  0  0  0  0  0  0
    0.6990  -10.9690    0.5090 C   0  0  0  0  0  0  0  0  0  0  0  0
    5.5810  -11.8420    1.2290 C   0  0  0  0  0  0  0  0  0  0  0  0
    7.1200  -11.8640    1.4040 C   0  0  0  0  0  0  0  0  0  0  0  0
    9.4370  -13.4260   -0.9530 C   0  0  0  0  0  0  0  0  0  0  0  0
   10.4070  -12.4250   -1.1740 C   0  0  0  0  0  0  0  0  0  0  0  0
   11.6200  -12.7060   -1.8110 C   0  0  0  0  0  0  0  0  0  0  0  0
   12.4100  -11.5960   -1.9380 O   0  0  0  0  0  0  0  0  0  0  0  0
   13.1250  -11.1440   -0.7940 C   0  0  0  0  0  0  0  0  0  0  0  0
   13.5496  -16.1377   -2.2388 H   0  0  0  0  0  0  0  0  0  0  0  0
   12.6065  -16.0929   -3.7670 H   0  0  0  0  0  0  0  0  0  0  0  0
   14.3397  -15.6210   -3.7670 H   0  0  0  0  0  0  0  0  0  0  0  0
   11.1027  -16.0299   -2.3448 H   0  0  0  0  0  0  0  0  0  0  0  0
    6.9952  -16.2667   -0.3536 H   0  0  0  0  0  0  0  0  0  0  0  0
    7.3613  -10.0247   -0.6370 H   0  0  0  0  0  0  0  0  0  0  0  0
    7.8465  -11.2467   -1.8776 H   0  0  0  0  0  0  0  0  0  0  0  0
    5.2041  -10.4595   -1.2447 H   0  0  0  0  0  0  0  0  0  0  0  0
    5.7002  -11.9016   -2.2066 H   0  0  0  0  0  0  0  0  0  0  0  0
    5.7480  -13.1910   -0.2580 H   0  0  0  0  0  0  0  0  0  0  0  0
    3.3700  -11.3490    1.2470 H   0  0  0  0  0  0  0  0  0  0  0  0
    1.7043  -14.2210    0.6729 H   0  0  0  0  0  0  0  0  0  0  0  0
   -0.7617  -14.5689    0.7210 H   0  0  0  0  0  0  0  0  0  0  0  0
   -1.3632  -10.2986    0.4944 H   0  0  0  0  0  0  0  0  0  0  0  0
    1.1045   -9.9482    0.4496 H   0  0  0  0  0  0  0  0  0  0  0  0
    5.2088  -10.8178    1.3791 H   0  0  0  0  0  0  0  0  0  0  0  0
    5.1165  -12.5109    1.9685 H   0  0  0  0  0  0  0  0  0  0  0  0
    7.4340  -10.9443    1.9192 H   0  0  0  0  0  0  0  0  0  0  0  0
    7.3870  -12.7542    1.9925 H   0  0  0  0  0  0  0  0  0  0  0  0
   10.2039  -11.3979   -0.8367 H   0  0  0  0  0  0  0  0  0  0  0  0
   12.6044  -11.4731    0.1174 H   0  0  0  0  0  0  0  0  0  0  0  0
   14.1416  -11.5639   -0.8075 H   0  0  0  0  0  0  0  0  0  0  0  0
   13.1818  -10.0455   -0.8075 H   0  0  0  0  0  0  0  0  0  0  0  0
  1  2  1  0
  2  3  1  0
  3  4  2  0
  4  5  1  0
  5  6  2  0
  6  7  1  0
  7  8  2  0
  8  9  1  0
  9 10  1  0
 10 11  1  0
 11 12  1  0
 12 13  1  0
 13 14  1  0
 14 15  2  0
 14 16  1  0
 16 17  1  0
 17 18  2  0
 18 19  1  0
 19 20  2  0
 20 21  1  0
 21 22  3  0
 20 23  1  0
 23 24  2  0
 13 25  1  0
 25 26  1  0
  9 27  2  0
 27 28  1  0
 28 29  2  0
 29 30  1  0
 30 31  1  0
 29  3  1  0
 27  5  1  0
 26 10  1  0
 24 17  1  0
  1 32  1  0
  1 33  1  0
  1 34  1  0
  4 35  1  0
  7 36  1  0
 11 37  1  0
 11 38  1  0
 12 39  1  0
 12 40  1  0
 13 41  1  0
 16 42  1  0
 18 43  1  0
 19 44  1  0
 23 45  1  0
 24 46  1  0
 25 47  1  0
 25 48  1  0
 26 49  1  0
 26 50  1  0
 28 51  1  0
 31 52  1  0
 31 53  1  0
 31 54  1  0
M  CHG  1  13   1
M  END
>  <meeko>  (8) 
{"is_sidechain": [false], "free_energy": -7.211, "intermolecular_energy": -9.257, "internal_energy": -0.406}

$$$$
LIB_SOTRSERIYXCWEZ__M_PUB_ALL__e8__s20260927
     RDKit          3D

 54 57  0  0  0  0  0  0  0  0999 V2000
   13.4060  -15.4380   -3.3820 C   0  0  0  0  0  0  0  0  0  0  0  0
   13.0770  -14.1240   -2.9510 O   0  0  0  0  0  0  0  0  0  0  0  0
   11.8940  -13.9250   -2.2960 C   0  0  0  0  0  0  0  0  0  0  0  0
   10.9540  -14.9450   -2.0760 C   0  0  0  0  0  0  0  0  0  0  0  0
    9.7340  -14.7190   -1.4460 C   0  0  0  0  0  0  0  0  0  0  0  0
    8.8930  -15.7440   -1.2680 N   0  0  0  0  0  0  0  0  0  0  0  0
    7.7320  -15.4900   -0.6610 C   0  0  0  0  0  0  0  0  0  0  0  0
    7.2930  -14.2880   -0.2460 N   0  0  0  0  0  0  0  0  0  0  0  0
    8.1730  -13.2690   -0.4050 C   0  0  0  0  0  0  0  0  0  0  0  0
    7.7460  -12.0100    0.0290 N   0  0  0  0  0  0  0  0  0  0  0  0
    7.2170  -11.1340   -1.0310 C   0  0  0  0  0  0  0  0  0  0  0  0
    5.7430  -11.4880   -1.3610 C   0  0  0  0  0  0  0  0  0  0  0  0
    5.1840  -12.4290   -0.3220 N   0  0  0  0  0  0  0  0  0  0  0  0
    3.7940  -12.7310   -0.5380 C   0  0  0  0  0  0  0  0  0  0  0  0
    3.2660  -12.0150   -1.3650 O   0  0  0  0  0  0  0  0  0  0  0  0
    3.2720  -13.7590    0.1900 N   0  0  0  0  0  0  0  0  0  0  0  0
    1.9400  -14.2280    0.1480 C   0  0  0  0  0  0  0  0  0  0  0  0
    1.7190  -15.4710   -0.4610 C   0  0  0  0  0  0  0  0  0  0  0  0
    0.4300  -16.0090   -0.5440 C   0  0  0  0  0  0  0  0  0  0  0  0
   -0.6580  -15.3100   -0.0180 C   0  0  0  0  0  0  0  0  0  0  0  0
   -1.9810  -15.8570   -0.1020 C   0  0  0  0  0  0  0  0  0  0  0  0
   -3.0490  -16.3030   -0.1720 N   0  0  0  0  0  0  0  0  0  0  0  0
   -0.4440  -14.0710    0.5900 C   0  0  0  0  0  0  0  0  0  0  0  0
    0.8470  -13.5320    0.6730 C   0  0  0  0  0  0  0  0  0  0  0  0
    5.4780  -11.9800    1.0860 C   0  0  0  0  0  0  0  0  0  0  0  0
    7.0110  -11.9670    1.3090 C   0  0  0  0  0  0  0  0  0  0  0  0
    9.4280  -13.4280   -1.0210 C   0  0  0  0  0  0  0  0  0  0  0  0
   10.3690  -12.3950   -1.2180 C   0  0  0  0  0  0  0  0  0  0  0  0
   11.5980  -12.6320   -1.8430 C   0  0  0  0  0  0  0  0  0  0  0  0
   12.3550  -11.4970   -1.9470 O   0  0  0  0  0  0  0  0  0  0  0  0
   13.1290  -11.0970   -0.8230 C   0  0  0  0  0  0  0  0  0  0  0  0
   13.5672  -16.0820   -2.5049 H   0  0  0  0  0  0  0  0  0  0  0  0
   12.5814  -15.8426   -3.9873 H   0  0  0  0  0  0  0  0  0  0  0  0
   14.3239  -15.4063   -3.9873 H   0  0  0  0  0  0  0  0  0  0  0  0
   11.1918  -15.9639   -2.4155 H   0  0  0  0  0  0  0  0  0  0  0  0
    7.0681  -16.3487   -0.4823 H   0  0  0  0  0  0  0  0  0  0  0  0
    7.2688  -10.0886   -0.6928 H   0  0  0  0  0  0  0  0  0  0  0  0
    7.8230  -11.2762   -1.9380 H   0  0  0  0  0  0  0  0  0  0  0  0
    5.1431  -10.5661   -1.3756 H   0  0  0  0  0  0  0  0  0  0  0  0
    5.7049  -11.9786   -2.3448 H   0  0  0  0  0  0  0  0  0  0  0  0
    5.7250  -13.3000   -0.4160 H   0  0  0  0  0  0  0  0  0  0  0  0
    3.8780  -14.2570    0.8270 H   0  0  0  0  0  0  0  0  0  0  0  0
    2.5692  -16.0302   -0.8787 H   0  0  0  0  0  0  0  0  0  0  0  0
    0.2734  -16.9857   -1.0252 H   0  0  0  0  0  0  0  0  0  0  0  0
   -1.2957  -13.5137    1.0071 H   0  0  0  0  0  0  0  0  0  0  0  0
    1.0013  -12.5550    1.1543 H   0  0  0  0  0  0  0  0  0  0  0  0
    5.0755  -10.9681    1.2407 H   0  0  0  0  0  0  0  0  0  0  0  0
    5.0074  -12.6723    1.7997 H   0  0  0  0  0  0  0  0  0  0  0  0
    7.2857  -11.0482    1.8479 H   0  0  0  0  0  0  0  0  0  0  0  0
    7.2819  -12.8597    1.8919 H   0  0  0  0  0  0  0  0  0  0  0  0
   10.1304  -11.3786   -0.8717 H   0  0  0  0  0  0  0  0  0  0  0  0
   12.6004  -11.3702    0.1022 H   0  0  0  0  0  0  0  0  0  0  0  0
   14.1050  -11.6036   -0.8509 H   0  0  0  0  0  0  0  0  0  0  0  0
   13.2803  -10.0078   -0.8509 H   0  0  0  0  0  0  0  0  0  0  0  0
  1  2  1  0
  2  3  1  0
  3  4  2  0
  4  5  1  0
  5  6  2  0
  6  7  1  0
  7  8  2  0
  8  9  1  0
  9 10  1  0
 10 11  1  0
 11 12  1  0
 12 13  1  0
 13 14  1  0
 14 15  2  0
 14 16  1  0
 16 17  1  0
 17 18  2  0
 18 19  1  0
 19 20  2  0
 20 21  1  0
 21 22  3  0
 20 23  1  0
 23 24  2  0
 13 25  1  0
 25 26  1  0
  9 27  2  0
 27 28  1  0
 28 29  2  0
 29 30  1  0
 30 31  1  0
 29  3  1  0
 27  5  1  0
 26 10  1  0
 24 17  1  0
  1 32  1  0
  1 33  1  0
  1 34  1  0
  4 35  1  0
  7 36  1  0
 11 37  1  0
 11 38  1  0
 12 39  1  0
 12 40  1  0
 13 41  1  0
 16 42  1  0
 18 43  1  0
 19 44  1  0
 23 45  1  0
 24 46  1  0
 25 47  1  0
 25 48  1  0
 26 49  1  0
 26 50  1  0
 28 51  1  0
 31 52  1  0
 31 53  1  0
 31 54  1  0
M  CHG  1  13   1
M  END
>  <meeko>  (9) 
{"is_sidechain": [false], "free_energy": -7.135, "intermolecular_energy": -8.957, "internal_energy": -0.608}

$$$$
