LIB_WGFSFQGWINXFDC__M_PUB_ALL__e8__s20260927
     RDKit          3D

 56 59  0  0  0  0  0  0  0  0999 V2000
   13.8140  -14.6040   -5.6480 C   0  0  0  0  0  0  0  0  0  0  0  0
   13.3140  -14.1290   -4.2790 C   0  0  0  0  0  0  0  0  0  0  0  0
   11.8030  -13.8760   -4.2760 C   0  0  0  0  0  0  0  0  0  0  0  0
   13.6320  -15.2150   -3.2390 C   0  0  0  0  0  0  0  0  0  0  0  0
   14.0470  -12.9610   -3.8270 O   0  0  0  0  0  0  0  0  0  0  0  0
   13.4150  -11.9600   -3.1730 C   0  0  0  0  0  0  0  0  0  0  0  0
   12.7560  -11.0670   -3.6800 O   0  0  0  0  0  0  0  0  0  0  0  0
   13.6360  -12.1040   -1.8380 N   0  0  0  0  0  0  0  0  0  0  0  0
   13.0990  -11.1990   -0.8490 C   0  0  0  0  0  0  0  0  0  0  0  0
   12.2560  -11.9440    0.1860 C   0  0  0  0  0  0  0  0  0  0  0  0
   12.3430  -13.4600    0.0310 C   0  0  0  0  0  0  0  0  0  0  0  0
   11.0380  -14.1040   -0.4080 C   0  0  0  0  0  0  0  0  0  0  0  0
   10.9870  -15.2210   -0.9040 O   0  0  0  0  0  0  0  0  0  0  0  0
    9.9530  -13.2780   -0.1620 N   0  0  0  0  0  0  0  0  0  0  0  0
    8.6310  -13.5440   -0.4520 C   0  0  0  0  0  0  0  0  0  0  0  0
    8.1450  -14.6100   -1.0100 N   0  0  0  0  0  0  0  0  0  0  0  0
    6.7410  -14.6850   -1.2200 C   0  0  0  0  0  0  0  0  0  0  0  0
    6.2120  -15.8290   -1.8180 C   0  0  0  0  0  0  0  0  0  0  0  0
    4.8360  -15.9360   -2.0400 C   0  0  0  0  0  0  0  0  0  0  0  0
    3.9820  -14.8970   -1.6620 C   0  0  0  0  0  0  0  0  0  0  0  0
    2.2910  -15.0430   -1.9420 Cl  0  0  0  0  0  0  0  0  0  0  0  0
    4.4850  -13.7450   -1.0630 C   0  0  0  0  0  0  0  0  0  0  0  0
    5.8590  -13.6410   -0.8430 C   0  0  0  0  0  0  0  0  0  0  0  0
    6.4650  -12.4790   -0.2270 C   0  0  0  0  0  0  0  0  0  0  0  0
    5.9730  -11.3540    0.2350 N   0  0  0  0  0  0  0  0  0  0  0  0
    7.0910  -10.6830    0.6870 C   0  0  0  0  0  0  0  0  0  0  0  0
    7.0020   -9.2620    1.3360 C   0  0  0  0  0  0  0  0  0  0  0  0
    7.6740   -8.1310    0.9110 C   0  0  0  0  0  0  0  0  0  0  0  0
    7.2980   -7.0810    1.7830 C   0  0  0  0  0  0  0  0  0  0  0  0
    6.4200   -7.6320    2.6860 C   0  0  0  0  0  0  0  0  0  0  0  0
    6.2350   -8.9500    2.4240 O   0  0  0  0  0  0  0  0  0  0  0  0
    8.2560  -11.3400    0.5260 N   0  0  0  0  0  0  0  0  0  0  0  0
    7.8170  -12.4800   -0.0570 N   0  0  0  0  0  0  0  0  0  0  0  0
   14.6051  -15.3555   -5.5089 H   0  0  0  0  0  0  0  0  0  0  0  0
   12.9793  -15.0498   -6.2088 H   0  0  0  0  0  0  0  0  0  0  0  0
   14.2164  -13.7475   -6.2088 H   0  0  0  0  0  0  0  0  0  0  0  0
   11.4434  -13.8158   -3.2382 H   0  0  0  0  0  0  0  0  0  0  0  0
   11.5887  -12.9295   -4.7938 H   0  0  0  0  0  0  0  0  0  0  0  0
   11.2920  -14.7011   -4.7938 H   0  0  0  0  0  0  0  0  0  0  0  0
   13.5107  -14.8006   -2.2273 H   0  0  0  0  0  0  0  0  0  0  0  0
   12.9445  -16.0632   -3.3727 H   0  0  0  0  0  0  0  0  0  0  0  0
   14.6684  -15.5584   -3.3727 H   0  0  0  0  0  0  0  0  0  0  0  0
   14.2110  -12.8860   -1.5570 H   0  0  0  0  0  0  0  0  0  0  0  0
   13.9309  -10.6934   -0.3368 H   0  0  0  0  0  0  0  0  0  0  0  0
   12.4551  -10.4683   -1.3603 H   0  0  0  0  0  0  0  0  0  0  0  0
   12.6101  -11.6715    1.1912 H   0  0  0  0  0  0  0  0  0  0  0  0
   11.2063  -11.6527    0.0335 H   0  0  0  0  0  0  0  0  0  0  0  0
   13.1134  -13.6889   -0.7201 H   0  0  0  0  0  0  0  0  0  0  0  0
   12.5879  -13.8714    1.0213 H   0  0  0  0  0  0  0  0  0  0  0  0
   10.1290  -12.3770    0.2750 H   0  0  0  0  0  0  0  0  0  0  0  0
    6.8804  -16.6502   -2.1161 H   0  0  0  0  0  0  0  0  0  0  0  0
    4.4249  -16.8399   -2.5132 H   0  0  0  0  0  0  0  0  0  0  0  0
    3.8092  -12.9289   -0.7676 H   0  0  0  0  0  0  0  0  0  0  0  0
    8.3670   -8.0606    0.0597 H   0  0  0  0  0  0  0  0  0  0  0  0
    7.6393   -6.0359    1.7456 H   0  0  0  0  0  0  0  0  0  0  0  0
    5.9355   -7.0814    3.5058 H   0  0  0  0  0  0  0  0  0  0  0  0
  1  2  1  0
  2  3  1  0
  2  4  1  0
  2  5  1  0
  5  6  1  0
  6  7  2  0
  6  8  1  0
  8  9  1  0
  9 10  1  0
 10 11  1  0
 11 12  1  0
 12 13  2  0
 12 14  1  0
 14 15  1  0
 15 16  2  0
 16 17  1  0
 17 18  2  0
 18 19  1  0
 19 20  2  0
 20 21  1  0
 20 22  1  0
 22 23  2  0
 23 24  1  0
 24 25  2  0
 25 26  1  0
 26 27  1  0
 27 28  2  0
 28 29  1  0
 29 30  2  0
 30 31  1  0
 26 32  2  0
 32 33  1  0
 33 15  1  0
 23 17  1  0
 33 24  1  0
 31 27  1  0
  1 34  1  0
  1 35  1  0
  1 36  1  0
  3 37  1  0
  3 38  1  0
  3 39  1  0
  4 40  1  0
  4 41  1  0
  4 42  1  0
  8 43  1  0
  9 44  1  0
  9 45  1  0
 10 46  1  0
 10 47  1  0
 11 48  1  0
 11 49  1  0
 14 50  1  0
 18 51  1  0
 19 52  1  0
 22 53  1  0
 28 54  1  0
 29 55  1  0
 30 56  1  0
M  END
>  <meeko>  (1) 
{"is_sidechain": [false], "free_energy": -8.193, "intermolecular_energy": -11.546, "internal_energy": -0.83}

$$$$
LIB_WGFSFQGWINXFDC__M_PUB_ALL__e8__s20260927
     RDKit          3D

 56 59  0  0  0  0  0  0  0  0999 V2000
    4.8660  -12.1370    1.1750 C   0  0  0  0  0  0  0  0  0  0  0  0
    6.1690  -12.0220    0.3750 C   0  0  0  0  0  0  0  0  0  0  0  0
    5.9110  -11.6700   -1.0930 C   0  0  0  0  0  0  0  0  0  0  0  0
    7.0320  -10.9150    1.0020 C   0  0  0  0  0  0  0  0  0  0  0  0
    6.9700  -13.2260    0.4970 O   0  0  0  0  0  0  0  0  0  0  0  0
    6.5460  -14.2640    1.2520 C   0  0  0  0  0  0  0  0  0  0  0  0
    6.6930  -14.3920    2.4570 O   0  0  0  0  0  0  0  0  0  0  0  0
    5.9210  -15.1630    0.4450 N   0  0  0  0  0  0  0  0  0  0  0  0
    5.3430  -16.3930    0.9340 C   0  0  0  0  0  0  0  0  0  0  0  0
    4.2680  -16.9190   -0.0170 C   0  0  0  0  0  0  0  0  0  0  0  0
    3.0670  -17.5030    0.7230 C   0  0  0  0  0  0  0  0  0  0  0  0
    2.1930  -16.4540    1.3880 C   0  0  0  0  0  0  0  0  0  0  0  0
    1.6370  -16.6420    2.4620 O   0  0  0  0  0  0  0  0  0  0  0  0
    2.1260  -15.2920    0.6370 N   0  0  0  0  0  0  0  0  0  0  0  0
    1.4100  -14.1530    0.9390 C   0  0  0  0  0  0  0  0  0  0  0  0
    0.6590  -13.9450    1.9770 N   0  0  0  0  0  0  0  0  0  0  0  0
    0.0040  -12.6900    2.0990 C   0  0  0  0  0  0  0  0  0  0  0  0
   -0.8030  -12.4600    3.2130 C   0  0  0  0  0  0  0  0  0  0  0  0
   -1.4630  -11.2360    3.3660 C   0  0  0  0  0  0  0  0  0  0  0  0
   -1.3160  -10.2370    2.4020 C   0  0  0  0  0  0  0  0  0  0  0  0
   -2.1340   -8.7360    2.6020 Cl  0  0  0  0  0  0  0  0  0  0  0  0
   -0.5150  -10.4410    1.2800 C   0  0  0  0  0  0  0  0  0  0  0  0
    0.1410  -11.6630    1.1320 C   0  0  0  0  0  0  0  0  0  0  0  0
    0.9920  -11.9590   -0.0030 C   0  0  0  0  0  0  0  0  0  0  0  0
    1.3410  -11.2670   -1.0620 N   0  0  0  0  0  0  0  0  0  0  0  0
    2.1700  -12.1340   -1.7450 C   0  0  0  0  0  0  0  0  0  0  0  0
    2.8430  -11.7440   -3.1020 C   0  0  0  0  0  0  0  0  0  0  0  0
    2.7580  -10.5130   -3.7270 C   0  0  0  0  0  0  0  0  0  0  0  0
    3.5160  -10.6090   -4.9200 C   0  0  0  0  0  0  0  0  0  0  0  0
    4.0180  -11.8880   -4.9520 C   0  0  0  0  0  0  0  0  0  0  0  0
    3.6170  -12.5820   -3.8570 O   0  0  0  0  0  0  0  0  0  0  0  0
    2.3520  -13.3330   -1.1580 N   0  0  0  0  0  0  0  0  0  0  0  0
    1.5880  -13.1840   -0.0510 N   0  0  0  0  0  0  0  0  0  0  0  0
    5.0934  -12.1169    2.2510 H   0  0  0  0  0  0  0  0  0  0  0  0
    4.2059  -11.2936    0.9239 H   0  0  0  0  0  0  0  0  0  0  0  0
    4.3639  -13.0830    0.9239 H   0  0  0  0  0  0  0  0  0  0  0  0
    5.2616  -10.7839   -1.1489 H   0  0  0  0  0  0  0  0  0  0  0  0
    6.8675  -11.4557   -1.5922 H   0  0  0  0  0  0  0  0  0  0  0  0
    5.4187  -12.5176   -1.5922 H   0  0  0  0  0  0  0  0  0  0  0  0
    6.9778  -10.9846    2.0985 H   0  0  0  0  0  0  0  0  0  0  0  0
    8.0762  -11.0364    0.6781 H   0  0  0  0  0  0  0  0  0  0  0  0
    6.6595   -9.9320    0.6781 H   0  0  0  0  0  0  0  0  0  0  0  0
    5.8790  -14.9340   -0.5390 H   0  0  0  0  0  0  0  0  0  0  0  0
    6.1368  -17.1484    1.0302 H   0  0  0  0  0  0  0  0  0  0  0  0
    4.8754  -16.1928    1.9094 H   0  0  0  0  0  0  0  0  0  0  0  0
    3.9221  -16.0897   -0.6516 H   0  0  0  0  0  0  0  0  0  0  0  0
    4.7167  -17.7260   -0.6148 H   0  0  0  0  0  0  0  0  0  0  0  0
    2.4522  -18.0614    0.0017 H   0  0  0  0  0  0  0  0  0  0  0  0
    3.4628  -18.1467    1.5224 H   0  0  0  0  0  0  0  0  0  0  0  0
    2.6530  -15.2560   -0.2330 H   0  0  0  0  0  0  0  0  0  0  0  0
   -0.9211  -13.2446    3.9748 H   0  0  0  0  0  0  0  0  0  0  0  0
   -2.0983  -11.0606    4.2467 H   0  0  0  0  0  0  0  0  0  0  0  0
   -0.4019   -9.6509    0.5231 H   0  0  0  0  0  0  0  0  0  0  0  0
    2.2084   -9.6306   -3.3674 H   0  0  0  0  0  0  0  0  0  0  0  0
    3.6714   -9.8191   -5.6696 H   0  0  0  0  0  0  0  0  0  0  0  0
    4.6551  -12.2922   -5.7525 H   0  0  0  0  0  0  0  0  0  0  0  0
  1  2  1  0
  2  3  1  0
  2  4  1  0
  2  5  1  0
  5  6  1  0
  6  7  2  0
  6  8  1  0
  8  9  1  0
  9 10  1  0
 10 11  1  0
 11 12  1  0
 12 13  2  0
 12 14  1  0
 14 15  1  0
 15 16  2  0
 16 17  1  0
 17 18  2  0
 18 19  1  0
 19 20  2  0
 20 21  1  0
 20 22  1  0
 22 23  2  0
 23 24  1  0
 24 25  2  0
 25 26  1  0
 26 27  1  0
 27 28  2  0
 28 29  1  0
 29 30  2  0
 30 31  1  0
 26 32  2  0
 32 33  1  0
 33 15  1  0
 23 17  1  0
 33 24  1  0
 31 27  1  0
  1 34  1  0
  1 35  1  0
  1 36  1  0
  3 37  1  0
  3 38  1  0
  3 39  1  0
  4 40  1  0
  4 41  1  0
  4 42  1  0
  8 43  1  0
  9 44  1  0
  9 45  1  0
 10 46  1  0
 10 47  1  0
 11 48  1  0
 11 49  1  0
 14 50  1  0
 18 51  1  0
 19 52  1  0
 22 53  1  0
 28 54  1  0
 29 55  1  0
 30 56  1  0
M  END
>  <meeko>  (2) 
{"is_sidechain": [false], "free_energy": -7.565, "intermolecular_energy": -10.276, "internal_energy": -1.215}

$$$$
LIB_WGFSFQGWINXFDC__M_PUB_ALL__e8__s20260927
     RDKit          3D

 56 59  0  0  0  0  0  0  0  0999 V2000
    2.0830  -13.1110   -4.4810 C   0  0  0  0  0  0  0  0  0  0  0  0
    3.3760  -12.3460   -4.1730 C   0  0  0  0  0  0  0  0  0  0  0  0
    3.6440  -11.2380   -5.1970 C   0  0  0  0  0  0  0  0  0  0  0  0
    3.2470  -11.7070   -2.7820 C   0  0  0  0  0  0  0  0  0  0  0  0
    4.5070  -13.2470   -4.0610 O   0  0  0  0  0  0  0  0  0  0  0  0
    5.6310  -13.0370   -4.7830 C   0  0  0  0  0  0  0  0  0  0  0  0
    6.5740  -12.3280   -4.4660 O   0  0  0  0  0  0  0  0  0  0  0  0
    5.5450  -13.7480   -5.9400 N   0  0  0  0  0  0  0  0  0  0  0  0
    6.5840  -13.7490   -6.9420 C   0  0  0  0  0  0  0  0  0  0  0  0
    7.0970  -15.1640   -7.2100 C   0  0  0  0  0  0  0  0  0  0  0  0
    7.7700  -15.7840   -5.9890 C   0  0  0  0  0  0  0  0  0  0  0  0
    8.9550  -14.9830   -5.4740 C   0  0  0  0  0  0  0  0  0  0  0  0
    9.9360  -14.7380   -6.1630 O   0  0  0  0  0  0  0  0  0  0  0  0
    8.7650  -14.5750   -4.1630 N   0  0  0  0  0  0  0  0  0  0  0  0
    9.6460  -13.8500   -3.3890 C   0  0  0  0  0  0  0  0  0  0  0  0
   10.8190  -13.4110   -3.7290 N   0  0  0  0  0  0  0  0  0  0  0  0
   11.5710  -12.6760   -2.7730 C   0  0  0  0  0  0  0  0  0  0  0  0
   12.8320  -12.2000   -3.1330 C   0  0  0  0  0  0  0  0  0  0  0  0
   13.6000  -11.4740   -2.2180 C   0  0  0  0  0  0  0  0  0  0  0  0
   13.1070  -11.2210   -0.9350 C   0  0  0  0  0  0  0  0  0  0  0  0
   14.0630  -10.3260    0.1810 Cl  0  0  0  0  0  0  0  0  0  0  0  0
   11.8510  -11.6850   -0.5510 C   0  0  0  0  0  0  0  0  0  0  0  0
   11.0880  -12.4090   -1.4680 C   0  0  0  0  0  0  0  0  0  0  0  0
    9.7730  -12.9280   -1.1510 C   0  0  0  0  0  0  0  0  0  0  0  0
    9.0280  -12.8750   -0.0720 N   0  0  0  0  0  0  0  0  0  0  0  0
    7.8930  -13.5700   -0.4380 C   0  0  0  0  0  0  0  0  0  0  0  0
    6.6930  -13.7780    0.5440 C   0  0  0  0  0  0  0  0  0  0  0  0
    6.5720  -13.2290    1.8070 C   0  0  0  0  0  0  0  0  0  0  0  0
    5.3360  -13.6810    2.3310 C   0  0  0  0  0  0  0  0  0  0  0  0
    4.7780  -14.4770    1.3590 C   0  0  0  0  0  0  0  0  0  0  0  0
    5.5910  -14.5420    0.2740 O   0  0  0  0  0  0  0  0  0  0  0  0
    7.8990  -14.0510   -1.6970 N   0  0  0  0  0  0  0  0  0  0  0  0
    9.1110  -13.6210   -2.1190 N   0  0  0  0  0  0  0  0  0  0  0  0
    1.5946  -13.4000   -3.5387 H   0  0  0  0  0  0  0  0  0  0  0  0
    1.4062  -12.4679   -5.0626 H   0  0  0  0  0  0  0  0  0  0  0  0
    2.3208  -14.0139   -5.0626 H   0  0  0  0  0  0  0  0  0  0  0  0
    3.8711  -10.2993   -4.6705 H   0  0  0  0  0  0  0  0  0  0  0  0
    4.4996  -11.5208   -5.8278 H   0  0  0  0  0  0  0  0  0  0  0  0
    2.7537  -11.0985   -5.8278 H   0  0  0  0  0  0  0  0  0  0  0  0
    3.4020  -12.4750   -2.0099 H   0  0  0  0  0  0  0  0  0  0  0  0
    4.0037  -10.9165   -2.6700 H   0  0  0  0  0  0  0  0  0  0  0  0
    2.2429  -11.2720   -2.6700 H   0  0  0  0  0  0  0  0  0  0  0  0
    4.7010  -14.2860   -6.0780 H   0  0  0  0  0  0  0  0  0  0  0  0
    6.1809  -13.3312   -7.8763 H   0  0  0  0  0  0  0  0  0  0  0  0
    7.4225  -13.1402   -6.5728 H   0  0  0  0  0  0  0  0  0  0  0  0
    6.2470  -15.7974   -7.5036 H   0  0  0  0  0  0  0  0  0  0  0  0
    7.8498  -15.1001   -8.0095 H   0  0  0  0  0  0  0  0  0  0  0  0
    7.0254  -15.8604   -5.1830 H   0  0  0  0  0  0  0  0  0  0  0  0
    8.1552  -16.7670   -6.2978 H   0  0  0  0  0  0  0  0  0  0  0  0
    7.8930  -14.8290   -3.7070 H   0  0  0  0  0  0  0  0  0  0  0  0
   13.2238  -12.3969   -4.1418 H   0  0  0  0  0  0  0  0  0  0  0  0
   14.5935  -11.1014   -2.5082 H   0  0  0  0  0  0  0  0  0  0  0  0
   11.4664  -11.4838    0.4598 H   0  0  0  0  0  0  0  0  0  0  0  0
    7.2954  -12.5690    2.3080 H   0  0  0  0  0  0  0  0  0  0  0  0
    4.9090  -13.4431    3.3165 H   0  0  0  0  0  0  0  0  0  0  0  0
    3.8087  -14.9894    1.4480 H   0  0  0  0  0  0  0  0  0  0  0  0
  1  2  1  0
  2  3  1  0
  2  4  1  0
  2  5  1  0
  5  6  1  0
  6  7  2  0
  6  8  1  0
  8  9  1  0
  9 10  1  0
 10 11  1  0
 11 12  1  0
 12 13  2  0
 12 14  1  0
 14 15  1  0
 15 16  2  0
 16 17  1  0
 17 18  2  0
 18 19  1  0
 19 20  2  0
 20 21  1  0
 20 22  1  0
 22 23  2  0
 23 24  1  0
 24 25  2  0
 25 26  1  0
 26 27  1  0
 27 28  2  0
 28 29  1  0
 29 30  2  0
 30 31  1  0
 26 32  2  0
 32 33  1  0
 33 15  1  0
 23 17  1  0
 33 24  1  0
 31 27  1  0
  1 34  1  0
  1 35  1  0
  1 36  1  0
  3 37  1  0
  3 38  1  0
  3 39  1  0
  4 40  1  0
  4 41  1  0
  4 42  1  0
  8 43  1  0
  9 44  1  0
  9 45  1  0
 10 46  1  0
 10 47  1  0
 11 48  1  0
 11 49  1  0
 14 50  1  0
 18 51  1  0
 19 52  1  0
 22 53  1  0
 28 54  1  0
 29 55  1  0
 30 56  1  0
M  END
>  <meeko>  (3) 
{"is_sidechain": [false], "free_energy": -7.555, "intermolecular_energy": -10.191, "internal_energy": -1.286}

$$$$
LIB_WGFSFQGWINXFDC__M_PUB_ALL__e8__s20260927
     RDKit          3D

 56 59  0  0  0  0  0  0  0  0999 V2000
   10.5130  -12.4120   -1.6350 C   0  0  0  0  0  0  0  0  0  0  0  0
   11.7230  -12.4250   -0.6940 C   0  0  0  0  0  0  0  0  0  0  0  0
   11.5170  -11.5090    0.5170 C   0  0  0  0  0  0  0  0  0  0  0  0
   11.9370  -13.8620   -0.1920 C   0  0  0  0  0  0  0  0  0  0  0  0
   12.9460  -12.0970   -1.4030 O   0  0  0  0  0  0  0  0  0  0  0  0
   13.0220  -12.2310   -2.7460 C   0  0  0  0  0  0  0  0  0  0  0  0
   12.8640  -11.3460   -3.5720 O   0  0  0  0  0  0  0  0  0  0  0  0
   13.3010  -13.5300   -3.0400 N   0  0  0  0  0  0  0  0  0  0  0  0
   13.4530  -14.0170   -4.3910 C   0  0  0  0  0  0  0  0  0  0  0  0
   12.1030  -14.3860   -5.0040 C   0  0  0  0  0  0  0  0  0  0  0  0
   11.4770  -15.6140   -4.3480 C   0  0  0  0  0  0  0  0  0  0  0  0
   10.0360  -15.4050   -3.9140 C   0  0  0  0  0  0  0  0  0  0  0  0
    9.6590  -15.5890   -2.7640 O   0  0  0  0  0  0  0  0  0  0  0  0
    9.2410  -14.9810   -4.9660 N   0  0  0  0  0  0  0  0  0  0  0  0
    7.8880  -14.7150   -4.9240 C   0  0  0  0  0  0  0  0  0  0  0  0
    7.0970  -14.8130   -3.9010 N   0  0  0  0  0  0  0  0  0  0  0  0
    5.7240  -14.4880   -4.0730 C   0  0  0  0  0  0  0  0  0  0  0  0
    4.8680  -14.5890   -2.9760 C   0  0  0  0  0  0  0  0  0  0  0  0
    3.5110  -14.2770   -3.1090 C   0  0  0  0  0  0  0  0  0  0  0  0
    3.0050  -13.8630   -4.3430 C   0  0  0  0  0  0  0  0  0  0  0  0
    1.3340  -13.4830   -4.4930 Cl  0  0  0  0  0  0  0  0  0  0  0  0
    3.8390  -13.7530   -5.4540 C   0  0  0  0  0  0  0  0  0  0  0  0
    5.1920  -14.0650   -5.3170 C   0  0  0  0  0  0  0  0  0  0  0  0
    6.1280  -13.9790   -6.4190 C   0  0  0  0  0  0  0  0  0  0  0  0
    5.9960  -13.6340   -7.6790 N   0  0  0  0  0  0  0  0  0  0  0  0
    7.2750  -13.7710   -8.1780 C   0  0  0  0  0  0  0  0  0  0  0  0
    7.6200  -13.4660   -9.6740 C   0  0  0  0  0  0  0  0  0  0  0  0
    6.8370  -13.7810  -10.7690 C   0  0  0  0  0  0  0  0  0  0  0  0
    7.5330  -13.3220  -11.9140 C   0  0  0  0  0  0  0  0  0  0  0  0
    8.6960  -12.7550  -11.4500 C   0  0  0  0  0  0  0  0  0  0  0  0
    8.7580  -12.8370  -10.0970 O   0  0  0  0  0  0  0  0  0  0  0  0
    8.1970  -14.1840   -7.2860 N   0  0  0  0  0  0  0  0  0  0  0  0
    7.4290  -14.3050   -6.1780 N   0  0  0  0  0  0  0  0  0  0  0  0
    9.5870  -12.4021   -1.0414 H   0  0  0  0  0  0  0  0  0  0  0  0
   10.5515  -11.5142   -2.2694 H   0  0  0  0  0  0  0  0  0  0  0  0
   10.5322  -13.3104   -2.2694 H   0  0  0  0  0  0  0  0  0  0  0  0
   11.6475  -12.0895    1.4422 H   0  0  0  0  0  0  0  0  0  0  0  0
   12.2541  -10.6929    0.4891 H   0  0  0  0  0  0  0  0  0  0  0  0
   10.5015  -11.0871    0.4891 H   0  0  0  0  0  0  0  0  0  0  0  0
   11.9382  -13.8698    0.9080 H   0  0  0  0  0  0  0  0  0  0  0  0
   11.1246  -14.5046   -0.5624 H   0  0  0  0  0  0  0  0  0  0  0  0
   12.9013  -14.2400   -0.5624 H   0  0  0  0  0  0  0  0  0  0  0  0
   13.3960  -14.1600   -2.2550 H   0  0  0  0  0  0  0  0  0  0  0  0
   13.9223  -13.2332   -5.0036 H   0  0  0  0  0  0  0  0  0  0  0  0
   14.0809  -14.9198   -4.3657 H   0  0  0  0  0  0  0  0  0  0  0  0
   11.4171  -13.5344   -4.8844 H   0  0  0  0  0  0  0  0  0  0  0  0
   12.2724  -14.6244   -6.0644 H   0  0  0  0  0  0  0  0  0  0  0  0
   11.5061  -16.4454   -5.0677 H   0  0  0  0  0  0  0  0  0  0  0  0
   12.0596  -15.8260   -3.4393 H   0  0  0  0  0  0  0  0  0  0  0  0
    9.6830  -14.8460   -5.8720 H   0  0  0  0  0  0  0  0  0  0  0  0
    5.2620  -14.9154   -2.0022 H   0  0  0  0  0  0  0  0  0  0  0  0
    2.8413  -14.3579   -2.2401 H   0  0  0  0  0  0  0  0  0  0  0  0
    3.4368  -13.4253   -6.4240 H   0  0  0  0  0  0  0  0  0  0  0  0
    5.8619  -14.2898  -10.7539 H   0  0  0  0  0  0  0  0  0  0  0  0
    7.2086  -13.4029  -12.9620 H   0  0  0  0  0  0  0  0  0  0  0  0
    9.4684  -12.2986  -12.0865 H   0  0  0  0  0  0  0  0  0  0  0  0
  1  2  1  0
  2  3  1  0
  2  4  1  0
  2  5  1  0
  5  6  1  0
  6  7  2  0
  6  8  1  0
  8  9  1  0
  9 10  1  0
 10 11  1  0
 11 12  1  0
 12 13  2  0
 12 14  1  0
 14 15  1  0
 15 16  2  0
 16 17  1  0
 17 18  2  0
 18 19  1  0
 19 20  2  0
 20 21  1  0
 20 22  1  0
 22 23  2  0
 23 24  1  0
 24 25  2  0
 25 26  1  0
 26 27  1  0
 27 28  2  0
 28 29  1  0
 29 30  2  0
 30 31  1  0
 26 32  2  0
 32 33  1  0
 33 15  1  0
 23 17  1  0
 33 24  1  0
 31 27  1  0
  1 34  1  0
  1 35  1  0
  1 36  1  0
  3 37  1  0
  3 38  1  0
  3 39  1  0
  4 40  1  0
  4 41  1  0
  4 42  1  0
  8 43  1  0
  9 44  1  0
  9 45  1  0
 10 46  1  0
 10 47  1  0
 11 48  1  0
 11 49  1  0
 14 50  1  0
 18 51  1  0
 19 52  1  0
 22 53  1  0
 28 54  1  0
 29 55  1  0
 30 56  1  0
M  END
>  <meeko>  (4) 
{"is_sidechain": [false], "free_energy": -7.254, "intermolecular_energy": -10.483, "internal_energy": -0.57}

$$$$
LIB_WGFSFQGWINXFDC__M_PUB_ALL__e8__s20260927
     RDKit          3D

 56 59  0  0  0  0  0  0  0  0999 V2000
    7.9020  -12.1040    1.1060 C   0  0  0  0  0  0  0  0  0  0  0  0
    7.1390  -13.1160    0.2420 C   0  0  0  0  0  0  0  0  0  0  0  0
    8.0270  -13.7220   -0.8490 C   0  0  0  0  0  0  0  0  0  0  0  0
    6.6320  -14.2480    1.1490 C   0  0  0  0  0  0  0  0  0  0  0  0
    5.9370  -12.5290   -0.3190 O   0  0  0  0  0  0  0  0  0  0  0  0
    5.9830  -11.8430   -1.4840 C   0  0  0  0  0  0  0  0  0  0  0  0
    6.5270  -10.7650   -1.6690 O   0  0  0  0  0  0  0  0  0  0  0  0
    5.3150  -12.5510   -2.4340 N   0  0  0  0  0  0  0  0  0  0  0  0
    5.1740  -12.1010   -3.7990 C   0  0  0  0  0  0  0  0  0  0  0  0
    6.3780  -12.5120   -4.6460 C   0  0  0  0  0  0  0  0  0  0  0  0
    6.3220  -13.9780   -5.0710 C   0  0  0  0  0  0  0  0  0  0  0  0
    7.5310  -14.4260   -5.8730 C   0  0  0  0  0  0  0  0  0  0  0  0
    7.4340  -15.0170   -6.9410 O   0  0  0  0  0  0  0  0  0  0  0  0
    8.7180  -14.0730   -5.2510 N   0  0  0  0  0  0  0  0  0  0  0  0
    9.9960  -14.3400   -5.6970 C   0  0  0  0  0  0  0  0  0  0  0  0
   10.3380  -14.9720   -6.7770 N   0  0  0  0  0  0  0  0  0  0  0  0
   11.7210  -15.1400   -7.0540 C   0  0  0  0  0  0  0  0  0  0  0  0
   12.0960  -15.8180   -8.2140 C   0  0  0  0  0  0  0  0  0  0  0  0
   13.4490  -16.0010   -8.5180 C   0  0  0  0  0  0  0  0  0  0  0  0
   14.4330  -15.5050   -7.6600 C   0  0  0  0  0  0  0  0  0  0  0  0
   16.0930  -15.7380   -8.0470 Cl  0  0  0  0  0  0  0  0  0  0  0  0
   14.0850  -14.8240   -6.4960 C   0  0  0  0  0  0  0  0  0  0  0  0
   12.7350  -14.6430   -6.1960 C   0  0  0  0  0  0  0  0  0  0  0  0
   12.2860  -13.9480   -5.0070 C   0  0  0  0  0  0  0  0  0  0  0  0
   12.9230  -13.3720   -4.0150 N   0  0  0  0  0  0  0  0  0  0  0  0
   11.9010  -12.9020   -3.2160 C   0  0  0  0  0  0  0  0  0  0  0  0
   12.1760  -12.1270   -1.8840 C   0  0  0  0  0  0  0  0  0  0  0  0
   11.5170  -12.3160   -0.6840 C   0  0  0  0  0  0  0  0  0  0  0  0
   12.0870  -11.4090    0.2420 C   0  0  0  0  0  0  0  0  0  0  0  0
   13.0590  -10.7220   -0.4460 C   0  0  0  0  0  0  0  0  0  0  0  0
   13.1210  -11.1500   -1.7330 O   0  0  0  0  0  0  0  0  0  0  0  0
   10.6570  -13.1590   -3.6670 N   0  0  0  0  0  0  0  0  0  0  0  0
   10.9430  -13.8250   -4.8100 N   0  0  0  0  0  0  0  0  0  0  0  0
    7.7327  -12.3285    2.1694 H   0  0  0  0  0  0  0  0  0  0  0  0
    8.9774  -12.1696    0.8841 H   0  0  0  0  0  0  0  0  0  0  0  0
    7.5431  -11.0882    0.8841 H   0  0  0  0  0  0  0  0  0  0  0  0
    8.8497  -14.2835   -0.3822 H   0  0  0  0  0  0  0  0  0  0  0  0
    7.4282  -14.4007   -1.4741 H   0  0  0  0  0  0  0  0  0  0  0  0
    8.4408  -12.9170   -1.4741 H   0  0  0  0  0  0  0  0  0  0  0  0
    6.7612  -13.9594    2.2026 H   0  0  0  0  0  0  0  0  0  0  0  0
    5.5662  -14.4303    0.9469 H   0  0  0  0  0  0  0  0  0  0  0  0
    7.2056  -15.1646    0.9469 H   0  0  0  0  0  0  0  0  0  0  0  0
    4.9030  -13.4260   -2.1390 H   0  0  0  0  0  0  0  0  0  0  0  0
    4.2643  -12.5442   -4.2303 H   0  0  0  0  0  0  0  0  0  0  0  0
    5.1088  -11.0029   -3.7978 H   0  0  0  0  0  0  0  0  0  0  0  0
    6.4050  -11.8840   -5.5487 H   0  0  0  0  0  0  0  0  0  0  0  0
    7.2803  -12.3767   -4.0316 H   0  0  0  0  0  0  0  0  0  0  0  0
    6.2553  -14.5999   -4.1661 H   0  0  0  0  0  0  0  0  0  0  0  0
    5.4431  -14.0911   -5.7228 H   0  0  0  0  0  0  0  0  0  0  0  0
    8.6610  -13.5640   -4.3730 H   0  0  0  0  0  0  0  0  0  0  0  0
   11.3243  -16.2104   -8.8926 H   0  0  0  0  0  0  0  0  0  0  0  0
   13.7384  -16.5364   -9.4343 H   0  0  0  0  0  0  0  0  0  0  0  0
   14.8633  -14.4347   -5.8232 H   0  0  0  0  0  0  0  0  0  0  0  0
   10.7062  -13.0327   -0.4864 H   0  0  0  0  0  0  0  0  0  0  0  0
   11.8084  -11.2801    1.2983 H   0  0  0  0  0  0  0  0  0  0  0  0
   13.6966   -9.9363   -0.0146 H   0  0  0  0  0  0  0  0  0  0  0  0
  1  2  1  0
  2  3  1  0
  2  4  1  0
  2  5  1  0
  5  6  1  0
  6  7  2  0
  6  8  1  0
  8  9  1  0
  9 10  1  0
 10 11  1  0
 11 12  1  0
 12 13  2  0
 12 14  1  0
 14 15  1  0
 15 16  2  0
 16 17  1  0
 17 18  2  0
 18 19  1  0
 19 20  2  0
 20 21  1  0
 20 22  1  0
 22 23  2  0
 23 24  1  0
 24 25  2  0
 25 26  1  0
 26 27  1  0
 27 28  2  0
 28 29  1  0
 29 30  2  0
 30 31  1  0
 26 32  2  0
 32 33  1  0
 33 15  1  0
 23 17  1  0
 33 24  1  0
 31 27  1  0
  1 34  1  0
  1 35  1  0
  1 36  1  0
  3 37  1  0
  3 38  1  0
  3 39  1  0
  4 40  1  0
  4 41  1  0
  4 42  1  0
  8 43  1  0
  9 44  1  0
  9 45  1  0
 10 46  1  0
 10 47  1  0
 11 48  1  0
 11 49  1  0
 14 50  1  0
 18 51  1  0
 19 52  1  0
 22 53  1  0
 28 54  1  0
 29 55  1  0
 30 56  1  0
M  END
>  <meeko>  (5) 
{"is_sidechain": [false], "free_energy": -7.173, "intermolecular_energy": -9.831, "internal_energy": -1.108}

$$$$
LIB_WGFSFQGWINXFDC__M_PUB_ALL__e8__s20260927
     RDKit          3D

 56 59  0  0  0  0  0  0  0  0999 V2000
    5.6860  -12.1830   -4.8610 C   0  0  0  0  0  0  0  0  0  0  0  0
    4.5850  -11.9950   -3.8110 C   0  0  0  0  0  0  0  0  0  0  0  0
    5.1370  -11.4300   -2.4980 C   0  0  0  0  0  0  0  0  0  0  0  0
    3.5410  -11.0150   -4.3670 C   0  0  0  0  0  0  0  0  0  0  0  0
    3.8520  -13.2270   -3.5890 O   0  0  0  0  0  0  0  0  0  0  0  0
    2.9500  -13.3230   -2.5860 C   0  0  0  0  0  0  0  0  0  0  0  0
    1.8490  -12.7990   -2.5490 O   0  0  0  0  0  0  0  0  0  0  0  0
    3.4740  -14.1050   -1.6030 N   0  0  0  0  0  0  0  0  0  0  0  0
    2.7660  -14.4150   -0.3830 C   0  0  0  0  0  0  0  0  0  0  0  0
    3.6780  -15.1110    0.6270 C   0  0  0  0  0  0  0  0  0  0  0  0
    4.0040  -14.2280    1.8290 C   0  0  0  0  0  0  0  0  0  0  0  0
    5.4040  -13.6390    1.7910 C   0  0  0  0  0  0  0  0  0  0  0  0
    5.8980  -13.0490    2.7420 O   0  0  0  0  0  0  0  0  0  0  0  0
    6.0230  -13.8690    0.5730 N   0  0  0  0  0  0  0  0  0  0  0  0
    7.2850  -13.4580    0.1980 C   0  0  0  0  0  0  0  0  0  0  0  0
    8.1350  -12.7770    0.9030 N   0  0  0  0  0  0  0  0  0  0  0  0
    9.3920  -12.4560    0.3240 C   0  0  0  0  0  0  0  0  0  0  0  0
   10.3110  -11.7260    1.0770 C   0  0  0  0  0  0  0  0  0  0  0  0
   11.5580  -11.3920    0.5390 C   0  0  0  0  0  0  0  0  0  0  0  0
   11.8890  -11.7880   -0.7590 C   0  0  0  0  0  0  0  0  0  0  0  0
   13.4260  -11.3700   -1.4090 Cl  0  0  0  0  0  0  0  0  0  0  0  0
   10.9890  -12.5180   -1.5320 C   0  0  0  0  0  0  0  0  0  0  0  0
    9.7470  -12.8500   -0.9910 C   0  0  0  0  0  0  0  0  0  0  0  0
    8.7530  -13.6050   -1.7250 C   0  0  0  0  0  0  0  0  0  0  0  0
    8.7340  -14.1210   -2.9320 N   0  0  0  0  0  0  0  0  0  0  0  0
    7.4890  -14.7110   -3.0030 C   0  0  0  0  0  0  0  0  0  0  0  0
    6.9990  -15.4680   -4.2820 C   0  0  0  0  0  0  0  0  0  0  0  0
    7.5300  -15.3430   -5.5530 C   0  0  0  0  0  0  0  0  0  0  0  0
    6.7850  -16.2060   -6.3930 C   0  0  0  0  0  0  0  0  0  0  0  0
    5.8460  -16.8050   -5.5870 C   0  0  0  0  0  0  0  0  0  0  0  0
    5.9680  -16.3650   -4.3090 O   0  0  0  0  0  0  0  0  0  0  0  0
    6.7320  -14.5860   -1.8950 N   0  0  0  0  0  0  0  0  0  0  0  0
    7.5710  -13.8770   -1.1030 N   0  0  0  0  0  0  0  0  0  0  0  0
    6.6495  -12.3475   -4.3565 H   0  0  0  0  0  0  0  0  0  0  0  0
    5.4481  -13.0535   -5.4900 H   0  0  0  0  0  0  0  0  0  0  0  0
    5.7504  -11.2829   -5.4900 H   0  0  0  0  0  0  0  0  0  0  0  0
    4.6481  -11.9305   -1.6492 H   0  0  0  0  0  0  0  0  0  0  0  0
    6.2220  -11.6046   -2.4511 H   0  0  0  0  0  0  0  0  0  0  0  0
    4.9372  -10.3493   -2.4511 H   0  0  0  0  0  0  0  0  0  0  0  0
    3.0181  -10.5242   -3.5330 H   0  0  0  0  0  0  0  0  0  0  0  0
    4.0433  -10.2547   -4.9831 H   0  0  0  0  0  0  0  0  0  0  0  0
    2.8139  -11.5644   -4.9831 H   0  0  0  0  0  0  0  0  0  0  0  0
    4.4040  -14.4670   -1.7610 H   0  0  0  0  0  0  0  0  0  0  0  0
    2.3883  -13.4813    0.0592 H   0  0  0  0  0  0  0  0  0  0  0  0
    1.9356  -15.0941   -0.6265 H   0  0  0  0  0  0  0  0  0  0  0  0
    3.1767  -16.0224    0.9849 H   0  0  0  0  0  0  0  0  0  0  0  0
    4.6247  -15.3426    0.1170 H   0  0  0  0  0  0  0  0  0  0  0  0
    3.2797  -13.4007    1.8590 H   0  0  0  0  0  0  0  0  0  0  0  0
    3.9477  -14.8670    2.7226 H   0  0  0  0  0  0  0  0  0  0  0  0
    5.5080  -14.3920   -0.1310 H   0  0  0  0  0  0  0  0  0  0  0  0
   10.0539  -11.4113    2.0992 H   0  0  0  0  0  0  0  0  0  0  0  0
   12.2789  -10.8169    1.1386 H   0  0  0  0  0  0  0  0  0  0  0  0
   11.2538  -12.8280   -2.5537 H   0  0  0  0  0  0  0  0  0  0  0  0
    8.3689  -14.6979   -5.8533 H   0  0  0  0  0  0  0  0  0  0  0  0
    6.9285  -16.3649   -7.4720 H   0  0  0  0  0  0  0  0  0  0  0  0
    5.1007  -17.5378   -5.9298 H   0  0  0  0  0  0  0  0  0  0  0  0
  1  2  1  0
  2  3  1  0
  2  4  1  0
  2  5  1  0
  5  6  1  0
  6  7  2  0
  6  8  1  0
  8  9  1  0
  9 10  1  0
 10 11  1  0
 11 12  1  0
 12 13  2  0
 12 14  1  0
 14 15  1  0
 15 16  2  0
 16 17  1  0
 17 18  2  0
 18 19  1  0
 19 20  2  0
 20 21  1  0
 20 22  1  0
 22 23  2  0
 23 24  1  0
 24 25  2  0
 25 26  1  0
 26 27  1  0
 27 28  2  0
 28 29  1  0
 29 30  2  0
 30 31  1  0
 26 32  2  0
 32 33  1  0
 33 15  1  0
 23 17  1  0
 33 24  1  0
 31 27  1  0
  1 34  1  0
  1 35  1  0
  1 36  1  0
  3 37  1  0
  3 38  1  0
  3 39  1  0
  4 40  1  0
  4 41  1  0
  4 42  1  0
  8 43  1  0
  9 44  1  0
  9 45  1  0
 10 46  1  0
 10 47  1  0
 11 48  1  0
 11 49  1  0
 14 50  1  0
 18 51  1  0
 19 52  1  0
 22 53  1  0
 28 54  1  0
 29 55  1  0
 30 56  1  0
M  END
>  <meeko>  (6) 
{"is_sidechain": [false], "free_energy": -7.157, "intermolecular_energy": -9.567, "internal_energy": -1.348}

$$$$
LIB_WGFSFQGWINXFDC__M_PUB_ALL__e8__s20260927
     RDKit          3D

 56 59  0  0  0  0  0  0  0  0999 V2000
   11.5570  -13.7000   -4.5340 C   0  0  0  0  0  0  0  0  0  0  0  0
   12.6480  -13.8670   -3.4700 C   0  0  0  0  0  0  0  0  0  0  0  0
   13.0750  -15.3300   -3.3130 C   0  0  0  0  0  0  0  0  0  0  0  0
   13.8730  -13.0410   -3.8920 C   0  0  0  0  0  0  0  0  0  0  0  0
   12.2390  -13.2960   -2.2010 O   0  0  0  0  0  0  0  0  0  0  0  0
   10.9330  -13.0560   -1.9410 C   0  0  0  0  0  0  0  0  0  0  0  0
   10.3090  -12.0500   -2.2360 O   0  0  0  0  0  0  0  0  0  0  0  0
   10.4170  -14.1280   -1.2810 N   0  0  0  0  0  0  0  0  0  0  0  0
    9.0390  -14.2010   -0.8540 C   0  0  0  0  0  0  0  0  0  0  0  0
    8.3140  -15.3740   -1.5130 C   0  0  0  0  0  0  0  0  0  0  0  0
    9.2710  -16.3410   -2.2050 C   0  0  0  0  0  0  0  0  0  0  0  0
    9.2310  -16.2580   -3.7220 C   0  0  0  0  0  0  0  0  0  0  0  0
    9.9770  -16.9100   -4.4390 O   0  0  0  0  0  0  0  0  0  0  0  0
    8.2540  -15.3780   -4.1600 N   0  0  0  0  0  0  0  0  0  0  0  0
    7.9610  -15.0550   -5.4680 C   0  0  0  0  0  0  0  0  0  0  0  0
    8.5380  -15.5040   -6.5400 N   0  0  0  0  0  0  0  0  0  0  0  0
    8.0790  -15.0390   -7.8020 C   0  0  0  0  0  0  0  0  0  0  0  0
    8.6940  -15.5190   -8.9580 C   0  0  0  0  0  0  0  0  0  0  0  0
    8.2680  -15.0840  -10.2170 C   0  0  0  0  0  0  0  0  0  0  0  0
    7.2210  -14.1640  -10.3220 C   0  0  0  0  0  0  0  0  0  0  0  0
    6.7070  -13.6370  -11.8770 Cl  0  0  0  0  0  0  0  0  0  0  0  0
    6.5900  -13.6700   -9.1830 C   0  0  0  0  0  0  0  0  0  0  0  0
    7.0180  -14.1070   -7.9300 C   0  0  0  0  0  0  0  0  0  0  0  0
    6.4180  -13.6440   -6.6950 C   0  0  0  0  0  0  0  0  0  0  0  0
    5.4430  -12.8050   -6.4360 N   0  0  0  0  0  0  0  0  0  0  0  0
    5.3760  -12.8160   -5.0570 C   0  0  0  0  0  0  0  0  0  0  0  0
    4.3400  -11.9490   -4.2680 C   0  0  0  0  0  0  0  0  0  0  0  0
    3.5530  -10.9430   -4.7960 C   0  0  0  0  0  0  0  0  0  0  0  0
    2.7710  -10.4340   -3.7300 C   0  0  0  0  0  0  0  0  0  0  0  0
    3.1270  -11.1590   -2.6180 C   0  0  0  0  0  0  0  0  0  0  0  0
    4.0750  -12.0780   -2.9320 O   0  0  0  0  0  0  0  0  0  0  0  0
    6.2660  -13.6250   -4.4480 N   0  0  0  0  0  0  0  0  0  0  0  0
    6.9110  -14.1360   -5.5230 N   0  0  0  0  0  0  0  0  0  0  0  0
   10.5846  -13.5511   -4.0418 H   0  0  0  0  0  0  0  0  0  0  0  0
   11.7877  -12.8267   -5.1618 H   0  0  0  0  0  0  0  0  0  0  0  0
   11.5159  -14.6023   -5.1618 H   0  0  0  0  0  0  0  0  0  0  0  0
   13.1474  -15.5781   -2.2438 H   0  0  0  0  0  0  0  0  0  0  0  0
   12.3299  -15.9828   -3.7912 H   0  0  0  0  0  0  0  0  0  0  0  0
   14.0543  -15.4795   -3.7912 H   0  0  0  0  0  0  0  0  0  0  0  0
   14.4015  -12.6847   -2.9955 H   0  0  0  0  0  0  0  0  0  0  0  0
   14.5494  -13.6682   -4.4913 H   0  0  0  0  0  0  0  0  0  0  0  0
   13.5451  -12.1788   -4.4913 H   0  0  0  0  0  0  0  0  0  0  0  0
   11.0520  -14.8920   -1.0920 H   0  0  0  0  0  0  0  0  0  0  0  0
    9.0087  -14.3292    0.2381 H   0  0  0  0  0  0  0  0  0  0  0  0
    8.5340  -13.2700   -1.1511 H   0  0  0  0  0  0  0  0  0  0  0  0
    7.7564  -15.9229   -0.7398 H   0  0  0  0  0  0  0  0  0  0  0  0
    7.6431  -14.9620   -2.2812 H   0  0  0  0  0  0  0  0  0  0  0  0
   10.2946  -16.1150   -1.8715 H   0  0  0  0  0  0  0  0  0  0  0  0
    8.9554  -17.3582   -1.9299 H   0  0  0  0  0  0  0  0  0  0  0  0
    7.6840  -14.9110   -3.4580 H   0  0  0  0  0  0  0  0  0  0  0  0
    9.5181  -16.2433   -8.8791 H   0  0  0  0  0  0  0  0  0  0  0  0
    8.7572  -15.4661  -11.1251 H   0  0  0  0  0  0  0  0  0  0  0  0
    5.7665  -12.9460   -9.2705 H   0  0  0  0  0  0  0  0  0  0  0  0
    3.5369  -10.6031   -5.8421 H   0  0  0  0  0  0  0  0  0  0  0  0
    2.0295   -9.6232   -3.7818 H   0  0  0  0  0  0  0  0  0  0  0  0
    2.7027  -11.0145   -1.6135 H   0  0  0  0  0  0  0  0  0  0  0  0
  1  2  1  0
  2  3  1  0
  2  4  1  0
  2  5  1  0
  5  6  1  0
  6  7  2  0
  6  8  1  0
  8  9  1  0
  9 10  1  0
 10 11  1  0
 11 12  1  0
 12 13  2  0
 12 14  1  0
 14 15  1  0
 15 16  2  0
 16 17  1  0
 17 18  2  0
 18 19  1  0
 19 20  2  0
 20 21  1  0
 20 22  1  0
 22 23  2  0
 23 24  1  0
 24 25  2  0
 25 26  1  0
 26 27  1  0
 27 28  2  0
 28 29  1  0
 29 30  2  0
 30 31  1  0
 26 32  2  0
 32 33  1  0
 33 15  1  0
 23 17  1  0
 33 24  1  0
 31 27  1  0
  1 34  1  0
  1 35  1  0
  1 36  1  0
  3 37  1  0
  3 38  1  0
  3 39  1  0
  4 40  1  0
  4 41  1  0
  4 42  1  0
  8 43  1  0
  9 44  1  0
  9 45  1  0
 10 46  1  0
 10 47  1  0
 11 48  1  0
 11 49  1  0
 14 50  1  0
 18 51  1  0
 19 52  1  0
 22 53  1  0
 28 54  1  0
 29 55  1  0
 30 56  1  0
M  END
>  <meeko>  (7) 
{"is_sidechain": [false], "free_energy": -7.138, "intermolecular_energy": -9.768, "internal_energy": -1.121}

$$$$
LIB_WGFSFQGWINXFDC__M_PUB_ALL__e8__s20260927
     RDKit          3D

 56 59  0  0  0  0  0  0  0  0999 V2000
   -2.1350  -11.0050    0.5220 C   0  0  0  0  0  0  0  0  0  0  0  0
   -1.0690  -10.4310    1.4630 C   0  0  0  0  0  0  0  0  0  0  0  0
    0.1760   -9.9650    0.7010 C   0  0  0  0  0  0  0  0  0  0  0  0
   -1.6690   -9.2270    2.2060 C   0  0  0  0  0  0  0  0  0  0  0  0
   -0.7260  -11.3750    2.5090 O   0  0  0  0  0  0  0  0  0  0  0  0
   -0.6410  -12.6990    2.2440 C   0  0  0  0  0  0  0  0  0  0  0  0
    0.1680  -13.2390    1.5060 O   0  0  0  0  0  0  0  0  0  0  0  0
   -1.6170  -13.3460    2.9360 N   0  0  0  0  0  0  0  0  0  0  0  0
   -1.8060  -14.7760    2.8800 C   0  0  0  0  0  0  0  0  0  0  0  0
   -3.0080  -15.1440    2.0110 C   0  0  0  0  0  0  0  0  0  0  0  0
   -2.6400  -16.0990    0.8770 C   0  0  0  0  0  0  0  0  0  0  0  0
   -1.8000  -15.4550   -0.2130 C   0  0  0  0  0  0  0  0  0  0  0  0
   -2.2370  -14.5920   -0.9610 O   0  0  0  0  0  0  0  0  0  0  0  0
   -0.5090  -15.9600   -0.2280 N   0  0  0  0  0  0  0  0  0  0  0  0
    0.5040  -15.6100   -1.0960 C   0  0  0  0  0  0  0  0  0  0  0  0
    0.4500  -14.7480   -2.0640 N   0  0  0  0  0  0  0  0  0  0  0  0
    1.6180  -14.5330   -2.8450 C   0  0  0  0  0  0  0  0  0  0  0  0
    1.5670  -13.6060   -3.8870 C   0  0  0  0  0  0  0  0  0  0  0  0
    2.6970  -13.3690   -4.6760 C   0  0  0  0  0  0  0  0  0  0  0  0
    3.8850  -14.0610   -4.4240 C   0  0  0  0  0  0  0  0  0  0  0  0
    5.2670  -13.7600   -5.4030 Cl  0  0  0  0  0  0  0  0  0  0  0  0
    3.9610  -14.9920   -3.3900 C   0  0  0  0  0  0  0  0  0  0  0  0
    2.8320  -15.2250   -2.6050 C   0  0  0  0  0  0  0  0  0  0  0  0
    2.8240  -16.1740   -1.5110 C   0  0  0  0  0  0  0  0  0  0  0  0
    3.7400  -16.9710   -1.0140 N   0  0  0  0  0  0  0  0  0  0  0  0
    3.0790  -17.6060    0.0170 C   0  0  0  0  0  0  0  0  0  0  0  0
    3.7800  -18.6740    0.9210 C   0  0  0  0  0  0  0  0  0  0  0  0
    3.4900  -18.9310    2.2490 C   0  0  0  0  0  0  0  0  0  0  0  0
    4.3610  -19.9670    2.6630 C   0  0  0  0  0  0  0  0  0  0  0  0
    5.1280  -20.2810    1.5670 C   0  0  0  0  0  0  0  0  0  0  0  0
    4.7850  -19.5050    0.5090 O   0  0  0  0  0  0  0  0  0  0  0  0
    1.7930  -17.2390    0.1840 N   0  0  0  0  0  0  0  0  0  0  0  0
    1.6680  -16.3250   -0.8060 N   0  0  0  0  0  0  0  0  0  0  0  0
   -2.9503  -11.4440    1.1158 H   0  0  0  0  0  0  0  0  0  0  0  0
   -2.5355  -10.2006   -0.1124 H   0  0  0  0  0  0  0  0  0  0  0  0
   -1.6839  -11.7822   -0.1124 H   0  0  0  0  0  0  0  0  0  0  0  0
    0.9569   -9.6727    1.4184 H   0  0  0  0  0  0  0  0  0  0  0  0
    0.5473  -10.7850    0.0688 H   0  0  0  0  0  0  0  0  0  0  0  0
   -0.0824   -9.1027    0.0688 H   0  0  0  0  0  0  0  0  0  0  0  0
   -1.5885   -9.3885    3.2911 H   0  0  0  0  0  0  0  0  0  0  0  0
   -1.1201   -8.3147    1.9294 H   0  0  0  0  0  0  0  0  0  0  0  0
   -2.7278   -9.1159    1.9294 H   0  0  0  0  0  0  0  0  0  0  0  0
   -2.2250  -12.7710    3.5040 H   0  0  0  0  0  0  0  0  0  0  0  0
   -0.9028  -15.2405    2.4574 H   0  0  0  0  0  0  0  0  0  0  0  0
   -1.9908  -15.1419    3.9008 H   0  0  0  0  0  0  0  0  0  0  0  0
   -3.7674  -15.6252    2.6449 H   0  0  0  0  0  0  0  0  0  0  0  0
   -3.3883  -14.2170    1.5570 H   0  0  0  0  0  0  0  0  0  0  0  0
   -2.0728  -16.9405    1.3015 H   0  0  0  0  0  0  0  0  0  0  0  0
   -3.5818  -16.4222    0.4095 H   0  0  0  0  0  0  0  0  0  0  0  0
   -0.2650  -16.6640    0.4640 H   0  0  0  0  0  0  0  0  0  0  0  0
    0.6339  -13.0594   -4.0885 H   0  0  0  0  0  0  0  0  0  0  0  0
    2.6509  -12.6371   -5.4959 H   0  0  0  0  0  0  0  0  0  0  0  0
    4.8976  -15.5352   -3.1958 H   0  0  0  0  0  0  0  0  0  0  0  0
    2.7296  -18.4276    2.8642 H   0  0  0  0  0  0  0  0  0  0  0  0
    4.4133  -20.4277    3.6605 H   0  0  0  0  0  0  0  0  0  0  0  0
    5.9107  -21.0537    1.5501 H   0  0  0  0  0  0  0  0  0  0  0  0
  1  2  1  0
  2  3  1  0
  2  4  1  0
  2  5  1  0
  5  6  1  0
  6  7  2  0
  6  8  1  0
  8  9  1  0
  9 10  1  0
 10 11  1  0
 11 12  1  0
 12 13  2  0
 12 14  1  0
 14 15  1  0
 15 16  2  0
 16 17  1  0
 17 18  2  0
 18 19  1  0
 19 20  2  0
 20 21  1  0
 20 22  1  0
 22 23  2  0
 23 24  1  0
 24 25  2  0
 25 26  1  0
 26 27  1  0
 27 28  2  0
 28 29  1  0
 29 30  2  0
 30 31  1  0
 26 32  2  0
 32 33  1  0
 33 15  1  0
 23 17  1  0
 33 24  1  0
 31 27  1  0
  1 34  1  0
  1 35  1  0
  1 36  1  0
  3 37  1  0
  3 38  1  0
  3 39  1  0
  4 40  1  0
  4 41  1  0
  4 42  1  0
  8 43  1  0
  9 44  1  0
  9 45  1  0
 10 46  1  0
 10 47  1  0
 11 48  1  0
 11 49  1  0
 14 50  1  0
 18 51  1  0
 19 52  1  0
 22 53  1  0
 28 54  1  0
 29 55  1  0
 30 56  1  0
M  END
>  <meeko>  (8) 
{"is_sidechain": [false], "free_energy": -7.091, "intermolecular_energy": -9.587, "internal_energy": -1.236}

$$$$
LIB_WGFSFQGWINXFDC__M_PUB_ALL__e8__s20260927
     RDKit          3D

 56 59  0  0  0  0  0  0  0  0999 V2000
   -4.3590  -12.9340    1.8540 C   0  0  0  0  0  0  0  0  0  0  0  0
   -3.1500  -12.1770    1.2940 C   0  0  0  0  0  0  0  0  0  0  0  0
   -3.5270  -11.3090    0.0880 C   0  0  0  0  0  0  0  0  0  0  0  0
   -2.5870  -11.2680    2.3970 C   0  0  0  0  0  0  0  0  0  0  0  0
   -2.0630  -13.0830    0.9730 O   0  0  0  0  0  0  0  0  0  0  0  0
   -2.3110  -14.2850    0.4050 C   0  0  0  0  0  0  0  0  0  0  0  0
   -2.7110  -14.4800   -0.7310 O   0  0  0  0  0  0  0  0  0  0  0  0
   -2.0440  -15.2600    1.3160 N   0  0  0  0  0  0  0  0  0  0  0  0
   -2.2020  -16.6670    1.0310 C   0  0  0  0  0  0  0  0  0  0  0  0
   -0.8940  -17.4280    1.2480 C   0  0  0  0  0  0  0  0  0  0  0  0
    0.2170  -16.5380    1.7970 C   0  0  0  0  0  0  0  0  0  0  0  0
    0.6260  -16.8800    3.2200 C   0  0  0  0  0  0  0  0  0  0  0  0
    1.7820  -17.1310    3.5330 O   0  0  0  0  0  0  0  0  0  0  0  0
   -0.4580  -16.8570    4.0830 N   0  0  0  0  0  0  0  0  0  0  0  0
   -0.4440  -17.1340    5.4340 C   0  0  0  0  0  0  0  0  0  0  0  0
    0.5770  -17.4730    6.1590 N   0  0  0  0  0  0  0  0  0  0  0  0
    0.3730  -17.7150    7.5440 C   0  0  0  0  0  0  0  0  0  0  0  0
    1.4670  -18.0780    8.3300 C   0  0  0  0  0  0  0  0  0  0  0  0
    1.3030  -18.3250    9.6970 C   0  0  0  0  0  0  0  0  0  0  0  0
    0.0410  -18.2080   10.2830 C   0  0  0  0  0  0  0  0  0  0  0  0
   -0.1460  -18.5150   11.9660 Cl  0  0  0  0  0  0  0  0  0  0  0  0
   -1.0680  -17.8470    9.5200 C   0  0  0  0  0  0  0  0  0  0  0  0
   -0.9000  -17.6020    8.1580 C   0  0  0  0  0  0  0  0  0  0  0  0
   -1.9980  -17.2220    7.2920 C   0  0  0  0  0  0  0  0  0  0  0  0
   -3.2780  -17.0270    7.5070 N   0  0  0  0  0  0  0  0  0  0  0  0
   -3.7570  -16.6850    6.2590 C   0  0  0  0  0  0  0  0  0  0  0  0
   -5.2660  -16.3540    6.0100 C   0  0  0  0  0  0  0  0  0  0  0  0
   -5.9930  -15.3570    6.6330 C   0  0  0  0  0  0  0  0  0  0  0  0
   -7.3060  -15.4190    6.1060 C   0  0  0  0  0  0  0  0  0  0  0  0
   -7.3030  -16.4470    5.1940 C   0  0  0  0  0  0  0  0  0  0  0  0
   -6.0740  -17.0190    5.1290 O   0  0  0  0  0  0  0  0  0  0  0  0
   -2.8330  -16.6580    5.2780 N   0  0  0  0  0  0  0  0  0  0  0  0
   -1.7250  -17.0040    5.9750 N   0  0  0  0  0  0  0  0  0  0  0  0
   -4.3271  -12.9140    2.9534 H   0  0  0  0  0  0  0  0  0  0  0  0
   -5.2855  -12.4545    1.5053 H   0  0  0  0  0  0  0  0  0  0  0  0
   -4.3323  -13.9769    1.5053 H   0  0  0  0  0  0  0  0  0  0  0  0
   -3.9422  -10.3530    0.4398 H   0  0  0  0  0  0  0  0  0  0  0  0
   -2.6309  -11.1178   -0.5206 H   0  0  0  0  0  0  0  0  0  0  0  0
   -4.2785  -11.8334   -0.5206 H   0  0  0  0  0  0  0  0  0  0  0  0
   -2.8447  -11.6841    3.3821 H   0  0  0  0  0  0  0  0  0  0  0  0
   -1.4930  -11.2074    2.2993 H   0  0  0  0  0  0  0  0  0  0  0  0
   -3.0201  -10.2616    2.2993 H   0  0  0  0  0  0  0  0  0  0  0  0
   -1.7280  -14.9550    2.2260 H   0  0  0  0  0  0  0  0  0  0  0  0
   -2.9731  -17.0829    1.6961 H   0  0  0  0  0  0  0  0  0  0  0  0
   -2.4968  -16.7768   -0.0231 H   0  0  0  0  0  0  0  0  0  0  0  0
   -1.0759  -18.2454    1.9613 H   0  0  0  0  0  0  0  0  0  0  0  0
   -0.5637  -17.8094    0.2705 H   0  0  0  0  0  0  0  0  0  0  0  0
    1.0986  -16.6425    1.1475 H   0  0  0  0  0  0  0  0  0  0  0  0
   -0.1729  -15.5095    1.8127 H   0  0  0  0  0  0  0  0  0  0  0  0
   -1.3680  -16.6130    3.6980 H   0  0  0  0  0  0  0  0  0  0  0  0
    2.4631  -18.1704    7.8726 H   0  0  0  0  0  0  0  0  0  0  0  0
    2.1693  -18.6118   10.3112 H   0  0  0  0  0  0  0  0  0  0  0  0
   -2.0606  -17.7568    9.9854 H   0  0  0  0  0  0  0  0  0  0  0  0
   -5.6231  -14.6516    7.3917 H   0  0  0  0  0  0  0  0  0  0  0  0
   -8.1565  -14.7745    6.3728 H   0  0  0  0  0  0  0  0  0  0  0  0
   -8.1739  -16.7618    4.6004 H   0  0  0  0  0  0  0  0  0  0  0  0
  1  2  1  0
  2  3  1  0
  2  4  1  0
  2  5  1  0
  5  6  1  0
  6  7  2  0
  6  8  1  0
  8  9  1  0
  9 10  1  0
 10 11  1  0
 11 12  1  0
 12 13  2  0
 12 14  1  0
 14 15  1  0
 15 16  2  0
 16 17  1  0
 17 18  2  0
 18 19  1  0
 19 20  2  0
 20 21  1  0
 20 22  1  0
 22 23  2  0
 23 24  1  0
 24 25  2  0
 25 26  1  0
 26 27  1  0
 27 28  2  0
 28 29  1  0
 29 30  2  0
 30 31  1  0
 26 32  2  0
 32 33  1  0
 33 15  1  0
 23 17  1  0
 33 24  1  0
 31 27  1  0
  1 34  1  0
  1 35  1  0
  1 36  1  0
  3 37  1  0
  3 38  1  0
  3 39  1  0
  4 40  1  0
  4 41  1  0
  4 42  1  0
  8 43  1  0
  9 44  1  0
  9 45  1  0
 10 46  1  0
 10 47  1  0
 11 48  1  0
 11 49  1  0
 14 50  1  0
 18 51  1  0
 19 52  1  0
 22 53  1  0
 28 54  1  0
 29 55  1  0
 30 56  1  0
M  END
>  <meeko>  (9) 
{"is_sidechain": [false], "free_energy": -7.064, "intermolecular_energy": -9.912, "internal_energy": -0.872}

$$$$
