LIB_DHOBJWJXJBHSOA__M_PUB_ALL__e8__s20260927
     RDKit          3D

 54 57  0  0  0  0  0  0  0  0999 V2000
   11.9080  -13.4990  -12.7600 O   0  0  0  0  0  0  0  0  0  0  0  0
   12.1460  -13.3730  -11.5610 C   0  0  0  0  0  0  0  0  0  0  0  0
   11.1260  -12.7930  -10.5780 C   0  0  0  0  0  0  0  0  0  0  0  0
   10.7030  -11.4970  -11.1030 N   0  0  0  0  0  0  0  0  0  0  0  0
    9.4190  -11.2170  -11.5230 C   0  0  0  0  0  0  0  0  0  0  0  0
    8.2760  -12.4970  -11.6240 Cl  0  0  0  0  0  0  0  0  0  0  0  0
    9.0630   -9.9680  -11.8560 C   0  0  0  0  0  0  0  0  0  0  0  0
    9.8740   -8.8610  -11.8000 N   0  0  0  0  0  0  0  0  0  0  0  0
   11.1020   -9.0500  -11.4070 C   0  0  0  0  0  0  0  0  0  0  0  0
   11.9950   -8.0120  -11.2750 N   0  0  0  0  0  0  0  0  0  0  0  0
   11.5990   -6.6070  -11.2510 C   0  0  0  0  0  0  0  0  0  0  0  0
   12.3840   -5.7570  -12.2780 C   0  0  0  0  0  0  0  0  0  0  0  0
   13.6220   -5.4760  -11.7720 F   0  0  0  0  0  0  0  0  0  0  0  0
   12.6430   -6.5710  -13.3550 F   0  0  0  0  0  0  0  0  0  0  0  0
   11.6490   -4.5240  -12.7050 C   0  0  0  0  0  0  0  0  0  0  0  0
   10.3210   -4.2590  -12.3270 C   0  0  0  0  0  0  0  0  0  0  0  0
    9.6780   -3.1080  -12.7720 C   0  0  0  0  0  0  0  0  0  0  0  0
   10.3520   -2.2180  -13.5970 C   0  0  0  0  0  0  0  0  0  0  0  0
   11.6670   -2.4960  -13.9650 C   0  0  0  0  0  0  0  0  0  0  0  0
   12.3250   -3.6370  -13.5300 N   0  0  0  0  0  0  0  0  0  0  0  0
   13.5330   -3.8330  -13.8780 O   0  0  0  0  0  0  0  0  0  0  0  0
   11.6250  -10.4580  -11.0310 C   0  0  0  0  0  0  0  0  0  0  0  0
   12.7860  -10.5630  -10.6470 O   0  0  0  0  0  0  0  0  0  0  0  0
   13.2940  -13.8460  -10.9600 N   0  0  0  0  0  0  0  0  0  0  0  0
   14.2160  -14.7180  -11.6450 C   0  0  0  0  0  0  0  0  0  0  0  0
   13.8500  -16.1660  -11.3780 C   0  0  0  0  0  0  0  0  0  0  0  0
   13.0110  -16.7750  -12.3380 C   0  0  0  0  0  0  0  0  0  0  0  0
   12.5630  -18.0860  -12.1970 C   0  0  0  0  0  0  0  0  0  0  0  0
   12.9390  -18.8220  -11.0840 C   0  0  0  0  0  0  0  0  0  0  0  0
   13.7550  -18.2460  -10.1100 C   0  0  0  0  0  0  0  0  0  0  0  0
   14.2160  -16.9180  -10.2310 C   0  0  0  0  0  0  0  0  0  0  0  0
   15.0230  -16.3930   -9.1790 N   0  0  0  0  0  0  0  0  0  0  0  0
   14.6400  -15.8040   -7.9940 C   0  0  0  0  0  0  0  0  0  0  0  0
   15.7030  -15.4610   -7.3040 N   0  0  0  0  0  0  0  0  0  0  0  0
   16.7730  -15.8360   -8.0640 N   0  0  0  0  0  0  0  0  0  0  0  0
   16.3760  -16.3980   -9.1950 N   0  0  0  0  0  0  0  0  0  0  0  0
   10.2598  -13.4658  -10.4941 H   0  0  0  0  0  0  0  0  0  0  0  0
   11.5699  -12.6812   -9.5778 H   0  0  0  0  0  0  0  0  0  0  0  0
    8.0308   -9.8166  -12.2047 H   0  0  0  0  0  0  0  0  0  0  0  0
   12.9420   -8.2440  -10.9660 H   0  0  0  0  0  0  0  0  0  0  0  0
   10.5257   -6.5382  -11.4819 H   0  0  0  0  0  0  0  0  0  0  0  0
   11.8209   -6.2124  -10.2485 H   0  0  0  0  0  0  0  0  0  0  0  0
    9.7869   -4.9661  -11.6753 H   0  0  0  0  0  0  0  0  0  0  0  0
    8.6397   -2.9042  -12.4712 H   0  0  0  0  0  0  0  0  0  0  0  0
    9.8544   -1.3049  -13.9557 H   0  0  0  0  0  0  0  0  0  0  0  0
   12.1988   -1.7899  -14.6197 H   0  0  0  0  0  0  0  0  0  0  0  0
   13.4270  -13.7270   -9.9570 H   0  0  0  0  0  0  0  0  0  0  0  0
   14.1681  -14.5228  -12.7265 H   0  0  0  0  0  0  0  0  0  0  0  0
   15.2356  -14.5279  -11.2785 H   0  0  0  0  0  0  0  0  0  0  0  0
   12.7029  -16.1972  -13.2219 H   0  0  0  0  0  0  0  0  0  0  0  0
   11.9148  -18.5348  -12.9641 H   0  0  0  0  0  0  0  0  0  0  0  0
   12.5940  -19.8601  -10.9688 H   0  0  0  0  0  0  0  0  0  0  0  0
   14.0448  -18.8391   -9.2301 H   0  0  0  0  0  0  0  0  0  0  0  0
   13.5997  -15.6449   -7.6739 H   0  0  0  0  0  0  0  0  0  0  0  0
  1  2  2  0
  2  3  1  0
  3  4  1  0
  4  5  1  0
  5  6  1  0
  5  7  2  0
  7  8  1  0
  8  9  2  0
  9 10  1  0
 10 11  1  0
 11 12  1  0
 12 13  1  0
 12 14  1  0
 12 15  1  0
 15 16  2  0
 16 17  1  0
 17 18  2  0
 18 19  1  0
 19 20  2  0
 20 21  1  0
  9 22  1  0
 22 23  2  0
  2 24  1  0
 24 25  1  0
 25 26  1  0
 26 27  2  0
 27 28  1  0
 28 29  2  0
 29 30  1  0
 30 31  2  0
 31 32  1  0
 32 33  1  0
 33 34  2  0
 34 35  1  0
 35 36  2  0
 22  4  1  0
 31 26  1  0
 36 32  1  0
 20 15  1  0
  3 37  1  0
  3 38  1  0
  7 39  1  0
 10 40  1  0
 11 41  1  0
 11 42  1  0
 16 43  1  0
 17 44  1  0
 18 45  1  0
 19 46  1  0
 24 47  1  0
 25 48  1  0
 25 49  1  0
 27 50  1  0
 28 51  1  0
 29 52  1  0
 30 53  1  0
 33 54  1  0
M  CHG  2  20   1  21  -1
M  END
>  <meeko>  (1) 
{"is_sidechain": [false], "free_energy": -8.843, "intermolecular_energy": -12.978, "internal_energy": -0.911}

$$$$
LIB_DHOBJWJXJBHSOA__M_PUB_ALL__e8__s20260927
     RDKit          3D

 54 57  0  0  0  0  0  0  0  0999 V2000
    6.5700  -14.4650   -3.5570 O   0  0  0  0  0  0  0  0  0  0  0  0
    6.9500  -13.3020   -3.4410 C   0  0  0  0  0  0  0  0  0  0  0  0
    6.3780  -12.1630   -4.2880 C   0  0  0  0  0  0  0  0  0  0  0  0
    4.9410  -12.1070   -4.0320 N   0  0  0  0  0  0  0  0  0  0  0  0
    3.9820  -12.5570   -4.9160 C   0  0  0  0  0  0  0  0  0  0  0  0
    4.4630  -13.0450   -6.4930 Cl  0  0  0  0  0  0  0  0  0  0  0  0
    2.6900  -12.6110   -4.5590 C   0  0  0  0  0  0  0  0  0  0  0  0
    2.1840  -12.2690   -3.3290 N   0  0  0  0  0  0  0  0  0  0  0  0
    3.0350  -11.8370   -2.4410 C   0  0  0  0  0  0  0  0  0  0  0  0
    2.6510  -11.5020   -1.1630 N   0  0  0  0  0  0  0  0  0  0  0  0
    1.3650  -11.8780   -0.5840 C   0  0  0  0  0  0  0  0  0  0  0  0
    0.6730  -10.6930    0.1320 C   0  0  0  0  0  0  0  0  0  0  0  0
    1.5930  -10.0390    0.9030 F   0  0  0  0  0  0  0  0  0  0  0  0
    0.3450   -9.7770   -0.8390 F   0  0  0  0  0  0  0  0  0  0  0  0
   -0.5380  -11.1020    0.9120 C   0  0  0  0  0  0  0  0  0  0  0  0
   -1.0410  -12.4160    0.9050 C   0  0  0  0  0  0  0  0  0  0  0  0
   -2.1840  -12.7360    1.6310 C   0  0  0  0  0  0  0  0  0  0  0  0
   -2.8330  -11.7510    2.3620 C   0  0  0  0  0  0  0  0  0  0  0  0
   -2.3250  -10.4540    2.3570 C   0  0  0  0  0  0  0  0  0  0  0  0
   -1.1850  -10.1160    1.6420 N   0  0  0  0  0  0  0  0  0  0  0  0
   -0.7500   -8.9210    1.6870 O   0  0  0  0  0  0  0  0  0  0  0  0
    4.5450  -11.7060   -2.7610 C   0  0  0  0  0  0  0  0  0  0  0  0
    5.2950  -11.3150   -1.8720 O   0  0  0  0  0  0  0  0  0  0  0  0
    7.8330  -12.8840   -2.4670 N   0  0  0  0  0  0  0  0  0  0  0  0
    8.2200  -13.7330   -1.3660 C   0  0  0  0  0  0  0  0  0  0  0  0
    9.3370  -13.0760   -0.5780 C   0  0  0  0  0  0  0  0  0  0  0  0
   10.6510  -13.4300   -0.9620 C   0  0  0  0  0  0  0  0  0  0  0  0
   11.7690  -12.9330   -0.2980 C   0  0  0  0  0  0  0  0  0  0  0  0
   11.6030  -12.0720    0.7750 C   0  0  0  0  0  0  0  0  0  0  0  0
   10.3190  -11.7130    1.1890 C   0  0  0  0  0  0  0  0  0  0  0  0
    9.1720  -12.2080    0.5330 C   0  0  0  0  0  0  0  0  0  0  0  0
    7.8960  -11.8170    1.0340 N   0  0  0  0  0  0  0  0  0  0  0  0
    6.9170  -12.5830    1.6280 C   0  0  0  0  0  0  0  0  0  0  0  0
    5.8920  -11.8260    1.9460 N   0  0  0  0  0  0  0  0  0  0  0  0
    6.2260  -10.5650    1.5440 N   0  0  0  0  0  0  0  0  0  0  0  0
    7.4300  -10.5470    0.9940 N   0  0  0  0  0  0  0  0  0  0  0  0
    6.8480  -11.2101   -4.0032 H   0  0  0  0  0  0  0  0  0  0  0  0
    6.5756  -12.3364   -5.3561 H   0  0  0  0  0  0  0  0  0  0  0  0
    1.9736  -12.9595   -5.3175 H   0  0  0  0  0  0  0  0  0  0  0  0
    3.3780  -11.1670   -0.5270 H   0  0  0  0  0  0  0  0  0  0  0  0
    0.7068  -12.2381   -1.3884 H   0  0  0  0  0  0  0  0  0  0  0  0
    1.5501  -12.6617    0.1654 H   0  0  0  0  0  0  0  0  0  0  0  0
   -0.5276  -13.1949    0.3221 H   0  0  0  0  0  0  0  0  0  0  0  0
   -2.5716  -13.7654    1.6256 H   0  0  0  0  0  0  0  0  0  0  0  0
   -3.7382  -11.9917    2.9388 H   0  0  0  0  0  0  0  0  0  0  0  0
   -2.8425   -9.6754    2.9366 H   0  0  0  0  0  0  0  0  0  0  0  0
    8.0980  -11.9020   -2.4100 H   0  0  0  0  0  0  0  0  0  0  0  0
    7.3540  -13.8938   -0.7071 H   0  0  0  0  0  0  0  0  0  0  0  0
    8.5718  -14.6985   -1.7584 H   0  0  0  0  0  0  0  0  0  0  0  0
   10.7937  -14.1172   -1.8090 H   0  0  0  0  0  0  0  0  0  0  0  0
   12.7791  -13.2223   -0.6234 H   0  0  0  0  0  0  0  0  0  0  0  0
   12.4826  -11.6716    1.3003 H   0  0  0  0  0  0  0  0  0  0  0  0
   10.1991  -11.0308    2.0435 H   0  0  0  0  0  0  0  0  0  0  0  0
    6.9838  -13.6660    1.8088 H   0  0  0  0  0  0  0  0  0  0  0  0
  1  2  2  0
  2  3  1  0
  3  4  1  0
  4  5  1  0
  5  6  1  0
  5  7  2  0
  7  8  1  0
  8  9  2  0
  9 10  1  0
 10 11  1  0
 11 12  1  0
 12 13  1  0
 12 14  1  0
 12 15  1  0
 15 16  2  0
 16 17  1  0
 17 18  2  0
 18 19  1  0
 19 20  2  0
 20 21  1  0
  9 22  1  0
 22 23  2  0
  2 24  1  0
 24 25  1  0
 25 26  1  0
 26 27  2  0
 27 28  1  0
 28 29  2  0
 29 30  1  0
 30 31  2  0
 31 32  1  0
 32 33  1  0
 33 34  2  0
 34 35  1  0
 35 36  2  0
 22  4  1  0
 31 26  1  0
 36 32  1  0
 20 15  1  0
  3 37  1  0
  3 38  1  0
  7 39  1  0
 10 40  1  0
 11 41  1  0
 11 42  1  0
 16 43  1  0
 17 44  1  0
 18 45  1  0
 19 46  1  0
 24 47  1  0
 25 48  1  0
 25 49  1  0
 27 50  1  0
 28 51  1  0
 29 52  1  0
 30 53  1  0
 33 54  1  0
M  CHG  2  20   1  21  -1
M  END
>  <meeko>  (2) 
{"is_sidechain": [false], "free_energy": -8.646, "intermolecular_energy": -12.463, "internal_energy": -1.138}

$$$$
LIB_DHOBJWJXJBHSOA__M_PUB_ALL__e8__s20260927
     RDKit          3D

 54 57  0  0  0  0  0  0  0  0999 V2000
    6.2550  -12.0630   -4.2700 O   0  0  0  0  0  0  0  0  0  0  0  0
    5.2760  -11.5650   -3.7180 C   0  0  0  0  0  0  0  0  0  0  0  0
    3.8810  -11.5880   -4.3440 C   0  0  0  0  0  0  0  0  0  0  0  0
    2.9670  -12.1540   -3.3550 N   0  0  0  0  0  0  0  0  0  0  0  0
    2.8490  -13.5040   -3.0980 C   0  0  0  0  0  0  0  0  0  0  0  0
    3.6720  -14.6220   -4.1120 Cl  0  0  0  0  0  0  0  0  0  0  0  0
    2.0990  -13.9460   -2.0770 C   0  0  0  0  0  0  0  0  0  0  0  0
    1.4110  -13.1580   -1.1880 N   0  0  0  0  0  0  0  0  0  0  0  0
    1.4800  -11.8680   -1.3690 C   0  0  0  0  0  0  0  0  0  0  0  0
    0.8640  -10.9790   -0.5190 N   0  0  0  0  0  0  0  0  0  0  0  0
    0.3560  -11.3430    0.7990 C   0  0  0  0  0  0  0  0  0  0  0  0
   -0.8340  -10.4560    1.2370 C   0  0  0  0  0  0  0  0  0  0  0  0
   -0.8430  -10.3640    2.6010 F   0  0  0  0  0  0  0  0  0  0  0  0
   -0.5520   -9.1770    0.8220 F   0  0  0  0  0  0  0  0  0  0  0  0
   -2.1480  -10.9200    0.6880 C   0  0  0  0  0  0  0  0  0  0  0  0
   -2.9160  -10.1490   -0.2020 C   0  0  0  0  0  0  0  0  0  0  0  0
   -4.1410  -10.6190   -0.6640 C   0  0  0  0  0  0  0  0  0  0  0  0
   -4.6090  -11.8540   -0.2390 C   0  0  0  0  0  0  0  0  0  0  0  0
   -3.8390  -12.6050    0.6450 C   0  0  0  0  0  0  0  0  0  0  0  0
   -2.6120  -12.1550    1.1150 N   0  0  0  0  0  0  0  0  0  0  0  0
   -1.9380  -12.8890    1.9050 O   0  0  0  0  0  0  0  0  0  0  0  0
    2.2920  -11.2560   -2.5360 C   0  0  0  0  0  0  0  0  0  0  0  0
    2.3340  -10.0330   -2.6340 O   0  0  0  0  0  0  0  0  0  0  0  0
    5.3070  -11.0470   -2.4400 N   0  0  0  0  0  0  0  0  0  0  0  0
    6.4340  -11.2390   -1.5600 C   0  0  0  0  0  0  0  0  0  0  0  0
    6.0240  -12.0960   -0.3780 C   0  0  0  0  0  0  0  0  0  0  0  0
    5.6110  -13.4120   -0.6880 C   0  0  0  0  0  0  0  0  0  0  0  0
    5.1690  -14.2940    0.2950 C   0  0  0  0  0  0  0  0  0  0  0  0
    5.1210  -13.8780    1.6170 C   0  0  0  0  0  0  0  0  0  0  0  0
    5.5080  -12.5810    1.9550 C   0  0  0  0  0  0  0  0  0  0  0  0
    5.9550  -11.6700    0.9740 C   0  0  0  0  0  0  0  0  0  0  0  0
    6.3060  -10.3540    1.3960 N   0  0  0  0  0  0  0  0  0  0  0  0
    7.3430   -9.5490    0.9800 C   0  0  0  0  0  0  0  0  0  0  0  0
    7.3040   -8.4060    1.6250 N   0  0  0  0  0  0  0  0  0  0  0  0
    6.2310   -8.4910    2.4620 N   0  0  0  0  0  0  0  0  0  0  0  0
    5.6210   -9.6590    2.3340 N   0  0  0  0  0  0  0  0  0  0  0  0
    3.5684  -10.5657   -4.6030 H   0  0  0  0  0  0  0  0  0  0  0  0
    3.8785  -12.1904   -5.2644 H   0  0  0  0  0  0  0  0  0  0  0  0
    2.0293  -15.0352   -1.9403 H   0  0  0  0  0  0  0  0  0  0  0  0
    0.9620   -9.9830   -0.7320 H   0  0  0  0  0  0  0  0  0  0  0  0
    0.0245  -12.3915    0.7728 H   0  0  0  0  0  0  0  0  0  0  0  0
    1.1694  -11.1960    1.5248 H   0  0  0  0  0  0  0  0  0  0  0  0
   -2.5460   -9.1681   -0.5351 H   0  0  0  0  0  0  0  0  0  0  0  0
   -4.7363  -10.0139   -1.3636 H   0  0  0  0  0  0  0  0  0  0  0  0
   -5.5770  -12.2353   -0.5963 H   0  0  0  0  0  0  0  0  0  0  0  0
   -4.2133  -13.5833    0.9810 H   0  0  0  0  0  0  0  0  0  0  0  0
    4.4580  -10.6630   -2.0280 H   0  0  0  0  0  0  0  0  0  0  0  0
    7.2451  -11.7391   -2.1095 H   0  0  0  0  0  0  0  0  0  0  0  0
    6.7806  -10.2606   -1.1958 H   0  0  0  0  0  0  0  0  0  0  0  0
    5.6395  -13.7487   -1.7348 H   0  0  0  0  0  0  0  0  0  0  0  0
    4.8599  -15.3144    0.0244 H   0  0  0  0  0  0  0  0  0  0  0  0
    4.7777  -14.5709    2.3993 H   0  0  0  0  0  0  0  0  0  0  0  0
    5.4639  -12.2620    3.0068 H   0  0  0  0  0  0  0  0  0  0  0  0
    8.0913   -9.8224    0.2215 H   0  0  0  0  0  0  0  0  0  0  0  0
  1  2  2  0
  2  3  1  0
  3  4  1  0
  4  5  1  0
  5  6  1  0
  5  7  2  0
  7  8  1  0
  8  9  2  0
  9 10  1  0
 10 11  1  0
 11 12  1  0
 12 13  1  0
 12 14  1  0
 12 15  1  0
 15 16  2  0
 16 17  1  0
 17 18  2  0
 18 19  1  0
 19 20  2  0
 20 21  1  0
  9 22  1  0
 22 23  2  0
  2 24  1  0
 24 25  1  0
 25 26  1  0
 26 27  2  0
 27 28  1  0
 28 29  2  0
 29 30  1  0
 30 31  2  0
 31 32  1  0
 32 33  1  0
 33 34  2  0
 34 35  1  0
 35 36  2  0
 22  4  1  0
 31 26  1  0
 36 32  1  0
 20 15  1  0
  3 37  1  0
  3 38  1  0
  7 39  1  0
 10 40  1  0
 11 41  1  0
 11 42  1  0
 16 43  1  0
 17 44  1  0
 18 45  1  0
 19 46  1  0
 24 47  1  0
 25 48  1  0
 25 49  1  0
 27 50  1  0
 28 51  1  0
 29 52  1  0
 30 53  1  0
 33 54  1  0
M  CHG  2  20   1  21  -1
M  END
>  <meeko>  (3) 
{"is_sidechain": [false], "free_energy": -8.643, "intermolecular_energy": -12.617, "internal_energy": -0.979}

$$$$
LIB_DHOBJWJXJBHSOA__M_PUB_ALL__e8__s20260927
     RDKit          3D

 54 57  0  0  0  0  0  0  0  0999 V2000
    3.7430  -15.6280    0.7330 O   0  0  0  0  0  0  0  0  0  0  0  0
    3.4370  -15.5680   -0.4560 C   0  0  0  0  0  0  0  0  0  0  0  0
    2.6420  -16.6720   -1.1560 C   0  0  0  0  0  0  0  0  0  0  0  0
    1.3520  -16.7780   -0.4780 N   0  0  0  0  0  0  0  0  0  0  0  0
    1.0910  -17.6620    0.5490 C   0  0  0  0  0  0  0  0  0  0  0  0
    2.2710  -18.8460    0.9520 Cl  0  0  0  0  0  0  0  0  0  0  0  0
   -0.0660  -17.6070    1.2250 C   0  0  0  0  0  0  0  0  0  0  0  0
   -1.0760  -16.7010    1.0130 N   0  0  0  0  0  0  0  0  0  0  0  0
   -0.8960  -15.8320    0.0570 C   0  0  0  0  0  0  0  0  0  0  0  0
   -1.8200  -14.8520   -0.2210 N   0  0  0  0  0  0  0  0  0  0  0  0
   -2.9070  -14.4890    0.6830 C   0  0  0  0  0  0  0  0  0  0  0  0
   -3.4600  -13.0710    0.4000 C   0  0  0  0  0  0  0  0  0  0  0  0
   -3.4030  -12.8310   -0.9450 F   0  0  0  0  0  0  0  0  0  0  0  0
   -4.8070  -13.1060    0.6730 F   0  0  0  0  0  0  0  0  0  0  0  0
   -2.7790  -12.0030    1.1990 C   0  0  0  0  0  0  0  0  0  0  0  0
   -2.0200  -12.2800    2.3500 C   0  0  0  0  0  0  0  0  0  0  0  0
   -1.4280  -11.2450    3.0680 C   0  0  0  0  0  0  0  0  0  0  0  0
   -1.5930   -9.9330    2.6480 C   0  0  0  0  0  0  0  0  0  0  0  0
   -2.3500   -9.6750    1.5080 C   0  0  0  0  0  0  0  0  0  0  0  0
   -2.9460  -10.6930    0.7770 N   0  0  0  0  0  0  0  0  0  0  0  0
   -3.6100  -10.4050   -0.2700 O   0  0  0  0  0  0  0  0  0  0  0  0
    0.3910  -15.8280   -0.8030 C   0  0  0  0  0  0  0  0  0  0  0  0
    0.5060  -14.9680   -1.6710 O   0  0  0  0  0  0  0  0  0  0  0  0
    3.6710  -14.4610   -1.2460 N   0  0  0  0  0  0  0  0  0  0  0  0
    4.0970  -13.1990   -0.6930 C   0  0  0  0  0  0  0  0  0  0  0  0
    2.9550  -12.2020   -0.7470 C   0  0  0  0  0  0  0  0  0  0  0  0
    2.3350  -11.9100    0.4890 C   0  0  0  0  0  0  0  0  0  0  0  0
    1.2480  -11.0440    0.5790 C   0  0  0  0  0  0  0  0  0  0  0  0
    0.7480  -10.4510   -0.5700 C   0  0  0  0  0  0  0  0  0  0  0  0
    1.3280  -10.7280   -1.8090 C   0  0  0  0  0  0  0  0  0  0  0  0
    2.4270  -11.6070   -1.9230 C   0  0  0  0  0  0  0  0  0  0  0  0
    2.9450  -11.8610   -3.2270 N   0  0  0  0  0  0  0  0  0  0  0  0
    3.7830  -11.0890   -4.0000 C   0  0  0  0  0  0  0  0  0  0  0  0
    4.0180  -11.6950   -5.1410 N   0  0  0  0  0  0  0  0  0  0  0  0
    3.3160  -12.8630   -5.0900 N   0  0  0  0  0  0  0  0  0  0  0  0
    2.6670  -12.9750   -3.9420 N   0  0  0  0  0  0  0  0  0  0  0  0
    2.4905  -16.4130   -2.2143 H   0  0  0  0  0  0  0  0  0  0  0  0
    3.1837  -17.6284   -1.1122 H   0  0  0  0  0  0  0  0  0  0  0  0
   -0.2194  -18.3529    2.0188 H   0  0  0  0  0  0  0  0  0  0  0  0
   -1.6080  -14.2110   -0.9890 H   0  0  0  0  0  0  0  0  0  0  0  0
   -3.7232  -15.2168    0.5645 H   0  0  0  0  0  0  0  0  0  0  0  0
   -2.5076  -14.4953    1.7079 H   0  0  0  0  0  0  0  0  0  0  0  0
   -1.8935  -13.3202    2.6847 H   0  0  0  0  0  0  0  0  0  0  0  0
   -0.8314  -11.4664    3.9653 H   0  0  0  0  0  0  0  0  0  0  0  0
   -1.1315   -9.1067    3.2086 H   0  0  0  0  0  0  0  0  0  0  0  0
   -2.4793   -8.6339    1.1773 H   0  0  0  0  0  0  0  0  0  0  0  0
    3.3790  -14.4650   -2.2220 H   0  0  0  0  0  0  0  0  0  0  0  0
    4.4057  -13.3442    0.3528 H   0  0  0  0  0  0  0  0  0  0  0  0
    4.9438  -12.8131   -1.2795 H   0  0  0  0  0  0  0  0  0  0  0  0
    2.7217  -12.3798    1.4054 H   0  0  0  0  0  0  0  0  0  0  0  0
    0.7890  -10.8318    1.5559 H   0  0  0  0  0  0  0  0  0  0  0  0
   -0.1066   -9.7615   -0.5052 H   0  0  0  0  0  0  0  0  0  0  0  0
    0.9212  -10.2525   -2.7137 H   0  0  0  0  0  0  0  0  0  0  0  0
    4.1938  -10.1118   -3.7061 H   0  0  0  0  0  0  0  0  0  0  0  0
  1  2  2  0
  2  3  1  0
  3  4  1  0
  4  5  1  0
  5  6  1  0
  5  7  2  0
  7  8  1  0
  8  9  2  0
  9 10  1  0
 10 11  1  0
 11 12  1  0
 12 13  1  0
 12 14  1  0
 12 15  1  0
 15 16  2  0
 16 17  1  0
 17 18  2  0
 18 19  1  0
 19 20  2  0
 20 21  1  0
  9 22  1  0
 22 23  2  0
  2 24  1  0
 24 25  1  0
 25 26  1  0
 26 27  2  0
 27 28  1  0
 28 29  2  0
 29 30  1  0
 30 31  2  0
 31 32  1  0
 32 33  1  0
 33 34  2  0
 34 35  1  0
 35 36  2  0
 22  4  1  0
 31 26  1  0
 36 32  1  0
 20 15  1  0
  3 37  1  0
  3 38  1  0
  7 39  1  0
 10 40  1  0
 11 41  1  0
 11 42  1  0
 16 43  1  0
 17 44  1  0
 18 45  1  0
 19 46  1  0
 24 47  1  0
 25 48  1  0
 25 49  1  0
 27 50  1  0
 28 51  1  0
 29 52  1  0
 30 53  1  0
 33 54  1  0
M  CHG  2  20   1  21  -1
M  END
>  <meeko>  (4) 
{"is_sidechain": [false], "free_energy": -8.604, "intermolecular_energy": -11.195, "internal_energy": -2.344}

$$$$
LIB_DHOBJWJXJBHSOA__M_PUB_ALL__e8__s20260927
     RDKit          3D

 54 57  0  0  0  0  0  0  0  0999 V2000
   -1.6340  -18.2010    4.7740 O   0  0  0  0  0  0  0  0  0  0  0  0
   -1.2220  -17.4800    5.6800 C   0  0  0  0  0  0  0  0  0  0  0  0
    0.2560  -17.1150    5.8330 C   0  0  0  0  0  0  0  0  0  0  0  0
    0.6310  -16.3150    4.6700 N   0  0  0  0  0  0  0  0  0  0  0  0
    1.2580  -16.8260    3.5520 C   0  0  0  0  0  0  0  0  0  0  0  0
    1.8100  -18.4540    3.5750 Cl  0  0  0  0  0  0  0  0  0  0  0  0
    1.4420  -16.0670    2.4610 C   0  0  0  0  0  0  0  0  0  0  0  0
    1.0320  -14.7650    2.3120 N   0  0  0  0  0  0  0  0  0  0  0  0
    0.4290  -14.2170    3.3290 C   0  0  0  0  0  0  0  0  0  0  0  0
   -0.0600  -12.9320    3.2830 N   0  0  0  0  0  0  0  0  0  0  0  0
   -0.2370  -12.1820    2.0440 C   0  0  0  0  0  0  0  0  0  0  0  0
   -1.2960  -11.0620    2.1800 C   0  0  0  0  0  0  0  0  0  0  0  0
   -1.6640  -10.9520    3.4920 F   0  0  0  0  0  0  0  0  0  0  0  0
   -0.6570   -9.8740    1.9150 F   0  0  0  0  0  0  0  0  0  0  0  0
   -2.4720  -11.2500    1.2710 C   0  0  0  0  0  0  0  0  0  0  0  0
   -2.7680  -10.3690    0.2160 C   0  0  0  0  0  0  0  0  0  0  0  0
   -3.8880  -10.5790   -0.5830 C   0  0  0  0  0  0  0  0  0  0  0  0
   -4.7190  -11.6630   -0.3330 C   0  0  0  0  0  0  0  0  0  0  0  0
   -4.4140  -12.5250    0.7170 C   0  0  0  0  0  0  0  0  0  0  0  0
   -3.3000  -12.3340    1.5240 N   0  0  0  0  0  0  0  0  0  0  0  0
   -3.0540  -13.1630    2.4570 O   0  0  0  0  0  0  0  0  0  0  0  0
    0.1940  -14.9950    4.6470 C   0  0  0  0  0  0  0  0  0  0  0  0
   -0.4010  -14.4270    5.5580 O   0  0  0  0  0  0  0  0  0  0  0  0
   -2.0520  -16.8330    6.5730 N   0  0  0  0  0  0  0  0  0  0  0  0
   -3.4820  -16.7740    6.3880 C   0  0  0  0  0  0  0  0  0  0  0  0
   -4.1110  -15.9590    7.5020 C   0  0  0  0  0  0  0  0  0  0  0  0
   -3.2800  -15.6950    8.6150 C   0  0  0  0  0  0  0  0  0  0  0  0
   -3.7410  -14.9940    9.7260 C   0  0  0  0  0  0  0  0  0  0  0  0
   -5.0520  -14.5450    9.7570 C   0  0  0  0  0  0  0  0  0  0  0  0
   -5.9040  -14.8000    8.6810 C   0  0  0  0  0  0  0  0  0  0  0  0
   -5.4580  -15.5130    7.5470 C   0  0  0  0  0  0  0  0  0  0  0  0
   -6.3970  -15.7590    6.5020 N   0  0  0  0  0  0  0  0  0  0  0  0
   -6.7110  -14.9830    5.4080 C   0  0  0  0  0  0  0  0  0  0  0  0
   -7.6320  -15.5820    4.6890 N   0  0  0  0  0  0  0  0  0  0  0  0
   -7.9070  -16.7490    5.3390 N   0  0  0  0  0  0  0  0  0  0  0  0
   -7.1690  -16.8670    6.4320 N   0  0  0  0  0  0  0  0  0  0  0  0
    0.4061  -16.5327    6.7541 H   0  0  0  0  0  0  0  0  0  0  0  0
    0.8754  -18.0218    5.8967 H   0  0  0  0  0  0  0  0  0  0  0  0
    1.9673  -16.5281    1.6116 H   0  0  0  0  0  0  0  0  0  0  0  0
   -0.5160  -12.5730    4.1240 H   0  0  0  0  0  0  0  0  0  0  0  0
    0.7250  -11.7269    1.7658 H   0  0  0  0  0  0  0  0  0  0  0  0
   -0.5879  -12.8843    1.2735 H   0  0  0  0  0  0  0  0  0  0  0  0
   -2.1106   -9.5089    0.0210 H   0  0  0  0  0  0  0  0  0  0  0  0
   -4.1140   -9.8890   -1.4093 H   0  0  0  0  0  0  0  0  0  0  0  0
   -5.6077  -11.8386   -0.9571 H   0  0  0  0  0  0  0  0  0  0  0  0
   -5.0747  -13.3823    0.9131 H   0  0  0  0  0  0  0  0  0  0  0  0
   -1.6530  -16.2330    7.2930 H   0  0  0  0  0  0  0  0  0  0  0  0
   -3.7058  -16.3027    5.4196 H   0  0  0  0  0  0  0  0  0  0  0  0
   -3.8932  -17.7941    6.4076 H   0  0  0  0  0  0  0  0  0  0  0  0
   -2.2401  -16.0535    8.6028 H   0  0  0  0  0  0  0  0  0  0  0  0
   -3.0688  -14.7976   10.5743 H   0  0  0  0  0  0  0  0  0  0  0  0
   -5.4213  -13.9873   10.6302 H   0  0  0  0  0  0  0  0  0  0  0  0
   -6.9423  -14.4386    8.7173 H   0  0  0  0  0  0  0  0  0  0  0  0
   -6.2584  -14.0085    5.1723 H   0  0  0  0  0  0  0  0  0  0  0  0
  1  2  2  0
  2  3  1  0
  3  4  1  0
  4  5  1  0
  5  6  1  0
  5  7  2  0
  7  8  1  0
  8  9  2  0
  9 10  1  0
 10 11  1  0
 11 12  1  0
 12 13  1  0
 12 14  1  0
 12 15  1  0
 15 16  2  0
 16 17  1  0
 17 18  2  0
 18 19  1  0
 19 20  2  0
 20 21  1  0
  9 22  1  0
 22 23  2  0
  2 24  1  0
 24 25  1  0
 25 26  1  0
 26 27  2  0
 27 28  1  0
 28 29  2  0
 29 30  1  0
 30 31  2  0
 31 32  1  0
 32 33  1  0
 33 34  2  0
 34 35  1  0
 35 36  2  0
 22  4  1  0
 31 26  1  0
 36 32  1  0
 20 15  1  0
  3 37  1  0
  3 38  1  0
  7 39  1  0
 10 40  1  0
 11 41  1  0
 11 42  1  0
 16 43  1  0
 17 44  1  0
 18 45  1  0
 19 46  1  0
 24 47  1  0
 25 48  1  0
 25 49  1  0
 27 50  1  0
 28 51  1  0
 29 52  1  0
 30 53  1  0
 33 54  1  0
M  CHG  2  20   1  21  -1
M  END
>  <meeko>  (5) 
{"is_sidechain": [false], "free_energy": -8.503, "intermolecular_energy": -11.902, "internal_energy": -1.489}

$$$$
LIB_DHOBJWJXJBHSOA__M_PUB_ALL__e8__s20260927
     RDKit          3D

 54 57  0  0  0  0  0  0  0  0999 V2000
    8.5690  -13.4210    0.4540 O   0  0  0  0  0  0  0  0  0  0  0  0
    8.7840  -12.2150    0.5550 C   0  0  0  0  0  0  0  0  0  0  0  0
    7.6760  -11.2070    0.8680 C   0  0  0  0  0  0  0  0  0  0  0  0
    6.4630  -11.6690    0.1990 N   0  0  0  0  0  0  0  0  0  0  0  0
    5.4610  -12.3830    0.8240 C   0  0  0  0  0  0  0  0  0  0  0  0
    5.7090  -12.9370    2.4320 Cl  0  0  0  0  0  0  0  0  0  0  0  0
    4.3090  -12.6490    0.1900 C   0  0  0  0  0  0  0  0  0  0  0  0
    3.9830  -12.2470   -1.0820 N   0  0  0  0  0  0  0  0  0  0  0  0
    4.8830  -11.5640   -1.7330 C   0  0  0  0  0  0  0  0  0  0  0  0
    4.6550  -11.0760   -2.9990 N   0  0  0  0  0  0  0  0  0  0  0  0
    3.3300  -10.9930   -3.6030 C   0  0  0  0  0  0  0  0  0  0  0  0
    3.3000  -11.5710   -5.0390 C   0  0  0  0  0  0  0  0  0  0  0  0
    2.0130  -11.9020   -5.3600 F   0  0  0  0  0  0  0  0  0  0  0  0
    3.5970  -10.5340   -5.8920 F   0  0  0  0  0  0  0  0  0  0  0  0
    4.2490  -12.7130   -5.2340 C   0  0  0  0  0  0  0  0  0  0  0  0
    5.3650  -12.6390   -6.0860 C   0  0  0  0  0  0  0  0  0  0  0  0
    6.2010  -13.7390   -6.2480 C   0  0  0  0  0  0  0  0  0  0  0  0
    5.9280  -14.9170   -5.5660 C   0  0  0  0  0  0  0  0  0  0  0  0
    4.8180  -14.9760   -4.7280 C   0  0  0  0  0  0  0  0  0  0  0  0
    3.9740  -13.8880   -4.5510 N   0  0  0  0  0  0  0  0  0  0  0  0
    2.9840  -13.9870   -3.7580 O   0  0  0  0  0  0  0  0  0  0  0  0
    6.2580  -11.2300   -1.1040 C   0  0  0  0  0  0  0  0  0  0  0  0
    7.0510  -10.5640   -1.7630 O   0  0  0  0  0  0  0  0  0  0  0  0
   10.0470  -11.6620    0.5170 N   0  0  0  0  0  0  0  0  0  0  0  0
   11.2410  -12.4700    0.5710 C   0  0  0  0  0  0  0  0  0  0  0  0
   12.0170  -12.3290   -0.7250 C   0  0  0  0  0  0  0  0  0  0  0  0
   13.0200  -11.3330   -0.7360 C   0  0  0  0  0  0  0  0  0  0  0  0
   13.7800  -11.0690   -1.8720 C   0  0  0  0  0  0  0  0  0  0  0  0
   13.5510  -11.7900   -3.0330 C   0  0  0  0  0  0  0  0  0  0  0  0
   12.5590  -12.7710   -3.0610 C   0  0  0  0  0  0  0  0  0  0  0  0
   11.7740  -13.0530   -1.9220 C   0  0  0  0  0  0  0  0  0  0  0  0
   10.7610  -14.0490   -2.0400 N   0  0  0  0  0  0  0  0  0  0  0  0
    9.5750  -14.0120   -2.7390 C   0  0  0  0  0  0  0  0  0  0  0  0
    8.9320  -15.1460   -2.5830 N   0  0  0  0  0  0  0  0  0  0  0  0
    9.7190  -15.9080   -1.7700 N   0  0  0  0  0  0  0  0  0  0  0  0
   10.8230  -15.2590   -1.4370 N   0  0  0  0  0  0  0  0  0  0  0  0
    7.5100  -11.1560    1.9542 H   0  0  0  0  0  0  0  0  0  0  0  0
    7.9545  -10.2025    0.5167 H   0  0  0  0  0  0  0  0  0  0  0  0
    3.5602  -13.2408    0.7368 H   0  0  0  0  0  0  0  0  0  0  0  0
    5.4130  -10.5540   -3.4440 H   0  0  0  0  0  0  0  0  0  0  0  0
    2.6214  -11.5580   -2.9797 H   0  0  0  0  0  0  0  0  0  0  0  0
    3.0542   -9.9298   -3.6630 H   0  0  0  0  0  0  0  0  0  0  0  0
    5.5783  -11.7057   -6.6277 H   0  0  0  0  0  0  0  0  0  0  0  0
    7.0745  -13.6757   -6.9135 H   0  0  0  0  0  0  0  0  0  0  0  0
    6.5813  -15.7937   -5.6864 H   0  0  0  0  0  0  0  0  0  0  0  0
    4.6034  -15.9115   -4.1906 H   0  0  0  0  0  0  0  0  0  0  0  0
   10.1640  -10.6560    0.6240 H   0  0  0  0  0  0  0  0  0  0  0  0
   11.8691  -12.1375    1.4106 H   0  0  0  0  0  0  0  0  0  0  0  0
   10.9598  -13.5240    0.7127 H   0  0  0  0  0  0  0  0  0  0  0  0
   13.2051  -10.7504    0.1785 H   0  0  0  0  0  0  0  0  0  0  0  0
   14.5583  -10.2921   -1.8482 H   0  0  0  0  0  0  0  0  0  0  0  0
   14.1512  -11.5890   -3.9326 H   0  0  0  0  0  0  0  0  0  0  0  0
   12.3852  -13.3357   -3.9888 H   0  0  0  0  0  0  0  0  0  0  0  0
    9.2198  -13.1604   -3.3379 H   0  0  0  0  0  0  0  0  0  0  0  0
  1  2  2  0
  2  3  1  0
  3  4  1  0
  4  5  1  0
  5  6  1  0
  5  7  2  0
  7  8  1  0
  8  9  2  0
  9 10  1  0
 10 11  1  0
 11 12  1  0
 12 13  1  0
 12 14  1  0
 12 15  1  0
 15 16  2  0
 16 17  1  0
 17 18  2  0
 18 19  1  0
 19 20  2  0
 20 21  1  0
  9 22  1  0
 22 23  2  0
  2 24  1  0
 24 25  1  0
 25 26  1  0
 26 27  2  0
 27 28  1  0
 28 29  2  0
 29 30  1  0
 30 31  2  0
 31 32  1  0
 32 33  1  0
 33 34  2  0
 34 35  1  0
 35 36  2  0
 22  4  1  0
 31 26  1  0
 36 32  1  0
 20 15  1  0
  3 37  1  0
  3 38  1  0
  7 39  1  0
 10 40  1  0
 11 41  1  0
 11 42  1  0
 16 43  1  0
 17 44  1  0
 18 45  1  0
 19 46  1  0
 24 47  1  0
 25 48  1  0
 25 49  1  0
 27 50  1  0
 28 51  1  0
 29 52  1  0
 30 53  1  0
 33 54  1  0
M  CHG  2  20   1  21  -1
M  END
>  <meeko>  (6) 
{"is_sidechain": [false], "free_energy": -8.403, "intermolecular_energy": -11.666, "internal_energy": -1.578}

$$$$
LIB_DHOBJWJXJBHSOA__M_PUB_ALL__e8__s20260927
     RDKit          3D

 54 57  0  0  0  0  0  0  0  0999 V2000
    4.4270  -16.0370   -0.8480 O   0  0  0  0  0  0  0  0  0  0  0  0
    3.4100  -16.0920   -1.5350 C   0  0  0  0  0  0  0  0  0  0  0  0
    2.0800  -16.6160   -0.9910 C   0  0  0  0  0  0  0  0  0  0  0  0
    1.6580  -15.7140    0.0770 N   0  0  0  0  0  0  0  0  0  0  0  0
    1.9610  -15.9010    1.4100 C   0  0  0  0  0  0  0  0  0  0  0  0
    2.7160  -17.3670    1.8970 Cl  0  0  0  0  0  0  0  0  0  0  0  0
    1.6680  -14.9590    2.3200 C   0  0  0  0  0  0  0  0  0  0  0  0
    1.0850  -13.7440    2.0560 N   0  0  0  0  0  0  0  0  0  0  0  0
    0.7740  -13.4970    0.8140 C   0  0  0  0  0  0  0  0  0  0  0  0
    0.2210  -12.2990    0.4250 N   0  0  0  0  0  0  0  0  0  0  0  0
    0.2170  -11.1040    1.2620 C   0  0  0  0  0  0  0  0  0  0  0  0
   -1.1450  -10.8790    1.9610 C   0  0  0  0  0  0  0  0  0  0  0  0
   -1.1920  -11.6330    3.1000 F   0  0  0  0  0  0  0  0  0  0  0  0
   -1.1480   -9.5840    2.4220 F   0  0  0  0  0  0  0  0  0  0  0  0
   -2.3170  -11.1300    1.0620 C   0  0  0  0  0  0  0  0  0  0  0  0
   -2.8250  -10.1570    0.1840 C   0  0  0  0  0  0  0  0  0  0  0  0
   -3.9310  -10.4360   -0.6130 C   0  0  0  0  0  0  0  0  0  0  0  0
   -4.5390  -11.6810   -0.5350 C   0  0  0  0  0  0  0  0  0  0  0  0
   -4.0260  -12.6340    0.3420 C   0  0  0  0  0  0  0  0  0  0  0  0
   -2.9220  -12.3750    1.1420 N   0  0  0  0  0  0  0  0  0  0  0  0
   -2.4800  -13.2870    1.9110 O   0  0  0  0  0  0  0  0  0  0  0  0
    1.0400  -14.5290   -0.3090 C   0  0  0  0  0  0  0  0  0  0  0  0
    0.7440  -14.2230   -1.4600 O   0  0  0  0  0  0  0  0  0  0  0  0
    3.3290  -15.5820   -2.8150 N   0  0  0  0  0  0  0  0  0  0  0  0
    4.3630  -14.7500   -3.3770 C   0  0  0  0  0  0  0  0  0  0  0  0
    3.8840  -13.3120   -3.4490 C   0  0  0  0  0  0  0  0  0  0  0  0
    3.2740  -12.9270   -4.6640 C   0  0  0  0  0  0  0  0  0  0  0  0
    2.8250  -11.6270   -4.8820 C   0  0  0  0  0  0  0  0  0  0  0  0
    2.9820  -10.6730   -3.8880 C   0  0  0  0  0  0  0  0  0  0  0  0
    3.5920  -11.0160   -2.6810 C   0  0  0  0  0  0  0  0  0  0  0  0
    4.0580  -12.3270   -2.4420 C   0  0  0  0  0  0  0  0  0  0  0  0
    4.6970  -12.5900   -1.1940 N   0  0  0  0  0  0  0  0  0  0  0  0
    6.0330  -12.7730   -0.9180 C   0  0  0  0  0  0  0  0  0  0  0  0
    6.1960  -12.9900    0.3670 N   0  0  0  0  0  0  0  0  0  0  0  0
    4.9450  -12.9480    0.9090 N   0  0  0  0  0  0  0  0  0  0  0  0
    4.0340  -12.7080   -0.0210 N   0  0  0  0  0  0  0  0  0  0  0  0
    1.3257  -16.6294   -1.7915 H   0  0  0  0  0  0  0  0  0  0  0  0
    2.1938  -17.6417   -0.6102 H   0  0  0  0  0  0  0  0  0  0  0  0
    1.9165  -15.1794    3.3687 H   0  0  0  0  0  0  0  0  0  0  0  0
    0.0010  -12.1840   -0.5670 H   0  0  0  0  0  0  0  0  0  0  0  0
    0.9961  -11.2089    2.0314 H   0  0  0  0  0  0  0  0  0  0  0  0
    0.4076  -10.2378    0.6114 H   0  0  0  0  0  0  0  0  0  0  0  0
   -2.3452   -9.1688    0.1266 H   0  0  0  0  0  0  0  0  0  0  0  0
   -4.3218   -9.6728   -1.3021 H   0  0  0  0  0  0  0  0  0  0  0  0
   -5.4154  -11.9125   -1.1581 H   0  0  0  0  0  0  0  0  0  0  0  0
   -4.5098  -13.6200    0.4021 H   0  0  0  0  0  0  0  0  0  0  0  0
    2.4510  -15.6420   -3.3290 H   0  0  0  0  0  0  0  0  0  0  0  0
    5.2603  -14.8046   -2.7431 H   0  0  0  0  0  0  0  0  0  0  0  0
    4.6028  -15.1039   -4.3905 H   0  0  0  0  0  0  0  0  0  0  0  0
    3.1503  -13.6756   -5.4604 H   0  0  0  0  0  0  0  0  0  0  0  0
    2.3488  -11.3586   -5.8366 H   0  0  0  0  0  0  0  0  0  0  0  0
    2.6254   -9.6453   -4.0512 H   0  0  0  0  0  0  0  0  0  0  0  0
    3.7121  -10.2502   -1.9006 H   0  0  0  0  0  0  0  0  0  0  0  0
    6.8426  -12.7421   -1.6620 H   0  0  0  0  0  0  0  0  0  0  0  0
  1  2  2  0
  2  3  1  0
  3  4  1  0
  4  5  1  0
  5  6  1  0
  5  7  2  0
  7  8  1  0
  8  9  2  0
  9 10  1  0
 10 11  1  0
 11 12  1  0
 12 13  1  0
 12 14  1  0
 12 15  1  0
 15 16  2  0
 16 17  1  0
 17 18  2  0
 18 19  1  0
 19 20  2  0
 20 21  1  0
  9 22  1  0
 22 23  2  0
  2 24  1  0
 24 25  1  0
 25 26  1  0
 26 27  2  0
 27 28  1  0
 28 29  2  0
 29 30  1  0
 30 31  2  0
 31 32  1  0
 32 33  1  0
 33 34  2  0
 34 35  1  0
 35 36  2  0
 22  4  1  0
 31 26  1  0
 36 32  1  0
 20 15  1  0
  3 37  1  0
  3 38  1  0
  7 39  1  0
 10 40  1  0
 11 41  1  0
 11 42  1  0
 16 43  1  0
 17 44  1  0
 18 45  1  0
 19 46  1  0
 24 47  1  0
 25 48  1  0
 25 49  1  0
 27 50  1  0
 28 51  1  0
 29 52  1  0
 30 53  1  0
 33 54  1  0
M  CHG  2  20   1  21  -1
M  END
>  <meeko>  (7) 
{"is_sidechain": [false], "free_energy": -8.306, "intermolecular_energy": -11.06, "internal_energy": -2.041}

$$$$
LIB_DHOBJWJXJBHSOA__M_PUB_ALL__e8__s20260927
     RDKit          3D

 54 57  0  0  0  0  0  0  0  0999 V2000
   -0.1770  -14.2090    4.3180 O   0  0  0  0  0  0  0  0  0  0  0  0
   -0.5330  -14.5910    3.2060 C   0  0  0  0  0  0  0  0  0  0  0  0
   -0.2890  -16.0180    2.7120 C   0  0  0  0  0  0  0  0  0  0  0  0
    0.4230  -15.9240    1.4400 N   0  0  0  0  0  0  0  0  0  0  0  0
   -0.1900  -15.9960    0.2050 C   0  0  0  0  0  0  0  0  0  0  0  0
   -1.8580  -16.4070    0.1240 Cl  0  0  0  0  0  0  0  0  0  0  0  0
    0.5000  -15.7570   -0.9190 C   0  0  0  0  0  0  0  0  0  0  0  0
    1.8260  -15.4030   -0.9860 N   0  0  0  0  0  0  0  0  0  0  0  0
    2.4690  -15.3120    0.1440 C   0  0  0  0  0  0  0  0  0  0  0  0
    3.7880  -14.9280    0.2050 N   0  0  0  0  0  0  0  0  0  0  0  0
    4.4960  -14.2990   -0.9050 C   0  0  0  0  0  0  0  0  0  0  0  0
    4.5100  -12.7550   -0.7950 C   0  0  0  0  0  0  0  0  0  0  0  0
    3.8040  -12.3810    0.3140 F   0  0  0  0  0  0  0  0  0  0  0  0
    5.8030  -12.3880   -0.5030 F   0  0  0  0  0  0  0  0  0  0  0  0
    4.0270  -12.0710   -2.0370 C   0  0  0  0  0  0  0  0  0  0  0  0
    2.7920  -11.4040   -2.1070 C   0  0  0  0  0  0  0  0  0  0  0  0
    2.3820  -10.8050   -3.2940 C   0  0  0  0  0  0  0  0  0  0  0  0
    3.1970  -10.8700   -4.4160 C   0  0  0  0  0  0  0  0  0  0  0  0
    4.4160  -11.5380   -4.3310 C   0  0  0  0  0  0  0  0  0  0  0  0
    4.8440  -12.1390   -3.1560 N   0  0  0  0  0  0  0  0  0  0  0  0
    5.9760  -12.7180   -3.1250 O   0  0  0  0  0  0  0  0  0  0  0  0
    1.7730  -15.6000    1.4980 C   0  0  0  0  0  0  0  0  0  0  0  0
    2.4310  -15.4730    2.5260 O   0  0  0  0  0  0  0  0  0  0  0  0
   -1.2850  -13.8210    2.3430 N   0  0  0  0  0  0  0  0  0  0  0  0
   -1.9030  -12.5850    2.7570 C   0  0  0  0  0  0  0  0  0  0  0  0
   -2.8220  -12.0780    1.6620 C   0  0  0  0  0  0  0  0  0  0  0  0
   -4.0250  -12.7990    1.4870 C   0  0  0  0  0  0  0  0  0  0  0  0
   -4.9420  -12.4680    0.4920 C   0  0  0  0  0  0  0  0  0  0  0  0
   -4.6740  -11.4090   -0.3620 C   0  0  0  0  0  0  0  0  0  0  0  0
   -3.4880  -10.6860   -0.2260 C   0  0  0  0  0  0  0  0  0  0  0  0
   -2.5440  -11.0070    0.7730 C   0  0  0  0  0  0  0  0  0  0  0  0
   -1.3440  -10.2380    0.8280 N   0  0  0  0  0  0  0  0  0  0  0  0
   -0.1650  -10.4060    0.1370 C   0  0  0  0  0  0  0  0  0  0  0  0
    0.6910   -9.4730    0.4840 N   0  0  0  0  0  0  0  0  0  0  0  0
    0.0460   -8.7080    1.4110 N   0  0  0  0  0  0  0  0  0  0  0  0
   -1.1800   -9.1580    1.6260 N   0  0  0  0  0  0  0  0  0  0  0  0
    0.3192  -16.5703    3.4435 H   0  0  0  0  0  0  0  0  0  0  0  0
   -1.2415  -16.5534    2.5854 H   0  0  0  0  0  0  0  0  0  0  0  0
   -0.0427  -15.8526   -1.8710 H   0  0  0  0  0  0  0  0  0  0  0  0
    4.2230  -14.8860    1.1290 H   0  0  0  0  0  0  0  0  0  0  0  0
    5.5343  -14.6622   -0.9133 H   0  0  0  0  0  0  0  0  0  0  0  0
    3.9693  -14.5649   -1.8333 H   0  0  0  0  0  0  0  0  0  0  0  0
    2.1457  -11.3552   -1.2182 H   0  0  0  0  0  0  0  0  0  0  0  0
    1.4156  -10.2818   -3.3432 H   0  0  0  0  0  0  0  0  0  0  0  0
    2.8840  -10.3999   -5.3600 H   0  0  0  0  0  0  0  0  0  0  0  0
    5.0588  -11.5907   -5.2221 H   0  0  0  0  0  0  0  0  0  0  0  0
   -1.5650  -14.2000    1.4400 H   0  0  0  0  0  0  0  0  0  0  0  0
   -2.4870  -12.7576    3.6730 H   0  0  0  0  0  0  0  0  0  0  0  0
   -1.1216  -11.8355    2.9513 H   0  0  0  0  0  0  0  0  0  0  0  0
   -4.2432  -13.6451    2.1552 H   0  0  0  0  0  0  0  0  0  0  0  0
   -5.8733  -13.0434    0.3844 H   0  0  0  0  0  0  0  0  0  0  0  0
   -5.3961  -11.1388   -1.1466 H   0  0  0  0  0  0  0  0  0  0  0  0
   -3.2849   -9.8495   -0.9109 H   0  0  0  0  0  0  0  0  0  0  0  0
    0.0304  -11.2026   -0.5960 H   0  0  0  0  0  0  0  0  0  0  0  0
  1  2  2  0
  2  3  1  0
  3  4  1  0
  4  5  1  0
  5  6  1  0
  5  7  2  0
  7  8  1  0
  8  9  2  0
  9 10  1  0
 10 11  1  0
 11 12  1  0
 12 13  1  0
 12 14  1  0
 12 15  1  0
 15 16  2  0
 16 17  1  0
 17 18  2  0
 18 19  1  0
 19 20  2  0
 20 21  1  0
  9 22  1  0
 22 23  2  0
  2 24  1  0
 24 25  1  0
 25 26  1  0
 26 27  2  0
 27 28  1  0
 28 29  2  0
 29 30  1  0
 30 31  2  0
 31 32  1  0
 32 33  1  0
 33 34  2  0
 34 35  1  0
 35 36  2  0
 22  4  1  0
 31 26  1  0
 36 32  1  0
 20 15  1  0
  3 37  1  0
  3 38  1  0
  7 39  1  0
 10 40  1  0
 11 41  1  0
 11 42  1  0
 16 43  1  0
 17 44  1  0
 18 45  1  0
 19 46  1  0
 24 47  1  0
 25 48  1  0
 25 49  1  0
 27 50  1  0
 28 51  1  0
 29 52  1  0
 30 53  1  0
 33 54  1  0
M  CHG  2  20   1  21  -1
M  END
>  <meeko>  (8) 
{"is_sidechain": [false], "free_energy": -8.256, "intermolecular_energy": -11.699, "internal_energy": -1.329}

$$$$
LIB_DHOBJWJXJBHSOA__M_PUB_ALL__e8__s20260927
     RDKit          3D

 54 57  0  0  0  0  0  0  0  0999 V2000
    2.7030  -14.0710   -1.0070 O   0  0  0  0  0  0  0  0  0  0  0  0
    1.4830  -14.1090   -1.1460 C   0  0  0  0  0  0  0  0  0  0  0  0
    0.7750  -15.2550   -1.8700 C   0  0  0  0  0  0  0  0  0  0  0  0
    0.2840  -16.1790   -0.8500 N   0  0  0  0  0  0  0  0  0  0  0  0
    1.0680  -17.1290   -0.2290 C   0  0  0  0  0  0  0  0  0  0  0  0
    2.6700  -17.3920   -0.7980 Cl  0  0  0  0  0  0  0  0  0  0  0  0
    0.5930  -17.8460    0.8000 C   0  0  0  0  0  0  0  0  0  0  0  0
   -0.6560  -17.7180    1.3570 N   0  0  0  0  0  0  0  0  0  0  0  0
   -1.4510  -16.8350    0.8220 C   0  0  0  0  0  0  0  0  0  0  0  0
   -2.7110  -16.5910    1.3180 N   0  0  0  0  0  0  0  0  0  0  0  0
   -3.1600  -17.0410    2.6320 C   0  0  0  0  0  0  0  0  0  0  0  0
   -3.1360  -15.9050    3.6830 C   0  0  0  0  0  0  0  0  0  0  0  0
   -2.1330  -16.1480    4.5790 F   0  0  0  0  0  0  0  0  0  0  0  0
   -2.7280  -14.7660    3.0300 F   0  0  0  0  0  0  0  0  0  0  0  0
   -4.4600  -15.6930    4.3510 C   0  0  0  0  0  0  0  0  0  0  0  0
   -5.3490  -14.6720    3.9730 C   0  0  0  0  0  0  0  0  0  0  0  0
   -6.5560  -14.5060    4.6440 C   0  0  0  0  0  0  0  0  0  0  0  0
   -6.8820  -15.3500    5.6960 C   0  0  0  0  0  0  0  0  0  0  0  0
   -5.9890  -16.3550    6.0610 C   0  0  0  0  0  0  0  0  0  0  0  0
   -4.7810  -16.5390    5.4020 N   0  0  0  0  0  0  0  0  0  0  0  0
   -4.0110  -17.4850    5.7610 O   0  0  0  0  0  0  0  0  0  0  0  0
   -1.0120  -15.9780   -0.3900 C   0  0  0  0  0  0  0  0  0  0  0  0
   -1.8020  -15.1480   -0.8310 O   0  0  0  0  0  0  0  0  0  0  0  0
    0.6240  -13.1960   -0.5680 N   0  0  0  0  0  0  0  0  0  0  0  0
    1.0650  -12.2470    0.4240 C   0  0  0  0  0  0  0  0  0  0  0  0
   -0.1320  -11.6910    1.1720 C   0  0  0  0  0  0  0  0  0  0  0  0
   -0.7430  -10.5540    0.5950 C   0  0  0  0  0  0  0  0  0  0  0  0
   -1.8250   -9.9170    1.1960 C   0  0  0  0  0  0  0  0  0  0  0  0
   -2.3200  -10.3970    2.3980 C   0  0  0  0  0  0  0  0  0  0  0  0
   -1.7320  -11.5090    3.0030 C   0  0  0  0  0  0  0  0  0  0  0  0
   -0.6320  -12.1670    2.4120 C   0  0  0  0  0  0  0  0  0  0  0  0
   -0.0680  -13.2780    3.1060 N   0  0  0  0  0  0  0  0  0  0  0  0
    0.5670  -14.3920    2.6040 C   0  0  0  0  0  0  0  0  0  0  0  0
    0.9370  -15.1750    3.5910 N   0  0  0  0  0  0  0  0  0  0  0  0
    0.5260  -14.5500    4.7310 N   0  0  0  0  0  0  0  0  0  0  0  0
   -0.0800  -13.4070    4.4530 N   0  0  0  0  0  0  0  0  0  0  0  0
   -0.0672  -14.8639   -2.4598 H   0  0  0  0  0  0  0  0  0  0  0  0
    1.4656  -15.7660   -2.5570 H   0  0  0  0  0  0  0  0  0  0  0  0
    1.2620  -18.6026    1.2359 H   0  0  0  0  0  0  0  0  0  0  0  0
   -3.2760  -15.8860    0.8390 H   0  0  0  0  0  0  0  0  0  0  0  0
   -4.1892  -17.4191    2.5436 H   0  0  0  0  0  0  0  0  0  0  0  0
   -2.4702  -17.8276    2.9716 H   0  0  0  0  0  0  0  0  0  0  0  0
   -5.0887  -14.0003    3.1417 H   0  0  0  0  0  0  0  0  0  0  0  0
   -7.2501  -13.7080    4.3416 H   0  0  0  0  0  0  0  0  0  0  0  0
   -7.8331  -15.2271    6.2347 H   0  0  0  0  0  0  0  0  0  0  0  0
   -6.2487  -17.0224    6.8959 H   0  0  0  0  0  0  0  0  0  0  0  0
   -0.3810  -13.2900   -0.7060 H   0  0  0  0  0  0  0  0  0  0  0  0
    1.7389  -12.7481    1.1345 H   0  0  0  0  0  0  0  0  0  0  0  0
    1.5970  -11.4227   -0.0735 H   0  0  0  0  0  0  0  0  0  0  0  0
   -0.3524  -10.1618   -0.3555 H   0  0  0  0  0  0  0  0  0  0  0  0
   -2.2842   -9.0382    0.7198 H   0  0  0  0  0  0  0  0  0  0  0  0
   -3.1776   -9.9010    2.8761 H   0  0  0  0  0  0  0  0  0  0  0  0
   -2.1333  -11.8793    3.9579 H   0  0  0  0  0  0  0  0  0  0  0  0
    0.7385  -14.5954    1.5367 H   0  0  0  0  0  0  0  0  0  0  0  0
  1  2  2  0
  2  3  1  0
  3  4  1  0
  4  5  1  0
  5  6  1  0
  5  7  2  0
  7  8  1  0
  8  9  2  0
  9 10  1  0
 10 11  1  0
 11 12  1  0
 12 13  1  0
 12 14  1  0
 12 15  1  0
 15 16  2  0
 16 17  1  0
 17 18  2  0
 18 19  1  0
 19 20  2  0
 20 21  1  0
  9 22  1  0
 22 23  2  0
  2 24  1  0
 24 25  1  0
 25 26  1  0
 26 27  2  0
 27 28  1  0
 28 29  2  0
 29 30  1  0
 30 31  2  0
 31 32  1  0
 32 33  1  0
 33 34  2  0
 34 35  1  0
 35 36  2  0
 22  4  1  0
 31 26  1  0
 36 32  1  0
 20 15  1  0
  3 37  1  0
  3 38  1  0
  7 39  1  0
 10 40  1  0
 11 41  1  0
 11 42  1  0
 16 43  1  0
 17 44  1  0
 18 45  1  0
 19 46  1  0
 24 47  1  0
 25 48  1  0
 25 49  1  0
 27 50  1  0
 28 51  1  0
 29 52  1  0
 30 53  1  0
 33 54  1  0
M  CHG  2  20   1  21  -1
M  END
>  <meeko>  (9) 
{"is_sidechain": [false], "free_energy": -8.153, "intermolecular_energy": -11.161, "internal_energy": -1.716}

$$$$
