LIB_SGCDVZSPNVYMKM__M_PUB_ALL__e8__s20260927
     RDKit          3D

 35 37  0  0  0  0  0  0  0  0999 V2000
    5.9450   -1.2810  -14.1480 C   0  0  0  0  0  0  0  0  0  0  0  0
    7.1000   -0.6040  -14.5280 C   0  0  0  0  0  0  0  0  0  0  0  0
    8.3560   -1.1290  -14.2140 C   0  0  0  0  0  0  0  0  0  0  0  0
    8.4790   -2.3400  -13.5110 C   0  0  0  0  0  0  0  0  0  0  0  0
    9.8000   -2.8900  -13.1790 C   0  0  0  0  0  0  0  0  0  0  0  0
   10.9750   -2.3550  -13.7070 C   0  0  0  0  0  0  0  0  0  0  0  0
   12.2180   -2.8160  -13.4330 N   0  0  0  0  0  0  0  0  0  0  0  0
   12.3080   -3.8660  -12.5880 C   0  0  0  0  0  0  0  0  0  0  0  0
   11.2150   -4.4840  -11.9990 C   0  0  0  0  0  0  0  0  0  0  0  0
   11.2250   -5.5490  -11.1450 O   0  0  0  0  0  0  0  0  0  0  0  0
   12.1590   -6.6050  -11.3950 C   0  0  2  0  0  0  0  0  0  0  0  0
   11.6130   -7.5670  -12.4400 C   0  0  0  0  0  0  0  0  0  0  0  0
   10.5040   -8.3030  -11.7080 C   0  0  0  0  0  0  0  0  0  0  0  0
   10.9430   -8.3370  -10.2730 N   0  0  0  0  0  0  0  0  0  0  0  0
   12.1870   -7.4930  -10.1490 C   0  0  0  0  0  0  0  0  0  0  0  0
    9.9500   -3.9830  -12.3120 C   0  0  0  0  0  0  0  0  0  0  0  0
    7.3000   -3.0080  -13.1370 C   0  0  0  0  0  0  0  0  0  0  0  0
    6.0440   -2.4830  -13.4520 C   0  0  0  0  0  0  0  0  0  0  0  0
    4.9564   -0.8677  -14.3968 H   0  0  0  0  0  0  0  0  0  0  0  0
    7.0238    0.3463  -15.0767 H   0  0  0  0  0  0  0  0  0  0  0  0
    9.2622   -0.5866  -14.5215 H   0  0  0  0  0  0  0  0  0  0  0  0
   10.8855   -1.4999  -14.3931 H   0  0  0  0  0  0  0  0  0  0  0  0
   13.3097   -4.2548  -12.3526 H   0  0  0  0  0  0  0  0  0  0  0  0
   13.1159   -6.1473  -11.6862 H   0  0  0  0  0  0  0  0  0  0  0  0
   11.2146   -7.0195  -13.3069 H   0  0  0  0  0  0  0  0  0  0  0  0
   12.3825   -8.2441  -12.8392 H   0  0  0  0  0  0  0  0  0  0  0  0
    9.5504   -7.7639  -11.8081 H   0  0  0  0  0  0  0  0  0  0  0  0
   10.3391   -9.3119  -12.1141 H   0  0  0  0  0  0  0  0  0  0  0  0
   10.1990   -7.9290   -9.6870 H   0  0  0  0  0  0  0  0  0  0  0  0
   11.0990   -9.2960   -9.9370 H   0  0  0  0  0  0  0  0  0  0  0  0
   12.1561   -6.8834   -9.2339 H   0  0  0  0  0  0  0  0  0  0  0  0
   13.1033   -8.0977  -10.0812 H   0  0  0  0  0  0  0  0  0  0  0  0
    9.0575   -4.4522  -11.8723 H   0  0  0  0  0  0  0  0  0  0  0  0
    7.3673   -3.9587  -12.5879 H   0  0  0  0  0  0  0  0  0  0  0  0
    5.1326   -3.0197  -13.1499 H   0  0  0  0  0  0  0  0  0  0  0  0
  1  2  2  0
  2  3  1  0
  3  4  2  0
  4  5  1  0
  5  6  2  0
  6  7  1  0
  7  8  2  0
  8  9  1  0
  9 10  1  0
 10 11  1  0
 11 12  1  0
 12 13  1  0
 13 14  1  0
 14 15  1  0
  9 16  2  0
  4 17  1  0
 17 18  2  0
 18  1  1  0
 16  5  1  0
 15 11  1  0
  1 19  1  0
  2 20  1  0
  3 21  1  0
  6 22  1  0
  8 23  1  0
 11 24  1  6
 12 25  1  0
 12 26  1  0
 13 27  1  0
 13 28  1  0
 14 29  1  0
 14 30  1  0
 15 31  1  0
 15 32  1  0
 16 33  1  0
 17 34  1  0
 18 35  1  0
M  CHG  1  14   1
M  END
>  <meeko>  (1) 
{"is_sidechain": [false], "free_energy": -7.193, "intermolecular_energy": -8.454, "internal_energy": -0.513}

$$$$
LIB_SGCDVZSPNVYMKM__M_PUB_ALL__e8__s20260927
     RDKit          3D

 35 37  0  0  0  0  0  0  0  0999 V2000
  -15.3010  -17.0850   -3.9280 C   0  0  0  0  0  0  0  0  0  0  0  0
  -13.9700  -17.1520   -4.3270 C   0  0  0  0  0  0  0  0  0  0  0  0
  -13.6450  -17.1540   -5.6870 C   0  0  0  0  0  0  0  0  0  0  0  0
  -14.6470  -17.0930   -6.6700 C   0  0  0  0  0  0  0  0  0  0  0  0
  -14.3060  -17.0980   -8.0990 C   0  0  0  0  0  0  0  0  0  0  0  0
  -14.9770  -17.9070   -9.0140 C   0  0  0  0  0  0  0  0  0  0  0  0
  -14.7100  -17.9500  -10.3410 N   0  0  0  0  0  0  0  0  0  0  0  0
  -13.7240  -17.1440  -10.7920 C   0  0  0  0  0  0  0  0  0  0  0  0
  -12.9840  -16.2950   -9.9810 C   0  0  0  0  0  0  0  0  0  0  0  0
  -11.9730  -15.4600  -10.3600 O   0  0  0  0  0  0  0  0  0  0  0  0
  -10.9410  -15.1760   -9.4090 C   0  0  2  0  0  0  0  0  0  0  0  0
  -10.7540  -13.6740   -9.2520 C   0  0  0  0  0  0  0  0  0  0  0  0
  -10.0960  -13.2560  -10.5560 C   0  0  0  0  0  0  0  0  0  0  0  0
   -9.2900  -14.4470  -10.9830 N   0  0  0  0  0  0  0  0  0  0  0  0
   -9.6100  -15.5840  -10.0450 C   0  0  0  0  0  0  0  0  0  0  0  0
  -13.2870  -16.2850   -8.6180 C   0  0  0  0  0  0  0  0  0  0  0  0
  -15.9850  -17.0270   -6.2450 C   0  0  0  0  0  0  0  0  0  0  0  0
  -16.3100  -17.0230   -4.8860 C   0  0  0  0  0  0  0  0  0  0  0  0
  -15.5560  -17.0810   -2.8580 H   0  0  0  0  0  0  0  0  0  0  0  0
  -13.1721  -17.2035   -3.5716 H   0  0  0  0  0  0  0  0  0  0  0  0
  -12.5892  -17.2041   -5.9918 H   0  0  0  0  0  0  0  0  0  0  0  0
  -15.7791  -18.5556   -8.6320 H   0  0  0  0  0  0  0  0  0  0  0  0
  -13.4937  -17.1617  -11.8675 H   0  0  0  0  0  0  0  0  0  0  0  0
  -11.2032  -15.6797   -8.4669 H   0  0  0  0  0  0  0  0  0  0  0  0
  -11.7227  -13.1694   -9.1218 H   0  0  0  0  0  0  0  0  0  0  0  0
  -10.1558  -13.4085   -8.3679 H   0  0  0  0  0  0  0  0  0  0  0  0
  -10.8567  -13.0126  -11.3123 H   0  0  0  0  0  0  0  0  0  0  0  0
   -9.4733  -12.3573  -10.4353 H   0  0  0  0  0  0  0  0  0  0  0  0
   -9.5670  -14.7120  -11.9400 H   0  0  0  0  0  0  0  0  0  0  0  0
   -8.2820  -14.2470  -11.0080 H   0  0  0  0  0  0  0  0  0  0  0  0
   -9.7143  -16.5293  -10.5977 H   0  0  0  0  0  0  0  0  0  0  0  0
   -8.8189  -15.7533   -9.2996 H   0  0  0  0  0  0  0  0  0  0  0  0
  -12.7185  -15.6302   -7.9412 H   0  0  0  0  0  0  0  0  0  0  0  0
  -16.7891  -16.9777   -6.9940 H   0  0  0  0  0  0  0  0  0  0  0  0
  -17.3632  -16.9709   -4.5727 H   0  0  0  0  0  0  0  0  0  0  0  0
  1  2  2  0
  2  3  1  0
  3  4  2  0
  4  5  1  0
  5  6  2  0
  6  7  1  0
  7  8  2  0
  8  9  1  0
  9 10  1  0
 10 11  1  0
 11 12  1  0
 12 13  1  0
 13 14  1  0
 14 15  1  0
  9 16  2  0
  4 17  1  0
 17 18  2  0
 18  1  1  0
 16  5  1  0
 15 11  1  0
  1 19  1  0
  2 20  1  0
  3 21  1  0
  6 22  1  0
  8 23  1  0
 11 24  1  1
 12 25  1  0
 12 26  1  0
 13 27  1  0
 13 28  1  0
 14 29  1  0
 14 30  1  0
 15 31  1  0
 15 32  1  0
 16 33  1  0
 17 34  1  0
 18 35  1  0
M  CHG  1  14   1
M  END
>  <meeko>  (2) 
{"is_sidechain": [false], "free_energy": -6.406, "intermolecular_energy": -7.554, "internal_energy": -0.489}

$$$$
LIB_SGCDVZSPNVYMKM__M_PUB_ALL__e8__s20260927
     RDKit          3D

 35 37  0  0  0  0  0  0  0  0999 V2000
   13.8070  -13.7000   -4.3370 C   0  0  0  0  0  0  0  0  0  0  0  0
   12.8640  -14.4020   -3.5920 C   0  0  0  0  0  0  0  0  0  0  0  0
   12.2880  -13.8170   -2.4610 C   0  0  0  0  0  0  0  0  0  0  0  0
   12.6470  -12.5200   -2.0540 C   0  0  0  0  0  0  0  0  0  0  0  0
   12.0420  -11.9070   -0.8650 C   0  0  0  0  0  0  0  0  0  0  0  0
   12.6150  -10.8030   -0.2340 C   0  0  0  0  0  0  0  0  0  0  0  0
   12.1010  -10.1930    0.8610 N   0  0  0  0  0  0  0  0  0  0  0  0
   10.9530  -10.7000    1.3600 C   0  0  0  0  0  0  0  0  0  0  0  0
   10.2890  -11.7930    0.8230 C   0  0  0  0  0  0  0  0  0  0  0  0
    9.1340  -12.3650    1.2740 O   0  0  0  0  0  0  0  0  0  0  0  0
    8.0520  -12.5180    0.3490 C   0  0  2  0  0  0  0  0  0  0  0  0
    7.4340  -11.1670    0.0200 C   0  0  0  0  0  0  0  0  0  0  0  0
    6.7000  -10.7860    1.2940 C   0  0  0  0  0  0  0  0  0  0  0  0
    6.2820  -12.0910    1.9050 N   0  0  0  0  0  0  0  0  0  0  0  0
    6.9060  -13.2020    1.0980 C   0  0  0  0  0  0  0  0  0  0  0  0
   10.8550  -12.3980   -0.3010 C   0  0  0  0  0  0  0  0  0  0  0  0
   13.6010  -11.8300   -2.8210 C   0  0  0  0  0  0  0  0  0  0  0  0
   14.1760  -12.4140   -3.9520 C   0  0  0  0  0  0  0  0  0  0  0  0
   14.2596  -14.1601   -5.2278 H   0  0  0  0  0  0  0  0  0  0  0  0
   12.5717  -15.4186   -3.8938 H   0  0  0  0  0  0  0  0  0  0  0  0
   11.5424  -14.3799   -1.8804 H   0  0  0  0  0  0  0  0  0  0  0  0
   13.5482  -10.4000   -0.6543 H   0  0  0  0  0  0  0  0  0  0  0  0
   10.5177  -10.2164    2.2469 H   0  0  0  0  0  0  0  0  0  0  0  0
    8.4365  -13.0456   -0.5364 H   0  0  0  0  0  0  0  0  0  0  0  0
    8.2124  -10.4278   -0.2201 H   0  0  0  0  0  0  0  0  0  0  0  0
    6.7724  -11.2037   -0.8580 H   0  0  0  0  0  0  0  0  0  0  0  0
    7.3665  -10.2361    1.9747 H   0  0  0  0  0  0  0  0  0  0  0  0
    5.8410  -10.1282    1.0955 H   0  0  0  0  0  0  0  0  0  0  0  0
    6.6370  -12.1370    2.8720 H   0  0  0  0  0  0  0  0  0  0  0  0
    5.2590  -12.1870    1.9570 H   0  0  0  0  0  0  0  0  0  0  0  0
    7.2882  -13.9961    1.7563 H   0  0  0  0  0  0  0  0  0  0  0  0
    6.1881  -13.6875    0.4206 H   0  0  0  0  0  0  0  0  0  0  0  0
   10.3628  -13.2728   -0.7510 H   0  0  0  0  0  0  0  0  0  0  0  0
   13.8998  -10.8133   -2.5259 H   0  0  0  0  0  0  0  0  0  0  0  0
   14.9212  -11.8572   -4.5391 H   0  0  0  0  0  0  0  0  0  0  0  0
  1  2  2  0
  2  3  1  0
  3  4  2  0
  4  5  1  0
  5  6  2  0
  6  7  1  0
  7  8  2  0
  8  9  1  0
  9 10  1  0
 10 11  1  0
 11 12  1  0
 12 13  1  0
 13 14  1  0
 14 15  1  0
  9 16  2  0
  4 17  1  0
 17 18  2  0
 18  1  1  0
 16  5  1  0
 15 11  1  0
  1 19  1  0
  2 20  1  0
  3 21  1  0
  6 22  1  0
  8 23  1  0
 11 24  1  6
 12 25  1  0
 12 26  1  0
 13 27  1  0
 13 28  1  0
 14 29  1  0
 14 30  1  0
 15 31  1  0
 15 32  1  0
 16 33  1  0
 17 34  1  0
 18 35  1  0
M  CHG  1  14   1
M  END
>  <meeko>  (3) 
{"is_sidechain": [false], "free_energy": -6.363, "intermolecular_energy": -7.457, "internal_energy": -0.535}

$$$$
LIB_SGCDVZSPNVYMKM__M_PUB_ALL__e8__s20260927
     RDKit          3D

 35 37  0  0  0  0  0  0  0  0999 V2000
  -15.6080  -17.1310   -5.3820 C   0  0  0  0  0  0  0  0  0  0  0  0
  -15.5700  -16.7490   -6.7200 C   0  0  0  0  0  0  0  0  0  0  0  0
  -14.3570  -16.3790   -7.3090 C   0  0  0  0  0  0  0  0  0  0  0  0
  -13.1620  -16.3830   -6.5680 C   0  0  0  0  0  0  0  0  0  0  0  0
  -11.8890  -15.9930   -7.1870 C   0  0  0  0  0  0  0  0  0  0  0  0
  -10.6610  -16.3810   -6.6530 C   0  0  0  0  0  0  0  0  0  0  0  0
   -9.4570  -16.0560   -7.1810 N   0  0  0  0  0  0  0  0  0  0  0  0
   -9.4650  -15.3070   -8.3050 C   0  0  0  0  0  0  0  0  0  0  0  0
  -10.6200  -14.8600   -8.9310 C   0  0  0  0  0  0  0  0  0  0  0  0
  -10.7090  -14.0960  -10.0600 O   0  0  0  0  0  0  0  0  0  0  0  0
  -11.4150  -12.8530   -9.9790 C   0  0  2  0  0  0  0  0  0  0  0  0
  -11.1650  -12.0130  -11.2230 C   0  0  0  0  0  0  0  0  0  0  0  0
   -9.7230  -11.5600  -11.0680 C   0  0  0  0  0  0  0  0  0  0  0  0
   -9.5040  -11.4630   -9.5870 N   0  0  0  0  0  0  0  0  0  0  0  0
  -10.7310  -12.0100   -8.9000 C   0  0  0  0  0  0  0  0  0  0  0  0
  -11.8400  -15.2100   -8.3510 C   0  0  0  0  0  0  0  0  0  0  0  0
  -13.2240  -16.7710   -5.2190 C   0  0  0  0  0  0  0  0  0  0  0  0
  -14.4360  -17.1420   -4.6310 C   0  0  0  0  0  0  0  0  0  0  0  0
  -16.5620  -17.4235   -4.9191 H   0  0  0  0  0  0  0  0  0  0  0  0
  -16.4953  -16.7382   -7.3147 H   0  0  0  0  0  0  0  0  0  0  0  0
  -14.3373  -16.0804   -8.3675 H   0  0  0  0  0  0  0  0  0  0  0  0
  -10.6707  -16.9936   -5.7394 H   0  0  0  0  0  0  0  0  0  0  0  0
   -8.4971  -15.0348   -8.7513 H   0  0  0  0  0  0  0  0  0  0  0  0
  -12.4791  -13.0791   -9.8160 H   0  0  0  0  0  0  0  0  0  0  0  0
  -11.2911  -12.6152  -12.1348 H   0  0  0  0  0  0  0  0  0  0  0  0
  -11.8680  -11.1723  -11.3180 H   0  0  0  0  0  0  0  0  0  0  0  0
   -9.0367  -12.2955  -11.5130 H   0  0  0  0  0  0  0  0  0  0  0  0
   -9.5331  -10.6038  -11.5774 H   0  0  0  0  0  0  0  0  0  0  0  0
   -8.6890  -12.0390   -9.3310 H   0  0  0  0  0  0  0  0  0  0  0  0
   -9.2980  -10.5010   -9.2860 H   0  0  0  0  0  0  0  0  0  0  0  0
  -10.4513  -12.6319   -8.0369 H   0  0  0  0  0  0  0  0  0  0  0  0
  -11.3836  -11.2175   -8.5050 H   0  0  0  0  0  0  0  0  0  0  0  0
  -12.7775  -14.8671   -8.8130 H   0  0  0  0  0  0  0  0  0  0  0  0
  -12.3039  -16.7829   -4.6163 H   0  0  0  0  0  0  0  0  0  0  0  0
  -14.4640  -17.4431   -3.5734 H   0  0  0  0  0  0  0  0  0  0  0  0
  1  2  2  0
  2  3  1  0
  3  4  2  0
  4  5  1  0
  5  6  2  0
  6  7  1  0
  7  8  2  0
  8  9  1  0
  9 10  1  0
 10 11  1  0
 11 12  1  0
 12 13  1  0
 13 14  1  0
 14 15  1  0
  9 16  2  0
  4 17  1  0
 17 18  2  0
 18  1  1  0
 16  5  1  0
 15 11  1  0
  1 19  1  0
  2 20  1  0
  3 21  1  0
  6 22  1  0
  8 23  1  0
 11 24  1  1
 12 25  1  0
 12 26  1  0
 13 27  1  0
 13 28  1  0
 14 29  1  0
 14 30  1  0
 15 31  1  0
 15 32  1  0
 16 33  1  0
 17 34  1  0
 18 35  1  0
M  CHG  1  14   1
M  END
>  <meeko>  (4) 
{"is_sidechain": [false], "free_energy": -6.362, "intermolecular_energy": -7.608, "internal_energy": -0.382}

$$$$
LIB_SGCDVZSPNVYMKM__M_PUB_ALL__e8__s20260927
     RDKit          3D

 35 37  0  0  0  0  0  0  0  0999 V2000
    3.4180  -11.0450   -4.9630 C   0  0  0  0  0  0  0  0  0  0  0  0
    2.9500  -10.1820   -3.9770 C   0  0  0  0  0  0  0  0  0  0  0  0
    2.3580  -10.6960   -2.8200 C   0  0  0  0  0  0  0  0  0  0  0  0
    2.2220  -12.0820   -2.6300 C   0  0  0  0  0  0  0  0  0  0  0  0
    1.5990  -12.6210   -1.4140 C   0  0  0  0  0  0  0  0  0  0  0  0
    1.5030  -13.9920   -1.1820 C   0  0  0  0  0  0  0  0  0  0  0  0
    0.9440  -14.5470   -0.0800 N   0  0  0  0  0  0  0  0  0  0  0  0
    0.4550  -13.6970    0.8490 C   0  0  0  0  0  0  0  0  0  0  0  0
    0.4910  -12.3150    0.7340 C   0  0  0  0  0  0  0  0  0  0  0  0
    0.0130  -11.3960    1.6230 O   0  0  0  0  0  0  0  0  0  0  0  0
   -1.3430  -11.5260    2.0630 C   0  0  2  0  0  0  0  0  0  0  0  0
   -2.2270  -10.4820    1.3970 C   0  0  0  0  0  0  0  0  0  0  0  0
   -1.8100   -9.1810    2.0620 C   0  0  0  0  0  0  0  0  0  0  0  0
   -1.3860   -9.5720    3.4470 N   0  0  0  0  0  0  0  0  0  0  0  0
   -1.3920  -11.0790    3.5260 C   0  0  0  0  0  0  0  0  0  0  0  0
    1.0690  -11.7840   -0.4210 C   0  0  0  0  0  0  0  0  0  0  0  0
    2.7020  -12.9350   -3.6390 C   0  0  0  0  0  0  0  0  0  0  0  0
    3.2950  -12.4210   -4.7950 C   0  0  0  0  0  0  0  0  0  0  0  0
    3.8843  -10.6405   -5.8735 H   0  0  0  0  0  0  0  0  0  0  0  0
    3.0460   -9.0941   -4.1083 H   0  0  0  0  0  0  0  0  0  0  0  0
    1.9928  -10.0050   -2.0459 H   0  0  0  0  0  0  0  0  0  0  0  0
    1.9093  -14.6703   -1.9467 H   0  0  0  0  0  0  0  0  0  0  0  0
   -0.0002  -14.1275    1.7531 H   0  0  0  0  0  0  0  0  0  0  0  0
   -1.6656  -12.5578    1.8596 H   0  0  0  0  0  0  0  0  0  0  0  0
   -2.0426  -10.4454    0.3132 H   0  0  0  0  0  0  0  0  0  0  0  0
   -3.3000  -10.6953    1.5123 H   0  0  0  0  0  0  0  0  0  0  0  0
   -0.9733   -8.7191    1.5173 H   0  0  0  0  0  0  0  0  0  0  0  0
   -2.6249   -8.4422    2.0722 H   0  0  0  0  0  0  0  0  0  0  0  0
   -0.4270   -9.2300    3.6130 H   0  0  0  0  0  0  0  0  0  0  0  0
   -1.9830   -9.1520    4.1710 H   0  0  0  0  0  0  0  0  0  0  0  0
   -0.5129  -11.4453    4.0765 H   0  0  0  0  0  0  0  0  0  0  0  0
   -2.2700  -11.4717    4.0598 H   0  0  0  0  0  0  0  0  0  0  0  0
    1.1093  -10.6928   -0.5541 H   0  0  0  0  0  0  0  0  0  0  0  0
    2.6093  -14.0242   -3.5165 H   0  0  0  0  0  0  0  0  0  0  0  0
    3.6651  -13.1047   -5.5732 H   0  0  0  0  0  0  0  0  0  0  0  0
  1  2  2  0
  2  3  1  0
  3  4  2  0
  4  5  1  0
  5  6  2  0
  6  7  1  0
  7  8  2  0
  8  9  1  0
  9 10  1  0
 10 11  1  0
 11 12  1  0
 12 13  1  0
 13 14  1  0
 14 15  1  0
  9 16  2  0
  4 17  1  0
 17 18  2  0
 18  1  1  0
 16  5  1  0
 15 11  1  0
  1 19  1  0
  2 20  1  0
  3 21  1  0
  6 22  1  0
  8 23  1  0
 11 24  1  1
 12 25  1  0
 12 26  1  0
 13 27  1  0
 13 28  1  0
 14 29  1  0
 14 30  1  0
 15 31  1  0
 15 32  1  0
 16 33  1  0
 17 34  1  0
 18 35  1  0
M  CHG  1  14   1
M  END
>  <meeko>  (5) 
{"is_sidechain": [false], "free_energy": -6.189, "intermolecular_energy": -7.307, "internal_energy": -0.481}

$$$$
LIB_SGCDVZSPNVYMKM__M_PUB_ALL__e8__s20260927
     RDKit          3D

 35 37  0  0  0  0  0  0  0  0999 V2000
   11.9220  -13.7440   12.2550 C   0  0  0  0  0  0  0  0  0  0  0  0
   11.5980  -12.6150   13.0030 C   0  0  0  0  0  0  0  0  0  0  0  0
   12.4400  -11.5000   12.9890 C   0  0  0  0  0  0  0  0  0  0  0  0
   13.6220  -11.4950   12.2300 C   0  0  0  0  0  0  0  0  0  0  0  0
   14.5080  -10.3230   12.2180 C   0  0  0  0  0  0  0  0  0  0  0  0
   14.1660   -9.1490   11.5480 C   0  0  0  0  0  0  0  0  0  0  0  0
   14.9380   -8.0370   11.5070 N   0  0  0  0  0  0  0  0  0  0  0  0
   16.1160   -8.0860   12.1670 C   0  0  0  0  0  0  0  0  0  0  0  0
   16.5660   -9.1950   12.8690 C   0  0  0  0  0  0  0  0  0  0  0  0
   17.7420   -9.3220   13.5520 O   0  0  0  0  0  0  0  0  0  0  0  0
   17.8820   -8.6150   14.7890 C   0  0  2  0  0  0  0  0  0  0  0  0
   19.3520   -8.4590   15.1530 C   0  0  0  0  0  0  0  0  0  0  0  0
   19.7760   -9.8630   15.5490 C   0  0  0  0  0  0  0  0  0  0  0  0
   18.5400  -10.4940   16.1200 N   0  0  0  0  0  0  0  0  0  0  0  0
   17.3900   -9.5430   15.9020 C   0  0  0  0  0  0  0  0  0  0  0  0
   15.7440  -10.3230   12.8820 C   0  0  0  0  0  0  0  0  0  0  0  0
   13.9310  -12.6450   11.4830 C   0  0  0  0  0  0  0  0  0  0  0  0
   13.0890  -13.7600   11.4960 C   0  0  0  0  0  0  0  0  0  0  0  0
   11.2577  -14.6207   12.2638 H   0  0  0  0  0  0  0  0  0  0  0  0
   10.6779  -12.6009   13.6057 H   0  0  0  0  0  0  0  0  0  0  0  0
   12.1731  -10.6124   13.5815 H   0  0  0  0  0  0  0  0  0  0  0  0
   13.2033   -9.1243   11.0164 H   0  0  0  0  0  0  0  0  0  0  0  0
   16.7572   -7.1924   12.1465 H   0  0  0  0  0  0  0  0  0  0  0  0
   17.3559   -7.6540   14.6904 H   0  0  0  0  0  0  0  0  0  0  0  0
   19.9339   -8.1021   14.2904 H   0  0  0  0  0  0  0  0  0  0  0  0
   19.5172   -7.7223   15.9530 H   0  0  0  0  0  0  0  0  0  0  0  0
   20.1259  -10.4239   14.6698 H   0  0  0  0  0  0  0  0  0  0  0  0
   20.6076   -9.8564   16.2690 H   0  0  0  0  0  0  0  0  0  0  0  0
   18.3500  -11.3730   15.6170 H   0  0  0  0  0  0  0  0  0  0  0  0
   18.6500  -10.7360   17.1140 H   0  0  0  0  0  0  0  0  0  0  0  0
   16.4873  -10.0869   15.5869 H   0  0  0  0  0  0  0  0  0  0  0  0
   17.1130   -8.9975   16.8161 H   0  0  0  0  0  0  0  0  0  0  0  0
   16.0699  -11.2250   13.4206 H   0  0  0  0  0  0  0  0  0  0  0  0
   14.8499  -12.6675   10.8788 H   0  0  0  0  0  0  0  0  0  0  0  0
   13.3485  -14.6513   10.9059 H   0  0  0  0  0  0  0  0  0  0  0  0
  1  2  2  0
  2  3  1  0
  3  4  2  0
  4  5  1  0
  5  6  2  0
  6  7  1  0
  7  8  2  0
  8  9  1  0
  9 10  1  0
 10 11  1  0
 11 12  1  0
 12 13  1  0
 13 14  1  0
 14 15  1  0
  9 16  2  0
  4 17  1  0
 17 18  2  0
 18  1  1  0
 16  5  1  0
 15 11  1  0
  1 19  1  0
  2 20  1  0
  3 21  1  0
  6 22  1  0
  8 23  1  0
 11 24  1  6
 12 25  1  0
 12 26  1  0
 13 27  1  0
 13 28  1  0
 14 29  1  0
 14 30  1  0
 15 31  1  0
 15 32  1  0
 16 33  1  0
 17 34  1  0
 18 35  1  0
M  CHG  1  14   1
M  END
>  <meeko>  (6) 
{"is_sidechain": [false], "free_energy": -6.136, "intermolecular_energy": -7.327, "internal_energy": -0.398}

$$$$
LIB_SGCDVZSPNVYMKM__M_PUB_ALL__e8__s20260927
     RDKit          3D

 35 37  0  0  0  0  0  0  0  0999 V2000
   15.9470   -7.2020   11.6050 C   0  0  0  0  0  0  0  0  0  0  0  0
   14.6280   -7.3120   11.1760 C   0  0  0  0  0  0  0  0  0  0  0  0
   13.9110   -8.4900   11.4090 C   0  0  0  0  0  0  0  0  0  0  0  0
   14.5020   -9.5780   12.0730 C   0  0  0  0  0  0  0  0  0  0  0  0
   13.7490  -10.8150   12.3150 C   0  0  0  0  0  0  0  0  0  0  0  0
   13.9460  -11.9600   11.5440 C   0  0  0  0  0  0  0  0  0  0  0  0
   13.2860  -13.1290   11.7240 N   0  0  0  0  0  0  0  0  0  0  0  0
   12.3800  -13.1710   12.7250 C   0  0  0  0  0  0  0  0  0  0  0  0
   12.0960  -12.1000   13.5610 C   0  0  0  0  0  0  0  0  0  0  0  0
   11.1940  -12.0640   14.5850 O   0  0  0  0  0  0  0  0  0  0  0  0
    9.8220  -12.3420   14.2850 C   0  0  2  0  0  0  0  0  0  0  0  0
    9.2240  -11.2330   13.4320 C   0  0  0  0  0  0  0  0  0  0  0  0
    9.0990  -10.0650   14.3960 C   0  0  0  0  0  0  0  0  0  0  0  0
    8.8700  -10.6950   15.7380 N   0  0  0  0  0  0  0  0  0  0  0  0
    9.0300  -12.1870   15.5850 C   0  0  0  0  0  0  0  0  0  0  0  0
   12.7930  -10.9120   13.3380 C   0  0  0  0  0  0  0  0  0  0  0  0
   15.8360   -9.4460   12.4970 C   0  0  0  0  0  0  0  0  0  0  0  0
   16.5520   -8.2680   12.2660 C   0  0  0  0  0  0  0  0  0  0  0  0
   16.5106   -6.2752   11.4225 H   0  0  0  0  0  0  0  0  0  0  0  0
   14.1486   -6.4714   10.6529 H   0  0  0  0  0  0  0  0  0  0  0  0
   12.8682   -8.5658   11.0671 H   0  0  0  0  0  0  0  0  0  0  0  0
   14.6885  -11.9105   10.7339 H   0  0  0  0  0  0  0  0  0  0  0  0
   11.8337  -14.1118   12.8876 H   0  0  0  0  0  0  0  0  0  0  0  0
    9.7760  -13.3302   13.8040 H   0  0  0  0  0  0  0  0  0  0  0  0
    9.8901  -10.9803   12.5938 H   0  0  0  0  0  0  0  0  0  0  0  0
    8.2629  -11.5157   12.9778 H   0  0  0  0  0  0  0  0  0  0  0  0
   10.0224   -9.4673   14.4016 H   0  0  0  0  0  0  0  0  0  0  0  0
    8.2843   -9.3815   14.1150 H   0  0  0  0  0  0  0  0  0  0  0  0
    9.5810  -10.3450   16.3970 H   0  0  0  0  0  0  0  0  0  0  0  0
    7.9510  -10.4500   16.1310 H   0  0  0  0  0  0  0  0  0  0  0  0
    9.5861  -12.6099   16.4346 H   0  0  0  0  0  0  0  0  0  0  0  0
    8.0660  -12.7162   15.5595 H   0  0  0  0  0  0  0  0  0  0  0  0
   12.5900  -10.0377   13.9740 H   0  0  0  0  0  0  0  0  0  0  0  0
   16.3237  -10.2827   13.0186 H   0  0  0  0  0  0  0  0  0  0  0  0
   17.5944   -8.1829   12.6067 H   0  0  0  0  0  0  0  0  0  0  0  0
  1  2  2  0
  2  3  1  0
  3  4  2  0
  4  5  1  0
  5  6  2  0
  6  7  1  0
  7  8  2  0
  8  9  1  0
  9 10  1  0
 10 11  1  0
 11 12  1  0
 12 13  1  0
 13 14  1  0
 14 15  1  0
  9 16  2  0
  4 17  1  0
 17 18  2  0
 18  1  1  0
 16  5  1  0
 15 11  1  0
  1 19  1  0
  2 20  1  0
  3 21  1  0
  6 22  1  0
  8 23  1  0
 11 24  1  6
 12 25  1  0
 12 26  1  0
 13 27  1  0
 13 28  1  0
 14 29  1  0
 14 30  1  0
 15 31  1  0
 15 32  1  0
 16 33  1  0
 17 34  1  0
 18 35  1  0
M  CHG  1  14   1
M  END
>  <meeko>  (7) 
{"is_sidechain": [false], "free_energy": -5.72, "intermolecular_energy": -6.743, "internal_energy": -0.493}

$$$$
LIB_SGCDVZSPNVYMKM__M_PUB_ALL__e8__s20260927
     RDKit          3D

 35 37  0  0  0  0  0  0  0  0999 V2000
    7.4150  -12.6880  -11.4110 C   0  0  0  0  0  0  0  0  0  0  0  0
    7.2790  -14.0260  -11.0530 C   0  0  0  0  0  0  0  0  0  0  0  0
    6.9270  -14.3690   -9.7440 C   0  0  0  0  0  0  0  0  0  0  0  0
    6.7060  -13.3790   -8.7710 C   0  0  0  0  0  0  0  0  0  0  0  0
    6.3380  -13.7400   -7.3960 C   0  0  0  0  0  0  0  0  0  0  0  0
    6.6370  -14.9910   -6.8580 C   0  0  0  0  0  0  0  0  0  0  0  0
    6.3270  -15.3780   -5.5970 N   0  0  0  0  0  0  0  0  0  0  0  0
    5.6870  -14.4760   -4.8220 C   0  0  0  0  0  0  0  0  0  0  0  0
    5.3360  -13.2020   -5.2420 C   0  0  0  0  0  0  0  0  0  0  0  0
    4.6850  -12.2410   -4.5220 O   0  0  0  0  0  0  0  0  0  0  0  0
    3.3940  -11.8180   -4.9750 C   0  0  2  0  0  0  0  0  0  0  0  0
    3.0120  -10.4900   -4.3380 C   0  0  0  0  0  0  0  0  0  0  0  0
    2.7270  -10.8530   -2.8910 C   0  0  0  0  0  0  0  0  0  0  0  0
    2.2140  -12.2620   -2.9390 N   0  0  0  0  0  0  0  0  0  0  0  0
    2.3620  -12.7620   -4.3550 C   0  0  0  0  0  0  0  0  0  0  0  0
    5.6670  -12.8440   -6.5500 C   0  0  0  0  0  0  0  0  0  0  0  0
    6.8490  -12.0340   -9.1540 C   0  0  0  0  0  0  0  0  0  0  0  0
    7.2010  -11.6910  -10.4620 C   0  0  0  0  0  0  0  0  0  0  0  0
    7.6909  -12.4183  -12.4411 H   0  0  0  0  0  0  0  0  0  0  0  0
    7.4486  -14.8147  -11.8008 H   0  0  0  0  0  0  0  0  0  0  0  0
    6.8214  -15.4295   -9.4716 H   0  0  0  0  0  0  0  0  0  0  0  0
    7.1605  -15.7134   -7.5014 H   0  0  0  0  0  0  0  0  0  0  0  0
    5.4282  -14.7701   -3.7941 H   0  0  0  0  0  0  0  0  0  0  0  0
    3.4172  -11.7798   -6.0741 H   0  0  0  0  0  0  0  0  0  0  0  0
    3.8407   -9.7698   -4.4057 H   0  0  0  0  0  0  0  0  0  0  0  0
    2.1551  -10.0105   -4.8337 H   0  0  0  0  0  0  0  0  0  0  0  0
    3.6464  -10.7964   -2.2897 H   0  0  0  0  0  0  0  0  0  0  0  0
    2.0047  -10.1655   -2.4267 H   0  0  0  0  0  0  0  0  0  0  0  0
    2.7880  -12.8480   -2.3140 H   0  0  0  0  0  0  0  0  0  0  0  0
    1.2430  -12.3340   -2.6100 H   0  0  0  0  0  0  0  0  0  0  0  0
    2.7249  -13.8003   -4.3671 H   0  0  0  0  0  0  0  0  0  0  0  0
    1.4089  -12.7667   -4.9041 H   0  0  0  0  0  0  0  0  0  0  0  0
    5.3978  -11.8448   -6.9230 H   0  0  0  0  0  0  0  0  0  0  0  0
    6.6812  -11.2391   -8.4124 H   0  0  0  0  0  0  0  0  0  0  0  0
    7.3092  -10.6329  -10.7425 H   0  0  0  0  0  0  0  0  0  0  0  0
  1  2  2  0
  2  3  1  0
  3  4  2  0
  4  5  1  0
  5  6  2  0
  6  7  1  0
  7  8  2  0
  8  9  1  0
  9 10  1  0
 10 11  1  0
 11 12  1  0
 12 13  1  0
 13 14  1  0
 14 15  1  0
  9 16  2  0
  4 17  1  0
 17 18  2  0
 18  1  1  0
 16  5  1  0
 15 11  1  0
  1 19  1  0
  2 20  1  0
  3 21  1  0
  6 22  1  0
  8 23  1  0
 11 24  1  6
 12 25  1  0
 12 26  1  0
 13 27  1  0
 13 28  1  0
 14 29  1  0
 14 30  1  0
 15 31  1  0
 15 32  1  0
 16 33  1  0
 17 34  1  0
 18 35  1  0
M  CHG  1  14   1
M  END
>  <meeko>  (8) 
{"is_sidechain": [false], "free_energy": -5.71, "intermolecular_energy": -6.712, "internal_energy": -0.512}

$$$$
LIB_SGCDVZSPNVYMKM__M_PUB_ALL__e8__s20260927
     RDKit          3D

 35 37  0  0  0  0  0  0  0  0999 V2000
   -1.6530   -9.6880    3.0320 C   0  0  0  0  0  0  0  0  0  0  0  0
   -1.4690  -11.0070    3.4360 C   0  0  0  0  0  0  0  0  0  0  0  0
   -0.7450  -11.8920    2.6320 C   0  0  0  0  0  0  0  0  0  0  0  0
   -0.1940  -11.4730    1.4090 C   0  0  0  0  0  0  0  0  0  0  0  0
    0.5660  -12.4040    0.5640 C   0  0  0  0  0  0  0  0  0  0  0  0
    0.7670  -13.7340    0.9300 C   0  0  0  0  0  0  0  0  0  0  0  0
    1.4530  -14.6380    0.1900 N   0  0  0  0  0  0  0  0  0  0  0  0
    1.9680  -14.2040   -0.9800 C   0  0  0  0  0  0  0  0  0  0  0  0
    1.8350  -12.9060   -1.4540 C   0  0  0  0  0  0  0  0  0  0  0  0
    2.3310  -12.3930   -2.6180 O   0  0  0  0  0  0  0  0  0  0  0  0
    3.0630  -11.1650   -2.5550 C   0  0  2  0  0  0  0  0  0  0  0  0
    2.8180  -10.3300   -3.8040 C   0  0  0  0  0  0  0  0  0  0  0  0
    3.5670  -11.0810   -4.8910 C   0  0  0  0  0  0  0  0  0  0  0  0
    4.7210  -11.7340   -4.1870 N   0  0  0  0  0  0  0  0  0  0  0  0
    4.5460  -11.5100   -2.7050 C   0  0  0  0  0  0  0  0  0  0  0  0
    1.1270  -12.0040   -0.6580 C   0  0  0  0  0  0  0  0  0  0  0  0
   -0.3920  -10.1370    1.0200 C   0  0  0  0  0  0  0  0  0  0  0  0
   -1.1150   -9.2520    1.8240 C   0  0  0  0  0  0  0  0  0  0  0  0
   -2.2220   -8.9916    3.6654 H   0  0  0  0  0  0  0  0  0  0  0  0
   -1.8940  -11.3536    4.3895 H   0  0  0  0  0  0  0  0  0  0  0  0
   -0.6044  -12.9320    2.9615 H   0  0  0  0  0  0  0  0  0  0  0  0
    0.3393  -14.0727    1.8852 H   0  0  0  0  0  0  0  0  0  0  0  0
    2.5276  -14.9234   -1.5959 H   0  0  0  0  0  0  0  0  0  0  0  0
    2.7767  -10.6489   -1.6267 H   0  0  0  0  0  0  0  0  0  0  0  0
    1.7438  -10.2744   -4.0343 H   0  0  0  0  0  0  0  0  0  0  0  0
    3.1561   -9.2890   -3.6943 H   0  0  0  0  0  0  0  0  0  0  0  0
    2.9183  -11.8386   -5.3549 H   0  0  0  0  0  0  0  0  0  0  0  0
    3.9001  -10.4140   -5.6998 H   0  0  0  0  0  0  0  0  0  0  0  0
    4.7000  -12.7460   -4.3800 H   0  0  0  0  0  0  0  0  0  0  0  0
    5.6290  -11.3830   -4.5200 H   0  0  0  0  0  0  0  0  0  0  0  0
    4.7947  -12.4204   -2.1400 H   0  0  0  0  0  0  0  0  0  0  0  0
    5.2057  -10.7206   -2.3155 H   0  0  0  0  0  0  0  0  0  0  0  0
    1.0071  -10.9635   -0.9941 H   0  0  0  0  0  0  0  0  0  0  0  0
    0.0289   -9.7825    0.0675 H   0  0  0  0  0  0  0  0  0  0  0  0
   -1.2593   -8.2100    1.5024 H   0  0  0  0  0  0  0  0  0  0  0  0
  1  2  2  0
  2  3  1  0
  3  4  2  0
  4  5  1  0
  5  6  2  0
  6  7  1  0
  7  8  2  0
  8  9  1  0
  9 10  1  0
 10 11  1  0
 11 12  1  0
 12 13  1  0
 13 14  1  0
 14 15  1  0
  9 16  2  0
  4 17  1  0
 17 18  2  0
 18  1  1  0
 16  5  1  0
 15 11  1  0
  1 19  1  0
  2 20  1  0
  3 21  1  0
  6 22  1  0
  8 23  1  0
 11 24  1  1
 12 25  1  0
 12 26  1  0
 13 27  1  0
 13 28  1  0
 14 29  1  0
 14 30  1  0
 15 31  1  0
 15 32  1  0
 16 33  1  0
 17 34  1  0
 18 35  1  0
M  CHG  1  14   1
M  END
>  <meeko>  (9) 
{"is_sidechain": [false], "free_energy": -5.603, "intermolecular_energy": -6.587, "internal_energy": -0.511}

$$$$
