LIB_FPVAONXMTAGWGU__M_PUB_ALL__e8__s20260927
     RDKit          3D

 69 71  0  0  0  0  0  0  0  0999 V2000
    3.0950  -10.8060   -4.5890 C   0  0  0  0  0  0  0  0  0  0  0  0
    2.3140  -12.0580   -4.2210 C   0  0  0  0  0  0  0  0  0  0  0  0
    2.6770  -12.5530   -2.8200 C   0  0  0  0  0  0  0  0  0  0  0  0
    2.1390  -11.6100   -1.7430 C   0  0  0  0  0  0  0  0  0  0  0  0
    2.2650  -12.1720   -0.3240 C   0  0  0  0  0  0  0  0  0  0  0  0
    1.1430  -11.7870    0.6470 C   0  0  0  0  0  0  0  0  0  0  0  0
    0.0980  -10.8090    0.1000 C   0  0  0  0  0  0  0  0  0  0  0  0
   -0.6980  -10.0960    1.1930 C   0  0  0  0  0  0  0  0  0  0  0  0
   -2.1940  -10.0750    0.8660 C   0  0  0  0  0  0  0  0  0  0  0  0
   -2.5830  -11.2730   -0.0110 C   0  0  0  0  0  0  0  0  0  0  0  0
   -3.3560  -12.3790    0.7430 C   0  0  0  0  0  0  0  0  0  0  0  0
   -2.7600  -13.7760    0.4310 C   0  0  0  0  0  0  0  0  0  0  0  0
   -3.3630  -14.5820   -0.2710 O   0  0  0  0  0  0  0  0  0  0  0  0
   -1.5660  -14.0250    1.0750 N   0  0  0  0  0  0  0  0  0  0  0  0
   -0.6970  -15.1370    0.9630 C   0  0  0  0  0  0  0  0  0  0  0  0
   -0.0010  -15.5440   -0.1910 C   0  0  0  0  0  0  0  0  0  0  0  0
    0.0190  -14.7910   -1.4940 C   0  0  0  0  0  0  0  0  0  0  0  0
    0.7790  -16.7200   -0.1370 C   0  0  0  0  0  0  0  0  0  0  0  0
    0.9330  -17.4400    1.0470 C   0  0  0  0  0  0  0  0  0  0  0  0
    0.3020  -16.9930    2.2020 C   0  0  0  0  0  0  0  0  0  0  0  0
   -0.5140  -15.8600    2.1640 C   0  0  0  0  0  0  0  0  0  0  0  0
   -1.1690  -15.3860    3.2840 O   0  0  0  0  0  0  0  0  0  0  0  0
   -1.4350  -16.4190    4.2380 C   0  0  0  0  0  0  0  0  0  0  0  0
   -0.1570  -17.0890    4.6900 C   0  0  0  0  0  0  0  0  0  0  0  0
    0.5090  -17.6920    3.4870 C   0  0  0  0  0  0  0  0  0  0  0  0
    1.2320  -18.6800    3.5620 O   0  0  0  0  0  0  0  0  0  0  0  0
   -3.3950  -12.1160    2.2610 C   0  0  0  0  0  0  0  0  0  0  0  0
   -4.6290  -12.8620    2.7700 C   0  0  0  0  0  0  0  0  0  0  0  0
   -5.5340  -13.0680    1.5590 C   0  0  0  0  0  0  0  0  0  0  0  0
   -4.8580  -12.3370    0.4030 C   0  0  0  0  0  0  0  0  0  0  0  0
    3.4161  -10.2912   -3.6715 H   0  0  0  0  0  0  0  0  0  0  0  0
    3.9789  -11.0860   -5.1809 H   0  0  0  0  0  0  0  0  0  0  0  0
    2.4549  -10.1352   -5.1809 H   0  0  0  0  0  0  0  0  0  0  0  0
    1.2383  -11.8304   -4.2522 H   0  0  0  0  0  0  0  0  0  0  0  0
    2.5680  -12.8481   -4.9430 H   0  0  0  0  0  0  0  0  0  0  0  0
    2.2444  -13.5531   -2.6697 H   0  0  0  0  0  0  0  0  0  0  0  0
    3.7733  -12.5876   -2.7363 H   0  0  0  0  0  0  0  0  0  0  0  0
    2.7001  -10.6653   -1.7949 H   0  0  0  0  0  0  0  0  0  0  0  0
    1.0665  -11.4683   -1.9420 H   0  0  0  0  0  0  0  0  0  0  0  0
    2.2874  -13.2694   -0.3962 H   0  0  0  0  0  0  0  0  0  0  0  0
    3.1840  -11.7327    0.0913 H   0  0  0  0  0  0  0  0  0  0  0  0
    0.6210  -12.7089    0.9430 H   0  0  0  0  0  0  0  0  0  0  0  0
    1.6343  -11.2653    1.4815 H   0  0  0  0  0  0  0  0  0  0  0  0
    0.6144  -10.0503   -0.5063 H   0  0  0  0  0  0  0  0  0  0  0  0
   -0.6186  -11.3974   -0.4918 H   0  0  0  0  0  0  0  0  0  0  0  0
   -0.5469  -10.6216    2.1474 H   0  0  0  0  0  0  0  0  0  0  0  0
   -0.3422   -9.0573    1.2610 H   0  0  0  0  0  0  0  0  0  0  0  0
   -2.7676  -10.1146    1.8038 H   0  0  0  0  0  0  0  0  0  0  0  0
   -2.4190   -9.1500    0.3149 H   0  0  0  0  0  0  0  0  0  0  0  0
   -3.2154  -10.9085   -0.8339 H   0  0  0  0  0  0  0  0  0  0  0  0
   -1.6453  -11.7254   -0.3661 H   0  0  0  0  0  0  0  0  0  0  0  0
   -1.3430  -13.4300    1.8670 H   0  0  0  0  0  0  0  0  0  0  0  0
    0.0477  -13.7100   -1.2924 H   0  0  0  0  0  0  0  0  0  0  0  0
    0.9098  -15.0802   -2.0710 H   0  0  0  0  0  0  0  0  0  0  0  0
   -0.8859  -15.0325   -2.0710 H   0  0  0  0  0  0  0  0  0  0  0  0
    1.2769  -17.0765   -1.0508 H   0  0  0  0  0  0  0  0  0  0  0  0
    1.5474  -18.3522    1.0669 H   0  0  0  0  0  0  0  0  0  0  0  0
   -1.9380  -15.9793    5.1119 H   0  0  0  0  0  0  0  0  0  0  0  0
   -2.0753  -17.1761    3.7618 H   0  0  0  0  0  0  0  0  0  0  0  0
    0.5099  -16.3456    5.1511 H   0  0  0  0  0  0  0  0  0  0  0  0
   -0.3799  -17.8702    5.4317 H   0  0  0  0  0  0  0  0  0  0  0  0
   -2.4850  -12.5036    2.7424 H   0  0  0  0  0  0  0  0  0  0  0  0
   -3.4435  -11.0410    2.4891 H   0  0  0  0  0  0  0  0  0  0  0  0
   -4.3379  -13.8328    3.1976 H   0  0  0  0  0  0  0  0  0  0  0  0
   -5.1417  -12.2945    3.5606 H   0  0  0  0  0  0  0  0  0  0  0  0
   -5.6294  -14.1398    1.3305 H   0  0  0  0  0  0  0  0  0  0  0  0
   -6.5481  -12.6833    1.7424 H   0  0  0  0  0  0  0  0  0  0  0  0
   -5.0552  -12.8504   -0.5496 H   0  0  0  0  0  0  0  0  0  0  0  0
   -5.2306  -11.3088    0.2843 H   0  0  0  0  0  0  0  0  0  0  0  0
  1  2  1  0
  2  3  1  0
  3  4  1  0
  4  5  1  0
  5  6  1  0
  6  7  1  0
  7  8  1  0
  8  9  1  0
  9 10  1  0
 10 11  1  0
 11 12  1  0
 12 13  2  0
 12 14  1  0
 14 15  1  0
 15 16  2  0
 16 17  1  0
 16 18  1  0
 18 19  2  0
 19 20  1  0
 20 21  2  0
 21 22  1  0
 22 23  1  0
 23 24  1  0
 24 25  1  0
 25 26  2  0
 11 27  1  0
 27 28  1  0
 28 29  1  0
 29 30  1  0
 30 11  1  0
 21 15  1  0
 25 20  1  0
  1 31  1  0
  1 32  1  0
  1 33  1  0
  2 34  1  0
  2 35  1  0
  3 36  1  0
  3 37  1  0
  4 38  1  0
  4 39  1  0
  5 40  1  0
  5 41  1  0
  6 42  1  0
  6 43  1  0
  7 44  1  0
  7 45  1  0
  8 46  1  0
  8 47  1  0
  9 48  1  0
  9 49  1  0
 10 50  1  0
 10 51  1  0
 14 52  1  0
 17 53  1  0
 17 54  1  0
 17 55  1  0
 18 56  1  0
 19 57  1  0
 23 58  1  0
 23 59  1  0
 24 60  1  0
 24 61  1  0
 27 62  1  0
 27 63  1  0
 28 64  1  0
 28 65  1  0
 29 66  1  0
 29 67  1  0
 30 68  1  0
 30 69  1  0
M  END
>  <meeko>  (1) 
{"is_sidechain": [false], "free_energy": -6.259, "intermolecular_energy": -10.284, "internal_energy": -2.285}

$$$$
LIB_FPVAONXMTAGWGU__M_PUB_ALL__e8__s20260927
     RDKit          3D

 69 71  0  0  0  0  0  0  0  0999 V2000
    2.0280  -11.6860   -1.1460 C   0  0  0  0  0  0  0  0  0  0  0  0
    2.2430  -11.9840   -2.6220 C   0  0  0  0  0  0  0  0  0  0  0  0
    3.1190  -10.9200   -3.2860 C   0  0  0  0  0  0  0  0  0  0  0  0
    2.9840  -10.9640   -4.8090 C   0  0  0  0  0  0  0  0  0  0  0  0
    4.2450  -11.4680   -5.5180 C   0  0  0  0  0  0  0  0  0  0  0  0
    4.3860  -12.9900   -5.6230 C   0  0  0  0  0  0  0  0  0  0  0  0
    5.6050  -13.4920   -6.4040 C   0  0  0  0  0  0  0  0  0  0  0  0
    6.2130  -14.7700   -5.8260 C   0  0  0  0  0  0  0  0  0  0  0  0
    5.6960  -15.0390   -4.4100 C   0  0  0  0  0  0  0  0  0  0  0  0
    6.8570  -15.2410   -3.4270 C   0  0  0  0  0  0  0  0  0  0  0  0
    7.0630  -14.0620   -2.4490 C   0  0  0  0  0  0  0  0  0  0  0  0
    8.2710  -13.1920   -2.8850 C   0  0  0  0  0  0  0  0  0  0  0  0
    8.1210  -12.2140   -3.6110 O   0  0  0  0  0  0  0  0  0  0  0  0
    9.4870  -13.6750   -2.4490 N   0  0  0  0  0  0  0  0  0  0  0  0
   10.7780  -13.1080   -2.5730 C   0  0  0  0  0  0  0  0  0  0  0  0
   11.6240  -13.1860   -3.6950 C   0  0  0  0  0  0  0  0  0  0  0  0
   11.2500  -13.8070   -5.0130 C   0  0  0  0  0  0  0  0  0  0  0  0
   12.9100  -12.6080   -3.6190 C   0  0  0  0  0  0  0  0  0  0  0  0
   13.3290  -11.9030   -2.4920 C   0  0  0  0  0  0  0  0  0  0  0  0
   12.4620  -11.7670   -1.4140 C   0  0  0  0  0  0  0  0  0  0  0  0
   11.2020  -12.3690   -1.4450 C   0  0  0  0  0  0  0  0  0  0  0  0
   10.3110  -12.2690   -0.3920 O   0  0  0  0  0  0  0  0  0  0  0  0
   10.9700  -12.0670    0.8620 C   0  0  0  0  0  0  0  0  0  0  0  0
   11.8150  -10.8130    0.8410 C   0  0  0  0  0  0  0  0  0  0  0  0
   12.8490  -10.9600   -0.2390 C   0  0  0  0  0  0  0  0  0  0  0  0
   13.9400  -10.4020   -0.1840 O   0  0  0  0  0  0  0  0  0  0  0  0
    5.7870  -13.2110   -2.3000 C   0  0  0  0  0  0  0  0  0  0  0  0
    5.9110  -12.5300   -0.9370 C   0  0  0  0  0  0  0  0  0  0  0  0
    6.9050  -13.3610   -0.1320 C   0  0  0  0  0  0  0  0  0  0  0  0
    7.2460  -14.5660   -1.0040 C   0  0  0  0  0  0  0  0  0  0  0  0
    2.5650  -12.4303   -0.5397 H   0  0  0  0  0  0  0  0  0  0  0  0
    2.4101  -10.6806   -0.9155 H   0  0  0  0  0  0  0  0  0  0  0  0
    0.9534  -11.7316   -0.9155 H   0  0  0  0  0  0  0  0  0  0  0  0
    2.7332  -12.9637   -2.7213 H   0  0  0  0  0  0  0  0  0  0  0  0
    1.2626  -11.9849   -3.1207 H   0  0  0  0  0  0  0  0  0  0  0  0
    2.8113   -9.9268   -2.9271 H   0  0  0  0  0  0  0  0  0  0  0  0
    4.1684  -11.1193   -3.0234 H   0  0  0  0  0  0  0  0  0  0  0  0
    2.1490  -11.6325   -5.0657 H   0  0  0  0  0  0  0  0  0  0  0  0
    2.8109   -9.9324   -5.1493 H   0  0  0  0  0  0  0  0  0  0  0  0
    4.2456  -11.0575   -6.5385 H   0  0  0  0  0  0  0  0  0  0  0  0
    5.0906  -11.1309   -4.9005 H   0  0  0  0  0  0  0  0  0  0  0  0
    4.4485  -13.3949   -4.6021 H   0  0  0  0  0  0  0  0  0  0  0  0
    3.5063  -13.3345   -6.1864 H   0  0  0  0  0  0  0  0  0  0  0  0
    5.2969  -13.6907   -7.4411 H   0  0  0  0  0  0  0  0  0  0  0  0
    6.3753  -12.7092   -6.3415 H   0  0  0  0  0  0  0  0  0  0  0  0
    5.9456  -15.6187   -6.4727 H   0  0  0  0  0  0  0  0  0  0  0  0
    7.3050  -14.6459   -5.7800 H   0  0  0  0  0  0  0  0  0  0  0  0
    5.0906  -14.1820   -4.0797 H   0  0  0  0  0  0  0  0  0  0  0  0
    5.0897  -15.9567   -4.4279 H   0  0  0  0  0  0  0  0  0  0  0  0
    6.6581  -16.1486   -2.8381 H   0  0  0  0  0  0  0  0  0  0  0  0
    7.7743  -15.3201   -4.0288 H   0  0  0  0  0  0  0  0  0  0  0  0
    9.5100  -14.6440   -2.1480 H   0  0  0  0  0  0  0  0  0  0  0  0
   10.6900  -14.7368   -4.8345 H   0  0  0  0  0  0  0  0  0  0  0  0
   10.6239  -13.1058   -5.5842 H   0  0  0  0  0  0  0  0  0  0  0  0
   12.1626  -14.0325   -5.5842 H   0  0  0  0  0  0  0  0  0  0  0  0
   13.5982  -12.7168   -4.4702 H   0  0  0  0  0  0  0  0  0  0  0  0
   14.3348  -11.4591   -2.4560 H   0  0  0  0  0  0  0  0  0  0  0  0
   10.2127  -11.9759    1.6546 H   0  0  0  0  0  0  0  0  0  0  0  0
   11.6288  -12.9273    1.0514 H   0  0  0  0  0  0  0  0  0  0  0  0
   11.1798   -9.9397    0.6316 H   0  0  0  0  0  0  0  0  0  0  0  0
   12.3029  -10.6680    1.8161 H   0  0  0  0  0  0  0  0  0  0  0  0
    5.7293  -12.4601   -3.1017 H   0  0  0  0  0  0  0  0  0  0  0  0
    4.8760  -13.8234   -2.3703 H   0  0  0  0  0  0  0  0  0  0  0  0
    6.2834  -11.5020   -1.0573 H   0  0  0  0  0  0  0  0  0  0  0  0
    4.9367  -12.4703   -0.4298 H   0  0  0  0  0  0  0  0  0  0  0  0
    7.8107  -12.7740    0.0805 H   0  0  0  0  0  0  0  0  0  0  0  0
    6.4829  -13.6695    0.8358 H   0  0  0  0  0  0  0  0  0  0  0  0
    8.2838  -14.8881   -0.8332 H   0  0  0  0  0  0  0  0  0  0  0  0
    6.6109  -15.4361   -0.7813 H   0  0  0  0  0  0  0  0  0  0  0  0
  1  2  1  0
  2  3  1  0
  3  4  1  0
  4  5  1  0
  5  6  1  0
  6  7  1  0
  7  8  1  0
  8  9  1  0
  9 10  1  0
 10 11  1  0
 11 12  1  0
 12 13  2  0
 12 14  1  0
 14 15  1  0
 15 16  2  0
 16 17  1  0
 16 18  1  0
 18 19  2  0
 19 20  1  0
 20 21  2  0
 21 22  1  0
 22 23  1  0
 23 24  1  0
 24 25  1  0
 25 26  2  0
 11 27  1  0
 27 28  1  0
 28 29  1  0
 29 30  1  0
 30 11  1  0
 21 15  1  0
 25 20  1  0
  1 31  1  0
  1 32  1  0
  1 33  1  0
  2 34  1  0
  2 35  1  0
  3 36  1  0
  3 37  1  0
  4 38  1  0
  4 39  1  0
  5 40  1  0
  5 41  1  0
  6 42  1  0
  6 43  1  0
  7 44  1  0
  7 45  1  0
  8 46  1  0
  8 47  1  0
  9 48  1  0
  9 49  1  0
 10 50  1  0
 10 51  1  0
 14 52  1  0
 17 53  1  0
 17 54  1  0
 17 55  1  0
 18 56  1  0
 19 57  1  0
 23 58  1  0
 23 59  1  0
 24 60  1  0
 24 61  1  0
 27 62  1  0
 27 63  1  0
 28 64  1  0
 28 65  1  0
 29 66  1  0
 29 67  1  0
 30 68  1  0
 30 69  1  0
M  END
>  <meeko>  (2) 
{"is_sidechain": [false], "free_energy": -6.247, "intermolecular_energy": -10.231, "internal_energy": -2.318}

$$$$
LIB_FPVAONXMTAGWGU__M_PUB_ALL__e8__s20260927
     RDKit          3D

 69 71  0  0  0  0  0  0  0  0999 V2000
    2.9770  -10.3310   -3.7550 C   0  0  0  0  0  0  0  0  0  0  0  0
    3.1370  -11.6060   -4.5680 C   0  0  0  0  0  0  0  0  0  0  0  0
    1.9690  -12.5670   -4.3410 C   0  0  0  0  0  0  0  0  0  0  0  0
    2.4550  -14.0120   -4.2230 C   0  0  0  0  0  0  0  0  0  0  0  0
    2.2670  -14.6050   -2.8240 C   0  0  0  0  0  0  0  0  0  0  0  0
    2.0380  -13.5930   -1.6970 C   0  0  0  0  0  0  0  0  0  0  0  0
    3.1410  -13.5200   -0.6360 C   0  0  0  0  0  0  0  0  0  0  0  0
    4.4170  -12.8380   -1.1310 C   0  0  0  0  0  0  0  0  0  0  0  0
    5.5790  -13.8310   -1.2140 C   0  0  0  0  0  0  0  0  0  0  0  0
    6.7160  -13.2790   -2.0850 C   0  0  0  0  0  0  0  0  0  0  0  0
    6.8540  -13.9800   -3.4550 C   0  0  0  0  0  0  0  0  0  0  0  0
    8.3170  -14.4390   -3.6930 C   0  0  0  0  0  0  0  0  0  0  0  0
    8.6910  -15.5630   -3.3730 O   0  0  0  0  0  0  0  0  0  0  0  0
    9.1310  -13.4490   -4.2040 N   0  0  0  0  0  0  0  0  0  0  0  0
   10.4790  -13.5220   -4.6280 C   0  0  0  0  0  0  0  0  0  0  0  0
   10.9570  -14.1320   -5.8040 C   0  0  0  0  0  0  0  0  0  0  0  0
   10.0880  -14.7260   -6.8790 C   0  0  0  0  0  0  0  0  0  0  0  0
   12.3490  -14.1630   -6.0370 C   0  0  0  0  0  0  0  0  0  0  0  0
   13.2490  -13.5430   -5.1720 C   0  0  0  0  0  0  0  0  0  0  0  0
   12.7660  -12.8800   -4.0500 C   0  0  0  0  0  0  0  0  0  0  0  0
   11.3980  -12.8750   -3.7700 C   0  0  0  0  0  0  0  0  0  0  0  0
   10.8740  -12.2380   -2.6610 O   0  0  0  0  0  0  0  0  0  0  0  0
   11.8170  -12.1480   -1.5880 C   0  0  0  0  0  0  0  0  0  0  0  0
   13.0620  -11.4030   -2.0140 C   0  0  0  0  0  0  0  0  0  0  0  0
   13.6890  -12.1480   -3.1580 C   0  0  0  0  0  0  0  0  0  0  0  0
   14.8940  -12.1160   -3.3810 O   0  0  0  0  0  0  0  0  0  0  0  0
    5.8710  -15.1580   -3.5980 C   0  0  0  0  0  0  0  0  0  0  0  0
    5.6700  -15.3390   -5.1040 C   0  0  0  0  0  0  0  0  0  0  0  0
    6.0670  -14.0150   -5.7500 C   0  0  0  0  0  0  0  0  0  0  0  0
    6.3770  -13.0630   -4.5980 C   0  0  0  0  0  0  0  0  0  0  0  0
    3.0075  -10.5737   -2.6825 H   0  0  0  0  0  0  0  0  0  0  0  0
    3.7951   -9.6366   -3.9972 H   0  0  0  0  0  0  0  0  0  0  0  0
    2.0127   -9.8603   -3.9972 H   0  0  0  0  0  0  0  0  0  0  0  0
    3.1829  -11.3455   -5.6357 H   0  0  0  0  0  0  0  0  0  0  0  0
    4.0624  -12.1061   -4.2463 H   0  0  0  0  0  0  0  0  0  0  0  0
    1.4492  -12.2866   -3.4130 H   0  0  0  0  0  0  0  0  0  0  0  0
    1.2893  -12.4980   -5.2031 H   0  0  0  0  0  0  0  0  0  0  0  0
    1.8940  -14.6282   -4.9411 H   0  0  0  0  0  0  0  0  0  0  0  0
    3.5350  -14.0092   -4.4318 H   0  0  0  0  0  0  0  0  0  0  0  0
    1.3968  -15.2770   -2.8563 H   0  0  0  0  0  0  0  0  0  0  0  0
    3.2138  -15.1109   -2.5839 H   0  0  0  0  0  0  0  0  0  0  0  0
    1.9403  -12.5964   -2.1522 H   0  0  0  0  0  0  0  0  0  0  0  0
    1.1350  -13.9320   -1.1682 H   0  0  0  0  0  0  0  0  0  0  0  0
    2.7573  -12.9568    0.2274 H   0  0  0  0  0  0  0  0  0  0  0  0
    3.4072  -14.5545   -0.3732 H   0  0  0  0  0  0  0  0  0  0  0  0
    4.2338  -12.4158   -2.1301 H   0  0  0  0  0  0  0  0  0  0  0  0
    4.6869  -12.0448   -0.4183 H   0  0  0  0  0  0  0  0  0  0  0  0
    5.9624  -14.0209   -0.2006 H   0  0  0  0  0  0  0  0  0  0  0  0
    5.2109  -14.7625   -1.6688 H   0  0  0  0  0  0  0  0  0  0  0  0
    6.5292  -12.2093   -2.2608 H   0  0  0  0  0  0  0  0  0  0  0  0
    7.6531  -13.4606   -1.5383 H   0  0  0  0  0  0  0  0  0  0  0  0
    8.7970  -12.4950   -4.1150 H   0  0  0  0  0  0  0  0  0  0  0  0
    9.2645  -15.2889   -6.4154 H   0  0  0  0  0  0  0  0  0  0  0  0
    9.6753  -13.9202   -7.5038 H   0  0  0  0  0  0  0  0  0  0  0  0
   10.6889  -15.4032   -7.5038 H   0  0  0  0  0  0  0  0  0  0  0  0
   12.7329  -14.6895   -6.9232 H   0  0  0  0  0  0  0  0  0  0  0  0
   14.3295  -13.5780   -5.3751 H   0  0  0  0  0  0  0  0  0  0  0  0
   11.3515  -11.6161   -0.7451 H   0  0  0  0  0  0  0  0  0  0  0  0
   12.1057  -13.1674   -1.2921 H   0  0  0  0  0  0  0  0  0  0  0  0
   12.7950  -10.3852   -2.3346 H   0  0  0  0  0  0  0  0  0  0  0  0
   13.7686  -11.3340   -1.1738 H   0  0  0  0  0  0  0  0  0  0  0  0
    6.2963  -16.0702   -3.1541 H   0  0  0  0  0  0  0  0  0  0  0  0
    4.9209  -14.9633   -3.0790 H   0  0  0  0  0  0  0  0  0  0  0  0
    6.3087  -16.1525   -5.4787 H   0  0  0  0  0  0  0  0  0  0  0  0
    4.6286  -15.6031   -5.3399 H   0  0  0  0  0  0  0  0  0  0  0  0
    6.9555  -14.1501   -6.3842 H   0  0  0  0  0  0  0  0  0  0  0  0
    5.2650  -13.6231   -6.3928 H   0  0  0  0  0  0  0  0  0  0  0  0
    7.1679  -12.3534   -4.8825 H   0  0  0  0  0  0  0  0  0  0  0  0
    5.5050  -12.4570   -4.3109 H   0  0  0  0  0  0  0  0  0  0  0  0
  1  2  1  0
  2  3  1  0
  3  4  1  0
  4  5  1  0
  5  6  1  0
  6  7  1  0
  7  8  1  0
  8  9  1  0
  9 10  1  0
 10 11  1  0
 11 12  1  0
 12 13  2  0
 12 14  1  0
 14 15  1  0
 15 16  2  0
 16 17  1  0
 16 18  1  0
 18 19  2  0
 19 20  1  0
 20 21  2  0
 21 22  1  0
 22 23  1  0
 23 24  1  0
 24 25  1  0
 25 26  2  0
 11 27  1  0
 27 28  1  0
 28 29  1  0
 29 30  1  0
 30 11  1  0
 21 15  1  0
 25 20  1  0
  1 31  1  0
  1 32  1  0
  1 33  1  0
  2 34  1  0
  2 35  1  0
  3 36  1  0
  3 37  1  0
  4 38  1  0
  4 39  1  0
  5 40  1  0
  5 41  1  0
  6 42  1  0
  6 43  1  0
  7 44  1  0
  7 45  1  0
  8 46  1  0
  8 47  1  0
  9 48  1  0
  9 49  1  0
 10 50  1  0
 10 51  1  0
 14 52  1  0
 17 53  1  0
 17 54  1  0
 17 55  1  0
 18 56  1  0
 19 57  1  0
 23 58  1  0
 23 59  1  0
 24 60  1  0
 24 61  1  0
 27 62  1  0
 27 63  1  0
 28 64  1  0
 28 65  1  0
 29 66  1  0
 29 67  1  0
 30 68  1  0
 30 69  1  0
M  END
>  <meeko>  (3) 
{"is_sidechain": [false], "free_energy": -6.233, "intermolecular_energy": -9.629, "internal_energy": -2.897}

$$$$
LIB_FPVAONXMTAGWGU__M_PUB_ALL__e8__s20260927
     RDKit          3D

 69 71  0  0  0  0  0  0  0  0999 V2000
   19.3660   -6.9810    9.6370 C   0  0  0  0  0  0  0  0  0  0  0  0
   18.5150   -6.1500   10.5850 C   0  0  0  0  0  0  0  0  0  0  0  0
   17.3380   -6.9570   11.1350 C   0  0  0  0  0  0  0  0  0  0  0  0
   16.0230   -6.1890   10.9890 C   0  0  0  0  0  0  0  0  0  0  0  0
   14.8780   -6.7780   11.8170 C   0  0  0  0  0  0  0  0  0  0  0  0
   13.9410   -7.7340   11.0720 C   0  0  0  0  0  0  0  0  0  0  0  0
   13.8410   -9.1500   11.6490 C   0  0  0  0  0  0  0  0  0  0  0  0
   14.2700   -9.2420   13.1140 C   0  0  0  0  0  0  0  0  0  0  0  0
   13.4960  -10.3390   13.8500 C   0  0  0  0  0  0  0  0  0  0  0  0
   11.9830  -10.1870   13.6350 C   0  0  0  0  0  0  0  0  0  0  0  0
   11.1720  -11.4600   13.9650 C   0  0  0  0  0  0  0  0  0  0  0  0
    9.6540  -11.2090   13.7690 C   0  0  0  0  0  0  0  0  0  0  0  0
    9.0630  -11.6260   12.7780 O   0  0  0  0  0  0  0  0  0  0  0  0
    9.0910  -10.4250   14.7550 N   0  0  0  0  0  0  0  0  0  0  0  0
    7.7360  -10.0670   14.9560 C   0  0  0  0  0  0  0  0  0  0  0  0
    6.7350  -10.8670   15.5390 C   0  0  0  0  0  0  0  0  0  0  0  0
    6.9650  -12.2200   16.1540 C   0  0  0  0  0  0  0  0  0  0  0  0
    5.4160  -10.3670   15.6050 C   0  0  0  0  0  0  0  0  0  0  0  0
    5.1010   -9.0790   15.1750 C   0  0  0  0  0  0  0  0  0  0  0  0
    6.1080   -8.2670   14.6660 C   0  0  0  0  0  0  0  0  0  0  0  0
    7.4110   -8.7540   14.5460 C   0  0  0  0  0  0  0  0  0  0  0  0
    8.4410   -7.9860   14.0360 O   0  0  0  0  0  0  0  0  0  0  0  0
    7.9740   -6.9790   13.1320 C   0  0  0  0  0  0  0  0  0  0  0  0
    6.9870   -6.0530   13.8060 C   0  0  0  0  0  0  0  0  0  0  0  0
    5.8180   -6.8720   14.2750 C   0  0  0  0  0  0  0  0  0  0  0  0
    4.6890   -6.4040   14.3820 O   0  0  0  0  0  0  0  0  0  0  0  0
   11.6480  -12.6720   13.1430 C   0  0  0  0  0  0  0  0  0  0  0  0
   11.2420  -13.9010   13.9580 C   0  0  0  0  0  0  0  0  0  0  0  0
   11.0530  -13.4170   15.3930 C   0  0  0  0  0  0  0  0  0  0  0  0
   11.4640  -11.9480   15.3980 C   0  0  0  0  0  0  0  0  0  0  0  0
   20.0336   -7.6329   10.2195 H   0  0  0  0  0  0  0  0  0  0  0  0
   18.7124   -7.5981    9.0030 H   0  0  0  0  0  0  0  0  0  0  0  0
   19.9674   -6.3129    9.0030 H   0  0  0  0  0  0  0  0  0  0  0  0
   19.1406   -5.8128   11.4246 H   0  0  0  0  0  0  0  0  0  0  0  0
   18.1138   -5.2916   10.0262 H   0  0  0  0  0  0  0  0  0  0  0  0
   17.2632   -7.9047   10.5816 H   0  0  0  0  0  0  0  0  0  0  0  0
   17.5144   -7.1447   12.2044 H   0  0  0  0  0  0  0  0  0  0  0  0
   16.1883   -5.1506   11.3121 H   0  0  0  0  0  0  0  0  0  0  0  0
   15.7254   -6.2540    9.9320 H   0  0  0  0  0  0  0  0  0  0  0  0
   15.3198   -7.3277   12.6612 H   0  0  0  0  0  0  0  0  0  0  0  0
   14.2553   -5.9225   12.1177 H   0  0  0  0  0  0  0  0  0  0  0  0
   12.9329   -7.2938   11.0799 H   0  0  0  0  0  0  0  0  0  0  0  0
   14.3691   -7.8498   10.0654 H   0  0  0  0  0  0  0  0  0  0  0  0
   12.7964   -9.4854   11.5701 H   0  0  0  0  0  0  0  0  0  0  0  0
   14.5273   -9.7853   11.0698 H   0  0  0  0  0  0  0  0  0  0  0  0
   15.3453   -9.4695   13.1593 H   0  0  0  0  0  0  0  0  0  0  0  0
   14.0564   -8.2789   13.6005 H   0  0  0  0  0  0  0  0  0  0  0  0
   13.8160  -11.3207   13.4707 H   0  0  0  0  0  0  0  0  0  0  0  0
   13.7064  -10.2532   14.9263 H   0  0  0  0  0  0  0  0  0  0  0  0
   11.6223   -9.3704   14.2777 H   0  0  0  0  0  0  0  0  0  0  0  0
   11.8320   -9.9810   12.5651 H   0  0  0  0  0  0  0  0  0  0  0  0
    9.7300   -9.8800   15.3240 H   0  0  0  0  0  0  0  0  0  0  0  0
    6.9500  -12.1318   17.2504 H   0  0  0  0  0  0  0  0  0  0  0  0
    6.1712  -12.9094   15.8307 H   0  0  0  0  0  0  0  0  0  0  0  0
    7.9421  -12.6084   15.8307 H   0  0  0  0  0  0  0  0  0  0  0  0
    4.6179  -11.0094   16.0054 H   0  0  0  0  0  0  0  0  0  0  0  0
    4.0669   -8.7092   15.2378 H   0  0  0  0  0  0  0  0  0  0  0  0
    8.8325   -6.3905   12.7762 H   0  0  0  0  0  0  0  0  0  0  0  0
    7.4674   -7.4746   12.2907 H   0  0  0  0  0  0  0  0  0  0  0  0
    7.4655   -5.5610   14.6656 H   0  0  0  0  0  0  0  0  0  0  0  0
    6.6497   -5.2794   13.1005 H   0  0  0  0  0  0  0  0  0  0  0  0
   11.1588  -12.6848   12.1579 H   0  0  0  0  0  0  0  0  0  0  0  0
   12.7324  -12.6421   12.9610 H   0  0  0  0  0  0  0  0  0  0  0  0
   10.3024  -14.3220   13.5707 H   0  0  0  0  0  0  0  0  0  0  0  0
   12.0050  -14.6912   13.8987 H   0  0  0  0  0  0  0  0  0  0  0  0
   10.0006  -13.5206   15.6960 H   0  0  0  0  0  0  0  0  0  0  0  0
   11.6551  -14.0066   16.1000 H   0  0  0  0  0  0  0  0  0  0  0  0
   10.8706  -11.3808   16.1303 H   0  0  0  0  0  0  0  0  0  0  0  0
   12.5182  -11.8098   15.6800 H   0  0  0  0  0  0  0  0  0  0  0  0
  1  2  1  0
  2  3  1  0
  3  4  1  0
  4  5  1  0
  5  6  1  0
  6  7  1  0
  7  8  1  0
  8  9  1  0
  9 10  1  0
 10 11  1  0
 11 12  1  0
 12 13  2  0
 12 14  1  0
 14 15  1  0
 15 16  2  0
 16 17  1  0
 16 18  1  0
 18 19  2  0
 19 20  1  0
 20 21  2  0
 21 22  1  0
 22 23  1  0
 23 24  1  0
 24 25  1  0
 25 26  2  0
 11 27  1  0
 27 28  1  0
 28 29  1  0
 29 30  1  0
 30 11  1  0
 21 15  1  0
 25 20  1  0
  1 31  1  0
  1 32  1  0
  1 33  1  0
  2 34  1  0
  2 35  1  0
  3 36  1  0
  3 37  1  0
  4 38  1  0
  4 39  1  0
  5 40  1  0
  5 41  1  0
  6 42  1  0
  6 43  1  0
  7 44  1  0
  7 45  1  0
  8 46  1  0
  8 47  1  0
  9 48  1  0
  9 49  1  0
 10 50  1  0
 10 51  1  0
 14 52  1  0
 17 53  1  0
 17 54  1  0
 17 55  1  0
 18 56  1  0
 19 57  1  0
 23 58  1  0
 23 59  1  0
 24 60  1  0
 24 61  1  0
 27 62  1  0
 27 63  1  0
 28 64  1  0
 28 65  1  0
 29 66  1  0
 29 67  1  0
 30 68  1  0
 30 69  1  0
M  END
>  <meeko>  (4) 
{"is_sidechain": [false], "free_energy": -6.165, "intermolecular_energy": -10.852, "internal_energy": -1.562}

$$$$
LIB_FPVAONXMTAGWGU__M_PUB_ALL__e8__s20260927
     RDKit          3D

 69 71  0  0  0  0  0  0  0  0999 V2000
   -4.3750  -10.7330   -0.7610 C   0  0  0  0  0  0  0  0  0  0  0  0
   -3.4070  -11.7460   -0.1690 C   0  0  0  0  0  0  0  0  0  0  0  0
   -4.1150  -12.7010    0.7930 C   0  0  0  0  0  0  0  0  0  0  0  0
   -3.7570  -14.1570    0.4910 C   0  0  0  0  0  0  0  0  0  0  0  0
   -2.4170  -14.3170   -0.2320 C   0  0  0  0  0  0  0  0  0  0  0  0
   -1.4800  -15.3910    0.3310 C   0  0  0  0  0  0  0  0  0  0  0  0
   -0.8340  -16.3180   -0.7050 C   0  0  0  0  0  0  0  0  0  0  0  0
    0.0020  -17.4360   -0.0810 C   0  0  0  0  0  0  0  0  0  0  0  0
    1.4730  -17.3220   -0.4930 C   0  0  0  0  0  0  0  0  0  0  0  0
    2.2460  -16.4070    0.4670 C   0  0  0  0  0  0  0  0  0  0  0  0
    3.1180  -15.3470   -0.2430 C   0  0  0  0  0  0  0  0  0  0  0  0
    2.7970  -13.9250    0.2900 C   0  0  0  0  0  0  0  0  0  0  0  0
    3.5630  -13.3450    1.0530 O   0  0  0  0  0  0  0  0  0  0  0  0
    1.5660  -13.4500   -0.1090 N   0  0  0  0  0  0  0  0  0  0  0  0
    0.9800  -12.1780    0.1020 C   0  0  0  0  0  0  0  0  0  0  0  0
    1.1190  -11.0440   -0.7200 C   0  0  0  0  0  0  0  0  0  0  0  0
    1.8380  -11.0220   -2.0410 C   0  0  0  0  0  0  0  0  0  0  0  0
    0.5090   -9.8350   -0.3210 C   0  0  0  0  0  0  0  0  0  0  0  0
   -0.2820   -9.7590    0.8250 C   0  0  0  0  0  0  0  0  0  0  0  0
   -0.4740  -10.9000    1.5950 C   0  0  0  0  0  0  0  0  0  0  0  0
    0.1560  -12.0970    1.2480 C   0  0  0  0  0  0  0  0  0  0  0  0
    0.0020  -13.2540    1.9890 O   0  0  0  0  0  0  0  0  0  0  0  0
   -0.3020  -12.9840    3.3620 C   0  0  0  0  0  0  0  0  0  0  0  0
   -1.5690  -12.1700    3.4920 C   0  0  0  0  0  0  0  0  0  0  0  0
   -1.3700  -10.8690    2.7700 C   0  0  0  0  0  0  0  0  0  0  0  0
   -1.9530   -9.8400    3.0950 O   0  0  0  0  0  0  0  0  0  0  0  0
    4.6200  -15.6630   -0.1190 C   0  0  0  0  0  0  0  0  0  0  0  0
    5.2820  -14.9640   -1.3070 C   0  0  0  0  0  0  0  0  0  0  0  0
    4.1800  -14.7370   -2.3370 C   0  0  0  0  0  0  0  0  0  0  0  0
    2.9330  -15.4110   -1.7720 C   0  0  0  0  0  0  0  0  0  0  0  0
   -4.8872  -10.1970    0.0516 H   0  0  0  0  0  0  0  0  0  0  0  0
   -3.8196  -10.0142   -1.3814 H   0  0  0  0  0  0  0  0  0  0  0  0
   -5.1183  -11.2552   -1.3814 H   0  0  0  0  0  0  0  0  0  0  0  0
   -2.9567  -12.3297   -0.9854 H   0  0  0  0  0  0  0  0  0  0  0  0
   -2.6354  -11.1991    0.3927 H   0  0  0  0  0  0  0  0  0  0  0  0
   -3.8111  -12.4631    1.8231 H   0  0  0  0  0  0  0  0  0  0  0  0
   -5.2011  -12.5769    0.6703 H   0  0  0  0  0  0  0  0  0  0  0  0
   -3.7081  -14.7083    1.4416 H   0  0  0  0  0  0  0  0  0  0  0  0
   -4.5360  -14.5504   -0.1787 H   0  0  0  0  0  0  0  0  0  0  0  0
   -2.6278  -14.5695   -1.2817 H   0  0  0  0  0  0  0  0  0  0  0  0
   -1.8897  -13.3608   -0.0993 H   0  0  0  0  0  0  0  0  0  0  0  0
   -0.6733  -14.8823    0.8791 H   0  0  0  0  0  0  0  0  0  0  0  0
   -2.1085  -16.0372    0.9614 H   0  0  0  0  0  0  0  0  0  0  0  0
   -1.6314  -16.7747   -1.3097 H   0  0  0  0  0  0  0  0  0  0  0  0
   -0.1531  -15.7029   -1.3117 H   0  0  0  0  0  0  0  0  0  0  0  0
   -0.0702  -17.3695    1.0146 H   0  0  0  0  0  0  0  0  0  0  0  0
   -0.3861  -18.4018   -0.4368 H   0  0  0  0  0  0  0  0  0  0  0  0
    1.9284  -18.3232   -0.4800 H   0  0  0  0  0  0  0  0  0  0  0  0
    1.5206  -16.8889   -1.5030 H   0  0  0  0  0  0  0  0  0  0  0  0
    1.5200  -15.8852    1.1078 H   0  0  0  0  0  0  0  0  0  0  0  0
    2.9297  -17.0506    1.0400 H   0  0  0  0  0  0  0  0  0  0  0  0
    0.9020  -14.1360   -0.4530 H   0  0  0  0  0  0  0  0  0  0  0  0
    2.9237  -10.9888   -1.8670 H   0  0  0  0  0  0  0  0  0  0  0  0
    1.5855  -11.9283   -2.6110 H   0  0  0  0  0  0  0  0  0  0  0  0
    1.5306  -10.1328   -2.6110 H   0  0  0  0  0  0  0  0  0  0  0  0
    0.6613   -8.9309   -0.9288 H   0  0  0  0  0  0  0  0  0  0  0  0
   -0.7488   -8.8065    1.1163 H   0  0  0  0  0  0  0  0  0  0  0  0
   -0.4320  -13.9375    3.8948 H   0  0  0  0  0  0  0  0  0  0  0  0
    0.5283  -12.4072    3.7955 H   0  0  0  0  0  0  0  0  0  0  0  0
   -2.4110  -12.7186    3.0447 H   0  0  0  0  0  0  0  0  0  0  0  0
   -1.7927  -11.9842    4.5529 H   0  0  0  0  0  0  0  0  0  0  0  0
    5.0186  -15.2716    0.8286 H   0  0  0  0  0  0  0  0  0  0  0  0
    4.8116  -16.7462   -0.1233 H   0  0  0  0  0  0  0  0  0  0  0  0
    5.7128  -14.0023   -0.9916 H   0  0  0  0  0  0  0  0  0  0  0  0
    6.1001  -15.5703   -1.7231 H   0  0  0  0  0  0  0  0  0  0  0  0
    4.0029  -13.6604   -2.4766 H   0  0  0  0  0  0  0  0  0  0  0  0
    4.4533  -15.1518   -3.3184 H   0  0  0  0  0  0  0  0  0  0  0  0
    2.0260  -14.8684   -2.0768 H   0  0  0  0  0  0  0  0  0  0  0  0
    2.8140  -16.4422   -2.1358 H   0  0  0  0  0  0  0  0  0  0  0  0
  1  2  1  0
  2  3  1  0
  3  4  1  0
  4  5  1  0
  5  6  1  0
  6  7  1  0
  7  8  1  0
  8  9  1  0
  9 10  1  0
 10 11  1  0
 11 12  1  0
 12 13  2  0
 12 14  1  0
 14 15  1  0
 15 16  2  0
 16 17  1  0
 16 18  1  0
 18 19  2  0
 19 20  1  0
 20 21  2  0
 21 22  1  0
 22 23  1  0
 23 24  1  0
 24 25  1  0
 25 26  2  0
 11 27  1  0
 27 28  1  0
 28 29  1  0
 29 30  1  0
 30 11  1  0
 21 15  1  0
 25 20  1  0
  1 31  1  0
  1 32  1  0
  1 33  1  0
  2 34  1  0
  2 35  1  0
  3 36  1  0
  3 37  1  0
  4 38  1  0
  4 39  1  0
  5 40  1  0
  5 41  1  0
  6 42  1  0
  6 43  1  0
  7 44  1  0
  7 45  1  0
  8 46  1  0
  8 47  1  0
  9 48  1  0
  9 49  1  0
 10 50  1  0
 10 51  1  0
 14 52  1  0
 17 53  1  0
 17 54  1  0
 17 55  1  0
 18 56  1  0
 19 57  1  0
 23 58  1  0
 23 59  1  0
 24 60  1  0
 24 61  1  0
 27 62  1  0
 27 63  1  0
 28 64  1  0
 28 65  1  0
 29 66  1  0
 29 67  1  0
 30 68  1  0
 30 69  1  0
M  END
>  <meeko>  (5) 
{"is_sidechain": [false], "free_energy": -6.098, "intermolecular_energy": -9.674, "internal_energy": -2.63}

$$$$
LIB_FPVAONXMTAGWGU__M_PUB_ALL__e8__s20260927
     RDKit          3D

 69 71  0  0  0  0  0  0  0  0999 V2000
    0.3510  -14.3800   -5.1040 C   0  0  0  0  0  0  0  0  0  0  0  0
    0.9040  -14.3820   -3.6870 C   0  0  0  0  0  0  0  0  0  0  0  0
    2.4330  -14.3820   -3.6820 C   0  0  0  0  0  0  0  0  0  0  0  0
    2.9900  -13.6460   -4.9020 C   0  0  0  0  0  0  0  0  0  0  0  0
    2.8750  -12.1220   -4.7990 C   0  0  0  0  0  0  0  0  0  0  0  0
    3.5850  -11.4800   -3.6030 C   0  0  0  0  0  0  0  0  0  0  0  0
    2.6870  -10.6980   -2.6390 C   0  0  0  0  0  0  0  0  0  0  0  0
    2.2110  -11.5250   -1.4440 C   0  0  0  0  0  0  0  0  0  0  0  0
    0.9580  -10.9150   -0.8110 C   0  0  0  0  0  0  0  0  0  0  0  0
    0.6730  -11.5370    0.5620 C   0  0  0  0  0  0  0  0  0  0  0  0
   -0.6600  -11.0780    1.1950 C   0  0  0  0  0  0  0  0  0  0  0  0
   -1.0930  -12.0460    2.3270 C   0  0  0  0  0  0  0  0  0  0  0  0
   -1.1180  -11.6830    3.4990 O   0  0  0  0  0  0  0  0  0  0  0  0
   -1.3520  -13.3280    1.8890 N   0  0  0  0  0  0  0  0  0  0  0  0
   -1.8510  -14.4410    2.6080 C   0  0  0  0  0  0  0  0  0  0  0  0
   -3.1830  -14.6490    3.0130 C   0  0  0  0  0  0  0  0  0  0  0  0
   -4.3410  -13.7590    2.6510 C   0  0  0  0  0  0  0  0  0  0  0  0
   -3.4910  -15.7940    3.7790 C   0  0  0  0  0  0  0  0  0  0  0  0
   -2.5250  -16.7540    4.0790 C   0  0  0  0  0  0  0  0  0  0  0  0
   -1.2260  -16.5800    3.6140 C   0  0  0  0  0  0  0  0  0  0  0  0
   -0.8850  -15.4320    2.8950 C   0  0  0  0  0  0  0  0  0  0  0  0
    0.3960  -15.2120    2.4240 O   0  0  0  0  0  0  0  0  0  0  0  0
    1.3880  -15.8760    3.2120 C   0  0  0  0  0  0  0  0  0  0  0  0
    1.1510  -17.3690    3.2460 C   0  0  0  0  0  0  0  0  0  0  0  0
   -0.2010  -17.6170    3.8500 C   0  0  0  0  0  0  0  0  0  0  0  0
   -0.4690  -18.6450    4.4630 O   0  0  0  0  0  0  0  0  0  0  0  0
   -0.5820   -9.6250    1.7030 C   0  0  0  0  0  0  0  0  0  0  0  0
   -2.0260   -9.1210    1.7130 C   0  0  0  0  0  0  0  0  0  0  0  0
   -2.8000  -10.0230    0.7570 C   0  0  0  0  0  0  0  0  0  0  0  0
   -1.7660  -10.9540    0.1290 C   0  0  0  0  0  0  0  0  0  0  0  0
   -0.7484  -14.3760   -5.0685 H   0  0  0  0  0  0  0  0  0  0  0  0
    0.7040  -13.4831   -5.6341 H   0  0  0  0  0  0  0  0  0  0  0  0
    0.6975  -15.2794   -5.6341 H   0  0  0  0  0  0  0  0  0  0  0  0
    0.5449  -13.4846   -3.1619 H   0  0  0  0  0  0  0  0  0  0  0  0
    0.5573  -15.2960   -3.1826 H   0  0  0  0  0  0  0  0  0  0  0  0
    2.7889  -13.8830   -2.7685 H   0  0  0  0  0  0  0  0  0  0  0  0
    2.7815  -15.4248   -3.7151 H   0  0  0  0  0  0  0  0  0  0  0  0
    4.0525  -13.9087   -5.0124 H   0  0  0  0  0  0  0  0  0  0  0  0
    2.3916  -13.9585   -5.7705 H   0  0  0  0  0  0  0  0  0  0  0  0
    3.2999  -11.6886   -5.7164 H   0  0  0  0  0  0  0  0  0  0  0  0
    1.8044  -11.9116   -4.6595 H   0  0  0  0  0  0  0  0  0  0  0  0
    4.0769  -12.2812   -3.0320 H   0  0  0  0  0  0  0  0  0  0  0  0
    4.2820  -10.7429   -4.0283 H   0  0  0  0  0  0  0  0  0  0  0  0
    3.2516   -9.8328   -2.2612 H   0  0  0  0  0  0  0  0  0  0  0  0
    1.7913  -10.3972   -3.2023 H   0  0  0  0  0  0  0  0  0  0  0  0
    1.9807  -12.5457   -1.7833 H   0  0  0  0  0  0  0  0  0  0  0  0
    3.0110  -11.5377   -0.6891 H   0  0  0  0  0  0  0  0  0  0  0  0
    1.1075   -9.8319   -0.6905 H   0  0  0  0  0  0  0  0  0  0  0  0
    0.1007  -11.1164   -1.4701 H   0  0  0  0  0  0  0  0  0  0  0  0
    0.6429  -12.6305    0.4469 H   0  0  0  0  0  0  0  0  0  0  0  0
    1.4766  -11.2041    1.2354 H   0  0  0  0  0  0  0  0  0  0  0  0
   -0.9840  -13.5810    0.9780 H   0  0  0  0  0  0  0  0  0  0  0  0
   -4.8210  -13.3901    3.5694 H   0  0  0  0  0  0  0  0  0  0  0  0
   -3.9770  -12.9060    2.0595 H   0  0  0  0  0  0  0  0  0  0  0  0
   -5.0716  -14.3303    2.0595 H   0  0  0  0  0  0  0  0  0  0  0  0
   -4.5179  -15.9324    4.1482 H   0  0  0  0  0  0  0  0  0  0  0  0
   -2.7877  -17.6392    4.6769 H   0  0  0  0  0  0  0  0  0  0  0  0
    2.3801  -15.6801    2.7792 H   0  0  0  0  0  0  0  0  0  0  0  0
    1.3304  -15.4909    4.2408 H   0  0  0  0  0  0  0  0  0  0  0  0
    1.1819  -17.7741    2.2238 H   0  0  0  0  0  0  0  0  0  0  0  0
    1.9304  -17.8634    3.8444 H   0  0  0  0  0  0  0  0  0  0  0  0
   -0.1564   -9.5939    2.7168 H   0  0  0  0  0  0  0  0  0  0  0  0
    0.0643   -9.0029    1.0664 H   0  0  0  0  0  0  0  0  0  0  0  0
   -2.4467   -9.1903    2.7270 H   0  0  0  0  0  0  0  0  0  0  0  0
   -2.0841   -8.0669    1.4039 H   0  0  0  0  0  0  0  0  0  0  0  0
   -3.5546  -10.6048    1.3067 H   0  0  0  0  0  0  0  0  0  0  0  0
   -3.3330   -9.4381   -0.0071 H   0  0  0  0  0  0  0  0  0  0  0  0
   -2.2090  -11.9372   -0.0877 H   0  0  0  0  0  0  0  0  0  0  0  0
   -1.3833  -10.5692   -0.8278 H   0  0  0  0  0  0  0  0  0  0  0  0
  1  2  1  0
  2  3  1  0
  3  4  1  0
  4  5  1  0
  5  6  1  0
  6  7  1  0
  7  8  1  0
  8  9  1  0
  9 10  1  0
 10 11  1  0
 11 12  1  0
 12 13  2  0
 12 14  1  0
 14 15  1  0
 15 16  2  0
 16 17  1  0
 16 18  1  0
 18 19  2  0
 19 20  1  0
 20 21  2  0
 21 22  1  0
 22 23  1  0
 23 24  1  0
 24 25  1  0
 25 26  2  0
 11 27  1  0
 27 28  1  0
 28 29  1  0
 29 30  1  0
 30 11  1  0
 21 15  1  0
 25 20  1  0
  1 31  1  0
  1 32  1  0
  1 33  1  0
  2 34  1  0
  2 35  1  0
  3 36  1  0
  3 37  1  0
  4 38  1  0
  4 39  1  0
  5 40  1  0
  5 41  1  0
  6 42  1  0
  6 43  1  0
  7 44  1  0
  7 45  1  0
  8 46  1  0
  8 47  1  0
  9 48  1  0
  9 49  1  0
 10 50  1  0
 10 51  1  0
 14 52  1  0
 17 53  1  0
 17 54  1  0
 17 55  1  0
 18 56  1  0
 19 57  1  0
 23 58  1  0
 23 59  1  0
 24 60  1  0
 24 61  1  0
 27 62  1  0
 27 63  1  0
 28 64  1  0
 28 65  1  0
 29 66  1  0
 29 67  1  0
 30 68  1  0
 30 69  1  0
M  END
>  <meeko>  (6) 
{"is_sidechain": [false], "free_energy": -6.037, "intermolecular_energy": -10.617, "internal_energy": -1.588}

$$$$
LIB_FPVAONXMTAGWGU__M_PUB_ALL__e8__s20260927
     RDKit          3D

 69 71  0  0  0  0  0  0  0  0999 V2000
    3.0800  -11.2420   -4.1620 C   0  0  0  0  0  0  0  0  0  0  0  0
    2.4100  -12.6060   -4.1100 C   0  0  0  0  0  0  0  0  0  0  0  0
    3.3150  -13.6970   -4.6860 C   0  0  0  0  0  0  0  0  0  0  0  0
    4.7170  -13.1570   -4.9750 C   0  0  0  0  0  0  0  0  0  0  0  0
    5.5850  -14.1220   -5.7870 C   0  0  0  0  0  0  0  0  0  0  0  0
    5.4570  -15.6040   -5.4190 C   0  0  0  0  0  0  0  0  0  0  0  0
    6.3410  -16.0790   -4.2610 C   0  0  0  0  0  0  0  0  0  0  0  0
    5.5460  -16.5910   -3.0590 C   0  0  0  0  0  0  0  0  0  0  0  0
    5.5820  -15.5880   -1.9030 C   0  0  0  0  0  0  0  0  0  0  0  0
    6.7010  -14.5560   -2.1010 C   0  0  0  0  0  0  0  0  0  0  0  0
    6.8610  -13.5700   -0.9220 C   0  0  0  0  0  0  0  0  0  0  0  0
    8.0590  -12.6150   -1.1640 C   0  0  0  0  0  0  0  0  0  0  0  0
    7.8930  -11.4920   -1.6300 O   0  0  0  0  0  0  0  0  0  0  0  0
    9.2850  -13.1840   -0.8850 N   0  0  0  0  0  0  0  0  0  0  0  0
   10.5730  -12.5970   -0.8980 C   0  0  0  0  0  0  0  0  0  0  0  0
   11.1550  -11.8310    0.1290 C   0  0  0  0  0  0  0  0  0  0  0  0
   10.5380  -11.5910    1.4800 C   0  0  0  0  0  0  0  0  0  0  0  0
   12.4340  -11.2700   -0.0820 C   0  0  0  0  0  0  0  0  0  0  0  0
   13.1580  -11.5190   -1.2470 C   0  0  0  0  0  0  0  0  0  0  0  0
   12.6070  -12.3360   -2.2280 C   0  0  0  0  0  0  0  0  0  0  0  0
   11.3250  -12.8640   -2.0650 C   0  0  0  0  0  0  0  0  0  0  0  0
   10.7340  -13.6720   -3.0180 O   0  0  0  0  0  0  0  0  0  0  0  0
   11.2330  -13.4170   -4.3340 C   0  0  0  0  0  0  0  0  0  0  0  0
   12.7290  -13.6270   -4.4030 C   0  0  0  0  0  0  0  0  0  0  0  0
   13.3820  -12.6800   -3.4380 C   0  0  0  0  0  0  0  0  0  0  0  0
   14.5180  -12.2480   -3.6080 O   0  0  0  0  0  0  0  0  0  0  0  0
    5.5650  -12.7820   -0.6540 C   0  0  0  0  0  0  0  0  0  0  0  0
    5.6440  -12.3560    0.8130 C   0  0  0  0  0  0  0  0  0  0  0  0
    6.6380  -13.3020    1.4790 C   0  0  0  0  0  0  0  0  0  0  0  0
    7.0240  -14.3240    0.4130 C   0  0  0  0  0  0  0  0  0  0  0  0
    3.2572  -10.8813   -3.1381 H   0  0  0  0  0  0  0  0  0  0  0  0
    4.0399  -11.3250   -4.6928 H   0  0  0  0  0  0  0  0  0  0  0  0
    2.4276  -10.5330   -4.6928 H   0  0  0  0  0  0  0  0  0  0  0  0
    2.1773  -12.8504   -3.0630 H   0  0  0  0  0  0  0  0  0  0  0  0
    1.4924  -12.5633   -4.7151 H   0  0  0  0  0  0  0  0  0  0  0  0
    3.3902  -14.5208   -3.9609 H   0  0  0  0  0  0  0  0  0  0  0  0
    2.8763  -14.0508   -5.6307 H   0  0  0  0  0  0  0  0  0  0  0  0
    4.6194  -12.2174   -5.5386 H   0  0  0  0  0  0  0  0  0  0  0  0
    5.2147  -13.0104   -4.0051 H   0  0  0  0  0  0  0  0  0  0  0  0
    5.3110  -14.0124   -6.8467 H   0  0  0  0  0  0  0  0  0  0  0  0
    6.6265  -13.8474   -5.5638 H   0  0  0  0  0  0  0  0  0  0  0  0
    4.4090  -15.7950   -5.1447 H   0  0  0  0  0  0  0  0  0  0  0  0
    5.7951  -16.1633   -6.3038 H   0  0  0  0  0  0  0  0  0  0  0  0
    6.9849  -16.8931   -4.6253 H   0  0  0  0  0  0  0  0  0  0  0  0
    6.9221  -15.2099   -3.9190 H   0  0  0  0  0  0  0  0  0  0  0  0
    4.5009  -16.7515   -3.3622 H   0  0  0  0  0  0  0  0  0  0  0  0
    5.9999  -17.5328   -2.7170 H   0  0  0  0  0  0  0  0  0  0  0  0
    4.6158  -15.0647   -1.8512 H   0  0  0  0  0  0  0  0  0  0  0  0
    5.7748  -16.1375   -0.9698 H   0  0  0  0  0  0  0  0  0  0  0  0
    7.6504  -15.0958   -2.2320 H   0  0  0  0  0  0  0  0  0  0  0  0
    6.4298  -13.9570   -2.9829 H   0  0  0  0  0  0  0  0  0  0  0  0
    9.3140  -14.1960   -0.8270 H   0  0  0  0  0  0  0  0  0  0  0  0
   11.2556  -11.8701    2.2656 H   0  0  0  0  0  0  0  0  0  0  0  0
   10.2793  -10.5267    1.5811 H   0  0  0  0  0  0  0  0  0  0  0  0
    9.6281  -12.2008    1.5811 H   0  0  0  0  0  0  0  0  0  0  0  0
   12.8694  -10.6207    0.6919 H   0  0  0  0  0  0  0  0  0  0  0  0
   14.1540  -11.0741   -1.3886 H   0  0  0  0  0  0  0  0  0  0  0  0
   10.7419  -14.1004   -5.0424 H   0  0  0  0  0  0  0  0  0  0  0  0
   11.0165  -12.3696   -4.5912 H   0  0  0  0  0  0  0  0  0  0  0  0
   12.9722  -14.6641   -4.1288 H   0  0  0  0  0  0  0  0  0  0  0  0
   13.0919  -13.4383   -5.4241 H   0  0  0  0  0  0  0  0  0  0  0  0
    5.5089  -11.8996   -1.3084 H   0  0  0  0  0  0  0  0  0  0  0  0
    4.6691  -13.3874   -0.8563 H   0  0  0  0  0  0  0  0  0  0  0  0
    5.9967  -11.3169    0.8897 H   0  0  0  0  0  0  0  0  0  0  0  0
    4.6579  -12.4052    1.2979 H   0  0  0  0  0  0  0  0  0  0  0  0
    7.5261  -12.7476    1.8166 H   0  0  0  0  0  0  0  0  0  0  0  0
    6.2014  -13.7878    2.3640 H   0  0  0  0  0  0  0  0  0  0  0  0
    8.0647  -14.6534    0.5489 H   0  0  0  0  0  0  0  0  0  0  0  0
    6.4037  -15.2312    0.4593 H   0  0  0  0  0  0  0  0  0  0  0  0
  1  2  1  0
  2  3  1  0
  3  4  1  0
  4  5  1  0
  5  6  1  0
  6  7  1  0
  7  8  1  0
  8  9  1  0
  9 10  1  0
 10 11  1  0
 11 12  1  0
 12 13  2  0
 12 14  1  0
 14 15  1  0
 15 16  2  0
 16 17  1  0
 16 18  1  0
 18 19  2  0
 19 20  1  0
 20 21  2  0
 21 22  1  0
 22 23  1  0
 23 24  1  0
 24 25  1  0
 25 26  2  0
 11 27  1  0
 27 28  1  0
 28 29  1  0
 29 30  1  0
 30 11  1  0
 21 15  1  0
 25 20  1  0
  1 31  1  0
  1 32  1  0
  1 33  1  0
  2 34  1  0
  2 35  1  0
  3 36  1  0
  3 37  1  0
  4 38  1  0
  4 39  1  0
  5 40  1  0
  5 41  1  0
  6 42  1  0
  6 43  1  0
  7 44  1  0
  7 45  1  0
  8 46  1  0
  8 47  1  0
  9 48  1  0
  9 49  1  0
 10 50  1  0
 10 51  1  0
 14 52  1  0
 17 53  1  0
 17 54  1  0
 17 55  1  0
 18 56  1  0
 19 57  1  0
 23 58  1  0
 23 59  1  0
 24 60  1  0
 24 61  1  0
 27 62  1  0
 27 63  1  0
 28 64  1  0
 28 65  1  0
 29 66  1  0
 29 67  1  0
 30 68  1  0
 30 69  1  0
M  END
>  <meeko>  (7) 
{"is_sidechain": [false], "free_energy": -6.028, "intermolecular_energy": -9.89, "internal_energy": -2.298}

$$$$
LIB_FPVAONXMTAGWGU__M_PUB_ALL__e8__s20260927
     RDKit          3D

 69 71  0  0  0  0  0  0  0  0999 V2000
   12.6200  -15.3510   -2.7280 C   0  0  0  0  0  0  0  0  0  0  0  0
   13.3590  -14.8620   -3.9640 C   0  0  0  0  0  0  0  0  0  0  0  0
   13.0650  -13.3880   -4.2460 C   0  0  0  0  0  0  0  0  0  0  0  0
   14.2540  -12.5030   -3.8670 C   0  0  0  0  0  0  0  0  0  0  0  0
   13.9280  -11.4820   -2.7730 C   0  0  0  0  0  0  0  0  0  0  0  0
   12.9100  -11.9340   -1.7210 C   0  0  0  0  0  0  0  0  0  0  0  0
   12.8890  -11.1190   -0.4240 C   0  0  0  0  0  0  0  0  0  0  0  0
   11.7850  -11.5470    0.5440 C   0  0  0  0  0  0  0  0  0  0  0  0
   10.9330  -12.6720   -0.0480 C   0  0  0  0  0  0  0  0  0  0  0  0
    9.4800  -12.2210   -0.2440 C   0  0  0  0  0  0  0  0  0  0  0  0
    8.8540  -12.6820   -1.5790 C   0  0  0  0  0  0  0  0  0  0  0  0
    7.4130  -12.1270   -1.7320 C   0  0  0  0  0  0  0  0  0  0  0  0
    7.2120  -10.9690   -2.0840 O   0  0  0  0  0  0  0  0  0  0  0  0
    6.4330  -13.0230   -1.3580 N   0  0  0  0  0  0  0  0  0  0  0  0
    5.0250  -12.9050   -1.4460 C   0  0  0  0  0  0  0  0  0  0  0  0
    4.1520  -12.5030   -0.4170 C   0  0  0  0  0  0  0  0  0  0  0  0
    4.5860  -12.0200    0.9400 C   0  0  0  0  0  0  0  0  0  0  0  0
    2.7620  -12.5000   -0.6660 C   0  0  0  0  0  0  0  0  0  0  0  0
    2.2440  -12.8140   -1.9220 C   0  0  0  0  0  0  0  0  0  0  0  0
    3.1160  -13.1410   -2.9550 C   0  0  0  0  0  0  0  0  0  0  0  0
    4.4920  -13.1970   -2.7220 C   0  0  0  0  0  0  0  0  0  0  0  0
    5.3950  -13.5270   -3.7150 O   0  0  0  0  0  0  0  0  0  0  0  0
    4.8120  -14.3540   -4.7280 C   0  0  0  0  0  0  0  0  0  0  0  0
    3.6280  -13.6740   -5.3770 C   0  0  0  0  0  0  0  0  0  0  0  0
    2.6010  -13.4020   -4.3150 C   0  0  0  0  0  0  0  0  0  0  0  0
    1.4010  -13.3450   -4.5600 O   0  0  0  0  0  0  0  0  0  0  0  0
    9.7300  -12.2970   -2.7870 C   0  0  0  0  0  0  0  0  0  0  0  0
    9.3610  -13.2900   -3.8900 C   0  0  0  0  0  0  0  0  0  0  0  0
    8.7360  -14.4930   -3.1900 C   0  0  0  0  0  0  0  0  0  0  0  0
    8.8620  -14.2190   -1.6940 C   0  0  0  0  0  0  0  0  0  0  0  0
   13.1447  -15.0038   -1.8257 H   0  0  0  0  0  0  0  0  0  0  0  0
   11.5948  -14.9524   -2.7321 H   0  0  0  0  0  0  0  0  0  0  0  0
   12.5860  -16.4505   -2.7321 H   0  0  0  0  0  0  0  0  0  0  0  0
   14.4405  -14.9871   -3.8067 H   0  0  0  0  0  0  0  0  0  0  0  0
   13.0179  -15.4532   -4.8266 H   0  0  0  0  0  0  0  0  0  0  0  0
   12.8527  -13.2635   -5.3181 H   0  0  0  0  0  0  0  0  0  0  0  0
   12.1984  -13.0842   -3.6405 H   0  0  0  0  0  0  0  0  0  0  0  0
   15.0694  -13.1489   -3.5093 H   0  0  0  0  0  0  0  0  0  0  0  0
   14.5366  -11.9362   -4.7664 H   0  0  0  0  0  0  0  0  0  0  0  0
   14.8647  -11.2350   -2.2519 H   0  0  0  0  0  0  0  0  0  0  0  0
   13.4648  -10.6284   -3.2895 H   0  0  0  0  0  0  0  0  0  0  0  0
   11.9087  -11.8762   -2.1728 H   0  0  0  0  0  0  0  0  0  0  0  0
   13.2102  -12.9517   -1.4309 H   0  0  0  0  0  0  0  0  0  0  0  0
   13.8598  -11.2391    0.0791 H   0  0  0  0  0  0  0  0  0  0  0  0
   12.6909  -10.0730   -0.7007 H   0  0  0  0  0  0  0  0  0  0  0  0
   12.2449  -11.8996    1.4790 H   0  0  0  0  0  0  0  0  0  0  0  0
   11.1339  -10.6809    0.7336 H   0  0  0  0  0  0  0  0  0  0  0  0
   11.3523  -12.9656   -1.0216 H   0  0  0  0  0  0  0  0  0  0  0  0
   10.9434  -13.5220    0.6502 H   0  0  0  0  0  0  0  0  0  0  0  0
    8.8768  -12.6294    0.5802 H   0  0  0  0  0  0  0  0  0  0  0  0
    9.4872  -11.1211   -0.2587 H   0  0  0  0  0  0  0  0  0  0  0  0
    6.7270  -13.8070   -0.7850 H   0  0  0  0  0  0  0  0  0  0  0  0
    4.0665  -12.5981    1.7184 H   0  0  0  0  0  0  0  0  0  0  0  0
    5.6725  -12.1546    1.0469 H   0  0  0  0  0  0  0  0  0  0  0  0
    4.3363  -10.9541    1.0469 H   0  0  0  0  0  0  0  0  0  0  0  0
    2.0711  -12.2437    0.1507 H   0  0  0  0  0  0  0  0  0  0  0  0
    1.1576  -12.8032   -2.0939 H   0  0  0  0  0  0  0  0  0  0  0  0
    5.5693  -14.5664   -5.4971 H   0  0  0  0  0  0  0  0  0  0  0  0
    4.4632  -15.2854   -4.2581 H   0  0  0  0  0  0  0  0  0  0  0  0
    3.9483  -12.7271   -5.8361 H   0  0  0  0  0  0  0  0  0  0  0  0
    3.2024  -14.3188   -6.1600 H   0  0  0  0  0  0  0  0  0  0  0  0
    9.5123  -11.2675   -3.1076 H   0  0  0  0  0  0  0  0  0  0  0  0
   10.8020  -12.3361   -2.5436 H   0  0  0  0  0  0  0  0  0  0  0  0
    8.6394  -12.8364   -4.5853 H   0  0  0  0  0  0  0  0  0  0  0  0
   10.2441  -13.5827   -4.4769 H   0  0  0  0  0  0  0  0  0  0  0  0
    7.6777  -14.5929   -3.4728 H   0  0  0  0  0  0  0  0  0  0  0  0
    9.2380  -15.4301   -3.4724 H   0  0  0  0  0  0  0  0  0  0  0  0
    8.0128  -14.6539   -1.1465 H   0  0  0  0  0  0  0  0  0  0  0  0
    9.7704  -14.6651   -1.2629 H   0  0  0  0  0  0  0  0  0  0  0  0
  1  2  1  0
  2  3  1  0
  3  4  1  0
  4  5  1  0
  5  6  1  0
  6  7  1  0
  7  8  1  0
  8  9  1  0
  9 10  1  0
 10 11  1  0
 11 12  1  0
 12 13  2  0
 12 14  1  0
 14 15  1  0
 15 16  2  0
 16 17  1  0
 16 18  1  0
 18 19  2  0
 19 20  1  0
 20 21  2  0
 21 22  1  0
 22 23  1  0
 23 24  1  0
 24 25  1  0
 25 26  2  0
 11 27  1  0
 27 28  1  0
 28 29  1  0
 29 30  1  0
 30 11  1  0
 21 15  1  0
 25 20  1  0
  1 31  1  0
  1 32  1  0
  1 33  1  0
  2 34  1  0
  2 35  1  0
  3 36  1  0
  3 37  1  0
  4 38  1  0
  4 39  1  0
  5 40  1  0
  5 41  1  0
  6 42  1  0
  6 43  1  0
  7 44  1  0
  7 45  1  0
  8 46  1  0
  8 47  1  0
  9 48  1  0
  9 49  1  0
 10 50  1  0
 10 51  1  0
 14 52  1  0
 17 53  1  0
 17 54  1  0
 17 55  1  0
 18 56  1  0
 19 57  1  0
 23 58  1  0
 23 59  1  0
 24 60  1  0
 24 61  1  0
 27 62  1  0
 27 63  1  0
 28 64  1  0
 28 65  1  0
 29 66  1  0
 29 67  1  0
 30 68  1  0
 30 69  1  0
M  END
>  <meeko>  (8) 
{"is_sidechain": [false], "free_energy": -5.949, "intermolecular_energy": -9.9, "internal_energy": -2.16}

$$$$
LIB_FPVAONXMTAGWGU__M_PUB_ALL__e8__s20260927
     RDKit          3D

 69 71  0  0  0  0  0  0  0  0999 V2000
    0.8870  -14.1960   -4.8640 C   0  0  0  0  0  0  0  0  0  0  0  0
    1.5330  -14.3200   -3.4920 C   0  0  0  0  0  0  0  0  0  0  0  0
    2.7340  -13.3840   -3.3530 C   0  0  0  0  0  0  0  0  0  0  0  0
    2.4810  -12.0500   -4.0570 C   0  0  0  0  0  0  0  0  0  0  0  0
    2.3350  -10.8700   -3.0910 C   0  0  0  0  0  0  0  0  0  0  0  0
    1.8060  -11.2140   -1.6950 C   0  0  0  0  0  0  0  0  0  0  0  0
    0.7560  -10.2520   -1.1280 C   0  0  0  0  0  0  0  0  0  0  0  0
    0.6590  -10.2900    0.3980 C   0  0  0  0  0  0  0  0  0  0  0  0
   -0.7190  -10.7810    0.8530 C   0  0  0  0  0  0  0  0  0  0  0  0
   -0.5930  -11.7990    1.9950 C   0  0  0  0  0  0  0  0  0  0  0  0
   -1.2380  -13.1690    1.6880 C   0  0  0  0  0  0  0  0  0  0  0  0
   -0.4440  -13.9140    0.5840 C   0  0  0  0  0  0  0  0  0  0  0  0
   -0.8610  -13.9740   -0.5690 O   0  0  0  0  0  0  0  0  0  0  0  0
    0.6900  -14.5460    1.0490 N   0  0  0  0  0  0  0  0  0  0  0  0
    1.6960  -15.2350    0.3290 C   0  0  0  0  0  0  0  0  0  0  0  0
    1.5870  -16.5160   -0.2450 C   0  0  0  0  0  0  0  0  0  0  0  0
    0.3270  -17.3370   -0.2840 C   0  0  0  0  0  0  0  0  0  0  0  0
    2.7180  -17.0770   -0.8780 C   0  0  0  0  0  0  0  0  0  0  0  0
    3.9090  -16.3650   -1.0100 C   0  0  0  0  0  0  0  0  0  0  0  0
    3.9880  -15.0720   -0.5040 C   0  0  0  0  0  0  0  0  0  0  0  0
    2.9000  -14.5120    0.1680 C   0  0  0  0  0  0  0  0  0  0  0  0
    2.9370  -13.2360    0.6970 O   0  0  0  0  0  0  0  0  0  0  0  0
    4.2660  -12.8230    1.0320 C   0  0  0  0  0  0  0  0  0  0  0  0
    5.1710  -12.8570   -0.1780 C   0  0  0  0  0  0  0  0  0  0  0  0
    5.2110  -14.2660   -0.6970 C   0  0  0  0  0  0  0  0  0  0  0  0
    6.1810  -14.7180   -1.2980 O   0  0  0  0  0  0  0  0  0  0  0  0
   -1.3770  -14.0340    2.9550 C   0  0  0  0  0  0  0  0  0  0  0  0
   -2.5180  -15.0080    2.6590 C   0  0  0  0  0  0  0  0  0  0  0  0
   -3.3340  -14.3800    1.5340 C   0  0  0  0  0  0  0  0  0  0  0  0
   -2.7170  -13.0070    1.2840 C   0  0  0  0  0  0  0  0  0  0  0  0
   -0.1871  -13.9898   -4.7463 H   0  0  0  0  0  0  0  0  0  0  0  0
    1.3598  -13.3722   -5.4188 H   0  0  0  0  0  0  0  0  0  0  0  0
    1.0212  -15.1363   -5.4188 H   0  0  0  0  0  0  0  0  0  0  0  0
    0.7897  -14.0649   -2.7223 H   0  0  0  0  0  0  0  0  0  0  0  0
    1.8849  -15.3548   -3.3678 H   0  0  0  0  0  0  0  0  0  0  0  0
    2.9208  -13.1963   -2.2853 H   0  0  0  0  0  0  0  0  0  0  0  0
    3.6057  -13.8646   -3.8210 H   0  0  0  0  0  0  0  0  0  0  0  0
    3.3257  -11.8460   -4.7314 H   0  0  0  0  0  0  0  0  0  0  0  0
    1.5290  -12.1449   -4.5998 H   0  0  0  0  0  0  0  0  0  0  0  0
    3.3254  -10.4064   -2.9720 H   0  0  0  0  0  0  0  0  0  0  0  0
    1.5821  -10.2063   -3.5411 H   0  0  0  0  0  0  0  0  0  0  0  0
    1.3561  -12.2167   -1.7414 H   0  0  0  0  0  0  0  0  0  0  0  0
    2.6720  -11.1453   -1.0202 H   0  0  0  0  0  0  0  0  0  0  0  0
    1.0182   -9.2289   -1.4354 H   0  0  0  0  0  0  0  0  0  0  0  0
   -0.2208  -10.5673   -1.5236 H   0  0  0  0  0  0  0  0  0  0  0  0
    1.4297  -10.9701    0.7898 H   0  0  0  0  0  0  0  0  0  0  0  0
    0.8101   -9.2705    0.7823 H   0  0  0  0  0  0  0  0  0  0  0  0
   -1.3098   -9.9211    1.2017 H   0  0  0  0  0  0  0  0  0  0  0  0
   -1.2145  -11.2704    0.0015 H   0  0  0  0  0  0  0  0  0  0  0  0
    0.4759  -11.9580    2.2006 H   0  0  0  0  0  0  0  0  0  0  0  0
   -1.1317  -11.3791    2.8573 H   0  0  0  0  0  0  0  0  0  0  0  0
    0.7480  -14.6990    2.0500 H   0  0  0  0  0  0  0  0  0  0  0  0
   -0.0026  -17.5518    0.7432 H   0  0  0  0  0  0  0  0  0  0  0  0
   -0.4592  -16.7773   -0.8119 H   0  0  0  0  0  0  0  0  0  0  0  0
    0.5215  -18.2823   -0.8119 H   0  0  0  0  0  0  0  0  0  0  0  0
    2.6575  -18.1005   -1.2765 H   0  0  0  0  0  0  0  0  0  0  0  0
    4.7769  -16.8208   -1.5089 H   0  0  0  0  0  0  0  0  0  0  0  0
    4.2339  -11.7969    1.4271 H   0  0  0  0  0  0  0  0  0  0  0  0
    4.6665  -13.5169    1.7857 H   0  0  0  0  0  0  0  0  0  0  0  0
    4.7782  -12.1852   -0.9554 H   0  0  0  0  0  0  0  0  0  0  0  0
    6.1832  -12.5250    0.0961 H   0  0  0  0  0  0  0  0  0  0  0  0
   -0.4438  -14.5825    3.1507 H   0  0  0  0  0  0  0  0  0  0  0  0
   -1.5817  -13.4232    3.8467 H   0  0  0  0  0  0  0  0  0  0  0  0
   -2.1156  -15.9810    2.3406 H   0  0  0  0  0  0  0  0  0  0  0  0
   -3.1360  -15.1839    3.5518 H   0  0  0  0  0  0  0  0  0  0  0  0
   -3.2724  -14.9979    0.6261 H   0  0  0  0  0  0  0  0  0  0  0  0
   -4.3977  -14.3012    1.8029 H   0  0  0  0  0  0  0  0  0  0  0  0
   -2.8021  -12.7299    0.2229 H   0  0  0  0  0  0  0  0  0  0  0  0
   -3.2213  -12.2120    1.8529 H   0  0  0  0  0  0  0  0  0  0  0  0
  1  2  1  0
  2  3  1  0
  3  4  1  0
  4  5  1  0
  5  6  1  0
  6  7  1  0
  7  8  1  0
  8  9  1  0
  9 10  1  0
 10 11  1  0
 11 12  1  0
 12 13  2  0
 12 14  1  0
 14 15  1  0
 15 16  2  0
 16 17  1  0
 16 18  1  0
 18 19  2  0
 19 20  1  0
 20 21  2  0
 21 22  1  0
 22 23  1  0
 23 24  1  0
 24 25  1  0
 25 26  2  0
 11 27  1  0
 27 28  1  0
 28 29  1  0
 29 30  1  0
 30 11  1  0
 21 15  1  0
 25 20  1  0
  1 31  1  0
  1 32  1  0
  1 33  1  0
  2 34  1  0
  2 35  1  0
  3 36  1  0
  3 37  1  0
  4 38  1  0
  4 39  1  0
  5 40  1  0
  5 41  1  0
  6 42  1  0
  6 43  1  0
  7 44  1  0
  7 45  1  0
  8 46  1  0
  8 47  1  0
  9 48  1  0
  9 49  1  0
 10 50  1  0
 10 51  1  0
 14 52  1  0
 17 53  1  0
 17 54  1  0
 17 55  1  0
 18 56  1  0
 19 57  1  0
 23 58  1  0
 23 59  1  0
 24 60  1  0
 24 61  1  0
 27 62  1  0
 27 63  1  0
 28 64  1  0
 28 65  1  0
 29 66  1  0
 29 67  1  0
 30 68  1  0
 30 69  1  0
M  END
>  <meeko>  (9) 
{"is_sidechain": [false], "free_energy": -5.947, "intermolecular_energy": -9.378, "internal_energy": -2.678}

$$$$
