LIB_LWTKJTIPCMXHIH__M_PUB_ALL__e8__s20260927
     RDKit          3D

 74 78  0  0  0  0  0  0  0  0999 V2000
   -2.9830  -15.5300    0.3150 C   0  0  0  0  0  0  0  0  0  0  0  0
   -1.8120  -15.1880    1.1720 C   0  0  0  0  0  0  0  0  0  0  0  0
   -1.7570  -15.5110    2.5450 C   0  0  0  0  0  0  0  0  0  0  0  0
   -0.6500  -15.2220    3.3770 C   0  0  0  0  0  0  0  0  0  0  0  0
   -0.6540  -15.5720    4.7160 N   0  0  0  0  0  0  0  0  0  0  0  0
    0.3630  -15.1240    5.6600 C   0  0  0  0  0  0  0  0  0  0  0  0
    0.1610  -16.0340    6.8670 C   0  0  0  0  0  0  0  0  0  0  0  0
   -1.3400  -16.2970    6.8630 C   0  0  2  0  0  0  0  0  0  0  0  0
   -1.6870  -17.4890    7.6120 N   0  0  0  0  0  0  0  0  0  0  0  0
   -2.1750  -17.4470    8.8790 C   0  0  0  0  0  0  0  0  0  0  0  0
   -2.3150  -16.4360    9.5460 O   0  0  0  0  0  0  0  0  0  0  0  0
   -2.4820  -18.7080    9.2640 O   0  0  0  0  0  0  0  0  0  0  0  0
   -1.4980  -19.5360    9.9320 C   0  0  0  0  0  0  0  0  0  0  0  0
   -0.3040  -18.7050   10.4160 C   0  0  0  0  0  0  0  0  0  0  0  0
   -1.0580  -20.7070    9.0460 C   0  0  0  0  0  0  0  0  0  0  0  0
   -2.2300  -20.0990   11.1590 C   0  0  0  0  0  0  0  0  0  0  0  0
   -1.6780  -16.3860    5.3610 C   0  0  0  0  0  0  0  0  0  0  0  0
    0.4530  -14.5790    2.7980 C   0  0  0  0  0  0  0  0  0  0  0  0
    0.4330  -14.2720    1.4340 C   0  0  0  0  0  0  0  0  0  0  0  0
    1.3570  -13.6740    0.6500 N   0  0  0  0  0  0  0  0  0  0  0  0
    0.9060  -13.6390   -0.6290 C   0  0  0  0  0  0  0  0  0  0  0  0
    1.5970  -12.9520   -1.9430 C   0  0  0  0  0  0  0  0  0  0  0  0
    2.0010  -11.6520   -1.8690 C   0  0  0  0  0  0  0  0  0  0  0  0
    1.8590  -10.8450   -0.7320 N   0  0  0  0  0  0  0  0  0  0  0  0
    0.6760  -10.0280   -0.4880 C   0  0  0  0  0  0  0  0  0  0  0  0
    0.3290   -9.9870    1.0210 C   0  0  1  0  0  0  0  0  0  0  0  0
    0.2730   -8.6340    1.4860 O   0  0  0  0  0  0  0  0  0  0  0  0
   -1.0100  -10.6580    1.2800 C   0  0  0  0  0  0  0  0  0  0  0  0
   -1.2630  -11.2340    2.5360 C   0  0  0  0  0  0  0  0  0  0  0  0
   -2.4730  -11.8790    2.7940 C   0  0  0  0  0  0  0  0  0  0  0  0
   -3.4440  -11.9610    1.7970 C   0  0  0  0  0  0  0  0  0  0  0  0
   -3.2010  -11.3950    0.5460 C   0  0  0  0  0  0  0  0  0  0  0  0
   -4.4050  -11.5050   -0.6820 Cl  0  0  0  0  0  0  0  0  0  0  0  0
   -1.9940  -10.7500    0.2820 C   0  0  0  0  0  0  0  0  0  0  0  0
    2.6000  -11.0430   -3.0350 C   0  0  0  0  0  0  0  0  0  0  0  0
    2.6970  -11.7790   -4.1490 C   0  0  0  0  0  0  0  0  0  0  0  0
    2.2920  -13.0530   -4.3420 N   0  0  0  0  0  0  0  0  0  0  0  0
    1.7140  -13.6910   -3.2940 C   0  0  0  0  0  0  0  0  0  0  0  0
    1.2560  -14.8270   -3.4300 O   0  0  0  0  0  0  0  0  0  0  0  0
   -0.3690  -14.1770   -0.6410 N   0  0  0  0  0  0  0  0  0  0  0  0
   -0.6740  -14.5770    0.6230 C   0  0  0  0  0  0  0  0  0  0  0  0
   -3.8432  -15.7812    0.9528 H   0  0  0  0  0  0  0  0  0  0  0  0
   -3.2367  -14.6684   -0.3201 H   0  0  0  0  0  0  0  0  0  0  0  0
   -2.7331  -16.3927   -0.3201 H   0  0  0  0  0  0  0  0  0  0  0  0
   -2.6248  -16.0165    2.9938 H   0  0  0  0  0  0  0  0  0  0  0  0
    1.3715  -15.2489    5.2389 H   0  0  0  0  0  0  0  0  0  0  0  0
    0.2719  -14.0568    5.9105 H   0  0  0  0  0  0  0  0  0  0  0  0
    0.7252  -16.9713    6.7522 H   0  0  0  0  0  0  0  0  0  0  0  0
    0.5163  -15.5863    7.8069 H   0  0  0  0  0  0  0  0  0  0  0  0
   -1.9238  -15.5128    7.3672 H   0  0  0  0  0  0  0  0  0  0  0  0
   -1.6910  -18.3920    7.1590 H   0  0  0  0  0  0  0  0  0  0  0  0
   -0.2872  -18.6933   11.5158 H   0  0  0  0  0  0  0  0  0  0  0  0
    0.6290  -19.1499   10.0397 H   0  0  0  0  0  0  0  0  0  0  0  0
   -0.3971  -17.6756   10.0397 H   0  0  0  0  0  0  0  0  0  0  0  0
   -0.7419  -21.5482    9.6804 H   0  0  0  0  0  0  0  0  0  0  0  0
   -1.8989  -21.0225    8.4109 H   0  0  0  0  0  0  0  0  0  0  0  0
   -0.2174  -20.3906    8.4109 H   0  0  0  0  0  0  0  0  0  0  0  0
   -1.7480  -19.7282   12.0756 H   0  0  0  0  0  0  0  0  0  0  0  0
   -3.2808  -19.7741   11.1401 H   0  0  0  0  0  0  0  0  0  0  0  0
   -2.1856  -21.1979   11.1401 H   0  0  0  0  0  0  0  0  0  0  0  0
   -1.6269  -17.4274    5.0105 H   0  0  0  0  0  0  0  0  0  0  0  0
   -2.6970  -16.0376    5.1366 H   0  0  0  0  0  0  0  0  0  0  0  0
    1.3275  -14.3180    3.4120 H   0  0  0  0  0  0  0  0  0  0  0  0
    2.0830  -11.4380    0.0930 H   0  0  0  0  0  0  0  0  0  0  0  0
    0.8676   -9.0038   -0.8407 H   0  0  0  0  0  0  0  0  0  0  0  0
   -0.1726  -10.4708   -1.0300 H   0  0  0  0  0  0  0  0  0  0  0  0
    1.1181  -10.5278    1.5641 H   0  0  0  0  0  0  0  0  0  0  0  0
   -0.3910   -8.1980    0.8720 H   0  0  0  0  0  0  0  0  0  0  0  0
   -0.4986  -11.1759    3.3249 H   0  0  0  0  0  0  0  0  0  0  0  0
   -2.6606  -12.3224    3.7831 H   0  0  0  0  0  0  0  0  0  0  0  0
   -4.3984  -12.4703    1.9965 H   0  0  0  0  0  0  0  0  0  0  0  0
   -1.8116  -10.3119   -0.7104 H   0  0  0  0  0  0  0  0  0  0  0  0
    2.9652  -10.0058   -3.0078 H   0  0  0  0  0  0  0  0  0  0  0  0
    3.1642  -11.2853   -5.0139 H   0  0  0  0  0  0  0  0  0  0  0  0
  1  2  1  0
  2  3  2  0
  3  4  1  0
  4  5  1  0
  5  6  1  0
  6  7  1  0
  7  8  1  0
  8  9  1  0
  9 10  1  0
 10 11  2  0
 10 12  1  0
 12 13  1  0
 13 14  1  0
 13 15  1  0
 13 16  1  0
  8 17  1  0
  4 18  2  0
 18 19  1  0
 19 20  1  0
 20 21  1  0
 21 22  1  0
 22 23  2  0
 23 24  1  0
 24 25  1  0
 25 26  1  0
 26 27  1  0
 26 28  1  0
 28 29  2  0
 29 30  1  0
 30 31  2  0
 31 32  1  0
 32 33  1  0
 32 34  2  0
 23 35  1  0
 35 36  2  0
 36 37  1  0
 37 38  1  0
 38 39  2  0
 21 40  2  0
 40 41  1  0
 41  2  1  0
 17  5  1  0
 41 19  2  0
 38 22  1  0
 34 28  1  0
  1 42  1  0
  1 43  1  0
  1 44  1  0
  3 45  1  0
  6 46  1  0
  6 47  1  0
  7 48  1  0
  7 49  1  0
  8 50  1  1
  9 51  1  0
 14 52  1  0
 14 53  1  0
 14 54  1  0
 15 55  1  0
 15 56  1  0
 15 57  1  0
 16 58  1  0
 16 59  1  0
 16 60  1  0
 17 61  1  0
 17 62  1  0
 18 63  1  0
 24 64  1  0
 25 65  1  0
 25 66  1  0
 26 67  1  1
 27 68  1  0
 29 69  1  0
 30 70  1  0
 31 71  1  0
 34 72  1  0
 35 73  1  0
 36 74  1  0
M  CHG  2  20  -1  37  -1
M  END
>  <meeko>  (1) 
{"is_sidechain": [false], "free_energy": -8.422, "intermolecular_energy": -13.099, "internal_energy": -3.004}

$$$$
LIB_LWTKJTIPCMXHIH__M_PUB_ALL__e8__s20260927
     RDKit          3D

 74 78  0  0  0  0  0  0  0  0999 V2000
   -0.9650  -11.8330    0.6380 C   0  0  0  0  0  0  0  0  0  0  0  0
   -0.4160  -13.0490    1.3010 C   0  0  0  0  0  0  0  0  0  0  0  0
   -1.2420  -14.0350    1.8830 C   0  0  0  0  0  0  0  0  0  0  0  0
   -0.7520  -15.2110    2.4970 C   0  0  0  0  0  0  0  0  0  0  0  0
   -1.6160  -16.1440    3.0420 N   0  0  0  0  0  0  0  0  0  0  0  0
   -1.4070  -17.5820    2.9340 C   0  0  0  0  0  0  0  0  0  0  0  0
   -2.7540  -18.1740    3.3350 C   0  0  0  0  0  0  0  0  0  0  0  0
   -3.2820  -17.1840    4.3650 C   0  0  2  0  0  0  0  0  0  0  0  0
   -4.7200  -17.2790    4.5270 N   0  0  0  0  0  0  0  0  0  0  0  0
   -5.3470  -17.0190    5.7040 C   0  0  0  0  0  0  0  0  0  0  0  0
   -4.7890  -16.7440    6.7530 O   0  0  0  0  0  0  0  0  0  0  0  0
   -6.6830  -17.1080    5.5090 O   0  0  0  0  0  0  0  0  0  0  0  0
   -7.5150  -15.9220    5.5500 C   0  0  0  0  0  0  0  0  0  0  0  0
   -6.7970  -14.7140    4.9360 C   0  0  0  0  0  0  0  0  0  0  0  0
   -8.0070  -15.6320    6.9720 C   0  0  0  0  0  0  0  0  0  0  0  0
   -8.7280  -16.2660    4.6720 C   0  0  0  0  0  0  0  0  0  0  0  0
   -2.8080  -15.8220    3.8180 C   0  0  0  0  0  0  0  0  0  0  0  0
    0.6370  -15.4020    2.5270 C   0  0  0  0  0  0  0  0  0  0  0  0
    1.4760  -14.4530    1.9370 C   0  0  0  0  0  0  0  0  0  0  0  0
    2.8210  -14.4100    1.8250 N   0  0  0  0  0  0  0  0  0  0  0  0
    3.1800  -13.3090    1.1200 C   0  0  0  0  0  0  0  0  0  0  0  0
    4.6800  -12.7500    0.7800 C   0  0  0  0  0  0  0  0  0  0  0  0
    5.0030  -12.4830   -0.5180 C   0  0  0  0  0  0  0  0  0  0  0  0
    4.1310  -12.6630   -1.6010 N   0  0  0  0  0  0  0  0  0  0  0  0
    3.9290  -13.9540   -2.2450 C   0  0  0  0  0  0  0  0  0  0  0  0
    2.4510  -14.1410   -2.6700 C   0  0  1  0  0  0  0  0  0  0  0  0
    2.3690  -14.4680   -4.0610 O   0  0  0  0  0  0  0  0  0  0  0  0
    1.7970  -15.2470   -1.8590 C   0  0  0  0  0  0  0  0  0  0  0  0
    2.5910  -16.2810   -1.3350 C   0  0  0  0  0  0  0  0  0  0  0  0
    2.0160  -17.3240   -0.6080 C   0  0  0  0  0  0  0  0  0  0  0  0
    0.6370  -17.3490   -0.4010 C   0  0  0  0  0  0  0  0  0  0  0  0
   -0.1600  -16.3300   -0.9220 C   0  0  0  0  0  0  0  0  0  0  0  0
   -1.8630  -16.3720   -0.6650 Cl  0  0  0  0  0  0  0  0  0  0  0  0
    0.4100  -15.2860   -1.6480 C   0  0  0  0  0  0  0  0  0  0  0  0
    6.3320  -12.0000   -0.8180 C   0  0  0  0  0  0  0  0  0  0  0  0
    7.1980  -11.8720    0.1950 C   0  0  0  0  0  0  0  0  0  0  0  0
    6.9960  -12.1480    1.5010 N   0  0  0  0  0  0  0  0  0  0  0  0
    5.7730  -12.6120    1.8620 C   0  0  0  0  0  0  0  0  0  0  0  0
    5.5520  -12.9520    3.0250 O   0  0  0  0  0  0  0  0  0  0  0  0
    2.0270  -12.6010    0.8290 N   0  0  0  0  0  0  0  0  0  0  0  0
    0.9650  -13.2950    1.3220 C   0  0  0  0  0  0  0  0  0  0  0  0
   -1.2900  -11.1131    1.4036 H   0  0  0  0  0  0  0  0  0  0  0  0
   -0.1866  -11.3745    0.0105 H   0  0  0  0  0  0  0  0  0  0  0  0
   -1.8237  -12.1136    0.0105 H   0  0  0  0  0  0  0  0  0  0  0  0
   -2.3306  -13.8794    1.8574 H   0  0  0  0  0  0  0  0  0  0  0  0
   -1.1457  -17.8641    1.9034 H   0  0  0  0  0  0  0  0  0  0  0  0
   -0.5792  -17.9410    3.5632 H   0  0  0  0  0  0  0  0  0  0  0  0
   -3.4291  -18.2386    2.4689 H   0  0  0  0  0  0  0  0  0  0  0  0
   -2.6733  -19.1989    3.7263 H   0  0  0  0  0  0  0  0  0  0  0  0
   -2.9082  -17.3695    5.3828 H   0  0  0  0  0  0  0  0  0  0  0  0
   -5.3160  -17.4250    3.7250 H   0  0  0  0  0  0  0  0  0  0  0  0
   -6.4132  -14.0682    5.7395 H   0  0  0  0  0  0  0  0  0  0  0  0
   -5.9593  -15.0625    4.3140 H   0  0  0  0  0  0  0  0  0  0  0  0
   -7.5035  -14.1447    4.3140 H   0  0  0  0  0  0  0  0  0  0  0  0
   -7.2957  -16.0513    7.6988 H   0  0  0  0  0  0  0  0  0  0  0  0
   -8.0832  -14.5445    7.1190 H   0  0  0  0  0  0  0  0  0  0  0  0
   -8.9953  -16.0920    7.1190 H   0  0  0  0  0  0  0  0  0  0  0  0
   -9.5876  -16.5098    5.3135 H   0  0  0  0  0  0  0  0  0  0  0  0
   -8.9774  -15.4032    4.0369 H   0  0  0  0  0  0  0  0  0  0  0  0
   -8.4874  -17.1313    4.0369 H   0  0  0  0  0  0  0  0  0  0  0  0
   -3.5794  -15.3686    3.1782 H   0  0  0  0  0  0  0  0  0  0  0  0
   -2.6066  -15.0937    4.6174 H   0  0  0  0  0  0  0  0  0  0  0  0
    1.0631  -16.2928    3.0117 H   0  0  0  0  0  0  0  0  0  0  0  0
    3.2230  -12.2280   -1.3380 H   0  0  0  0  0  0  0  0  0  0  0  0
    4.5696  -14.0144   -3.1372 H   0  0  0  0  0  0  0  0  0  0  0  0
    4.1888  -14.7464   -1.5276 H   0  0  0  0  0  0  0  0  0  0  0  0
    1.9227  -13.1942   -2.4844 H   0  0  0  0  0  0  0  0  0  0  0  0
    2.3580  -13.5740   -4.5170 H   0  0  0  0  0  0  0  0  0  0  0  0
    3.6785  -16.2681   -1.4998 H   0  0  0  0  0  0  0  0  0  0  0  0
    2.6492  -18.1251   -0.1989 H   0  0  0  0  0  0  0  0  0  0  0  0
    0.1796  -18.1696    0.1712 H   0  0  0  0  0  0  0  0  0  0  0  0
   -0.2293  -14.4898   -2.0571 H   0  0  0  0  0  0  0  0  0  0  0  0
    6.6231  -11.7452   -1.8477 H   0  0  0  0  0  0  0  0  0  0  0  0
    8.1972  -11.4956   -0.0694 H   0  0  0  0  0  0  0  0  0  0  0  0
  1  2  1  0
  2  3  2  0
  3  4  1  0
  4  5  1  0
  5  6  1  0
  6  7  1  0
  7  8  1  0
  8  9  1  0
  9 10  1  0
 10 11  2  0
 10 12  1  0
 12 13  1  0
 13 14  1  0
 13 15  1  0
 13 16  1  0
  8 17  1  0
  4 18  2  0
 18 19  1  0
 19 20  1  0
 20 21  1  0
 21 22  1  0
 22 23  2  0
 23 24  1  0
 24 25  1  0
 25 26  1  0
 26 27  1  0
 26 28  1  0
 28 29  2  0
 29 30  1  0
 30 31  2  0
 31 32  1  0
 32 33  1  0
 32 34  2  0
 23 35  1  0
 35 36  2  0
 36 37  1  0
 37 38  1  0
 38 39  2  0
 21 40  2  0
 40 41  1  0
 41  2  1  0
 17  5  1  0
 41 19  2  0
 38 22  1  0
 34 28  1  0
  1 42  1  0
  1 43  1  0
  1 44  1  0
  3 45  1  0
  6 46  1  0
  6 47  1  0
  7 48  1  0
  7 49  1  0
  8 50  1  1
  9 51  1  0
 14 52  1  0
 14 53  1  0
 14 54  1  0
 15 55  1  0
 15 56  1  0
 15 57  1  0
 16 58  1  0
 16 59  1  0
 16 60  1  0
 17 61  1  0
 17 62  1  0
 18 63  1  0
 24 64  1  0
 25 65  1  0
 25 66  1  0
 26 67  1  6
 27 68  1  0
 29 69  1  0
 30 70  1  0
 31 71  1  0
 34 72  1  0
 35 73  1  0
 36 74  1  0
M  CHG  2  20  -1  37  -1
M  END
>  <meeko>  (2) 
{"is_sidechain": [false], "free_energy": -8.272, "intermolecular_energy": -12.645, "internal_energy": -3.225}

$$$$
LIB_LWTKJTIPCMXHIH__M_PUB_ALL__e8__s20260927
     RDKit          3D

 74 78  0  0  0  0  0  0  0  0999 V2000
    1.0860  -13.7010   -4.7540 C   0  0  0  0  0  0  0  0  0  0  0  0
    2.2840  -14.3010   -4.1020 C   0  0  0  0  0  0  0  0  0  0  0  0
    3.5660  -14.2700   -4.6940 C   0  0  0  0  0  0  0  0  0  0  0  0
    4.7250  -14.8090   -4.0890 C   0  0  0  0  0  0  0  0  0  0  0  0
    5.9560  -14.7400   -4.7180 N   0  0  0  0  0  0  0  0  0  0  0  0
    7.2220  -14.7500   -3.9960 C   0  0  0  0  0  0  0  0  0  0  0  0
    8.2350  -14.2900   -5.0370 C   0  0  0  0  0  0  0  0  0  0  0  0
    7.6750  -14.8390   -6.3430 C   0  0  2  0  0  0  0  0  0  0  0  0
    8.1980  -14.1390   -7.5000 N   0  0  0  0  0  0  0  0  0  0  0  0
    8.0160  -14.5790   -8.7720 C   0  0  0  0  0  0  0  0  0  0  0  0
    7.4630  -15.6200   -9.0840 O   0  0  0  0  0  0  0  0  0  0  0  0
    8.5410  -13.6670   -9.6230 O   0  0  0  0  0  0  0  0  0  0  0  0
    7.6790  -12.7780  -10.3760 C   0  0  0  0  0  0  0  0  0  0  0  0
    6.7660  -11.9670   -9.4490 C   0  0  0  0  0  0  0  0  0  0  0  0
    6.8820  -13.5410  -11.4400 C   0  0  0  0  0  0  0  0  0  0  0  0
    8.6400  -11.8110  -11.0840 C   0  0  0  0  0  0  0  0  0  0  0  0
    6.1510  -14.6880   -6.1620 C   0  0  0  0  0  0  0  0  0  0  0  0
    4.5870  -15.4070   -2.8280 C   0  0  0  0  0  0  0  0  0  0  0  0
    3.3330  -15.4280   -2.2100 C   0  0  0  0  0  0  0  0  0  0  0  0
    2.9450  -15.9260   -1.0150 N   0  0  0  0  0  0  0  0  0  0  0  0
    1.6290  -15.6640   -0.8240 C   0  0  0  0  0  0  0  0  0  0  0  0
    0.6580  -16.1220    0.4110 C   0  0  0  0  0  0  0  0  0  0  0  0
   -0.1340  -15.1860    1.0060 C   0  0  0  0  0  0  0  0  0  0  0  0
   -0.1740  -13.8350    0.6350 N   0  0  0  0  0  0  0  0  0  0  0  0
    0.5720  -12.8010    1.3410 C   0  0  0  0  0  0  0  0  0  0  0  0
    0.6860  -11.5140    0.4870 C   0  0  1  0  0  0  0  0  0  0  0  0
    0.8410  -10.3670    1.3290 O   0  0  0  0  0  0  0  0  0  0  0  0
    1.8740  -11.6020   -0.4570 C   0  0  0  0  0  0  0  0  0  0  0  0
    3.0680  -12.1930   -0.0110 C   0  0  0  0  0  0  0  0  0  0  0  0
    4.1840  -12.2650   -0.8460 C   0  0  0  0  0  0  0  0  0  0  0  0
    4.1210  -11.7420   -2.1370 C   0  0  0  0  0  0  0  0  0  0  0  0
    2.9420  -11.1490   -2.5870 C   0  0  0  0  0  0  0  0  0  0  0  0
    2.8750  -10.5010   -4.1820 Cl  0  0  0  0  0  0  0  0  0  0  0  0
    1.8240  -11.0750   -1.7570 C   0  0  0  0  0  0  0  0  0  0  0  0
   -0.9830  -15.5900    2.1040 C   0  0  0  0  0  0  0  0  0  0  0  0
   -0.9210  -16.8640    2.5100 C   0  0  0  0  0  0  0  0  0  0  0  0
   -0.1450  -17.8560    2.0230 N   0  0  0  0  0  0  0  0  0  0  0  0
    0.6840  -17.5530    0.9930 C   0  0  0  0  0  0  0  0  0  0  0  0
    1.4700  -18.3940    0.5550 O   0  0  0  0  0  0  0  0  0  0  0  0
    1.1550  -15.0350   -1.9620 N   0  0  0  0  0  0  0  0  0  0  0  0
    2.1950  -14.8770   -2.8260 C   0  0  0  0  0  0  0  0  0  0  0  0
    0.3855  -13.3501   -3.9819 H   0  0  0  0  0  0  0  0  0  0  0  0
    1.3963  -12.8519   -5.3807 H   0  0  0  0  0  0  0  0  0  0  0  0
    0.5919  -14.4580   -5.3807 H   0  0  0  0  0  0  0  0  0  0  0  0
    3.6688  -13.7994   -5.6829 H   0  0  0  0  0  0  0  0  0  0  0  0
    7.1928  -14.0556   -3.1434 H   0  0  0  0  0  0  0  0  0  0  0  0
    7.4636  -15.7361   -3.5727 H   0  0  0  0  0  0  0  0  0  0  0  0
    8.2979  -13.1922   -5.0665 H   0  0  0  0  0  0  0  0  0  0  0  0
    9.2559  -14.6414   -4.8267 H   0  0  0  0  0  0  0  0  0  0  0  0
    7.9632  -15.8824   -6.5389 H   0  0  0  0  0  0  0  0  0  0  0  0
    8.6130  -13.2240   -7.3970 H   0  0  0  0  0  0  0  0  0  0  0  0
    7.0165  -12.1895   -8.4013 H   0  0  0  0  0  0  0  0  0  0  0  0
    6.9097  -10.8933   -9.6403 H   0  0  0  0  0  0  0  0  0  0  0  0
    5.7168  -12.2363   -9.6403 H   0  0  0  0  0  0  0  0  0  0  0  0
    6.1713  -14.2214  -10.9480 H   0  0  0  0  0  0  0  0  0  0  0  0
    6.3303  -12.8258  -12.0678 H   0  0  0  0  0  0  0  0  0  0  0  0
    7.5725  -14.1234  -12.0678 H   0  0  0  0  0  0  0  0  0  0  0  0
    9.2063  -11.2412  -10.3326 H   0  0  0  0  0  0  0  0  0  0  0  0
    9.3380  -12.3828  -11.7132 H   0  0  0  0  0  0  0  0  0  0  0  0
    8.0639  -11.1166  -11.7132 H   0  0  0  0  0  0  0  0  0  0  0  0
    5.8031  -13.7268   -6.5684 H   0  0  0  0  0  0  0  0  0  0  0  0
    5.5842  -15.4675   -6.6923 H   0  0  0  0  0  0  0  0  0  0  0  0
    5.4585  -15.8560   -2.3291 H   0  0  0  0  0  0  0  0  0  0  0  0
    0.0040  -13.7940   -0.3900 H   0  0  0  0  0  0  0  0  0  0  0  0
    0.0539  -12.5632    2.2817 H   0  0  0  0  0  0  0  0  0  0  0  0
    1.5857  -13.1775    1.5424 H   0  0  0  0  0  0  0  0  0  0  0  0
   -0.2387  -11.4149   -0.1005 H   0  0  0  0  0  0  0  0  0  0  0  0
    0.8560  -10.7510    2.2560 H   0  0  0  0  0  0  0  0  0  0  0  0
    3.1239  -12.6037    1.0079 H   0  0  0  0  0  0  0  0  0  0  0  0
    5.1119  -12.7336   -0.4862 H   0  0  0  0  0  0  0  0  0  0  0  0
    4.9984  -11.7970   -2.7982 H   0  0  0  0  0  0  0  0  0  0  0  0
    0.9003  -10.6023   -2.1220 H   0  0  0  0  0  0  0  0  0  0  0  0
   -1.6595  -14.8723    2.5911 H   0  0  0  0  0  0  0  0  0  0  0  0
   -1.5846  -17.1367    3.3439 H   0  0  0  0  0  0  0  0  0  0  0  0
  1  2  1  0
  2  3  2  0
  3  4  1  0
  4  5  1  0
  5  6  1  0
  6  7  1  0
  7  8  1  0
  8  9  1  0
  9 10  1  0
 10 11  2  0
 10 12  1  0
 12 13  1  0
 13 14  1  0
 13 15  1  0
 13 16  1  0
  8 17  1  0
  4 18  2  0
 18 19  1  0
 19 20  1  0
 20 21  1  0
 21 22  1  0
 22 23  2  0
 23 24  1  0
 24 25  1  0
 25 26  1  0
 26 27  1  0
 26 28  1  0
 28 29  2  0
 29 30  1  0
 30 31  2  0
 31 32  1  0
 32 33  1  0
 32 34  2  0
 23 35  1  0
 35 36  2  0
 36 37  1  0
 37 38  1  0
 38 39  2  0
 21 40  2  0
 40 41  1  0
 41  2  1  0
 17  5  1  0
 41 19  2  0
 38 22  1  0
 34 28  1  0
  1 42  1  0
  1 43  1  0
  1 44  1  0
  3 45  1  0
  6 46  1  0
  6 47  1  0
  7 48  1  0
  7 49  1  0
  8 50  1  6
  9 51  1  0
 14 52  1  0
 14 53  1  0
 14 54  1  0
 15 55  1  0
 15 56  1  0
 15 57  1  0
 16 58  1  0
 16 59  1  0
 16 60  1  0
 17 61  1  0
 17 62  1  0
 18 63  1  0
 24 64  1  0
 25 65  1  0
 25 66  1  0
 26 67  1  6
 27 68  1  0
 29 69  1  0
 30 70  1  0
 31 71  1  0
 34 72  1  0
 35 73  1  0
 36 74  1  0
M  CHG  2  20  -1  37  -1
M  END
>  <meeko>  (3) 
{"is_sidechain": [false], "free_energy": -8.092, "intermolecular_energy": -12.629, "internal_energy": -2.961}

$$$$
LIB_LWTKJTIPCMXHIH__M_PUB_ALL__e8__s20260927
     RDKit          3D

 74 78  0  0  0  0  0  0  0  0999 V2000
    2.8710  -10.4850   -3.7050 C   0  0  0  0  0  0  0  0  0  0  0  0
    3.4280  -11.2920   -2.5830 C   0  0  0  0  0  0  0  0  0  0  0  0
    4.7230  -11.8530   -2.6220 C   0  0  0  0  0  0  0  0  0  0  0  0
    5.2880  -12.6020   -1.5630 C   0  0  0  0  0  0  0  0  0  0  0  0
    6.5680  -13.1200   -1.6600 N   0  0  0  0  0  0  0  0  0  0  0  0
    7.1110  -14.0840   -0.7110 C   0  0  0  0  0  0  0  0  0  0  0  0
    8.6090  -14.0660   -0.9950 C   0  0  0  0  0  0  0  0  0  0  0  0
    8.6810  -13.7890   -2.4910 C   0  0  2  0  0  0  0  0  0  0  0  0
    9.9740  -13.2640   -2.8870 N   0  0  0  0  0  0  0  0  0  0  0  0
   10.6070  -13.6500   -4.0260 C   0  0  0  0  0  0  0  0  0  0  0  0
   10.2100  -14.5060   -4.7970 O   0  0  0  0  0  0  0  0  0  0  0  0
   11.7390  -12.9190   -4.1570 O   0  0  0  0  0  0  0  0  0  0  0  0
   13.0390  -13.5580   -4.1020 C   0  0  0  0  0  0  0  0  0  0  0  0
   13.4640  -14.0800   -5.4790 C   0  0  0  0  0  0  0  0  0  0  0  0
   13.0770  -14.6590   -3.0350 C   0  0  0  0  0  0  0  0  0  0  0  0
   14.0060  -12.4390   -3.6850 C   0  0  0  0  0  0  0  0  0  0  0  0
    7.5150  -12.8080   -2.7240 C   0  0  0  0  0  0  0  0  0  0  0  0
    4.5120  -12.7940   -0.4120 C   0  0  0  0  0  0  0  0  0  0  0  0
    3.2360  -12.2280   -0.3380 C   0  0  0  0  0  0  0  0  0  0  0  0
    2.3110  -12.2570    0.6460 N   0  0  0  0  0  0  0  0  0  0  0  0
    1.2380  -11.5140    0.2780 C   0  0  0  0  0  0  0  0  0  0  0  0
   -0.1790  -11.2950    1.0650 C   0  0  0  0  0  0  0  0  0  0  0  0
   -0.9850  -12.3740    1.2810 C   0  0  0  0  0  0  0  0  0  0  0  0
   -0.6860  -13.6780    0.8630 N   0  0  0  0  0  0  0  0  0  0  0  0
   -1.4890  -14.3960   -0.1180 C   0  0  0  0  0  0  0  0  0  0  0  0
   -0.8260  -15.7410   -0.5060 C   0  0  1  0  0  0  0  0  0  0  0  0
   -1.7390  -16.5520   -1.2540 O   0  0  0  0  0  0  0  0  0  0  0  0
    0.4220  -15.5010   -1.3390 C   0  0  0  0  0  0  0  0  0  0  0  0
    1.6500  -16.0350   -0.9130 C   0  0  0  0  0  0  0  0  0  0  0  0
    2.8180  -15.8100   -1.6420 C   0  0  0  0  0  0  0  0  0  0  0  0
    2.7740  -15.0420   -2.8050 C   0  0  0  0  0  0  0  0  0  0  0  0
    1.5610  -14.5030   -3.2340 C   0  0  0  0  0  0  0  0  0  0  0  0
    1.5160  -13.5520   -4.6700 Cl  0  0  0  0  0  0  0  0  0  0  0  0
    0.3910  -14.7260   -2.5090 C   0  0  0  0  0  0  0  0  0  0  0  0
   -2.2420  -12.1770    1.9660 C   0  0  0  0  0  0  0  0  0  0  0  0
   -2.5730  -10.9310    2.3270 C   0  0  0  0  0  0  0  0  0  0  0  0
   -1.8730   -9.7930    2.1250 N   0  0  0  0  0  0  0  0  0  0  0  0
   -0.6830   -9.8960    1.4820 C   0  0  0  0  0  0  0  0  0  0  0  0
   -0.0350   -8.8860    1.2020 O   0  0  0  0  0  0  0  0  0  0  0  0
    1.4670  -11.0510   -1.0060 N   0  0  0  0  0  0  0  0  0  0  0  0
    2.6980  -11.4770   -1.3990 C   0  0  0  0  0  0  0  0  0  0  0  0
    2.2904   -9.6437   -3.2986 H   0  0  0  0  0  0  0  0  0  0  0  0
    3.6949  -10.0976   -4.3223 H   0  0  0  0  0  0  0  0  0  0  0  0
    2.2166  -11.1179   -4.3223 H   0  0  0  0  0  0  0  0  0  0  0  0
    5.3275  -11.6989   -3.5280 H   0  0  0  0  0  0  0  0  0  0  0  0
    6.9042  -13.7746    0.3241 H   0  0  0  0  0  0  0  0  0  0  0  0
    6.6684  -15.0851   -0.8198 H   0  0  0  0  0  0  0  0  0  0  0  0
    9.1086  -13.2704   -0.4228 H   0  0  0  0  0  0  0  0  0  0  0  0
    9.1122  -15.0006   -0.7065 H   0  0  0  0  0  0  0  0  0  0  0  0
    8.5839  -14.6936   -3.1093 H   0  0  0  0  0  0  0  0  0  0  0  0
   10.3880  -12.4940   -2.3820 H   0  0  0  0  0  0  0  0  0  0  0  0
   14.1539  -14.9274   -5.3529 H   0  0  0  0  0  0  0  0  0  0  0  0
   12.5750  -14.4107   -6.0361 H   0  0  0  0  0  0  0  0  0  0  0  0
   13.9680  -13.2765   -6.0361 H   0  0  0  0  0  0  0  0  0  0  0  0
   13.0612  -14.2011   -2.0349 H   0  0  0  0  0  0  0  0  0  0  0  0
   12.2009  -15.3138   -3.1524 H   0  0  0  0  0  0  0  0  0  0  0  0
   13.9961  -15.2518   -3.1524 H   0  0  0  0  0  0  0  0  0  0  0  0
   14.0527  -12.3849   -2.5873 H   0  0  0  0  0  0  0  0  0  0  0  0
   15.0083  -12.6528   -4.0846 H   0  0  0  0  0  0  0  0  0  0  0  0
   13.6492  -11.4783   -4.0846 H   0  0  0  0  0  0  0  0  0  0  0  0
    7.8599  -11.7664   -2.6464 H   0  0  0  0  0  0  0  0  0  0  0  0
    7.0722  -12.9097   -3.7258 H   0  0  0  0  0  0  0  0  0  0  0  0
    4.9044  -13.3863    0.4278 H   0  0  0  0  0  0  0  0  0  0  0  0
    0.3230  -13.6930    0.6060 H   0  0  0  0  0  0  0  0  0  0  0  0
   -2.4831  -14.5956    0.3085 H   0  0  0  0  0  0  0  0  0  0  0  0
   -1.5732  -13.7749   -1.0219 H   0  0  0  0  0  0  0  0  0  0  0  0
   -0.5494  -16.2619    0.4225 H   0  0  0  0  0  0  0  0  0  0  0  0
   -1.7280  -17.4310   -0.7710 H   0  0  0  0  0  0  0  0  0  0  0  0
    1.6908  -16.6377    0.0063 H   0  0  0  0  0  0  0  0  0  0  0  0
    3.7720  -16.2377   -1.2999 H   0  0  0  0  0  0  0  0  0  0  0  0
    3.6928  -14.8618   -3.3823 H   0  0  0  0  0  0  0  0  0  0  0  0
   -0.5593  -14.2933   -2.8550 H   0  0  0  0  0  0  0  0  0  0  0  0
   -2.9071  -13.0255    2.1843 H   0  0  0  0  0  0  0  0  0  0  0  0
   -3.5329  -10.8200    2.8527 H   0  0  0  0  0  0  0  0  0  0  0  0
  1  2  1  0
  2  3  2  0
  3  4  1  0
  4  5  1  0
  5  6  1  0
  6  7  1  0
  7  8  1  0
  8  9  1  0
  9 10  1  0
 10 11  2  0
 10 12  1  0
 12 13  1  0
 13 14  1  0
 13 15  1  0
 13 16  1  0
  8 17  1  0
  4 18  2  0
 18 19  1  0
 19 20  1  0
 20 21  1  0
 21 22  1  0
 22 23  2  0
 23 24  1  0
 24 25  1  0
 25 26  1  0
 26 27  1  0
 26 28  1  0
 28 29  2  0
 29 30  1  0
 30 31  2  0
 31 32  1  0
 32 33  1  0
 32 34  2  0
 23 35  1  0
 35 36  2  0
 36 37  1  0
 37 38  1  0
 38 39  2  0
 21 40  2  0
 40 41  1  0
 41  2  1  0
 17  5  1  0
 41 19  2  0
 38 22  1  0
 34 28  1  0
  1 42  1  0
  1 43  1  0
  1 44  1  0
  3 45  1  0
  6 46  1  0
  6 47  1  0
  7 48  1  0
  7 49  1  0
  8 50  1  6
  9 51  1  0
 14 52  1  0
 14 53  1  0
 14 54  1  0
 15 55  1  0
 15 56  1  0
 15 57  1  0
 16 58  1  0
 16 59  1  0
 16 60  1  0
 17 61  1  0
 17 62  1  0
 18 63  1  0
 24 64  1  0
 25 65  1  0
 25 66  1  0
 26 67  1  1
 27 68  1  0
 29 69  1  0
 30 70  1  0
 31 71  1  0
 34 72  1  0
 35 73  1  0
 36 74  1  0
M  CHG  2  20  -1  37  -1
M  END
>  <meeko>  (4) 
{"is_sidechain": [false], "free_energy": -8.049, "intermolecular_energy": -12.742, "internal_energy": -2.781}

$$$$
LIB_LWTKJTIPCMXHIH__M_PUB_ALL__e8__s20260927
     RDKit          3D

 74 78  0  0  0  0  0  0  0  0999 V2000
   -0.1690  -11.4850    1.5660 C   0  0  0  0  0  0  0  0  0  0  0  0
   -0.2090  -12.9230    1.1780 C   0  0  0  0  0  0  0  0  0  0  0  0
   -0.9750  -13.8780    1.8810 C   0  0  0  0  0  0  0  0  0  0  0  0
   -1.0530  -15.2440    1.5230 C   0  0  0  0  0  0  0  0  0  0  0  0
   -1.8280  -16.1300    2.2500 N   0  0  0  0  0  0  0  0  0  0  0  0
   -1.6300  -17.5730    2.2200 C   0  0  0  0  0  0  0  0  0  0  0  0
   -2.9050  -18.1260    2.8470 C   0  0  0  0  0  0  0  0  0  0  0  0
   -3.2900  -17.0590    3.8640 C   0  0  2  0  0  0  0  0  0  0  0  0
   -4.6910  -17.1350    4.2310 N   0  0  0  0  0  0  0  0  0  0  0  0
   -5.1320  -16.9230    5.4980 C   0  0  0  0  0  0  0  0  0  0  0  0
   -4.4210  -16.7150    6.4660 O   0  0  0  0  0  0  0  0  0  0  0  0
   -6.4850  -16.9750    5.4970 O   0  0  0  0  0  0  0  0  0  0  0  0
   -7.2700  -15.7580    5.5390 C   0  0  0  0  0  0  0  0  0  0  0  0
   -6.5510  -14.6050    4.8290 C   0  0  0  0  0  0  0  0  0  0  0  0
   -7.6580  -15.3920    6.9760 C   0  0  0  0  0  0  0  0  0  0  0  0
   -8.5490  -16.0910    4.7560 C   0  0  0  0  0  0  0  0  0  0  0  0
   -2.9030  -15.7440    3.1580 C   0  0  0  0  0  0  0  0  0  0  0  0
   -0.3250  -15.6670    0.4020 C   0  0  0  0  0  0  0  0  0  0  0  0
    0.4210  -14.7370   -0.3270 C   0  0  0  0  0  0  0  0  0  0  0  0
    1.1870  -14.8870   -1.4300 N   0  0  0  0  0  0  0  0  0  0  0  0
    1.6760  -13.6790   -1.8070 C   0  0  0  0  0  0  0  0  0  0  0  0
    2.7170  -13.3240   -3.0180 C   0  0  0  0  0  0  0  0  0  0  0  0
    3.8250  -12.5830   -2.7350 C   0  0  0  0  0  0  0  0  0  0  0  0
    4.1400  -12.0880   -1.4620 N   0  0  0  0  0  0  0  0  0  0  0  0
    5.0600  -12.7650   -0.5580 C   0  0  0  0  0  0  0  0  0  0  0  0
    4.4870  -12.8250    0.8800 C   0  0  1  0  0  0  0  0  0  0  0  0
    3.4660  -11.8370    1.0530 O   0  0  0  0  0  0  0  0  0  0  0  0
    3.9030  -14.1990    1.1650 C   0  0  0  0  0  0  0  0  0  0  0  0
    3.0730  -14.3780    2.2840 C   0  0  0  0  0  0  0  0  0  0  0  0
    2.5430  -15.6330    2.5860 C   0  0  0  0  0  0  0  0  0  0  0  0
    2.8420  -16.7270    1.7750 C   0  0  0  0  0  0  0  0  0  0  0  0
    3.6680  -16.5610    0.6640 C   0  0  0  0  0  0  0  0  0  0  0  0
    4.0360  -17.9190   -0.3300 Cl  0  0  0  0  0  0  0  0  0  0  0  0
    4.2000  -15.3090    0.3580 C   0  0  0  0  0  0  0  0  0  0  0  0
    4.7380  -12.2600   -3.8090 C   0  0  0  0  0  0  0  0  0  0  0  0
    4.4290  -12.6770   -5.0430 C   0  0  0  0  0  0  0  0  0  0  0  0
    3.3430  -13.3750   -5.4380 N   0  0  0  0  0  0  0  0  0  0  0  0
    2.4360  -13.7110   -4.4870 C   0  0  0  0  0  0  0  0  0  0  0  0
    1.3890  -14.2820   -4.7960 O   0  0  0  0  0  0  0  0  0  0  0  0
    1.2550  -12.7460   -0.8750 N   0  0  0  0  0  0  0  0  0  0  0  0
    0.4760  -13.3810    0.0420 C   0  0  0  0  0  0  0  0  0  0  0  0
   -0.1667  -11.4011    2.6628 H   0  0  0  0  0  0  0  0  0  0  0  0
    0.7424  -11.0211    1.1608 H   0  0  0  0  0  0  0  0  0  0  0  0
   -1.0532  -10.9712    1.1608 H   0  0  0  0  0  0  0  0  0  0  0  0
   -1.5448  -13.5397    2.7590 H   0  0  0  0  0  0  0  0  0  0  0  0
   -1.5136  -17.9315    1.1866 H   0  0  0  0  0  0  0  0  0  0  0  0
   -0.7211  -17.8897    2.7525 H   0  0  0  0  0  0  0  0  0  0  0  0
   -3.6935  -18.2512    2.0903 H   0  0  0  0  0  0  0  0  0  0  0  0
   -2.7656  -19.1193    3.2986 H   0  0  0  0  0  0  0  0  0  0  0  0
   -2.7775  -17.1699    4.8310 H   0  0  0  0  0  0  0  0  0  0  0  0
   -5.4010  -17.2270    3.5180 H   0  0  0  0  0  0  0  0  0  0  0  0
   -6.1249  -13.9217    5.5784 H   0  0  0  0  0  0  0  0  0  0  0  0
   -5.7440  -15.0083    4.1996 H   0  0  0  0  0  0  0  0  0  0  0  0
   -7.2682  -14.0578    4.1996 H   0  0  0  0  0  0  0  0  0  0  0  0
   -7.0436  -15.9716    7.6806 H   0  0  0  0  0  0  0  0  0  0  0  0
   -7.4882  -14.3175    7.1393 H   0  0  0  0  0  0  0  0  0  0  0  0
   -8.7207  -15.6242    7.1393 H   0  0  0  0  0  0  0  0  0  0  0  0
   -9.3658  -16.3037    5.4614 H   0  0  0  0  0  0  0  0  0  0  0  0
   -8.8248  -15.2347    4.1230 H   0  0  0  0  0  0  0  0  0  0  0  0
   -8.3722  -16.9731    4.1230 H   0  0  0  0  0  0  0  0  0  0  0  0
   -3.7577  -15.3346    2.5995 H   0  0  0  0  0  0  0  0  0  0  0  0
   -2.5964  -14.9595    3.8656 H   0  0  0  0  0  0  0  0  0  0  0  0
   -0.3409  -16.7241    0.0983 H   0  0  0  0  0  0  0  0  0  0  0  0
    4.3970  -11.0850   -1.5790 H   0  0  0  0  0  0  0  0  0  0  0  0
    5.2301  -13.7898   -0.9199 H   0  0  0  0  0  0  0  0  0  0  0  0
    6.0043  -12.2012   -0.5343 H   0  0  0  0  0  0  0  0  0  0  0  0
    5.3107  -12.6270    1.5817 H   0  0  0  0  0  0  0  0  0  0  0  0
    3.5860  -11.5330    2.0020 H   0  0  0  0  0  0  0  0  0  0  0  0
    2.8381  -13.5190    2.9297 H   0  0  0  0  0  0  0  0  0  0  0  0
    1.8904  -15.7590    3.4625 H   0  0  0  0  0  0  0  0  0  0  0  0
    2.4275  -17.7182    2.0110 H   0  0  0  0  0  0  0  0  0  0  0  0
    4.8543  -15.1905   -0.5182 H   0  0  0  0  0  0  0  0  0  0  0  0
    5.6585  -11.6890   -3.6177 H   0  0  0  0  0  0  0  0  0  0  0  0
    5.1494  -12.4189   -5.8332 H   0  0  0  0  0  0  0  0  0  0  0  0
  1  2  1  0
  2  3  2  0
  3  4  1  0
  4  5  1  0
  5  6  1  0
  6  7  1  0
  7  8  1  0
  8  9  1  0
  9 10  1  0
 10 11  2  0
 10 12  1  0
 12 13  1  0
 13 14  1  0
 13 15  1  0
 13 16  1  0
  8 17  1  0
  4 18  2  0
 18 19  1  0
 19 20  1  0
 20 21  1  0
 21 22  1  0
 22 23  2  0
 23 24  1  0
 24 25  1  0
 25 26  1  0
 26 27  1  0
 26 28  1  0
 28 29  2  0
 29 30  1  0
 30 31  2  0
 31 32  1  0
 32 33  1  0
 32 34  2  0
 23 35  1  0
 35 36  2  0
 36 37  1  0
 37 38  1  0
 38 39  2  0
 21 40  2  0
 40 41  1  0
 41  2  1  0
 17  5  1  0
 41 19  2  0
 38 22  1  0
 34 28  1  0
  1 42  1  0
  1 43  1  0
  1 44  1  0
  3 45  1  0
  6 46  1  0
  6 47  1  0
  7 48  1  0
  7 49  1  0
  8 50  1  1
  9 51  1  0
 14 52  1  0
 14 53  1  0
 14 54  1  0
 15 55  1  0
 15 56  1  0
 15 57  1  0
 16 58  1  0
 16 59  1  0
 16 60  1  0
 17 61  1  0
 17 62  1  0
 18 63  1  0
 24 64  1  0
 25 65  1  0
 25 66  1  0
 26 67  1  1
 27 68  1  0
 29 69  1  0
 30 70  1  0
 31 71  1  0
 34 72  1  0
 35 73  1  0
 36 74  1  0
M  CHG  2  20  -1  37  -1
M  END
>  <meeko>  (5) 
{"is_sidechain": [false], "free_energy": -7.971, "intermolecular_energy": -11.9, "internal_energy": -3.503}

$$$$
LIB_LWTKJTIPCMXHIH__M_PUB_ALL__e8__s20260927
     RDKit          3D

 74 78  0  0  0  0  0  0  0  0999 V2000
    3.1050  -10.3460   -3.9610 C   0  0  0  0  0  0  0  0  0  0  0  0
    3.0660  -11.0530   -2.6500 C   0  0  0  0  0  0  0  0  0  0  0  0
    1.8620  -11.2960   -1.9540 C   0  0  0  0  0  0  0  0  0  0  0  0
    1.7900  -11.9850   -0.7210 C   0  0  0  0  0  0  0  0  0  0  0  0
    0.5760  -12.1970   -0.0920 N   0  0  0  0  0  0  0  0  0  0  0  0
   -0.2050  -11.1270    0.5160 C   0  0  0  0  0  0  0  0  0  0  0  0
   -1.2220  -11.8660    1.3770 C   0  0  0  0  0  0  0  0  0  0  0  0
   -1.4790  -13.1500    0.5980 C   0  0  2  0  0  0  0  0  0  0  0  0
   -2.0310  -14.1960    1.4350 N   0  0  0  0  0  0  0  0  0  0  0  0
   -2.7210  -15.2540    0.9340 C   0  0  0  0  0  0  0  0  0  0  0  0
   -3.0080  -15.4140   -0.2400 O   0  0  0  0  0  0  0  0  0  0  0  0
   -3.0240  -16.0930    1.9520 O   0  0  0  0  0  0  0  0  0  0  0  0
   -2.0470  -17.0490    2.4340 C   0  0  0  0  0  0  0  0  0  0  0  0
   -1.2740  -16.5010    3.6380 C   0  0  0  0  0  0  0  0  0  0  0  0
   -1.1090  -17.5040    1.3100 C   0  0  0  0  0  0  0  0  0  0  0  0
   -2.8790  -18.2560    2.8950 C   0  0  0  0  0  0  0  0  0  0  0  0
   -0.0930  -13.4890    0.0130 C   0  0  0  0  0  0  0  0  0  0  0  0
    2.9890  -12.4520   -0.1630 C   0  0  0  0  0  0  0  0  0  0  0  0
    4.1920  -12.2470   -0.8450 C   0  0  0  0  0  0  0  0  0  0  0  0
    5.4570  -12.6010   -0.5300 N   0  0  0  0  0  0  0  0  0  0  0  0
    6.2920  -12.2260   -1.5320 C   0  0  0  0  0  0  0  0  0  0  0  0
    7.9220  -12.3430   -1.6090 C   0  0  0  0  0  0  0  0  0  0  0  0
    8.5120  -12.4940   -2.8280 C   0  0  0  0  0  0  0  0  0  0  0  0
    7.8130  -12.5660   -4.0410 N   0  0  0  0  0  0  0  0  0  0  0  0
    7.5730  -13.8220   -4.7400 C   0  0  0  0  0  0  0  0  0  0  0  0
    6.2670  -13.7570   -5.5710 C   0  0  1  0  0  0  0  0  0  0  0  0
    6.3460  -14.6380   -6.6970 O   0  0  0  0  0  0  0  0  0  0  0  0
    5.0710  -14.1450   -4.7180 C   0  0  0  0  0  0  0  0  0  0  0  0
    5.2680  -14.9200   -3.5640 C   0  0  0  0  0  0  0  0  0  0  0  0
    4.1870  -15.3140   -2.7750 C   0  0  0  0  0  0  0  0  0  0  0  0
    2.8920  -14.9410   -3.1340 C   0  0  0  0  0  0  0  0  0  0  0  0
    2.6850  -14.1740   -4.2810 C   0  0  0  0  0  0  0  0  0  0  0  0
    1.0820  -13.7220   -4.7190 Cl  0  0  0  0  0  0  0  0  0  0  0  0
    3.7620  -13.7790   -5.0720 C   0  0  0  0  0  0  0  0  0  0  0  0
    9.9520  -12.6090   -2.8940 C   0  0  0  0  0  0  0  0  0  0  0  0
   10.6360  -12.5980   -1.7440 C   0  0  0  0  0  0  0  0  0  0  0  0
   10.1510  -12.4970   -0.4880 N   0  0  0  0  0  0  0  0  0  0  0  0
    8.8060  -12.3910   -0.3440 C   0  0  0  0  0  0  0  0  0  0  0  0
    8.2980  -12.3720    0.7780 O   0  0  0  0  0  0  0  0  0  0  0  0
    5.5370  -11.5590   -2.4810 N   0  0  0  0  0  0  0  0  0  0  0  0
    4.2380  -11.5670   -2.0750 C   0  0  0  0  0  0  0  0  0  0  0  0
    3.1649   -9.2609   -3.7908 H   0  0  0  0  0  0  0  0  0  0  0  0
    3.9862  -10.6770   -4.5300 H   0  0  0  0  0  0  0  0  0  0  0  0
    2.1927  -10.5781   -4.5300 H   0  0  0  0  0  0  0  0  0  0  0  0
    0.9248  -10.9278   -2.3967 H   0  0  0  0  0  0  0  0  0  0  0  0
    0.4332  -10.4776    1.1332 H   0  0  0  0  0  0  0  0  0  0  0  0
   -0.6757  -10.4674   -0.2279 H   0  0  0  0  0  0  0  0  0  0  0  0
   -0.8090  -12.0858    2.3725 H   0  0  0  0  0  0  0  0  0  0  0  0
   -2.1371  -11.2825    1.5563 H   0  0  0  0  0  0  0  0  0  0  0  0
   -2.2400  -13.0402   -0.1886 H   0  0  0  0  0  0  0  0  0  0  0  0
   -1.8090  -14.2330    2.4200 H   0  0  0  0  0  0  0  0  0  0  0  0
   -1.7539  -16.8412    4.5675 H   0  0  0  0  0  0  0  0  0  0  0  0
   -0.2371  -16.8669    3.6054 H   0  0  0  0  0  0  0  0  0  0  0  0
   -1.2760  -15.4015    3.6054 H   0  0  0  0  0  0  0  0  0  0  0  0
   -0.2005  -17.9447    1.7464 H   0  0  0  0  0  0  0  0  0  0  0  0
   -1.6187  -18.2550    0.6885 H   0  0  0  0  0  0  0  0  0  0  0  0
   -0.8347  -16.6388    0.6885 H   0  0  0  0  0  0  0  0  0  0  0  0
   -2.9009  -18.2878    3.9943 H   0  0  0  0  0  0  0  0  0  0  0  0
   -3.9053  -18.1623    2.5103 H   0  0  0  0  0  0  0  0  0  0  0  0
   -2.4263  -19.1818    2.5103 H   0  0  0  0  0  0  0  0  0  0  0  0
    0.4603  -14.1615    0.6850 H   0  0  0  0  0  0  0  0  0  0  0  0
   -0.1592  -14.0093   -0.9539 H   0  0  0  0  0  0  0  0  0  0  0  0
    2.9828  -12.9758    0.8043 H   0  0  0  0  0  0  0  0  0  0  0  0
    6.9280  -12.0310   -3.9150 H   0  0  0  0  0  0  0  0  0  0  0  0
    8.4181  -14.0251   -5.4142 H   0  0  0  0  0  0  0  0  0  0  0  0
    7.4727  -14.6237   -3.9935 H   0  0  0  0  0  0  0  0  0  0  0  0
    6.1412  -12.7228   -5.9239 H   0  0  0  0  0  0  0  0  0  0  0  0
    6.9860  -15.3510   -6.3980 H   0  0  0  0  0  0  0  0  0  0  0  0
    6.2870  -15.2202   -3.2785 H   0  0  0  0  0  0  0  0  0  0  0  0
    4.3558  -15.9179   -1.8712 H   0  0  0  0  0  0  0  0  0  0  0  0
    2.0369  -15.2504   -2.5151 H   0  0  0  0  0  0  0  0  0  0  0  0
    3.5864  -13.1785   -5.9768 H   0  0  0  0  0  0  0  0  0  0  0  0
   10.4693  -12.7027   -3.8602 H   0  0  0  0  0  0  0  0  0  0  0  0
   11.7292  -12.6816   -1.8329 H   0  0  0  0  0  0  0  0  0  0  0  0
  1  2  1  0
  2  3  2  0
  3  4  1  0
  4  5  1  0
  5  6  1  0
  6  7  1  0
  7  8  1  0
  8  9  1  0
  9 10  1  0
 10 11  2  0
 10 12  1  0
 12 13  1  0
 13 14  1  0
 13 15  1  0
 13 16  1  0
  8 17  1  0
  4 18  2  0
 18 19  1  0
 19 20  1  0
 20 21  1  0
 21 22  1  0
 22 23  2  0
 23 24  1  0
 24 25  1  0
 25 26  1  0
 26 27  1  0
 26 28  1  0
 28 29  2  0
 29 30  1  0
 30 31  2  0
 31 32  1  0
 32 33  1  0
 32 34  2  0
 23 35  1  0
 35 36  2  0
 36 37  1  0
 37 38  1  0
 38 39  2  0
 21 40  2  0
 40 41  1  0
 41  2  1  0
 17  5  1  0
 41 19  2  0
 38 22  1  0
 34 28  1  0
  1 42  1  0
  1 43  1  0
  1 44  1  0
  3 45  1  0
  6 46  1  0
  6 47  1  0
  7 48  1  0
  7 49  1  0
  8 50  1  6
  9 51  1  0
 14 52  1  0
 14 53  1  0
 14 54  1  0
 15 55  1  0
 15 56  1  0
 15 57  1  0
 16 58  1  0
 16 59  1  0
 16 60  1  0
 17 61  1  0
 17 62  1  0
 18 63  1  0
 24 64  1  0
 25 65  1  0
 25 66  1  0
 26 67  1  6
 27 68  1  0
 29 69  1  0
 30 70  1  0
 31 71  1  0
 34 72  1  0
 35 73  1  0
 36 74  1  0
M  CHG  2  20  -1  37  -1
M  END
>  <meeko>  (6) 
{"is_sidechain": [false], "free_energy": -7.959, "intermolecular_energy": -12.403, "internal_energy": -2.98}

$$$$
LIB_LWTKJTIPCMXHIH__M_PUB_ALL__e8__s20260927
     RDKit          3D

 74 78  0  0  0  0  0  0  0  0999 V2000
    7.2000  -17.1870   -0.9470 C   0  0  0  0  0  0  0  0  0  0  0  0
    6.6460  -15.9010   -0.4360 C   0  0  0  0  0  0  0  0  0  0  0  0
    5.3130  -15.7730    0.0120 C   0  0  0  0  0  0  0  0  0  0  0  0
    4.7670  -14.5730    0.5250 C   0  0  0  0  0  0  0  0  0  0  0  0
    3.4530  -14.5150    0.9560 N   0  0  0  0  0  0  0  0  0  0  0  0
    2.7750  -15.6330    1.5990 C   0  0  0  0  0  0  0  0  0  0  0  0
    1.3030  -15.2420    1.5460 C   0  0  0  0  0  0  0  0  0  0  0  0
    1.3360  -13.7230    1.6620 C   0  0  2  0  0  0  0  0  0  0  0  0
    0.1200  -13.1100    1.1650 N   0  0  0  0  0  0  0  0  0  0  0  0
   -0.7140  -12.3840    1.9540 C   0  0  0  0  0  0  0  0  0  0  0  0
   -0.5800  -12.2170    3.1540 O   0  0  0  0  0  0  0  0  0  0  0  0
   -1.7030  -11.8760    1.1820 O   0  0  0  0  0  0  0  0  0  0  0  0
   -1.7460  -10.4600    0.8760 C   0  0  0  0  0  0  0  0  0  0  0  0
   -0.4480   -9.9920    0.2080 C   0  0  0  0  0  0  0  0  0  0  0  0
   -2.0820   -9.6290    2.1200 C   0  0  0  0  0  0  0  0  0  0  0  0
   -2.8950  -10.3140   -0.1340 C   0  0  0  0  0  0  0  0  0  0  0  0
    2.5970  -13.3380    0.8620 C   0  0  0  0  0  0  0  0  0  0  0  0
    5.6030  -13.4500    0.5900 C   0  0  0  0  0  0  0  0  0  0  0  0
    6.9340  -13.5570    0.1760 C   0  0  0  0  0  0  0  0  0  0  0  0
    7.9270  -12.6410    0.1480 N   0  0  0  0  0  0  0  0  0  0  0  0
    9.0680  -13.2280   -0.2900 C   0  0  0  0  0  0  0  0  0  0  0  0
   10.5260  -12.5470   -0.5860 C   0  0  0  0  0  0  0  0  0  0  0  0
   11.1140  -12.7540   -1.7990 C   0  0  0  0  0  0  0  0  0  0  0  0
   10.5550  -13.5270   -2.8250 N   0  0  0  0  0  0  0  0  0  0  0  0
    9.7160  -12.9590   -3.8730 C   0  0  0  0  0  0  0  0  0  0  0  0
    8.5550  -13.9170   -4.2390 C   0  0  1  0  0  0  0  0  0  0  0  0
    8.7790  -15.2140   -3.6740 O   0  0  0  0  0  0  0  0  0  0  0  0
    7.2320  -13.3730   -3.7270 C   0  0  0  0  0  0  0  0  0  0  0  0
    7.1520  -12.0350   -3.3070 C   0  0  0  0  0  0  0  0  0  0  0  0
    5.9570  -11.5140   -2.8070 C   0  0  0  0  0  0  0  0  0  0  0  0
    4.8280  -12.3270   -2.7160 C   0  0  0  0  0  0  0  0  0  0  0  0
    4.8990  -13.6580   -3.1270 C   0  0  0  0  0  0  0  0  0  0  0  0
    3.5000  -14.6570   -3.0070 Cl  0  0  0  0  0  0  0  0  0  0  0  0
    6.0900  -14.1830   -3.6270 C   0  0  0  0  0  0  0  0  0  0  0  0
   12.4070  -12.1610   -2.0550 C   0  0  0  0  0  0  0  0  0  0  0  0
   12.9850  -11.4630   -1.0690 C   0  0  0  0  0  0  0  0  0  0  0  0
   12.5130  -11.2340    0.1760 N   0  0  0  0  0  0  0  0  0  0  0  0
   11.3050  -11.7640    0.4940 C   0  0  0  0  0  0  0  0  0  0  0  0
   10.8560  -11.6540    1.6360 O   0  0  0  0  0  0  0  0  0  0  0  0
    8.7710  -14.5420   -0.6080 N   0  0  0  0  0  0  0  0  0  0  0  0
    7.4590  -14.7630   -0.3220 C   0  0  0  0  0  0  0  0  0  0  0  0
    7.4769  -17.8299   -0.0985 H   0  0  0  0  0  0  0  0  0  0  0  0
    6.4411  -17.6954   -1.5598 H   0  0  0  0  0  0  0  0  0  0  0  0
    8.0908  -16.9847   -1.5598 H   0  0  0  0  0  0  0  0  0  0  0  0
    4.6614  -16.6576   -0.0410 H   0  0  0  0  0  0  0  0  0  0  0  0
    2.9524  -16.5685    1.0482 H   0  0  0  0  0  0  0  0  0  0  0  0
    3.1310  -15.8149    2.6238 H   0  0  0  0  0  0  0  0  0  0  0  0
    0.8469  -15.5542    0.5949 H   0  0  0  0  0  0  0  0  0  0  0  0
    0.7034  -15.7197    2.3348 H   0  0  0  0  0  0  0  0  0  0  0  0
    1.3834  -13.3638    2.7006 H   0  0  0  0  0  0  0  0  0  0  0  0
   -0.0810  -13.1040    0.1750 H   0  0  0  0  0  0  0  0  0  0  0  0
    0.2876   -9.7268    0.9817 H   0  0  0  0  0  0  0  0  0  0  0  0
   -0.0455  -10.8016   -0.4185 H   0  0  0  0  0  0  0  0  0  0  0  0
   -0.6547   -9.1118   -0.4185 H   0  0  0  0  0  0  0  0  0  0  0  0
   -1.8469  -10.2103    3.0238 H   0  0  0  0  0  0  0  0  0  0  0  0
   -1.4874   -8.7036    2.1143 H   0  0  0  0  0  0  0  0  0  0  0  0
   -3.1527   -9.3769    2.1143 H   0  0  0  0  0  0  0  0  0  0  0  0
   -3.8453  -10.1932    0.4067 H   0  0  0  0  0  0  0  0  0  0  0  0
   -2.7179   -9.4311   -0.7658 H   0  0  0  0  0  0  0  0  0  0  0  0
   -2.9443  -11.2131   -0.7658 H   0  0  0  0  0  0  0  0  0  0  0  0
    2.3433  -13.1227   -0.1865 H   0  0  0  0  0  0  0  0  0  0  0  0
    3.0828  -12.4313    1.2516 H   0  0  0  0  0  0  0  0  0  0  0  0
    5.2146  -12.4912    0.9641 H   0  0  0  0  0  0  0  0  0  0  0  0
   11.3240  -14.1020   -3.2290 H   0  0  0  0  0  0  0  0  0  0  0  0
    9.2969  -12.0051   -3.5201 H   0  0  0  0  0  0  0  0  0  0  0  0
   10.3347  -12.8019   -4.7688 H   0  0  0  0  0  0  0  0  0  0  0  0
    8.5152  -13.9974   -5.3353 H   0  0  0  0  0  0  0  0  0  0  0  0
    9.1440  -15.0170   -2.7610 H   0  0  0  0  0  0  0  0  0  0  0  0
    8.0409  -11.3904   -3.3728 H   0  0  0  0  0  0  0  0  0  0  0  0
    5.9063  -10.4633   -2.4853 H   0  0  0  0  0  0  0  0  0  0  0  0
    3.8850  -11.9204   -2.3217 H   0  0  0  0  0  0  0  0  0  0  0  0
    6.1348  -15.2353   -3.9441 H   0  0  0  0  0  0  0  0  0  0  0  0
   12.9015  -12.2795   -3.0304 H   0  0  0  0  0  0  0  0  0  0  0  0
   13.9653  -11.0215   -1.3016 H   0  0  0  0  0  0  0  0  0  0  0  0
  1  2  1  0
  2  3  2  0
  3  4  1  0
  4  5  1  0
  5  6  1  0
  6  7  1  0
  7  8  1  0
  8  9  1  0
  9 10  1  0
 10 11  2  0
 10 12  1  0
 12 13  1  0
 13 14  1  0
 13 15  1  0
 13 16  1  0
  8 17  1  0
  4 18  2  0
 18 19  1  0
 19 20  1  0
 20 21  1  0
 21 22  1  0
 22 23  2  0
 23 24  1  0
 24 25  1  0
 25 26  1  0
 26 27  1  0
 26 28  1  0
 28 29  2  0
 29 30  1  0
 30 31  2  0
 31 32  1  0
 32 33  1  0
 32 34  2  0
 23 35  1  0
 35 36  2  0
 36 37  1  0
 37 38  1  0
 38 39  2  0
 21 40  2  0
 40 41  1  0
 41  2  1  0
 17  5  1  0
 41 19  2  0
 38 22  1  0
 34 28  1  0
  1 42  1  0
  1 43  1  0
  1 44  1  0
  3 45  1  0
  6 46  1  0
  6 47  1  0
  7 48  1  0
  7 49  1  0
  8 50  1  1
  9 51  1  0
 14 52  1  0
 14 53  1  0
 14 54  1  0
 15 55  1  0
 15 56  1  0
 15 57  1  0
 16 58  1  0
 16 59  1  0
 16 60  1  0
 17 61  1  0
 17 62  1  0
 18 63  1  0
 24 64  1  0
 25 65  1  0
 25 66  1  0
 26 67  1  6
 27 68  1  0
 29 69  1  0
 30 70  1  0
 31 71  1  0
 34 72  1  0
 35 73  1  0
 36 74  1  0
M  CHG  2  20  -1  37  -1
M  END
>  <meeko>  (7) 
{"is_sidechain": [false], "free_energy": -7.917, "intermolecular_energy": -11.67, "internal_energy": -3.65}

$$$$
LIB_LWTKJTIPCMXHIH__M_PUB_ALL__e8__s20260927
     RDKit          3D

 74 78  0  0  0  0  0  0  0  0999 V2000
    2.7690  -14.4520   -3.1680 C   0  0  0  0  0  0  0  0  0  0  0  0
    3.0860  -13.8100   -1.8620 C   0  0  0  0  0  0  0  0  0  0  0  0
    4.4020  -13.4640   -1.4850 C   0  0  0  0  0  0  0  0  0  0  0  0
    4.7320  -12.8310   -0.2640 C   0  0  0  0  0  0  0  0  0  0  0  0
    6.0430  -12.5120    0.0430 N   0  0  0  0  0  0  0  0  0  0  0  0
    6.4330  -11.8560    1.2850 C   0  0  0  0  0  0  0  0  0  0  0  0
    7.8580  -11.3870    1.0130 C   0  0  0  0  0  0  0  0  0  0  0  0
    8.4090  -12.4560    0.0780 C   0  0  2  0  0  0  0  0  0  0  0  0
    9.5540  -11.9840   -0.6760 N   0  0  0  0  0  0  0  0  0  0  0  0
   10.8260  -12.3840   -0.4110 C   0  0  0  0  0  0  0  0  0  0  0  0
   11.1570  -13.1140    0.5070 O   0  0  0  0  0  0  0  0  0  0  0  0
   11.6490  -11.8410   -1.3380 O   0  0  0  0  0  0  0  0  0  0  0  0
   12.0420  -12.6000   -2.5090 C   0  0  0  0  0  0  0  0  0  0  0  0
   12.2270  -14.0850   -2.1770 C   0  0  0  0  0  0  0  0  0  0  0  0
   13.2900  -12.0020   -3.1700 C   0  0  0  0  0  0  0  0  0  0  0  0
   10.8600  -12.4600   -3.4800 C   0  0  0  0  0  0  0  0  0  0  0  0
    7.1930  -12.8170   -0.7990 C   0  0  0  0  0  0  0  0  0  0  0  0
    3.6850  -12.5320    0.6190 C   0  0  0  0  0  0  0  0  0  0  0  0
    2.3700  -12.8410    0.2590 C   0  0  0  0  0  0  0  0  0  0  0  0
    1.2050  -12.6490    0.9170 N   0  0  0  0  0  0  0  0  0  0  0  0
    0.1750  -13.0680    0.1410 C   0  0  0  0  0  0  0  0  0  0  0  0
   -1.4190  -13.1350    0.4980 C   0  0  0  0  0  0  0  0  0  0  0  0
   -2.1450  -14.2060    0.0680 C   0  0  0  0  0  0  0  0  0  0  0  0
   -1.6160  -15.2690   -0.6770 N   0  0  0  0  0  0  0  0  0  0  0  0
   -1.6430  -16.6500   -0.2110 C   0  0  0  0  0  0  0  0  0  0  0  0
   -1.0220  -16.7730    1.2030 C   0  0  1  0  0  0  0  0  0  0  0  0
   -1.3760  -18.0270    1.7970 O   0  0  0  0  0  0  0  0  0  0  0  0
    0.4930  -16.6670    1.1320 C   0  0  0  0  0  0  0  0  0  0  0  0
    1.1900  -16.0420    2.1790 C   0  0  0  0  0  0  0  0  0  0  0  0
    2.5780  -15.9060    2.1300 C   0  0  0  0  0  0  0  0  0  0  0  0
    3.2860  -16.3900    1.0310 C   0  0  0  0  0  0  0  0  0  0  0  0
    2.6020  -17.0090   -0.0160 C   0  0  0  0  0  0  0  0  0  0  0  0
    3.4840  -17.5990   -1.3720 Cl  0  0  0  0  0  0  0  0  0  0  0  0
    1.2150  -17.1470    0.0280 C   0  0  0  0  0  0  0  0  0  0  0  0
   -3.5560  -14.2590    0.3740 C   0  0  0  0  0  0  0  0  0  0  0  0
   -4.0940  -13.2280    1.0380 C   0  0  0  0  0  0  0  0  0  0  0  0
   -3.4800  -12.1050    1.4700 N   0  0  0  0  0  0  0  0  0  0  0  0
   -2.1530  -11.9800    1.2150 C   0  0  0  0  0  0  0  0  0  0  0  0
   -1.5540  -10.9470    1.5170 O   0  0  0  0  0  0  0  0  0  0  0  0
    0.7120  -13.5980   -1.0200 N   0  0  0  0  0  0  0  0  0  0  0  0
    2.0650  -13.4610   -0.9650 C   0  0  0  0  0  0  0  0  0  0  0  0
    2.2883  -15.4255   -2.9910 H   0  0  0  0  0  0  0  0  0  0  0  0
    2.0869  -13.8047   -3.7388 H   0  0  0  0  0  0  0  0  0  0  0  0
    3.6976  -14.6000   -3.7388 H   0  0  0  0  0  0  0  0  0  0  0  0
    5.2191  -13.7008   -2.1823 H   0  0  0  0  0  0  0  0  0  0  0  0
    5.7737  -11.0026    1.5018 H   0  0  0  0  0  0  0  0  0  0  0  0
    6.3620  -12.5203    2.1589 H   0  0  0  0  0  0  0  0  0  0  0  0
    7.8616  -10.3998    0.5278 H   0  0  0  0  0  0  0  0  0  0  0  0
    8.4540  -11.2699    1.9301 H   0  0  0  0  0  0  0  0  0  0  0  0
    8.8087  -13.3353    0.6045 H   0  0  0  0  0  0  0  0  0  0  0  0
    9.4230  -11.4320   -1.5120 H   0  0  0  0  0  0  0  0  0  0  0  0
   12.2435  -14.2173   -1.0851 H   0  0  0  0  0  0  0  0  0  0  0  0
   11.3939  -14.6627   -2.6038 H   0  0  0  0  0  0  0  0  0  0  0  0
   13.1764  -14.4406   -2.6038 H   0  0  0  0  0  0  0  0  0  0  0  0
   13.9915  -11.6659   -2.3922 H   0  0  0  0  0  0  0  0  0  0  0  0
   13.7749  -12.7656   -3.7959 H   0  0  0  0  0  0  0  0  0  0  0  0
   12.9987  -11.1456   -3.7959 H   0  0  0  0  0  0  0  0  0  0  0  0
    9.9268  -12.3495   -2.9082 H   0  0  0  0  0  0  0  0  0  0  0  0
   11.0090  -11.5732   -4.1136 H   0  0  0  0  0  0  0  0  0  0  0  0
   10.7977  -13.3570   -4.1136 H   0  0  0  0  0  0  0  0  0  0  0  0
    7.1782  -12.2085   -1.7153 H   0  0  0  0  0  0  0  0  0  0  0  0
    7.2076  -13.8662   -1.1290 H   0  0  0  0  0  0  0  0  0  0  0  0
    3.8967  -12.0575    1.5885 H   0  0  0  0  0  0  0  0  0  0  0  0
   -2.0040  -15.1900   -1.6400 H   0  0  0  0  0  0  0  0  0  0  0  0
   -2.6861  -16.9974   -0.1769 H   0  0  0  0  0  0  0  0  0  0  0  0
   -1.0535  -17.2653   -0.9066 H   0  0  0  0  0  0  0  0  0  0  0  0
   -1.4161  -15.9512    1.8190 H   0  0  0  0  0  0  0  0  0  0  0  0
   -1.6050  -18.6080    1.0120 H   0  0  0  0  0  0  0  0  0  0  0  0
    0.6358  -15.6555    3.0470 H   0  0  0  0  0  0  0  0  0  0  0  0
    3.1129  -15.4174    2.9577 H   0  0  0  0  0  0  0  0  0  0  0  0
    4.3801  -16.2843    0.9893 H   0  0  0  0  0  0  0  0  0  0  0  0
    0.6854  -17.6332   -0.8045 H   0  0  0  0  0  0  0  0  0  0  0  0
   -4.1697  -15.1201    0.0708 H   0  0  0  0  0  0  0  0  0  0  0  0
   -5.1688  -13.3051    1.2590 H   0  0  0  0  0  0  0  0  0  0  0  0
  1  2  1  0
  2  3  2  0
  3  4  1  0
  4  5  1  0
  5  6  1  0
  6  7  1  0
  7  8  1  0
  8  9  1  0
  9 10  1  0
 10 11  2  0
 10 12  1  0
 12 13  1  0
 13 14  1  0
 13 15  1  0
 13 16  1  0
  8 17  1  0
  4 18  2  0
 18 19  1  0
 19 20  1  0
 20 21  1  0
 21 22  1  0
 22 23  2  0
 23 24  1  0
 24 25  1  0
 25 26  1  0
 26 27  1  0
 26 28  1  0
 28 29  2  0
 29 30  1  0
 30 31  2  0
 31 32  1  0
 32 33  1  0
 32 34  2  0
 23 35  1  0
 35 36  2  0
 36 37  1  0
 37 38  1  0
 38 39  2  0
 21 40  2  0
 40 41  1  0
 41  2  1  0
 17  5  1  0
 41 19  2  0
 38 22  1  0
 34 28  1  0
  1 42  1  0
  1 43  1  0
  1 44  1  0
  3 45  1  0
  6 46  1  0
  6 47  1  0
  7 48  1  0
  7 49  1  0
  8 50  1  1
  9 51  1  0
 14 52  1  0
 14 53  1  0
 14 54  1  0
 15 55  1  0
 15 56  1  0
 15 57  1  0
 16 58  1  0
 16 59  1  0
 16 60  1  0
 17 61  1  0
 17 62  1  0
 18 63  1  0
 24 64  1  0
 25 65  1  0
 25 66  1  0
 26 67  1  1
 27 68  1  0
 29 69  1  0
 30 70  1  0
 31 71  1  0
 34 72  1  0
 35 73  1  0
 36 74  1  0
M  CHG  2  20  -1  37  -1
M  END
>  <meeko>  (8) 
{"is_sidechain": [false], "free_energy": -7.809, "intermolecular_energy": -12.355, "internal_energy": -2.796}

$$$$
LIB_LWTKJTIPCMXHIH__M_PUB_ALL__e8__s20260927
     RDKit          3D

 74 78  0  0  0  0  0  0  0  0999 V2000
    2.0260  -11.1910   -2.3310 C   0  0  0  0  0  0  0  0  0  0  0  0
    2.5230  -12.5440   -2.7100 C   0  0  0  0  0  0  0  0  0  0  0  0
    3.5920  -12.7340   -3.6120 C   0  0  0  0  0  0  0  0  0  0  0  0
    4.1020  -14.0030   -3.9730 C   0  0  0  0  0  0  0  0  0  0  0  0
    5.1590  -14.1220   -4.8580 N   0  0  0  0  0  0  0  0  0  0  0  0
    6.3830  -14.8490   -4.5450 C   0  0  0  0  0  0  0  0  0  0  0  0
    7.3580  -14.3980   -5.6270 C   0  0  0  0  0  0  0  0  0  0  0  0
    6.4600  -14.1640   -6.8360 C   0  0  2  0  0  0  0  0  0  0  0  0
    7.0800  -13.2950   -7.8160 N   0  0  0  0  0  0  0  0  0  0  0  0
    7.8780  -13.7600   -8.8130 C   0  0  0  0  0  0  0  0  0  0  0  0
    8.2140  -14.9230   -8.9610 O   0  0  0  0  0  0  0  0  0  0  0  0
    8.2250  -12.7200   -9.6070 O   0  0  0  0  0  0  0  0  0  0  0  0
    7.5490  -12.5000  -10.8700 C   0  0  0  0  0  0  0  0  0  0  0  0
    7.1040  -11.0400  -11.0180 C   0  0  0  0  0  0  0  0  0  0  0  0
    6.3810  -13.4760  -11.0570 C   0  0  0  0  0  0  0  0  0  0  0  0
    8.6110  -12.7970  -11.9390 C   0  0  0  0  0  0  0  0  0  0  0  0
    5.1760  -13.5810   -6.2120 C   0  0  0  0  0  0  0  0  0  0  0  0
    3.5060  -15.1340   -3.3970 C   0  0  0  0  0  0  0  0  0  0  0  0
    2.4620  -14.9720   -2.4820 C   0  0  0  0  0  0  0  0  0  0  0  0
    1.7410  -15.8830   -1.7930 N   0  0  0  0  0  0  0  0  0  0  0  0
    0.8630  -15.2430   -0.9810 C   0  0  0  0  0  0  0  0  0  0  0  0
   -0.2890  -15.8780   -0.0100 C   0  0  0  0  0  0  0  0  0  0  0  0
    0.0730  -16.8100    0.9180 C   0  0  0  0  0  0  0  0  0  0  0  0
    1.3820  -17.2760    1.0980 N   0  0  0  0  0  0  0  0  0  0  0  0
    2.3800  -16.5470    1.8720 C   0  0  0  0  0  0  0  0  0  0  0  0
    3.7570  -16.5650    1.1630 C   0  0  1  0  0  0  0  0  0  0  0  0
    3.7010  -17.3700   -0.0190 O   0  0  0  0  0  0  0  0  0  0  0  0
    4.1820  -15.1550    0.7850 C   0  0  0  0  0  0  0  0  0  0  0  0
    3.4690  -14.0580    1.2980 C   0  0  0  0  0  0  0  0  0  0  0  0
    3.8190  -12.7540    0.9490 C   0  0  0  0  0  0  0  0  0  0  0  0
    4.8850  -12.5290    0.0770 C   0  0  0  0  0  0  0  0  0  0  0  0
    5.5960  -13.6120   -0.4400 C   0  0  0  0  0  0  0  0  0  0  0  0
    6.9080  -13.3260   -1.5190 Cl  0  0  0  0  0  0  0  0  0  0  0  0
    5.2500  -14.9170   -0.0940 C   0  0  0  0  0  0  0  0  0  0  0  0
   -0.9490  -17.3780    1.7680 C   0  0  0  0  0  0  0  0  0  0  0  0
   -2.2150  -16.9870    1.5760 C   0  0  0  0  0  0  0  0  0  0  0  0
   -2.6860  -16.1100    0.6640 N   0  0  0  0  0  0  0  0  0  0  0  0
   -1.7870  -15.5370   -0.1750 C   0  0  0  0  0  0  0  0  0  0  0  0
   -2.1640  -14.7870   -1.0760 O   0  0  0  0  0  0  0  0  0  0  0  0
    0.9920  -13.8840   -1.2100 N   0  0  0  0  0  0  0  0  0  0  0  0
    1.9780  -13.6990   -2.1300 C   0  0  0  0  0  0  0  0  0  0  0  0
    1.9947  -11.1057   -1.2348 H   0  0  0  0  0  0  0  0  0  0  0  0
    2.7013  -10.4247   -2.7393 H   0  0  0  0  0  0  0  0  0  0  0  0
    1.0152  -11.0440   -2.7393 H   0  0  0  0  0  0  0  0  0  0  0  0
    4.0556  -11.8430   -4.0605 H   0  0  0  0  0  0  0  0  0  0  0  0
    6.7545  -14.5796   -3.5453 H   0  0  0  0  0  0  0  0  0  0  0  0
    6.2388  -15.9394   -4.5287 H   0  0  0  0  0  0  0  0  0  0  0  0
    7.8714  -13.4708   -5.3326 H   0  0  0  0  0  0  0  0  0  0  0  0
    8.1552  -15.1311   -5.8195 H   0  0  0  0  0  0  0  0  0  0  0  0
    6.2557  -15.0773   -7.4140 H   0  0  0  0  0  0  0  0  0  0  0  0
    6.8330  -12.3170   -7.8600 H   0  0  0  0  0  0  0  0  0  0  0  0
    6.9684  -10.5952  -10.0211 H   0  0  0  0  0  0  0  0  0  0  0  0
    7.8713  -10.4769  -11.5695 H   0  0  0  0  0  0  0  0  0  0  0  0
    6.1531  -11.0006  -11.5695 H   0  0  0  0  0  0  0  0  0  0  0  0
    6.0047  -13.7904  -10.0724 H   0  0  0  0  0  0  0  0  0  0  0  0
    5.5743  -12.9796  -11.6164 H   0  0  0  0  0  0  0  0  0  0  0  0
    6.7262  -14.3580  -11.6164 H   0  0  0  0  0  0  0  0  0  0  0  0
    9.5597  -13.0623  -11.4496 H   0  0  0  0  0  0  0  0  0  0  0  0
    8.2751  -13.6357  -12.5665 H   0  0  0  0  0  0  0  0  0  0  0  0
    8.7588  -11.9057  -12.5665 H   0  0  0  0  0  0  0  0  0  0  0  0
    5.2159  -12.4819   -6.1925 H   0  0  0  0  0  0  0  0  0  0  0  0
    4.2731  -13.8444   -6.7824 H   0  0  0  0  0  0  0  0  0  0  0  0
    3.8576  -16.1417   -3.6634 H   0  0  0  0  0  0  0  0  0  0  0  0
    1.3130  -18.2660    1.4120 H   0  0  0  0  0  0  0  0  0  0  0  0
    2.0508  -15.5042    1.9913 H   0  0  0  0  0  0  0  0  0  0  0  0
    2.4854  -17.0335    2.8529 H   0  0  0  0  0  0  0  0  0  0  0  0
    4.4918  -16.9916    1.8617 H   0  0  0  0  0  0  0  0  0  0  0  0
    3.0530  -16.8820   -0.6100 H   0  0  0  0  0  0  0  0  0  0  0  0
    2.6253  -14.2299    1.9826 H   0  0  0  0  0  0  0  0  0  0  0  0
    3.2554  -11.9037    1.3606 H   0  0  0  0  0  0  0  0  0  0  0  0
    5.1634  -11.5019   -0.2015 H   0  0  0  0  0  0  0  0  0  0  0  0
    5.8157  -15.7631   -0.5111 H   0  0  0  0  0  0  0  0  0  0  0  0
   -0.6942  -18.1095    2.5491 H   0  0  0  0  0  0  0  0  0  0  0  0
   -2.9645  -17.4361    2.2443 H   0  0  0  0  0  0  0  0  0  0  0  0
  1  2  1  0
  2  3  2  0
  3  4  1  0
  4  5  1  0
  5  6  1  0
  6  7  1  0
  7  8  1  0
  8  9  1  0
  9 10  1  0
 10 11  2  0
 10 12  1  0
 12 13  1  0
 13 14  1  0
 13 15  1  0
 13 16  1  0
  8 17  1  0
  4 18  2  0
 18 19  1  0
 19 20  1  0
 20 21  1  0
 21 22  1  0
 22 23  2  0
 23 24  1  0
 24 25  1  0
 25 26  1  0
 26 27  1  0
 26 28  1  0
 28 29  2  0
 29 30  1  0
 30 31  2  0
 31 32  1  0
 32 33  1  0
 32 34  2  0
 23 35  1  0
 35 36  2  0
 36 37  1  0
 37 38  1  0
 38 39  2  0
 21 40  2  0
 40 41  1  0
 41  2  1  0
 17  5  1  0
 41 19  2  0
 38 22  1  0
 34 28  1  0
  1 42  1  0
  1 43  1  0
  1 44  1  0
  3 45  1  0
  6 46  1  0
  6 47  1  0
  7 48  1  0
  7 49  1  0
  8 50  1  6
  9 51  1  0
 14 52  1  0
 14 53  1  0
 14 54  1  0
 15 55  1  0
 15 56  1  0
 15 57  1  0
 16 58  1  0
 16 59  1  0
 16 60  1  0
 17 61  1  0
 17 62  1  0
 18 63  1  0
 24 64  1  0
 25 65  1  0
 25 66  1  0
 26 67  1  1
 27 68  1  0
 29 69  1  0
 30 70  1  0
 31 71  1  0
 34 72  1  0
 35 73  1  0
 36 74  1  0
M  CHG  2  20  -1  37  -1
M  END
>  <meeko>  (9) 
{"is_sidechain": [false], "free_energy": -7.68, "intermolecular_energy": -11.465, "internal_energy": -3.485}

$$$$
