LIB_IUZLUPKKYDAWNH__M_PUB_ALL__e8__s20260927
     RDKit          3D

 31 32  0  0  0  0  0  0  0  0999 V2000
  -16.1160  -17.0820   -7.1230 C   0  0  0  0  0  0  0  0  0  0  0  0
  -15.7600  -16.0490   -8.1740 C   0  0  0  0  0  0  0  0  0  0  0  0
  -14.3650  -16.1410   -8.5030 O   0  0  0  0  0  0  0  0  0  0  0  0
  -13.6150  -15.0530   -8.2010 C   0  0  0  0  0  0  0  0  0  0  0  0
  -14.0120  -13.9030   -8.1010 O   0  0  0  0  0  0  0  0  0  0  0  0
  -12.2250  -15.4690   -7.9230 C   0  0  0  0  0  0  0  0  0  0  0  0
  -11.8620  -16.0230   -6.6960 C   0  0  0  0  0  0  0  0  0  0  0  0
  -12.8440  -16.2760   -5.5890 C   0  0  0  0  0  0  0  0  0  0  0  0
  -10.5810  -16.3780   -6.4140 N   0  0  0  0  0  0  0  0  0  0  0  0
   -9.6330  -16.2060   -7.3450 C   0  0  0  0  0  0  0  0  0  0  0  0
   -8.3310  -16.5620   -7.0130 C   0  0  0  0  0  0  0  0  0  0  0  0
   -7.2710  -16.4270   -7.9120 C   0  0  0  0  0  0  0  0  0  0  0  0
   -7.5190  -15.9250   -9.1790 C   0  0  0  0  0  0  0  0  0  0  0  0
   -8.8180  -15.5660   -9.5260 C   0  0  0  0  0  0  0  0  0  0  0  0
   -9.0170  -15.0940  -10.7690 F   0  0  0  0  0  0  0  0  0  0  0  0
   -9.9050  -15.6900   -8.6290 C   0  0  0  0  0  0  0  0  0  0  0  0
  -11.2500  -15.3430   -8.9320 C   0  0  0  0  0  0  0  0  0  0  0  0
  -11.5710  -14.7650  -10.1700 N   0  0  0  0  0  0  0  0  0  0  0  0
  -15.9678  -16.6521   -6.1214 H   0  0  0  0  0  0  0  0  0  0  0  0
  -17.1684  -17.3791   -7.2425 H   0  0  0  0  0  0  0  0  0  0  0  0
  -15.4701  -17.9643   -7.2425 H   0  0  0  0  0  0  0  0  0  0  0  0
  -16.3598  -16.2284   -9.0785 H   0  0  0  0  0  0  0  0  0  0  0  0
  -15.9713  -15.0447   -7.7782 H   0  0  0  0  0  0  0  0  0  0  0  0
  -12.3433  -16.1470   -4.6181 H   0  0  0  0  0  0  0  0  0  0  0  0
  -13.6782  -15.5634   -5.6689 H   0  0  0  0  0  0  0  0  0  0  0  0
  -13.2300  -17.3029   -5.6689 H   0  0  0  0  0  0  0  0  0  0  0  0
   -8.1290  -16.9633   -6.0089 H   0  0  0  0  0  0  0  0  0  0  0  0
   -6.2513  -16.7158   -7.6175 H   0  0  0  0  0  0  0  0  0  0  0  0
   -6.6984  -15.8114   -9.9027 H   0  0  0  0  0  0  0  0  0  0  0  0
  -11.2220  -15.2000  -11.0190 H   0  0  0  0  0  0  0  0  0  0  0  0
  -12.4390  -14.2360  -10.2480 H   0  0  0  0  0  0  0  0  0  0  0  0
  1  2  1  0
  2  3  1  0
  3  4  1  0
  4  5  2  0
  4  6  1  0
  6  7  2  0
  7  8  1  0
  7  9  1  0
  9 10  2  0
 10 11  1  0
 11 12  2  0
 12 13  1  0
 13 14  2  0
 14 15  1  0
 14 16  1  0
 16 17  2  0
 17 18  1  0
 17  6  1  0
 16 10  1  0
  1 19  1  0
  1 20  1  0
  1 21  1  0
  2 22  1  0
  2 23  1  0
  8 24  1  0
  8 25  1  0
  8 26  1  0
 11 27  1  0
 12 28  1  0
 13 29  1  0
 18 30  1  0
 18 31  1  0
M  END
>  <meeko>  (1) 
{"is_sidechain": [false], "free_energy": -6.059, "intermolecular_energy": -7.298, "internal_energy": -0.503}

$$$$
LIB_IUZLUPKKYDAWNH__M_PUB_ALL__e8__s20260927
     RDKit          3D

 31 32  0  0  0  0  0  0  0  0999 V2000
    7.3500  -10.9630    0.9110 C   0  0  0  0  0  0  0  0  0  0  0  0
    8.4900  -11.9630    0.9400 C   0  0  0  0  0  0  0  0  0  0  0  0
    9.7480  -11.2790    0.8500 O   0  0  0  0  0  0  0  0  0  0  0  0
   10.8490  -12.0360    1.0790 C   0  0  0  0  0  0  0  0  0  0  0  0
   11.1200  -12.6310    2.1100 O   0  0  0  0  0  0  0  0  0  0  0  0
   11.6630  -12.1130   -0.1520 C   0  0  0  0  0  0  0  0  0  0  0  0
   12.5980  -11.1280   -0.4700 C   0  0  0  0  0  0  0  0  0  0  0  0
   12.8790   -9.9500    0.4170 C   0  0  0  0  0  0  0  0  0  0  0  0
   13.3280  -11.1680   -1.6150 N   0  0  0  0  0  0  0  0  0  0  0  0
   13.1600  -12.1910   -2.4650 C   0  0  0  0  0  0  0  0  0  0  0  0
   13.9110  -12.1860   -3.6350 C   0  0  0  0  0  0  0  0  0  0  0  0
   13.8130  -13.2060   -4.5840 C   0  0  0  0  0  0  0  0  0  0  0  0
   12.9460  -14.2620   -4.3560 C   0  0  0  0  0  0  0  0  0  0  0  0
   12.1900  -14.2800   -3.1880 C   0  0  0  0  0  0  0  0  0  0  0  0
   11.3690  -15.3280   -3.0000 F   0  0  0  0  0  0  0  0  0  0  0  0
   12.2690  -13.2540   -2.2160 C   0  0  0  0  0  0  0  0  0  0  0  0
   11.5240  -13.2250   -1.0050 C   0  0  0  0  0  0  0  0  0  0  0  0
   10.5750  -14.2220   -0.7330 N   0  0  0  0  0  0  0  0  0  0  0  0
    7.0595  -10.7082    1.9409 H   0  0  0  0  0  0  0  0  0  0  0  0
    7.6741  -10.0526    0.3855 H   0  0  0  0  0  0  0  0  0  0  0  0
    6.4896  -11.4030    0.3855 H   0  0  0  0  0  0  0  0  0  0  0  0
    8.4515  -12.5315    1.8809 H   0  0  0  0  0  0  0  0  0  0  0  0
    8.3903  -12.6476    0.0848 H   0  0  0  0  0  0  0  0  0  0  0  0
   12.8054  -10.2583    1.4703 H   0  0  0  0  0  0  0  0  0  0  0  0
   13.8924   -9.5726    0.2153 H   0  0  0  0  0  0  0  0  0  0  0  0
   12.1451   -9.1558    0.2153 H   0  0  0  0  0  0  0  0  0  0  0  0
   14.6044  -11.3522   -3.8191 H   0  0  0  0  0  0  0  0  0  0  0  0
   14.4176  -13.1712   -5.5023 H   0  0  0  0  0  0  0  0  0  0  0  0
   12.8562  -15.0767   -5.0896 H   0  0  0  0  0  0  0  0  0  0  0  0
    9.9650  -14.1110    0.0720 H   0  0  0  0  0  0  0  0  0  0  0  0
   10.2140  -14.7740   -1.5100 H   0  0  0  0  0  0  0  0  0  0  0  0
  1  2  1  0
  2  3  1  0
  3  4  1  0
  4  5  2  0
  4  6  1  0
  6  7  2  0
  7  8  1  0
  7  9  1  0
  9 10  2  0
 10 11  1  0
 11 12  2  0
 12 13  1  0
 13 14  2  0
 14 15  1  0
 14 16  1  0
 16 17  2  0
 17 18  1  0
 17  6  1  0
 16 10  1  0
  1 19  1  0
  1 20  1  0
  1 21  1  0
  2 22  1  0
  2 23  1  0
  8 24  1  0
  8 25  1  0
  8 26  1  0
 11 27  1  0
 12 28  1  0
 13 29  1  0
 18 30  1  0
 18 31  1  0
M  END
>  <meeko>  (2) 
{"is_sidechain": [false], "free_energy": -6.035, "intermolecular_energy": -7.269, "internal_energy": -0.504}

$$$$
LIB_IUZLUPKKYDAWNH__M_PUB_ALL__e8__s20260927
     RDKit          3D

 31 32  0  0  0  0  0  0  0  0999 V2000
  -16.0610  -17.5090   -8.5120 C   0  0  0  0  0  0  0  0  0  0  0  0
  -14.5620  -17.2850   -8.5750 C   0  0  0  0  0  0  0  0  0  0  0  0
  -14.1640  -16.3340   -7.5760 O   0  0  0  0  0  0  0  0  0  0  0  0
  -13.7290  -15.1370   -8.0410 C   0  0  0  0  0  0  0  0  0  0  0  0
  -14.3580  -14.0910   -8.0520 O   0  0  0  0  0  0  0  0  0  0  0  0
  -12.3210  -15.2540   -8.4730 C   0  0  0  0  0  0  0  0  0  0  0  0
  -11.9370  -14.9900   -9.7870 C   0  0  0  0  0  0  0  0  0  0  0  0
  -12.9000  -14.5310  -10.8440 C   0  0  0  0  0  0  0  0  0  0  0  0
  -10.6530  -15.1270  -10.2060 N   0  0  0  0  0  0  0  0  0  0  0  0
   -9.7150  -15.5170   -9.3310 C   0  0  0  0  0  0  0  0  0  0  0  0
   -8.4150  -15.6660   -9.8010 C   0  0  0  0  0  0  0  0  0  0  0  0
   -7.3660  -16.0620   -8.9710 C   0  0  0  0  0  0  0  0  0  0  0  0
   -7.6190  -16.3140   -7.6330 C   0  0  0  0  0  0  0  0  0  0  0  0
   -8.9150  -16.1670   -7.1470 C   0  0  0  0  0  0  0  0  0  0  0  0
   -9.1160  -16.4100   -5.8400 F   0  0  0  0  0  0  0  0  0  0  0  0
   -9.9950  -15.7710   -7.9730 C   0  0  0  0  0  0  0  0  0  0  0  0
  -11.3350  -15.6020   -7.5280 C   0  0  0  0  0  0  0  0  0  0  0  0
  -11.6860  -15.9030   -6.2040 N   0  0  0  0  0  0  0  0  0  0  0  0
  -16.3807  -17.5568   -7.4606 H   0  0  0  0  0  0  0  0  0  0  0  0
  -16.5774  -16.6780   -9.0149 H   0  0  0  0  0  0  0  0  0  0  0  0
  -16.3119  -18.4546   -9.0149 H   0  0  0  0  0  0  0  0  0  0  0  0
  -14.0436  -18.2387   -8.3968 H   0  0  0  0  0  0  0  0  0  0  0  0
  -14.2971  -16.8957   -9.5691 H   0  0  0  0  0  0  0  0  0  0  0  0
  -13.7940  -14.1049  -10.3654 H   0  0  0  0  0  0  0  0  0  0  0  0
  -12.4192  -13.7652  -11.4704 H   0  0  0  0  0  0  0  0  0  0  0  0
  -13.1921  -15.3867  -11.4704 H   0  0  0  0  0  0  0  0  0  0  0  0
   -8.2068  -15.4650  -10.8622 H   0  0  0  0  0  0  0  0  0  0  0  0
   -6.3489  -16.1729   -9.3750 H   0  0  0  0  0  0  0  0  0  0  0  0
   -6.8053  -16.6267   -6.9621 H   0  0  0  0  0  0  0  0  0  0  0  0
  -10.9490  -16.1260   -5.5410 H   0  0  0  0  0  0  0  0  0  0  0  0
  -12.5390  -15.4960   -5.8230 H   0  0  0  0  0  0  0  0  0  0  0  0
  1  2  1  0
  2  3  1  0
  3  4  1  0
  4  5  2  0
  4  6  1  0
  6  7  2  0
  7  8  1  0
  7  9  1  0
  9 10  2  0
 10 11  1  0
 11 12  2  0
 12 13  1  0
 13 14  2  0
 14 15  1  0
 14 16  1  0
 16 17  2  0
 17 18  1  0
 17  6  1  0
 16 10  1  0
  1 19  1  0
  1 20  1  0
  1 21  1  0
  2 22  1  0
  2 23  1  0
  8 24  1  0
  8 25  1  0
  8 26  1  0
 11 27  1  0
 12 28  1  0
 13 29  1  0
 18 30  1  0
 18 31  1  0
M  END
>  <meeko>  (3) 
{"is_sidechain": [false], "free_energy": -5.798, "intermolecular_energy": -7.019, "internal_energy": -0.469}

$$$$
LIB_IUZLUPKKYDAWNH__M_PUB_ALL__e8__s20260927
     RDKit          3D

 31 32  0  0  0  0  0  0  0  0999 V2000
    5.9980  -15.2130    1.0010 C   0  0  0  0  0  0  0  0  0  0  0  0
    6.1390  -14.0720    1.9900 C   0  0  0  0  0  0  0  0  0  0  0  0
    7.4250  -13.4500    1.8450 O   0  0  0  0  0  0  0  0  0  0  0  0
    7.4270  -12.2360    1.2410 C   0  0  0  0  0  0  0  0  0  0  0  0
    6.8560  -11.2300    1.6300 O   0  0  0  0  0  0  0  0  0  0  0  0
    8.3050  -12.2750    0.0530 C   0  0  0  0  0  0  0  0  0  0  0  0
    7.7820  -12.3240   -1.2390 C   0  0  0  0  0  0  0  0  0  0  0  0
    6.3090  -12.2990   -1.5270 C   0  0  0  0  0  0  0  0  0  0  0  0
    8.5770  -12.3960   -2.3380 N   0  0  0  0  0  0  0  0  0  0  0  0
    9.9090  -12.4070   -2.1850 C   0  0  0  0  0  0  0  0  0  0  0  0
   10.6890  -12.5010   -3.3320 C   0  0  0  0  0  0  0  0  0  0  0  0
   12.0840  -12.5170   -3.2820 C   0  0  0  0  0  0  0  0  0  0  0  0
   12.7180  -12.4320   -2.0530 C   0  0  0  0  0  0  0  0  0  0  0  0
   11.9500  -12.3350   -0.8970 C   0  0  0  0  0  0  0  0  0  0  0  0
   12.6050  -12.2430    0.2730 F   0  0  0  0  0  0  0  0  0  0  0  0
   10.5350  -12.3230   -0.9250 C   0  0  0  0  0  0  0  0  0  0  0  0
    9.7030  -12.2220    0.2240 C   0  0  0  0  0  0  0  0  0  0  0  0
   10.2670  -12.2000    1.5090 N   0  0  0  0  0  0  0  0  0  0  0  0
    5.8810  -16.1601    1.5481 H   0  0  0  0  0  0  0  0  0  0  0  0
    5.1140  -15.0431    0.3688 H   0  0  0  0  0  0  0  0  0  0  0  0
    6.8967  -15.2634    0.3688 H   0  0  0  0  0  0  0  0  0  0  0  0
    5.3514  -13.3276    1.8015 H   0  0  0  0  0  0  0  0  0  0  0  0
    6.0432  -14.4673    3.0120 H   0  0  0  0  0  0  0  0  0  0  0  0
    5.7503  -12.2895   -0.5795 H   0  0  0  0  0  0  0  0  0  0  0  0
    6.0639  -11.3966   -2.1063 H   0  0  0  0  0  0  0  0  0  0  0  0
    6.0334  -13.1926   -2.1063 H   0  0  0  0  0  0  0  0  0  0  0  0
   10.1908  -12.5648   -4.3106 H   0  0  0  0  0  0  0  0  0  0  0  0
   12.6730  -12.5962   -4.2076 H   0  0  0  0  0  0  0  0  0  0  0  0
   13.8163  -12.4411   -1.9919 H   0  0  0  0  0  0  0  0  0  0  0  0
    9.8400  -12.7620    2.2400 H   0  0  0  0  0  0  0  0  0  0  0  0
   11.2640  -12.0090    1.5980 H   0  0  0  0  0  0  0  0  0  0  0  0
  1  2  1  0
  2  3  1  0
  3  4  1  0
  4  5  2  0
  4  6  1  0
  6  7  2  0
  7  8  1  0
  7  9  1  0
  9 10  2  0
 10 11  1  0
 11 12  2  0
 12 13  1  0
 13 14  2  0
 14 15  1  0
 14 16  1  0
 16 17  2  0
 17 18  1  0
 17  6  1  0
 16 10  1  0
  1 19  1  0
  1 20  1  0
  1 21  1  0
  2 22  1  0
  2 23  1  0
  8 24  1  0
  8 25  1  0
  8 26  1  0
 11 27  1  0
 12 28  1  0
 13 29  1  0
 18 30  1  0
 18 31  1  0
M  END
>  <meeko>  (4) 
{"is_sidechain": [false], "free_energy": -5.757, "intermolecular_energy": -6.77, "internal_energy": -0.669}

$$$$
LIB_IUZLUPKKYDAWNH__M_PUB_ALL__e8__s20260927
     RDKit          3D

 31 32  0  0  0  0  0  0  0  0999 V2000
   12.6250  -14.1240   -6.1300 C   0  0  0  0  0  0  0  0  0  0  0  0
   11.7160  -15.2320   -5.6350 C   0  0  0  0  0  0  0  0  0  0  0  0
   11.1040  -14.8480   -4.3940 O   0  0  0  0  0  0  0  0  0  0  0  0
   11.7150  -15.3000   -3.2710 C   0  0  0  0  0  0  0  0  0  0  0  0
   12.4400  -16.2770   -3.1820 O   0  0  0  0  0  0  0  0  0  0  0  0
   11.4400  -14.3760   -2.1510 C   0  0  0  0  0  0  0  0  0  0  0  0
   10.3570  -14.5700   -1.2950 C   0  0  0  0  0  0  0  0  0  0  0  0
    9.4200  -15.7370   -1.4120 C   0  0  0  0  0  0  0  0  0  0  0  0
   10.0720  -13.7090   -0.2830 N   0  0  0  0  0  0  0  0  0  0  0  0
   10.8620  -12.6440   -0.0860 C   0  0  0  0  0  0  0  0  0  0  0  0
   10.5280  -11.7750    0.9460 C   0  0  0  0  0  0  0  0  0  0  0  0
   11.2860  -10.6400    1.2360 C   0  0  0  0  0  0  0  0  0  0  0  0
   12.4120  -10.3650    0.4770 C   0  0  0  0  0  0  0  0  0  0  0  0
   12.7600  -11.2270   -0.5590 C   0  0  0  0  0  0  0  0  0  0  0  0
   13.8660  -10.9310   -1.2630 F   0  0  0  0  0  0  0  0  0  0  0  0
   12.0020  -12.3810   -0.8730 C   0  0  0  0  0  0  0  0  0  0  0  0
   12.3140  -13.2960   -1.9150 C   0  0  0  0  0  0  0  0  0  0  0  0
   13.3990  -13.0520   -2.7720 N   0  0  0  0  0  0  0  0  0  0  0  0
   13.0596  -13.5943   -5.2694 H   0  0  0  0  0  0  0  0  0  0  0  0
   13.4318  -14.5566   -6.7398 H   0  0  0  0  0  0  0  0  0  0  0  0
   12.0431  -13.4173   -6.7398 H   0  0  0  0  0  0  0  0  0  0  0  0
   10.9329  -15.4225   -6.3837 H   0  0  0  0  0  0  0  0  0  0  0  0
   12.3111  -16.1436   -5.4771 H   0  0  0  0  0  0  0  0  0  0  0  0
    9.1405  -16.0851   -0.4066 H   0  0  0  0  0  0  0  0  0  0  0  0
    8.5161  -15.4282   -1.9575 H   0  0  0  0  0  0  0  0  0  0  0  0
    9.9168  -16.5528   -1.9575 H   0  0  0  0  0  0  0  0  0  0  0  0
    9.6368  -11.9891    1.5542 H   0  0  0  0  0  0  0  0  0  0  0  0
   10.9928   -9.9708    2.0583 H   0  0  0  0  0  0  0  0  0  0  0  0
   13.0237   -9.4760    0.6906 H   0  0  0  0  0  0  0  0  0  0  0  0
   13.8540  -13.8410   -3.2210 H   0  0  0  0  0  0  0  0  0  0  0  0
   13.4410  -12.1580   -3.2590 H   0  0  0  0  0  0  0  0  0  0  0  0
  1  2  1  0
  2  3  1  0
  3  4  1  0
  4  5  2  0
  4  6  1  0
  6  7  2  0
  7  8  1  0
  7  9  1  0
  9 10  2  0
 10 11  1  0
 11 12  2  0
 12 13  1  0
 13 14  2  0
 14 15  1  0
 14 16  1  0
 16 17  2  0
 17 18  1  0
 17  6  1  0
 16 10  1  0
  1 19  1  0
  1 20  1  0
  1 21  1  0
  2 22  1  0
  2 23  1  0
  8 24  1  0
  8 25  1  0
  8 26  1  0
 11 27  1  0
 12 28  1  0
 13 29  1  0
 18 30  1  0
 18 31  1  0
M  END
>  <meeko>  (5) 
{"is_sidechain": [false], "free_energy": -5.634, "intermolecular_energy": -6.636, "internal_energy": -0.653}

$$$$
LIB_IUZLUPKKYDAWNH__M_PUB_ALL__e8__s20260927
     RDKit          3D

 31 32  0  0  0  0  0  0  0  0999 V2000
   14.5740  -12.0530   -3.5450 C   0  0  0  0  0  0  0  0  0  0  0  0
   13.5560  -11.5710   -2.5290 C   0  0  0  0  0  0  0  0  0  0  0  0
   12.2280  -11.8760   -2.9790 O   0  0  0  0  0  0  0  0  0  0  0  0
   11.7000  -13.0360   -2.5170 C   0  0  0  0  0  0  0  0  0  0  0  0
   12.1030  -14.1630   -2.7570 O   0  0  0  0  0  0  0  0  0  0  0  0
   10.5850  -12.7410   -1.5930 C   0  0  0  0  0  0  0  0  0  0  0  0
   10.7480  -12.8090   -0.2100 C   0  0  0  0  0  0  0  0  0  0  0  0
   12.0570  -13.1410    0.4450 C   0  0  0  0  0  0  0  0  0  0  0  0
    9.7230  -12.5750    0.6500 N   0  0  0  0  0  0  0  0  0  0  0  0
    8.5160  -12.2540    0.1610 C   0  0  0  0  0  0  0  0  0  0  0  0
    7.4870  -12.0410    1.0720 C   0  0  0  0  0  0  0  0  0  0  0  0
    6.1960  -11.6990    0.6660 C   0  0  0  0  0  0  0  0  0  0  0  0
    5.9250  -11.5620   -0.6850 C   0  0  0  0  0  0  0  0  0  0  0  0
    6.9460  -11.7700   -1.6080 C   0  0  0  0  0  0  0  0  0  0  0  0
    6.6430  -11.6160   -2.9080 F   0  0  0  0  0  0  0  0  0  0  0  0
    8.2600  -12.1230   -1.2180 C   0  0  0  0  0  0  0  0  0  0  0  0
    9.3400  -12.3430   -2.1180 C   0  0  0  0  0  0  0  0  0  0  0  0
    9.1300  -12.2900   -3.5040 N   0  0  0  0  0  0  0  0  0  0  0  0
   15.4479  -12.4668   -3.0205 H   0  0  0  0  0  0  0  0  0  0  0  0
   14.1218  -12.8326   -4.1756 H   0  0  0  0  0  0  0  0  0  0  0  0
   14.8905  -11.2091   -4.1756 H   0  0  0  0  0  0  0  0  0  0  0  0
   13.7378  -12.0712   -1.5663 H   0  0  0  0  0  0  0  0  0  0  0  0
   13.6545  -10.4820   -2.4094 H   0  0  0  0  0  0  0  0  0  0  0  0
   11.9381  -13.1108    1.5381 H   0  0  0  0  0  0  0  0  0  0  0  0
   12.3753  -14.1483    0.1385 H   0  0  0  0  0  0  0  0  0  0  0  0
   12.8169  -12.4072    0.1385 H   0  0  0  0  0  0  0  0  0  0  0  0
    7.6971  -12.1454    2.1467 H   0  0  0  0  0  0  0  0  0  0  0  0
    5.4026  -11.5401    1.4111 H   0  0  0  0  0  0  0  0  0  0  0  0
    4.9143  -11.2919   -1.0250 H   0  0  0  0  0  0  0  0  0  0  0  0
    8.1920  -12.4440   -3.8630 H   0  0  0  0  0  0  0  0  0  0  0  0
    9.7480  -11.7060   -4.0660 H   0  0  0  0  0  0  0  0  0  0  0  0
  1  2  1  0
  2  3  1  0
  3  4  1  0
  4  5  2  0
  4  6  1  0
  6  7  2  0
  7  8  1  0
  7  9  1  0
  9 10  2  0
 10 11  1  0
 11 12  2  0
 12 13  1  0
 13 14  2  0
 14 15  1  0
 14 16  1  0
 16 17  2  0
 17 18  1  0
 17  6  1  0
 16 10  1  0
  1 19  1  0
  1 20  1  0
  1 21  1  0
  2 22  1  0
  2 23  1  0
  8 24  1  0
  8 25  1  0
  8 26  1  0
 11 27  1  0
 12 28  1  0
 13 29  1  0
 18 30  1  0
 18 31  1  0
M  END
>  <meeko>  (6) 
{"is_sidechain": [false], "free_energy": -5.601, "intermolecular_energy": -6.763, "internal_energy": -0.487}

$$$$
LIB_IUZLUPKKYDAWNH__M_PUB_ALL__e8__s20260927
     RDKit          3D

 31 32  0  0  0  0  0  0  0  0999 V2000
    7.2590  -10.2700    0.8380 C   0  0  0  0  0  0  0  0  0  0  0  0
    6.9240  -11.6860    0.4120 C   0  0  0  0  0  0  0  0  0  0  0  0
    7.7590  -12.0800   -0.6870 O   0  0  0  0  0  0  0  0  0  0  0  0
    8.5940  -13.1210   -0.4490 C   0  0  0  0  0  0  0  0  0  0  0  0
    8.2860  -14.2070    0.0160 O   0  0  0  0  0  0  0  0  0  0  0  0
    9.9550  -12.7830   -0.9160 C   0  0  0  0  0  0  0  0  0  0  0  0
   10.8740  -12.1460   -0.0820 C   0  0  0  0  0  0  0  0  0  0  0  0
   10.5760  -11.7960    1.3470 C   0  0  0  0  0  0  0  0  0  0  0  0
   12.1150  -11.7980   -0.5080 N   0  0  0  0  0  0  0  0  0  0  0  0
   12.4810  -12.0840   -1.7660 C   0  0  0  0  0  0  0  0  0  0  0  0
   13.7530  -11.6940   -2.1720 C   0  0  0  0  0  0  0  0  0  0  0  0
   14.2310  -11.9480   -3.4590 C   0  0  0  0  0  0  0  0  0  0  0  0
   13.4210  -12.6120   -4.3640 C   0  0  0  0  0  0  0  0  0  0  0  0
   12.1460  -13.0100   -3.9710 C   0  0  0  0  0  0  0  0  0  0  0  0
   11.3970  -13.6630   -4.8760 F   0  0  0  0  0  0  0  0  0  0  0  0
   11.6390  -12.7580   -2.6730 C   0  0  0  0  0  0  0  0  0  0  0  0
   10.3490  -13.1460   -2.2190 C   0  0  0  0  0  0  0  0  0  0  0  0
    9.4440  -13.7620   -3.0950 N   0  0  0  0  0  0  0  0  0  0  0  0
    7.2729  -10.2111    1.9363 H   0  0  0  0  0  0  0  0  0  0  0  0
    8.2476   -9.9925    0.4434 H   0  0  0  0  0  0  0  0  0  0  0  0
    6.4995   -9.5790    0.4434 H   0  0  0  0  0  0  0  0  0  0  0  0
    7.0893  -12.3694    1.2580 H   0  0  0  0  0  0  0  0  0  0  0  0
    5.8707  -11.7282    0.0977 H   0  0  0  0  0  0  0  0  0  0  0  0
   11.1432  -12.4622    2.0136 H   0  0  0  0  0  0  0  0  0  0  0  0
   10.8670  -10.7524    1.5373 H   0  0  0  0  0  0  0  0  0  0  0  0
    9.4993  -11.9169    1.5373 H   0  0  0  0  0  0  0  0  0  0  0  0
   14.4028  -11.1689   -1.4565 H   0  0  0  0  0  0  0  0  0  0  0  0
   15.2408  -11.6238   -3.7508 H   0  0  0  0  0  0  0  0  0  0  0  0
   13.7805  -12.8228   -5.3820 H   0  0  0  0  0  0  0  0  0  0  0  0
    8.5110  -13.9850   -2.7590 H   0  0  0  0  0  0  0  0  0  0  0  0
    9.5440  -13.5920   -4.0950 H   0  0  0  0  0  0  0  0  0  0  0  0
  1  2  1  0
  2  3  1  0
  3  4  1  0
  4  5  2  0
  4  6  1  0
  6  7  2  0
  7  8  1  0
  7  9  1  0
  9 10  2  0
 10 11  1  0
 11 12  2  0
 12 13  1  0
 13 14  2  0
 14 15  1  0
 14 16  1  0
 16 17  2  0
 17 18  1  0
 17  6  1  0
 16 10  1  0
  1 19  1  0
  1 20  1  0
  1 21  1  0
  2 22  1  0
  2 23  1  0
  8 24  1  0
  8 25  1  0
  8 26  1  0
 11 27  1  0
 12 28  1  0
 13 29  1  0
 18 30  1  0
 18 31  1  0
M  END
>  <meeko>  (7) 
{"is_sidechain": [false], "free_energy": -5.583, "intermolecular_energy": -6.558, "internal_energy": -0.671}

$$$$
LIB_IUZLUPKKYDAWNH__M_PUB_ALL__e8__s20260927
     RDKit          3D

 31 32  0  0  0  0  0  0  0  0999 V2000
    1.1280  -16.5730    3.1230 C   0  0  0  0  0  0  0  0  0  0  0  0
    1.7240  -15.1970    3.3540 C   0  0  0  0  0  0  0  0  0  0  0  0
    0.8740  -14.1900    2.7850 O   0  0  0  0  0  0  0  0  0  0  0  0
   -0.1490  -13.7700    3.5710 C   0  0  0  0  0  0  0  0  0  0  0  0
   -0.1300  -13.6500    4.7850 O   0  0  0  0  0  0  0  0  0  0  0  0
   -1.3000  -13.3910    2.7250 C   0  0  0  0  0  0  0  0  0  0  0  0
   -2.4310  -14.2000    2.6280 C   0  0  0  0  0  0  0  0  0  0  0  0
   -2.5880  -15.4820    3.3930 C   0  0  0  0  0  0  0  0  0  0  0  0
   -3.4810  -13.8810    1.8280 N   0  0  0  0  0  0  0  0  0  0  0  0
   -3.4420  -12.7450    1.1160 C   0  0  0  0  0  0  0  0  0  0  0  0
   -4.5270  -12.4620    0.2940 C   0  0  0  0  0  0  0  0  0  0  0  0
   -4.5870  -11.3050   -0.4850 C   0  0  0  0  0  0  0  0  0  0  0  0
   -3.5360  -10.4040   -0.4380 C   0  0  0  0  0  0  0  0  0  0  0  0
   -2.4440  -10.6730    0.3820 C   0  0  0  0  0  0  0  0  0  0  0  0
   -1.4520   -9.7660    0.4060 F   0  0  0  0  0  0  0  0  0  0  0  0
   -2.3620  -11.8420    1.1750 C   0  0  0  0  0  0  0  0  0  0  0  0
   -1.2740  -12.1640    2.0320 C   0  0  0  0  0  0  0  0  0  0  0  0
   -0.1420  -11.3360    2.0830 N   0  0  0  0  0  0  0  0  0  0  0  0
    0.9212  -17.0504    4.0922 H   0  0  0  0  0  0  0  0  0  0  0  0
    0.1912  -16.4761    2.5547 H   0  0  0  0  0  0  0  0  0  0  0  0
    1.8395  -17.1901    2.5547 H   0  0  0  0  0  0  0  0  0  0  0  0
    1.8239  -15.0205    4.4351 H   0  0  0  0  0  0  0  0  0  0  0  0
    2.7125  -15.1473    2.8740 H   0  0  0  0  0  0  0  0  0  0  0  0
   -2.5621  -15.2705    4.4722 H   0  0  0  0  0  0  0  0  0  0  0  0
   -3.5500  -15.9483    3.1337 H   0  0  0  0  0  0  0  0  0  0  0  0
   -1.7670  -16.1666    3.1337 H   0  0  0  0  0  0  0  0  0  0  0  0
   -5.3655  -13.1729    0.2562 H   0  0  0  0  0  0  0  0  0  0  0  0
   -5.4581  -11.1113   -1.1281 H   0  0  0  0  0  0  0  0  0  0  0  0
   -3.5641   -9.4854   -1.0425 H   0  0  0  0  0  0  0  0  0  0  0  0
    0.4270  -11.2330    1.2480 H   0  0  0  0  0  0  0  0  0  0  0  0
   -0.1400  -10.5570    2.7410 H   0  0  0  0  0  0  0  0  0  0  0  0
  1  2  1  0
  2  3  1  0
  3  4  1  0
  4  5  2  0
  4  6  1  0
  6  7  2  0
  7  8  1  0
  7  9  1  0
  9 10  2  0
 10 11  1  0
 11 12  2  0
 12 13  1  0
 13 14  2  0
 14 15  1  0
 14 16  1  0
 16 17  2  0
 17 18  1  0
 17  6  1  0
 16 10  1  0
  1 19  1  0
  1 20  1  0
  1 21  1  0
  2 22  1  0
  2 23  1  0
  8 24  1  0
  8 25  1  0
  8 26  1  0
 11 27  1  0
 12 28  1  0
 13 29  1  0
 18 30  1  0
 18 31  1  0
M  END
>  <meeko>  (8) 
{"is_sidechain": [false], "free_energy": -5.531, "intermolecular_energy": -6.546, "internal_energy": -0.619}

$$$$
LIB_IUZLUPKKYDAWNH__M_PUB_ALL__e8__s20260927
     RDKit          3D

 31 32  0  0  0  0  0  0  0  0999 V2000
   12.7230   -9.9500    0.5180 C   0  0  0  0  0  0  0  0  0  0  0  0
   13.2830  -11.0480   -0.3660 C   0  0  0  0  0  0  0  0  0  0  0  0
   12.2780  -11.5000   -1.2860 O   0  0  0  0  0  0  0  0  0  0  0  0
   11.6690  -12.6680   -0.9660 C   0  0  0  0  0  0  0  0  0  0  0  0
   12.1870  -13.6350   -0.4310 O   0  0  0  0  0  0  0  0  0  0  0  0
   10.2300  -12.5830   -1.2900 C   0  0  0  0  0  0  0  0  0  0  0  0
    9.7670  -12.7320   -2.5970 C   0  0  0  0  0  0  0  0  0  0  0  0
   10.6720  -13.0280   -3.7580 C   0  0  0  0  0  0  0  0  0  0  0  0
    8.4510  -12.6210   -2.9150 N   0  0  0  0  0  0  0  0  0  0  0  0
    7.5600  -12.3730   -1.9440 C   0  0  0  0  0  0  0  0  0  0  0  0
    6.2250  -12.2460   -2.3100 C   0  0  0  0  0  0  0  0  0  0  0  0
    5.2200  -11.9930   -1.3750 C   0  0  0  0  0  0  0  0  0  0  0  0
    5.5550  -11.8660   -0.0370 C   0  0  0  0  0  0  0  0  0  0  0  0
    6.8880  -11.9930    0.3440 C   0  0  0  0  0  0  0  0  0  0  0  0
    7.1690  -11.8750    1.6530 F   0  0  0  0  0  0  0  0  0  0  0  0
    7.9230  -12.2450   -0.5880 C   0  0  0  0  0  0  0  0  0  0  0  0
    9.2980  -12.3870   -0.2520 C   0  0  0  0  0  0  0  0  0  0  0  0
    9.7270  -12.2050    1.0710 N   0  0  0  0  0  0  0  0  0  0  0  0
   12.8622  -10.2230    1.5744 H   0  0  0  0  0  0  0  0  0  0  0  0
   13.2504   -9.0073    0.3103 H   0  0  0  0  0  0  0  0  0  0  0  0
   11.6502   -9.8234    0.3103 H   0  0  0  0  0  0  0  0  0  0  0  0
   14.1435  -10.6583   -0.9295 H   0  0  0  0  0  0  0  0  0  0  0  0
   13.6002  -11.8917    0.2645 H   0  0  0  0  0  0  0  0  0  0  0  0
   11.6552  -13.3496   -3.3838 H   0  0  0  0  0  0  0  0  0  0  0  0
   10.2327  -13.8293   -4.3703 H   0  0  0  0  0  0  0  0  0  0  0  0
   10.7911  -12.1220   -4.3703 H   0  0  0  0  0  0  0  0  0  0  0  0
    5.9518  -12.3482   -3.3706 H   0  0  0  0  0  0  0  0  0  0  0  0
    4.1728  -11.8955   -1.6974 H   0  0  0  0  0  0  0  0  0  0  0  0
    4.7774  -11.6673    0.7152 H   0  0  0  0  0  0  0  0  0  0  0  0
   10.6360  -12.5670    1.3450 H   0  0  0  0  0  0  0  0  0  0  0  0
    9.3790  -11.3980    1.5880 H   0  0  0  0  0  0  0  0  0  0  0  0
  1  2  1  0
  2  3  1  0
  3  4  1  0
  4  5  2  0
  4  6  1  0
  6  7  2  0
  7  8  1  0
  7  9  1  0
  9 10  2  0
 10 11  1  0
 11 12  2  0
 12 13  1  0
 13 14  2  0
 14 15  1  0
 14 16  1  0
 16 17  2  0
 17 18  1  0
 17  6  1  0
 16 10  1  0
  1 19  1  0
  1 20  1  0
  1 21  1  0
  2 22  1  0
  2 23  1  0
  8 24  1  0
  8 25  1  0
  8 26  1  0
 11 27  1  0
 12 28  1  0
 13 29  1  0
 18 30  1  0
 18 31  1  0
M  END
>  <meeko>  (9) 
{"is_sidechain": [false], "free_energy": -5.486, "intermolecular_energy": -6.553, "internal_energy": -0.559}

$$$$
