LIB_PIBQWNKYAGXQHF__M_PUB_ALL__e8__s20260927
     RDKit          3D

 32 33  0  0  0  0  0  0  0  0999 V2000
   11.4710  -14.0680   13.1160 C   0  0  0  0  0  0  0  0  0  0  0  0
   12.5750  -13.0590   13.0580 N   0  0  0  0  0  0  0  0  0  0  0  0
   13.1960  -12.9670   11.6880 C   0  0  0  0  0  0  0  0  0  0  0  0
   14.2260  -11.8910   11.6160 C   0  0  0  0  0  0  0  0  0  0  0  0
   14.3360  -10.9170   12.5360 C   0  0  0  0  0  0  0  0  0  0  0  0
   15.4350   -9.9390   12.4560 C   0  0  0  0  0  0  0  0  0  0  0  0
   16.6890  -10.3050   12.9660 C   0  0  0  0  0  0  0  0  0  0  0  0
   17.7620   -9.4140   12.9210 C   0  0  0  0  0  0  0  0  0  0  0  0
   17.5910   -8.1480   12.3710 C   0  0  0  0  0  0  0  0  0  0  0  0
   16.3480   -7.7700   11.8620 C   0  0  0  0  0  0  0  0  0  0  0  0
   15.2560   -8.6580   11.8920 C   0  0  0  0  0  0  0  0  0  0  0  0
   13.9230   -8.2110   11.3420 C   0  0  0  0  0  0  0  0  0  0  0  0
   13.4800   -9.0120   10.3310 F   0  0  0  0  0  0  0  0  0  0  0  0
   13.9590   -6.9510   10.8100 F   0  0  0  0  0  0  0  0  0  0  0  0
   12.9230   -8.1870   12.2640 F   0  0  0  0  0  0  0  0  0  0  0  0
   13.3730  -10.7800   13.6900 C   0  0  0  0  0  0  0  0  0  0  0  0
   12.1500  -11.6940   13.5540 C   0  0  0  0  0  0  0  0  0  0  0  0
   11.2302  -14.2881   14.1665 H   0  0  0  0  0  0  0  0  0  0  0  0
   10.5798  -13.6658   12.6121 H   0  0  0  0  0  0  0  0  0  0  0  0
   11.7916  -14.9917   12.6121 H   0  0  0  0  0  0  0  0  0  0  0  0
   13.3230  -13.3850   13.6860 H   0  0  0  0  0  0  0  0  0  0  0  0
   13.6700  -13.9299   11.4469 H   0  0  0  0  0  0  0  0  0  0  0  0
   12.4000  -12.7259   10.9681 H   0  0  0  0  0  0  0  0  0  0  0  0
   14.9291  -11.8945   10.7700 H   0  0  0  0  0  0  0  0  0  0  0  0
   16.8281  -11.3037   13.4056 H   0  0  0  0  0  0  0  0  0  0  0  0
   18.7425   -9.7127   13.3203 H   0  0  0  0  0  0  0  0  0  0  0  0
   18.4359   -7.4445   12.3373 H   0  0  0  0  0  0  0  0  0  0  0  0
   16.2198   -6.7657   11.4320 H   0  0  0  0  0  0  0  0  0  0  0  0
   13.9009  -11.0353   14.6207 H   0  0  0  0  0  0  0  0  0  0  0  0
   13.0112   -9.7412   13.6982 H   0  0  0  0  0  0  0  0  0  0  0  0
   11.6628  -11.7985   14.5347 H   0  0  0  0  0  0  0  0  0  0  0  0
   11.4473  -11.2511   12.8329 H   0  0  0  0  0  0  0  0  0  0  0  0
  1  2  1  0
  2  3  1  0
  3  4  1  0
  4  5  2  0
  5  6  1  0
  6  7  2  0
  7  8  1  0
  8  9  2  0
  9 10  1  0
 10 11  2  0
 11 12  1  0
 12 13  1  0
 12 14  1  0
 12 15  1  0
  5 16  1  0
 16 17  1  0
 17  2  1  0
 11  6  1  0
  1 18  1  0
  1 19  1  0
  1 20  1  0
  2 21  1  0
  3 22  1  0
  3 23  1  0
  4 24  1  0
  7 25  1  0
  8 26  1  0
  9 27  1  0
 10 28  1  0
 16 29  1  0
 16 30  1  0
 17 31  1  0
 17 32  1  0
M  CHG  1   2   1
M  END
>  <meeko>  (1) 
{"is_sidechain": [false], "free_energy": -6.765, "intermolecular_energy": -7.556, "internal_energy": -0.402}

$$$$
LIB_PIBQWNKYAGXQHF__M_PUB_ALL__e8__s20260927
     RDKit          3D

 32 33  0  0  0  0  0  0  0  0999 V2000
   16.7610   -6.2170   11.2480 C   0  0  0  0  0  0  0  0  0  0  0  0
   16.0190   -7.5120   11.3620 N   0  0  0  0  0  0  0  0  0  0  0  0
   16.4570   -8.3200   12.5570 C   0  0  0  0  0  0  0  0  0  0  0  0
   15.6440   -9.5600   12.7160 C   0  0  0  0  0  0  0  0  0  0  0  0
   14.4680   -9.7530   12.0930 C   0  0  0  0  0  0  0  0  0  0  0  0
   13.7620  -11.0390   12.2200 C   0  0  0  0  0  0  0  0  0  0  0  0
   14.1690  -12.1050   11.4050 C   0  0  0  0  0  0  0  0  0  0  0  0
   13.5290  -13.3420   11.4810 C   0  0  0  0  0  0  0  0  0  0  0  0
   12.4730  -13.5260   12.3680 C   0  0  0  0  0  0  0  0  0  0  0  0
   12.0570  -12.4730   13.1840 C   0  0  0  0  0  0  0  0  0  0  0  0
   12.6950  -11.2200   13.1270 C   0  0  0  0  0  0  0  0  0  0  0  0
   12.2100  -10.1010   14.0170 C   0  0  0  0  0  0  0  0  0  0  0  0
   13.2060   -9.5820   14.7920 F   0  0  0  0  0  0  0  0  0  0  0  0
   11.2420  -10.4990   14.8970 F   0  0  0  0  0  0  0  0  0  0  0  0
   11.6760   -9.0470   13.3420 F   0  0  0  0  0  0  0  0  0  0  0  0
   13.8250   -8.6950   11.2320 C   0  0  0  0  0  0  0  0  0  0  0  0
   14.5170   -7.3310   11.3490 C   0  0  0  0  0  0  0  0  0  0  0  0
   16.9820   -5.8313   12.2542 H   0  0  0  0  0  0  0  0  0  0  0  0
   17.7024   -6.3806   10.7030 H   0  0  0  0  0  0  0  0  0  0  0  0
   16.1438   -5.4875   10.7030 H   0  0  0  0  0  0  0  0  0  0  0  0
   16.2590   -8.0770   10.5350 H   0  0  0  0  0  0  0  0  0  0  0  0
   17.5129   -8.6006   12.4293 H   0  0  0  0  0  0  0  0  0  0  0  0
   16.3177   -7.7025   13.4566 H   0  0  0  0  0  0  0  0  0  0  0  0
   16.0245  -10.3548   13.3744 H   0  0  0  0  0  0  0  0  0  0  0  0
   15.0008  -11.9644   10.6991 H   0  0  0  0  0  0  0  0  0  0  0  0
   13.8593  -14.1723   10.8395 H   0  0  0  0  0  0  0  0  0  0  0  0
   11.9664  -14.5007   12.4261 H   0  0  0  0  0  0  0  0  0  0  0  0
   11.2195  -12.6245   13.8808 H   0  0  0  0  0  0  0  0  0  0  0  0
   13.8682   -9.0220   10.1826 H   0  0  0  0  0  0  0  0  0  0  0  0
   12.7885   -8.5710   11.5788 H   0  0  0  0  0  0  0  0  0  0  0  0
   14.2331   -6.7038   10.4911 H   0  0  0  0  0  0  0  0  0  0  0  0
   14.2037   -6.8464   12.2855 H   0  0  0  0  0  0  0  0  0  0  0  0
  1  2  1  0
  2  3  1  0
  3  4  1  0
  4  5  2  0
  5  6  1  0
  6  7  2  0
  7  8  1  0
  8  9  2  0
  9 10  1  0
 10 11  2  0
 11 12  1  0
 12 13  1  0
 12 14  1  0
 12 15  1  0
  5 16  1  0
 16 17  1  0
 17  2  1  0
 11  6  1  0
  1 18  1  0
  1 19  1  0
  1 20  1  0
  2 21  1  0
  3 22  1  0
  3 23  1  0
  4 24  1  0
  7 25  1  0
  8 26  1  0
  9 27  1  0
 10 28  1  0
 16 29  1  0
 16 30  1  0
 17 31  1  0
 17 32  1  0
M  CHG  1   2   1
M  END
>  <meeko>  (2) 
{"is_sidechain": [false], "free_energy": -6.344, "intermolecular_energy": -7.08, "internal_energy": -0.407}

$$$$
LIB_PIBQWNKYAGXQHF__M_PUB_ALL__e8__s20260927
     RDKit          3D

 32 33  0  0  0  0  0  0  0  0999 V2000
   18.5900   -2.8750   13.1460 C   0  0  0  0  0  0  0  0  0  0  0  0
   17.7400   -4.0680   12.8400 N   0  0  0  0  0  0  0  0  0  0  0  0
   18.3850   -4.9870   11.8340 C   0  0  0  0  0  0  0  0  0  0  0  0
   17.5760   -6.2200   11.6100 C   0  0  0  0  0  0  0  0  0  0  0  0
   16.5960   -6.6160   12.4410 C   0  0  0  0  0  0  0  0  0  0  0  0
   15.7730   -7.7920   12.1120 C   0  0  0  0  0  0  0  0  0  0  0  0
   14.5580   -7.5880   11.4410 C   0  0  0  0  0  0  0  0  0  0  0  0
   13.7380   -8.6680   11.1120 C   0  0  0  0  0  0  0  0  0  0  0  0
   14.1200   -9.9610   11.4540 C   0  0  0  0  0  0  0  0  0  0  0  0
   15.3250  -10.1780   12.1230 C   0  0  0  0  0  0  0  0  0  0  0  0
   16.1690   -9.1030   12.4570 C   0  0  0  0  0  0  0  0  0  0  0  0
   17.4610   -9.3750   13.1910 C   0  0  0  0  0  0  0  0  0  0  0  0
   18.5520   -8.9110   12.5160 F   0  0  0  0  0  0  0  0  0  0  0  0
   17.6970  -10.7090   13.3800 F   0  0  0  0  0  0  0  0  0  0  0  0
   17.5220   -8.8150   14.4290 F   0  0  0  0  0  0  0  0  0  0  0  0
   16.2750   -5.8860   13.7210 C   0  0  0  0  0  0  0  0  0  0  0  0
   17.3250   -4.8270   14.0810 C   0  0  0  0  0  0  0  0  0  0  0  0
   18.6752   -2.7554   14.2362 H   0  0  0  0  0  0  0  0  0  0  0  0
   19.5913   -3.0175   12.7134 H   0  0  0  0  0  0  0  0  0  0  0  0
   18.1283   -1.9752   12.7134 H   0  0  0  0  0  0  0  0  0  0  0  0
   16.8770   -3.7250   12.3960 H   0  0  0  0  0  0  0  0  0  0  0  0
   18.4897   -4.4516   10.8788 H   0  0  0  0  0  0  0  0  0  0  0  0
   19.3665   -5.2895   12.2279 H   0  0  0  0  0  0  0  0  0  0  0  0
   17.7913   -6.8342   10.7232 H   0  0  0  0  0  0  0  0  0  0  0  0
   14.2489   -6.5672   11.1717 H   0  0  0  0  0  0  0  0  0  0  0  0
   12.7894   -8.4968   10.5821 H   0  0  0  0  0  0  0  0  0  0  0  0
   13.4723  -10.8122   11.1971 H   0  0  0  0  0  0  0  0  0  0  0  0
   15.6190  -11.2030   12.3929 H   0  0  0  0  0  0  0  0  0  0  0  0
   15.2999   -5.3897   13.6075 H   0  0  0  0  0  0  0  0  0  0  0  0
   16.2628   -6.6292   14.5319 H   0  0  0  0  0  0  0  0  0  0  0  0
   16.8983   -4.1246   14.8121 H   0  0  0  0  0  0  0  0  0  0  0  0
   18.2065   -5.3241   14.5122 H   0  0  0  0  0  0  0  0  0  0  0  0
  1  2  1  0
  2  3  1  0
  3  4  1  0
  4  5  2  0
  5  6  1  0
  6  7  2  0
  7  8  1  0
  8  9  2  0
  9 10  1  0
 10 11  2  0
 11 12  1  0
 12 13  1  0
 12 14  1  0
 12 15  1  0
  5 16  1  0
 16 17  1  0
 17  2  1  0
 11  6  1  0
  1 18  1  0
  1 19  1  0
  1 20  1  0
  2 21  1  0
  3 22  1  0
  3 23  1  0
  4 24  1  0
  7 25  1  0
  8 26  1  0
  9 27  1  0
 10 28  1  0
 16 29  1  0
 16 30  1  0
 17 31  1  0
 17 32  1  0
M  CHG  1   2   1
M  END
>  <meeko>  (3) 
{"is_sidechain": [false], "free_energy": -6.18, "intermolecular_energy": -6.893, "internal_energy": -0.411}

$$$$
LIB_PIBQWNKYAGXQHF__M_PUB_ALL__e8__s20260927
     RDKit          3D

 32 33  0  0  0  0  0  0  0  0999 V2000
   -9.6160  -13.0660  -14.6280 C   0  0  0  0  0  0  0  0  0  0  0  0
   -9.3490  -13.7430  -13.3200 N   0  0  0  0  0  0  0  0  0  0  0  0
   -9.1580  -12.7590  -12.1950 C   0  0  0  0  0  0  0  0  0  0  0  0
   -8.9900  -13.4440  -10.8800 C   0  0  0  0  0  0  0  0  0  0  0  0
   -9.3110  -14.7340  -10.6780 C   0  0  0  0  0  0  0  0  0  0  0  0
   -9.0340  -15.3740   -9.3820 C   0  0  0  0  0  0  0  0  0  0  0  0
   -7.7800  -15.9750   -9.1920 C   0  0  0  0  0  0  0  0  0  0  0  0
   -7.4680  -16.6020   -7.9850 C   0  0  0  0  0  0  0  0  0  0  0  0
   -8.4060  -16.6390   -6.9580 C   0  0  0  0  0  0  0  0  0  0  0  0
   -9.6570  -16.0470   -7.1340 C   0  0  0  0  0  0  0  0  0  0  0  0
   -9.9880  -15.4050   -8.3420 C   0  0  0  0  0  0  0  0  0  0  0  0
  -11.3560  -14.7840   -8.5010 C   0  0  0  0  0  0  0  0  0  0  0  0
  -12.1100  -14.8860   -7.3690 F   0  0  0  0  0  0  0  0  0  0  0  0
  -12.1010  -15.3770   -9.4820 F   0  0  0  0  0  0  0  0  0  0  0  0
  -11.3300  -13.4600   -8.8140 F   0  0  0  0  0  0  0  0  0  0  0  0
   -9.9450  -15.5880  -11.7490 C   0  0  0  0  0  0  0  0  0  0  0  0
  -10.3980  -14.7740  -12.9670 C   0  0  0  0  0  0  0  0  0  0  0  0
  -10.0139  -12.0571  -14.4442 H   0  0  0  0  0  0  0  0  0  0  0  0
   -8.6796  -12.9922  -15.2005 H   0  0  0  0  0  0  0  0  0  0  0  0
  -10.3507  -13.6512  -15.2005 H   0  0  0  0  0  0  0  0  0  0  0  0
   -8.4540  -14.2450  -13.4110 H   0  0  0  0  0  0  0  0  0  0  0  0
   -8.2613  -12.1553  -12.3988 H   0  0  0  0  0  0  0  0  0  0  0  0
  -10.0566  -12.1271  -12.1382 H   0  0  0  0  0  0  0  0  0  0  0  0
   -8.5845  -12.8665  -10.0362 H   0  0  0  0  0  0  0  0  0  0  0  0
   -7.0362  -15.9516  -10.0021 H   0  0  0  0  0  0  0  0  0  0  0  0
   -6.4808  -17.0668   -7.8455 H   0  0  0  0  0  0  0  0  0  0  0  0
   -8.1612  -17.1351   -6.0072 H   0  0  0  0  0  0  0  0  0  0  0  0
  -10.3941  -16.0824   -6.3182 H   0  0  0  0  0  0  0  0  0  0  0  0
   -9.2117  -16.3380  -12.0804 H   0  0  0  0  0  0  0  0  0  0  0  0
  -10.8393  -16.0569  -11.3126 H   0  0  0  0  0  0  0  0  0  0  0  0
  -10.5465  -15.4500  -13.8220 H   0  0  0  0  0  0  0  0  0  0  0  0
  -11.3416  -14.2616  -12.7280 H   0  0  0  0  0  0  0  0  0  0  0  0
  1  2  1  0
  2  3  1  0
  3  4  1  0
  4  5  2  0
  5  6  1  0
  6  7  2  0
  7  8  1  0
  8  9  2  0
  9 10  1  0
 10 11  2  0
 11 12  1  0
 12 13  1  0
 12 14  1  0
 12 15  1  0
  5 16  1  0
 16 17  1  0
 17  2  1  0
 11  6  1  0
  1 18  1  0
  1 19  1  0
  1 20  1  0
  2 21  1  0
  3 22  1  0
  3 23  1  0
  4 24  1  0
  7 25  1  0
  8 26  1  0
  9 27  1  0
 10 28  1  0
 16 29  1  0
 16 30  1  0
 17 31  1  0
 17 32  1  0
M  CHG  1   2   1
M  END
>  <meeko>  (4) 
{"is_sidechain": [false], "free_energy": -6.153, "intermolecular_energy": -6.82, "internal_energy": -0.454}

$$$$
LIB_PIBQWNKYAGXQHF__M_PUB_ALL__e8__s20260927
     RDKit          3D

 32 33  0  0  0  0  0  0  0  0999 V2000
   21.1120   -3.9070   10.4230 C   0  0  0  0  0  0  0  0  0  0  0  0
   20.0750   -4.9000   10.8430 N   0  0  0  0  0  0  0  0  0  0  0  0
   20.0680   -6.1270    9.9660 C   0  0  0  0  0  0  0  0  0  0  0  0
   19.0990   -7.1510   10.4530 C   0  0  0  0  0  0  0  0  0  0  0  0
   18.5660   -7.1310   11.6860 C   0  0  0  0  0  0  0  0  0  0  0  0
   17.5440   -8.1190   12.0710 C   0  0  0  0  0  0  0  0  0  0  0  0
   17.9720   -9.3700   12.5410 C   0  0  0  0  0  0  0  0  0  0  0  0
   17.0450  -10.3440   12.9120 C   0  0  0  0  0  0  0  0  0  0  0  0
   15.6820  -10.0810   12.8120 C   0  0  0  0  0  0  0  0  0  0  0  0
   15.2430   -8.8430   12.3440 C   0  0  0  0  0  0  0  0  0  0  0  0
   16.1630   -7.8450   11.9710 C   0  0  0  0  0  0  0  0  0  0  0  0
   15.6510   -6.5200   11.4590 C   0  0  0  0  0  0  0  0  0  0  0  0
   14.3280   -6.5630   11.1310 F   0  0  0  0  0  0  0  0  0  0  0  0
   16.2880   -6.1040   10.3220 F   0  0  0  0  0  0  0  0  0  0  0  0
   15.7820   -5.4950   12.3450 F   0  0  0  0  0  0  0  0  0  0  0  0
   18.9600   -6.1070   12.7220 C   0  0  0  0  0  0  0  0  0  0  0  0
   20.1810   -5.2780   12.3040 C   0  0  0  0  0  0  0  0  0  0  0  0
   21.5765   -3.4622   11.3154 H   0  0  0  0  0  0  0  0  0  0  0  0
   21.8822   -4.4130    9.8224 H   0  0  0  0  0  0  0  0  0  0  0  0
   20.6399   -3.1156    9.8224 H   0  0  0  0  0  0  0  0  0  0  0  0
   19.1540   -4.4570   10.7150 H   0  0  0  0  0  0  0  0  0  0  0  0
   19.7902   -5.8320    8.9433 H   0  0  0  0  0  0  0  0  0  0  0  0
   21.0745   -6.5701    9.9903 H   0  0  0  0  0  0  0  0  0  0  0  0
   18.8067   -7.9618    9.7695 H   0  0  0  0  0  0  0  0  0  0  0  0
   19.0482   -9.5845   12.6175 H   0  0  0  0  0  0  0  0  0  0  0  0
   17.3912  -11.3198   13.2835 H   0  0  0  0  0  0  0  0  0  0  0  0
   14.9509  -10.8499   13.1022 H   0  0  0  0  0  0  0  0  0  0  0  0
   14.1641   -8.6437   12.2653 H   0  0  0  0  0  0  0  0  0  0  0  0
   18.1114   -5.4260   12.8835 H   0  0  0  0  0  0  0  0  0  0  0  0
   19.2274   -6.6507   13.6401 H   0  0  0  0  0  0  0  0  0  0  0  0
   20.2268   -4.3639   12.9142 H   0  0  0  0  0  0  0  0  0  0  0  0
   21.0921   -5.8751   12.4570 H   0  0  0  0  0  0  0  0  0  0  0  0
  1  2  1  0
  2  3  1  0
  3  4  1  0
  4  5  2  0
  5  6  1  0
  6  7  2  0
  7  8  1  0
  8  9  2  0
  9 10  1  0
 10 11  2  0
 11 12  1  0
 12 13  1  0
 12 14  1  0
 12 15  1  0
  5 16  1  0
 16 17  1  0
 17  2  1  0
 11  6  1  0
  1 18  1  0
  1 19  1  0
  1 20  1  0
  2 21  1  0
  3 22  1  0
  3 23  1  0
  4 24  1  0
  7 25  1  0
  8 26  1  0
  9 27  1  0
 10 28  1  0
 16 29  1  0
 16 30  1  0
 17 31  1  0
 17 32  1  0
M  CHG  1   2   1
M  END
>  <meeko>  (5) 
{"is_sidechain": [false], "free_energy": -6.131, "intermolecular_energy": -6.906, "internal_energy": -0.343}

$$$$
LIB_PIBQWNKYAGXQHF__M_PUB_ALL__e8__s20260927
     RDKit          3D

 32 33  0  0  0  0  0  0  0  0999 V2000
  -11.2400  -18.2550   11.3370 C   0  0  0  0  0  0  0  0  0  0  0  0
  -10.3880  -17.4680   10.3920 N   0  0  0  0  0  0  0  0  0  0  0  0
   -9.2340  -18.2750    9.8540 C   0  0  0  0  0  0  0  0  0  0  0  0
   -8.4490  -17.5130    8.8390 C   0  0  0  0  0  0  0  0  0  0  0  0
   -8.9090  -16.4020    8.2380 C   0  0  0  0  0  0  0  0  0  0  0  0
   -8.0460  -15.6460    7.3160 C   0  0  0  0  0  0  0  0  0  0  0  0
   -7.2120  -14.6510    7.8490 C   0  0  0  0  0  0  0  0  0  0  0  0
   -6.3810  -13.9010    7.0170 C   0  0  0  0  0  0  0  0  0  0  0  0
   -6.3760  -14.1330    5.6450 C   0  0  0  0  0  0  0  0  0  0  0  0
   -7.2010  -15.1180    5.1020 C   0  0  0  0  0  0  0  0  0  0  0  0
   -8.0420  -15.8890    5.9250 C   0  0  0  0  0  0  0  0  0  0  0  0
   -8.9300  -16.9400    5.3000 C   0  0  0  0  0  0  0  0  0  0  0  0
   -8.7820  -17.0100    3.9460 F   0  0  0  0  0  0  0  0  0  0  0  0
  -10.2610  -16.7030    5.5030 F   0  0  0  0  0  0  0  0  0  0  0  0
   -8.7090  -18.1990    5.7660 F   0  0  0  0  0  0  0  0  0  0  0  0
  -10.2970  -15.8650    8.4820 C   0  0  0  0  0  0  0  0  0  0  0  0
  -11.1820  -16.8400    9.2690 C   0  0  0  0  0  0  0  0  0  0  0  0
  -10.9676  -18.0034   12.3726 H   0  0  0  0  0  0  0  0  0  0  0  0
  -12.2988  -18.0104   11.1666 H   0  0  0  0  0  0  0  0  0  0  0  0
  -11.0800  -19.3299   11.1666 H   0  0  0  0  0  0  0  0  0  0  0  0
   -9.9660  -16.6960   10.9280 H   0  0  0  0  0  0  0  0  0  0  0  0
   -8.5696  -18.5456   10.6879 H   0  0  0  0  0  0  0  0  0  0  0  0
   -9.6428  -19.1722    9.3663 H   0  0  0  0  0  0  0  0  0  0  0  0
   -7.4467  -17.8776    8.5699 H   0  0  0  0  0  0  0  0  0  0  0  0
   -7.2137  -14.4610    8.9325 H   0  0  0  0  0  0  0  0  0  0  0  0
   -5.7291  -13.1256    7.4457 H   0  0  0  0  0  0  0  0  0  0  0  0
   -5.7218  -13.5400    4.9890 H   0  0  0  0  0  0  0  0  0  0  0  0
   -7.1939  -15.2942    4.0162 H   0  0  0  0  0  0  0  0  0  0  0  0
  -10.2159  -14.9268    9.0505 H   0  0  0  0  0  0  0  0  0  0  0  0
  -10.7686  -15.7081    7.5007 H   0  0  0  0  0  0  0  0  0  0  0  0
  -12.0397  -16.2948    9.6899 H   0  0  0  0  0  0  0  0  0  0  0  0
  -11.5381  -17.6309    8.5925 H   0  0  0  0  0  0  0  0  0  0  0  0
  1  2  1  0
  2  3  1  0
  3  4  1  0
  4  5  2  0
  5  6  1  0
  6  7  2  0
  7  8  1  0
  8  9  2  0
  9 10  1  0
 10 11  2  0
 11 12  1  0
 12 13  1  0
 12 14  1  0
 12 15  1  0
  5 16  1  0
 16 17  1  0
 17  2  1  0
 11  6  1  0
  1 18  1  0
  1 19  1  0
  1 20  1  0
  2 21  1  0
  3 22  1  0
  3 23  1  0
  4 24  1  0
  7 25  1  0
  8 26  1  0
  9 27  1  0
 10 28  1  0
 16 29  1  0
 16 30  1  0
 17 31  1  0
 17 32  1  0
M  CHG  1   2   1
M  END
>  <meeko>  (6) 
{"is_sidechain": [false], "free_energy": -6.105, "intermolecular_energy": -6.764, "internal_energy": -0.456}

$$$$
LIB_PIBQWNKYAGXQHF__M_PUB_ALL__e8__s20260927
     RDKit          3D

 32 33  0  0  0  0  0  0  0  0999 V2000
    1.7140  -14.8510    4.1830 C   0  0  0  0  0  0  0  0  0  0  0  0
    0.7130  -14.0470    3.4140 N   0  0  0  0  0  0  0  0  0  0  0  0
    1.0060  -14.0310    1.9350 C   0  0  0  0  0  0  0  0  0  0  0  0
   -0.0510  -13.3100    1.1680 C   0  0  0  0  0  0  0  0  0  0  0  0
   -1.2610  -13.0220    1.6770 C   0  0  0  0  0  0  0  0  0  0  0  0
   -2.2250  -12.2260    0.8990 C   0  0  0  0  0  0  0  0  0  0  0  0
   -3.1570  -12.9050    0.1000 C   0  0  0  0  0  0  0  0  0  0  0  0
   -4.0870  -12.1980   -0.6630 C   0  0  0  0  0  0  0  0  0  0  0  0
   -4.0930  -10.8070   -0.6390 C   0  0  0  0  0  0  0  0  0  0  0  0
   -3.1700  -10.1190    0.1500 C   0  0  0  0  0  0  0  0  0  0  0  0
   -2.2290  -10.8140    0.9310 C   0  0  0  0  0  0  0  0  0  0  0  0
   -1.2380  -10.0360    1.7640 C   0  0  0  0  0  0  0  0  0  0  0  0
   -1.4940   -8.6970    1.7640 F   0  0  0  0  0  0  0  0  0  0  0  0
    0.0480  -10.1550    1.3140 F   0  0  0  0  0  0  0  0  0  0  0  0
   -1.2010  -10.4090    3.0720 F   0  0  0  0  0  0  0  0  0  0  0  0
   -1.6890  -13.4710    3.0530 C   0  0  0  0  0  0  0  0  0  0  0  0
   -0.7140  -14.4750    3.6800 C   0  0  0  0  0  0  0  0  0  0  0  0
    1.5438  -14.7143    5.2611 H   0  0  0  0  0  0  0  0  0  0  0  0
    1.6046  -15.9151    3.9266 H   0  0  0  0  0  0  0  0  0  0  0  0
    2.7294  -14.5146    3.9266 H   0  0  0  0  0  0  0  0  0  0  0  0
    0.7960  -13.0700    3.7290 H   0  0  0  0  0  0  0  0  0  0  0  0
    1.9709  -13.5298    1.7687 H   0  0  0  0  0  0  0  0  0  0  0  0
    1.0348  -15.0721    1.5811 H   0  0  0  0  0  0  0  0  0  0  0  0
    0.1706  -12.9992    0.1364 H   0  0  0  0  0  0  0  0  0  0  0  0
   -3.1546  -14.0047    0.0748 H   0  0  0  0  0  0  0  0  0  0  0  0
   -4.8155  -12.7405   -1.2835 H   0  0  0  0  0  0  0  0  0  0  0  0
   -4.8251  -10.2496   -1.2418 H   0  0  0  0  0  0  0  0  0  0  0  0
   -3.1785   -9.0191    0.1612 H   0  0  0  0  0  0  0  0  0  0  0  0
   -1.7535  -12.5885    3.7065 H   0  0  0  0  0  0  0  0  0  0  0  0
   -2.6618  -13.9740    2.9498 H   0  0  0  0  0  0  0  0  0  0  0  0
   -0.8846  -14.5188    4.7658 H   0  0  0  0  0  0  0  0  0  0  0  0
   -0.8820  -15.4670    3.2353 H   0  0  0  0  0  0  0  0  0  0  0  0
  1  2  1  0
  2  3  1  0
  3  4  1  0
  4  5  2  0
  5  6  1  0
  6  7  2  0
  7  8  1  0
  8  9  2  0
  9 10  1  0
 10 11  2  0
 11 12  1  0
 12 13  1  0
 12 14  1  0
 12 15  1  0
  5 16  1  0
 16 17  1  0
 17  2  1  0
 11  6  1  0
  1 18  1  0
  1 19  1  0
  1 20  1  0
  2 21  1  0
  3 22  1  0
  3 23  1  0
  4 24  1  0
  7 25  1  0
  8 26  1  0
  9 27  1  0
 10 28  1  0
 16 29  1  0
 16 30  1  0
 17 31  1  0
 17 32  1  0
M  CHG  1   2   1
M  END
>  <meeko>  (7) 
{"is_sidechain": [false], "free_energy": -5.823, "intermolecular_energy": -6.489, "internal_energy": -0.417}

$$$$
LIB_PIBQWNKYAGXQHF__M_PUB_ALL__e8__s20260927
     RDKit          3D

 32 33  0  0  0  0  0  0  0  0999 V2000
   -9.6090  -16.9410    8.1730 C   0  0  0  0  0  0  0  0  0  0  0  0
   -8.5280  -16.4880    7.2430 N   0  0  0  0  0  0  0  0  0  0  0  0
   -8.9890  -16.4400    5.8080 C   0  0  0  0  0  0  0  0  0  0  0  0
   -7.9360  -15.8950    4.9040 C   0  0  0  0  0  0  0  0  0  0  0  0
   -6.8620  -15.2200    5.3510 C   0  0  0  0  0  0  0  0  0  0  0  0
   -5.8120  -14.7900    4.4120 C   0  0  0  0  0  0  0  0  0  0  0  0
   -5.9820  -13.5730    3.7360 C   0  0  0  0  0  0  0  0  0  0  0  0
   -5.0200  -13.1230    2.8300 C   0  0  0  0  0  0  0  0  0  0  0  0
   -3.8820  -13.8850    2.5890 C   0  0  0  0  0  0  0  0  0  0  0  0
   -3.7010  -15.0980    3.2540 C   0  0  0  0  0  0  0  0  0  0  0  0
   -4.6560  -15.5660    4.1750 C   0  0  0  0  0  0  0  0  0  0  0  0
   -4.4320  -16.8890    4.8690 C   0  0  0  0  0  0  0  0  0  0  0  0
   -4.3080  -16.7550    6.2200 F   0  0  0  0  0  0  0  0  0  0  0  0
   -3.2870  -17.5160    4.4640 F   0  0  0  0  0  0  0  0  0  0  0  0
   -5.4310  -17.7920    4.6730 F   0  0  0  0  0  0  0  0  0  0  0  0
   -6.6640  -14.8860    6.8090 C   0  0  0  0  0  0  0  0  0  0  0  0
   -7.9080  -15.1720    7.6580 C   0  0  0  0  0  0  0  0  0  0  0  0
   -9.2794  -16.8029    9.2133 H   0  0  0  0  0  0  0  0  0  0  0  0
  -10.5183  -16.3482    7.9947 H   0  0  0  0  0  0  0  0  0  0  0  0
   -9.8241  -18.0049    7.9947 H   0  0  0  0  0  0  0  0  0  0  0  0
   -7.7790  -17.1940    7.2750 H   0  0  0  0  0  0  0  0  0  0  0  0
   -9.2448  -17.4591    5.4823 H   0  0  0  0  0  0  0  0  0  0  0  0
   -9.8635  -15.7750    5.7528 H   0  0  0  0  0  0  0  0  0  0  0  0
   -8.0425  -16.0524    3.8205 H   0  0  0  0  0  0  0  0  0  0  0  0
   -6.8815  -12.9676    3.9214 H   0  0  0  0  0  0  0  0  0  0  0  0
   -5.1621  -12.1659    2.3068 H   0  0  0  0  0  0  0  0  0  0  0  0
   -3.1245  -13.5314    1.8740 H   0  0  0  0  0  0  0  0  0  0  0  0
   -2.7996  -15.6964    3.0556 H   0  0  0  0  0  0  0  0  0  0  0  0
   -5.8281  -15.4867    7.1968 H   0  0  0  0  0  0  0  0  0  0  0  0
   -6.4574  -13.8077    6.8768 H   0  0  0  0  0  0  0  0  0  0  0  0
   -7.6209  -15.2233    8.7186 H   0  0  0  0  0  0  0  0  0  0  0  0
   -8.6404  -14.3652    7.5076 H   0  0  0  0  0  0  0  0  0  0  0  0
  1  2  1  0
  2  3  1  0
  3  4  1  0
  4  5  2  0
  5  6  1  0
  6  7  2  0
  7  8  1  0
  8  9  2  0
  9 10  1  0
 10 11  2  0
 11 12  1  0
 12 13  1  0
 12 14  1  0
 12 15  1  0
  5 16  1  0
 16 17  1  0
 17  2  1  0
 11  6  1  0
  1 18  1  0
  1 19  1  0
  1 20  1  0
  2 21  1  0
  3 22  1  0
  3 23  1  0
  4 24  1  0
  7 25  1  0
  8 26  1  0
  9 27  1  0
 10 28  1  0
 16 29  1  0
 16 30  1  0
 17 31  1  0
 17 32  1  0
M  CHG  1   2   1
M  END
>  <meeko>  (8) 
{"is_sidechain": [false], "free_energy": -5.817, "intermolecular_energy": -6.493, "internal_energy": -0.406}

$$$$
LIB_PIBQWNKYAGXQHF__M_PUB_ALL__e8__s20260927
     RDKit          3D

 32 33  0  0  0  0  0  0  0  0999 V2000
   -2.5350  -17.7340    2.3870 C   0  0  0  0  0  0  0  0  0  0  0  0
   -2.5050  -16.2610    2.1260 N   0  0  0  0  0  0  0  0  0  0  0  0
   -3.4570  -15.5030    3.0150 C   0  0  0  0  0  0  0  0  0  0  0  0
   -3.3470  -14.0290    2.8160 C   0  0  0  0  0  0  0  0  0  0  0  0
   -2.3090  -13.4470    2.1910 C   0  0  0  0  0  0  0  0  0  0  0  0
   -2.3090  -11.9950    1.9450 C   0  0  0  0  0  0  0  0  0  0  0  0
   -1.6030  -11.1700    2.8340 C   0  0  0  0  0  0  0  0  0  0  0  0
   -1.5770   -9.7870    2.6510 C   0  0  0  0  0  0  0  0  0  0  0  0
   -2.2570   -9.2150    1.5810 C   0  0  0  0  0  0  0  0  0  0  0  0
   -2.9640  -10.0230    0.6900 C   0  0  0  0  0  0  0  0  0  0  0  0
   -2.9970  -11.4200    0.8550 C   0  0  0  0  0  0  0  0  0  0  0  0
   -3.7810  -12.2630   -0.1220 C   0  0  0  0  0  0  0  0  0  0  0  0
   -4.1690  -11.5590   -1.2250 F   0  0  0  0  0  0  0  0  0  0  0  0
   -4.9390  -12.7610    0.4100 F   0  0  0  0  0  0  0  0  0  0  0  0
   -3.1020  -13.3450   -0.5900 F   0  0  0  0  0  0  0  0  0  0  0  0
   -1.1180  -14.2310    1.6990 C   0  0  0  0  0  0  0  0  0  0  0  0
   -1.1110  -15.6790    2.2020 C   0  0  0  0  0  0  0  0  0  0  0  0
   -2.5387  -17.9141    3.4722 H   0  0  0  0  0  0  0  0  0  0  0  0
   -3.4422  -18.1671    1.9404 H   0  0  0  0  0  0  0  0  0  0  0  0
   -1.6462  -18.2037    1.9404 H   0  0  0  0  0  0  0  0  0  0  0  0
   -2.8390  -16.1120    1.1630 H   0  0  0  0  0  0  0  0  0  0  0  0
   -4.4857  -15.8174    2.7849 H   0  0  0  0  0  0  0  0  0  0  0  0
   -3.1994  -15.7267    4.0607 H   0  0  0  0  0  0  0  0  0  0  0  0
   -4.1541  -13.3873    3.1991 H   0  0  0  0  0  0  0  0  0  0  0  0
   -1.0653  -11.6177    3.6828 H   0  0  0  0  0  0  0  0  0  0  0  0
   -1.0190   -9.1494    3.3526 H   0  0  0  0  0  0  0  0  0  0  0  0
   -2.2374   -8.1246    1.4371 H   0  0  0  0  0  0  0  0  0  0  0  0
   -3.5021   -9.5624   -0.1516 H   0  0  0  0  0  0  0  0  0  0  0  0
   -1.1339  -14.2411    0.5992 H   0  0  0  0  0  0  0  0  0  0  0  0
   -0.2143  -13.7404    2.0896 H   0  0  0  0  0  0  0  0  0  0  0  0
   -0.4318  -16.2780    1.5776 H   0  0  0  0  0  0  0  0  0  0  0  0
   -0.7697  -15.6959    3.2476 H   0  0  0  0  0  0  0  0  0  0  0  0
  1  2  1  0
  2  3  1  0
  3  4  1  0
  4  5  2  0
  5  6  1  0
  6  7  2  0
  7  8  1  0
  8  9  2  0
  9 10  1  0
 10 11  2  0
 11 12  1  0
 12 13  1  0
 12 14  1  0
 12 15  1  0
  5 16  1  0
 16 17  1  0
 17  2  1  0
 11  6  1  0
  1 18  1  0
  1 19  1  0
  1 20  1  0
  2 21  1  0
  3 22  1  0
  3 23  1  0
  4 24  1  0
  7 25  1  0
  8 26  1  0
  9 27  1  0
 10 28  1  0
 16 29  1  0
 16 30  1  0
 17 31  1  0
 17 32  1  0
M  CHG  1   2   1
M  END
>  <meeko>  (9) 
{"is_sidechain": [false], "free_energy": -5.81, "intermolecular_energy": -6.505, "internal_energy": -0.386}

$$$$
