LIB_RPTCJTNYKDJGHU__M_PUB_ALL__e8__s20260927
     RDKit          3D

 57 58  0  0  0  0  0  0  0  0999 V2000
    0.6460  -10.7690   -0.4740 C   0  0  0  0  0  0  0  0  0  0  0  0
    0.9080  -11.6070    0.7640 C   0  0  0  0  0  0  0  0  0  0  0  0
    1.1090  -13.0780    0.4200 C   0  0  0  0  0  0  0  0  0  0  0  0
    0.2570  -13.8510    1.2750 O   0  0  0  0  0  0  0  0  0  0  0  0
   -0.8070  -14.4020    0.6450 C   0  0  0  0  0  0  0  0  0  0  0  0
   -0.9640  -14.5640   -0.5520 O   0  0  0  0  0  0  0  0  0  0  0  0
   -1.8000  -14.7690    1.6630 C   0  0  0  0  0  0  0  0  0  0  0  0
   -2.7040  -13.8010    2.1090 C   0  0  0  0  0  0  0  0  0  0  0  0
   -2.7070  -12.3930    1.6740 C   0  0  0  0  0  0  0  0  0  0  0  0
   -3.2020  -12.0090    0.4140 C   0  0  0  0  0  0  0  0  0  0  0  0
   -3.2050  -10.6680    0.0190 C   0  0  0  0  0  0  0  0  0  0  0  0
   -2.7040   -9.6890    0.8730 C   0  0  0  0  0  0  0  0  0  0  0  0
   -2.1970  -10.0550    2.1160 C   0  0  0  0  0  0  0  0  0  0  0  0
   -1.5730   -8.8460    3.1720 Cl  0  0  0  0  0  0  0  0  0  0  0  0
   -2.1920  -11.3910    2.5140 C   0  0  0  0  0  0  0  0  0  0  0  0
   -3.6860  -14.1010    3.0010 N   0  0  0  0  0  0  0  0  0  0  0  0
   -3.7690  -15.3650    3.4940 C   0  0  0  0  0  0  0  0  0  0  0  0
   -4.9070  -15.5920    4.4580 C   0  0  0  0  0  0  0  0  0  0  0  0
   -5.9670  -14.5050    4.3480 C   0  0  0  0  0  0  0  0  0  0  0  0
   -2.8610  -16.3630    3.1210 C   0  0  0  0  0  0  0  0  0  0  0  0
   -3.0040  -17.7160    3.6820 C   0  0  0  0  0  0  0  0  0  0  0  0
   -3.8070  -18.5080    3.2130 O   0  0  0  0  0  0  0  0  0  0  0  0
   -1.9450  -18.0850    5.0330 S   0  0  0  0  0  0  0  0  0  0  0  0
   -1.8160  -16.4240    5.7650 C   0  0  0  0  0  0  0  0  0  0  0  0
   -0.3720  -15.9250    5.8100 C   0  0  0  0  0  0  0  0  0  0  0  0
   -0.1690  -14.5710    5.1440 C   0  0  0  0  0  0  0  0  0  0  0  0
   -1.8560  -16.0830    2.1730 C   0  0  0  0  0  0  0  0  0  0  0  0
   -0.9170  -17.1600    1.6700 C   0  0  0  0  0  0  0  0  0  0  0  0
    0.4140  -17.1500    2.4080 C   0  0  0  0  0  0  0  0  0  0  0  0
    0.3303   -9.7592   -0.1731 H   0  0  0  0  0  0  0  0  0  0  0  0
    1.5661  -10.7022   -1.0731 H   0  0  0  0  0  0  0  0  0  0  0  0
   -0.1483  -11.2383   -1.0731 H   0  0  0  0  0  0  0  0  0  0  0  0
    1.8133  -11.2312    1.2632 H   0  0  0  0  0  0  0  0  0  0  0  0
    0.0308  -11.5269    1.4229 H   0  0  0  0  0  0  0  0  0  0  0  0
    0.8426  -13.2555   -0.6324 H   0  0  0  0  0  0  0  0  0  0  0  0
    2.1607  -13.3653    0.5660 H   0  0  0  0  0  0  0  0  0  0  0  0
   -3.5927  -12.7760   -0.2709 H   0  0  0  0  0  0  0  0  0  0  0  0
   -3.6033  -10.3861   -0.9669 H   0  0  0  0  0  0  0  0  0  0  0  0
   -2.7090   -8.6325    0.5668 H   0  0  0  0  0  0  0  0  0  0  0  0
   -1.7802  -11.6640    3.4968 H   0  0  0  0  0  0  0  0  0  0  0  0
   -5.3708  -16.5650    4.2385 H   0  0  0  0  0  0  0  0  0  0  0  0
   -4.4993  -15.5696    5.4794 H   0  0  0  0  0  0  0  0  0  0  0  0
   -6.2746  -14.1895    5.3559 H   0  0  0  0  0  0  0  0  0  0  0  0
   -5.5531  -13.6430    3.8043 H   0  0  0  0  0  0  0  0  0  0  0  0
   -6.8392  -14.8970    3.8043 H   0  0  0  0  0  0  0  0  0  0  0  0
   -2.4144  -15.7240    5.1634 H   0  0  0  0  0  0  0  0  0  0  0  0
   -2.1869  -16.4803    6.7991 H   0  0  0  0  0  0  0  0  0  0  0  0
   -0.0661  -15.8427    6.8634 H   0  0  0  0  0  0  0  0  0  0  0  0
    0.2357  -16.6516    5.2508 H   0  0  0  0  0  0  0  0  0  0  0  0
   -0.0528  -13.7963    5.9162 H   0  0  0  0  0  0  0  0  0  0  0  0
    0.7345  -14.6024    4.5173 H   0  0  0  0  0  0  0  0  0  0  0  0
   -1.0420  -14.3361    4.5173 H   0  0  0  0  0  0  0  0  0  0  0  0
   -1.3939  -18.1410    1.8121 H   0  0  0  0  0  0  0  0  0  0  0  0
   -0.7159  -16.9641    0.6064 H   0  0  0  0  0  0  0  0  0  0  0  0
    0.2318  -17.1514    3.4928 H   0  0  0  0  0  0  0  0  0  0  0  0
    0.9929  -18.0438    2.1323 H   0  0  0  0  0  0  0  0  0  0  0  0
    0.9794  -16.2476    2.1323 H   0  0  0  0  0  0  0  0  0  0  0  0
  1  2  1  0
  2  3  1  0
  3  4  1  0
  4  5  1  0
  5  6  2  0
  5  7  1  0
  7  8  2  0
  8  9  1  0
  9 10  2  0
 10 11  1  0
 11 12  2  0
 12 13  1  0
 13 14  1  0
 13 15  2  0
  8 16  1  0
 16 17  2  0
 17 18  1  0
 18 19  1  0
 17 20  1  0
 20 21  1  0
 21 22  2  0
 21 23  1  0
 23 24  1  0
 24 25  1  0
 25 26  1  0
 20 27  2  0
 27 28  1  0
 28 29  1  0
 27  7  1  0
 15  9  1  0
  1 30  1  0
  1 31  1  0
  1 32  1  0
  2 33  1  0
  2 34  1  0
  3 35  1  0
  3 36  1  0
 10 37  1  0
 11 38  1  0
 12 39  1  0
 15 40  1  0
 18 41  1  0
 18 42  1  0
 19 43  1  0
 19 44  1  0
 19 45  1  0
 24 46  1  0
 24 47  1  0
 25 48  1  0
 25 49  1  0
 26 50  1  0
 26 51  1  0
 26 52  1  0
 28 53  1  0
 28 54  1  0
 29 55  1  0
 29 56  1  0
 29 57  1  0
M  END
>  <meeko>  (1) 
{"is_sidechain": [false], "free_energy": -5.766, "intermolecular_energy": -9.474, "internal_energy": -2.289}

$$$$
LIB_RPTCJTNYKDJGHU__M_PUB_ALL__e8__s20260927
     RDKit          3D

 57 58  0  0  0  0  0  0  0  0999 V2000
    0.5700  -14.9900   -1.6460 C   0  0  0  0  0  0  0  0  0  0  0  0
   -0.8600  -15.4730   -1.4920 C   0  0  0  0  0  0  0  0  0  0  0  0
   -1.0980  -16.1160   -0.1310 C   0  0  0  0  0  0  0  0  0  0  0  0
   -2.1480  -15.3910    0.5220 O   0  0  0  0  0  0  0  0  0  0  0  0
   -1.7770  -14.8040    1.6830 C   0  0  0  0  0  0  0  0  0  0  0  0
   -0.6800  -14.3690    1.9820 O   0  0  0  0  0  0  0  0  0  0  0  0
   -2.9410  -14.7910    2.5790 C   0  0  0  0  0  0  0  0  0  0  0  0
   -3.8710  -13.7540    2.4680 C   0  0  0  0  0  0  0  0  0  0  0  0
   -3.7500  -12.6150    1.5410 C   0  0  0  0  0  0  0  0  0  0  0  0
   -4.4880  -12.5540    0.3440 C   0  0  0  0  0  0  0  0  0  0  0  0
   -4.3680  -11.4620   -0.5220 C   0  0  0  0  0  0  0  0  0  0  0  0
   -3.5010  -10.4170   -0.2090 C   0  0  0  0  0  0  0  0  0  0  0  0
   -2.7530  -10.4720    0.9630 C   0  0  0  0  0  0  0  0  0  0  0  0
   -1.6780   -9.1830    1.3490 Cl  0  0  0  0  0  0  0  0  0  0  0  0
   -2.8700  -11.5580    1.8290 C   0  0  0  0  0  0  0  0  0  0  0  0
   -5.0000  -13.7260    3.2260 N   0  0  0  0  0  0  0  0  0  0  0  0
   -5.2100  -14.7130    4.1380 C   0  0  0  0  0  0  0  0  0  0  0  0
   -6.5020  -14.5940    4.9080 C   0  0  0  0  0  0  0  0  0  0  0  0
   -6.3360  -13.7520    6.1650 C   0  0  0  0  0  0  0  0  0  0  0  0
   -4.2890  -15.7490    4.3280 C   0  0  0  0  0  0  0  0  0  0  0  0
   -4.5730  -16.7950    5.3240 C   0  0  0  0  0  0  0  0  0  0  0  0
   -5.4740  -17.6000    5.1480 O   0  0  0  0  0  0  0  0  0  0  0  0
   -3.5290  -16.7900    6.7350 S   0  0  0  0  0  0  0  0  0  0  0  0
   -4.7160  -16.1890    7.9760 C   0  0  0  0  0  0  0  0  0  0  0  0
   -4.0560  -15.2810    9.0130 C   0  0  0  0  0  0  0  0  0  0  0  0
   -5.0450  -14.5770    9.9330 C   0  0  0  0  0  0  0  0  0  0  0  0
   -3.1290  -15.8160    3.5290 C   0  0  0  0  0  0  0  0  0  0  0  0
   -2.1580  -16.9740    3.6370 C   0  0  0  0  0  0  0  0  0  0  0  0
   -2.5720  -18.1520    2.7660 C   0  0  0  0  0  0  0  0  0  0  0  0
    1.0153  -14.8396   -0.6515 H   0  0  0  0  0  0  0  0  0  0  0  0
    1.1531  -15.7410   -2.1991 H   0  0  0  0  0  0  0  0  0  0  0  0
    0.5783  -14.0392   -2.1991 H   0  0  0  0  0  0  0  0  0  0  0  0
   -1.5393  -14.6151   -1.6039 H   0  0  0  0  0  0  0  0  0  0  0  0
   -1.0493  -16.2316   -2.2658 H   0  0  0  0  0  0  0  0  0  0  0  0
   -1.3948  -17.1672   -0.2612 H   0  0  0  0  0  0  0  0  0  0  0  0
   -0.1790  -16.0857    0.4727 H   0  0  0  0  0  0  0  0  0  0  0  0
   -5.1696  -13.3777    0.0855 H   0  0  0  0  0  0  0  0  0  0  0  0
   -4.9579  -11.4282   -1.4498 H   0  0  0  0  0  0  0  0  0  0  0  0
   -3.4085   -9.5537   -0.8844 H   0  0  0  0  0  0  0  0  0  0  0  0
   -2.2666  -11.5879    2.7483 H   0  0  0  0  0  0  0  0  0  0  0  0
   -7.2591  -14.1247    4.2626 H   0  0  0  0  0  0  0  0  0  0  0  0
   -6.8128  -15.6044    5.2121 H   0  0  0  0  0  0  0  0  0  0  0  0
   -6.4617  -14.3895    7.0526 H   0  0  0  0  0  0  0  0  0  0  0  0
   -5.3320  -13.3027    6.1754 H   0  0  0  0  0  0  0  0  0  0  0  0
   -7.0944  -12.9553    6.1754 H   0  0  0  0  0  0  0  0  0  0  0  0
   -5.5087  -15.6241    7.4637 H   0  0  0  0  0  0  0  0  0  0  0  0
   -5.1249  -17.0632    8.5037 H   0  0  0  0  0  0  0  0  0  0  0  0
   -3.3826  -15.8929    9.6312 H   0  0  0  0  0  0  0  0  0  0  0  0
   -3.5214  -14.4964    8.4574 H   0  0  0  0  0  0  0  0  0  0  0  0
   -4.7728  -14.7708   10.9810 H   0  0  0  0  0  0  0  0  0  0  0  0
   -5.0174  -13.4942    9.7412 H   0  0  0  0  0  0  0  0  0  0  0  0
   -6.0591  -14.9576    9.7412 H   0  0  0  0  0  0  0  0  0  0  0  0
   -1.1615  -16.6320    3.3206 H   0  0  0  0  0  0  0  0  0  0  0  0
   -2.1502  -17.3129    4.6835 H   0  0  0  0  0  0  0  0  0  0  0  0
   -2.8684  -18.9955    3.4068 H   0  0  0  0  0  0  0  0  0  0  0  0
   -3.4207  -17.8580    2.1309 H   0  0  0  0  0  0  0  0  0  0  0  0
   -1.7260  -18.4536    2.1309 H   0  0  0  0  0  0  0  0  0  0  0  0
  1  2  1  0
  2  3  1  0
  3  4  1  0
  4  5  1  0
  5  6  2  0
  5  7  1  0
  7  8  2  0
  8  9  1  0
  9 10  2  0
 10 11  1  0
 11 12  2  0
 12 13  1  0
 13 14  1  0
 13 15  2  0
  8 16  1  0
 16 17  2  0
 17 18  1  0
 18 19  1  0
 17 20  1  0
 20 21  1  0
 21 22  2  0
 21 23  1  0
 23 24  1  0
 24 25  1  0
 25 26  1  0
 20 27  2  0
 27 28  1  0
 28 29  1  0
 27  7  1  0
 15  9  1  0
  1 30  1  0
  1 31  1  0
  1 32  1  0
  2 33  1  0
  2 34  1  0
  3 35  1  0
  3 36  1  0
 10 37  1  0
 11 38  1  0
 12 39  1  0
 15 40  1  0
 18 41  1  0
 18 42  1  0
 19 43  1  0
 19 44  1  0
 19 45  1  0
 24 46  1  0
 24 47  1  0
 25 48  1  0
 25 49  1  0
 26 50  1  0
 26 51  1  0
 26 52  1  0
 28 53  1  0
 28 54  1  0
 29 55  1  0
 29 56  1  0
 29 57  1  0
M  END
>  <meeko>  (2) 
{"is_sidechain": [false], "free_energy": -5.676, "intermolecular_energy": -10.482, "internal_energy": -1.133}

$$$$
LIB_RPTCJTNYKDJGHU__M_PUB_ALL__e8__s20260927
     RDKit          3D

 57 58  0  0  0  0  0  0  0  0999 V2000
   -3.8080  -12.7440    2.5940 C   0  0  0  0  0  0  0  0  0  0  0  0
   -3.4130  -13.7850    1.5630 C   0  0  0  0  0  0  0  0  0  0  0  0
   -2.2050  -14.5980    2.0120 C   0  0  0  0  0  0  0  0  0  0  0  0
   -1.1160  -14.2920    1.1320 O   0  0  0  0  0  0  0  0  0  0  0  0
   -0.1070  -13.6070    1.7170 C   0  0  0  0  0  0  0  0  0  0  0  0
    0.0680  -13.4040    2.9050 O   0  0  0  0  0  0  0  0  0  0  0  0
    0.7750  -13.1000    0.6570 C   0  0  0  0  0  0  0  0  0  0  0  0
    0.5400  -11.8260    0.1310 C   0  0  0  0  0  0  0  0  0  0  0  0
   -0.5810  -10.9520    0.5210 C   0  0  0  0  0  0  0  0  0  0  0  0
   -0.4680  -10.0350    1.5830 C   0  0  0  0  0  0  0  0  0  0  0  0
   -1.5380   -9.2070    1.9350 C   0  0  0  0  0  0  0  0  0  0  0  0
   -2.7410   -9.2880    1.2380 C   0  0  0  0  0  0  0  0  0  0  0  0
   -2.8720  -10.2010    0.1950 C   0  0  0  0  0  0  0  0  0  0  0  0
   -4.3600  -10.3040   -0.6650 Cl  0  0  0  0  0  0  0  0  0  0  0  0
   -1.8080  -11.0290   -0.1590 C   0  0  0  0  0  0  0  0  0  0  0  0
    1.3620  -11.2790   -0.8040 N   0  0  0  0  0  0  0  0  0  0  0  0
    2.4180  -12.0030   -1.2620 C   0  0  0  0  0  0  0  0  0  0  0  0
    3.2750  -11.2920   -2.2800 C   0  0  0  0  0  0  0  0  0  0  0  0
    2.4390  -10.4520   -3.2350 C   0  0  0  0  0  0  0  0  0  0  0  0
    2.6740  -13.3010   -0.8080 C   0  0  0  0  0  0  0  0  0  0  0  0
    3.8380  -14.0350   -1.3330 C   0  0  0  0  0  0  0  0  0  0  0  0
    4.9620  -13.8130   -0.9100 O   0  0  0  0  0  0  0  0  0  0  0  0
    3.4780  -15.2250   -2.5710 S   0  0  0  0  0  0  0  0  0  0  0  0
    3.9980  -14.2870   -4.0400 C   0  0  0  0  0  0  0  0  0  0  0  0
    2.8080  -13.8220   -4.8790 C   0  0  0  0  0  0  0  0  0  0  0  0
    1.4550  -14.1300   -4.2510 C   0  0  0  0  0  0  0  0  0  0  0  0
    1.8550  -13.8750    0.1870 C   0  0  0  0  0  0  0  0  0  0  0  0
    2.1570  -15.2380    0.7740 C   0  0  0  0  0  0  0  0  0  0  0  0
    3.0560  -15.1480    1.9990 C   0  0  0  0  0  0  0  0  0  0  0  0
   -3.6535  -13.1513    3.6041 H   0  0  0  0  0  0  0  0  0  0  0  0
   -3.1887  -11.8444    2.4626 H   0  0  0  0  0  0  0  0  0  0  0  0
   -4.8682  -12.4817    2.4626 H   0  0  0  0  0  0  0  0  0  0  0  0
   -4.2612  -14.4669    1.4028 H   0  0  0  0  0  0  0  0  0  0  0  0
   -3.1454  -13.2607    0.6337 H   0  0  0  0  0  0  0  0  0  0  0  0
   -1.9374  -14.3303    3.0448 H   0  0  0  0  0  0  0  0  0  0  0  0
   -2.4334  -15.6735    1.9792 H   0  0  0  0  0  0  0  0  0  0  0  0
    0.4759   -9.9690    2.1440 H   0  0  0  0  0  0  0  0  0  0  0  0
   -1.4297   -8.4910    2.7630 H   0  0  0  0  0  0  0  0  0  0  0  0
   -3.5829   -8.6344    1.5100 H   0  0  0  0  0  0  0  0  0  0  0  0
   -1.9304  -11.7508   -0.9800 H   0  0  0  0  0  0  0  0  0  0  0  0
    3.9821  -10.6344   -1.7531 H   0  0  0  0  0  0  0  0  0  0  0  0
    3.8070  -12.0527   -2.8701 H   0  0  0  0  0  0  0  0  0  0  0  0
    1.7786   -9.7884   -2.6575 H   0  0  0  0  0  0  0  0  0  0  0  0
    3.1037   -9.8467   -3.8688 H   0  0  0  0  0  0  0  0  0  0  0  0
    1.8305  -11.1138   -3.8688 H   0  0  0  0  0  0  0  0  0  0  0  0
    4.5677  -13.4045   -3.7135 H   0  0  0  0  0  0  0  0  0  0  0  0
    4.6127  -14.9515   -4.6649 H   0  0  0  0  0  0  0  0  0  0  0  0
    2.8860  -12.7336   -5.0182 H   0  0  0  0  0  0  0  0  0  0  0  0
    2.8523  -14.3725   -5.8303 H   0  0  0  0  0  0  0  0  0  0  0  0
    1.5462  -14.1092   -3.1550 H   0  0  0  0  0  0  0  0  0  0  0  0
    0.7215  -13.3759   -4.5722 H   0  0  0  0  0  0  0  0  0  0  0  0
    1.1202  -15.1273   -4.5722 H   0  0  0  0  0  0  0  0  0  0  0  0
    1.2101  -15.7171    1.0635 H   0  0  0  0  0  0  0  0  0  0  0  0
    2.6849  -15.8265    0.0092 H   0  0  0  0  0  0  0  0  0  0  0  0
    2.4421  -15.2095    2.9097 H   0  0  0  0  0  0  0  0  0  0  0  0
    3.7773  -15.9784    1.9863 H   0  0  0  0  0  0  0  0  0  0  0  0
    3.5983  -14.1911    1.9863 H   0  0  0  0  0  0  0  0  0  0  0  0
  1  2  1  0
  2  3  1  0
  3  4  1  0
  4  5  1  0
  5  6  2  0
  5  7  1  0
  7  8  2  0
  8  9  1  0
  9 10  2  0
 10 11  1  0
 11 12  2  0
 12 13  1  0
 13 14  1  0
 13 15  2  0
  8 16  1  0
 16 17  2  0
 17 18  1  0
 18 19  1  0
 17 20  1  0
 20 21  1  0
 21 22  2  0
 21 23  1  0
 23 24  1  0
 24 25  1  0
 25 26  1  0
 20 27  2  0
 27 28  1  0
 28 29  1  0
 27  7  1  0
 15  9  1  0
  1 30  1  0
  1 31  1  0
  1 32  1  0
  2 33  1  0
  2 34  1  0
  3 35  1  0
  3 36  1  0
 10 37  1  0
 11 38  1  0
 12 39  1  0
 15 40  1  0
 18 41  1  0
 18 42  1  0
 19 43  1  0
 19 44  1  0
 19 45  1  0
 24 46  1  0
 24 47  1  0
 25 48  1  0
 25 49  1  0
 26 50  1  0
 26 51  1  0
 26 52  1  0
 28 53  1  0
 28 54  1  0
 29 55  1  0
 29 56  1  0
 29 57  1  0
M  END
>  <meeko>  (3) 
{"is_sidechain": [false], "free_energy": -5.655, "intermolecular_energy": -9.178, "internal_energy": -2.402}

$$$$
LIB_RPTCJTNYKDJGHU__M_PUB_ALL__e8__s20260927
     RDKit          3D

 57 58  0  0  0  0  0  0  0  0999 V2000
   -8.1860  -16.3870   -6.6180 C   0  0  0  0  0  0  0  0  0  0  0  0
   -7.4240  -16.6990   -7.8930 C   0  0  0  0  0  0  0  0  0  0  0  0
   -8.1640  -16.2060   -9.1300 C   0  0  0  0  0  0  0  0  0  0  0  0
   -9.5200  -15.9340   -8.7540 O   0  0  0  0  0  0  0  0  0  0  0  0
  -10.3250  -15.5990   -9.7890 C   0  0  0  0  0  0  0  0  0  0  0  0
  -10.6280  -16.2820  -10.7500 O   0  0  0  0  0  0  0  0  0  0  0  0
  -10.7800  -14.2180   -9.5840 C   0  0  0  0  0  0  0  0  0  0  0  0
  -11.7910  -13.9680   -8.6510 C   0  0  0  0  0  0  0  0  0  0  0  0
  -12.4940  -15.0070   -7.8780 C   0  0  0  0  0  0  0  0  0  0  0  0
  -12.0850  -15.3670   -6.5800 C   0  0  0  0  0  0  0  0  0  0  0  0
  -12.7680  -16.3500   -5.8570 C   0  0  0  0  0  0  0  0  0  0  0  0
  -13.8650  -16.9950   -6.4220 C   0  0  0  0  0  0  0  0  0  0  0  0
  -14.2710  -16.6610   -7.7110 C   0  0  0  0  0  0  0  0  0  0  0  0
  -15.6240  -17.4610   -8.4130 Cl  0  0  0  0  0  0  0  0  0  0  0  0
  -13.5930  -15.6820   -8.4360 C   0  0  0  0  0  0  0  0  0  0  0  0
  -12.2060  -12.7030   -8.3730 N   0  0  0  0  0  0  0  0  0  0  0  0
  -11.6470  -11.6600   -9.0430 C   0  0  0  0  0  0  0  0  0  0  0  0
  -12.1660  -10.3020   -8.6400 C   0  0  0  0  0  0  0  0  0  0  0  0
  -12.5780  -10.2650   -7.1760 C   0  0  0  0  0  0  0  0  0  0  0  0
  -10.6660  -11.8540  -10.0220 C   0  0  0  0  0  0  0  0  0  0  0  0
  -10.0910  -10.6860  -10.7100 C   0  0  0  0  0  0  0  0  0  0  0  0
   -9.0460  -10.1850  -10.3260 O   0  0  0  0  0  0  0  0  0  0  0  0
  -11.0030  -10.1050  -12.0920 S   0  0  0  0  0  0  0  0  0  0  0  0
  -10.2780   -8.4430  -12.2440 C   0  0  0  0  0  0  0  0  0  0  0  0
   -9.1750   -8.3900  -13.3010 C   0  0  0  0  0  0  0  0  0  0  0  0
   -7.8330   -7.9080  -12.7650 C   0  0  0  0  0  0  0  0  0  0  0  0
  -10.1970  -13.1540  -10.3030 C   0  0  0  0  0  0  0  0  0  0  0  0
   -9.0690  -13.3950  -11.2840 C   0  0  0  0  0  0  0  0  0  0  0  0
   -9.5760  -13.5710  -12.7090 C   0  0  0  0  0  0  0  0  0  0  0  0
   -7.5638  -16.6417   -5.7474 H   0  0  0  0  0  0  0  0  0  0  0  0
   -8.4329  -15.3154   -6.5913 H   0  0  0  0  0  0  0  0  0  0  0  0
   -9.1135  -16.9777   -6.5913 H   0  0  0  0  0  0  0  0  0  0  0  0
   -6.4399  -16.2096   -7.8483 H   0  0  0  0  0  0  0  0  0  0  0  0
   -7.3196  -17.7913   -7.9700 H   0  0  0  0  0  0  0  0  0  0  0  0
   -7.6898  -15.2882   -9.5079 H   0  0  0  0  0  0  0  0  0  0  0  0
   -8.1321  -16.9669   -9.9237 H   0  0  0  0  0  0  0  0  0  0  0  0
  -11.2154  -14.8677   -6.1278 H   0  0  0  0  0  0  0  0  0  0  0  0
  -12.4384  -16.6138   -4.8413 H   0  0  0  0  0  0  0  0  0  0  0  0
  -14.4078  -17.7642   -5.8530 H   0  0  0  0  0  0  0  0  0  0  0  0
  -13.9220  -15.4352   -9.4562 H   0  0  0  0  0  0  0  0  0  0  0  0
  -11.3756   -9.5553   -8.8062 H   0  0  0  0  0  0  0  0  0  0  0  0
  -13.0541  -10.0810   -9.2503 H   0  0  0  0  0  0  0  0  0  0  0  0
  -11.6833  -10.3454   -6.5412 H   0  0  0  0  0  0  0  0  0  0  0  0
  -13.0940   -9.3169   -6.9641 H   0  0  0  0  0  0  0  0  0  0  0  0
  -13.2546  -11.1060   -6.9641 H   0  0  0  0  0  0  0  0  0  0  0  0
  -11.0714   -7.7344  -12.5238 H   0  0  0  0  0  0  0  0  0  0  0  0
   -9.8303   -8.1793  -11.2744 H   0  0  0  0  0  0  0  0  0  0  0  0
   -9.0409   -9.4009  -13.7135 H   0  0  0  0  0  0  0  0  0  0  0  0
   -9.4955   -7.6639  -14.0626 H   0  0  0  0  0  0  0  0  0  0  0  0
   -7.8534   -7.9153  -11.6652 H   0  0  0  0  0  0  0  0  0  0  0  0
   -7.0347   -8.5756  -13.1214 H   0  0  0  0  0  0  0  0  0  0  0  0
   -7.6419   -6.8850  -13.1214 H   0  0  0  0  0  0  0  0  0  0  0  0
   -8.3841  -12.5347  -11.2551 H   0  0  0  0  0  0  0  0  0  0  0  0
   -8.5572  -14.3232  -10.9898 H   0  0  0  0  0  0  0  0  0  0  0  0
  -10.6150  -13.9317  -12.6866 H   0  0  0  0  0  0  0  0  0  0  0  0
   -9.5342  -12.6058  -13.2349 H   0  0  0  0  0  0  0  0  0  0  0  0
   -8.9451  -14.3027  -13.2349 H   0  0  0  0  0  0  0  0  0  0  0  0
  1  2  1  0
  2  3  1  0
  3  4  1  0
  4  5  1  0
  5  6  2  0
  5  7  1  0
  7  8  2  0
  8  9  1  0
  9 10  2  0
 10 11  1  0
 11 12  2  0
 12 13  1  0
 13 14  1  0
 13 15  2  0
  8 16  1  0
 16 17  2  0
 17 18  1  0
 18 19  1  0
 17 20  1  0
 20 21  1  0
 21 22  2  0
 21 23  1  0
 23 24  1  0
 24 25  1  0
 25 26  1  0
 20 27  2  0
 27 28  1  0
 28 29  1  0
 27  7  1  0
 15  9  1  0
  1 30  1  0
  1 31  1  0
  1 32  1  0
  2 33  1  0
  2 34  1  0
  3 35  1  0
  3 36  1  0
 10 37  1  0
 11 38  1  0
 12 39  1  0
 15 40  1  0
 18 41  1  0
 18 42  1  0
 19 43  1  0
 19 44  1  0
 19 45  1  0
 24 46  1  0
 24 47  1  0
 25 48  1  0
 25 49  1  0
 26 50  1  0
 26 51  1  0
 26 52  1  0
 28 53  1  0
 28 54  1  0
 29 55  1  0
 29 56  1  0
 29 57  1  0
M  END
>  <meeko>  (4) 
{"is_sidechain": [false], "free_energy": -5.527, "intermolecular_energy": -9.992, "internal_energy": -1.377}

$$$$
LIB_RPTCJTNYKDJGHU__M_PUB_ALL__e8__s20260927
     RDKit          3D

 57 58  0  0  0  0  0  0  0  0999 V2000
   -6.1570  -14.1520    4.3050 C   0  0  0  0  0  0  0  0  0  0  0  0
   -6.0430  -13.3250    3.0380 C   0  0  0  0  0  0  0  0  0  0  0  0
   -4.6050  -12.9010    2.7650 C   0  0  0  0  0  0  0  0  0  0  0  0
   -3.8300  -14.0860    2.5460 O   0  0  0  0  0  0  0  0  0  0  0  0
   -3.2360  -14.1430    1.3320 C   0  0  0  0  0  0  0  0  0  0  0  0
   -3.7570  -14.0070    0.2400 O   0  0  0  0  0  0  0  0  0  0  0  0
   -1.8100  -14.4290    1.5340 C   0  0  0  0  0  0  0  0  0  0  0  0
   -0.9320  -13.3690    1.7770 C   0  0  0  0  0  0  0  0  0  0  0  0
   -1.3200  -11.9470    1.7920 C   0  0  0  0  0  0  0  0  0  0  0  0
   -1.7320  -11.2810    0.6220 C   0  0  0  0  0  0  0  0  0  0  0  0
   -2.1040   -9.9340    0.6530 C   0  0  0  0  0  0  0  0  0  0  0  0
   -2.0610   -9.2270    1.8530 C   0  0  0  0  0  0  0  0  0  0  0  0
   -1.6400   -9.8680    3.0140 C   0  0  0  0  0  0  0  0  0  0  0  0
   -1.5820   -8.9940    4.4970 Cl  0  0  0  0  0  0  0  0  0  0  0  0
   -1.2680  -11.2110    2.9870 C   0  0  0  0  0  0  0  0  0  0  0  0
    0.3860  -13.5800    2.0370 N   0  0  0  0  0  0  0  0  0  0  0  0
    0.8670  -14.8520    2.0260 C   0  0  0  0  0  0  0  0  0  0  0  0
    2.3360  -14.9730    2.3470 C   0  0  0  0  0  0  0  0  0  0  0  0
    3.2050  -14.7250    1.1230 C   0  0  0  0  0  0  0  0  0  0  0  0
    0.0460  -15.9490    1.7410 C   0  0  0  0  0  0  0  0  0  0  0  0
    0.6200  -17.3040    1.7510 C   0  0  0  0  0  0  0  0  0  0  0  0
    0.6330  -17.9710    2.7740 O   0  0  0  0  0  0  0  0  0  0  0  0
    1.2530  -17.8630    0.2120 S   0  0  0  0  0  0  0  0  0  0  0  0
    2.6310  -18.8860    0.8150 C   0  0  0  0  0  0  0  0  0  0  0  0
    3.8840  -18.7300   -0.0450 C   0  0  0  0  0  0  0  0  0  0  0  0
    5.1500  -19.2680    0.6090 C   0  0  0  0  0  0  0  0  0  0  0  0
   -1.3310  -15.7560    1.5020 C   0  0  0  0  0  0  0  0  0  0  0  0
   -2.2700  -16.9240    1.2870 C   0  0  0  0  0  0  0  0  0  0  0  0
   -2.8390  -17.4520    2.5970 C   0  0  0  0  0  0  0  0  0  0  0  0
   -6.0663  -13.4940    5.1818 H   0  0  0  0  0  0  0  0  0  0  0  0
   -7.1334  -14.6582    4.3259 H   0  0  0  0  0  0  0  0  0  0  0  0
   -5.3539  -14.9034    4.3259 H   0  0  0  0  0  0  0  0  0  0  0  0
   -6.4049  -13.9233    2.1888 H   0  0  0  0  0  0  0  0  0  0  0  0
   -6.6482  -12.4157    3.1682 H   0  0  0  0  0  0  0  0  0  0  0  0
   -4.5676  -12.2598    1.8720 H   0  0  0  0  0  0  0  0  0  0  0  0
   -4.2045  -12.3337    3.6181 H   0  0  0  0  0  0  0  0  0  0  0  0
   -1.7616  -11.8292   -0.3312 H   0  0  0  0  0  0  0  0  0  0  0  0
   -2.4306   -9.4321   -0.2697 H   0  0  0  0  0  0  0  0  0  0  0  0
   -2.3582   -8.1683    1.8823 H   0  0  0  0  0  0  0  0  0  0  0  0
   -0.9298  -11.7001    3.9124 H   0  0  0  0  0  0  0  0  0  0  0  0
    2.5930  -14.2352    3.1214 H   0  0  0  0  0  0  0  0  0  0  0  0
    2.5255  -15.9980    2.6984 H   0  0  0  0  0  0  0  0  0  0  0  0
    4.2167  -14.4363    1.4440 H   0  0  0  0  0  0  0  0  0  0  0  0
    3.2598  -15.6434    0.5200 H   0  0  0  0  0  0  0  0  0  0  0  0
    2.7668  -13.9161    0.5200 H   0  0  0  0  0  0  0  0  0  0  0  0
    2.8695  -18.5869    1.8463 H   0  0  0  0  0  0  0  0  0  0  0  0
    2.3167  -19.9390    0.7665 H   0  0  0  0  0  0  0  0  0  0  0  0
    3.7254  -19.2703   -0.9900 H   0  0  0  0  0  0  0  0  0  0  0  0
    4.0358  -17.6512   -0.1969 H   0  0  0  0  0  0  0  0  0  0  0  0
    5.0449  -19.2233    1.7031 H   0  0  0  0  0  0  0  0  0  0  0  0
    5.3084  -20.3112    0.2981 H   0  0  0  0  0  0  0  0  0  0  0  0
    6.0110  -18.6580    0.2981 H   0  0  0  0  0  0  0  0  0  0  0  0
   -3.1016  -16.5968    0.6457 H   0  0  0  0  0  0  0  0  0  0  0  0
   -1.6971  -17.7361    0.8155 H   0  0  0  0  0  0  0  0  0  0  0  0
   -2.3220  -16.9722    3.4411 H   0  0  0  0  0  0  0  0  0  0  0  0
   -3.9139  -17.2242    2.6481 H   0  0  0  0  0  0  0  0  0  0  0  0
   -2.6921  -18.5409    2.6481 H   0  0  0  0  0  0  0  0  0  0  0  0
  1  2  1  0
  2  3  1  0
  3  4  1  0
  4  5  1  0
  5  6  2  0
  5  7  1  0
  7  8  2  0
  8  9  1  0
  9 10  2  0
 10 11  1  0
 11 12  2  0
 12 13  1  0
 13 14  1  0
 13 15  2  0
  8 16  1  0
 16 17  2  0
 17 18  1  0
 18 19  1  0
 17 20  1  0
 20 21  1  0
 21 22  2  0
 21 23  1  0
 23 24  1  0
 24 25  1  0
 25 26  1  0
 20 27  2  0
 27 28  1  0
 28 29  1  0
 27  7  1  0
 15  9  1  0
  1 30  1  0
  1 31  1  0
  1 32  1  0
  2 33  1  0
  2 34  1  0
  3 35  1  0
  3 36  1  0
 10 37  1  0
 11 38  1  0
 12 39  1  0
 15 40  1  0
 18 41  1  0
 18 42  1  0
 19 43  1  0
 19 44  1  0
 19 45  1  0
 24 46  1  0
 24 47  1  0
 25 48  1  0
 25 49  1  0
 26 50  1  0
 26 51  1  0
 26 52  1  0
 28 53  1  0
 28 54  1  0
 29 55  1  0
 29 56  1  0
 29 57  1  0
M  END
>  <meeko>  (5) 
{"is_sidechain": [false], "free_energy": -5.516, "intermolecular_energy": -10.035, "internal_energy": -1.317}

$$$$
LIB_RPTCJTNYKDJGHU__M_PUB_ALL__e8__s20260927
     RDKit          3D

 57 58  0  0  0  0  0  0  0  0999 V2000
    0.1850  -14.4190   -5.0910 C   0  0  0  0  0  0  0  0  0  0  0  0
    1.5020  -13.9210   -4.5240 C   0  0  0  0  0  0  0  0  0  0  0  0
    1.9430  -14.7360   -3.3150 C   0  0  0  0  0  0  0  0  0  0  0  0
    0.8940  -14.6830   -2.3400 O   0  0  0  0  0  0  0  0  0  0  0  0
    1.2900  -14.9890   -1.0830 C   0  0  0  0  0  0  0  0  0  0  0  0
    1.9910  -15.9190   -0.7270 O   0  0  0  0  0  0  0  0  0  0  0  0
    0.7020  -14.0030   -0.1670 C   0  0  0  0  0  0  0  0  0  0  0  0
    1.2180  -12.7050   -0.1450 C   0  0  0  0  0  0  0  0  0  0  0  0
    2.3680  -12.2460   -0.9440 C   0  0  0  0  0  0  0  0  0  0  0  0
    3.6900  -12.5790   -0.5950 C   0  0  0  0  0  0  0  0  0  0  0  0
    4.7710  -12.1430   -1.3680 C   0  0  0  0  0  0  0  0  0  0  0  0
    4.5480  -11.3580   -2.4970 C   0  0  0  0  0  0  0  0  0  0  0  0
    3.2470  -11.0080   -2.8450 C   0  0  0  0  0  0  0  0  0  0  0  0
    2.9700  -10.0340   -4.2380 Cl  0  0  0  0  0  0  0  0  0  0  0  0
    2.1670  -11.4400   -2.0770 C   0  0  0  0  0  0  0  0  0  0  0  0
    0.6710  -11.7340    0.6360 N   0  0  0  0  0  0  0  0  0  0  0  0
   -0.3820  -12.0450    1.4380 C   0  0  0  0  0  0  0  0  0  0  0  0
   -0.9230  -10.8890    2.2430 C   0  0  0  0  0  0  0  0  0  0  0  0
   -0.6380   -9.5520    1.5750 C   0  0  0  0  0  0  0  0  0  0  0  0
   -0.9090  -13.3390    1.4940 C   0  0  0  0  0  0  0  0  0  0  0  0
   -2.0560  -13.6160    2.3760 C   0  0  0  0  0  0  0  0  0  0  0  0
   -1.9510  -14.3880    3.3160 O   0  0  0  0  0  0  0  0  0  0  0  0
   -3.5340  -12.7570    1.9760 S   0  0  0  0  0  0  0  0  0  0  0  0
   -3.4530  -12.8640    0.1620 C   0  0  0  0  0  0  0  0  0  0  0  0
   -4.2540  -11.7530   -0.5170 C   0  0  0  0  0  0  0  0  0  0  0  0
   -3.5710  -10.3920   -0.4790 C   0  0  0  0  0  0  0  0  0  0  0  0
   -0.3800  -14.3530    0.6690 C   0  0  0  0  0  0  0  0  0  0  0  0
   -0.9850  -15.7410    0.6290 C   0  0  0  0  0  0  0  0  0  0  0  0
   -1.9180  -15.9260   -0.5600 C   0  0  0  0  0  0  0  0  0  0  0  0
   -0.4955  -14.6763   -4.2659 H   0  0  0  0  0  0  0  0  0  0  0  0
   -0.2696  -13.6307   -5.7090 H   0  0  0  0  0  0  0  0  0  0  0  0
    0.3657  -15.3109   -5.7090 H   0  0  0  0  0  0  0  0  0  0  0  0
    2.2750  -13.9935   -5.3032 H   0  0  0  0  0  0  0  0  0  0  0  0
    1.3622  -12.8789   -4.2007 H   0  0  0  0  0  0  0  0  0  0  0  0
    2.1232  -15.7793   -3.6134 H   0  0  0  0  0  0  0  0  0  0  0  0
    2.8747  -14.3271   -2.8971 H   0  0  0  0  0  0  0  0  0  0  0  0
    3.8760  -13.1916    0.2995 H   0  0  0  0  0  0  0  0  0  0  0  0
    5.7971  -12.4199   -1.0845 H   0  0  0  0  0  0  0  0  0  0  0  0
    5.3954  -11.0168   -3.1098 H   0  0  0  0  0  0  0  0  0  0  0  0
    1.1457  -11.1465   -2.3613 H   0  0  0  0  0  0  0  0  0  0  0  0
   -2.0112  -11.0084    2.3504 H   0  0  0  0  0  0  0  0  0  0  0  0
   -0.4257  -10.8936    3.2242 H   0  0  0  0  0  0  0  0  0  0  0  0
   -0.4744   -8.7845    2.3458 H   0  0  0  0  0  0  0  0  0  0  0  0
    0.2616   -9.6397    0.9481 H   0  0  0  0  0  0  0  0  0  0  0  0
   -1.4952   -9.2652    0.9481 H   0  0  0  0  0  0  0  0  0  0  0  0
   -2.4015  -12.7851   -0.1512 H   0  0  0  0  0  0  0  0  0  0  0  0
   -3.8886  -13.8279   -0.1398 H   0  0  0  0  0  0  0  0  0  0  0  0
   -4.4120  -12.0326   -1.5691 H   0  0  0  0  0  0  0  0  0  0  0  0
   -5.1983  -11.6534    0.0383 H   0  0  0  0  0  0  0  0  0  0  0  0
   -3.4182  -10.0875    0.5669 H   0  0  0  0  0  0  0  0  0  0  0  0
   -2.5981  -10.4557   -0.9882 H   0  0  0  0  0  0  0  0  0  0  0  0
   -4.2035   -9.6500   -0.9882 H   0  0  0  0  0  0  0  0  0  0  0  0
   -0.1730  -16.4799    0.5608 H   0  0  0  0  0  0  0  0  0  0  0  0
   -1.5751  -15.8795    1.5469 H   0  0  0  0  0  0  0  0  0  0  0  0
   -2.9371  -16.1281   -0.1985 H   0  0  0  0  0  0  0  0  0  0  0  0
   -1.9202  -15.0108   -1.1702 H   0  0  0  0  0  0  0  0  0  0  0  0
   -1.5708  -16.7728   -1.1702 H   0  0  0  0  0  0  0  0  0  0  0  0
  1  2  1  0
  2  3  1  0
  3  4  1  0
  4  5  1  0
  5  6  2  0
  5  7  1  0
  7  8  2  0
  8  9  1  0
  9 10  2  0
 10 11  1  0
 11 12  2  0
 12 13  1  0
 13 14  1  0
 13 15  2  0
  8 16  1  0
 16 17  2  0
 17 18  1  0
 18 19  1  0
 17 20  1  0
 20 21  1  0
 21 22  2  0
 21 23  1  0
 23 24  1  0
 24 25  1  0
 25 26  1  0
 20 27  2  0
 27 28  1  0
 28 29  1  0
 27  7  1  0
 15  9  1  0
  1 30  1  0
  1 31  1  0
  1 32  1  0
  2 33  1  0
  2 34  1  0
  3 35  1  0
  3 36  1  0
 10 37  1  0
 11 38  1  0
 12 39  1  0
 15 40  1  0
 18 41  1  0
 18 42  1  0
 19 43  1  0
 19 44  1  0
 19 45  1  0
 24 46  1  0
 24 47  1  0
 25 48  1  0
 25 49  1  0
 26 50  1  0
 26 51  1  0
 26 52  1  0
 28 53  1  0
 28 54  1  0
 29 55  1  0
 29 56  1  0
 29 57  1  0
M  END
>  <meeko>  (6) 
{"is_sidechain": [false], "free_energy": -5.438, "intermolecular_energy": -10.21, "internal_energy": -1.013}

$$$$
LIB_RPTCJTNYKDJGHU__M_PUB_ALL__e8__s20260927
     RDKit          3D

 57 58  0  0  0  0  0  0  0  0999 V2000
   -3.3840  -10.3910   -0.3210 C   0  0  0  0  0  0  0  0  0  0  0  0
   -3.4610  -11.8340    0.1420 C   0  0  0  0  0  0  0  0  0  0  0  0
   -3.2670  -11.9580    1.6480 C   0  0  0  0  0  0  0  0  0  0  0  0
   -2.1940  -12.8790    1.8810 O   0  0  0  0  0  0  0  0  0  0  0  0
   -1.1270  -12.3370    2.5100 C   0  0  0  0  0  0  0  0  0  0  0  0
   -1.1230  -11.4510    3.3460 O   0  0  0  0  0  0  0  0  0  0  0  0
    0.0850  -12.9880    1.9960 C   0  0  0  0  0  0  0  0  0  0  0  0
    0.5490  -14.1500    2.6200 C   0  0  0  0  0  0  0  0  0  0  0  0
   -0.0600  -14.7590    3.8160 C   0  0  0  0  0  0  0  0  0  0  0  0
    0.3040  -14.3590    5.1160 C   0  0  0  0  0  0  0  0  0  0  0  0
   -0.2890  -14.9410    6.2410 C   0  0  0  0  0  0  0  0  0  0  0  0
   -1.2480  -15.9390    6.0850 C   0  0  0  0  0  0  0  0  0  0  0  0
   -1.6050  -16.3550    4.8060 C   0  0  0  0  0  0  0  0  0  0  0  0
   -2.7880  -17.5920    4.6120 Cl  0  0  0  0  0  0  0  0  0  0  0  0
   -1.0170  -15.7780    3.6820 C   0  0  0  0  0  0  0  0  0  0  0  0
    1.6270  -14.8300    2.1470 N   0  0  0  0  0  0  0  0  0  0  0  0
    2.2890  -14.3500    1.0600 C   0  0  0  0  0  0  0  0  0  0  0  0
    3.4550  -15.1950    0.6080 C   0  0  0  0  0  0  0  0  0  0  0  0
    4.7280  -14.8530    1.3680 C   0  0  0  0  0  0  0  0  0  0  0  0
    1.9000  -13.1660    0.4240 C   0  0  0  0  0  0  0  0  0  0  0  0
    2.6490  -12.6980   -0.7540 C   0  0  0  0  0  0  0  0  0  0  0  0
    3.6310  -11.9830   -0.6280 O   0  0  0  0  0  0  0  0  0  0  0  0
    2.0340  -13.2500   -2.3020 S   0  0  0  0  0  0  0  0  0  0  0  0
    3.4070  -12.7190   -3.3700 C   0  0  0  0  0  0  0  0  0  0  0  0
    2.9990  -11.5910   -4.3170 C   0  0  0  0  0  0  0  0  0  0  0  0
    2.7250  -10.2670   -3.6150 C   0  0  0  0  0  0  0  0  0  0  0  0
    0.7650  -12.4620    0.8770 C   0  0  0  0  0  0  0  0  0  0  0  0
    0.2550  -11.2320    0.1560 C   0  0  0  0  0  0  0  0  0  0  0  0
    0.7990   -9.9460    0.7620 C   0  0  0  0  0  0  0  0  0  0  0  0
   -3.3485   -9.7263    0.5548 H   0  0  0  0  0  0  0  0  0  0  0  0
   -2.4770  -10.2482   -0.9267 H   0  0  0  0  0  0  0  0  0  0  0  0
   -4.2707  -10.1525   -0.9267 H   0  0  0  0  0  0  0  0  0  0  0  0
   -4.4477  -12.2408   -0.1242 H   0  0  0  0  0  0  0  0  0  0  0  0
   -2.6544  -12.3946   -0.3531 H   0  0  0  0  0  0  0  0  0  0  0  0
   -3.0152  -10.9757    2.0743 H   0  0  0  0  0  0  0  0  0  0  0  0
   -4.1907  -12.3184    2.1243 H   0  0  0  0  0  0  0  0  0  0  0  0
    1.0662  -13.5770    5.2488 H   0  0  0  0  0  0  0  0  0  0  0  0
    0.0020  -14.6106    7.2490 H   0  0  0  0  0  0  0  0  0  0  0  0
   -1.7202  -16.3955    6.9674 H   0  0  0  0  0  0  0  0  0  0  0  0
   -1.3057  -16.1246    2.6787 H   0  0  0  0  0  0  0  0  0  0  0  0
    3.2134  -16.2548    0.7766 H   0  0  0  0  0  0  0  0  0  0  0  0
    3.6294  -14.9946   -0.4594 H   0  0  0  0  0  0  0  0  0  0  0  0
    4.5345  -14.9050    2.4496 H   0  0  0  0  0  0  0  0  0  0  0  0
    5.5179  -15.5708    1.1019 H   0  0  0  0  0  0  0  0  0  0  0  0
    5.0519  -13.8360    1.1019 H   0  0  0  0  0  0  0  0  0  0  0  0
    4.2337  -12.3671   -2.7354 H   0  0  0  0  0  0  0  0  0  0  0  0
    3.7111  -13.5806   -3.9825 H   0  0  0  0  0  0  0  0  0  0  0  0
    3.8110  -11.4370   -5.0429 H   0  0  0  0  0  0  0  0  0  0  0  0
    2.0583  -11.8999   -4.7963 H   0  0  0  0  0  0  0  0  0  0  0  0
    2.7559  -10.4163   -2.5256 H   0  0  0  0  0  0  0  0  0  0  0  0
    3.4901   -9.5323   -3.9063 H   0  0  0  0  0  0  0  0  0  0  0  0
    1.7311   -9.8964   -3.9063 H   0  0  0  0  0  0  0  0  0  0  0  0
    0.5637  -11.2855   -0.8984 H   0  0  0  0  0  0  0  0  0  0  0  0
   -0.8408  -11.2139    0.2508 H   0  0  0  0  0  0  0  0  0  0  0  0
    0.7692  -10.0165    1.8593 H   0  0  0  0  0  0  0  0  0  0  0  0
    1.8377   -9.7960    0.4323 H   0  0  0  0  0  0  0  0  0  0  0  0
    0.1833   -9.0962    0.4323 H   0  0  0  0  0  0  0  0  0  0  0  0
  1  2  1  0
  2  3  1  0
  3  4  1  0
  4  5  1  0
  5  6  2  0
  5  7  1  0
  7  8  2  0
  8  9  1  0
  9 10  2  0
 10 11  1  0
 11 12  2  0
 12 13  1  0
 13 14  1  0
 13 15  2  0
  8 16  1  0
 16 17  2  0
 17 18  1  0
 18 19  1  0
 17 20  1  0
 20 21  1  0
 21 22  2  0
 21 23  1  0
 23 24  1  0
 24 25  1  0
 25 26  1  0
 20 27  2  0
 27 28  1  0
 28 29  1  0
 27  7  1  0
 15  9  1  0
  1 30  1  0
  1 31  1  0
  1 32  1  0
  2 33  1  0
  2 34  1  0
  3 35  1  0
  3 36  1  0
 10 37  1  0
 11 38  1  0
 12 39  1  0
 15 40  1  0
 18 41  1  0
 18 42  1  0
 19 43  1  0
 19 44  1  0
 19 45  1  0
 24 46  1  0
 24 47  1  0
 25 48  1  0
 25 49  1  0
 26 50  1  0
 26 51  1  0
 26 52  1  0
 28 53  1  0
 28 54  1  0
 29 55  1  0
 29 56  1  0
 29 57  1  0
M  END
>  <meeko>  (7) 
{"is_sidechain": [false], "free_energy": -5.364, "intermolecular_energy": -9.294, "internal_energy": -1.809}

$$$$
LIB_RPTCJTNYKDJGHU__M_PUB_ALL__e8__s20260927
     RDKit          3D

 57 58  0  0  0  0  0  0  0  0999 V2000
   12.7430   -9.8930    0.4580 C   0  0  0  0  0  0  0  0  0  0  0  0
   13.1000  -11.1500   -0.3140 C   0  0  0  0  0  0  0  0  0  0  0  0
   12.3570  -12.3710    0.2160 C   0  0  0  0  0  0  0  0  0  0  0  0
   10.9920  -12.2760   -0.2090 O   0  0  0  0  0  0  0  0  0  0  0  0
   10.4480  -13.4540   -0.5930 C   0  0  0  0  0  0  0  0  0  0  0  0
   10.7460  -14.5720   -0.2130 O   0  0  0  0  0  0  0  0  0  0  0  0
    9.4170  -13.1740   -1.6000 C   0  0  0  0  0  0  0  0  0  0  0  0
    9.7790  -13.1360   -2.9490 C   0  0  0  0  0  0  0  0  0  0  0  0
   11.1530  -13.3020   -3.4540 C   0  0  0  0  0  0  0  0  0  0  0  0
   12.0330  -12.2100   -3.5770 C   0  0  0  0  0  0  0  0  0  0  0  0
   13.3370  -12.3860   -4.0500 C   0  0  0  0  0  0  0  0  0  0  0  0
   13.7810  -13.6550   -4.4160 C   0  0  0  0  0  0  0  0  0  0  0  0
   12.9170  -14.7410   -4.3140 C   0  0  0  0  0  0  0  0  0  0  0  0
   13.4630  -16.3090   -4.7700 Cl  0  0  0  0  0  0  0  0  0  0  0  0
   11.6160  -14.5710   -3.8430 C   0  0  0  0  0  0  0  0  0  0  0  0
    8.8550  -12.9470   -3.9300 N   0  0  0  0  0  0  0  0  0  0  0  0
    7.5530  -12.7560   -3.5850 C   0  0  0  0  0  0  0  0  0  0  0  0
    6.6120  -12.5770   -4.7500 C   0  0  0  0  0  0  0  0  0  0  0  0
    6.4210  -13.8720   -5.5270 C   0  0  0  0  0  0  0  0  0  0  0  0
    7.1410  -12.7340   -2.2480 C   0  0  0  0  0  0  0  0  0  0  0  0
    5.7170  -12.5310   -1.9340 C   0  0  0  0  0  0  0  0  0  0  0  0
    5.2800  -11.4160   -1.6960 O   0  0  0  0  0  0  0  0  0  0  0  0
    4.7320  -13.9840   -1.9420 S   0  0  0  0  0  0  0  0  0  0  0  0
    3.2390  -13.3220   -2.7440 C   0  0  0  0  0  0  0  0  0  0  0  0
    3.0000  -13.9440   -4.1190 C   0  0  0  0  0  0  0  0  0  0  0  0
    1.5300  -14.0230   -4.5110 C   0  0  0  0  0  0  0  0  0  0  0  0
    8.0760  -12.9620   -1.2170 C   0  0  0  0  0  0  0  0  0  0  0  0
    7.6520  -13.0440    0.2350 C   0  0  0  0  0  0  0  0  0  0  0  0
    7.7070  -11.6880    0.9250 C   0  0  0  0  0  0  0  0  0  0  0  0
   12.8009  -10.0968    1.5374 H   0  0  0  0  0  0  0  0  0  0  0  0
   13.4487   -9.0902    0.1981 H   0  0  0  0  0  0  0  0  0  0  0  0
   11.7207   -9.5810    0.1981 H   0  0  0  0  0  0  0  0  0  0  0  0
   12.8367  -11.0047   -1.3721 H   0  0  0  0  0  0  0  0  0  0  0  0
   14.1789  -11.3287   -0.1956 H   0  0  0  0  0  0  0  0  0  0  0  0
   12.8107  -13.2884   -0.1871 H   0  0  0  0  0  0  0  0  0  0  0  0
   12.4144  -12.4071    1.3139 H   0  0  0  0  0  0  0  0  0  0  0  0
   11.6896  -11.2032   -3.2968 H   0  0  0  0  0  0  0  0  0  0  0  0
   14.0128  -11.5221   -4.1332 H   0  0  0  0  0  0  0  0  0  0  0  0
   14.8081  -13.7974   -4.7833 H   0  0  0  0  0  0  0  0  0  0  0  0
   10.9443  -15.4395   -3.7750 H   0  0  0  0  0  0  0  0  0  0  0  0
    5.6353  -12.2422   -4.3705 H   0  0  0  0  0  0  0  0  0  0  0  0
    7.0487  -11.8313   -5.4306 H   0  0  0  0  0  0  0  0  0  0  0  0
    6.2978  -14.7076   -4.8223 H   0  0  0  0  0  0  0  0  0  0  0  0
    5.5251  -13.7910   -6.1601 H   0  0  0  0  0  0  0  0  0  0  0  0
    7.3021  -14.0531   -6.1601 H   0  0  0  0  0  0  0  0  0  0  0  0
    2.3697  -13.5326   -2.1037 H   0  0  0  0  0  0  0  0  0  0  0  0
    3.3808  -12.2400   -2.8822 H   0  0  0  0  0  0  0  0  0  0  0  0
    3.5272  -13.3377   -4.8703 H   0  0  0  0  0  0  0  0  0  0  0  0
    3.3752  -14.9770   -4.0729 H   0  0  0  0  0  0  0  0  0  0  0  0
    0.9097  -14.0563   -3.6032 H   0  0  0  0  0  0  0  0  0  0  0  0
    1.2612  -13.1380   -5.1064 H   0  0  0  0  0  0  0  0  0  0  0  0
    1.3576  -14.9317   -5.1064 H   0  0  0  0  0  0  0  0  0  0  0  0
    6.6210  -13.4246    0.2825 H   0  0  0  0  0  0  0  0  0  0  0  0
    8.3502  -13.7170    0.7543 H   0  0  0  0  0  0  0  0  0  0  0  0
    7.7012  -11.8311    2.0156 H   0  0  0  0  0  0  0  0  0  0  0  0
    8.6272  -11.1630    0.6289 H   0  0  0  0  0  0  0  0  0  0  0  0
    6.8324  -11.0902    0.6289 H   0  0  0  0  0  0  0  0  0  0  0  0
  1  2  1  0
  2  3  1  0
  3  4  1  0
  4  5  1  0
  5  6  2  0
  5  7  1  0
  7  8  2  0
  8  9  1  0
  9 10  2  0
 10 11  1  0
 11 12  2  0
 12 13  1  0
 13 14  1  0
 13 15  2  0
  8 16  1  0
 16 17  2  0
 17 18  1  0
 18 19  1  0
 17 20  1  0
 20 21  1  0
 21 22  2  0
 21 23  1  0
 23 24  1  0
 24 25  1  0
 25 26  1  0
 20 27  2  0
 27 28  1  0
 28 29  1  0
 27  7  1  0
 15  9  1  0
  1 30  1  0
  1 31  1  0
  1 32  1  0
  2 33  1  0
  2 34  1  0
  3 35  1  0
  3 36  1  0
 10 37  1  0
 11 38  1  0
 12 39  1  0
 15 40  1  0
 18 41  1  0
 18 42  1  0
 19 43  1  0
 19 44  1  0
 19 45  1  0
 24 46  1  0
 24 47  1  0
 25 48  1  0
 25 49  1  0
 26 50  1  0
 26 51  1  0
 26 52  1  0
 28 53  1  0
 28 54  1  0
 29 55  1  0
 29 56  1  0
 29 57  1  0
M  END
>  <meeko>  (8) 
{"is_sidechain": [false], "free_energy": -5.322, "intermolecular_energy": -9.279, "internal_energy": -1.754}

$$$$
LIB_RPTCJTNYKDJGHU__M_PUB_ALL__e8__s20260927
     RDKit          3D

 57 58  0  0  0  0  0  0  0  0999 V2000
    0.5560  -10.2550   -0.5550 C   0  0  0  0  0  0  0  0  0  0  0  0
    1.3700  -10.8310    0.5900 C   0  0  0  0  0  0  0  0  0  0  0  0
    1.8420  -12.2490    0.2930 C   0  0  0  0  0  0  0  0  0  0  0  0
    1.1880  -13.1320    1.2130 O   0  0  0  0  0  0  0  0  0  0  0  0
    0.1940  -13.8670    0.6620 C   0  0  0  0  0  0  0  0  0  0  0  0
   -0.0550  -14.0190   -0.5200 O   0  0  0  0  0  0  0  0  0  0  0  0
   -0.5920  -14.4600    1.7520 C   0  0  0  0  0  0  0  0  0  0  0  0
   -1.6230  -13.7140    2.3300 C   0  0  0  0  0  0  0  0  0  0  0  0
   -1.9590  -12.3260    1.9650 C   0  0  0  0  0  0  0  0  0  0  0  0
   -1.5170  -11.2320    2.7330 C   0  0  0  0  0  0  0  0  0  0  0  0
   -1.8370   -9.9200    2.3690 C   0  0  0  0  0  0  0  0  0  0  0  0
   -2.6130   -9.6810    1.2370 C   0  0  0  0  0  0  0  0  0  0  0  0
   -3.0700  -10.7530    0.4770 C   0  0  0  0  0  0  0  0  0  0  0  0
   -4.0320  -10.4590   -0.9200 Cl  0  0  0  0  0  0  0  0  0  0  0  0
   -2.7530  -12.0630    0.8360 C   0  0  0  0  0  0  0  0  0  0  0  0
   -2.4250  -14.2350    3.2960 N   0  0  0  0  0  0  0  0  0  0  0  0
   -2.1960  -15.5020    3.7340 C   0  0  0  0  0  0  0  0  0  0  0  0
   -3.1570  -15.9870    4.7910 C   0  0  0  0  0  0  0  0  0  0  0  0
   -4.4740  -16.4520    4.1870 C   0  0  0  0  0  0  0  0  0  0  0  0
   -1.1470  -16.2790    3.2280 C   0  0  0  0  0  0  0  0  0  0  0  0
   -0.9510  -17.6470    3.7340 C   0  0  0  0  0  0  0  0  0  0  0  0
   -1.6030  -18.5790    3.2890 O   0  0  0  0  0  0  0  0  0  0  0  0
    0.2700  -17.8170    4.9840 S   0  0  0  0  0  0  0  0  0  0  0  0
   -0.8020  -18.2710    6.3810 C   0  0  0  0  0  0  0  0  0  0  0  0
   -0.7900  -17.2130    7.4840 C   0  0  0  0  0  0  0  0  0  0  0  0
   -2.1190  -17.0700    8.2140 C   0  0  0  0  0  0  0  0  0  0  0  0
   -0.3250  -15.7700    2.2010 C   0  0  0  0  0  0  0  0  0  0  0  0
    0.7570  -16.6150    1.5600 C   0  0  0  0  0  0  0  0  0  0  0  0
    0.2270  -17.4350    0.3920 C   0  0  0  0  0  0  0  0  0  0  0  0
   -0.2790   -9.6642   -0.1504 H   0  0  0  0  0  0  0  0  0  0  0  0
    1.1974   -9.6086   -1.1721 H   0  0  0  0  0  0  0  0  0  0  0  0
    0.1598  -11.0749   -1.1721 H   0  0  0  0  0  0  0  0  0  0  0  0
    2.2489  -10.1914    0.7588 H   0  0  0  0  0  0  0  0  0  0  0  0
    0.7277  -10.8648    1.4823 H   0  0  0  0  0  0  0  0  0  0  0  0
    1.5781  -12.5224   -0.7393 H   0  0  0  0  0  0  0  0  0  0  0  0
    2.9341  -12.3206    0.4033 H   0  0  0  0  0  0  0  0  0  0  0  0
   -0.9107  -11.4118    3.6331 H   0  0  0  0  0  0  0  0  0  0  0  0
   -1.4760   -9.0770    2.9765 H   0  0  0  0  0  0  0  0  0  0  0  0
   -2.8631   -8.6502    0.9456 H   0  0  0  0  0  0  0  0  0  0  0  0
   -3.1288  -12.8995    0.2285 H   0  0  0  0  0  0  0  0  0  0  0  0
   -2.6970  -16.8272    5.3318 H   0  0  0  0  0  0  0  0  0  0  0  0
   -3.3697  -15.1484    5.4704 H   0  0  0  0  0  0  0  0  0  0  0  0
   -5.1795  -16.7011    4.9934 H   0  0  0  0  0  0  0  0  0  0  0  0
   -4.8963  -15.6486    3.5655 H   0  0  0  0  0  0  0  0  0  0  0  0
   -4.2982  -17.3424    3.5655 H   0  0  0  0  0  0  0  0  0  0  0  0
   -1.8322  -18.3885    6.0137 H   0  0  0  0  0  0  0  0  0  0  0  0
   -0.4206  -19.2099    6.8088 H   0  0  0  0  0  0  0  0  0  0  0  0
   -0.0186  -17.4869    8.2188 H   0  0  0  0  0  0  0  0  0  0  0  0
   -0.5858  -16.2471    6.9988 H   0  0  0  0  0  0  0  0  0  0  0  0
   -1.9447  -17.0888    9.2999 H   0  0  0  0  0  0  0  0  0  0  0  0
   -2.5900  -16.1160    7.9346 H   0  0  0  0  0  0  0  0  0  0  0  0
   -2.7822  -17.9020    7.9346 H   0  0  0  0  0  0  0  0  0  0  0  0
    1.5550  -15.9519    1.1946 H   0  0  0  0  0  0  0  0  0  0  0  0
    1.1356  -17.3140    2.3203 H   0  0  0  0  0  0  0  0  0  0  0  0
   -0.3326  -18.3008    0.7758 H   0  0  0  0  0  0  0  0  0  0  0  0
   -0.4390  -16.8108   -0.2219 H   0  0  0  0  0  0  0  0  0  0  0  0
    1.0696  -17.7859   -0.2219 H   0  0  0  0  0  0  0  0  0  0  0  0
  1  2  1  0
  2  3  1  0
  3  4  1  0
  4  5  1  0
  5  6  2  0
  5  7  1  0
  7  8  2  0
  8  9  1  0
  9 10  2  0
 10 11  1  0
 11 12  2  0
 12 13  1  0
 13 14  1  0
 13 15  2  0
  8 16  1  0
 16 17  2  0
 17 18  1  0
 18 19  1  0
 17 20  1  0
 20 21  1  0
 21 22  2  0
 21 23  1  0
 23 24  1  0
 24 25  1  0
 25 26  1  0
 20 27  2  0
 27 28  1  0
 28 29  1  0
 27  7  1  0
 15  9  1  0
  1 30  1  0
  1 31  1  0
  1 32  1  0
  2 33  1  0
  2 34  1  0
  3 35  1  0
  3 36  1  0
 10 37  1  0
 11 38  1  0
 12 39  1  0
 15 40  1  0
 18 41  1  0
 18 42  1  0
 19 43  1  0
 19 44  1  0
 19 45  1  0
 24 46  1  0
 24 47  1  0
 25 48  1  0
 25 49  1  0
 26 50  1  0
 26 51  1  0
 26 52  1  0
 28 53  1  0
 28 54  1  0
 29 55  1  0
 29 56  1  0
 29 57  1  0
M  END
>  <meeko>  (9) 
{"is_sidechain": [false], "free_energy": -5.298, "intermolecular_energy": -8.784, "internal_energy": -2.21}

$$$$
