LIB_HPSPAJJKGOGMIN__M_PUB_ALL__e8__s20260927
     RDKit          3D

 52 55  0  0  0  0  0  0  0  0999 V2000
   13.8120  -11.2560   -0.0490 N   0  0  0  0  0  0  0  0  0  0  0  0
   13.1230  -11.1810   -1.3550 C   0  0  0  0  0  0  0  0  0  0  0  0
   12.4860  -12.5120   -1.7610 C   0  0  0  0  0  0  0  0  0  0  0  0
   10.9530  -12.5290   -1.8140 C   0  0  0  0  0  0  0  0  0  0  0  0
   10.2380  -13.0310   -0.2570 S   0  0  0  0  0  0  0  0  0  0  0  0
   11.3480  -13.1830    0.6670 O   0  0  0  0  0  0  0  0  0  0  0  0
    9.3980  -14.1730   -0.5350 O   0  0  0  0  0  0  0  0  0  0  0  0
    9.2570  -11.7630    0.1770 N   0  0  0  0  0  0  0  0  0  0  0  0
    7.8390  -11.8940    0.1370 C   0  0  0  0  0  0  0  0  0  0  0  0
    7.1020  -12.2060    1.2750 C   0  0  0  0  0  0  0  0  0  0  0  0
    5.7090  -12.2940    1.2030 C   0  0  0  0  0  0  0  0  0  0  0  0
    5.0300  -12.0880   -0.0040 C   0  0  0  0  0  0  0  0  0  0  0  0
    3.6350  -12.1860   -0.1080 N   0  0  0  0  0  0  0  0  0  0  0  0
    2.8540  -13.2610   -0.6090 C   0  0  0  0  0  0  0  0  0  0  0  0
    2.4750  -13.2620   -1.9760 C   0  0  0  0  0  0  0  0  0  0  0  0
    2.8060  -12.2300   -2.8890 C   0  0  0  0  0  0  0  0  0  0  0  0
    2.4000  -12.2860   -4.2210 C   0  0  0  0  0  0  0  0  0  0  0  0
    1.6540  -13.3690   -4.6600 C   0  0  0  0  0  0  0  0  0  0  0  0
    1.3190  -14.3860   -3.7630 C   0  0  0  0  0  0  0  0  0  0  0  0
    1.7130  -14.3530   -2.4320 C   0  0  0  0  0  0  0  0  0  0  0  0
    1.3480  -15.3680   -1.6380 N   0  0  0  0  0  0  0  0  0  0  0  0
    1.7380  -15.3840   -0.3560 C   0  0  0  0  0  0  0  0  0  0  0  0
    1.3670  -16.4700    0.4260 C   0  0  0  0  0  0  0  0  0  0  0  0
    1.7440  -16.5820    1.7660 C   0  0  0  0  0  0  0  0  0  0  0  0
    2.5160  -15.5860    2.3440 C   0  0  0  0  0  0  0  0  0  0  0  0
    2.8970  -14.4850    1.5810 C   0  0  0  0  0  0  0  0  0  0  0  0
    2.5070  -14.3580    0.2230 C   0  0  0  0  0  0  0  0  0  0  0  0
    5.7890  -11.8000   -1.1460 C   0  0  0  0  0  0  0  0  0  0  0  0
    7.1840  -11.7030   -1.0790 C   0  0  0  0  0  0  0  0  0  0  0  0
   13.5720  -10.4610    0.5570 H   0  0  0  0  0  0  0  0  0  0  0  0
   14.8380  -11.2890   -0.1220 H   0  0  0  0  0  0  0  0  0  0  0  0
   13.5260  -12.1040    0.4890 H   0  0  0  0  0  0  0  0  0  0  0  0
   12.3341  -10.4169   -1.2939 H   0  0  0  0  0  0  0  0  0  0  0  0
   13.8762  -10.9262   -2.1152 H   0  0  0  0  0  0  0  0  0  0  0  0
   12.8613  -12.7748   -2.7610 H   0  0  0  0  0  0  0  0  0  0  0  0
   12.7661  -13.2295   -0.9756 H   0  0  0  0  0  0  0  0  0  0  0  0
   10.5946  -11.5187   -2.0605 H   0  0  0  0  0  0  0  0  0  0  0  0
   10.6466  -13.2566   -2.5800 H   0  0  0  0  0  0  0  0  0  0  0  0
    9.6450  -11.1570    0.9030 H   0  0  0  0  0  0  0  0  0  0  0  0
    7.6156  -12.3834    2.2314 H   0  0  0  0  0  0  0  0  0  0  0  0
    5.1354  -12.5295    2.1116 H   0  0  0  0  0  0  0  0  0  0  0  0
    3.0830  -11.4200    0.2600 H   0  0  0  0  0  0  0  0  0  0  0  0
    3.3944  -11.3687   -2.5398 H   0  0  0  0  0  0  0  0  0  0  0  0
    2.6690  -11.4783   -4.9177 H   0  0  0  0  0  0  0  0  0  0  0  0
    1.3277  -13.4271   -5.7089 H   0  0  0  0  0  0  0  0  0  0  0  0
    0.7248  -15.2392   -4.1221 H   0  0  0  0  0  0  0  0  0  0  0  0
    0.7570  -17.2670   -0.0242 H   0  0  0  0  0  0  0  0  0  0  0  0
    1.4307  -17.4542    2.3586 H   0  0  0  0  0  0  0  0  0  0  0  0
    2.8251  -15.6647    3.3967 H   0  0  0  0  0  0  0  0  0  0  0  0
    3.5128  -13.6979    2.0407 H   0  0  0  0  0  0  0  0  0  0  0  0
    5.2811  -11.6478   -2.1098 H   0  0  0  0  0  0  0  0  0  0  0  0
    7.7636  -11.4760   -1.9860 H   0  0  0  0  0  0  0  0  0  0  0  0
  1  2  1  0
  2  3  1  0
  3  4  1  0
  4  5  1  0
  5  6  2  0
  5  7  2  0
  5  8  1  0
  8  9  1  0
  9 10  2  0
 10 11  1  0
 11 12  2  0
 12 13  1  0
 13 14  1  0
 14 15  1  0
 15 16  2  0
 16 17  1  0
 17 18  2  0
 18 19  1  0
 19 20  2  0
 20 21  1  0
 21 22  2  0
 22 23  1  0
 23 24  2  0
 24 25  1  0
 25 26  2  0
 26 27  1  0
 12 28  1  0
 28 29  2  0
 29  9  1  0
 27 14  2  0
 20 15  1  0
 27 22  1  0
  1 30  1  0
  1 31  1  0
  1 32  1  0
  2 33  1  0
  2 34  1  0
  3 35  1  0
  3 36  1  0
  4 37  1  0
  4 38  1  0
  8 39  1  0
 10 40  1  0
 11 41  1  0
 13 42  1  0
 16 43  1  0
 17 44  1  0
 18 45  1  0
 19 46  1  0
 23 47  1  0
 24 48  1  0
 25 49  1  0
 26 50  1  0
 28 51  1  0
 29 52  1  0
M  CHG  1   1   1
M  END
>  <meeko>  (1) 
{"is_sidechain": [false], "free_energy": -7.057, "intermolecular_energy": -10.151, "internal_energy": -1.099}

$$$$
LIB_HPSPAJJKGOGMIN__M_PUB_ALL__e8__s20260927
     RDKit          3D

 52 55  0  0  0  0  0  0  0  0999 V2000
   15.1500  -12.0010   -3.1720 N   0  0  0  0  0  0  0  0  0  0  0  0
   13.8210  -12.5230   -3.5540 C   0  0  0  0  0  0  0  0  0  0  0  0
   12.7020  -12.0030   -2.6480 C   0  0  0  0  0  0  0  0  0  0  0  0
   12.0290  -13.0500   -1.7500 C   0  0  0  0  0  0  0  0  0  0  0  0
   11.8850  -12.4860   -0.0620 S   0  0  0  0  0  0  0  0  0  0  0  0
   12.2540  -11.0800   -0.0730 O   0  0  0  0  0  0  0  0  0  0  0  0
   12.6500  -13.4040    0.7480 O   0  0  0  0  0  0  0  0  0  0  0  0
   10.2780  -12.6890    0.3070 N   0  0  0  0  0  0  0  0  0  0  0  0
    9.3370  -13.0240   -0.7080 C   0  0  0  0  0  0  0  0  0  0  0  0
    8.9990  -12.1280   -1.7160 C   0  0  0  0  0  0  0  0  0  0  0  0
    8.0960  -12.5060   -2.7140 C   0  0  0  0  0  0  0  0  0  0  0  0
    7.5040  -13.7750   -2.7140 C   0  0  0  0  0  0  0  0  0  0  0  0
    6.5830  -14.1750   -3.6930 N   0  0  0  0  0  0  0  0  0  0  0  0
    5.9460  -13.3880   -4.6890 C   0  0  0  0  0  0  0  0  0  0  0  0
    6.3010  -13.5750   -6.0500 C   0  0  0  0  0  0  0  0  0  0  0  0
    7.2870  -14.4930   -6.4900 C   0  0  0  0  0  0  0  0  0  0  0  0
    7.5950  -14.6290   -7.8430 C   0  0  0  0  0  0  0  0  0  0  0  0
    6.9280  -13.8470   -8.7740 C   0  0  0  0  0  0  0  0  0  0  0  0
    5.9610  -12.9360   -8.3450 C   0  0  0  0  0  0  0  0  0  0  0  0
    5.6360  -12.7840   -7.0040 C   0  0  0  0  0  0  0  0  0  0  0  0
    4.6970  -11.8860   -6.6770 N   0  0  0  0  0  0  0  0  0  0  0  0
    4.3370  -11.7360   -5.3940 C   0  0  0  0  0  0  0  0  0  0  0  0
    3.3370  -10.8190   -5.1000 C   0  0  0  0  0  0  0  0  0  0  0  0
    2.8830  -10.6100   -3.7970 C   0  0  0  0  0  0  0  0  0  0  0  0
    3.4370  -11.3370   -2.7550 C   0  0  0  0  0  0  0  0  0  0  0  0
    4.4440  -12.2610   -3.0250 C   0  0  0  0  0  0  0  0  0  0  0  0
    4.9200  -12.4690   -4.3450 C   0  0  0  0  0  0  0  0  0  0  0  0
    7.8350  -14.6560   -1.6770 C   0  0  0  0  0  0  0  0  0  0  0  0
    8.7450  -14.2870   -0.6800 C   0  0  0  0  0  0  0  0  0  0  0  0
   15.1730  -10.9730   -3.1740 H   0  0  0  0  0  0  0  0  0  0  0  0
   15.9140  -12.3270   -3.7800 H   0  0  0  0  0  0  0  0  0  0  0  0
   15.4070  -12.2780   -2.1990 H   0  0  0  0  0  0  0  0  0  0  0  0
   13.6068  -12.2180   -4.5889 H   0  0  0  0  0  0  0  0  0  0  0  0
   13.8510  -13.6178   -3.4518 H   0  0  0  0  0  0  0  0  0  0  0  0
   13.1282  -11.2247   -1.9980 H   0  0  0  0  0  0  0  0  0  0  0  0
   11.9146  -11.6390   -3.3245 H   0  0  0  0  0  0  0  0  0  0  0  0
   11.0229  -13.2604   -2.1417 H   0  0  0  0  0  0  0  0  0  0  0  0
   12.6538  -13.9553   -1.7547 H   0  0  0  0  0  0  0  0  0  0  0  0
   10.1030  -13.0620    1.2430 H   0  0  0  0  0  0  0  0  0  0  0  0
    9.4423  -11.1213   -1.7282 H   0  0  0  0  0  0  0  0  0  0  0  0
    7.8459  -11.7935   -3.5139 H   0  0  0  0  0  0  0  0  0  0  0  0
    6.3590  -15.1610   -3.7500 H   0  0  0  0  0  0  0  0  0  0  0  0
    7.8191  -15.1095   -5.7505 H   0  0  0  0  0  0  0  0  0  0  0  0
    8.3596  -15.3496   -8.1688 H   0  0  0  0  0  0  0  0  0  0  0  0
    7.1597  -13.9440   -9.8449 H   0  0  0  0  0  0  0  0  0  0  0  0
    5.4405  -12.3196   -9.0927 H   0  0  0  0  0  0  0  0  0  0  0  0
    2.8884  -10.2389   -5.9199 H   0  0  0  0  0  0  0  0  0  0  0  0
    2.0908   -9.8732   -3.5982 H   0  0  0  0  0  0  0  0  0  0  0  0
    3.0846  -11.1857   -1.7240 H   0  0  0  0  0  0  0  0  0  0  0  0
    4.8789  -12.8411   -2.1978 H   0  0  0  0  0  0  0  0  0  0  0  0
    7.3725  -15.6536   -1.6457 H   0  0  0  0  0  0  0  0  0  0  0  0
    8.9936  -14.9930    0.1261 H   0  0  0  0  0  0  0  0  0  0  0  0
  1  2  1  0
  2  3  1  0
  3  4  1  0
  4  5  1  0
  5  6  2  0
  5  7  2  0
  5  8  1  0
  8  9  1  0
  9 10  2  0
 10 11  1  0
 11 12  2  0
 12 13  1  0
 13 14  1  0
 14 15  1  0
 15 16  2  0
 16 17  1  0
 17 18  2  0
 18 19  1  0
 19 20  2  0
 20 21  1  0
 21 22  2  0
 22 23  1  0
 23 24  2  0
 24 25  1  0
 25 26  2  0
 26 27  1  0
 12 28  1  0
 28 29  2  0
 29  9  1  0
 27 14  2  0
 20 15  1  0
 27 22  1  0
  1 30  1  0
  1 31  1  0
  1 32  1  0
  2 33  1  0
  2 34  1  0
  3 35  1  0
  3 36  1  0
  4 37  1  0
  4 38  1  0
  8 39  1  0
 10 40  1  0
 11 41  1  0
 13 42  1  0
 16 43  1  0
 17 44  1  0
 18 45  1  0
 19 46  1  0
 23 47  1  0
 24 48  1  0
 25 49  1  0
 26 50  1  0
 28 51  1  0
 29 52  1  0
M  CHG  1   1   1
M  END
>  <meeko>  (2) 
{"is_sidechain": [false], "free_energy": -7.02, "intermolecular_energy": -10.458, "internal_energy": -0.74}

$$$$
LIB_HPSPAJJKGOGMIN__M_PUB_ALL__e8__s20260927
     RDKit          3D

 52 55  0  0  0  0  0  0  0  0999 V2000
   14.4840  -12.4830   -3.0130 N   0  0  0  0  0  0  0  0  0  0  0  0
   13.4610  -11.4960   -2.6080 C   0  0  0  0  0  0  0  0  0  0  0  0
   12.6750  -11.9370   -1.3710 C   0  0  0  0  0  0  0  0  0  0  0  0
   11.3010  -12.5640   -1.6410 C   0  0  0  0  0  0  0  0  0  0  0  0
   10.4840  -13.0560   -0.1310 S   0  0  0  0  0  0  0  0  0  0  0  0
   11.5350  -13.2350    0.8560 O   0  0  0  0  0  0  0  0  0  0  0  0
    9.6380  -14.1780   -0.4650 O   0  0  0  0  0  0  0  0  0  0  0  0
    9.5060  -11.7690    0.2500 N   0  0  0  0  0  0  0  0  0  0  0  0
    8.0910  -11.8740    0.1370 C   0  0  0  0  0  0  0  0  0  0  0  0
    7.4420  -11.7250   -1.0840 C   0  0  0  0  0  0  0  0  0  0  0  0
    6.0530  -11.8690   -1.1600 C   0  0  0  0  0  0  0  0  0  0  0  0
    5.2890  -12.1460   -0.0200 C   0  0  0  0  0  0  0  0  0  0  0  0
    3.8940  -12.2790   -0.0640 N   0  0  0  0  0  0  0  0  0  0  0  0
    3.1180  -13.3320   -0.6170 C   0  0  0  0  0  0  0  0  0  0  0  0
    2.7380  -14.4190    0.2110 C   0  0  0  0  0  0  0  0  0  0  0  0
    3.1100  -14.5430    1.5730 C   0  0  0  0  0  0  0  0  0  0  0  0
    2.7090  -15.6400    2.3340 C   0  0  0  0  0  0  0  0  0  0  0  0
    1.9370  -16.6290    1.7480 C   0  0  0  0  0  0  0  0  0  0  0  0
    1.5730  -16.5160    0.4040 C   0  0  0  0  0  0  0  0  0  0  0  0
    1.9580  -15.4330   -0.3740 C   0  0  0  0  0  0  0  0  0  0  0  0
    1.5680  -15.4020   -1.6550 N   0  0  0  0  0  0  0  0  0  0  0  0
    1.8960  -14.3560   -2.4270 C   0  0  0  0  0  0  0  0  0  0  0  0
    1.4440  -14.3450   -3.7400 C   0  0  0  0  0  0  0  0  0  0  0  0
    1.7200  -13.2890   -4.6100 C   0  0  0  0  0  0  0  0  0  0  0  0
    2.4640  -12.2100   -4.1610 C   0  0  0  0  0  0  0  0  0  0  0  0
    2.9320  -12.1990   -2.8480 C   0  0  0  0  0  0  0  0  0  0  0  0
    2.6670  -13.2740   -1.9620 C   0  0  0  0  0  0  0  0  0  0  0  0
    5.9550  -12.2660    1.2060 C   0  0  0  0  0  0  0  0  0  0  0  0
    7.3460  -12.1320    1.2880 C   0  0  0  0  0  0  0  0  0  0  0  0
   14.0890  -13.2190   -3.6140 H   0  0  0  0  0  0  0  0  0  0  0  0
   14.9470  -12.9490   -2.2210 H   0  0  0  0  0  0  0  0  0  0  0  0
   15.2400  -12.0430   -3.5810 H   0  0  0  0  0  0  0  0  0  0  0  0
   13.9607  -10.5415   -2.3861 H   0  0  0  0  0  0  0  0  0  0  0  0
   12.7467  -11.3965   -3.4386 H   0  0  0  0  0  0  0  0  0  0  0  0
   13.2834  -12.6773   -0.8308 H   0  0  0  0  0  0  0  0  0  0  0  0
   12.4768  -11.0180   -0.7999 H   0  0  0  0  0  0  0  0  0  0  0  0
   10.6710  -11.8285   -2.1627 H   0  0  0  0  0  0  0  0  0  0  0  0
   11.4521  -13.4639   -2.2552 H   0  0  0  0  0  0  0  0  0  0  0  0
    9.8690  -11.1680    0.9950 H   0  0  0  0  0  0  0  0  0  0  0  0
    8.0213  -11.4939   -1.9901 H   0  0  0  0  0  0  0  0  0  0  0  0
    5.5516  -11.7627   -2.1333 H   0  0  0  0  0  0  0  0  0  0  0  0
    3.3410  -11.5640    0.3940 H   0  0  0  0  0  0  0  0  0  0  0  0
    3.7263  -13.7594    2.0380 H   0  0  0  0  0  0  0  0  0  0  0  0
    3.0033  -15.7193    3.3909 H   0  0  0  0  0  0  0  0  0  0  0  0
    1.6121  -17.4989    2.3376 H   0  0  0  0  0  0  0  0  0  0  0  0
    0.9626  -17.3096   -0.0516 H   0  0  0  0  0  0  0  0  0  0  0  0
    0.8497  -15.1953   -4.1059 H   0  0  0  0  0  0  0  0  0  0  0  0
    1.3492  -13.3133   -5.6453 H   0  0  0  0  0  0  0  0  0  0  0  0
    2.6836  -11.3689   -4.8351 H   0  0  0  0  0  0  0  0  0  0  0  0
    3.5186  -11.3392   -2.4921 H   0  0  0  0  0  0  0  0  0  0  0  0
    5.3760  -12.4688    2.1190 H   0  0  0  0  0  0  0  0  0  0  0  0
    7.8517  -12.2301    2.2600 H   0  0  0  0  0  0  0  0  0  0  0  0
  1  2  1  0
  2  3  1  0
  3  4  1  0
  4  5  1  0
  5  6  2  0
  5  7  2  0
  5  8  1  0
  8  9  1  0
  9 10  2  0
 10 11  1  0
 11 12  2  0
 12 13  1  0
 13 14  1  0
 14 15  1  0
 15 16  2  0
 16 17  1  0
 17 18  2  0
 18 19  1  0
 19 20  2  0
 20 21  1  0
 21 22  2  0
 22 23  1  0
 23 24  2  0
 24 25  1  0
 25 26  2  0
 26 27  1  0
 12 28  1  0
 28 29  2  0
 29  9  1  0
 27 14  2  0
 20 15  1  0
 27 22  1  0
  1 30  1  0
  1 31  1  0
  1 32  1  0
  2 33  1  0
  2 34  1  0
  3 35  1  0
  3 36  1  0
  4 37  1  0
  4 38  1  0
  8 39  1  0
 10 40  1  0
 11 41  1  0
 13 42  1  0
 16 43  1  0
 17 44  1  0
 18 45  1  0
 19 46  1  0
 23 47  1  0
 24 48  1  0
 25 49  1  0
 26 50  1  0
 28 51  1  0
 29 52  1  0
M  CHG  1   1   1
M  END
>  <meeko>  (3) 
{"is_sidechain": [false], "free_energy": -6.943, "intermolecular_energy": -10.156, "internal_energy": -0.93}

$$$$
LIB_HPSPAJJKGOGMIN__M_PUB_ALL__e8__s20260927
     RDKit          3D

 52 55  0  0  0  0  0  0  0  0999 V2000
   -1.7120   -7.8730    6.2250 N   0  0  0  0  0  0  0  0  0  0  0  0
   -1.2320   -8.9400    5.3210 C   0  0  0  0  0  0  0  0  0  0  0  0
   -1.6710   -8.7230    3.8710 C   0  0  0  0  0  0  0  0  0  0  0  0
   -1.7900   -9.9890    3.0130 C   0  0  0  0  0  0  0  0  0  0  0  0
   -0.7640   -9.9040    1.5530 S   0  0  0  0  0  0  0  0  0  0  0  0
   -0.0860   -8.6210    1.6100 O   0  0  0  0  0  0  0  0  0  0  0  0
   -1.6210  -10.1940    0.4270 O   0  0  0  0  0  0  0  0  0  0  0  0
    0.3050  -11.1640    1.7250 N   0  0  0  0  0  0  0  0  0  0  0  0
    0.7030  -11.9370    0.5970 C   0  0  0  0  0  0  0  0  0  0  0  0
    1.5860  -11.4390   -0.3550 C   0  0  0  0  0  0  0  0  0  0  0  0
    1.9800  -12.2400   -1.4310 C   0  0  0  0  0  0  0  0  0  0  0  0
    1.4890  -13.5430   -1.5830 C   0  0  0  0  0  0  0  0  0  0  0  0
    1.8540  -14.3620   -2.6600 N   0  0  0  0  0  0  0  0  0  0  0  0
    3.1460  -14.8180   -3.0330 C   0  0  0  0  0  0  0  0  0  0  0  0
    3.6880  -15.9620   -2.3910 C   0  0  0  0  0  0  0  0  0  0  0  0
    3.0270  -16.6790   -1.3630 C   0  0  0  0  0  0  0  0  0  0  0  0
    3.6140  -17.7930   -0.7670 C   0  0  0  0  0  0  0  0  0  0  0  0
    4.8700  -18.2050   -1.1840 C   0  0  0  0  0  0  0  0  0  0  0  0
    5.5300  -17.4980   -2.1910 C   0  0  0  0  0  0  0  0  0  0  0  0
    4.9650  -16.3860   -2.8020 C   0  0  0  0  0  0  0  0  0  0  0  0
    5.6650  -15.7640   -3.7590 N   0  0  0  0  0  0  0  0  0  0  0  0
    5.1370  -14.7060   -4.3900 C   0  0  0  0  0  0  0  0  0  0  0  0
    5.8810  -14.1090   -5.3990 C   0  0  0  0  0  0  0  0  0  0  0  0
    5.4040  -13.0160   -6.1240 C   0  0  0  0  0  0  0  0  0  0  0  0
    4.1480  -12.5030   -5.8400 C   0  0  0  0  0  0  0  0  0  0  0  0
    3.3840  -13.0830   -4.8290 C   0  0  0  0  0  0  0  0  0  0  0  0
    3.8680  -14.1850   -4.0800 C   0  0  0  0  0  0  0  0  0  0  0  0
    0.5810  -14.0200   -0.6300 C   0  0  0  0  0  0  0  0  0  0  0  0
    0.1890  -13.2250    0.4540 C   0  0  0  0  0  0  0  0  0  0  0  0
   -1.0830   -7.7400    7.0280 H   0  0  0  0  0  0  0  0  0  0  0  0
   -2.6560   -8.0390    6.5990 H   0  0  0  0  0  0  0  0  0  0  0  0
   -1.7410   -6.9460    5.7450 H   0  0  0  0  0  0  0  0  0  0  0  0
   -0.1328   -8.9642    5.3567 H   0  0  0  0  0  0  0  0  0  0  0  0
   -1.6695   -9.8894    5.6635 H   0  0  0  0  0  0  0  0  0  0  0  0
   -2.6552   -8.2319    3.8862 H   0  0  0  0  0  0  0  0  0  0  0  0
   -0.8773   -8.1202    3.4056 H   0  0  0  0  0  0  0  0  0  0  0  0
   -1.4810  -10.8565    3.6146 H   0  0  0  0  0  0  0  0  0  0  0  0
   -2.8368  -10.0835    2.6887 H   0  0  0  0  0  0  0  0  0  0  0  0
    1.0000  -11.0310    2.4640 H   0  0  0  0  0  0  0  0  0  0  0  0
    1.9747  -10.4142   -0.2614 H   0  0  0  0  0  0  0  0  0  0  0  0
    2.6882  -11.8398   -2.1714 H   0  0  0  0  0  0  0  0  0  0  0  0
    1.1100  -14.7320   -3.2410 H   0  0  0  0  0  0  0  0  0  0  0  0
    2.0318  -16.3499   -1.0293 H   0  0  0  0  0  0  0  0  0  0  0  0
    3.0856  -18.3406    0.0273 H   0  0  0  0  0  0  0  0  0  0  0  0
    5.3444  -19.0844   -0.7240 H   0  0  0  0  0  0  0  0  0  0  0  0
    6.5282  -17.8320   -2.5103 H   0  0  0  0  0  0  0  0  0  0  0  0
    6.8778  -14.5102   -5.6343 H   0  0  0  0  0  0  0  0  0  0  0  0
    6.0205  -12.5647   -6.9154 H   0  0  0  0  0  0  0  0  0  0  0  0
    3.7577  -11.6455   -6.4077 H   0  0  0  0  0  0  0  0  0  0  0  0
    2.3856  -12.6777   -4.6078 H   0  0  0  0  0  0  0  0  0  0  0  0
    0.1693  -15.0347   -0.7344 H   0  0  0  0  0  0  0  0  0  0  0  0
   -0.5250  -13.6170    1.1933 H   0  0  0  0  0  0  0  0  0  0  0  0
  1  2  1  0
  2  3  1  0
  3  4  1  0
  4  5  1  0
  5  6  2  0
  5  7  2  0
  5  8  1  0
  8  9  1  0
  9 10  2  0
 10 11  1  0
 11 12  2  0
 12 13  1  0
 13 14  1  0
 14 15  1  0
 15 16  2  0
 16 17  1  0
 17 18  2  0
 18 19  1  0
 19 20  2  0
 20 21  1  0
 21 22  2  0
 22 23  1  0
 23 24  2  0
 24 25  1  0
 25 26  2  0
 26 27  1  0
 12 28  1  0
 28 29  2  0
 29  9  1  0
 27 14  2  0
 20 15  1  0
 27 22  1  0
  1 30  1  0
  1 31  1  0
  1 32  1  0
  2 33  1  0
  2 34  1  0
  3 35  1  0
  3 36  1  0
  4 37  1  0
  4 38  1  0
  8 39  1  0
 10 40  1  0
 11 41  1  0
 13 42  1  0
 16 43  1  0
 17 44  1  0
 18 45  1  0
 19 46  1  0
 23 47  1  0
 24 48  1  0
 25 49  1  0
 26 50  1  0
 28 51  1  0
 29 52  1  0
M  CHG  1   1   1
M  END
>  <meeko>  (4) 
{"is_sidechain": [false], "free_energy": -6.942, "intermolecular_energy": -10.105, "internal_energy": -0.98}

$$$$
LIB_HPSPAJJKGOGMIN__M_PUB_ALL__e8__s20260927
     RDKit          3D

 52 55  0  0  0  0  0  0  0  0999 V2000
  -12.4380  -15.5020   10.2530 N   0  0  0  0  0  0  0  0  0  0  0  0
  -12.7430  -15.4730    8.8070 C   0  0  0  0  0  0  0  0  0  0  0  0
  -11.4850  -15.3500    7.9430 C   0  0  0  0  0  0  0  0  0  0  0  0
  -10.2250  -16.0270    8.4980 C   0  0  0  0  0  0  0  0  0  0  0  0
   -9.1290  -16.5660    7.1950 S   0  0  0  0  0  0  0  0  0  0  0  0
   -9.8220  -16.2980    5.9470 O   0  0  0  0  0  0  0  0  0  0  0  0
   -8.7500  -17.9250    7.5080 O   0  0  0  0  0  0  0  0  0  0  0  0
   -7.7840  -15.6050    7.3620 N   0  0  0  0  0  0  0  0  0  0  0  0
   -6.7430  -15.6380    6.3910 C   0  0  0  0  0  0  0  0  0  0  0  0
   -5.7790  -16.6410    6.3870 C   0  0  0  0  0  0  0  0  0  0  0  0
   -4.7920  -16.6590    5.3970 C   0  0  0  0  0  0  0  0  0  0  0  0
   -4.7410  -15.6700    4.4070 C   0  0  0  0  0  0  0  0  0  0  0  0
   -3.7520  -15.6540    3.4120 N   0  0  0  0  0  0  0  0  0  0  0  0
   -2.6720  -14.7470    3.2460 C   0  0  0  0  0  0  0  0  0  0  0  0
   -1.4730  -14.9590    3.9750 C   0  0  0  0  0  0  0  0  0  0  0  0
   -1.2860  -16.0190    4.8970 C   0  0  0  0  0  0  0  0  0  0  0  0
   -0.0850  -16.1720    5.5880 C   0  0  0  0  0  0  0  0  0  0  0  0
    0.9430  -15.2680    5.3730 C   0  0  0  0  0  0  0  0  0  0  0  0
    0.7620  -14.2160    4.4720 C   0  0  0  0  0  0  0  0  0  0  0  0
   -0.4240  -14.0440    3.7700 C   0  0  0  0  0  0  0  0  0  0  0  0
   -0.5170  -13.0090    2.9260 N   0  0  0  0  0  0  0  0  0  0  0  0
   -1.6360  -12.8310    2.2100 C   0  0  0  0  0  0  0  0  0  0  0  0
   -1.6800  -11.7650    1.3210 C   0  0  0  0  0  0  0  0  0  0  0  0
   -2.7960  -11.5140    0.5200 C   0  0  0  0  0  0  0  0  0  0  0  0
   -3.8990  -12.3490    0.6030 C   0  0  0  0  0  0  0  0  0  0  0  0
   -3.8790  -13.4230    1.4910 C   0  0  0  0  0  0  0  0  0  0  0  0
   -2.7550  -13.6770    2.3170 C   0  0  0  0  0  0  0  0  0  0  0  0
   -5.7020  -14.6520    4.4400 C   0  0  0  0  0  0  0  0  0  0  0  0
   -6.6980  -14.6340    5.4240 C   0  0  0  0  0  0  0  0  0  0  0  0
  -13.1660  -15.0350   10.8070 H   0  0  0  0  0  0  0  0  0  0  0  0
  -11.5380  -15.0650   10.4960 H   0  0  0  0  0  0  0  0  0  0  0  0
  -12.4000  -16.4790   10.6180 H   0  0  0  0  0  0  0  0  0  0  0  0
  -13.2656  -16.4029    8.5383 H   0  0  0  0  0  0  0  0  0  0  0  0
  -13.3670  -14.5876    8.6155 H   0  0  0  0  0  0  0  0  0  0  0  0
  -11.7042  -15.7971    6.9622 H   0  0  0  0  0  0  0  0  0  0  0  0
  -11.2538  -14.2753    7.9032 H   0  0  0  0  0  0  0  0  0  0  0  0
   -9.6899  -15.3111    9.1393 H   0  0  0  0  0  0  0  0  0  0  0  0
  -10.5380  -16.9139    9.0685 H   0  0  0  0  0  0  0  0  0  0  0  0
   -7.9600  -14.7080    7.8220 H   0  0  0  0  0  0  0  0  0  0  0  0
   -5.7933  -17.4203    7.1632 H   0  0  0  0  0  0  0  0  0  0  0  0
   -4.0424  -17.4641    5.3957 H   0  0  0  0  0  0  0  0  0  0  0  0
   -3.7580  -16.4070    2.7340 H   0  0  0  0  0  0  0  0  0  0  0  0
   -2.1036  -16.7341    5.0705 H   0  0  0  0  0  0  0  0  0  0  0  0
    0.0454  -17.0026    6.2973 H   0  0  0  0  0  0  0  0  0  0  0  0
    1.8971  -15.3783    5.9093 H   0  0  0  0  0  0  0  0  0  0  0  0
    1.5838  -13.5021    4.3137 H   0  0  0  0  0  0  0  0  0  0  0  0
   -0.8088  -11.0977    1.2455 H   0  0  0  0  0  0  0  0  0  0  0  0
   -2.7996  -10.6592   -0.1723 H   0  0  0  0  0  0  0  0  0  0  0  0
   -4.7824  -12.1657   -0.0264 H   0  0  0  0  0  0  0  0  0  0  0  0
   -4.7535  -14.0875    1.5523 H   0  0  0  0  0  0  0  0  0  0  0  0
   -5.6740  -13.8552    3.6822 H   0  0  0  0  0  0  0  0  0  0  0  0
   -7.4457  -13.8272    5.4344 H   0  0  0  0  0  0  0  0  0  0  0  0
  1  2  1  0
  2  3  1  0
  3  4  1  0
  4  5  1  0
  5  6  2  0
  5  7  2  0
  5  8  1  0
  8  9  1  0
  9 10  2  0
 10 11  1  0
 11 12  2  0
 12 13  1  0
 13 14  1  0
 14 15  1  0
 15 16  2  0
 16 17  1  0
 17 18  2  0
 18 19  1  0
 19 20  2  0
 20 21  1  0
 21 22  2  0
 22 23  1  0
 23 24  2  0
 24 25  1  0
 25 26  2  0
 26 27  1  0
 12 28  1  0
 28 29  2  0
 29  9  1  0
 27 14  2  0
 20 15  1  0
 27 22  1  0
  1 30  1  0
  1 31  1  0
  1 32  1  0
  2 33  1  0
  2 34  1  0
  3 35  1  0
  3 36  1  0
  4 37  1  0
  4 38  1  0
  8 39  1  0
 10 40  1  0
 11 41  1  0
 13 42  1  0
 16 43  1  0
 17 44  1  0
 18 45  1  0
 19 46  1  0
 23 47  1  0
 24 48  1  0
 25 49  1  0
 26 50  1  0
 28 51  1  0
 29 52  1  0
M  CHG  1   1   1
M  END
>  <meeko>  (5) 
{"is_sidechain": [false], "free_energy": -6.91, "intermolecular_energy": -10.129, "internal_energy": -0.91}

$$$$
LIB_HPSPAJJKGOGMIN__M_PUB_ALL__e8__s20260927
     RDKit          3D

 52 55  0  0  0  0  0  0  0  0999 V2000
    9.9620  -12.2510    0.9750 N   0  0  0  0  0  0  0  0  0  0  0  0
   11.3560  -11.8770    0.6540 C   0  0  0  0  0  0  0  0  0  0  0  0
   11.7270  -12.1830   -0.7990 C   0  0  0  0  0  0  0  0  0  0  0  0
   13.1150  -11.7060   -1.2490 C   0  0  0  0  0  0  0  0  0  0  0  0
   13.4020  -12.0290   -2.9810 S   0  0  0  0  0  0  0  0  0  0  0  0
   14.8220  -11.8160   -3.2020 O   0  0  0  0  0  0  0  0  0  0  0  0
   12.4510  -11.2260   -3.7150 O   0  0  0  0  0  0  0  0  0  0  0  0
   12.9890  -13.6260   -3.1790 N   0  0  0  0  0  0  0  0  0  0  0  0
   12.0160  -14.0100   -4.1450 C   0  0  0  0  0  0  0  0  0  0  0  0
   12.3360  -14.1410   -5.4920 C   0  0  0  0  0  0  0  0  0  0  0  0
   11.3620  -14.5540   -6.4060 C   0  0  0  0  0  0  0  0  0  0  0  0
   10.0520  -14.8270   -5.9940 C   0  0  0  0  0  0  0  0  0  0  0  0
    9.0500  -15.2260   -6.8910 N   0  0  0  0  0  0  0  0  0  0  0  0
    8.1120  -14.4230   -7.5920 C   0  0  0  0  0  0  0  0  0  0  0  0
    6.8980  -14.0620   -6.9530 C   0  0  0  0  0  0  0  0  0  0  0  0
    6.5370  -14.4790   -5.6480 C   0  0  0  0  0  0  0  0  0  0  0  0
    5.3250  -14.0950   -5.0750 C   0  0  0  0  0  0  0  0  0  0  0  0
    4.4550  -13.2940   -5.7980 C   0  0  0  0  0  0  0  0  0  0  0  0
    4.8020  -12.8860   -7.0880 C   0  0  0  0  0  0  0  0  0  0  0  0
    6.0030  -13.2540   -7.6780 C   0  0  0  0  0  0  0  0  0  0  0  0
    6.2580  -12.8200   -8.9200 N   0  0  0  0  0  0  0  0  0  0  0  0
    7.4220  -13.1320   -9.5080 C   0  0  0  0  0  0  0  0  0  0  0  0
    7.6620  -12.6360  -10.7830 C   0  0  0  0  0  0  0  0  0  0  0  0
    8.8530  -12.8910  -11.4650 C   0  0  0  0  0  0  0  0  0  0  0  0
    9.8360  -13.6590  -10.8610 C   0  0  0  0  0  0  0  0  0  0  0  0
    9.6160  -14.1710   -9.5830 C   0  0  0  0  0  0  0  0  0  0  0  0
    8.4040  -13.9270   -8.8900 C   0  0  0  0  0  0  0  0  0  0  0  0
    9.7390  -14.6650   -4.6390 C   0  0  0  0  0  0  0  0  0  0  0  0
   10.7120  -14.2600   -3.7180 C   0  0  0  0  0  0  0  0  0  0  0  0
    9.3730  -12.2890    0.1330 H   0  0  0  0  0  0  0  0  0  0  0  0
    9.5050  -11.6140    1.6410 H   0  0  0  0  0  0  0  0  0  0  0  0
    9.9060  -13.2060    1.3910 H   0  0  0  0  0  0  0  0  0  0  0  0
   11.4810  -10.7984    0.8300 H   0  0  0  0  0  0  0  0  0  0  0  0
   12.0182  -12.4724    1.2997 H   0  0  0  0  0  0  0  0  0  0  0  0
   11.6843  -13.2736   -0.9357 H   0  0  0  0  0  0  0  0  0  0  0  0
   11.0056  -11.6262   -1.4151 H   0  0  0  0  0  0  0  0  0  0  0  0
   13.1935  -10.6232   -1.0716 H   0  0  0  0  0  0  0  0  0  0  0  0
   13.8693  -12.2590   -0.6700 H   0  0  0  0  0  0  0  0  0  0  0  0
   13.7520  -14.2840   -3.0020 H   0  0  0  0  0  0  0  0  0  0  0  0
   13.3562  -13.9195   -5.8386 H   0  0  0  0  0  0  0  0  0  0  0  0
   11.6295  -14.6664   -7.4671 H   0  0  0  0  0  0  0  0  0  0  0  0
    8.9970  -16.2100   -7.1260 H   0  0  0  0  0  0  0  0  0  0  0  0
    7.2259  -15.1178   -5.0759 H   0  0  0  0  0  0  0  0  0  0  0  0
    5.0620  -14.4246   -4.0590 H   0  0  0  0  0  0  0  0  0  0  0  0
    3.4964  -12.9813   -5.3582 H   0  0  0  0  0  0  0  0  0  0  0  0
    4.1019  -12.2536   -7.6536 H   0  0  0  0  0  0  0  0  0  0  0  0
    6.8895  -12.0232  -11.2705 H   0  0  0  0  0  0  0  0  0  0  0  0
    9.0103  -12.4851  -12.4752 H   0  0  0  0  0  0  0  0  0  0  0  0
   10.7813  -13.8628  -11.3853 H   0  0  0  0  0  0  0  0  0  0  0  0
   10.3988  -14.7765   -9.1029 H   0  0  0  0  0  0  0  0  0  0  0  0
    8.7130  -14.8589   -4.2931 H   0  0  0  0  0  0  0  0  0  0  0  0
   10.4481  -14.1388   -2.6570 H   0  0  0  0  0  0  0  0  0  0  0  0
  1  2  1  0
  2  3  1  0
  3  4  1  0
  4  5  1  0
  5  6  2  0
  5  7  2  0
  5  8  1  0
  8  9  1  0
  9 10  2  0
 10 11  1  0
 11 12  2  0
 12 13  1  0
 13 14  1  0
 14 15  1  0
 15 16  2  0
 16 17  1  0
 17 18  2  0
 18 19  1  0
 19 20  2  0
 20 21  1  0
 21 22  2  0
 22 23  1  0
 23 24  2  0
 24 25  1  0
 25 26  2  0
 26 27  1  0
 12 28  1  0
 28 29  2  0
 29  9  1  0
 27 14  2  0
 20 15  1  0
 27 22  1  0
  1 30  1  0
  1 31  1  0
  1 32  1  0
  2 33  1  0
  2 34  1  0
  3 35  1  0
  3 36  1  0
  4 37  1  0
  4 38  1  0
  8 39  1  0
 10 40  1  0
 11 41  1  0
 13 42  1  0
 16 43  1  0
 17 44  1  0
 18 45  1  0
 19 46  1  0
 23 47  1  0
 24 48  1  0
 25 49  1  0
 26 50  1  0
 28 51  1  0
 29 52  1  0
M  CHG  1   1   1
M  END
>  <meeko>  (6) 
{"is_sidechain": [false], "free_energy": -6.829, "intermolecular_energy": -9.943, "internal_energy": -0.979}

$$$$
LIB_HPSPAJJKGOGMIN__M_PUB_ALL__e8__s20260927
     RDKit          3D

 52 55  0  0  0  0  0  0  0  0999 V2000
   10.4600  -12.2370    1.6530 N   0  0  0  0  0  0  0  0  0  0  0  0
   11.4050  -11.4030    0.8810 C   0  0  0  0  0  0  0  0  0  0  0  0
   12.4120  -12.2380    0.0850 C   0  0  0  0  0  0  0  0  0  0  0  0
   12.4650  -11.9610   -1.4230 C   0  0  0  0  0  0  0  0  0  0  0  0
   11.1490  -12.7910   -2.3000 S   0  0  0  0  0  0  0  0  0  0  0  0
   10.5810  -11.8050   -3.2040 O   0  0  0  0  0  0  0  0  0  0  0  0
   10.2990  -13.3920   -1.2980 O   0  0  0  0  0  0  0  0  0  0  0  0
   11.9100  -14.0110   -3.1310 N   0  0  0  0  0  0  0  0  0  0  0  0
   11.6510  -14.2180   -4.5160 C   0  0  0  0  0  0  0  0  0  0  0  0
   10.4440  -14.7460   -4.9620 C   0  0  0  0  0  0  0  0  0  0  0  0
   10.2130  -14.9030   -6.3320 C   0  0  0  0  0  0  0  0  0  0  0  0
   11.1860  -14.5520   -7.2760 C   0  0  0  0  0  0  0  0  0  0  0  0
   10.9880  -14.7150   -8.6550 N   0  0  0  0  0  0  0  0  0  0  0  0
   10.9870  -13.7270   -9.6760 C   0  0  0  0  0  0  0  0  0  0  0  0
   12.1950  -13.4390  -10.3600 C   0  0  0  0  0  0  0  0  0  0  0  0
   13.4360  -14.0600  -10.0700 C   0  0  0  0  0  0  0  0  0  0  0  0
   14.5920  -13.7300  -10.7750 C   0  0  0  0  0  0  0  0  0  0  0  0
   14.5280  -12.7720  -11.7740 C   0  0  0  0  0  0  0  0  0  0  0  0
   13.3100  -12.1500  -12.0590 C   0  0  0  0  0  0  0  0  0  0  0  0
   12.1450  -12.4640  -11.3720 C   0  0  0  0  0  0  0  0  0  0  0  0
   11.0200  -11.8200  -11.7070 N   0  0  0  0  0  0  0  0  0  0  0  0
    9.8710  -12.1200  -11.0850 C   0  0  0  0  0  0  0  0  0  0  0  0
    8.7190  -11.4540  -11.4840 C   0  0  0  0  0  0  0  0  0  0  0  0
    7.4750  -11.7160  -10.9080 C   0  0  0  0  0  0  0  0  0  0  0  0
    7.3710  -12.6700   -9.9080 C   0  0  0  0  0  0  0  0  0  0  0  0
    8.5140  -13.3490   -9.4880 C   0  0  0  0  0  0  0  0  0  0  0  0
    9.7830  -13.0790  -10.0600 C   0  0  0  0  0  0  0  0  0  0  0  0
   12.4050  -14.0460   -6.8090 C   0  0  0  0  0  0  0  0  0  0  0  0
   12.6390  -13.8790   -5.4390 C   0  0  0  0  0  0  0  0  0  0  0  0
   10.9360  -13.0130    2.1300 H   0  0  0  0  0  0  0  0  0  0  0  0
    9.7050  -12.6440    1.0840 H   0  0  0  0  0  0  0  0  0  0  0  0
    9.9970  -11.6920    2.4130 H   0  0  0  0  0  0  0  0  0  0  0  0
   10.8321  -10.7788    0.1794 H   0  0  0  0  0  0  0  0  0  0  0  0
   11.9721  -10.7912    1.5980 H   0  0  0  0  0  0  0  0  0  0  0  0
   13.4126  -12.0448    0.4990 H   0  0  0  0  0  0  0  0  0  0  0  0
   12.0801  -13.2819    0.1855 H   0  0  0  0  0  0  0  0  0  0  0  0
   12.3745  -10.8773   -1.5888 H   0  0  0  0  0  0  0  0  0  0  0  0
   13.4231  -12.3424   -1.8059 H   0  0  0  0  0  0  0  0  0  0  0  0
   12.8540  -14.2230   -2.8000 H   0  0  0  0  0  0  0  0  0  0  0  0
    9.6710  -15.0401   -4.2368 H   0  0  0  0  0  0  0  0  0  0  0  0
    9.2499  -15.3094   -6.6744 H   0  0  0  0  0  0  0  0  0  0  0  0
   10.8750  -15.6600   -9.0030 H   0  0  0  0  0  0  0  0  0  0  0  0
   13.4875  -14.8168   -9.2733 H   0  0  0  0  0  0  0  0  0  0  0  0
   15.5459  -14.2252  -10.5407 H   0  0  0  0  0  0  0  0  0  0  0  0
   15.4319  -12.5025  -12.3400 H   0  0  0  0  0  0  0  0  0  0  0  0
   13.2728  -11.3883  -12.8518 H   0  0  0  0  0  0  0  0  0  0  0  0
    8.7895  -10.6966  -12.2786 H   0  0  0  0  0  0  0  0  0  0  0  0
    6.5826  -11.1687  -11.2456 H   0  0  0  0  0  0  0  0  0  0  0  0
    6.3954  -12.8895   -9.4498 H   0  0  0  0  0  0  0  0  0  0  0  0
    8.4296  -14.1091   -8.6973 H   0  0  0  0  0  0  0  0  0  0  0  0
   13.1909  -13.7755   -7.5296 H   0  0  0  0  0  0  0  0  0  0  0  0
   13.6031  -13.4800   -5.0906 H   0  0  0  0  0  0  0  0  0  0  0  0
  1  2  1  0
  2  3  1  0
  3  4  1  0
  4  5  1  0
  5  6  2  0
  5  7  2  0
  5  8  1  0
  8  9  1  0
  9 10  2  0
 10 11  1  0
 11 12  2  0
 12 13  1  0
 13 14  1  0
 14 15  1  0
 15 16  2  0
 16 17  1  0
 17 18  2  0
 18 19  1  0
 19 20  2  0
 20 21  1  0
 21 22  2  0
 22 23  1  0
 23 24  2  0
 24 25  1  0
 25 26  2  0
 26 27  1  0
 12 28  1  0
 28 29  2  0
 29  9  1  0
 27 14  2  0
 20 15  1  0
 27 22  1  0
  1 30  1  0
  1 31  1  0
  1 32  1  0
  2 33  1  0
  2 34  1  0
  3 35  1  0
  3 36  1  0
  4 37  1  0
  4 38  1  0
  8 39  1  0
 10 40  1  0
 11 41  1  0
 13 42  1  0
 16 43  1  0
 17 44  1  0
 18 45  1  0
 19 46  1  0
 23 47  1  0
 24 48  1  0
 25 49  1  0
 26 50  1  0
 28 51  1  0
 29 52  1  0
M  CHG  1   1   1
M  END
>  <meeko>  (7) 
{"is_sidechain": [false], "free_energy": -6.829, "intermolecular_energy": -9.985, "internal_energy": -0.937}

$$$$
LIB_HPSPAJJKGOGMIN__M_PUB_ALL__e8__s20260927
     RDKit          3D

 52 55  0  0  0  0  0  0  0  0999 V2000
  -11.7130  -16.9670   10.2650 N   0  0  0  0  0  0  0  0  0  0  0  0
  -12.1110  -15.8040    9.4440 C   0  0  0  0  0  0  0  0  0  0  0  0
  -10.9720  -15.2920    8.5580 C   0  0  0  0  0  0  0  0  0  0  0  0
  -10.7440  -16.0640    7.2520 C   0  0  0  0  0  0  0  0  0  0  0  0
   -9.1670  -16.9030    7.2400 S   0  0  0  0  0  0  0  0  0  0  0  0
   -9.1270  -17.6690    6.0070 O   0  0  0  0  0  0  0  0  0  0  0  0
   -9.0590  -17.5990    8.5010 O   0  0  0  0  0  0  0  0  0  0  0  0
   -8.0470  -15.6770    7.2300 N   0  0  0  0  0  0  0  0  0  0  0  0
   -6.9410  -15.7100    6.3330 C   0  0  0  0  0  0  0  0  0  0  0  0
   -5.9710  -16.7030    6.4060 C   0  0  0  0  0  0  0  0  0  0  0  0
   -4.9180  -16.7230    5.4860 C   0  0  0  0  0  0  0  0  0  0  0  0
   -4.8080  -15.7440    4.4900 C   0  0  0  0  0  0  0  0  0  0  0  0
   -3.7540  -15.7300    3.5650 N   0  0  0  0  0  0  0  0  0  0  0  0
   -2.6270  -14.8670    3.5150 C   0  0  0  0  0  0  0  0  0  0  0  0
   -2.6740  -13.7150    2.6880 C   0  0  0  0  0  0  0  0  0  0  0  0
   -3.7800  -13.3730    1.8710 C   0  0  0  0  0  0  0  0  0  0  0  0
   -3.7650  -12.2290    1.0750 C   0  0  0  0  0  0  0  0  0  0  0  0
   -2.6440  -11.4130    1.0800 C   0  0  0  0  0  0  0  0  0  0  0  0
   -1.5480  -11.7490    1.8770 C   0  0  0  0  0  0  0  0  0  0  0  0
   -1.5410  -12.8820    2.6790 C   0  0  0  0  0  0  0  0  0  0  0  0
   -0.4480  -13.1330    3.4120 N   0  0  0  0  0  0  0  0  0  0  0  0
   -0.4200  -14.2020    4.2210 C   0  0  0  0  0  0  0  0  0  0  0  0
    0.7180  -14.4080    4.9900 C   0  0  0  0  0  0  0  0  0  0  0  0
    0.8300  -15.4820    5.8740 C   0  0  0  0  0  0  0  0  0  0  0  0
   -0.2220  -16.3760    6.0010 C   0  0  0  0  0  0  0  0  0  0  0  0
   -1.3730  -16.1910    5.2370 C   0  0  0  0  0  0  0  0  0  0  0  0
   -1.4880  -15.1100    4.3270 C   0  0  0  0  0  0  0  0  0  0  0  0
   -5.7790  -14.7360    4.4460 C   0  0  0  0  0  0  0  0  0  0  0  0
   -6.8400  -14.7170    5.3590 C   0  0  0  0  0  0  0  0  0  0  0  0
  -10.8160  -16.8090   10.7420 H   0  0  0  0  0  0  0  0  0  0  0  0
  -11.6280  -17.8420    9.7310 H   0  0  0  0  0  0  0  0  0  0  0  0
  -12.4000  -17.1520   11.0290 H   0  0  0  0  0  0  0  0  0  0  0  0
  -12.9530  -16.0986    8.8004 H   0  0  0  0  0  0  0  0  0  0  0  0
  -12.3905  -14.9913   10.1305 H   0  0  0  0  0  0  0  0  0  0  0  0
  -11.1907  -14.2458    8.2979 H   0  0  0  0  0  0  0  0  0  0  0  0
  -10.0526  -15.4234    9.1474 H   0  0  0  0  0  0  0  0  0  0  0  0
  -11.5443  -16.8096    7.1354 H   0  0  0  0  0  0  0  0  0  0  0  0
  -10.7515  -15.3409    6.4231 H   0  0  0  0  0  0  0  0  0  0  0  0
   -8.4250  -14.7560    7.4640 H   0  0  0  0  0  0  0  0  0  0  0  0
   -6.0318  -17.4739    7.1883 H   0  0  0  0  0  0  0  0  0  0  0  0
   -4.1633  -17.5210    5.5454 H   0  0  0  0  0  0  0  0  0  0  0  0
   -3.7460  -16.4510    2.8530 H   0  0  0  0  0  0  0  0  0  0  0  0
   -4.6675  -14.0229    1.8649 H   0  0  0  0  0  0  0  0  0  0  0  0
   -4.6336  -11.9761    0.4492 H   0  0  0  0  0  0  0  0  0  0  0  0
   -2.6183  -10.5054    0.4591 H   0  0  0  0  0  0  0  0  0  0  0  0
   -0.6629  -11.0959    1.8692 H   0  0  0  0  0  0  0  0  0  0  0  0
    1.5572  -13.7026    4.8995 H   0  0  0  0  0  0  0  0  0  0  0  0
    1.7469  -15.6183    6.4661 H   0  0  0  0  0  0  0  0  0  0  0  0
   -0.1490  -17.2236    6.6983 H   0  0  0  0  0  0  0  0  0  0  0  0
   -2.2091  -16.8981    5.3423 H   0  0  0  0  0  0  0  0  0  0  0  0
   -5.7070  -13.9473    3.6826 H   0  0  0  0  0  0  0  0  0  0  0  0
   -7.5946  -13.9183    5.3081 H   0  0  0  0  0  0  0  0  0  0  0  0
  1  2  1  0
  2  3  1  0
  3  4  1  0
  4  5  1  0
  5  6  2  0
  5  7  2  0
  5  8  1  0
  8  9  1  0
  9 10  2  0
 10 11  1  0
 11 12  2  0
 12 13  1  0
 13 14  1  0
 14 15  1  0
 15 16  2  0
 16 17  1  0
 17 18  2  0
 18 19  1  0
 19 20  2  0
 20 21  1  0
 21 22  2  0
 22 23  1  0
 23 24  2  0
 24 25  1  0
 25 26  2  0
 26 27  1  0
 12 28  1  0
 28 29  2  0
 29  9  1  0
 27 14  2  0
 20 15  1  0
 27 22  1  0
  1 30  1  0
  1 31  1  0
  1 32  1  0
  2 33  1  0
  2 34  1  0
  3 35  1  0
  3 36  1  0
  4 37  1  0
  4 38  1  0
  8 39  1  0
 10 40  1  0
 11 41  1  0
 13 42  1  0
 16 43  1  0
 17 44  1  0
 18 45  1  0
 19 46  1  0
 23 47  1  0
 24 48  1  0
 25 49  1  0
 26 50  1  0
 28 51  1  0
 29 52  1  0
M  CHG  1   1   1
M  END
>  <meeko>  (8) 
{"is_sidechain": [false], "free_energy": -6.824, "intermolecular_energy": -9.833, "internal_energy": -1.082}

$$$$
LIB_HPSPAJJKGOGMIN__M_PUB_ALL__e8__s20260927
     RDKit          3D

 52 55  0  0  0  0  0  0  0  0999 V2000
   15.2140  -11.9140   -3.1210 N   0  0  0  0  0  0  0  0  0  0  0  0
   14.2140  -12.6730   -3.9010 C   0  0  0  0  0  0  0  0  0  0  0  0
   12.7780  -12.3890   -3.4500 C   0  0  0  0  0  0  0  0  0  0  0  0
   12.2590  -13.2530   -2.2930 C   0  0  0  0  0  0  0  0  0  0  0  0
   12.1510  -12.3290   -0.7680 S   0  0  0  0  0  0  0  0  0  0  0  0
   13.0430  -11.1920   -0.9210 O   0  0  0  0  0  0  0  0  0  0  0  0
   12.3910  -13.2680    0.3030 O   0  0  0  0  0  0  0  0  0  0  0  0
   10.5630  -11.8480   -0.6870 N   0  0  0  0  0  0  0  0  0  0  0  0
    9.5430  -12.6000   -1.3360 C   0  0  0  0  0  0  0  0  0  0  0  0
    8.9560  -13.7080   -0.7340 C   0  0  0  0  0  0  0  0  0  0  0  0
    7.9330  -14.4000   -1.3880 C   0  0  0  0  0  0  0  0  0  0  0  0
    7.4910  -14.0100   -2.6590 C   0  0  0  0  0  0  0  0  0  0  0  0
    6.4790  -14.6960   -3.3450 N   0  0  0  0  0  0  0  0  0  0  0  0
    5.0760  -14.6660   -3.1240 C   0  0  0  0  0  0  0  0  0  0  0  0
    4.4720  -15.7100   -2.3780 C   0  0  0  0  0  0  0  0  0  0  0  0
    5.1810  -16.8180   -1.8510 C   0  0  0  0  0  0  0  0  0  0  0  0
    4.5280  -17.8160   -1.1290 C   0  0  0  0  0  0  0  0  0  0  0  0
    3.1600  -17.7260   -0.9280 C   0  0  0  0  0  0  0  0  0  0  0  0
    2.4550  -16.6400   -1.4520 C   0  0  0  0  0  0  0  0  0  0  0  0
    3.0820  -15.6330   -2.1720 C   0  0  0  0  0  0  0  0  0  0  0  0
    2.3320  -14.6280   -2.6410 N   0  0  0  0  0  0  0  0  0  0  0  0
    2.9110  -13.6230   -3.3140 C   0  0  0  0  0  0  0  0  0  0  0  0
    2.1030  -12.5820   -3.7550 C   0  0  0  0  0  0  0  0  0  0  0  0
    2.6200  -11.4850   -4.4460 C   0  0  0  0  0  0  0  0  0  0  0  0
    3.9800  -11.4180   -4.7040 C   0  0  0  0  0  0  0  0  0  0  0  0
    4.8100  -12.4520   -4.2740 C   0  0  0  0  0  0  0  0  0  0  0  0
    4.2900  -13.5760   -3.5830 C   0  0  0  0  0  0  0  0  0  0  0  0
    8.1100  -12.9090   -3.2620 C   0  0  0  0  0  0  0  0  0  0  0  0
    9.1290  -12.2060   -2.6080 C   0  0  0  0  0  0  0  0  0  0  0  0
   15.4070  -12.3550   -2.2130 H   0  0  0  0  0  0  0  0  0  0  0  0
   14.9440  -10.9380   -2.9370 H   0  0  0  0  0  0  0  0  0  0  0  0
   16.1360  -11.8790   -3.6090 H   0  0  0  0  0  0  0  0  0  0  0  0
   14.3114  -12.3979   -4.9616 H   0  0  0  0  0  0  0  0  0  0  0  0
   14.4085  -13.7438   -3.7408 H   0  0  0  0  0  0  0  0  0  0  0  0
   12.7248  -11.3363   -3.1355 H   0  0  0  0  0  0  0  0  0  0  0  0
   12.1402  -12.6304   -4.3131 H   0  0  0  0  0  0  0  0  0  0  0  0
   11.2587  -13.6303   -2.5518 H   0  0  0  0  0  0  0  0  0  0  0  0
   12.9677  -14.0804   -2.1408 H   0  0  0  0  0  0  0  0  0  0  0  0
   10.3080  -11.3780    0.1850 H   0  0  0  0  0  0  0  0  0  0  0  0
    9.2973  -14.0399    0.2577 H   0  0  0  0  0  0  0  0  0  0  0  0
    7.4665  -15.2663   -0.8961 H   0  0  0  0  0  0  0  0  0  0  0  0
    6.7530  -15.2600   -4.1410 H   0  0  0  0  0  0  0  0  0  0  0  0
    6.2663  -16.8920   -2.0145 H   0  0  0  0  0  0  0  0  0  0  0  0
    5.0938  -18.6673   -0.7225 H   0  0  0  0  0  0  0  0  0  0  0  0
    2.6321  -18.5054   -0.3589 H   0  0  0  0  0  0  0  0  0  0  0  0
    1.3688  -16.5812   -1.2888 H   0  0  0  0  0  0  0  0  0  0  0  0
    1.0225  -12.6238   -3.5533 H   0  0  0  0  0  0  0  0  0  0  0  0
    1.9522  -10.6787   -4.7837 H   0  0  0  0  0  0  0  0  0  0  0  0
    4.4007  -10.5565   -5.2433 H   0  0  0  0  0  0  0  0  0  0  0  0
    5.8900  -12.3950   -4.4747 H   0  0  0  0  0  0  0  0  0  0  0  0
    7.7909  -12.5910   -4.2655 H   0  0  0  0  0  0  0  0  0  0  0  0
    9.6031  -11.3426   -3.0977 H   0  0  0  0  0  0  0  0  0  0  0  0
  1  2  1  0
  2  3  1  0
  3  4  1  0
  4  5  1  0
  5  6  2  0
  5  7  2  0
  5  8  1  0
  8  9  1  0
  9 10  2  0
 10 11  1  0
 11 12  2  0
 12 13  1  0
 13 14  1  0
 14 15  1  0
 15 16  2  0
 16 17  1  0
 17 18  2  0
 18 19  1  0
 19 20  2  0
 20 21  1  0
 21 22  2  0
 22 23  1  0
 23 24  2  0
 24 25  1  0
 25 26  2  0
 26 27  1  0
 12 28  1  0
 28 29  2  0
 29  9  1  0
 27 14  2  0
 20 15  1  0
 27 22  1  0
  1 30  1  0
  1 31  1  0
  1 32  1  0
  2 33  1  0
  2 34  1  0
  3 35  1  0
  3 36  1  0
  4 37  1  0
  4 38  1  0
  8 39  1  0
 10 40  1  0
 11 41  1  0
 13 42  1  0
 16 43  1  0
 17 44  1  0
 18 45  1  0
 19 46  1  0
 23 47  1  0
 24 48  1  0
 25 49  1  0
 26 50  1  0
 28 51  1  0
 29 52  1  0
M  CHG  1   1   1
M  END
>  <meeko>  (9) 
{"is_sidechain": [false], "free_energy": -6.787, "intermolecular_energy": -9.756, "internal_energy": -1.106}

$$$$
