LIB_TXFGQQCHKBHRQF__M_PUB_ALL__e8__s20260927
     RDKit          3D

 86 90  0  0  0  0  0  0  0  0999 V2000
    8.5260  -11.8780    0.7060 C   0  0  0  0  0  0  0  0  0  0  0  0
    9.9480  -12.2740    0.4480 C   0  0  0  0  0  0  0  0  0  0  0  0
   10.7990  -12.4040    1.3160 O   0  0  0  0  0  0  0  0  0  0  0  0
   10.1440  -12.4660   -0.8840 O   0  0  0  0  0  0  0  0  0  0  0  0
   10.3840  -13.8310   -1.3180 C   0  0  1  0  0  0  0  0  0  0  0  0
    9.6510  -14.1130   -2.6510 C   0  0  2  0  0  0  0  0  0  0  0  0
    8.2180  -14.0020   -2.4570 O   0  0  0  0  0  0  0  0  0  0  0  0
    7.6560  -12.7900   -2.6940 C   0  0  0  0  0  0  0  0  0  0  0  0
    8.1690  -11.8650   -3.3040 O   0  0  0  0  0  0  0  0  0  0  0  0
    6.2800  -12.7380   -2.1400 C   0  0  0  0  0  0  0  0  0  0  0  0
    5.5810  -11.5330   -1.9940 C   0  0  0  0  0  0  0  0  0  0  0  0
    4.2900  -11.5380   -1.4610 C   0  0  0  0  0  0  0  0  0  0  0  0
    3.6950  -12.7390   -1.0760 C   0  0  0  0  0  0  0  0  0  0  0  0
    4.3850  -13.9420   -1.2250 C   0  0  0  0  0  0  0  0  0  0  0  0
    5.6740  -13.9430   -1.7600 C   0  0  0  0  0  0  0  0  0  0  0  0
    9.9600  -15.5480   -3.2100 C   0  0  1  0  0  0  0  0  0  0  0  0
    9.3300  -16.6130   -2.2600 C   0  0  0  0  0  0  0  0  0  0  0  0
    9.2370  -15.7790   -4.5990 C   0  0  1  0  0  0  0  0  0  0  0  0
    8.9830  -14.5170   -5.2440 O   0  0  0  0  0  0  0  0  0  0  0  0
    8.0360  -14.5120   -6.2180 C   0  0  0  0  0  0  0  0  0  0  0  0
    8.2250  -14.6380   -7.4160 O   0  0  0  0  0  0  0  0  0  0  0  0
    6.7180  -14.3810   -5.5670 C   0  0  0  0  0  0  0  0  0  0  0  0
    5.9310  -13.3370   -5.8660 C   0  0  0  0  0  0  0  0  0  0  0  0
    4.5690  -13.1500   -5.3470 C   0  0  0  0  0  0  0  0  0  0  0  0
    4.0760  -11.8430   -5.2190 C   0  0  0  0  0  0  0  0  0  0  0  0
    2.7920  -11.6090   -4.7190 C   0  0  0  0  0  0  0  0  0  0  0  0
    1.9910  -12.6790   -4.3310 C   0  0  0  0  0  0  0  0  0  0  0  0
    2.4740  -13.9820   -4.4390 C   0  0  0  0  0  0  0  0  0  0  0  0
    3.7570  -14.2150   -4.9400 C   0  0  0  0  0  0  0  0  0  0  0  0
    9.9730  -16.7400   -5.5700 C   0  0  0  0  0  0  0  0  0  0  0  0
   11.5180  -16.7670   -5.4590 C   0  0  2  0  0  0  0  0  0  0  0  0
   11.8480  -17.0800   -4.0040 C   0  0  1  0  0  0  0  0  0  0  0  0
   13.2130  -17.4890   -3.8510 O   0  0  0  0  0  0  0  0  0  0  0  0
   13.4180  -18.7830   -3.4920 C   0  0  0  0  0  0  0  0  0  0  0  0
   12.1370  -19.3930   -3.0150 C   0  0  0  0  0  0  0  0  0  0  0  0
   14.4910  -19.3690   -3.5450 O   0  0  0  0  0  0  0  0  0  0  0  0
   11.5290  -15.6980   -3.3710 C   0  0  1  0  0  0  0  0  0  0  0  0
   11.9100  -14.7130   -4.4130 O   0  0  0  0  0  0  0  0  0  0  0  0
   12.1900  -15.3970   -5.6500 C   0  0  0  0  0  0  0  0  0  0  0  0
   11.6870  -14.5880   -6.8510 C   0  0  0  0  0  0  0  0  0  0  0  0
   13.7220  -15.4680   -5.8270 C   0  0  0  0  0  0  0  0  0  0  0  0
   12.3490  -15.3220   -2.0790 C   0  0  1  0  0  0  0  0  0  0  0  0
   12.3710  -16.3890   -0.9760 C   0  0  0  0  0  0  0  0  0  0  0  0
   13.7380  -15.1470   -2.4470 O   0  0  0  0  0  0  0  0  0  0  0  0
   11.9040  -13.9570   -1.4860 C   0  0  1  0  0  0  0  0  0  0  0  0
   12.3950  -12.8910   -2.3270 O   0  0  0  0  0  0  0  0  0  0  0  0
    8.3501  -11.8290    1.7907 H   0  0  0  0  0  0  0  0  0  0  0  0
    8.3330  -10.8919    0.2583 H   0  0  0  0  0  0  0  0  0  0  0  0
    7.8511  -12.6224    0.2583 H   0  0  0  0  0  0  0  0  0  0  0  0
   10.0033  -14.5625   -0.5900 H   0  0  0  0  0  0  0  0  0  0  0  0
   10.0116  -13.3695   -3.3771 H   0  0  0  0  0  0  0  0  0  0  0  0
    6.0479  -10.5847   -2.2985 H   0  0  0  0  0  0  0  0  0  0  0  0
    3.7410  -10.5919   -1.3446 H   0  0  0  0  0  0  0  0  0  0  0  0
    2.6792  -12.7376   -0.6539 H   0  0  0  0  0  0  0  0  0  0  0  0
    3.9139  -14.8885   -0.9213 H   0  0  0  0  0  0  0  0  0  0  0  0
    6.2158  -14.8923   -1.8837 H   0  0  0  0  0  0  0  0  0  0  0  0
    9.5035  -16.3197   -1.2141 H   0  0  0  0  0  0  0  0  0  0  0  0
    8.2481  -16.6778   -2.4480 H   0  0  0  0  0  0  0  0  0  0  0  0
    9.7942  -17.5924   -2.4480 H   0  0  0  0  0  0  0  0  0  0  0  0
    8.2913  -16.2842   -4.3532 H   0  0  0  0  0  0  0  0  0  0  0  0
    6.3829  -15.1357   -4.8403 H   0  0  0  0  0  0  0  0  0  0  0  0
    6.3317  -12.5698   -6.5448 H   0  0  0  0  0  0  0  0  0  0  0  0
    4.7073  -10.9924   -5.5156 H   0  0  0  0  0  0  0  0  0  0  0  0
    2.4146  -10.5794   -4.6322 H   0  0  0  0  0  0  0  0  0  0  0  0
    0.9791  -12.4968   -3.9400 H   0  0  0  0  0  0  0  0  0  0  0  0
    1.8436  -14.8285   -4.1291 H   0  0  0  0  0  0  0  0  0  0  0  0
    4.1330  -15.2460   -5.0154 H   0  0  0  0  0  0  0  0  0  0  0  0
    9.6042  -17.7586   -5.3790 H   0  0  0  0  0  0  0  0  0  0  0  0
    9.7552  -16.3639   -6.5805 H   0  0  0  0  0  0  0  0  0  0  0  0
   11.8650  -17.4765   -6.2246 H   0  0  0  0  0  0  0  0  0  0  0  0
   11.2992  -17.9176   -3.5487 H   0  0  0  0  0  0  0  0  0  0  0  0
   12.1216  -19.4003   -1.9151 H   0  0  0  0  0  0  0  0  0  0  0  0
   11.2879  -18.8026   -3.3897 H   0  0  0  0  0  0  0  0  0  0  0  0
   12.0602  -20.4244   -3.3897 H   0  0  0  0  0  0  0  0  0  0  0  0
   11.1377  -13.7045   -6.4938 H   0  0  0  0  0  0  0  0  0  0  0  0
   12.5439  -14.2653   -7.4605 H   0  0  0  0  0  0  0  0  0  0  0  0
   11.0185  -15.2137   -7.4605 H   0  0  0  0  0  0  0  0  0  0  0  0
   14.2046  -15.4904   -4.8388 H   0  0  0  0  0  0  0  0  0  0  0  0
   13.9849  -16.3793   -6.3842 H   0  0  0  0  0  0  0  0  0  0  0  0
   14.0681  -14.5849   -6.3842 H   0  0  0  0  0  0  0  0  0  0  0  0
   12.3609  -15.8987    0.0087 H   0  0  0  0  0  0  0  0  0  0  0  0
   11.4860  -17.0350   -1.0731 H   0  0  0  0  0  0  0  0  0  0  0  0
   13.2819  -16.9980   -1.0731 H   0  0  0  0  0  0  0  0  0  0  0  0
   14.2180  -15.2910   -1.6020 H   0  0  0  0  0  0  0  0  0  0  0  0
   12.3342  -13.8881   -0.4760 H   0  0  0  0  0  0  0  0  0  0  0  0
   12.6130  -13.2940   -3.1900 H   0  0  0  0  0  0  0  0  0  0  0  0
  1  2  1  0
  2  3  2  0
  2  4  1  0
  4  5  1  0
  5  6  1  0
  6  7  1  0
  7  8  1  0
  8  9  2  0
  8 10  1  0
 10 11  2  0
 11 12  1  0
 12 13  2  0
 13 14  1  0
 14 15  2  0
  6 16  1  0
 16 17  1  1
 16 18  1  0
 18 19  1  0
 19 20  1  0
 20 21  2  0
 20 22  1  0
 22 23  2  0
 23 24  1  0
 24 25  2  0
 25 26  1  0
 26 27  2  0
 27 28  1  0
 28 29  2  0
 18 30  1  0
 30 31  1  0
 31 32  1  0
 32 33  1  0
 33 34  1  0
 34 35  1  0
 34 36  2  0
 32 37  1  0
 37 38  1  6
 38 39  1  0
 39 40  1  0
 39 41  1  0
 37 42  1  0
 42 43  1  0
 42 44  1  6
 42 45  1  0
 45 46  1  0
 45  5  1  0
 15 10  1  0
 37 16  1  0
 29 24  1  0
 39 31  1  0
  1 47  1  0
  1 48  1  0
  1 49  1  0
  5 50  1  1
  6 51  1  6
 11 52  1  0
 12 53  1  0
 13 54  1  0
 14 55  1  0
 15 56  1  0
 17 57  1  0
 17 58  1  0
 17 59  1  0
 18 60  1  1
 22 61  1  0
 23 62  1  0
 25 63  1  0
 26 64  1  0
 27 65  1  0
 28 66  1  0
 29 67  1  0
 30 68  1  0
 30 69  1  0
 31 70  1  6
 32 71  1  1
 35 72  1  0
 35 73  1  0
 35 74  1  0
 40 75  1  0
 40 76  1  0
 40 77  1  0
 41 78  1  0
 41 79  1  0
 41 80  1  0
 43 81  1  0
 43 82  1  0
 43 83  1  0
 44 84  1  0
 45 85  1  1
 46 86  1  0
M  END
>  <meeko>  (1) 
{"is_sidechain": [false], "free_energy": -7.156, "intermolecular_energy": -12.176, "internal_energy": -5.071}

$$$$
LIB_TXFGQQCHKBHRQF__M_PUB_ALL__e8__s20260927
     RDKit          3D

 86 90  0  0  0  0  0  0  0  0999 V2000
   -3.5330  -10.6060   -0.6280 C   0  0  0  0  0  0  0  0  0  0  0  0
   -2.5260  -10.1850    0.3980 C   0  0  0  0  0  0  0  0  0  0  0  0
   -2.7120   -9.3130    1.2350 O   0  0  0  0  0  0  0  0  0  0  0  0
   -1.3860  -10.9140    0.2590 O   0  0  0  0  0  0  0  0  0  0  0  0
   -1.5060  -12.3520    0.4320 C   0  0  1  0  0  0  0  0  0  0  0  0
   -0.1070  -13.0090    0.4900 C   0  0  2  0  0  0  0  0  0  0  0  0
    0.5790  -12.8160   -0.7730 O   0  0  0  0  0  0  0  0  0  0  0  0
    1.4640  -11.7910   -0.8430 C   0  0  0  0  0  0  0  0  0  0  0  0
    1.8490  -11.1070    0.0910 O   0  0  0  0  0  0  0  0  0  0  0  0
    1.9530  -11.6210   -2.2340 C   0  0  0  0  0  0  0  0  0  0  0  0
    2.5370  -10.4280   -2.6780 C   0  0  0  0  0  0  0  0  0  0  0  0
    2.9770  -10.3170   -4.0000 C   0  0  0  0  0  0  0  0  0  0  0  0
    2.8380  -11.3930   -4.8760 C   0  0  0  0  0  0  0  0  0  0  0  0
    2.2630  -12.5850   -4.4370 C   0  0  0  0  0  0  0  0  0  0  0  0
    1.8250  -12.7010   -3.1170 C   0  0  0  0  0  0  0  0  0  0  0  0
   -0.1850  -14.5520    0.7750 C   0  0  1  0  0  0  0  0  0  0  0  0
   -0.8320  -15.2660   -0.4530 C   0  0  0  0  0  0  0  0  0  0  0  0
    1.2650  -15.1800    0.8790 C   0  0  1  0  0  0  0  0  0  0  0  0
    2.2190  -14.1680    1.2530 O   0  0  0  0  0  0  0  0  0  0  0  0
    3.5280  -14.4580    1.0370 C   0  0  0  0  0  0  0  0  0  0  0  0
    4.3490  -14.7800    1.8790 O   0  0  0  0  0  0  0  0  0  0  0  0
    3.7770  -14.3700   -0.4150 C   0  0  0  0  0  0  0  0  0  0  0  0
    4.8070  -13.6400   -0.8680 C   0  0  0  0  0  0  0  0  0  0  0  0
    5.2020  -13.5490   -2.2810 C   0  0  0  0  0  0  0  0  0  0  0  0
    4.9760  -14.6570   -3.1100 C   0  0  0  0  0  0  0  0  0  0  0  0
    5.3450  -14.6280   -4.4580 C   0  0  0  0  0  0  0  0  0  0  0  0
    5.9520  -13.4940   -4.9890 C   0  0  0  0  0  0  0  0  0  0  0  0
    6.1950  -12.3910   -4.1720 C   0  0  0  0  0  0  0  0  0  0  0  0
    5.8260  -12.4210   -2.8250 C   0  0  0  0  0  0  0  0  0  0  0  0
    1.3830  -16.4040    1.8260 C   0  0  0  0  0  0  0  0  0  0  0  0
    0.4130  -16.4260    3.0330 C   0  0  2  0  0  0  0  0  0  0  0  0
   -0.9960  -16.2900    2.4660 C   0  0  1  0  0  0  0  0  0  0  0  0
   -1.9890  -16.6600    3.4320 O   0  0  0  0  0  0  0  0  0  0  0  0
   -2.6430  -17.8290    3.2070 C   0  0  0  0  0  0  0  0  0  0  0  0
   -3.9190  -17.8620    3.9890 C   0  0  0  0  0  0  0  0  0  0  0  0
   -2.2520  -18.7290    2.4750 O   0  0  0  0  0  0  0  0  0  0  0  0
   -0.9840  -14.7750    2.1240 C   0  0  1  0  0  0  0  0  0  0  0  0
   -0.1440  -14.1600    3.1810 O   0  0  0  0  0  0  0  0  0  0  0  0
    0.5090  -15.1920    3.9460 C   0  0  0  0  0  0  0  0  0  0  0  0
    1.9350  -14.7760    4.3270 C   0  0  0  0  0  0  0  0  0  0  0  0
   -0.2370  -15.3440    5.2890 C   0  0  0  0  0  0  0  0  0  0  0  0
   -2.3770  -14.0410    2.1780 C   0  0  1  0  0  0  0  0  0  0  0  0
   -3.5150  -14.7240    1.4050 C   0  0  0  0  0  0  0  0  0  0  0  0
   -2.8330  -14.0140    3.5520 O   0  0  0  0  0  0  0  0  0  0  0  0
   -2.2660  -12.5520    1.7500 C   0  0  1  0  0  0  0  0  0  0  0  0
   -1.6270  -11.8010    2.8050 O   0  0  0  0  0  0  0  0  0  0  0  0
   -4.4348  -10.9830   -0.1235 H   0  0  0  0  0  0  0  0  0  0  0  0
   -3.7982   -9.7434   -1.2570 H   0  0  0  0  0  0  0  0  0  0  0  0
   -3.1054  -11.4007   -1.2570 H   0  0  0  0  0  0  0  0  0  0  0  0
   -2.0378  -12.8217   -0.4086 H   0  0  0  0  0  0  0  0  0  0  0  0
    0.4388  -12.5276    1.3148 H   0  0  0  0  0  0  0  0  0  0  0  0
    2.6493   -9.5794   -1.9872 H   0  0  0  0  0  0  0  0  0  0  0  0
    3.4336   -9.3794   -4.3499 H   0  0  0  0  0  0  0  0  0  0  0  0
    3.1830  -11.3012   -5.9165 H   0  0  0  0  0  0  0  0  0  0  0  0
    2.1548  -13.4325   -5.1299 H   0  0  0  0  0  0  0  0  0  0  0  0
    1.3777  -13.6437   -2.7687 H   0  0  0  0  0  0  0  0  0  0  0  0
   -1.5319  -16.0383   -0.1013 H   0  0  0  0  0  0  0  0  0  0  0  0
   -1.3756  -14.5283   -1.0616 H   0  0  0  0  0  0  0  0  0  0  0  0
   -0.0445  -15.7345   -1.0616 H   0  0  0  0  0  0  0  0  0  0  0  0
    1.4865  -15.5682   -0.1261 H   0  0  0  0  0  0  0  0  0  0  0  0
    3.1216  -14.9001   -1.1217 H   0  0  0  0  0  0  0  0  0  0  0  0
    5.3955  -13.0714   -0.1330 H   0  0  0  0  0  0  0  0  0  0  0  0
    4.5030  -15.5592   -2.6950 H   0  0  0  0  0  0  0  0  0  0  0  0
    5.1555  -15.5016   -5.0990 H   0  0  0  0  0  0  0  0  0  0  0  0
    6.2393  -13.4680   -6.0505 H   0  0  0  0  0  0  0  0  0  0  0  0
    6.6783  -11.4951   -4.5888 H   0  0  0  0  0  0  0  0  0  0  0  0
    6.0280  -11.5490   -2.1856 H   0  0  0  0  0  0  0  0  0  0  0  0
    1.1984  -17.3097    1.2296 H   0  0  0  0  0  0  0  0  0  0  0  0
    2.3927  -16.3472    2.2587 H   0  0  0  0  0  0  0  0  0  0  0  0
    0.6505  -17.3406    3.5961 H   0  0  0  0  0  0  0  0  0  0  0  0
   -1.2432  -16.9392    1.6131 H   0  0  0  0  0  0  0  0  0  0  0  0
   -3.6899  -17.8561    5.0649 H   0  0  0  0  0  0  0  0  0  0  0  0
   -4.5256  -16.9792    3.7384 H   0  0  0  0  0  0  0  0  0  0  0  0
   -4.4791  -18.7749    3.7384 H   0  0  0  0  0  0  0  0  0  0  0  0
    2.0286  -14.7487    5.4227 H   0  0  0  0  0  0  0  0  0  0  0  0
    2.6512  -15.5027    3.9158 H   0  0  0  0  0  0  0  0  0  0  0  0
    2.1481  -13.7782    3.9158 H   0  0  0  0  0  0  0  0  0  0  0  0
    0.4699  -15.2000    6.1194 H   0  0  0  0  0  0  0  0  0  0  0  0
   -1.0355  -14.5901    5.3523 H   0  0  0  0  0  0  0  0  0  0  0  0
   -0.6769  -16.3502    5.3523 H   0  0  0  0  0  0  0  0  0  0  0  0
   -4.2342  -15.1556    2.1166 H   0  0  0  0  0  0  0  0  0  0  0  0
   -4.0251  -13.9827    0.7724 H   0  0  0  0  0  0  0  0  0  0  0  0
   -3.1007  -15.5228    0.7724 H   0  0  0  0  0  0  0  0  0  0  0  0
   -2.7300  -14.9460    3.8450 H   0  0  0  0  0  0  0  0  0  0  0  0
   -3.2893  -12.1879    1.5761 H   0  0  0  0  0  0  0  0  0  0  0  0
   -2.0680  -10.9300    2.8350 H   0  0  0  0  0  0  0  0  0  0  0  0
  1  2  1  0
  2  3  2  0
  2  4  1  0
  4  5  1  0
  5  6  1  0
  6  7  1  0
  7  8  1  0
  8  9  2  0
  8 10  1  0
 10 11  2  0
 11 12  1  0
 12 13  2  0
 13 14  1  0
 14 15  2  0
  6 16  1  0
 16 17  1  6
 16 18  1  0
 18 19  1  0
 19 20  1  0
 20 21  2  0
 20 22  1  0
 22 23  2  0
 23 24  1  0
 24 25  2  0
 25 26  1  0
 26 27  2  0
 27 28  1  0
 28 29  2  0
 18 30  1  0
 30 31  1  0
 31 32  1  0
 32 33  1  0
 33 34  1  0
 34 35  1  0
 34 36  2  0
 32 37  1  0
 37 38  1  1
 38 39  1  0
 39 40  1  0
 39 41  1  0
 37 42  1  0
 42 43  1  0
 42 44  1  1
 42 45  1  0
 45 46  1  0
 45  5  1  0
 15 10  1  0
 37 16  1  0
 29 24  1  0
 39 31  1  0
  1 47  1  0
  1 48  1  0
  1 49  1  0
  5 50  1  6
  6 51  1  1
 11 52  1  0
 12 53  1  0
 13 54  1  0
 14 55  1  0
 15 56  1  0
 17 57  1  0
 17 58  1  0
 17 59  1  0
 18 60  1  6
 22 61  1  0
 23 62  1  0
 25 63  1  0
 26 64  1  0
 27 65  1  0
 28 66  1  0
 29 67  1  0
 30 68  1  0
 30 69  1  0
 31 70  1  1
 32 71  1  6
 35 72  1  0
 35 73  1  0
 35 74  1  0
 40 75  1  0
 40 76  1  0
 40 77  1  0
 41 78  1  0
 41 79  1  0
 41 80  1  0
 43 81  1  0
 43 82  1  0
 43 83  1  0
 44 84  1  0
 45 85  1  6
 46 86  1  0
M  END
>  <meeko>  (2) 
{"is_sidechain": [false], "free_energy": -7.149, "intermolecular_energy": -12.85, "internal_energy": -4.385}

$$$$
LIB_TXFGQQCHKBHRQF__M_PUB_ALL__e8__s20260927
     RDKit          3D

 86 90  0  0  0  0  0  0  0  0999 V2000
    7.4510   -8.8430    0.5160 C   0  0  0  0  0  0  0  0  0  0  0  0
    6.6760   -9.4680    1.6360 C   0  0  0  0  0  0  0  0  0  0  0  0
    6.0650   -8.8420    2.4900 O   0  0  0  0  0  0  0  0  0  0  0  0
    6.7550  -10.8240    1.5570 O   0  0  0  0  0  0  0  0  0  0  0  0
    5.8920  -11.4710    0.5830 C   0  0  1  0  0  0  0  0  0  0  0  0
    6.5750  -12.7350    0.0100 C   0  0  2  0  0  0  0  0  0  0  0  0
    7.7760  -12.3590   -0.7110 O   0  0  0  0  0  0  0  0  0  0  0  0
    8.9520  -12.4560   -0.0410 C   0  0  0  0  0  0  0  0  0  0  0  0
    9.0840  -12.6110    1.1620 O   0  0  0  0  0  0  0  0  0  0  0  0
   10.0950  -12.3870   -0.9850 C   0  0  0  0  0  0  0  0  0  0  0  0
   11.4250  -12.3720   -0.5460 C   0  0  0  0  0  0  0  0  0  0  0  0
   12.4650  -12.3000   -1.4750 C   0  0  0  0  0  0  0  0  0  0  0  0
   12.1820  -12.2470   -2.8400 C   0  0  0  0  0  0  0  0  0  0  0  0
   10.8600  -12.2680   -3.2820 C   0  0  0  0  0  0  0  0  0  0  0  0
    9.8170  -12.3420   -2.3580 C   0  0  0  0  0  0  0  0  0  0  0  0
    5.6390  -13.5240   -0.9750 C   0  0  1  0  0  0  0  0  0  0  0  0
    5.4080  -12.6660   -2.2580 C   0  0  0  0  0  0  0  0  0  0  0  0
    6.3510  -14.8360   -1.5000 C   0  0  1  0  0  0  0  0  0  0  0  0
    7.3600  -15.2620   -0.5650 O   0  0  0  0  0  0  0  0  0  0  0  0
    8.1500  -16.2960   -0.9530 C   0  0  0  0  0  0  0  0  0  0  0  0
    8.0020  -17.4720   -0.6630 O   0  0  0  0  0  0  0  0  0  0  0  0
    9.1990  -15.7570   -1.8400 C   0  0  0  0  0  0  0  0  0  0  0  0
   10.3880  -16.3730   -1.9120 C   0  0  0  0  0  0  0  0  0  0  0  0
   11.4730  -15.9780   -2.8220 C   0  0  0  0  0  0  0  0  0  0  0  0
   11.1570  -15.7040   -4.1600 C   0  0  0  0  0  0  0  0  0  0  0  0
   12.1530  -15.3380   -5.0690 C   0  0  0  0  0  0  0  0  0  0  0  0
   13.4780  -15.2490   -4.6510 C   0  0  0  0  0  0  0  0  0  0  0  0
   13.8070  -15.5310   -3.3270 C   0  0  0  0  0  0  0  0  0  0  0  0
   12.8110  -15.8980   -2.4190 C   0  0  0  0  0  0  0  0  0  0  0  0
    5.3960  -16.0130   -1.8310 C   0  0  0  0  0  0  0  0  0  0  0  0
    4.0950  -16.0900   -0.9950 C   0  0  2  0  0  0  0  0  0  0  0  0
    3.3970  -14.7420   -1.1450 C   0  0  1  0  0  0  0  0  0  0  0  0
    2.0280  -14.8110   -0.7260 O   0  0  0  0  0  0  0  0  0  0  0  0
    1.1000  -14.9080   -1.7130 C   0  0  0  0  0  0  0  0  0  0  0  0
    1.6140  -14.2700   -2.9660 C   0  0  0  0  0  0  0  0  0  0  0  0
    0.0010  -15.4340   -1.6010 O   0  0  0  0  0  0  0  0  0  0  0  0
    4.2990  -13.8870   -0.2130 C   0  0  1  0  0  0  0  0  0  0  0  0
    4.7060  -14.8170    0.8700 O   0  0  0  0  0  0  0  0  0  0  0  0
    4.3230  -16.1630    0.5240 C   0  0  0  0  0  0  0  0  0  0  0  0
    5.3870  -17.1700    0.9740 C   0  0  0  0  0  0  0  0  0  0  0  0
    3.0580  -16.5280    1.3330 C   0  0  0  0  0  0  0  0  0  0  0  0
    3.6030  -12.6610    0.4910 C   0  0  1  0  0  0  0  0  0  0  0  0
    2.8100  -11.7300   -0.4370 C   0  0  0  0  0  0  0  0  0  0  0  0
    2.6240  -13.1620    1.4320 O   0  0  0  0  0  0  0  0  0  0  0  0
    4.6060  -11.8330    1.3400 C   0  0  1  0  0  0  0  0  0  0  0  0
    4.9320  -12.5670    2.5400 O   0  0  0  0  0  0  0  0  0  0  0  0
    8.2440   -8.2035    0.9310 H   0  0  0  0  0  0  0  0  0  0  0  0
    7.9028   -9.6325   -0.1026 H   0  0  0  0  0  0  0  0  0  0  0  0
    6.7751   -8.2342   -0.1026 H   0  0  0  0  0  0  0  0  0  0  0  0
    5.6782  -10.8145   -0.2733 H   0  0  0  0  0  0  0  0  0  0  0  0
    6.8122  -13.3861    0.8643 H   0  0  0  0  0  0  0  0  0  0  0  0
   11.6501  -12.4169    0.5298 H   0  0  0  0  0  0  0  0  0  0  0  0
   13.5093  -12.2850   -1.1299 H   0  0  0  0  0  0  0  0  0  0  0  0
   13.0036  -12.1885   -3.5690 H   0  0  0  0  0  0  0  0  0  0  0  0
   10.6392  -12.2262   -4.3588 H   0  0  0  0  0  0  0  0  0  0  0  0
    8.7744  -12.3651   -2.7079 H   0  0  0  0  0  0  0  0  0  0  0  0
    5.1321  -11.6411   -1.9690 H   0  0  0  0  0  0  0  0  0  0  0  0
    6.3318  -12.6426   -2.8547 H   0  0  0  0  0  0  0  0  0  0  0  0
    4.5973  -13.1095   -2.8547 H   0  0  0  0  0  0  0  0  0  0  0  0
    6.8074  -14.5541   -2.4603 H   0  0  0  0  0  0  0  0  0  0  0  0
    9.0066  -14.8547   -2.4390 H   0  0  0  0  0  0  0  0  0  0  0  0
   10.5631  -17.2308   -1.2460 H   0  0  0  0  0  0  0  0  0  0  0  0
   10.1129  -15.7780   -4.4982 H   0  0  0  0  0  0  0  0  0  0  0  0
   11.8903  -15.1202   -6.1147 H   0  0  0  0  0  0  0  0  0  0  0  0
   14.2629  -14.9568   -5.3642 H   0  0  0  0  0  0  0  0  0  0  0  0
   14.8538  -15.4645   -2.9957 H   0  0  0  0  0  0  0  0  0  0  0  0
   13.0808  -16.1263   -1.3773 H   0  0  0  0  0  0  0  0  0  0  0  0
    5.1106  -15.9267   -2.8898 H   0  0  0  0  0  0  0  0  0  0  0  0
    5.9580  -16.9269   -1.5881 H   0  0  0  0  0  0  0  0  0  0  0  0
    3.5594  -16.9838   -1.3476 H   0  0  0  0  0  0  0  0  0  0  0  0
    3.3111  -14.3479   -2.1684 H   0  0  0  0  0  0  0  0  0  0  0  0
    2.2845  -13.4378   -2.7053 H   0  0  0  0  0  0  0  0  0  0  0  0
    2.1670  -15.0152   -3.5567 H   0  0  0  0  0  0  0  0  0  0  0  0
    0.7682  -13.8882   -3.5567 H   0  0  0  0  0  0  0  0  0  0  0  0
    5.4204  -17.2016    2.0730 H   0  0  0  0  0  0  0  0  0  0  0  0
    5.1348  -18.1679    0.5860 H   0  0  0  0  0  0  0  0  0  0  0  0
    6.3695  -16.8633    0.5860 H   0  0  0  0  0  0  0  0  0  0  0  0
    3.2795  -16.4641    2.4086 H   0  0  0  0  0  0  0  0  0  0  0  0
    2.2480  -15.8269    1.0832 H   0  0  0  0  0  0  0  0  0  0  0  0
    2.7460  -17.5528    1.0832 H   0  0  0  0  0  0  0  0  0  0  0  0
    2.2141  -11.0304    0.1675 H   0  0  0  0  0  0  0  0  0  0  0  0
    3.5076  -11.1639   -1.0717 H   0  0  0  0  0  0  0  0  0  0  0  0
    2.1401  -12.3286   -1.0717 H   0  0  0  0  0  0  0  0  0  0  0  0
    1.7670  -12.9860    0.9850 H   0  0  0  0  0  0  0  0  0  0  0  0
    4.1128  -10.8812    1.5864 H   0  0  0  0  0  0  0  0  0  0  0  0
    5.9040  -12.5390    2.6290 H   0  0  0  0  0  0  0  0  0  0  0  0
  1  2  1  0
  2  3  2  0
  2  4  1  0
  4  5  1  0
  5  6  1  0
  6  7  1  0
  7  8  1  0
  8  9  2  0
  8 10  1  0
 10 11  2  0
 11 12  1  0
 12 13  2  0
 13 14  1  0
 14 15  2  0
  6 16  1  0
 16 17  1  6
 16 18  1  0
 18 19  1  0
 19 20  1  0
 20 21  2  0
 20 22  1  0
 22 23  2  0
 23 24  1  0
 24 25  2  0
 25 26  1  0
 26 27  2  0
 27 28  1  0
 28 29  2  0
 18 30  1  0
 30 31  1  0
 31 32  1  0
 32 33  1  0
 33 34  1  0
 34 35  1  0
 34 36  2  0
 32 37  1  0
 37 38  1  1
 38 39  1  0
 39 40  1  0
 39 41  1  0
 37 42  1  0
 42 43  1  0
 42 44  1  1
 42 45  1  0
 45 46  1  0
 45  5  1  0
 15 10  1  0
 37 16  1  0
 29 24  1  0
 39 31  1  0
  1 47  1  0
  1 48  1  0
  1 49  1  0
  5 50  1  6
  6 51  1  1
 11 52  1  0
 12 53  1  0
 13 54  1  0
 14 55  1  0
 15 56  1  0
 17 57  1  0
 17 58  1  0
 17 59  1  0
 18 60  1  6
 22 61  1  0
 23 62  1  0
 25 63  1  0
 26 64  1  0
 27 65  1  0
 28 66  1  0
 29 67  1  0
 30 68  1  0
 30 69  1  0
 31 70  1  6
 32 71  1  6
 35 72  1  0
 35 73  1  0
 35 74  1  0
 40 75  1  0
 40 76  1  0
 40 77  1  0
 41 78  1  0
 41 79  1  0
 41 80  1  0
 43 81  1  0
 43 82  1  0
 43 83  1  0
 44 84  1  0
 45 85  1  1
 46 86  1  0
M  END
>  <meeko>  (3) 
{"is_sidechain": [false], "free_energy": -7.054, "intermolecular_energy": -12.802, "internal_energy": -4.272}

$$$$
LIB_TXFGQQCHKBHRQF__M_PUB_ALL__e8__s20260927
     RDKit          3D

 86 90  0  0  0  0  0  0  0  0999 V2000
    3.4460  -10.7520   -3.3360 C   0  0  0  0  0  0  0  0  0  0  0  0
    4.4850  -11.4770   -2.5360 C   0  0  0  0  0  0  0  0  0  0  0  0
    4.3560  -11.8030   -1.3650 O   0  0  0  0  0  0  0  0  0  0  0  0
    5.5830  -11.7150   -3.3040 O   0  0  0  0  0  0  0  0  0  0  0  0
    6.5760  -12.6240   -2.7590 C   0  0  1  0  0  0  0  0  0  0  0  0
    6.8210  -13.8040   -3.7280 C   0  0  2  0  0  0  0  0  0  0  0  0
    5.6050  -14.5820   -3.8720 O   0  0  0  0  0  0  0  0  0  0  0  0
    4.7110  -14.1610   -4.8000 C   0  0  0  0  0  0  0  0  0  0  0  0
    4.9740  -13.7430   -5.9160 O   0  0  0  0  0  0  0  0  0  0  0  0
    3.3250  -14.3130   -4.2930 C   0  0  0  0  0  0  0  0  0  0  0  0
    3.0510  -14.7770   -2.9990 C   0  0  0  0  0  0  0  0  0  0  0  0
    1.7280  -14.9090   -2.5720 C   0  0  0  0  0  0  0  0  0  0  0  0
    0.6780  -14.5760   -3.4290 C   0  0  0  0  0  0  0  0  0  0  0  0
    0.9460  -14.1080   -4.7150 C   0  0  0  0  0  0  0  0  0  0  0  0
    2.2670  -13.9730   -5.1460 C   0  0  0  0  0  0  0  0  0  0  0  0
    7.9600  -14.7630   -3.2250 C   0  0  1  0  0  0  0  0  0  0  0  0
    7.4780  -15.4950   -1.9340 C   0  0  0  0  0  0  0  0  0  0  0  0
    8.2180  -15.9260   -4.2670 C   0  0  1  0  0  0  0  0  0  0  0  0
    7.8010  -15.5170   -5.5830 O   0  0  0  0  0  0  0  0  0  0  0  0
    7.3040  -16.4880   -6.3920 C   0  0  0  0  0  0  0  0  0  0  0  0
    6.8260  -17.5530   -6.0390 O   0  0  0  0  0  0  0  0  0  0  0  0
    7.3900  -16.0060   -7.7840 C   0  0  0  0  0  0  0  0  0  0  0  0
    7.5130  -14.6930   -8.0250 C   0  0  0  0  0  0  0  0  0  0  0  0
    7.6940  -14.1080   -9.3610 C   0  0  0  0  0  0  0  0  0  0  0  0
    8.9510  -13.5870   -9.6990 C   0  0  0  0  0  0  0  0  0  0  0  0
    9.1720  -13.0080  -10.9510 C   0  0  0  0  0  0  0  0  0  0  0  0
    8.1350  -12.9350  -11.8770 C   0  0  0  0  0  0  0  0  0  0  0  0
    6.8770  -13.4360  -11.5490 C   0  0  0  0  0  0  0  0  0  0  0  0
    6.6560  -14.0150  -10.2960 C   0  0  0  0  0  0  0  0  0  0  0  0
    9.6750  -16.4590   -4.3070 C   0  0  0  0  0  0  0  0  0  0  0  0
   10.7840  -15.4340   -3.9620 C   0  0  2  0  0  0  0  0  0  0  0  0
   10.4360  -14.8560   -2.5940 C   0  0  1  0  0  0  0  0  0  0  0  0
   11.5570  -14.1810   -2.0100 O   0  0  0  0  0  0  0  0  0  0  0  0
   12.0570  -14.7190   -0.8670 C   0  0  0  0  0  0  0  0  0  0  0  0
   12.3130  -13.6400    0.1390 C   0  0  0  0  0  0  0  0  0  0  0  0
   12.2700  -15.9090   -0.6800 O   0  0  0  0  0  0  0  0  0  0  0  0
    9.2770  -13.9090   -3.0090 C   0  0  1  0  0  0  0  0  0  0  0  0
    9.6540  -13.4260   -4.3610 O   0  0  0  0  0  0  0  0  0  0  0  0
   10.7830  -14.1780   -4.8480 C   0  0  0  0  0  0  0  0  0  0  0  0
   10.6570  -14.4440   -6.3520 C   0  0  0  0  0  0  0  0  0  0  0  0
   12.0470  -13.3030   -4.7000 C   0  0  0  0  0  0  0  0  0  0  0  0
    9.0760  -12.6270   -2.1170 C   0  0  1  0  0  0  0  0  0  0  0  0
    9.0050  -12.8790   -0.6040 C   0  0  0  0  0  0  0  0  0  0  0  0
   10.2210  -11.7580   -2.2900 O   0  0  0  0  0  0  0  0  0  0  0  0
    7.8500  -11.7890   -2.5710 C   0  0  1  0  0  0  0  0  0  0  0  0
    8.1730  -11.1030   -3.8000 O   0  0  0  0  0  0  0  0  0  0  0  0
    2.7377  -10.2577   -2.6549 H   0  0  0  0  0  0  0  0  0  0  0  0
    3.9327   -9.9965   -3.9702 H   0  0  0  0  0  0  0  0  0  0  0  0
    2.9048  -11.4696   -3.9702 H   0  0  0  0  0  0  0  0  0  0  0  0
    6.2459  -13.0646   -1.8067 H   0  0  0  0  0  0  0  0  0  0  0  0
    7.1296  -13.3688   -4.6899 H   0  0  0  0  0  0  0  0  0  0  0  0
    3.8771  -15.0368   -2.3207 H   0  0  0  0  0  0  0  0  0  0  0  0
    1.5129  -15.2763   -1.5577 H   0  0  0  0  0  0  0  0  0  0  0  0
   -0.3628  -14.6829   -3.0894 H   0  0  0  0  0  0  0  0  0  0  0  0
    0.1174  -13.8455   -5.3891 H   0  0  0  0  0  0  0  0  0  0  0  0
    2.4778  -13.5985   -6.1586 H   0  0  0  0  0  0  0  0  0  0  0  0
    7.8366  -14.9504   -1.0481 H   0  0  0  0  0  0  0  0  0  0  0  0
    6.3787  -15.5314   -1.9219 H   0  0  0  0  0  0  0  0  0  0  0  0
    7.8789  -16.5193   -1.9219 H   0  0  0  0  0  0  0  0  0  0  0  0
    7.6093  -16.7717   -3.9146 H   0  0  0  0  0  0  0  0  0  0  0  0
    7.3534  -16.7204   -8.6196 H   0  0  0  0  0  0  0  0  0  0  0  0
    7.4760  -14.0077   -7.1653 H   0  0  0  0  0  0  0  0  0  0  0  0
    9.7730  -13.6347   -8.9696 H   0  0  0  0  0  0  0  0  0  0  0  0
   10.1654  -12.6098  -11.2052 H   0  0  0  0  0  0  0  0  0  0  0  0
    8.3084  -12.4831  -12.8648 H   0  0  0  0  0  0  0  0  0  0  0  0
    6.0555  -13.3758  -12.2780 H   0  0  0  0  0  0  0  0  0  0  0  0
    5.6577  -14.4010  -10.0423 H   0  0  0  0  0  0  0  0  0  0  0  0
    9.7492  -17.2892   -3.5892 H   0  0  0  0  0  0  0  0  0  0  0  0
    9.8553  -16.7496   -5.3525 H   0  0  0  0  0  0  0  0  0  0  0  0
   11.7376  -15.9734   -4.0606 H   0  0  0  0  0  0  0  0  0  0  0  0
   10.1631  -15.5808   -1.8128 H   0  0  0  0  0  0  0  0  0  0  0  0
   12.2148  -14.0538    1.1535 H   0  0  0  0  0  0  0  0  0  0  0  0
   13.3300  -13.2441    0.0013 H   0  0  0  0  0  0  0  0  0  0  0  0
   11.5822  -12.8294    0.0013 H   0  0  0  0  0  0  0  0  0  0  0  0
   10.1912  -15.4275   -6.5127 H   0  0  0  0  0  0  0  0  0  0  0  0
   10.0330  -13.6633   -6.8114 H   0  0  0  0  0  0  0  0  0  0  0  0
   11.6564  -14.4322   -6.8114 H   0  0  0  0  0  0  0  0  0  0  0  0
   12.2654  -13.1518   -3.6325 H   0  0  0  0  0  0  0  0  0  0  0  0
   12.8992  -13.8054   -5.1810 H   0  0  0  0  0  0  0  0  0  0  0  0
   11.8767  -12.3285   -5.1810 H   0  0  0  0  0  0  0  0  0  0  0  0
    9.2652  -11.9556   -0.0659 H   0  0  0  0  0  0  0  0  0  0  0  0
    7.9850  -13.1874   -0.3311 H   0  0  0  0  0  0  0  0  0  0  0  0
    9.7140  -13.6745   -0.3311 H   0  0  0  0  0  0  0  0  0  0  0  0
   10.1390  -11.4550   -3.2210 H   0  0  0  0  0  0  0  0  0  0  0  0
    7.6338  -11.0704   -1.7667 H   0  0  0  0  0  0  0  0  0  0  0  0
    8.3170  -11.7930   -4.4760 H   0  0  0  0  0  0  0  0  0  0  0  0
  1  2  1  0
  2  3  2  0
  2  4  1  0
  4  5  1  0
  5  6  1  0
  6  7  1  0
  7  8  1  0
  8  9  2  0
  8 10  1  0
 10 11  2  0
 11 12  1  0
 12 13  2  0
 13 14  1  0
 14 15  2  0
  6 16  1  0
 16 17  1  1
 16 18  1  0
 18 19  1  0
 19 20  1  0
 20 21  2  0
 20 22  1  0
 22 23  2  0
 23 24  1  0
 24 25  2  0
 25 26  1  0
 26 27  2  0
 27 28  1  0
 28 29  2  0
 18 30  1  0
 30 31  1  0
 31 32  1  0
 32 33  1  0
 33 34  1  0
 34 35  1  0
 34 36  2  0
 32 37  1  0
 37 38  1  6
 38 39  1  0
 39 40  1  0
 39 41  1  0
 37 42  1  0
 42 43  1  0
 42 44  1  1
 42 45  1  0
 45 46  1  0
 45  5  1  0
 15 10  1  0
 37 16  1  0
 29 24  1  0
 39 31  1  0
  1 47  1  0
  1 48  1  0
  1 49  1  0
  5 50  1  1
  6 51  1  6
 11 52  1  0
 12 53  1  0
 13 54  1  0
 14 55  1  0
 15 56  1  0
 17 57  1  0
 17 58  1  0
 17 59  1  0
 18 60  1  1
 22 61  1  0
 23 62  1  0
 25 63  1  0
 26 64  1  0
 27 65  1  0
 28 66  1  0
 29 67  1  0
 30 68  1  0
 30 69  1  0
 31 70  1  1
 32 71  1  1
 35 72  1  0
 35 73  1  0
 35 74  1  0
 40 75  1  0
 40 76  1  0
 40 77  1  0
 41 78  1  0
 41 79  1  0
 41 80  1  0
 43 81  1  0
 43 82  1  0
 43 83  1  0
 44 84  1  0
 45 85  1  1
 46 86  1  0
M  END
>  <meeko>  (4) 
{"is_sidechain": [false], "free_energy": -7.042, "intermolecular_energy": -13.714, "internal_energy": -3.34}

$$$$
LIB_TXFGQQCHKBHRQF__M_PUB_ALL__e8__s20260927
     RDKit          3D

 86 90  0  0  0  0  0  0  0  0999 V2000
    1.4830  -10.6400   -1.9950 C   0  0  0  0  0  0  0  0  0  0  0  0
    2.4760  -10.5970   -3.1160 C   0  0  0  0  0  0  0  0  0  0  0  0
    2.6450   -9.6400   -3.8560 O   0  0  0  0  0  0  0  0  0  0  0  0
    3.1550  -11.7740   -3.1810 O   0  0  0  0  0  0  0  0  0  0  0  0
    4.2570  -11.9440   -2.2490 C   0  0  1  0  0  0  0  0  0  0  0  0
    4.3280  -13.4090   -1.7560 C   0  0  2  0  0  0  0  0  0  0  0  0
    3.1260  -13.7370   -1.0150 O   0  0  0  0  0  0  0  0  0  0  0  0
    2.1120  -14.3110   -1.7090 C   0  0  0  0  0  0  0  0  0  0  0  0
    2.1990  -14.8410   -2.8060 O   0  0  0  0  0  0  0  0  0  0  0  0
    0.8500  -14.2510   -0.9310 C   0  0  0  0  0  0  0  0  0  0  0  0
   -0.3210  -14.8900   -1.3590 C   0  0  0  0  0  0  0  0  0  0  0  0
   -1.4850  -14.7970   -0.5920 C   0  0  0  0  0  0  0  0  0  0  0  0
   -1.4840  -14.0720    0.5990 C   0  0  0  0  0  0  0  0  0  0  0  0
   -0.3190  -13.4390    1.0320 C   0  0  0  0  0  0  0  0  0  0  0  0
    0.8470  -13.5310    0.2710 C   0  0  0  0  0  0  0  0  0  0  0  0
    5.5650  -13.6640   -0.8210 C   0  0  1  0  0  0  0  0  0  0  0  0
    5.3670  -12.8790    0.5130 C   0  0  0  0  0  0  0  0  0  0  0  0
    5.6350  -15.1820   -0.3800 C   0  0  1  0  0  0  0  0  0  0  0  0
    4.9540  -16.0110   -1.3410 O   0  0  0  0  0  0  0  0  0  0  0  0
    4.4430  -17.1810   -0.8800 C   0  0  0  0  0  0  0  0  0  0  0  0
    4.7290  -18.3020   -1.2670 O   0  0  0  0  0  0  0  0  0  0  0  0
    3.5110  -16.8660    0.2190 C   0  0  0  0  0  0  0  0  0  0  0  0
    2.2540  -17.3310    0.1780 C   0  0  0  0  0  0  0  0  0  0  0  0
    1.2670  -17.1540    1.2530 C   0  0  0  0  0  0  0  0  0  0  0  0
   -0.0300  -17.6500    1.0590 C   0  0  0  0  0  0  0  0  0  0  0  0
   -1.0090  -17.4960    2.0440 C   0  0  0  0  0  0  0  0  0  0  0  0
   -0.7040  -16.8360    3.2310 C   0  0  0  0  0  0  0  0  0  0  0  0
    0.5770  -16.3260    3.4310 C   0  0  0  0  0  0  0  0  0  0  0  0
    1.5560  -16.4800    2.4460 C   0  0  0  0  0  0  0  0  0  0  0  0
    7.0650  -15.7250   -0.1210 C   0  0  0  0  0  0  0  0  0  0  0  0
    8.1980  -15.0830   -0.9590 C   0  0  2  0  0  0  0  0  0  0  0  0
    8.1190  -13.5790   -0.7250 C   0  0  1  0  0  0  0  0  0  0  0  0
    9.3200  -12.9180   -1.1440 O   0  0  0  0  0  0  0  0  0  0  0  0
   10.1850  -12.5560   -0.1610 C   0  0  0  0  0  0  0  0  0  0  0  0
   11.5370  -12.2830   -0.7430 C   0  0  0  0  0  0  0  0  0  0  0  0
    9.9070  -12.4670    1.0270 O   0  0  0  0  0  0  0  0  0  0  0  0
    6.8800  -13.2520   -1.6020 C   0  0  1  0  0  0  0  0  0  0  0  0
    6.9690  -14.2000   -2.7410 O   0  0  0  0  0  0  0  0  0  0  0  0
    7.9930  -15.1790   -2.4800 C   0  0  0  0  0  0  0  0  0  0  0  0
    7.5750  -16.5620   -2.9930 C   0  0  0  0  0  0  0  0  0  0  0  0
    9.2420  -14.8050   -3.3080 C   0  0  0  0  0  0  0  0  0  0  0  0
    6.8340  -11.8070   -2.2270 C   0  0  1  0  0  0  0  0  0  0  0  0
    7.0730  -10.6530   -1.2420 C   0  0  0  0  0  0  0  0  0  0  0  0
    7.9030  -11.6870   -3.1970 O   0  0  0  0  0  0  0  0  0  0  0  0
    5.5250  -11.5600   -3.0240 C   0  0  1  0  0  0  0  0  0  0  0  0
    5.5810  -12.2910   -4.2680 O   0  0  0  0  0  0  0  0  0  0  0  0
    2.0152  -10.6170   -1.0326 H   0  0  0  0  0  0  0  0  0  0  0  0
    0.8135   -9.7700   -2.0647 H   0  0  0  0  0  0  0  0  0  0  0  0
    0.8912  -11.5646   -2.0647 H   0  0  0  0  0  0  0  0  0  0  0  0
    4.1340  -11.3170   -1.3536 H   0  0  0  0  0  0  0  0  0  0  0  0
    4.4277  -14.0425   -2.6497 H   0  0  0  0  0  0  0  0  0  0  0  0
   -0.3239  -15.4640   -2.2974 H   0  0  0  0  0  0  0  0  0  0  0  0
   -2.4050  -15.2972   -0.9287 H   0  0  0  0  0  0  0  0  0  0  0  0
   -2.4036  -13.9991    1.1982 H   0  0  0  0  0  0  0  0  0  0  0  0
   -0.3194  -12.8680    1.9722 H   0  0  0  0  0  0  0  0  0  0  0  0
    1.7671  -13.0365    0.6160 H   0  0  0  0  0  0  0  0  0  0  0  0
    5.5373  -13.5542    1.3645 H   0  0  0  0  0  0  0  0  0  0  0  0
    6.0829  -12.0450    0.5574 H   0  0  0  0  0  0  0  0  0  0  0  0
    4.3412  -12.4844    0.5574 H   0  0  0  0  0  0  0  0  0  0  0  0
    5.1282  -15.2243    0.5954 H   0  0  0  0  0  0  0  0  0  0  0  0
    3.8456  -16.2524    1.0684 H   0  0  0  0  0  0  0  0  0  0  0  0
    1.9401  -17.8821   -0.7207 H   0  0  0  0  0  0  0  0  0  0  0  0
   -0.2798  -18.1664    0.1204 H   0  0  0  0  0  0  0  0  0  0  0  0
   -2.0206  -17.8963    1.8814 H   0  0  0  0  0  0  0  0  0  0  0  0
   -1.4724  -16.7174    4.0091 H   0  0  0  0  0  0  0  0  0  0  0  0
    0.8183  -15.8007    4.3668 H   0  0  0  0  0  0  0  0  0  0  0  0
    2.5628  -16.0681    2.6091 H   0  0  0  0  0  0  0  0  0  0  0  0
    7.2991  -15.5627    0.9415 H   0  0  0  0  0  0  0  0  0  0  0  0
    7.0386  -16.7832   -0.4201 H   0  0  0  0  0  0  0  0  0  0  0  0
    9.1236  -15.5977   -0.6617 H   0  0  0  0  0  0  0  0  0  0  0  0
    8.0240  -13.2528    0.3212 H   0  0  0  0  0  0  0  0  0  0  0  0
   12.2633  -12.1363    0.0700 H   0  0  0  0  0  0  0  0  0  0  0  0
   11.8483  -13.1364   -1.3633 H   0  0  0  0  0  0  0  0  0  0  0  0
   11.4928  -11.3757   -1.3633 H   0  0  0  0  0  0  0  0  0  0  0  0
    7.3746  -17.2249   -2.1384 H   0  0  0  0  0  0  0  0  0  0  0  0
    6.6655  -16.4668   -3.6043 H   0  0  0  0  0  0  0  0  0  0  0  0
    8.3850  -16.9865   -3.6043 H   0  0  0  0  0  0  0  0  0  0  0  0
   10.0711  -14.5567   -2.6291 H   0  0  0  0  0  0  0  0  0  0  0  0
    9.5298  -15.6564   -3.9423 H   0  0  0  0  0  0  0  0  0  0  0  0
    9.0146  -13.9356   -3.9423 H   0  0  0  0  0  0  0  0  0  0  0  0
    6.9952  -11.0288   -0.2111 H   0  0  0  0  0  0  0  0  0  0  0  0
    8.0770  -10.2340   -1.4047 H   0  0  0  0  0  0  0  0  0  0  0  0
    6.3180   -9.8697   -1.4047 H   0  0  0  0  0  0  0  0  0  0  0  0
    8.1200  -10.7290   -3.1800 H   0  0  0  0  0  0  0  0  0  0  0  0
    5.4589  -10.4778   -3.2094 H   0  0  0  0  0  0  0  0  0  0  0  0
    5.1780  -13.1640   -4.0970 H   0  0  0  0  0  0  0  0  0  0  0  0
  1  2  1  0
  2  3  2  0
  2  4  1  0
  4  5  1  0
  5  6  1  0
  6  7  1  0
  7  8  1  0
  8  9  2  0
  8 10  1  0
 10 11  2  0
 11 12  1  0
 12 13  2  0
 13 14  1  0
 14 15  2  0
  6 16  1  0
 16 17  1  1
 16 18  1  0
 18 19  1  0
 19 20  1  0
 20 21  2  0
 20 22  1  0
 22 23  2  0
 23 24  1  0
 24 25  2  0
 25 26  1  0
 26 27  2  0
 27 28  1  0
 28 29  2  0
 18 30  1  0
 30 31  1  0
 31 32  1  0
 32 33  1  0
 33 34  1  0
 34 35  1  0
 34 36  2  0
 32 37  1  0
 37 38  1  6
 38 39  1  0
 39 40  1  0
 39 41  1  0
 37 42  1  0
 42 43  1  0
 42 44  1  6
 42 45  1  0
 45 46  1  0
 45  5  1  0
 15 10  1  0
 37 16  1  0
 29 24  1  0
 39 31  1  0
  1 47  1  0
  1 48  1  0
  1 49  1  0
  5 50  1  1
  6 51  1  6
 11 52  1  0
 12 53  1  0
 13 54  1  0
 14 55  1  0
 15 56  1  0
 17 57  1  0
 17 58  1  0
 17 59  1  0
 18 60  1  1
 22 61  1  0
 23 62  1  0
 25 63  1  0
 26 64  1  0
 27 65  1  0
 28 66  1  0
 29 67  1  0
 30 68  1  0
 30 69  1  0
 31 70  1  6
 32 71  1  1
 35 72  1  0
 35 73  1  0
 35 74  1  0
 40 75  1  0
 40 76  1  0
 40 77  1  0
 41 78  1  0
 41 79  1  0
 41 80  1  0
 43 81  1  0
 43 82  1  0
 43 83  1  0
 44 84  1  0
 45 85  1  6
 46 86  1  0
M  END
>  <meeko>  (5) 
{"is_sidechain": [false], "free_energy": -6.995, "intermolecular_energy": -11.798, "internal_energy": -5.176}

$$$$
LIB_TXFGQQCHKBHRQF__M_PUB_ALL__e8__s20260927
     RDKit          3D

 86 90  0  0  0  0  0  0  0  0999 V2000
   11.6670  -12.1880   -0.9490 C   0  0  0  0  0  0  0  0  0  0  0  0
   11.1140  -13.0120    0.1730 C   0  0  0  0  0  0  0  0  0  0  0  0
   11.5620  -13.0230    1.3110 O   0  0  0  0  0  0  0  0  0  0  0  0
   10.0490  -13.7370   -0.2620 O   0  0  0  0  0  0  0  0  0  0  0  0
    9.0080  -13.0080   -0.9660 C   0  0  1  0  0  0  0  0  0  0  0  0
    8.5700  -13.7780   -2.2340 C   0  0  2  0  0  0  0  0  0  0  0  0
    9.6830  -13.8750   -3.1590 O   0  0  0  0  0  0  0  0  0  0  0  0
   10.4260  -15.0080   -3.1110 C   0  0  0  0  0  0  0  0  0  0  0  0
   10.1300  -16.0400   -2.5300 O   0  0  0  0  0  0  0  0  0  0  0  0
   11.6650  -14.8510   -3.9120 C   0  0  0  0  0  0  0  0  0  0  0  0
   12.5650  -15.9070   -4.1090 C   0  0  0  0  0  0  0  0  0  0  0  0
   13.7210  -15.7050   -4.8660 C   0  0  0  0  0  0  0  0  0  0  0  0
   13.9800  -14.4550   -5.4290 C   0  0  0  0  0  0  0  0  0  0  0  0
   13.0850  -13.4030   -5.2410 C   0  0  0  0  0  0  0  0  0  0  0  0
   11.9270  -13.6010   -4.4880 C   0  0  0  0  0  0  0  0  0  0  0  0
    7.3760  -13.0750   -2.9760 C   0  0  1  0  0  0  0  0  0  0  0  0
    7.8710  -11.7200   -3.5710 C   0  0  0  0  0  0  0  0  0  0  0  0
    6.9210  -13.9180   -4.2360 C   0  0  1  0  0  0  0  0  0  0  0  0
    7.2820  -15.3020   -4.0660 O   0  0  0  0  0  0  0  0  0  0  0  0
    7.4190  -16.0380   -5.1980 C   0  0  0  0  0  0  0  0  0  0  0  0
    6.7830  -17.0350   -5.4980 O   0  0  0  0  0  0  0  0  0  0  0  0
    8.4410  -15.3870   -6.0400 C   0  0  0  0  0  0  0  0  0  0  0  0
    9.5080  -16.0890   -6.4500 C   0  0  0  0  0  0  0  0  0  0  0  0
   10.5420  -15.5730   -7.3580 C   0  0  0  0  0  0  0  0  0  0  0  0
   11.6000  -16.4200   -7.7180 C   0  0  0  0  0  0  0  0  0  0  0  0
   12.6150  -15.9740   -8.5680 C   0  0  0  0  0  0  0  0  0  0  0  0
   12.5890  -14.6730   -9.0600 C   0  0  0  0  0  0  0  0  0  0  0  0
   11.5510  -13.8160   -8.7000 C   0  0  0  0  0  0  0  0  0  0  0  0
   10.5360  -14.2620   -7.8500 C   0  0  0  0  0  0  0  0  0  0  0  0
    5.4170  -13.7960   -4.5990 C   0  0  0  0  0  0  0  0  0  0  0  0
    4.4510  -13.5430   -3.4160 C   0  0  2  0  0  0  0  0  0  0  0  0
    4.9560  -12.2980   -2.6950 C   0  0  1  0  0  0  0  0  0  0  0  0
    3.9580  -11.7560   -1.8210 O   0  0  0  0  0  0  0  0  0  0  0  0
    3.0010  -10.9860   -2.4010 C   0  0  0  0  0  0  0  0  0  0  0  0
    1.6970  -11.1630   -1.6880 C   0  0  0  0  0  0  0  0  0  0  0  0
    3.1720  -10.2550   -3.3680 O   0  0  0  0  0  0  0  0  0  0  0  0
    6.1760  -12.9120   -1.9550 C   0  0  1  0  0  0  0  0  0  0  0  0
    5.7540  -14.2970   -1.6260 O   0  0  0  0  0  0  0  0  0  0  0  0
    4.5200  -14.6030   -2.3040 C   0  0  0  0  0  0  0  0  0  0  0  0
    4.5060  -16.0570   -2.7910 C   0  0  0  0  0  0  0  0  0  0  0  0
    3.3690  -14.5140   -1.2770 C   0  0  0  0  0  0  0  0  0  0  0  0
    6.5750  -12.2310   -0.5920 C   0  0  1  0  0  0  0  0  0  0  0  0
    6.7290  -10.7040   -0.6370 C   0  0  0  0  0  0  0  0  0  0  0  0
    5.5180  -12.4640    0.3690 O   0  0  0  0  0  0  0  0  0  0  0  0
    7.8460  -12.8730    0.0280 C   0  0  1  0  0  0  0  0  0  0  0  0
    7.5080  -14.1690    0.5680 O   0  0  0  0  0  0  0  0  0  0  0  0
   12.2353  -11.3413   -0.5366 H   0  0  0  0  0  0  0  0  0  0  0  0
   12.3317  -12.8093   -1.5672 H   0  0  0  0  0  0  0  0  0  0  0  0
   10.8402  -11.8083   -1.5672 H   0  0  0  0  0  0  0  0  0  0  0  0
    9.3582  -12.0215   -1.3040 H   0  0  0  0  0  0  0  0  0  0  0  0
    8.2400  -14.7744   -1.9049 H   0  0  0  0  0  0  0  0  0  0  0  0
   12.3611  -16.8938   -3.6679 H   0  0  0  0  0  0  0  0  0  0  0  0
   14.4288  -16.5331   -5.0187 H   0  0  0  0  0  0  0  0  0  0  0  0
   14.8928  -14.2992   -6.0228 H   0  0  0  0  0  0  0  0  0  0  0  0
   13.2913  -12.4182   -5.6856 H   0  0  0  0  0  0  0  0  0  0  0  0
   11.2173  -12.7727   -4.3461 H   0  0  0  0  0  0  0  0  0  0  0  0
    8.1230  -11.0302   -2.7521 H   0  0  0  0  0  0  0  0  0  0  0  0
    8.7631  -11.8955   -4.1902 H   0  0  0  0  0  0  0  0  0  0  0  0
    7.0759  -11.2791   -4.1902 H   0  0  0  0  0  0  0  0  0  0  0  0
    7.4610  -13.4799   -5.0883 H   0  0  0  0  0  0  0  0  0  0  0  0
    8.3285  -14.3319   -6.3299 H   0  0  0  0  0  0  0  0  0  0  0  0
    9.6163  -17.1199   -6.0819 H   0  0  0  0  0  0  0  0  0  0  0  0
   11.6311  -17.4475   -7.3266 H   0  0  0  0  0  0  0  0  0  0  0  0
   13.4349  -16.6516   -8.8483 H   0  0  0  0  0  0  0  0  0  0  0  0
   13.3861  -14.3216   -9.7317 H   0  0  0  0  0  0  0  0  0  0  0  0
   11.5307  -12.7861   -9.0859 H   0  0  0  0  0  0  0  0  0  0  0  0
    9.7243  -13.5767   -7.5645 H   0  0  0  0  0  0  0  0  0  0  0  0
    5.3084  -12.9608   -5.3066 H   0  0  0  0  0  0  0  0  0  0  0  0
    5.1312  -14.7752   -5.0106 H   0  0  0  0  0  0  0  0  0  0  0  0
    3.4417  -13.5065   -3.8518 H   0  0  0  0  0  0  0  0  0  0  0  0
    5.2067  -11.4353   -3.3298 H   0  0  0  0  0  0  0  0  0  0  0  0
    1.8671  -11.1399   -0.6015 H   0  0  0  0  0  0  0  0  0  0  0  0
    1.0120  -10.3496   -1.9693 H   0  0  0  0  0  0  0  0  0  0  0  0
    1.2536  -12.1296   -1.9693 H   0  0  0  0  0  0  0  0  0  0  0  0
    4.4995  -16.7340   -1.9240 H   0  0  0  0  0  0  0  0  0  0  0  0
    3.6061  -16.2313   -3.3991 H   0  0  0  0  0  0  0  0  0  0  0  0
    5.4023  -16.2486   -3.3991 H   0  0  0  0  0  0  0  0  0  0  0  0
    3.7831  -14.5460   -0.2584 H   0  0  0  0  0  0  0  0  0  0  0  0
    2.8215  -13.5708   -1.4207 H   0  0  0  0  0  0  0  0  0  0  0  0
    2.6830  -15.3618   -1.4207 H   0  0  0  0  0  0  0  0  0  0  0  0
    6.7688  -10.3091    0.3889 H   0  0  0  0  0  0  0  0  0  0  0  0
    7.6579  -10.4446   -1.1661 H   0  0  0  0  0  0  0  0  0  0  0  0
    5.8706  -10.2643   -1.1661 H   0  0  0  0  0  0  0  0  0  0  0  0
    4.8120  -12.8890   -0.1670 H   0  0  0  0  0  0  0  0  0  0  0  0
    8.1950  -12.1973    0.8227 H   0  0  0  0  0  0  0  0  0  0  0  0
    6.5400  -14.1750    0.6950 H   0  0  0  0  0  0  0  0  0  0  0  0
  1  2  1  0
  2  3  2  0
  2  4  1  0
  4  5  1  0
  5  6  1  0
  6  7  1  0
  7  8  1  0
  8  9  2  0
  8 10  1  0
 10 11  2  0
 11 12  1  0
 12 13  2  0
 13 14  1  0
 14 15  2  0
  6 16  1  0
 16 17  1  6
 16 18  1  0
 18 19  1  0
 19 20  1  0
 20 21  2  0
 20 22  1  0
 22 23  2  0
 23 24  1  0
 24 25  2  0
 25 26  1  0
 26 27  2  0
 27 28  1  0
 28 29  2  0
 18 30  1  0
 30 31  1  0
 31 32  1  0
 32 33  1  0
 33 34  1  0
 34 35  1  0
 34 36  2  0
 32 37  1  0
 37 38  1  1
 38 39  1  0
 39 40  1  0
 39 41  1  0
 37 42  1  0
 42 43  1  0
 42 44  1  1
 42 45  1  0
 45 46  1  0
 45  5  1  0
 15 10  1  0
 37 16  1  0
 29 24  1  0
 39 31  1  0
  1 47  1  0
  1 48  1  0
  1 49  1  0
  5 50  1  6
  6 51  1  1
 11 52  1  0
 12 53  1  0
 13 54  1  0
 14 55  1  0
 15 56  1  0
 17 57  1  0
 17 58  1  0
 17 59  1  0
 18 60  1  6
 22 61  1  0
 23 62  1  0
 25 63  1  0
 26 64  1  0
 27 65  1  0
 28 66  1  0
 29 67  1  0
 30 68  1  0
 30 69  1  0
 31 70  1  6
 32 71  1  6
 35 72  1  0
 35 73  1  0
 35 74  1  0
 40 75  1  0
 40 76  1  0
 40 77  1  0
 41 78  1  0
 41 79  1  0
 41 80  1  0
 43 81  1  0
 43 82  1  0
 43 83  1  0
 44 84  1  0
 45 85  1  1
 46 86  1  0
M  END
>  <meeko>  (6) 
{"is_sidechain": [false], "free_energy": -6.937, "intermolecular_energy": -11.647, "internal_energy": -5.227}

$$$$
LIB_TXFGQQCHKBHRQF__M_PUB_ALL__e8__s20260927
     RDKit          3D

 86 90  0  0  0  0  0  0  0  0999 V2000
   12.9090  -14.2650   -8.8010 C   0  0  0  0  0  0  0  0  0  0  0  0
   11.4900  -14.0830   -8.3560 C   0  0  0  0  0  0  0  0  0  0  0  0
   10.6920  -13.3200   -8.8800 O   0  0  0  0  0  0  0  0  0  0  0  0
   11.2290  -14.8880   -7.2910 O   0  0  0  0  0  0  0  0  0  0  0  0
   11.0450  -14.2330   -6.0070 C   0  0  1  0  0  0  0  0  0  0  0  0
    9.8320  -14.8360   -5.2600 C   0  0  2  0  0  0  0  0  0  0  0  0
    8.6180  -14.5860   -6.0130 O   0  0  0  0  0  0  0  0  0  0  0  0
    8.2600  -15.5170   -6.9310 C   0  0  0  0  0  0  0  0  0  0  0  0
    8.3620  -16.7270   -6.8080 O   0  0  0  0  0  0  0  0  0  0  0  0
    7.6710  -14.8660   -8.1280 C   0  0  0  0  0  0  0  0  0  0  0  0
    6.8410  -13.7420   -8.0330 C   0  0  0  0  0  0  0  0  0  0  0  0
    6.3060  -13.1710   -9.1910 C   0  0  0  0  0  0  0  0  0  0  0  0
    6.6000  -13.7160  -10.4410 C   0  0  0  0  0  0  0  0  0  0  0  0
    7.4310  -14.8310  -10.5400 C   0  0  0  0  0  0  0  0  0  0  0  0
    7.9700  -15.4040   -9.3870 C   0  0  0  0  0  0  0  0  0  0  0  0
    9.6530  -14.2260   -3.8230 C   0  0  1  0  0  0  0  0  0  0  0  0
    9.2440  -12.7260   -3.9530 C   0  0  0  0  0  0  0  0  0  0  0  0
    8.4370  -14.9040   -3.0710 C   0  0  1  0  0  0  0  0  0  0  0  0
    8.1880  -16.2160   -3.6090 O   0  0  0  0  0  0  0  0  0  0  0  0
    6.8890  -16.6030   -3.6920 C   0  0  0  0  0  0  0  0  0  0  0  0
    6.4750  -17.7470   -3.7720 O   0  0  0  0  0  0  0  0  0  0  0  0
    6.0510  -15.3910   -3.6140 C   0  0  0  0  0  0  0  0  0  0  0  0
    5.3250  -15.0160   -4.6770 C   0  0  0  0  0  0  0  0  0  0  0  0
    4.3910  -13.8810   -4.6860 C   0  0  0  0  0  0  0  0  0  0  0  0
    4.8810  -12.6160   -5.0420 C   0  0  0  0  0  0  0  0  0  0  0  0
    4.0380  -11.5010   -5.0540 C   0  0  0  0  0  0  0  0  0  0  0  0
    2.6990  -11.6370   -4.7000 C   0  0  0  0  0  0  0  0  0  0  0  0
    2.2030  -12.8860   -4.3310 C   0  0  0  0  0  0  0  0  0  0  0  0
    3.0460  -14.0010   -4.3190 C   0  0  0  0  0  0  0  0  0  0  0  0
    8.5780  -14.9750   -1.5270 C   0  0  0  0  0  0  0  0  0  0  0  0
   10.0220  -15.0930   -0.9800 C   0  0  2  0  0  0  0  0  0  0  0  0
   10.8090  -13.9230   -1.5620 C   0  0  1  0  0  0  0  0  0  0  0  0
   12.0370  -13.7130   -0.8550 O   0  0  0  0  0  0  0  0  0  0  0  0
   11.9950  -12.8350    0.1810 C   0  0  0  0  0  0  0  0  0  0  0  0
   12.5780  -11.5210   -0.2370 C   0  0  0  0  0  0  0  0  0  0  0  0
   11.5510  -13.0770    1.2950 O   0  0  0  0  0  0  0  0  0  0  0  0
   10.9970  -14.4430   -3.0130 C   0  0  1  0  0  0  0  0  0  0  0  0
   11.1310  -15.9140   -2.8690 O   0  0  0  0  0  0  0  0  0  0  0  0
   10.8060  -16.3020   -1.5190 C   0  0  0  0  0  0  0  0  0  0  0  0
   10.0430  -17.6320   -1.4980 C   0  0  0  0  0  0  0  0  0  0  0  0
   12.1240  -16.5830   -0.7650 C   0  0  0  0  0  0  0  0  0  0  0  0
   12.2910  -13.9490   -3.7640 C   0  0  1  0  0  0  0  0  0  0  0  0
   12.5330  -12.4330   -3.7360 C   0  0  0  0  0  0  0  0  0  0  0  0
   13.4510  -14.5170   -3.1110 O   0  0  0  0  0  0  0  0  0  0  0  0
   12.3470  -14.4670   -5.2270 C   0  0  1  0  0  0  0  0  0  0  0  0
   12.6700  -15.8740   -5.2210 O   0  0  0  0  0  0  0  0  0  0  0  0
   13.5618  -14.3487   -7.9196 H   0  0  0  0  0  0  0  0  0  0  0  0
   12.9893  -15.1808   -9.4051 H   0  0  0  0  0  0  0  0  0  0  0  0
   13.2178  -13.3991   -9.4051 H   0  0  0  0  0  0  0  0  0  0  0  0
   10.8391  -13.1587   -6.1230 H   0  0  0  0  0  0  0  0  0  0  0  0
   10.0214  -15.9150   -5.1605 H   0  0  0  0  0  0  0  0  0  0  0  0
    6.6105  -13.3092   -7.0484 H   0  0  0  0  0  0  0  0  0  0  0  0
    5.6517  -12.2899   -9.1166 H   0  0  0  0  0  0  0  0  0  0  0  0
    6.1754  -13.2652  -11.3501 H   0  0  0  0  0  0  0  0  0  0  0  0
    7.6619  -15.2591  -11.5266 H   0  0  0  0  0  0  0  0  0  0  0  0
    8.6309  -16.2797   -9.4667 H   0  0  0  0  0  0  0  0  0  0  0  0
    9.1251  -12.2901   -2.9501 H   0  0  0  0  0  0  0  0  0  0  0  0
   10.0258  -12.1789   -4.5003 H   0  0  0  0  0  0  0  0  0  0  0  0
    8.2927  -12.6514   -4.5003 H   0  0  0  0  0  0  0  0  0  0  0  0
    7.5776  -14.2422   -3.2537 H   0  0  0  0  0  0  0  0  0  0  0  0
    6.0220  -14.7979   -2.6880 H   0  0  0  0  0  0  0  0  0  0  0  0
    5.4358  -15.5967   -5.6046 H   0  0  0  0  0  0  0  0  0  0  0  0
    5.9403  -12.5000   -5.3148 H   0  0  0  0  0  0  0  0  0  0  0  0
    4.4330  -10.5160   -5.3433 H   0  0  0  0  0  0  0  0  0  0  0  0
    2.0339  -10.7609   -4.7114 H   0  0  0  0  0  0  0  0  0  0  0  0
    1.1455  -12.9947   -4.0485 H   0  0  0  0  0  0  0  0  0  0  0  0
    2.6485  -14.9816   -4.0183 H   0  0  0  0  0  0  0  0  0  0  0  0
    8.1328  -14.0613   -1.1064 H   0  0  0  0  0  0  0  0  0  0  0  0
    8.0710  -15.9037   -1.2262 H   0  0  0  0  0  0  0  0  0  0  0  0
    9.9281  -15.1508    0.1145 H   0  0  0  0  0  0  0  0  0  0  0  0
   10.3305  -12.9345   -1.5006 H   0  0  0  0  0  0  0  0  0  0  0  0
   12.8382  -10.9345    0.6565 H   0  0  0  0  0  0  0  0  0  0  0  0
   13.4830  -11.6958   -0.8373 H   0  0  0  0  0  0  0  0  0  0  0  0
   11.8411  -10.9673   -0.8373 H   0  0  0  0  0  0  0  0  0  0  0  0
    9.8676  -17.9377   -0.4560 H   0  0  0  0  0  0  0  0  0  0  0  0
    9.0780  -17.5092   -2.0115 H   0  0  0  0  0  0  0  0  0  0  0  0
   10.6361  -18.4031   -2.0115 H   0  0  0  0  0  0  0  0  0  0  0  0
   11.9417  -16.5441    0.3191 H   0  0  0  0  0  0  0  0  0  0  0  0
   12.4973  -17.5809   -1.0385 H   0  0  0  0  0  0  0  0  0  0  0  0
   12.8719  -15.8241   -1.0385 H   0  0  0  0  0  0  0  0  0  0  0  0
   12.5878  -12.0897   -2.6924 H   0  0  0  0  0  0  0  0  0  0  0  0
   13.4792  -12.2032   -4.2478 H   0  0  0  0  0  0  0  0  0  0  0  0
   11.7054  -11.9201   -4.2478 H   0  0  0  0  0  0  0  0  0  0  0  0
   14.1550  -13.8510   -3.2760 H   0  0  0  0  0  0  0  0  0  0  0  0
   13.1270  -13.8896   -5.7449 H   0  0  0  0  0  0  0  0  0  0  0  0
   13.4520  -15.9780   -4.6460 H   0  0  0  0  0  0  0  0  0  0  0  0
  1  2  1  0
  2  3  2  0
  2  4  1  0
  4  5  1  0
  5  6  1  0
  6  7  1  0
  7  8  1  0
  8  9  2  0
  8 10  1  0
 10 11  2  0
 11 12  1  0
 12 13  2  0
 13 14  1  0
 14 15  2  0
  6 16  1  0
 16 17  1  6
 16 18  1  0
 18 19  1  0
 19 20  1  0
 20 21  2  0
 20 22  1  0
 22 23  2  0
 23 24  1  0
 24 25  2  0
 25 26  1  0
 26 27  2  0
 27 28  1  0
 28 29  2  0
 18 30  1  0
 30 31  1  0
 31 32  1  0
 32 33  1  0
 33 34  1  0
 34 35  1  0
 34 36  2  0
 32 37  1  0
 37 38  1  1
 38 39  1  0
 39 40  1  0
 39 41  1  0
 37 42  1  0
 42 43  1  0
 42 44  1  1
 42 45  1  0
 45 46  1  0
 45  5  1  0
 15 10  1  0
 37 16  1  0
 29 24  1  0
 39 31  1  0
  1 47  1  0
  1 48  1  0
  1 49  1  0
  5 50  1  6
  6 51  1  1
 11 52  1  0
 12 53  1  0
 13 54  1  0
 14 55  1  0
 15 56  1  0
 17 57  1  0
 17 58  1  0
 17 59  1  0
 18 60  1  1
 22 61  1  0
 23 62  1  0
 25 63  1  0
 26 64  1  0
 27 65  1  0
 28 66  1  0
 29 67  1  0
 30 68  1  0
 30 69  1  0
 31 70  1  1
 32 71  1  6
 35 72  1  0
 35 73  1  0
 35 74  1  0
 40 75  1  0
 40 76  1  0
 40 77  1  0
 41 78  1  0
 41 79  1  0
 41 80  1  0
 43 81  1  0
 43 82  1  0
 43 83  1  0
 44 84  1  0
 45 85  1  6
 46 86  1  0
M  END
>  <meeko>  (7) 
{"is_sidechain": [false], "free_energy": -6.837, "intermolecular_energy": -13.243, "internal_energy": -3.462}

$$$$
LIB_TXFGQQCHKBHRQF__M_PUB_ALL__e8__s20260927
     RDKit          3D

 86 90  0  0  0  0  0  0  0  0999 V2000
   11.7420  -12.5520    0.1340 C   0  0  0  0  0  0  0  0  0  0  0  0
   12.3570  -11.6750   -0.9130 C   0  0  0  0  0  0  0  0  0  0  0  0
   13.2310  -10.8470   -0.6990 O   0  0  0  0  0  0  0  0  0  0  0  0
   11.8020  -11.9390   -2.1270 O   0  0  0  0  0  0  0  0  0  0  0  0
   11.7340  -13.3350   -2.5230 C   0  0  1  0  0  0  0  0  0  0  0  0
   10.3820  -13.6380   -3.2110 C   0  0  2  0  0  0  0  0  0  0  0  0
    9.2960  -13.4370   -2.2710 O   0  0  0  0  0  0  0  0  0  0  0  0
    8.6710  -12.2330   -2.3000 C   0  0  0  0  0  0  0  0  0  0  0  0
    8.7140  -11.4210   -3.2100 O   0  0  0  0  0  0  0  0  0  0  0  0
    7.8700  -12.0350   -1.0680 C   0  0  0  0  0  0  0  0  0  0  0  0
    7.0760  -10.8980   -0.8700 C   0  0  0  0  0  0  0  0  0  0  0  0
    6.3450  -10.7550    0.3120 C   0  0  0  0  0  0  0  0  0  0  0  0
    6.4010  -11.7440    1.2940 C   0  0  0  0  0  0  0  0  0  0  0  0
    7.1860  -12.8810    1.0990 C   0  0  0  0  0  0  0  0  0  0  0  0
    7.9160  -13.0290   -0.0810 C   0  0  0  0  0  0  0  0  0  0  0  0
   10.3020  -15.1130   -3.7460 C   0  0  1  0  0  0  0  0  0  0  0  0
   10.2780  -16.0950   -2.5330 C   0  0  0  0  0  0  0  0  0  0  0  0
    8.9280  -15.3690   -4.4890 C   0  0  1  0  0  0  0  0  0  0  0  0
    8.3870  -14.1270   -4.9770 O   0  0  0  0  0  0  0  0  0  0  0  0
    7.0520  -14.1010   -5.2230 C   0  0  0  0  0  0  0  0  0  0  0  0
    6.5160  -14.0460   -6.3170 O   0  0  0  0  0  0  0  0  0  0  0  0
    6.3510  -14.2060   -3.9290 C   0  0  0  0  0  0  0  0  0  0  0  0
    5.4960  -13.2420   -3.5570 C   0  0  0  0  0  0  0  0  0  0  0  0
    4.6800  -13.2830   -2.3360 C   0  0  0  0  0  0  0  0  0  0  0  0
    3.8160  -12.2100   -2.0720 C   0  0  0  0  0  0  0  0  0  0  0  0
    3.0290  -12.1930   -0.9180 C   0  0  0  0  0  0  0  0  0  0  0  0
    3.1030  -13.2450   -0.0100 C   0  0  0  0  0  0  0  0  0  0  0  0
    3.9670  -14.3110   -0.2520 C   0  0  0  0  0  0  0  0  0  0  0  0
    4.7550  -14.3270   -1.4060 C   0  0  0  0  0  0  0  0  0  0  0  0
    8.9880  -16.4150   -5.6340 C   0  0  0  0  0  0  0  0  0  0  0  0
   10.3370  -16.5240   -6.3870 C   0  0  2  0  0  0  0  0  0  0  0  0
   11.4070  -16.7860   -5.3330 C   0  0  1  0  0  0  0  0  0  0  0  0
   12.6210  -17.2640   -5.9260 O   0  0  0  0  0  0  0  0  0  0  0  0
   12.6770  -18.5930   -6.2000 C   0  0  0  0  0  0  0  0  0  0  0  0
   12.2060  -19.3810   -5.0180 C   0  0  0  0  0  0  0  0  0  0  0  0
   13.0570  -19.0810   -7.2550 O   0  0  0  0  0  0  0  0  0  0  0  0
   11.5190  -15.3590   -4.7290 C   0  0  1  0  0  0  0  0  0  0  0  0
   11.2840  -14.4480   -5.8760 O   0  0  0  0  0  0  0  0  0  0  0  0
   10.8210  -15.2050   -7.0120 C   0  0  0  0  0  0  0  0  0  0  0  0
    9.7570  -14.4270   -7.7940 C   0  0  0  0  0  0  0  0  0  0  0  0
   12.0000  -15.3710   -7.9950 C   0  0  0  0  0  0  0  0  0  0  0  0
   12.9230  -14.9690   -4.1290 C   0  0  1  0  0  0  0  0  0  0  0  0
   13.5270  -15.9820   -3.1460 C   0  0  0  0  0  0  0  0  0  0  0  0
   13.8820  -14.8910   -5.2100 O   0  0  0  0  0  0  0  0  0  0  0  0
   12.9070  -13.5540   -3.4880 C   0  0  1  0  0  0  0  0  0  0  0  0
   12.8760  -12.5590   -4.5330 O   0  0  0  0  0  0  0  0  0  0  0  0
   12.0077  -12.1731    1.1319 H   0  0  0  0  0  0  0  0  0  0  0  0
   10.6480  -12.5478    0.0195 H   0  0  0  0  0  0  0  0  0  0  0  0
   12.1187  -13.5791    0.0195 H   0  0  0  0  0  0  0  0  0  0  0  0
   11.8020  -14.0087   -1.6561 H   0  0  0  0  0  0  0  0  0  0  0  0
   10.2976  -12.9511   -4.0660 H   0  0  0  0  0  0  0  0  0  0  0  0
    7.0281  -10.1184   -1.6445 H   0  0  0  0  0  0  0  0  0  0  0  0
    5.7240   -9.8606    0.4685 H   0  0  0  0  0  0  0  0  0  0  0  0
    5.8252  -11.6274    2.2240 H   0  0  0  0  0  0  0  0  0  0  0  0
    7.2293  -13.6598    1.8746 H   0  0  0  0  0  0  0  0  0  0  0  0
    8.5295  -13.9286   -0.2370 H   0  0  0  0  0  0  0  0  0  0  0  0
   10.2921  -15.5200   -1.5954 H   0  0  0  0  0  0  0  0  0  0  0  0
    9.3646  -16.7066   -2.5744 H   0  0  0  0  0  0  0  0  0  0  0  0
   11.1604  -16.7505   -2.5744 H   0  0  0  0  0  0  0  0  0  0  0  0
    8.2638  -15.8072   -3.7295 H   0  0  0  0  0  0  0  0  0  0  0  0
    6.5287  -15.0706   -3.2726 H   0  0  0  0  0  0  0  0  0  0  0  0
    5.3992  -12.3619   -4.2097 H   0  0  0  0  0  0  0  0  0  0  0  0
    3.7575  -11.3720   -2.7821 H   0  0  0  0  0  0  0  0  0  0  0  0
    2.3509  -11.3482   -0.7270 H   0  0  0  0  0  0  0  0  0  0  0  0
    2.4806  -13.2350    0.8970 H   0  0  0  0  0  0  0  0  0  0  0  0
    4.0289  -15.1415    0.4666 H   0  0  0  0  0  0  0  0  0  0  0  0
    5.4409  -15.1680   -1.5855 H   0  0  0  0  0  0  0  0  0  0  0  0
    8.7644  -17.4010   -5.2006 H   0  0  0  0  0  0  0  0  0  0  0  0
    8.2579  -16.0752   -6.3833 H   0  0  0  0  0  0  0  0  0  0  0  0
   10.1901  -17.2874   -7.1653 H   0  0  0  0  0  0  0  0  0  0  0  0
   11.1824  -17.5681   -4.5928 H   0  0  0  0  0  0  0  0  0  0  0  0
   12.5108  -18.8710   -4.0923 H   0  0  0  0  0  0  0  0  0  0  0  0
   11.1096  -19.4648   -5.0465 H   0  0  0  0  0  0  0  0  0  0  0  0
   12.6514  -20.3864   -5.0465 H   0  0  0  0  0  0  0  0  0  0  0  0
    9.0753  -13.9285   -7.0892 H   0  0  0  0  0  0  0  0  0  0  0  0
   10.2461  -13.6720   -8.4271 H   0  0  0  0  0  0  0  0  0  0  0  0
    9.1859  -15.1220   -8.4271 H   0  0  0  0  0  0  0  0  0  0  0  0
   12.9338  -15.5025   -7.4287 H   0  0  0  0  0  0  0  0  0  0  0  0
   11.8279  -16.2538   -8.6283 H   0  0  0  0  0  0  0  0  0  0  0  0
   12.0783  -14.4750   -8.6283 H   0  0  0  0  0  0  0  0  0  0  0  0
   13.3312  -15.6536   -2.1146 H   0  0  0  0  0  0  0  0  0  0  0  0
   13.0698  -16.9690   -3.3096 H   0  0  0  0  0  0  0  0  0  0  0  0
   14.6127  -16.0491   -3.3096 H   0  0  0  0  0  0  0  0  0  0  0  0
   14.2900  -15.7850   -5.2180 H   0  0  0  0  0  0  0  0  0  0  0  0
   13.8239  -13.4609   -2.8875 H   0  0  0  0  0  0  0  0  0  0  0  0
   12.6980  -13.0360   -5.3670 H   0  0  0  0  0  0  0  0  0  0  0  0
  1  2  1  0
  2  3  2  0
  2  4  1  0
  4  5  1  0
  5  6  1  0
  6  7  1  0
  7  8  1  0
  8  9  2  0
  8 10  1  0
 10 11  2  0
 11 12  1  0
 12 13  2  0
 13 14  1  0
 14 15  2  0
  6 16  1  0
 16 17  1  1
 16 18  1  0
 18 19  1  0
 19 20  1  0
 20 21  2  0
 20 22  1  0
 22 23  2  0
 23 24  1  0
 24 25  2  0
 25 26  1  0
 26 27  2  0
 27 28  1  0
 28 29  2  0
 18 30  1  0
 30 31  1  0
 31 32  1  0
 32 33  1  0
 33 34  1  0
 34 35  1  0
 34 36  2  0
 32 37  1  0
 37 38  1  6
 38 39  1  0
 39 40  1  0
 39 41  1  0
 37 42  1  0
 42 43  1  0
 42 44  1  6
 42 45  1  0
 45 46  1  0
 45  5  1  0
 15 10  1  0
 37 16  1  0
 29 24  1  0
 39 31  1  0
  1 47  1  0
  1 48  1  0
  1 49  1  0
  5 50  1  1
  6 51  1  6
 11 52  1  0
 12 53  1  0
 13 54  1  0
 14 55  1  0
 15 56  1  0
 17 57  1  0
 17 58  1  0
 17 59  1  0
 18 60  1  1
 22 61  1  0
 23 62  1  0
 25 63  1  0
 26 64  1  0
 27 65  1  0
 28 66  1  0
 29 67  1  0
 30 68  1  0
 30 69  1  0
 31 70  1  6
 32 71  1  1
 35 72  1  0
 35 73  1  0
 35 74  1  0
 40 75  1  0
 40 76  1  0
 40 77  1  0
 41 78  1  0
 41 79  1  0
 41 80  1  0
 43 81  1  0
 43 82  1  0
 43 83  1  0
 44 84  1  0
 45 85  1  1
 46 86  1  0
M  END
>  <meeko>  (8) 
{"is_sidechain": [false], "free_energy": -6.731, "intermolecular_energy": -11.239, "internal_energy": -5.285}

$$$$
LIB_TXFGQQCHKBHRQF__M_PUB_ALL__e8__s20260927
     RDKit          3D

 86 90  0  0  0  0  0  0  0  0999 V2000
    5.5860  -17.5070    0.9160 C   0  0  0  0  0  0  0  0  0  0  0  0
    4.5470  -18.2160    0.1030 C   0  0  0  0  0  0  0  0  0  0  0  0
    4.6280  -19.3800   -0.2610 O   0  0  0  0  0  0  0  0  0  0  0  0
    3.5110  -17.3760   -0.1640 O   0  0  0  0  0  0  0  0  0  0  0  0
    2.7120  -16.9450    0.9700 C   0  0  1  0  0  0  0  0  0  0  0  0
    2.3150  -15.4580    0.8190 C   0  0  2  0  0  0  0  0  0  0  0  0
    3.5050  -14.6280    0.8320 O   0  0  0  0  0  0  0  0  0  0  0  0
    4.0580  -14.3270   -0.3690 C   0  0  0  0  0  0  0  0  0  0  0  0
    3.8370  -14.8950   -1.4260 O   0  0  0  0  0  0  0  0  0  0  0  0
    4.9650  -13.1590   -0.2440 C   0  0  0  0  0  0  0  0  0  0  0  0
    5.5470  -12.5450   -1.3610 C   0  0  0  0  0  0  0  0  0  0  0  0
    6.3990  -11.4510   -1.1890 C   0  0  0  0  0  0  0  0  0  0  0  0
    6.6680  -10.9670    0.0910 C   0  0  0  0  0  0  0  0  0  0  0  0
    6.0870  -11.5720    1.2050 C   0  0  0  0  0  0  0  0  0  0  0  0
    5.2330  -12.6630    1.0380 C   0  0  0  0  0  0  0  0  0  0  0  0
    1.3670  -14.9730    1.9750 C   0  0  1  0  0  0  0  0  0  0  0  0
    2.1620  -14.9650    3.3180 C   0  0  0  0  0  0  0  0  0  0  0  0
    0.9410  -13.4640    1.7590 C   0  0  1  0  0  0  0  0  0  0  0  0
    1.0320  -13.1170    0.3640 O   0  0  0  0  0  0  0  0  0  0  0  0
    0.9980  -11.7930    0.0640 C   0  0  0  0  0  0  0  0  0  0  0  0
    0.3760  -10.9290    0.6600 O   0  0  0  0  0  0  0  0  0  0  0  0
    1.8940  -11.5650   -1.0850 C   0  0  0  0  0  0  0  0  0  0  0  0
    1.7640  -12.3170   -2.1880 C   0  0  0  0  0  0  0  0  0  0  0  0
    2.5400  -12.1240   -3.4200 C   0  0  0  0  0  0  0  0  0  0  0  0
    2.9390  -13.2570   -4.1440 C   0  0  0  0  0  0  0  0  0  0  0  0
    3.6900  -13.1300   -5.3150 C   0  0  0  0  0  0  0  0  0  0  0  0
    4.0590  -11.8670   -5.7710 C   0  0  0  0  0  0  0  0  0  0  0  0
    3.6820  -10.7340   -5.0540 C   0  0  0  0  0  0  0  0  0  0  0  0
    2.9300  -10.8620   -3.8830 C   0  0  0  0  0  0  0  0  0  0  0  0
   -0.4600  -13.0920    2.3140 C   0  0  0  0  0  0  0  0  0  0  0  0
   -1.5130  -14.2280    2.3200 C   0  0  2  0  0  0  0  0  0  0  0  0
   -0.8970  -15.3940    3.0860 C   0  0  1  0  0  0  0  0  0  0  0  0
   -1.8910  -16.3510    3.4720 O   0  0  0  0  0  0  0  0  0  0  0  0
   -2.3190  -16.2910    4.7600 C   0  0  0  0  0  0  0  0  0  0  0  0
   -1.1790  -15.9420    5.6640 C   0  0  0  0  0  0  0  0  0  0  0  0
   -3.4670  -16.4940    5.1330 O   0  0  0  0  0  0  0  0  0  0  0  0
    0.0910  -15.9110    2.0060 C   0  0  1  0  0  0  0  0  0  0  0  0
   -0.6030  -15.6670    0.7170 O   0  0  0  0  0  0  0  0  0  0  0  0
   -1.7730  -14.8560    0.9400 C   0  0  0  0  0  0  0  0  0  0  0  0
   -1.9740  -13.8540   -0.2020 C   0  0  0  0  0  0  0  0  0  0  0  0
   -3.0140  -15.7750    0.8920 C   0  0  0  0  0  0  0  0  0  0  0  0
    0.4230  -17.4510    2.0500 C   0  0  1  0  0  0  0  0  0  0  0  0
    0.8430  -17.9970    3.4210 C   0  0  0  0  0  0  0  0  0  0  0  0
   -0.7740  -18.1920    1.7120 O   0  0  0  0  0  0  0  0  0  0  0  0
    1.4720  -17.8500    0.9770 C   0  0  1  0  0  0  0  0  0  0  0  0
    0.8480  -17.8380   -0.3250 O   0  0  0  0  0  0  0  0  0  0  0  0
    5.3754  -17.6507    1.9860 H   0  0  0  0  0  0  0  0  0  0  0  0
    6.5791  -17.9166    0.6795 H   0  0  0  0  0  0  0  0  0  0  0  0
    5.5666  -16.4329    0.6795 H   0  0  0  0  0  0  0  0  0  0  0  0
    3.2686  -17.0265    1.9153 H   0  0  0  0  0  0  0  0  0  0  0  0
    1.7776  -15.3662   -0.1364 H   0  0  0  0  0  0  0  0  0  0  0  0
    5.3335  -12.9236   -2.3715 H   0  0  0  0  0  0  0  0  0  0  0  0
    6.8586  -10.9704   -2.0652 H   0  0  0  0  0  0  0  0  0  0  0  0
    7.3400  -10.1061    0.2221 H   0  0  0  0  0  0  0  0  0  0  0  0
    6.3015  -11.1898    2.2139 H   0  0  0  0  0  0  0  0  0  0  0  0
    4.7687  -13.1351    1.9164 H   0  0  0  0  0  0  0  0  0  0  0  0
    1.4564  -14.9721    4.1618 H   0  0  0  0  0  0  0  0  0  0  0  0
    2.8040  -15.8567    3.3694 H   0  0  0  0  0  0  0  0  0  0  0  0
    2.7859  -14.0605    3.3694 H   0  0  0  0  0  0  0  0  0  0  0  0
    1.6541  -12.8728    2.3523 H   0  0  0  0  0  0  0  0  0  0  0  0
    2.6652  -10.7820   -1.0376 H   0  0  0  0  0  0  0  0  0  0  0  0
    1.0267  -13.1331   -2.1686 H   0  0  0  0  0  0  0  0  0  0  0  0
    2.6571  -14.2579   -3.7853 H   0  0  0  0  0  0  0  0  0  0  0  0
    3.9897  -14.0271   -5.8766 H   0  0  0  0  0  0  0  0  0  0  0  0
    4.6467  -11.7644   -6.6951 H   0  0  0  0  0  0  0  0  0  0  0  0
    3.9769   -9.7360   -5.4103 H   0  0  0  0  0  0  0  0  0  0  0  0
    2.6418   -9.9622   -3.3197 H   0  0  0  0  0  0  0  0  0  0  0  0
   -0.3305  -12.7480    3.3508 H   0  0  0  0  0  0  0  0  0  0  0  0
   -0.8551  -12.3258    1.6308 H   0  0  0  0  0  0  0  0  0  0  0  0
   -2.4359  -13.7847    2.7222 H   0  0  0  0  0  0  0  0  0  0  0  0
   -0.4199  -15.1495    4.0465 H   0  0  0  0  0  0  0  0  0  0  0  0
   -1.4988  -16.0399    6.7119 H   0  0  0  0  0  0  0  0  0  0  0  0
   -0.3371  -16.6236    5.4723 H   0  0  0  0  0  0  0  0  0  0  0  0
   -0.8630  -14.9060    5.4723 H   0  0  0  0  0  0  0  0  0  0  0  0
   -2.1741  -12.8565    0.2164 H   0  0  0  0  0  0  0  0  0  0  0  0
   -1.0655  -13.8165   -0.8210 H   0  0  0  0  0  0  0  0  0  0  0  0
   -2.8267  -14.1698   -0.8210 H   0  0  0  0  0  0  0  0  0  0  0  0
   -3.3344  -16.0123    1.9172 H   0  0  0  0  0  0  0  0  0  0  0  0
   -3.8301  -15.2617    0.3623 H   0  0  0  0  0  0  0  0  0  0  0  0
   -2.7611  -16.7053    0.3623 H   0  0  0  0  0  0  0  0  0  0  0  0
    0.3784  -17.3930    4.2142 H   0  0  0  0  0  0  0  0  0  0  0  0
    0.5140  -19.0424    3.5158 H   0  0  0  0  0  0  0  0  0  0  0  0
    1.9378  -17.9471    3.5158 H   0  0  0  0  0  0  0  0  0  0  0  0
   -1.4790  -17.7290    2.2160 H   0  0  0  0  0  0  0  0  0  0  0  0
    1.8264  -18.8598    1.2313 H   0  0  0  0  0  0  0  0  0  0  0  0
    1.5610  -17.9770   -0.9780 H   0  0  0  0  0  0  0  0  0  0  0  0
  1  2  1  0
  2  3  2  0
  2  4  1  0
  4  5  1  0
  5  6  1  0
  6  7  1  0
  7  8  1  0
  8  9  2  0
  8 10  1  0
 10 11  2  0
 11 12  1  0
 12 13  2  0
 13 14  1  0
 14 15  2  0
  6 16  1  0
 16 17  1  1
 16 18  1  0
 18 19  1  0
 19 20  1  0
 20 21  2  0
 20 22  1  0
 22 23  2  0
 23 24  1  0
 24 25  2  0
 25 26  1  0
 26 27  2  0
 27 28  1  0
 28 29  2  0
 18 30  1  0
 30 31  1  0
 31 32  1  0
 32 33  1  0
 33 34  1  0
 34 35  1  0
 34 36  2  0
 32 37  1  0
 37 38  1  6
 38 39  1  0
 39 40  1  0
 39 41  1  0
 37 42  1  0
 42 43  1  0
 42 44  1  6
 42 45  1  0
 45 46  1  0
 45  5  1  0
 15 10  1  0
 37 16  1  0
 29 24  1  0
 39 31  1  0
  1 47  1  0
  1 48  1  0
  1 49  1  0
  5 50  1  1
  6 51  1  6
 11 52  1  0
 12 53  1  0
 13 54  1  0
 14 55  1  0
 15 56  1  0
 17 57  1  0
 17 58  1  0
 17 59  1  0
 18 60  1  1
 22 61  1  0
 23 62  1  0
 25 63  1  0
 26 64  1  0
 27 65  1  0
 28 66  1  0
 29 67  1  0
 30 68  1  0
 30 69  1  0
 31 70  1  1
 32 71  1  1
 35 72  1  0
 35 73  1  0
 35 74  1  0
 40 75  1  0
 40 76  1  0
 40 77  1  0
 41 78  1  0
 41 79  1  0
 41 80  1  0
 43 81  1  0
 43 82  1  0
 43 83  1  0
 44 84  1  0
 45 85  1  1
 46 86  1  0
M  END
>  <meeko>  (9) 
{"is_sidechain": [false], "free_energy": -6.512, "intermolecular_energy": -12.847, "internal_energy": -3.305}

$$$$
