LIB_FDCXXPBBHPICRU__M_PUB_ALL__e8__s20260927
     RDKit          3D

 69 74  0  0  0  0  0  0  0  0999 V2000
    7.7930  -15.0390   -5.4510 O   0  0  0  0  0  0  0  0  0  0  0  0
    6.6690  -14.7730   -5.8600 C   0  0  0  0  0  0  0  0  0  0  0  0
    6.2800  -14.6490   -7.1820 N   0  0  0  0  0  0  0  0  0  0  0  0
    7.1190  -14.6620   -8.3180 C   0  0  0  0  0  0  0  0  0  0  0  0
    7.4310  -15.9070   -8.8720 C   0  0  0  0  0  0  0  0  0  0  0  0
    8.2510  -15.9940   -9.9960 C   0  0  0  0  0  0  0  0  0  0  0  0
    8.7720  -14.8380  -10.5770 C   0  0  0  0  0  0  0  0  0  0  0  0
    8.4730  -13.5810  -10.0330 C   0  0  0  0  0  0  0  0  0  0  0  0
    8.9980  -12.3940  -10.6370 N   0  0  0  0  0  0  0  0  0  0  0  0
    8.2780  -11.5670  -11.4710 C   0  0  0  0  0  0  0  0  0  0  0  0
    9.0390  -10.4660  -11.7770 C   0  0  0  0  0  0  0  0  0  0  0  0
   10.3130  -10.6060  -11.1620 C   0  0  0  0  0  0  0  0  0  0  0  0
   11.5050   -9.8430  -11.1280 C   0  0  0  0  0  0  0  0  0  0  0  0
   11.7410   -8.5730  -11.6540 N   0  0  0  0  0  0  0  0  0  0  0  0
   11.4510   -7.3380  -11.1380 C   0  0  0  0  0  0  0  0  0  0  0  0
   11.0330   -7.0860  -10.0150 O   0  0  0  0  0  0  0  0  0  0  0  0
   11.7640   -6.1950  -12.0470 C   0  0  0  0  0  0  0  0  0  0  0  0
   11.3620   -4.9080  -11.6690 C   0  0  0  0  0  0  0  0  0  0  0  0
   11.6350   -3.8160  -12.4940 C   0  0  0  0  0  0  0  0  0  0  0  0
   12.3020   -4.0070  -13.7040 C   0  0  0  0  0  0  0  0  0  0  0  0
   12.6890   -5.2890  -14.0950 C   0  0  0  0  0  0  0  0  0  0  0  0
   12.4180   -6.3840  -13.2720 C   0  0  0  0  0  0  0  0  0  0  0  0
   12.6280  -10.3720  -10.5740 N   0  0  0  0  0  0  0  0  0  0  0  0
   12.5860  -11.5950  -10.0180 C   0  0  0  0  0  0  0  0  0  0  0  0
   11.4610  -12.3900   -9.9560 C   0  0  0  0  0  0  0  0  0  0  0  0
   10.2900  -11.8630  -10.5210 C   0  0  0  0  0  0  0  0  0  0  0  0
    7.6240  -13.5040   -8.9190 C   0  0  0  0  0  0  0  0  0  0  0  0
    5.5720  -14.6180   -4.8620 C   0  0  0  0  0  0  0  0  0  0  0  0
    5.5690  -15.4460   -3.7390 C   0  0  0  0  0  0  0  0  0  0  0  0
    4.5600  -15.3240   -2.7820 C   0  0  0  0  0  0  0  0  0  0  0  0
    3.5400  -14.3700   -2.9170 C   0  0  0  0  0  0  0  0  0  0  0  0
    2.5360  -14.2560   -1.9630 N   0  0  0  0  0  0  0  0  0  0  0  0
    2.9470  -13.9140   -0.5880 C   0  0  0  0  0  0  0  0  0  0  0  0
    1.7090  -13.5300    0.2390 C   0  0  0  0  0  0  0  0  0  0  0  0
    0.7170  -14.5700    0.2120 O   0  0  0  0  0  0  0  0  0  0  0  0
    0.2820  -14.8050   -1.1380 C   0  0  0  0  0  0  0  0  0  0  0  0
    1.4500  -15.2490   -2.0350 C   0  0  0  0  0  0  0  0  0  0  0  0
    3.5470  -13.5230   -4.0400 C   0  0  0  0  0  0  0  0  0  0  0  0
    2.4800  -12.4670   -4.2130 C   0  0  0  0  0  0  0  0  0  0  0  0
    2.1850  -11.7930   -3.0660 F   0  0  0  0  0  0  0  0  0  0  0  0
    1.3010  -12.9590   -4.6900 F   0  0  0  0  0  0  0  0  0  0  0  0
    2.8440  -11.5000   -5.1110 F   0  0  0  0  0  0  0  0  0  0  0  0
    4.5700  -13.6500   -5.0030 C   0  0  0  0  0  0  0  0  0  0  0  0
    5.2880  -14.6150   -7.3730 H   0  0  0  0  0  0  0  0  0  0  0  0
    7.0269  -16.8239   -8.4181 H   0  0  0  0  0  0  0  0  0  0  0  0
    8.4881  -16.9782  -10.4264 H   0  0  0  0  0  0  0  0  0  0  0  0
    9.4187  -14.9127  -11.4637 H   0  0  0  0  0  0  0  0  0  0  0  0
    7.2572  -11.7581  -11.8336 H   0  0  0  0  0  0  0  0  0  0  0  0
    8.7162   -9.6159  -12.3959 H   0  0  0  0  0  0  0  0  0  0  0  0
   12.3080   -8.6320  -12.4870 H   0  0  0  0  0  0  0  0  0  0  0  0
   10.8292   -4.7572  -10.7185 H   0  0  0  0  0  0  0  0  0  0  0  0
   11.3244   -2.8054  -12.1902 H   0  0  0  0  0  0  0  0  0  0  0  0
   12.5232   -3.1454  -14.3510 H   0  0  0  0  0  0  0  0  0  0  0  0
   13.2085   -5.4375  -15.0532 H   0  0  0  0  0  0  0  0  0  0  0  0
   12.7178   -7.3949  -13.5852 H   0  0  0  0  0  0  0  0  0  0  0  0
   13.5152  -11.9898   -9.5813 H   0  0  0  0  0  0  0  0  0  0  0  0
   11.4807  -13.3853   -9.4880 H   0  0  0  0  0  0  0  0  0  0  0  0
    7.3514  -12.5190   -8.5122 H   0  0  0  0  0  0  0  0  0  0  0  0
    6.3628  -16.1960   -3.6075 H   0  0  0  0  0  0  0  0  0  0  0  0
    4.5647  -15.9884   -1.9054 H   0  0  0  0  0  0  0  0  0  0  0  0
    3.4407  -14.7820   -0.1267 H   0  0  0  0  0  0  0  0  0  0  0  0
    3.6459  -13.0651   -0.6157 H   0  0  0  0  0  0  0  0  0  0  0  0
    2.0150  -13.3542    1.2809 H   0  0  0  0  0  0  0  0  0  0  0  0
    1.2695  -12.6209   -0.1974 H   0  0  0  0  0  0  0  0  0  0  0  0
   -0.4860  -15.5925   -1.1345 H   0  0  0  0  0  0  0  0  0  0  0  0
   -0.1245  -13.8649   -1.5392 H   0  0  0  0  0  0  0  0  0  0  0  0
    1.8237  -16.2252   -1.6924 H   0  0  0  0  0  0  0  0  0  0  0  0
    1.1002  -15.3319   -3.0746 H   0  0  0  0  0  0  0  0  0  0  0  0
    4.5807  -12.9803   -5.8756 H   0  0  0  0  0  0  0  0  0  0  0  0
  1  2  2  0
  2  3  1  0
  3  4  1  0
  4  5  2  0
  5  6  1  0
  6  7  2  0
  7  8  1  0
  8  9  1  0
  9 10  1  0
 10 11  2  0
 11 12  1  0
 12 13  2  0
 13 14  1  0
 14 15  1  0
 15 16  2  0
 15 17  1  0
 17 18  2  0
 18 19  1  0
 19 20  2  0
 20 21  1  0
 21 22  2  0
 13 23  1  0
 23 24  2  0
 24 25  1  0
 25 26  2  0
  8 27  2  0
  2 28  1  0
 28 29  2  0
 29 30  1  0
 30 31  2  0
 31 32  1  0
 32 33  1  0
 33 34  1  0
 34 35  1  0
 35 36  1  0
 36 37  1  0
 31 38  1  0
 38 39  1  0
 39 40  1  0
 39 41  1  0
 39 42  1  0
 38 43  2  0
 27  4  1  0
 43 28  1  0
 26  9  1  0
 37 32  1  0
 26 12  1  0
 22 17  1  0
  3 44  1  0
  5 45  1  0
  6 46  1  0
  7 47  1  0
 10 48  1  0
 11 49  1  0
 14 50  1  0
 18 51  1  0
 19 52  1  0
 20 53  1  0
 21 54  1  0
 22 55  1  0
 24 56  1  0
 25 57  1  0
 27 58  1  0
 29 59  1  0
 30 60  1  0
 33 61  1  0
 33 62  1  0
 34 63  1  0
 34 64  1  0
 36 65  1  0
 36 66  1  0
 37 67  1  0
 37 68  1  0
 43 69  1  0
M  END
>  <meeko>  (1) 
{"is_sidechain": [false], "free_energy": -10.668, "intermolecular_energy": -15.034, "internal_energy": -1.591}

$$$$
LIB_FDCXXPBBHPICRU__M_PUB_ALL__e8__s20260927
     RDKit          3D

 69 74  0  0  0  0  0  0  0  0999 V2000
    7.9240  -14.4510   -5.5060 O   0  0  0  0  0  0  0  0  0  0  0  0
    6.7530  -14.4150   -5.8640 C   0  0  0  0  0  0  0  0  0  0  0  0
    6.2850  -14.5030   -7.1640 N   0  0  0  0  0  0  0  0  0  0  0  0
    7.0580  -14.5060   -8.3450 C   0  0  0  0  0  0  0  0  0  0  0  0
    7.2990  -15.7430   -8.9510 C   0  0  0  0  0  0  0  0  0  0  0  0
    8.0520  -15.8210  -10.1230 C   0  0  0  0  0  0  0  0  0  0  0  0
    8.5760  -14.6640  -10.6990 C   0  0  0  0  0  0  0  0  0  0  0  0
    8.3480  -13.4150  -10.1030 C   0  0  0  0  0  0  0  0  0  0  0  0
    8.8770  -12.2270  -10.7010 N   0  0  0  0  0  0  0  0  0  0  0  0
    8.1460  -11.3700  -11.4950 C   0  0  0  0  0  0  0  0  0  0  0  0
    8.9190  -10.2780  -11.8060 C   0  0  0  0  0  0  0  0  0  0  0  0
   10.2090  -10.4550  -11.2360 C   0  0  0  0  0  0  0  0  0  0  0  0
   11.4170   -9.7160  -11.2280 C   0  0  0  0  0  0  0  0  0  0  0  0
   11.6600   -8.4410  -11.7370 N   0  0  0  0  0  0  0  0  0  0  0  0
   11.4440   -7.2110  -11.1740 C   0  0  0  0  0  0  0  0  0  0  0  0
   11.1060   -6.9750  -10.0210 O   0  0  0  0  0  0  0  0  0  0  0  0
   11.7360   -6.0550  -12.0740 C   0  0  0  0  0  0  0  0  0  0  0  0
   12.4800   -6.2840  -13.2380 C   0  0  0  0  0  0  0  0  0  0  0  0
   12.7740   -5.2280  -14.1020 C   0  0  0  0  0  0  0  0  0  0  0  0
   12.3360   -3.9390  -13.8010 C   0  0  0  0  0  0  0  0  0  0  0  0
   11.6100   -3.7010  -12.6340 C   0  0  0  0  0  0  0  0  0  0  0  0
   11.3130   -4.7550  -11.7670 C   0  0  0  0  0  0  0  0  0  0  0  0
   12.5470  -10.2770  -10.7220 N   0  0  0  0  0  0  0  0  0  0  0  0
   12.4990  -11.5090  -10.1870 C   0  0  0  0  0  0  0  0  0  0  0  0
   11.3610  -12.2840  -10.1030 C   0  0  0  0  0  0  0  0  0  0  0  0
   10.1820  -11.7230  -10.6180 C   0  0  0  0  0  0  0  0  0  0  0  0
    7.5660  -13.3460   -8.9400 C   0  0  0  0  0  0  0  0  0  0  0  0
    5.6950  -14.3290   -4.8170 C   0  0  0  0  0  0  0  0  0  0  0  0
    4.3820  -14.0750   -5.2140 C   0  0  0  0  0  0  0  0  0  0  0  0
    3.3650  -13.9930   -4.2610 C   0  0  0  0  0  0  0  0  0  0  0  0
    3.6320  -14.1730   -2.8950 C   0  0  0  0  0  0  0  0  0  0  0  0
    2.6160  -14.0860   -1.9510 N   0  0  0  0  0  0  0  0  0  0  0  0
    1.6350  -15.1870   -1.9110 C   0  0  0  0  0  0  0  0  0  0  0  0
    0.7930  -15.0810   -0.6290 C   0  0  0  0  0  0  0  0  0  0  0  0
    0.1660  -13.7920   -0.5200 O   0  0  0  0  0  0  0  0  0  0  0  0
    1.1640  -12.7580   -0.4710 C   0  0  0  0  0  0  0  0  0  0  0  0
    2.0280  -12.7510   -1.7430 C   0  0  0  0  0  0  0  0  0  0  0  0
    4.9520  -14.4430   -2.4910 C   0  0  0  0  0  0  0  0  0  0  0  0
    5.2790  -14.6660   -1.0330 C   0  0  0  0  0  0  0  0  0  0  0  0
    4.6770  -15.7650   -0.4980 F   0  0  0  0  0  0  0  0  0  0  0  0
    4.9440  -13.6120   -0.2340 F   0  0  0  0  0  0  0  0  0  0  0  0
    6.6180  -14.8530   -0.8210 F   0  0  0  0  0  0  0  0  0  0  0  0
    5.9750  -14.5260   -3.4600 C   0  0  0  0  0  0  0  0  0  0  0  0
    5.2930  -14.6490   -7.2910 H   0  0  0  0  0  0  0  0  0  0  0  0
    6.8923  -16.6605   -8.5008 H   0  0  0  0  0  0  0  0  0  0  0  0
    8.2330  -16.7983  -10.5943 H   0  0  0  0  0  0  0  0  0  0  0  0
    9.1694  -14.7311  -11.6228 H   0  0  0  0  0  0  0  0  0  0  0  0
    7.1100  -11.5341  -11.8264 H   0  0  0  0  0  0  0  0  0  0  0  0
    8.5935   -9.4101  -12.3982 H   0  0  0  0  0  0  0  0  0  0  0  0
   12.1720   -8.4960  -12.6050 H   0  0  0  0  0  0  0  0  0  0  0  0
   12.8337   -7.2989  -13.4721 H   0  0  0  0  0  0  0  0  0  0  0  0
   13.3511   -5.4126  -15.0201 H   0  0  0  0  0  0  0  0  0  0  0  0
   12.5634   -3.1082  -14.4851 H   0  0  0  0  0  0  0  0  0  0  0  0
   11.2709   -2.6819  -12.3962 H   0  0  0  0  0  0  0  0  0  0  0  0
   10.7470   -4.5645  -10.8432 H   0  0  0  0  0  0  0  0  0  0  0  0
   13.4338  -11.9293   -9.7877 H   0  0  0  0  0  0  0  0  0  0  0  0
   11.3767  -13.2889   -9.6559 H   0  0  0  0  0  0  0  0  0  0  0  0
    7.3493  -12.3661   -8.4897 H   0  0  0  0  0  0  0  0  0  0  0  0
    4.1475  -13.9390   -6.2801 H   0  0  0  0  0  0  0  0  0  0  0  0
    2.3355  -13.7834   -4.5868 H   0  0  0  0  0  0  0  0  0  0  0  0
    0.9753  -15.1216   -2.7888 H   0  0  0  0  0  0  0  0  0  0  0  0
    2.1662  -16.1502   -1.9207 H   0  0  0  0  0  0  0  0  0  0  0  0
    0.0143  -15.8577   -0.6467 H   0  0  0  0  0  0  0  0  0  0  0  0
    1.4592  -15.2168    0.2357 H   0  0  0  0  0  0  0  0  0  0  0  0
    0.6645  -11.7829   -0.3723 H   0  0  0  0  0  0  0  0  0  0  0  0
    1.8193  -12.9501    0.3914 H   0  0  0  0  0  0  0  0  0  0  0  0
    1.4023  -12.4881   -2.6087 H   0  0  0  0  0  0  0  0  0  0  0  0
    2.8343  -12.0110   -1.6318 H   0  0  0  0  0  0  0  0  0  0  0  0
    7.0051  -14.7483   -3.1446 H   0  0  0  0  0  0  0  0  0  0  0  0
  1  2  2  0
  2  3  1  0
  3  4  1  0
  4  5  2  0
  5  6  1  0
  6  7  2  0
  7  8  1  0
  8  9  1  0
  9 10  1  0
 10 11  2  0
 11 12  1  0
 12 13  2  0
 13 14  1  0
 14 15  1  0
 15 16  2  0
 15 17  1  0
 17 18  2  0
 18 19  1  0
 19 20  2  0
 20 21  1  0
 21 22  2  0
 13 23  1  0
 23 24  2  0
 24 25  1  0
 25 26  2  0
  8 27  2  0
  2 28  1  0
 28 29  2  0
 29 30  1  0
 30 31  2  0
 31 32  1  0
 32 33  1  0
 33 34  1  0
 34 35  1  0
 35 36  1  0
 36 37  1  0
 31 38  1  0
 38 39  1  0
 39 40  1  0
 39 41  1  0
 39 42  1  0
 38 43  2  0
 27  4  1  0
 43 28  1  0
 26  9  1  0
 37 32  1  0
 26 12  1  0
 22 17  1  0
  3 44  1  0
  5 45  1  0
  6 46  1  0
  7 47  1  0
 10 48  1  0
 11 49  1  0
 14 50  1  0
 18 51  1  0
 19 52  1  0
 20 53  1  0
 21 54  1  0
 22 55  1  0
 24 56  1  0
 25 57  1  0
 27 58  1  0
 29 59  1  0
 30 60  1  0
 33 61  1  0
 33 62  1  0
 34 63  1  0
 34 64  1  0
 36 65  1  0
 36 66  1  0
 37 67  1  0
 37 68  1  0
 43 69  1  0
M  END
>  <meeko>  (2) 
{"is_sidechain": [false], "free_energy": -10.113, "intermolecular_energy": -14.154, "internal_energy": -1.688}

$$$$
LIB_FDCXXPBBHPICRU__M_PUB_ALL__e8__s20260927
     RDKit          3D

 69 74  0  0  0  0  0  0  0  0999 V2000
   -3.3710  -13.3140    0.3660 O   0  0  0  0  0  0  0  0  0  0  0  0
   -3.1680  -13.0680    1.5490 C   0  0  0  0  0  0  0  0  0  0  0  0
   -2.2120  -12.2070    2.0600 N   0  0  0  0  0  0  0  0  0  0  0  0
   -1.1900  -11.5520    1.3400 C   0  0  0  0  0  0  0  0  0  0  0  0
   -1.0940  -10.1640    1.4800 C   0  0  0  0  0  0  0  0  0  0  0  0
   -0.1050   -9.4530    0.8010 C   0  0  0  0  0  0  0  0  0  0  0  0
    0.7970  -10.1200   -0.0280 C   0  0  0  0  0  0  0  0  0  0  0  0
    0.7140  -11.5110   -0.1830 C   0  0  0  0  0  0  0  0  0  0  0  0
    1.6460  -12.1960   -1.0250 N   0  0  0  0  0  0  0  0  0  0  0  0
    2.1440  -13.4550   -0.7650 C   0  0  0  0  0  0  0  0  0  0  0  0
    2.9170  -13.8590   -1.8250 C   0  0  0  0  0  0  0  0  0  0  0  0
    2.9640  -12.8100   -2.7830 C   0  0  0  0  0  0  0  0  0  0  0  0
    3.6000  -12.6140   -4.0330 C   0  0  0  0  0  0  0  0  0  0  0  0
    4.3390  -13.5260   -4.7850 N   0  0  0  0  0  0  0  0  0  0  0  0
    5.5980  -14.0260   -4.5760 C   0  0  0  0  0  0  0  0  0  0  0  0
    6.3000  -13.8690   -3.5860 O   0  0  0  0  0  0  0  0  0  0  0  0
    6.1020  -14.9140   -5.6650 C   0  0  0  0  0  0  0  0  0  0  0  0
    6.7070  -14.3260   -6.7830 C   0  0  0  0  0  0  0  0  0  0  0  0
    7.1890  -15.1250   -7.8210 C   0  0  0  0  0  0  0  0  0  0  0  0
    7.0600  -16.5120   -7.7520 C   0  0  0  0  0  0  0  0  0  0  0  0
    6.4410  -17.1030   -6.6490 C   0  0  0  0  0  0  0  0  0  0  0  0
    5.9580  -16.3070   -5.6070 C   0  0  0  0  0  0  0  0  0  0  0  0
    3.5770  -11.3860   -4.6150 N   0  0  0  0  0  0  0  0  0  0  0  0
    2.9090  -10.3800   -4.0260 C   0  0  0  0  0  0  0  0  0  0  0  0
    2.2170  -10.4870   -2.8370 C   0  0  0  0  0  0  0  0  0  0  0  0
    2.2270  -11.7470   -2.2200 C   0  0  0  0  0  0  0  0  0  0  0  0
   -0.2680  -12.2200    0.5260 C   0  0  0  0  0  0  0  0  0  0  0  0
   -4.0600  -13.6950    2.5660 C   0  0  0  0  0  0  0  0  0  0  0  0
   -5.2670  -13.0660    2.8740 C   0  0  0  0  0  0  0  0  0  0  0  0
   -6.1300  -13.6280    3.8170 C   0  0  0  0  0  0  0  0  0  0  0  0
   -5.8140  -14.8330    4.4640 C   0  0  0  0  0  0  0  0  0  0  0  0
   -6.6740  -15.3860    5.4050 N   0  0  0  0  0  0  0  0  0  0  0  0
   -7.9430  -15.9540    4.9090 C   0  0  0  0  0  0  0  0  0  0  0  0
   -8.6060  -16.7820    6.0210 C   0  0  0  0  0  0  0  0  0  0  0  0
   -8.7900  -16.0030    7.2160 O   0  0  0  0  0  0  0  0  0  0  0  0
   -7.5200  -15.5490    7.7120 C   0  0  0  0  0  0  0  0  0  0  0  0
   -6.8000  -14.6620    6.6820 C   0  0  0  0  0  0  0  0  0  0  0  0
   -4.6050  -15.4790    4.1470 C   0  0  0  0  0  0  0  0  0  0  0  0
   -4.2380  -16.7880    4.8030 C   0  0  0  0  0  0  0  0  0  0  0  0
   -4.1930  -16.7260    6.1640 F   0  0  0  0  0  0  0  0  0  0  0  0
   -3.0320  -17.2810    4.3960 F   0  0  0  0  0  0  0  0  0  0  0  0
   -5.1340  -17.7830    4.5210 F   0  0  0  0  0  0  0  0  0  0  0  0
   -3.7390  -14.9050    3.1910 C   0  0  0  0  0  0  0  0  0  0  0  0
   -2.2850  -11.9590    3.0380 H   0  0  0  0  0  0  0  0  0  0  0  0
   -1.8029   -9.6297    2.1297 H   0  0  0  0  0  0  0  0  0  0  0  0
   -0.0359   -8.3616    0.9196 H   0  0  0  0  0  0  0  0  0  0  0  0
    1.5748   -9.5536   -0.5611 H   0  0  0  0  0  0  0  0  0  0  0  0
    1.9526  -14.0416    0.1456 H   0  0  0  0  0  0  0  0  0  0  0  0
    3.4177  -14.8341   -1.9178 H   0  0  0  0  0  0  0  0  0  0  0  0
    3.7720  -13.9260   -5.5180 H   0  0  0  0  0  0  0  0  0  0  0  0
    6.8025  -13.2318   -6.8432 H   0  0  0  0  0  0  0  0  0  0  0  0
    7.6709  -14.6605   -8.6939 H   0  0  0  0  0  0  0  0  0  0  0  0
    7.4464  -17.1410   -8.5675 H   0  0  0  0  0  0  0  0  0  0  0  0
    6.3334  -18.1966   -6.6001 H   0  0  0  0  0  0  0  0  0  0  0  0
    5.4649  -16.7735   -4.7414 H   0  0  0  0  0  0  0  0  0  0  0  0
    2.9141   -9.4010   -4.5275 H   0  0  0  0  0  0  0  0  0  0  0  0
    1.6860   -9.6303   -2.3965 H   0  0  0  0  0  0  0  0  0  0  0  0
   -0.3137  -13.3157    0.4408 H   0  0  0  0  0  0  0  0  0  0  0  0
   -5.5392  -12.1254    2.3728 H   0  0  0  0  0  0  0  0  0  0  0  0
   -7.0742  -13.1174    4.0571 H   0  0  0  0  0  0  0  0  0  0  0  0
   -8.6168  -15.1380    4.6087 H   0  0  0  0  0  0  0  0  0  0  0  0
   -7.7401  -16.6011    4.0429 H   0  0  0  0  0  0  0  0  0  0  0  0
   -9.5867  -17.1342    5.6687 H   0  0  0  0  0  0  0  0  0  0  0  0
   -7.9489  -17.6314    6.2590 H   0  0  0  0  0  0  0  0  0  0  0  0
   -7.6818  -14.9692    8.6327 H   0  0  0  0  0  0  0  0  0  0  0  0
   -6.8911  -16.4293    7.9107 H   0  0  0  0  0  0  0  0  0  0  0  0
   -7.3797  -13.7405    6.5243 H   0  0  0  0  0  0  0  0  0  0  0  0
   -5.7976  -14.4081    7.0573 H   0  0  0  0  0  0  0  0  0  0  0  0
   -2.7993  -15.4159    2.9341 H   0  0  0  0  0  0  0  0  0  0  0  0
  1  2  2  0
  2  3  1  0
  3  4  1  0
  4  5  2  0
  5  6  1  0
  6  7  2  0
  7  8  1  0
  8  9  1  0
  9 10  1  0
 10 11  2  0
 11 12  1  0
 12 13  2  0
 13 14  1  0
 14 15  1  0
 15 16  2  0
 15 17  1  0
 17 18  2  0
 18 19  1  0
 19 20  2  0
 20 21  1  0
 21 22  2  0
 13 23  1  0
 23 24  2  0
 24 25  1  0
 25 26  2  0
  8 27  2  0
  2 28  1  0
 28 29  2  0
 29 30  1  0
 30 31  2  0
 31 32  1  0
 32 33  1  0
 33 34  1  0
 34 35  1  0
 35 36  1  0
 36 37  1  0
 31 38  1  0
 38 39  1  0
 39 40  1  0
 39 41  1  0
 39 42  1  0
 38 43  2  0
 27  4  1  0
 43 28  1  0
 26  9  1  0
 37 32  1  0
 26 12  1  0
 22 17  1  0
  3 44  1  0
  5 45  1  0
  6 46  1  0
  7 47  1  0
 10 48  1  0
 11 49  1  0
 14 50  1  0
 18 51  1  0
 19 52  1  0
 20 53  1  0
 21 54  1  0
 22 55  1  0
 24 56  1  0
 25 57  1  0
 27 58  1  0
 29 59  1  0
 30 60  1  0
 33 61  1  0
 33 62  1  0
 34 63  1  0
 34 64  1  0
 36 65  1  0
 36 66  1  0
 37 67  1  0
 37 68  1  0
 43 69  1  0
M  END
>  <meeko>  (3) 
{"is_sidechain": [false], "free_energy": -9.369, "intermolecular_energy": -13.633, "internal_energy": -1.16}

$$$$
LIB_FDCXXPBBHPICRU__M_PUB_ALL__e8__s20260927
     RDKit          3D

 69 74  0  0  0  0  0  0  0  0999 V2000
   -1.4610  -14.3010    0.7470 O   0  0  0  0  0  0  0  0  0  0  0  0
   -0.6500  -14.0440    1.6280 C   0  0  0  0  0  0  0  0  0  0  0  0
    0.3550  -13.0940    1.5730 N   0  0  0  0  0  0  0  0  0  0  0  0
    0.7390  -12.3310    0.4490 C   0  0  0  0  0  0  0  0  0  0  0  0
    0.3380  -10.9920    0.4130 C   0  0  0  0  0  0  0  0  0  0  0  0
    0.6860  -10.1790   -0.6650 C   0  0  0  0  0  0  0  0  0  0  0  0
    1.4360  -10.6970   -1.7210 C   0  0  0  0  0  0  0  0  0  0  0  0
    1.8440  -12.0380   -1.7050 C   0  0  0  0  0  0  0  0  0  0  0  0
    2.6230  -12.5640   -2.7840 N   0  0  0  0  0  0  0  0  0  0  0  0
    2.1220  -13.3840   -3.7720 C   0  0  0  0  0  0  0  0  0  0  0  0
    3.1020  -13.6090   -4.7070 C   0  0  0  0  0  0  0  0  0  0  0  0
    4.2920  -12.9550   -4.2890 C   0  0  0  0  0  0  0  0  0  0  0  0
    5.6100  -12.8410   -4.7930 C   0  0  0  0  0  0  0  0  0  0  0  0
    6.1190  -13.2970   -6.0090 N   0  0  0  0  0  0  0  0  0  0  0  0
    5.9320  -12.8160   -7.2780 C   0  0  0  0  0  0  0  0  0  0  0  0
    5.3690  -11.7770   -7.5990 O   0  0  0  0  0  0  0  0  0  0  0  0
    6.5620  -13.6380   -8.3530 C   0  0  0  0  0  0  0  0  0  0  0  0
    7.0690  -14.9000   -8.0210 C   0  0  0  0  0  0  0  0  0  0  0  0
    7.6680  -15.6960   -8.9990 C   0  0  0  0  0  0  0  0  0  0  0  0
    7.7710  -15.2300  -10.3100 C   0  0  0  0  0  0  0  0  0  0  0  0
    7.2840  -13.9660  -10.6430 C   0  0  0  0  0  0  0  0  0  0  0  0
    6.6840  -13.1660   -9.6680 C   0  0  0  0  0  0  0  0  0  0  0  0
    6.5780  -12.2730   -4.0270 N   0  0  0  0  0  0  0  0  0  0  0  0
    6.2670  -11.7770   -2.8170 C   0  0  0  0  0  0  0  0  0  0  0  0
    5.0040  -11.7950   -2.2630 C   0  0  0  0  0  0  0  0  0  0  0  0
    3.9890  -12.3760   -3.0380 C   0  0  0  0  0  0  0  0  0  0  0  0
    1.5120  -12.8390   -0.6020 C   0  0  0  0  0  0  0  0  0  0  0  0
   -0.7630  -14.7680    2.9270 C   0  0  0  0  0  0  0  0  0  0  0  0
   -0.2210  -14.1780    4.0690 C   0  0  0  0  0  0  0  0  0  0  0  0
   -0.3130  -14.8250    5.3030 C   0  0  0  0  0  0  0  0  0  0  0  0
   -0.9560  -16.0660    5.4270 C   0  0  0  0  0  0  0  0  0  0  0  0
   -1.0420  -16.7070    6.6570 N   0  0  0  0  0  0  0  0  0  0  0  0
   -2.0380  -16.1960    7.6180 C   0  0  0  0  0  0  0  0  0  0  0  0
   -2.2050  -17.2000    8.7700 C   0  0  0  0  0  0  0  0  0  0  0  0
   -0.9450  -17.4910    9.3990 O   0  0  0  0  0  0  0  0  0  0  0  0
   -0.0390  -18.0700    8.4460 C   0  0  0  0  0  0  0  0  0  0  0  0
    0.2340  -17.1120    7.2750 C   0  0  0  0  0  0  0  0  0  0  0  0
   -1.5170  -16.6590    4.2810 C   0  0  0  0  0  0  0  0  0  0  0  0
   -2.2380  -17.9830    4.3750 C   0  0  0  0  0  0  0  0  0  0  0  0
   -1.5320  -18.9460    5.0300 F   0  0  0  0  0  0  0  0  0  0  0  0
   -2.5740  -18.5050    3.1600 F   0  0  0  0  0  0  0  0  0  0  0  0
   -3.4230  -17.8850    5.0530 F   0  0  0  0  0  0  0  0  0  0  0  0
   -1.4210  -15.9980    3.0370 C   0  0  0  0  0  0  0  0  0  0  0  0
    0.8230  -12.8620    2.4390 H   0  0  0  0  0  0  0  0  0  0  0  0
   -0.2560  -10.5772    1.2407 H   0  0  0  0  0  0  0  0  0  0  0  0
    0.3682   -9.1261   -0.6828 H   0  0  0  0  0  0  0  0  0  0  0  0
    1.7081  -10.0512   -2.5689 H   0  0  0  0  0  0  0  0  0  0  0  0
    1.1012  -13.7925   -3.8060 H   0  0  0  0  0  0  0  0  0  0  0  0
    2.9850  -14.1986   -5.6282 H   0  0  0  0  0  0  0  0  0  0  0  0
    6.8060  -14.0200   -5.8590 H   0  0  0  0  0  0  0  0  0  0  0  0
    6.9951  -15.2656   -6.9862 H   0  0  0  0  0  0  0  0  0  0  0  0
    8.0586  -16.6901   -8.7361 H   0  0  0  0  0  0  0  0  0  0  0  0
    8.2368  -15.8601  -11.0820 H   0  0  0  0  0  0  0  0  0  0  0  0
    7.3727  -13.5984  -11.6760 H   0  0  0  0  0  0  0  0  0  0  0  0
    6.3074  -12.1666   -9.9313 H   0  0  0  0  0  0  0  0  0  0  0  0
    7.0774  -11.3246   -2.2266 H   0  0  0  0  0  0  0  0  0  0  0  0
    4.8031  -11.3759   -1.2660 H   0  0  0  0  0  0  0  0  0  0  0  0
    1.8639  -13.8805   -0.5624 H   0  0  0  0  0  0  0  0  0  0  0  0
    0.2798  -13.2012    3.9973 H   0  0  0  0  0  0  0  0  0  0  0  0
    0.1266  -14.3532    6.1942 H   0  0  0  0  0  0  0  0  0  0  0  0
   -1.6970  -15.2306    8.0202 H   0  0  0  0  0  0  0  0  0  0  0  0
   -3.0031  -16.0618    7.1074 H   0  0  0  0  0  0  0  0  0  0  0  0
   -2.8892  -16.7748    9.5190 H   0  0  0  0  0  0  0  0  0  0  0  0
   -2.6105  -18.1357    8.3577 H   0  0  0  0  0  0  0  0  0  0  0  0
    0.9117  -18.2989    8.9498 H   0  0  0  0  0  0  0  0  0  0  0  0
   -0.4989  -18.9848    8.0439 H   0  0  0  0  0  0  0  0  0  0  0  0
    0.7595  -16.2201    7.6470 H   0  0  0  0  0  0  0  0  0  0  0  0
    0.8568  -17.6214    6.5249 H   0  0  0  0  0  0  0  0  0  0  0  0
   -1.8692  -16.4558    2.1429 H   0  0  0  0  0  0  0  0  0  0  0  0
  1  2  2  0
  2  3  1  0
  3  4  1  0
  4  5  2  0
  5  6  1  0
  6  7  2  0
  7  8  1  0
  8  9  1  0
  9 10  1  0
 10 11  2  0
 11 12  1  0
 12 13  2  0
 13 14  1  0
 14 15  1  0
 15 16  2  0
 15 17  1  0
 17 18  2  0
 18 19  1  0
 19 20  2  0
 20 21  1  0
 21 22  2  0
 13 23  1  0
 23 24  2  0
 24 25  1  0
 25 26  2  0
  8 27  2  0
  2 28  1  0
 28 29  2  0
 29 30  1  0
 30 31  2  0
 31 32  1  0
 32 33  1  0
 33 34  1  0
 34 35  1  0
 35 36  1  0
 36 37  1  0
 31 38  1  0
 38 39  1  0
 39 40  1  0
 39 41  1  0
 39 42  1  0
 38 43  2  0
 27  4  1  0
 43 28  1  0
 26  9  1  0
 37 32  1  0
 26 12  1  0
 22 17  1  0
  3 44  1  0
  5 45  1  0
  6 46  1  0
  7 47  1  0
 10 48  1  0
 11 49  1  0
 14 50  1  0
 18 51  1  0
 19 52  1  0
 20 53  1  0
 21 54  1  0
 22 55  1  0
 24 56  1  0
 25 57  1  0
 27 58  1  0
 29 59  1  0
 30 60  1  0
 33 61  1  0
 33 62  1  0
 34 63  1  0
 34 64  1  0
 36 65  1  0
 36 66  1  0
 37 67  1  0
 37 68  1  0
 43 69  1  0
M  END
>  <meeko>  (4) 
{"is_sidechain": [false], "free_energy": -9.146, "intermolecular_energy": -12.837, "internal_energy": -1.642}

$$$$
LIB_FDCXXPBBHPICRU__M_PUB_ALL__e8__s20260927
     RDKit          3D

 69 74  0  0  0  0  0  0  0  0999 V2000
    0.5950  -15.8560    0.9710 O   0  0  0  0  0  0  0  0  0  0  0  0
    0.6270  -15.0910    1.9270 C   0  0  0  0  0  0  0  0  0  0  0  0
    1.0370  -13.7700    1.9130 N   0  0  0  0  0  0  0  0  0  0  0  0
    1.6350  -13.0790    0.8370 C   0  0  0  0  0  0  0  0  0  0  0  0
    0.8380  -12.1680    0.1370 C   0  0  0  0  0  0  0  0  0  0  0  0
    1.3650  -11.4480   -0.9360 C   0  0  0  0  0  0  0  0  0  0  0  0
    2.6920  -11.6330   -1.3220 C   0  0  0  0  0  0  0  0  0  0  0  0
    3.5060  -12.5450   -0.6330 C   0  0  0  0  0  0  0  0  0  0  0  0
    4.8710  -12.7250   -1.0230 N   0  0  0  0  0  0  0  0  0  0  0  0
    5.2680  -13.3950   -2.1600 C   0  0  0  0  0  0  0  0  0  0  0  0
    6.6300  -13.2820   -2.2930 C   0  0  0  0  0  0  0  0  0  0  0  0
    7.1400  -12.5590   -1.1810 C   0  0  0  0  0  0  0  0  0  0  0  0
    8.4250  -12.1550   -0.7450 C   0  0  0  0  0  0  0  0  0  0  0  0
    9.6470  -12.2790   -1.4050 N   0  0  0  0  0  0  0  0  0  0  0  0
   10.7130  -13.0960   -1.1390 C   0  0  0  0  0  0  0  0  0  0  0  0
   10.7610  -14.0060   -0.3210 O   0  0  0  0  0  0  0  0  0  0  0  0
   11.9020  -12.8710   -2.0140 C   0  0  0  0  0  0  0  0  0  0  0  0
   12.2100  -13.8300   -2.9870 C   0  0  0  0  0  0  0  0  0  0  0  0
   13.3140  -13.6550   -3.8220 C   0  0  0  0  0  0  0  0  0  0  0  0
   14.1210  -12.5260   -3.6810 C   0  0  0  0  0  0  0  0  0  0  0  0
   13.8320  -11.5760   -2.7020 C   0  0  0  0  0  0  0  0  0  0  0  0
   12.7260  -11.7470   -1.8650 C   0  0  0  0  0  0  0  0  0  0  0  0
    8.5770  -11.6150    0.4930 N   0  0  0  0  0  0  0  0  0  0  0  0
    7.5010  -11.4230    1.2750 C   0  0  0  0  0  0  0  0  0  0  0  0
    6.2060  -11.7360    0.9180 C   0  0  0  0  0  0  0  0  0  0  0  0
    6.0260  -12.2920   -0.3580 C   0  0  0  0  0  0  0  0  0  0  0  0
    2.9730  -13.2430    0.4610 C   0  0  0  0  0  0  0  0  0  0  0  0
    0.1230  -15.5820    3.2420 C   0  0  0  0  0  0  0  0  0  0  0  0
    0.5600  -14.9450    4.4040 C   0  0  0  0  0  0  0  0  0  0  0  0
    0.1040  -15.3740    5.6520 C   0  0  0  0  0  0  0  0  0  0  0  0
   -0.8050  -16.4370    5.7680 C   0  0  0  0  0  0  0  0  0  0  0  0
   -1.2510  -16.8630    7.0140 N   0  0  0  0  0  0  0  0  0  0  0  0
   -2.2080  -15.9910    7.7220 C   0  0  0  0  0  0  0  0  0  0  0  0
   -2.8190  -16.7540    8.9080 C   0  0  0  0  0  0  0  0  0  0  0  0
   -1.8000  -17.2650    9.7840 O   0  0  0  0  0  0  0  0  0  0  0  0
   -0.9480  -18.1780    9.0730 C   0  0  0  0  0  0  0  0  0  0  0  0
   -0.2470  -17.4880    7.8910 C   0  0  0  0  0  0  0  0  0  0  0  0
   -1.2590  -17.0740    4.5990 C   0  0  0  0  0  0  0  0  0  0  0  0
   -2.2540  -18.2070    4.6780 C   0  0  0  0  0  0  0  0  0  0  0  0
   -1.8290  -19.2590    5.4340 F   0  0  0  0  0  0  0  0  0  0  0  0
   -2.5950  -18.7170    3.4600 F   0  0  0  0  0  0  0  0  0  0  0  0
   -3.4420  -17.8220    5.2400 F   0  0  0  0  0  0  0  0  0  0  0  0
   -0.7960  -16.6340    3.3410 C   0  0  0  0  0  0  0  0  0  0  0  0
    0.8310  -13.2110    2.7300 H   0  0  0  0  0  0  0  0  0  0  0  0
   -0.2105  -12.0180    0.4338 H   0  0  0  0  0  0  0  0  0  0  0  0
    0.7311  -10.7318   -1.4793 H   0  0  0  0  0  0  0  0  0  0  0  0
    3.1018  -11.0627   -2.1686 H   0  0  0  0  0  0  0  0  0  0  0  0
    4.6014  -13.9334   -2.8497 H   0  0  0  0  0  0  0  0  0  0  0  0
    7.2280  -13.6849   -3.1237 H   0  0  0  0  0  0  0  0  0  0  0  0
    9.6450  -11.7440   -2.2610 H   0  0  0  0  0  0  0  0  0  0  0  0
   11.5790  -14.7248   -3.0934 H   0  0  0  0  0  0  0  0  0  0  0  0
   13.5477  -14.4064   -4.5906 H   0  0  0  0  0  0  0  0  0  0  0  0
   14.9875  -12.3847   -4.3437 H   0  0  0  0  0  0  0  0  0  0  0  0
   14.4753  -10.6910   -2.5884 H   0  0  0  0  0  0  0  0  0  0  0  0
   12.5022  -10.9997   -1.0895 H   0  0  0  0  0  0  0  0  0  0  0  0
    7.6647  -10.9850    2.2707 H   0  0  0  0  0  0  0  0  0  0  0  0
    5.3592  -11.5592    1.5974 H   0  0  0  0  0  0  0  0  0  0  0  0
    3.6161  -13.9292    1.0316 H   0  0  0  0  0  0  0  0  0  0  0  0
    1.2650  -14.1033    4.3367 H   0  0  0  0  0  0  0  0  0  0  0  0
    0.4638  -14.8696    6.5609 H   0  0  0  0  0  0  0  0  0  0  0  0
   -1.6845  -15.0971    8.0921 H   0  0  0  0  0  0  0  0  0  0  0  0
   -3.0081  -15.6885    7.0304 H   0  0  0  0  0  0  0  0  0  0  0  0
   -3.4696  -16.0722    9.4752 H   0  0  0  0  0  0  0  0  0  0  0  0
   -3.3944  -17.6043    8.5131 H   0  0  0  0  0  0  0  0  0  0  0  0
   -0.1853  -18.5671    9.7636 H   0  0  0  0  0  0  0  0  0  0  0  0
   -1.5699  -18.9945    8.6774 H   0  0  0  0  0  0  0  0  0  0  0  0
    0.4370  -16.7155    8.2721 H   0  0  0  0  0  0  0  0  0  0  0  0
    0.3217  -18.2355    7.3184 H   0  0  0  0  0  0  0  0  0  0  0  0
   -1.1616  -17.1235    2.4263 H   0  0  0  0  0  0  0  0  0  0  0  0
  1  2  2  0
  2  3  1  0
  3  4  1  0
  4  5  2  0
  5  6  1  0
  6  7  2  0
  7  8  1  0
  8  9  1  0
  9 10  1  0
 10 11  2  0
 11 12  1  0
 12 13  2  0
 13 14  1  0
 14 15  1  0
 15 16  2  0
 15 17  1  0
 17 18  2  0
 18 19  1  0
 19 20  2  0
 20 21  1  0
 21 22  2  0
 13 23  1  0
 23 24  2  0
 24 25  1  0
 25 26  2  0
  8 27  2  0
  2 28  1  0
 28 29  2  0
 29 30  1  0
 30 31  2  0
 31 32  1  0
 32 33  1  0
 33 34  1  0
 34 35  1  0
 35 36  1  0
 36 37  1  0
 31 38  1  0
 38 39  1  0
 39 40  1  0
 39 41  1  0
 39 42  1  0
 38 43  2  0
 27  4  1  0
 43 28  1  0
 26  9  1  0
 37 32  1  0
 26 12  1  0
 22 17  1  0
  3 44  1  0
  5 45  1  0
  6 46  1  0
  7 47  1  0
 10 48  1  0
 11 49  1  0
 14 50  1  0
 18 51  1  0
 19 52  1  0
 20 53  1  0
 21 54  1  0
 22 55  1  0
 24 56  1  0
 25 57  1  0
 27 58  1  0
 29 59  1  0
 30 60  1  0
 33 61  1  0
 33 62  1  0
 34 63  1  0
 34 64  1  0
 36 65  1  0
 36 66  1  0
 37 67  1  0
 37 68  1  0
 43 69  1  0
M  END
>  <meeko>  (5) 
{"is_sidechain": [false], "free_energy": -9.125, "intermolecular_energy": -12.933, "internal_energy": -1.517}

$$$$
LIB_FDCXXPBBHPICRU__M_PUB_ALL__e8__s20260927
     RDKit          3D

 69 74  0  0  0  0  0  0  0  0999 V2000
    6.2180  -11.8080    0.0050 O   0  0  0  0  0  0  0  0  0  0  0  0
    6.4410  -12.1850   -1.1390 C   0  0  0  0  0  0  0  0  0  0  0  0
    5.5750  -12.1140   -2.2150 N   0  0  0  0  0  0  0  0  0  0  0  0
    4.2170  -11.7290   -2.1870 C   0  0  0  0  0  0  0  0  0  0  0  0
    3.7890  -10.8100   -3.1500 C   0  0  0  0  0  0  0  0  0  0  0  0
    2.4600  -10.3880   -3.1830 C   0  0  0  0  0  0  0  0  0  0  0  0
    1.5450  -10.8770   -2.2510 C   0  0  0  0  0  0  0  0  0  0  0  0
    1.9560  -11.7960   -1.2750 C   0  0  0  0  0  0  0  0  0  0  0  0
    1.0140  -12.3060   -0.3260 N   0  0  0  0  0  0  0  0  0  0  0  0
    0.6930  -11.6790    0.8580 C   0  0  0  0  0  0  0  0  0  0  0  0
   -0.3230  -12.3710    1.4710 C   0  0  0  0  0  0  0  0  0  0  0  0
   -0.6380  -13.5110    0.6830 C   0  0  0  0  0  0  0  0  0  0  0  0
   -1.5450  -14.5930    0.7940 C   0  0  0  0  0  0  0  0  0  0  0  0
   -2.5450  -14.7960    1.7450 N   0  0  0  0  0  0  0  0  0  0  0  0
   -3.6300  -14.0220    2.0620 C   0  0  0  0  0  0  0  0  0  0  0  0
   -4.0290  -13.0290    1.4680 O   0  0  0  0  0  0  0  0  0  0  0  0
   -4.4300  -14.5200    3.2200 C   0  0  0  0  0  0  0  0  0  0  0  0
   -5.5720  -13.8040    3.6020 C   0  0  0  0  0  0  0  0  0  0  0  0
   -6.3450  -14.2380    4.6810 C   0  0  0  0  0  0  0  0  0  0  0  0
   -5.9730  -15.3810    5.3880 C   0  0  0  0  0  0  0  0  0  0  0  0
   -4.8270  -16.0880    5.0250 C   0  0  0  0  0  0  0  0  0  0  0  0
   -4.0520  -15.6580    3.9450 C   0  0  0  0  0  0  0  0  0  0  0  0
   -1.4580  -15.6360   -0.0730 N   0  0  0  0  0  0  0  0  0  0  0  0
   -0.5460  -15.6110   -1.0590 C   0  0  0  0  0  0  0  0  0  0  0  0
    0.3440  -14.5800   -1.2780 C   0  0  0  0  0  0  0  0  0  0  0  0
    0.2700  -13.4920   -0.3960 C   0  0  0  0  0  0  0  0  0  0  0  0
    3.2890  -12.2340   -1.2690 C   0  0  0  0  0  0  0  0  0  0  0  0
    7.7950  -12.7260   -1.4540 C   0  0  0  0  0  0  0  0  0  0  0  0
    7.9490  -13.5190   -2.5910 C   0  0  0  0  0  0  0  0  0  0  0  0
    9.2030  -14.0380   -2.9190 C   0  0  0  0  0  0  0  0  0  0  0  0
   10.3310  -13.7690   -2.1280 C   0  0  0  0  0  0  0  0  0  0  0  0
   11.5760  -14.2910   -2.4580 N   0  0  0  0  0  0  0  0  0  0  0  0
   12.2320  -13.7610   -3.6680 C   0  0  0  0  0  0  0  0  0  0  0  0
   13.7010  -14.2150   -3.6980 C   0  0  0  0  0  0  0  0  0  0  0  0
   13.8100  -15.6450   -3.6040 O   0  0  0  0  0  0  0  0  0  0  0  0
   13.2380  -16.1050   -2.3680 C   0  0  0  0  0  0  0  0  0  0  0  0
   11.7470  -15.7430   -2.2690 C   0  0  0  0  0  0  0  0  0  0  0  0
   10.1840  -12.9580   -0.9880 C   0  0  0  0  0  0  0  0  0  0  0  0
   11.3760  -12.6250   -0.1230 C   0  0  0  0  0  0  0  0  0  0  0  0
   11.0790  -11.8180    0.9340 F   0  0  0  0  0  0  0  0  0  0  0  0
   12.3890  -12.0170   -0.8040 F   0  0  0  0  0  0  0  0  0  0  0  0
   11.9470  -13.7400    0.4300 F   0  0  0  0  0  0  0  0  0  0  0  0
    8.9130  -12.4350   -0.6640 C   0  0  0  0  0  0  0  0  0  0  0  0
    5.9600  -12.2860   -3.1340 H   0  0  0  0  0  0  0  0  0  0  0  0
    4.5053  -10.4172   -3.8866 H   0  0  0  0  0  0  0  0  0  0  0  0
    2.1325   -9.6671   -3.9466 H   0  0  0  0  0  0  0  0  0  0  0  0
    0.4981  -10.5408   -2.2816 H   0  0  0  0  0  0  0  0  0  0  0  0
    1.1732  -10.7701    1.2496 H   0  0  0  0  0  0  0  0  0  0  0  0
   -0.8118  -12.0894    2.4153 H   0  0  0  0  0  0  0  0  0  0  0  0
   -2.4680  -15.7170    2.1510 H   0  0  0  0  0  0  0  0  0  0  0  0
   -5.8607  -12.8972    3.0503 H   0  0  0  0  0  0  0  0  0  0  0  0
   -7.2462  -13.6789    4.9729 H   0  0  0  0  0  0  0  0  0  0  0  0
   -6.5852  -15.7259    6.2343 H   0  0  0  0  0  0  0  0  0  0  0  0
   -4.5330  -16.9851    5.5896 H   0  0  0  0  0  0  0  0  0  0  0  0
   -3.1448  -16.2129    3.6637 H   0  0  0  0  0  0  0  0  0  0  0  0
   -0.5060  -16.4739   -1.7401 H   0  0  0  0  0  0  0  0  0  0  0  0
    1.0733  -14.6096   -2.1010 H   0  0  0  0  0  0  0  0  0  0  0  0
    3.6093  -12.9852   -0.5321 H   0  0  0  0  0  0  0  0  0  0  0  0
    7.0808  -13.7360   -3.2306 H   0  0  0  0  0  0  0  0  0  0  0  0
    9.3089  -14.6692   -3.8136 H   0  0  0  0  0  0  0  0  0  0  0  0
   11.7134  -14.1393   -4.5613 H   0  0  0  0  0  0  0  0  0  0  0  0
   12.1891  -12.6619   -3.6557 H   0  0  0  0  0  0  0  0  0  0  0  0
   14.1592  -13.8824   -4.6411 H   0  0  0  0  0  0  0  0  0  0  0  0
   14.2183  -13.7709   -2.8347 H   0  0  0  0  0  0  0  0  0  0  0  0
   13.3452  -17.1982   -2.3093 H   0  0  0  0  0  0  0  0  0  0  0  0
   13.7684  -15.6149   -1.5383 H   0  0  0  0  0  0  0  0  0  0  0  0
   11.1872  -16.2818   -3.0477 H   0  0  0  0  0  0  0  0  0  0  0  0
   11.3672  -16.0291   -1.2771 H   0  0  0  0  0  0  0  0  0  0  0  0
    8.8002  -11.7908    0.2204 H   0  0  0  0  0  0  0  0  0  0  0  0
  1  2  2  0
  2  3  1  0
  3  4  1  0
  4  5  2  0
  5  6  1  0
  6  7  2  0
  7  8  1  0
  8  9  1  0
  9 10  1  0
 10 11  2  0
 11 12  1  0
 12 13  2  0
 13 14  1  0
 14 15  1  0
 15 16  2  0
 15 17  1  0
 17 18  2  0
 18 19  1  0
 19 20  2  0
 20 21  1  0
 21 22  2  0
 13 23  1  0
 23 24  2  0
 24 25  1  0
 25 26  2  0
  8 27  2  0
  2 28  1  0
 28 29  2  0
 29 30  1  0
 30 31  2  0
 31 32  1  0
 32 33  1  0
 33 34  1  0
 34 35  1  0
 35 36  1  0
 36 37  1  0
 31 38  1  0
 38 39  1  0
 39 40  1  0
 39 41  1  0
 39 42  1  0
 38 43  2  0
 27  4  1  0
 43 28  1  0
 26  9  1  0
 37 32  1  0
 26 12  1  0
 22 17  1  0
  3 44  1  0
  5 45  1  0
  6 46  1  0
  7 47  1  0
 10 48  1  0
 11 49  1  0
 14 50  1  0
 18 51  1  0
 19 52  1  0
 20 53  1  0
 21 54  1  0
 22 55  1  0
 24 56  1  0
 25 57  1  0
 27 58  1  0
 29 59  1  0
 30 60  1  0
 33 61  1  0
 33 62  1  0
 34 63  1  0
 34 64  1  0
 36 65  1  0
 36 66  1  0
 37 67  1  0
 37 68  1  0
 43 69  1  0
M  END
>  <meeko>  (6) 
{"is_sidechain": [false], "free_energy": -9.069, "intermolecular_energy": -12.843, "internal_energy": -1.527}

$$$$
LIB_FDCXXPBBHPICRU__M_PUB_ALL__e8__s20260927
     RDKit          3D

 69 74  0  0  0  0  0  0  0  0999 V2000
   -3.7430  -17.1170    5.9780 O   0  0  0  0  0  0  0  0  0  0  0  0
   -4.2200  -16.3100    5.1900 C   0  0  0  0  0  0  0  0  0  0  0  0
   -5.3980  -15.6000    5.3470 N   0  0  0  0  0  0  0  0  0  0  0  0
   -6.3550  -15.7620    6.3710 C   0  0  0  0  0  0  0  0  0  0  0  0
   -6.8280  -14.6060    6.9980 C   0  0  0  0  0  0  0  0  0  0  0  0
   -7.7780  -14.6920    8.0160 C   0  0  0  0  0  0  0  0  0  0  0  0
   -8.2630  -15.9350    8.4210 C   0  0  0  0  0  0  0  0  0  0  0  0
   -7.7980  -17.1070    7.8060 C   0  0  0  0  0  0  0  0  0  0  0  0
   -8.3050  -18.3810    8.2140 N   0  0  0  0  0  0  0  0  0  0  0  0
   -7.7000  -19.1910    9.1500 C   0  0  0  0  0  0  0  0  0  0  0  0
   -8.5040  -20.2770    9.3900 C   0  0  0  0  0  0  0  0  0  0  0  0
   -9.6450  -20.1970    8.5460 C   0  0  0  0  0  0  0  0  0  0  0  0
  -10.7840  -21.0040    8.3120 C   0  0  0  0  0  0  0  0  0  0  0  0
  -11.1880  -22.1560    8.9870 N   0  0  0  0  0  0  0  0  0  0  0  0
  -11.3230  -23.4410    8.5340 C   0  0  0  0  0  0  0  0  0  0  0  0
  -10.9810  -23.8800    7.4430 O   0  0  0  0  0  0  0  0  0  0  0  0
  -11.8850  -24.3970    9.5340 C   0  0  0  0  0  0  0  0  0  0  0  0
  -11.8330  -24.0550   10.8910 C   0  0  0  0  0  0  0  0  0  0  0  0
  -12.3460  -24.9240   11.8550 C   0  0  0  0  0  0  0  0  0  0  0  0
  -12.9040  -26.1430   11.4670 C   0  0  0  0  0  0  0  0  0  0  0  0
  -12.9420  -26.4980   10.1190 C   0  0  0  0  0  0  0  0  0  0  0  0
  -12.4300  -25.6300    9.1510 C   0  0  0  0  0  0  0  0  0  0  0  0
  -11.6140  -20.7140    7.2760 N   0  0  0  0  0  0  0  0  0  0  0  0
  -11.3760  -19.6340    6.5120 C   0  0  0  0  0  0  0  0  0  0  0  0
  -10.3240  -18.7610    6.6940 C   0  0  0  0  0  0  0  0  0  0  0  0
   -9.4550  -19.0410    7.7590 C   0  0  0  0  0  0  0  0  0  0  0  0
   -6.8630  -17.0060    6.7640 C   0  0  0  0  0  0  0  0  0  0  0  0
   -3.4530  -15.9920    3.9510 C   0  0  0  0  0  0  0  0  0  0  0  0
   -2.4300  -16.8560    3.5590 C   0  0  0  0  0  0  0  0  0  0  0  0
   -1.6940  -16.5930    2.4020 C   0  0  0  0  0  0  0  0  0  0  0  0
   -1.9690  -15.4700    1.6060 C   0  0  0  0  0  0  0  0  0  0  0  0
   -1.2310  -15.2110    0.4580 N   0  0  0  0  0  0  0  0  0  0  0  0
   -1.4020  -16.1360   -0.6790 C   0  0  0  0  0  0  0  0  0  0  0  0
   -0.7640  -15.5280   -1.9390 C   0  0  0  0  0  0  0  0  0  0  0  0
    0.6150  -15.1890   -1.7170 O   0  0  0  0  0  0  0  0  0  0  0  0
    0.7240  -14.2180   -0.6640 C   0  0  0  0  0  0  0  0  0  0  0  0
    0.1570  -14.7590    0.6600 C   0  0  0  0  0  0  0  0  0  0  0  0
   -3.0090  -14.6030    1.9890 C   0  0  0  0  0  0  0  0  0  0  0  0
   -3.3510  -13.3960    1.1480 C   0  0  0  0  0  0  0  0  0  0  0  0
   -3.7290  -13.7030   -0.1240 F   0  0  0  0  0  0  0  0  0  0  0  0
   -2.3300  -12.4980    1.0450 F   0  0  0  0  0  0  0  0  0  0  0  0
   -4.3960  -12.6790    1.6670 F   0  0  0  0  0  0  0  0  0  0  0  0
   -3.7490  -14.8770    3.1590 C   0  0  0  0  0  0  0  0  0  0  0  0
   -5.5680  -14.8350    4.7080 H   0  0  0  0  0  0  0  0  0  0  0  0
   -6.4486  -13.6215    6.6867 H   0  0  0  0  0  0  0  0  0  0  0  0
   -8.1458  -13.7758    8.5010 H   0  0  0  0  0  0  0  0  0  0  0  0
   -9.0118  -15.9967    9.2244 H   0  0  0  0  0  0  0  0  0  0  0  0
   -6.7284  -18.9982    9.6282 H   0  0  0  0  0  0  0  0  0  0  0  0
   -8.2992  -21.0776   10.1160 H   0  0  0  0  0  0  0  0  0  0  0  0
  -11.2730  -21.9770    9.9770 H   0  0  0  0  0  0  0  0  0  0  0  0
  -11.3862  -23.0979   11.1982 H   0  0  0  0  0  0  0  0  0  0  0  0
  -12.3106  -24.6485   12.9194 H   0  0  0  0  0  0  0  0  0  0  0  0
  -13.3146  -26.8251   12.2260 H   0  0  0  0  0  0  0  0  0  0  0  0
  -13.3757  -27.4628    9.8172 H   0  0  0  0  0  0  0  0  0  0  0  0
  -12.4547  -25.9144    8.0887 H   0  0  0  0  0  0  0  0  0  0  0  0
  -12.0697  -19.4321    5.6825 H   0  0  0  0  0  0  0  0  0  0  0  0
  -10.1742  -17.8906    6.0383 H   0  0  0  0  0  0  0  0  0  0  0  0
   -6.5246  -17.9171    6.2489 H   0  0  0  0  0  0  0  0  0  0  0  0
   -2.2027  -17.7467    4.1631 H   0  0  0  0  0  0  0  0  0  0  0  0
   -0.8845  -17.2778    2.1091 H   0  0  0  0  0  0  0  0  0  0  0  0
   -0.9142  -17.0944   -0.4478 H   0  0  0  0  0  0  0  0  0  0  0  0
   -2.4748  -16.3022   -0.8566 H   0  0  0  0  0  0  0  0  0  0  0  0
   -0.8255  -16.2583   -2.7593 H   0  0  0  0  0  0  0  0  0  0  0  0
   -1.3101  -14.6078   -2.1940 H   0  0  0  0  0  0  0  0  0  0  0  0
    1.7843  -13.9625   -0.5213 H   0  0  0  0  0  0  0  0  0  0  0  0
    0.1433  -13.3291   -0.9515 H   0  0  0  0  0  0  0  0  0  0  0  0
    0.7710  -15.6052    1.0021 H   0  0  0  0  0  0  0  0  0  0  0  0
    0.1737  -13.9608    1.4167 H   0  0  0  0  0  0  0  0  0  0  0  0
   -4.5692  -14.2053    3.4522 H   0  0  0  0  0  0  0  0  0  0  0  0
  1  2  2  0
  2  3  1  0
  3  4  1  0
  4  5  2  0
  5  6  1  0
  6  7  2  0
  7  8  1  0
  8  9  1  0
  9 10  1  0
 10 11  2  0
 11 12  1  0
 12 13  2  0
 13 14  1  0
 14 15  1  0
 15 16  2  0
 15 17  1  0
 17 18  2  0
 18 19  1  0
 19 20  2  0
 20 21  1  0
 21 22  2  0
 13 23  1  0
 23 24  2  0
 24 25  1  0
 25 26  2  0
  8 27  2  0
  2 28  1  0
 28 29  2  0
 29 30  1  0
 30 31  2  0
 31 32  1  0
 32 33  1  0
 33 34  1  0
 34 35  1  0
 35 36  1  0
 36 37  1  0
 31 38  1  0
 38 39  1  0
 39 40  1  0
 39 41  1  0
 39 42  1  0
 38 43  2  0
 27  4  1  0
 43 28  1  0
 26  9  1  0
 37 32  1  0
 26 12  1  0
 22 17  1  0
  3 44  1  0
  5 45  1  0
  6 46  1  0
  7 47  1  0
 10 48  1  0
 11 49  1  0
 14 50  1  0
 18 51  1  0
 19 52  1  0
 20 53  1  0
 21 54  1  0
 22 55  1  0
 24 56  1  0
 25 57  1  0
 27 58  1  0
 29 59  1  0
 30 60  1  0
 33 61  1  0
 33 62  1  0
 34 63  1  0
 34 64  1  0
 36 65  1  0
 36 66  1  0
 37 67  1  0
 37 68  1  0
 43 69  1  0
M  END
>  <meeko>  (7) 
{"is_sidechain": [false], "free_energy": -9.032, "intermolecular_energy": -12.845, "internal_energy": -1.473}

$$$$
LIB_FDCXXPBBHPICRU__M_PUB_ALL__e8__s20260927
     RDKit          3D

 69 74  0  0  0  0  0  0  0  0999 V2000
   12.3230  -11.4960   -3.6220 O   0  0  0  0  0  0  0  0  0  0  0  0
   12.1500  -12.7070   -3.5680 C   0  0  0  0  0  0  0  0  0  0  0  0
   11.5300  -13.4080   -2.5480 N   0  0  0  0  0  0  0  0  0  0  0  0
   11.1040  -12.8940   -1.3040 C   0  0  0  0  0  0  0  0  0  0  0  0
   12.0910  -12.5890   -0.3630 C   0  0  0  0  0  0  0  0  0  0  0  0
   11.7420  -12.0750    0.8860 C   0  0  0  0  0  0  0  0  0  0  0  0
   10.4010  -11.8630    1.2080 C   0  0  0  0  0  0  0  0  0  0  0  0
    9.3970  -12.1670    0.2780 C   0  0  0  0  0  0  0  0  0  0  0  0
    8.0220  -11.9390    0.6050 N   0  0  0  0  0  0  0  0  0  0  0  0
    7.5090  -10.7160    0.9800 C   0  0  0  0  0  0  0  0  0  0  0  0
    6.1460  -10.8220    1.1080 C   0  0  0  0  0  0  0  0  0  0  0  0
    5.7670  -12.1680    0.8560 C   0  0  0  0  0  0  0  0  0  0  0  0
    4.5490  -12.8900    0.8610 C   0  0  0  0  0  0  0  0  0  0  0  0
    3.2520  -12.4060    1.0280 N   0  0  0  0  0  0  0  0  0  0  0  0
    2.4000  -11.8360    0.1200 C   0  0  0  0  0  0  0  0  0  0  0  0
    2.5590  -11.7530   -1.0920 O   0  0  0  0  0  0  0  0  0  0  0  0
    1.1150  -11.3420    0.6980 C   0  0  0  0  0  0  0  0  0  0  0  0
    0.8180   -9.9770    0.6000 C   0  0  0  0  0  0  0  0  0  0  0  0
   -0.3730   -9.4780    1.1300 C   0  0  0  0  0  0  0  0  0  0  0  0
   -1.2660  -10.3380    1.7690 C   0  0  0  0  0  0  0  0  0  0  0  0
   -0.9680  -11.6960    1.8850 C   0  0  0  0  0  0  0  0  0  0  0  0
    0.2230  -12.2000    1.3550 C   0  0  0  0  0  0  0  0  0  0  0  0
    4.5680  -14.2440    0.7470 N   0  0  0  0  0  0  0  0  0  0  0  0
    5.7380  -14.8840    0.5800 C   0  0  0  0  0  0  0  0  0  0  0  0
    6.9680  -14.2640    0.5100 C   0  0  0  0  0  0  0  0  0  0  0  0
    6.9710  -12.8660    0.6240 C   0  0  0  0  0  0  0  0  0  0  0  0
    9.7620  -12.6580   -0.9850 C   0  0  0  0  0  0  0  0  0  0  0  0
   12.5840  -13.5360   -4.7290 C   0  0  0  0  0  0  0  0  0  0  0  0
   13.7050  -14.3530   -4.5850 C   0  0  0  0  0  0  0  0  0  0  0  0
   14.1360  -15.1470   -5.6500 C   0  0  0  0  0  0  0  0  0  0  0  0
   13.4540  -15.1510   -6.8760 C   0  0  0  0  0  0  0  0  0  0  0  0
   13.8900  -15.9400   -7.9330 N   0  0  0  0  0  0  0  0  0  0  0  0
   13.4900  -17.3600   -7.9270 C   0  0  0  0  0  0  0  0  0  0  0  0
   13.7890  -17.9850   -9.2990 C   0  0  0  0  0  0  0  0  0  0  0  0
   15.1690  -17.8120   -9.6650 O   0  0  0  0  0  0  0  0  0  0  0  0
   15.4870  -16.4130   -9.7470 C   0  0  0  0  0  0  0  0  0  0  0  0
   15.2690  -15.7070   -8.3980 C   0  0  0  0  0  0  0  0  0  0  0  0
   12.3140  -14.3390   -7.0230 C   0  0  0  0  0  0  0  0  0  0  0  0
   11.5380  -14.3320   -8.3180 C   0  0  0  0  0  0  0  0  0  0  0  0
   12.3010  -14.0540   -9.4130 F   0  0  0  0  0  0  0  0  0  0  0  0
   10.5050  -13.4410   -8.3270 F   0  0  0  0  0  0  0  0  0  0  0  0
   10.9570  -15.5420   -8.5860 F   0  0  0  0  0  0  0  0  0  0  0  0
   11.8830  -13.5410   -5.9420 C   0  0  0  0  0  0  0  0  0  0  0  0
   11.2910  -14.3740   -2.7270 H   0  0  0  0  0  0  0  0  0  0  0  0
   13.1502  -12.7553   -0.6088 H   0  0  0  0  0  0  0  0  0  0  0  0
   12.5264  -11.8361    1.6193 H   0  0  0  0  0  0  0  0  0  0  0  0
   10.1310  -11.4564    2.1938 H   0  0  0  0  0  0  0  0  0  0  0  0
    8.0970   -9.8019    1.1495 H   0  0  0  0  0  0  0  0  0  0  0  0
    5.4606  -10.0004    1.3635 H   0  0  0  0  0  0  0  0  0  0  0  0
    2.9020  -12.6360    1.9470 H   0  0  0  0  0  0  0  0  0  0  0  0
    1.5253   -9.2961    0.1039 H   0  0  0  0  0  0  0  0  0  0  0  0
   -0.6073   -8.4067    1.0437 H   0  0  0  0  0  0  0  0  0  0  0  0
   -2.2067   -9.9449    2.1821 H   0  0  0  0  0  0  0  0  0  0  0  0
   -1.6715  -12.3711    2.3944 H   0  0  0  0  0  0  0  0  0  0  0  0
    0.4600  -13.2696    1.4536 H   0  0  0  0  0  0  0  0  0  0  0  0
    5.7128  -15.9803    0.4930 H   0  0  0  0  0  0  0  0  0  0  0  0
    7.8976  -14.8357    0.3720 H   0  0  0  0  0  0  0  0  0  0  0  0
    8.9826  -12.8601   -1.7345 H   0  0  0  0  0  0  0  0  0  0  0  0
   14.2510  -14.3721   -3.6303 H   0  0  0  0  0  0  0  0  0  0  0  0
   15.0264  -15.7808   -5.5253 H   0  0  0  0  0  0  0  0  0  0  0  0
   14.0541  -17.8961   -7.1496 H   0  0  0  0  0  0  0  0  0  0  0  0
   12.4127  -17.4355   -7.7178 H   0  0  0  0  0  0  0  0  0  0  0  0
   13.5613  -19.0605   -9.2596 H   0  0  0  0  0  0  0  0  0  0  0  0
   13.1653  -17.4812  -10.0522 H   0  0  0  0  0  0  0  0  0  0  0  0
   16.5408  -16.3024  -10.0425 H   0  0  0  0  0  0  0  0  0  0  0  0
   14.8219  -15.9502  -10.4910 H   0  0  0  0  0  0  0  0  0  0  0  0
   15.9772  -16.1068   -7.6573 H   0  0  0  0  0  0  0  0  0  0  0  0
   15.4344  -14.6265   -8.5212 H   0  0  0  0  0  0  0  0  0  0  0  0
   10.9854  -12.9150   -6.0531 H   0  0  0  0  0  0  0  0  0  0  0  0
  1  2  2  0
  2  3  1  0
  3  4  1  0
  4  5  2  0
  5  6  1  0
  6  7  2  0
  7  8  1  0
  8  9  1  0
  9 10  1  0
 10 11  2  0
 11 12  1  0
 12 13  2  0
 13 14  1  0
 14 15  1  0
 15 16  2  0
 15 17  1  0
 17 18  2  0
 18 19  1  0
 19 20  2  0
 20 21  1  0
 21 22  2  0
 13 23  1  0
 23 24  2  0
 24 25  1  0
 25 26  2  0
  8 27  2  0
  2 28  1  0
 28 29  2  0
 29 30  1  0
 30 31  2  0
 31 32  1  0
 32 33  1  0
 33 34  1  0
 34 35  1  0
 35 36  1  0
 36 37  1  0
 31 38  1  0
 38 39  1  0
 39 40  1  0
 39 41  1  0
 39 42  1  0
 38 43  2  0
 27  4  1  0
 43 28  1  0
 26  9  1  0
 37 32  1  0
 26 12  1  0
 22 17  1  0
  3 44  1  0
  5 45  1  0
  6 46  1  0
  7 47  1  0
 10 48  1  0
 11 49  1  0
 14 50  1  0
 18 51  1  0
 19 52  1  0
 20 53  1  0
 21 54  1  0
 22 55  1  0
 24 56  1  0
 25 57  1  0
 27 58  1  0
 29 59  1  0
 30 60  1  0
 33 61  1  0
 33 62  1  0
 34 63  1  0
 34 64  1  0
 36 65  1  0
 36 66  1  0
 37 67  1  0
 37 68  1  0
 43 69  1  0
M  END
>  <meeko>  (8) 
{"is_sidechain": [false], "free_energy": -8.99, "intermolecular_energy": -12.829, "internal_energy": -1.431}

$$$$
LIB_FDCXXPBBHPICRU__M_PUB_ALL__e8__s20260927
     RDKit          3D

 69 74  0  0  0  0  0  0  0  0999 V2000
   -3.3330  -17.0760    6.6590 O   0  0  0  0  0  0  0  0  0  0  0  0
   -3.7070  -16.5780    5.6040 C   0  0  0  0  0  0  0  0  0  0  0  0
   -4.9380  -15.9960    5.3570 N   0  0  0  0  0  0  0  0  0  0  0  0
   -6.0580  -15.9840    6.2160 C   0  0  0  0  0  0  0  0  0  0  0  0
   -6.4220  -14.7580    6.7810 C   0  0  0  0  0  0  0  0  0  0  0  0
   -7.5210  -14.6730    7.6360 C   0  0  0  0  0  0  0  0  0  0  0  0
   -8.2650  -15.8130    7.9390 C   0  0  0  0  0  0  0  0  0  0  0  0
   -7.9130  -17.0520    7.3840 C   0  0  0  0  0  0  0  0  0  0  0  0
   -8.6850  -18.2190    7.6870 N   0  0  0  0  0  0  0  0  0  0  0  0
   -9.7450  -18.6630    6.9270 C   0  0  0  0  0  0  0  0  0  0  0  0
  -10.1840  -19.8640    7.4280 C   0  0  0  0  0  0  0  0  0  0  0  0
   -9.4160  -20.1860    8.5800 C   0  0  0  0  0  0  0  0  0  0  0  0
   -9.4070  -21.2430    9.5220 C   0  0  0  0  0  0  0  0  0  0  0  0
  -10.1520  -22.4210    9.5140 N   0  0  0  0  0  0  0  0  0  0  0  0
  -11.5030  -22.6110    9.6410 C   0  0  0  0  0  0  0  0  0  0  0  0
  -12.3720  -21.7480    9.6550 O   0  0  0  0  0  0  0  0  0  0  0  0
  -11.9280  -24.0410    9.6890 C   0  0  0  0  0  0  0  0  0  0  0  0
  -11.9660  -24.7690    8.4930 C   0  0  0  0  0  0  0  0  0  0  0  0
  -12.3600  -26.1080    8.4980 C   0  0  0  0  0  0  0  0  0  0  0  0
  -12.7280  -26.7210    9.6960 C   0  0  0  0  0  0  0  0  0  0  0  0
  -12.7110  -25.9960   10.8870 C   0  0  0  0  0  0  0  0  0  0  0  0
  -12.3160  -24.6560   10.8870 C   0  0  0  0  0  0  0  0  0  0  0  0
   -8.6350  -21.1450   10.6370 N   0  0  0  0  0  0  0  0  0  0  0  0
   -7.8480  -20.0700   10.8120 C   0  0  0  0  0  0  0  0  0  0  0  0
   -7.7500  -19.0170    9.9270 C   0  0  0  0  0  0  0  0  0  0  0  0
   -8.5370  -19.0980    8.7680 C   0  0  0  0  0  0  0  0  0  0  0  0
   -6.8230  -17.1200    6.5040 C   0  0  0  0  0  0  0  0  0  0  0  0
   -2.7440  -16.5220    4.4670 C   0  0  0  0  0  0  0  0  0  0  0  0
   -1.4460  -16.9920    4.6690 C   0  0  0  0  0  0  0  0  0  0  0  0
   -0.5190  -16.9610    3.6250 C   0  0  0  0  0  0  0  0  0  0  0  0
   -0.8680  -16.4700    2.3570 C   0  0  0  0  0  0  0  0  0  0  0  0
    0.0600  -16.4370    1.3230 N   0  0  0  0  0  0  0  0  0  0  0  0
    0.4270  -17.7250    0.7030 C   0  0  0  0  0  0  0  0  0  0  0  0
    1.2040  -17.4670   -0.5980 C   0  0  0  0  0  0  0  0  0  0  0  0
    2.3510  -16.6310   -0.3660 O   0  0  0  0  0  0  0  0  0  0  0  0
    1.9370  -15.3560    0.1520 C   0  0  0  0  0  0  0  0  0  0  0  0
    1.1920  -15.5080    1.4890 C   0  0  0  0  0  0  0  0  0  0  0  0
   -2.1790  -16.0080    2.1450 C   0  0  0  0  0  0  0  0  0  0  0  0
   -2.6020  -15.4930    0.7890 C   0  0  0  0  0  0  0  0  0  0  0  0
   -2.6840  -16.4620   -0.1650 F   0  0  0  0  0  0  0  0  0  0  0  0
   -1.7770  -14.5270    0.2930 F   0  0  0  0  0  0  0  0  0  0  0  0
   -3.8420  -14.9120    0.8150 F   0  0  0  0  0  0  0  0  0  0  0  0
   -3.1110  -16.0440    3.2040 C   0  0  0  0  0  0  0  0  0  0  0  0
   -5.0360  -15.4600    4.5050 H   0  0  0  0  0  0  0  0  0  0  0  0
   -5.8382  -13.8548    6.5499 H   0  0  0  0  0  0  0  0  0  0  0  0
   -7.8018  -13.7033    8.0728 H   0  0  0  0  0  0  0  0  0  0  0  0
   -9.1299  -15.7403    8.6148 H   0  0  0  0  0  0  0  0  0  0  0  0
  -10.1712  -18.1396    6.0584 H   0  0  0  0  0  0  0  0  0  0  0  0
  -10.9957  -20.4757    7.0073 H   0  0  0  0  0  0  0  0  0  0  0  0
   -9.5710  -23.2080    9.2650 H   0  0  0  0  0  0  0  0  0  0  0  0
  -11.6844  -24.2839    7.5467 H   0  0  0  0  0  0  0  0  0  0  0  0
  -12.3803  -26.6794    7.5583 H   0  0  0  0  0  0  0  0  0  0  0  0
  -13.0321  -27.7781    9.7010 H   0  0  0  0  0  0  0  0  0  0  0  0
  -13.0093  -26.4802   11.8286 H   0  0  0  0  0  0  0  0  0  0  0  0
  -12.3095  -24.0841   11.8266 H   0  0  0  0  0  0  0  0  0  0  0  0
   -7.2383  -20.0269   11.7266 H   0  0  0  0  0  0  0  0  0  0  0  0
   -7.0896  -18.1586   10.1195 H   0  0  0  0  0  0  0  0  0  0  0  0
   -6.5656  -18.0803    6.0333 H   0  0  0  0  0  0  0  0  0  0  0  0
   -1.1523  -17.3877    5.6524 H   0  0  0  0  0  0  0  0  0  0  0  0
    0.5032  -17.3280    3.7994 H   0  0  0  0  0  0  0  0  0  0  0  0
    1.0569  -18.2997    1.3980 H   0  0  0  0  0  0  0  0  0  0  0  0
   -0.4860  -18.2953    0.4768 H   0  0  0  0  0  0  0  0  0  0  0  0
    1.5401  -18.4294   -1.0112 H   0  0  0  0  0  0  0  0  0  0  0  0
    0.5364  -16.9514   -1.3040 H   0  0  0  0  0  0  0  0  0  0  0  0
    2.8260  -14.7271    0.3073 H   0  0  0  0  0  0  0  0  0  0  0  0
    1.2530  -14.8929   -0.5745 H   0  0  0  0  0  0  0  0  0  0  0  0
    1.8816  -15.9038    2.2491 H   0  0  0  0  0  0  0  0  0  0  0  0
    0.8139  -14.5260    1.8095 H   0  0  0  0  0  0  0  0  0  0  0  0
   -4.1392  -15.6918    3.0345 H   0  0  0  0  0  0  0  0  0  0  0  0
  1  2  2  0
  2  3  1  0
  3  4  1  0
  4  5  2  0
  5  6  1  0
  6  7  2  0
  7  8  1  0
  8  9  1  0
  9 10  1  0
 10 11  2  0
 11 12  1  0
 12 13  2  0
 13 14  1  0
 14 15  1  0
 15 16  2  0
 15 17  1  0
 17 18  2  0
 18 19  1  0
 19 20  2  0
 20 21  1  0
 21 22  2  0
 13 23  1  0
 23 24  2  0
 24 25  1  0
 25 26  2  0
  8 27  2  0
  2 28  1  0
 28 29  2  0
 29 30  1  0
 30 31  2  0
 31 32  1  0
 32 33  1  0
 33 34  1  0
 34 35  1  0
 35 36  1  0
 36 37  1  0
 31 38  1  0
 38 39  1  0
 39 40  1  0
 39 41  1  0
 39 42  1  0
 38 43  2  0
 27  4  1  0
 43 28  1  0
 26  9  1  0
 37 32  1  0
 26 12  1  0
 22 17  1  0
  3 44  1  0
  5 45  1  0
  6 46  1  0
  7 47  1  0
 10 48  1  0
 11 49  1  0
 14 50  1  0
 18 51  1  0
 19 52  1  0
 20 53  1  0
 21 54  1  0
 22 55  1  0
 24 56  1  0
 25 57  1  0
 27 58  1  0
 29 59  1  0
 30 60  1  0
 33 61  1  0
 33 62  1  0
 34 63  1  0
 34 64  1  0
 36 65  1  0
 36 66  1  0
 37 67  1  0
 37 68  1  0
 43 69  1  0
M  END
>  <meeko>  (9) 
{"is_sidechain": [false], "free_energy": -8.882, "intermolecular_energy": -12.424, "internal_energy": -1.683}

$$$$
