LIB_CLZJJBZJUIWHJT__M_PUB_ALL__e8__s20260927
     RDKit          3D

 70 74  0  0  0  0  0  0  0  0999 V2000
   -1.9660   -9.5960    1.7020 C   0  0  0  0  0  0  0  0  0  0  0  0
   -2.5780  -10.1900    0.6040 C   0  0  0  0  0  0  0  0  0  0  0  0
   -2.8660  -11.5580    0.6130 C   0  0  0  0  0  0  0  0  0  0  0  0
   -2.5500  -12.3500    1.7290 C   0  0  0  0  0  0  0  0  0  0  0  0
   -2.8340  -13.8450    1.7950 C   0  0  0  0  0  0  0  0  0  0  0  0
   -1.5730  -14.7110    2.0500 C   0  0  0  0  0  0  0  0  0  0  0  0
   -1.3310  -15.7040    0.9120 C   0  0  0  0  0  0  0  0  0  0  0  0
    0.0390  -15.4580    0.2560 N   0  0  0  0  0  0  0  0  0  0  0  0
   -0.1260  -14.5990   -1.0000 C   0  0  0  0  0  0  0  0  0  0  0  0
    1.2300  -14.3360   -1.6960 C   0  0  0  0  0  0  0  0  0  0  0  0
    2.2510  -13.7260   -0.7300 N   0  0  0  0  0  0  0  0  0  0  0  0
    3.6170  -13.4630   -1.4310 C   0  0  0  0  0  0  0  0  0  0  0  0
    4.7300  -13.1240   -0.4490 C   0  0  0  0  0  0  0  0  0  0  0  0
    5.9150  -13.8820   -0.4670 C   0  0  0  0  0  0  0  0  0  0  0  0
    6.9460  -13.6170    0.4360 C   0  0  0  0  0  0  0  0  0  0  0  0
    6.8140  -12.5900    1.3640 C   0  0  0  0  0  0  0  0  0  0  0  0
    5.6560  -11.8190    1.3880 C   0  0  0  0  0  0  0  0  0  0  0  0
    4.6210  -12.0800    0.4870 C   0  0  0  0  0  0  0  0  0  0  0  0
    3.5130  -12.4670   -2.5770 C   0  0  0  0  0  0  0  0  0  0  0  0
    2.8130  -11.2520   -2.4630 C   0  0  0  0  0  0  0  0  0  0  0  0
    2.7220  -10.3770   -3.5480 C   0  0  0  0  0  0  0  0  0  0  0  0
    3.3300  -10.6980   -4.7580 C   0  0  0  0  0  0  0  0  0  0  0  0
    4.0380  -11.8880   -4.8860 C   0  0  0  0  0  0  0  0  0  0  0  0
    4.1340  -12.7650   -3.8040 C   0  0  0  0  0  0  0  0  0  0  0  0
    2.4150  -14.5860    0.5250 C   0  0  0  0  0  0  0  0  0  0  0  0
    1.0580  -14.8560    1.2210 C   0  0  0  0  0  0  0  0  0  0  0  0
   -3.9450  -14.1900    2.7770 C   0  0  0  0  0  0  0  0  0  0  0  0
   -5.0800  -13.3760    2.9220 C   0  0  0  0  0  0  0  0  0  0  0  0
   -6.0700  -13.6950    3.8530 C   0  0  0  0  0  0  0  0  0  0  0  0
   -5.9420  -14.8320    4.6470 C   0  0  0  0  0  0  0  0  0  0  0  0
   -4.8300  -15.6570    4.5060 C   0  0  0  0  0  0  0  0  0  0  0  0
   -3.8380  -15.3420    3.5740 C   0  0  0  0  0  0  0  0  0  0  0  0
   -1.9170  -11.7340    2.8220 C   0  0  0  0  0  0  0  0  0  0  0  0
   -1.6310  -10.3670    2.8110 C   0  0  0  0  0  0  0  0  0  0  0  0
   -1.7469   -8.5181    1.6941 H   0  0  0  0  0  0  0  0  0  0  0  0
   -2.8365   -9.5813   -0.2750 H   0  0  0  0  0  0  0  0  0  0  0  0
   -3.3452  -12.0190   -0.2633 H   0  0  0  0  0  0  0  0  0  0  0  0
   -3.1891  -14.1036    0.7865 H   0  0  0  0  0  0  0  0  0  0  0  0
   -0.6982  -14.0500    2.1388 H   0  0  0  0  0  0  0  0  0  0  0  0
   -1.7302  -15.2822    2.9768 H   0  0  0  0  0  0  0  0  0  0  0  0
   -1.3601  -16.7275    1.3139 H   0  0  0  0  0  0  0  0  0  0  0  0
   -2.1154  -15.5690    0.1528 H   0  0  0  0  0  0  0  0  0  0  0  0
    0.3660  -16.3920   -0.0400 H   0  0  0  0  0  0  0  0  0  0  0  0
   -0.7924  -15.1201   -1.7032 H   0  0  0  0  0  0  0  0  0  0  0  0
   -0.5504  -13.6298   -0.6990 H   0  0  0  0  0  0  0  0  0  0  0  0
    1.6255  -15.2884   -2.0787 H   0  0  0  0  0  0  0  0  0  0  0  0
    1.0630  -13.6221   -2.5160 H   0  0  0  0  0  0  0  0  0  0  0  0
    1.9330  -12.7890   -0.4550 H   0  0  0  0  0  0  0  0  0  0  0  0
    3.9061  -14.4188   -1.8925 H   0  0  0  0  0  0  0  0  0  0  0  0
    6.0305  -14.6929   -1.2012 H   0  0  0  0  0  0  0  0  0  0  0  0
    7.8646  -14.2218    0.4134 H   0  0  0  0  0  0  0  0  0  0  0  0
    7.6249  -12.3871    2.0790 H   0  0  0  0  0  0  0  0  0  0  0  0
    5.5554  -11.0023    2.1180 H   0  0  0  0  0  0  0  0  0  0  0  0
    3.7110  -11.4624    0.5098 H   0  0  0  0  0  0  0  0  0  0  0  0
    2.3323  -10.9883   -1.5094 H   0  0  0  0  0  0  0  0  0  0  0  0
    2.1684   -9.4319   -3.4458 H   0  0  0  0  0  0  0  0  0  0  0  0
    3.2505  -10.0105   -5.6130 H   0  0  0  0  0  0  0  0  0  0  0  0
    4.5230  -12.1386   -5.8410 H   0  0  0  0  0  0  0  0  0  0  0  0
    4.7022  -13.7007   -3.9120 H   0  0  0  0  0  0  0  0  0  0  0  0
    2.8665  -15.5479    0.2405 H   0  0  0  0  0  0  0  0  0  0  0  0
    3.0578  -14.0399    1.2311 H   0  0  0  0  0  0  0  0  0  0  0  0
    1.2176  -15.5566    2.0539 H   0  0  0  0  0  0  0  0  0  0  0  0
    0.6615  -13.8963    1.5841 H   0  0  0  0  0  0  0  0  0  0  0  0
   -5.1900  -12.4783    2.2959 H   0  0  0  0  0  0  0  0  0  0  0  0
   -6.9527  -13.0473    3.9597 H   0  0  0  0  0  0  0  0  0  0  0  0
   -6.7195  -15.0779    5.3853 H   0  0  0  0  0  0  0  0  0  0  0  0
   -4.7320  -16.5582    5.1291 H   0  0  0  0  0  0  0  0  0  0  0  0
   -2.9651  -16.0021    3.4632 H   0  0  0  0  0  0  0  0  0  0  0  0
   -1.6426  -12.3377    3.6996 H   0  0  0  0  0  0  0  0  0  0  0  0
   -1.1413   -9.9001    3.6783 H   0  0  0  0  0  0  0  0  0  0  0  0
  1  2  2  0
  2  3  1  0
  3  4  2  0
  4  5  1  0
  5  6  1  0
  6  7  1  0
  7  8  1  0
  8  9  1  0
  9 10  1  0
 10 11  1  0
 11 12  1  0
 12 13  1  0
 13 14  2  0
 14 15  1  0
 15 16  2  0
 16 17  1  0
 17 18  2  0
 12 19  1  0
 19 20  2  0
 20 21  1  0
 21 22  2  0
 22 23  1  0
 23 24  2  0
 11 25  1  0
 25 26  1  0
  5 27  1  0
 27 28  2  0
 28 29  1  0
 29 30  2  0
 30 31  1  0
 31 32  2  0
  4 33  1  0
 33 34  2  0
 34  1  1  0
 26  8  1  0
 32 27  1  0
 18 13  1  0
 24 19  1  0
  1 35  1  0
  2 36  1  0
  3 37  1  0
  5 38  1  0
  6 39  1  0
  6 40  1  0
  7 41  1  0
  7 42  1  0
  8 43  1  0
  9 44  1  0
  9 45  1  0
 10 46  1  0
 10 47  1  0
 11 48  1  0
 12 49  1  0
 14 50  1  0
 15 51  1  0
 16 52  1  0
 17 53  1  0
 18 54  1  0
 20 55  1  0
 21 56  1  0
 22 57  1  0
 23 58  1  0
 24 59  1  0
 25 60  1  0
 25 61  1  0
 26 62  1  0
 26 63  1  0
 28 64  1  0
 29 65  1  0
 30 66  1  0
 31 67  1  0
 32 68  1  0
 33 69  1  0
 34 70  1  0
M  CHG  2   8   1  11   1
M  END
>  <meeko>  (1) 
{"is_sidechain": [false], "free_energy": -8.129, "intermolecular_energy": -11.931, "internal_energy": -1.856}

$$$$
LIB_CLZJJBZJUIWHJT__M_PUB_ALL__e8__s20260927
     RDKit          3D

 70 74  0  0  0  0  0  0  0  0999 V2000
   -6.0050  -14.8610    4.5710 C   0  0  0  0  0  0  0  0  0  0  0  0
   -6.0780  -13.7150    3.7870 C   0  0  0  0  0  0  0  0  0  0  0  0
   -5.0120  -13.3640    2.9530 C   0  0  0  0  0  0  0  0  0  0  0  0
   -3.8580  -14.1620    2.8880 C   0  0  0  0  0  0  0  0  0  0  0  0
   -2.6640  -13.8280    2.0030 C   0  0  0  0  0  0  0  0  0  0  0  0
   -2.6620  -14.5790    0.6460 C   0  0  0  0  0  0  0  0  0  0  0  0
   -1.8190  -15.8540    0.7090 C   0  0  0  0  0  0  0  0  0  0  0  0
   -0.4110  -15.6050    0.1420 N   0  0  0  0  0  0  0  0  0  0  0  0
   -0.5010  -14.7850   -1.1470 C   0  0  0  0  0  0  0  0  0  0  0  0
    0.8960  -14.5190   -1.7560 C   0  0  0  0  0  0  0  0  0  0  0  0
    1.8390  -13.8650   -0.7400 N   0  0  0  0  0  0  0  0  0  0  0  0
    3.2470  -13.6000   -1.3530 C   0  0  0  0  0  0  0  0  0  0  0  0
    4.3050  -13.3080   -0.2980 C   0  0  0  0  0  0  0  0  0  0  0  0
    4.1730  -12.1610    0.5060 C   0  0  0  0  0  0  0  0  0  0  0  0
    5.1380  -11.8460    1.4650 C   0  0  0  0  0  0  0  0  0  0  0  0
    6.2430  -12.6730    1.6400 C   0  0  0  0  0  0  0  0  0  0  0  0
    6.3830  -13.8190    0.8650 C   0  0  0  0  0  0  0  0  0  0  0  0
    5.4220  -14.1390   -0.0960 C   0  0  0  0  0  0  0  0  0  0  0  0
    3.2220  -12.5670   -2.4700 C   0  0  0  0  0  0  0  0  0  0  0  0
    3.9270  -12.7370   -3.6750 C   0  0  0  0  0  0  0  0  0  0  0  0
    3.8960  -11.7520   -4.6650 C   0  0  0  0  0  0  0  0  0  0  0  0
    3.1600  -10.5870   -4.4680 C   0  0  0  0  0  0  0  0  0  0  0  0
    2.4450  -10.4060   -3.2890 C   0  0  0  0  0  0  0  0  0  0  0  0
    2.4710  -11.3890   -2.2980 C   0  0  0  0  0  0  0  0  0  0  0  0
    1.9280  -14.6870    0.5480 C   0  0  0  0  0  0  0  0  0  0  0  0
    0.5310  -14.9590    1.1560 C   0  0  0  0  0  0  0  0  0  0  0  0
   -2.4820  -12.3300    1.8020 C   0  0  0  0  0  0  0  0  0  0  0  0
   -2.0250  -11.4980    2.8370 C   0  0  0  0  0  0  0  0  0  0  0  0
   -1.8970  -10.1220    2.6390 C   0  0  0  0  0  0  0  0  0  0  0  0
   -2.2180   -9.5610    1.4060 C   0  0  0  0  0  0  0  0  0  0  0  0
   -2.6590  -10.3740    0.3650 C   0  0  0  0  0  0  0  0  0  0  0  0
   -2.7870  -11.7510    0.5590 C   0  0  0  0  0  0  0  0  0  0  0  0
   -3.7980  -15.3080    3.7000 C   0  0  0  0  0  0  0  0  0  0  0  0
   -4.8640  -15.6570    4.5310 C   0  0  0  0  0  0  0  0  0  0  0  0
   -6.8475  -15.1380    5.2217 H   0  0  0  0  0  0  0  0  0  0  0  0
   -6.9772  -13.0825    3.8230 H   0  0  0  0  0  0  0  0  0  0  0  0
   -5.0779  -12.4525    2.3408 H   0  0  0  0  0  0  0  0  0  0  0  0
   -1.7922  -14.1969    2.5632 H   0  0  0  0  0  0  0  0  0  0  0  0
   -3.6963  -14.8475    0.3851 H   0  0  0  0  0  0  0  0  0  0  0  0
   -2.2248  -13.9148   -0.1141 H   0  0  0  0  0  0  0  0  0  0  0  0
   -1.7339  -16.1790    1.7565 H   0  0  0  0  0  0  0  0  0  0  0  0
   -2.3100  -16.6321    0.1060 H   0  0  0  0  0  0  0  0  0  0  0  0
   -0.0510  -16.5410   -0.1030 H   0  0  0  0  0  0  0  0  0  0  0  0
   -1.1094  -15.3369   -1.8786 H   0  0  0  0  0  0  0  0  0  0  0  0
   -0.9591  -13.8148   -0.9044 H   0  0  0  0  0  0  0  0  0  0  0  0
    1.3309  -15.4751   -2.0828 H   0  0  0  0  0  0  0  0  0  0  0  0
    0.7756  -13.8313   -2.6060 H   0  0  0  0  0  0  0  0  0  0  0  0
    1.4890  -12.9260   -0.5150 H   0  0  0  0  0  0  0  0  0  0  0  0
    3.5503  -14.5447   -1.8280 H   0  0  0  0  0  0  0  0  0  0  0  0
    3.2996  -11.5048    0.3777 H   0  0  0  0  0  0  0  0  0  0  0  0
    5.0243  -10.9430    2.0827 H   0  0  0  0  0  0  0  0  0  0  0  0
    7.0057  -12.4204    2.3913 H   0  0  0  0  0  0  0  0  0  0  0  0
    7.2537  -14.4756    1.0095 H   0  0  0  0  0  0  0  0  0  0  0  0
    5.5395  -15.0500   -0.7012 H   0  0  0  0  0  0  0  0  0  0  0  0
    4.5092  -13.6557   -3.8397 H   0  0  0  0  0  0  0  0  0  0  0  0
    4.4541  -11.8972   -5.6017 H   0  0  0  0  0  0  0  0  0  0  0  0
    3.1439   -9.8090   -5.2455 H   0  0  0  0  0  0  0  0  0  0  0  0
    1.8586   -9.4878   -3.1372 H   0  0  0  0  0  0  0  0  0  0  0  0
    1.8974  -11.2411   -1.3711 H   0  0  0  0  0  0  0  0  0  0  0  0
    2.4116  -15.6491    0.3233 H   0  0  0  0  0  0  0  0  0  0  0  0
    2.5126  -14.1111    1.2805 H   0  0  0  0  0  0  0  0  0  0  0  0
    0.6427  -15.6328    2.0183 H   0  0  0  0  0  0  0  0  0  0  0  0
    0.0969  -13.9956    1.4617 H   0  0  0  0  0  0  0  0  0  0  0  0
   -1.7655  -11.9346    3.8127 H   0  0  0  0  0  0  0  0  0  0  0  0
   -1.5419   -9.4800    3.4586 H   0  0  0  0  0  0  0  0  0  0  0  0
   -2.1233   -8.4757    1.2541 H   0  0  0  0  0  0  0  0  0  0  0  0
   -2.9067   -9.9312   -0.6110 H   0  0  0  0  0  0  0  0  0  0  0  0
   -3.1299  -12.3883   -0.2694 H   0  0  0  0  0  0  0  0  0  0  0  0
   -2.8974  -15.9393    3.6803 H   0  0  0  0  0  0  0  0  0  0  0  0
   -4.8022  -16.5613    5.1543 H   0  0  0  0  0  0  0  0  0  0  0  0
  1  2  2  0
  2  3  1  0
  3  4  2  0
  4  5  1  0
  5  6  1  0
  6  7  1  0
  7  8  1  0
  8  9  1  0
  9 10  1  0
 10 11  1  0
 11 12  1  0
 12 13  1  0
 13 14  2  0
 14 15  1  0
 15 16  2  0
 16 17  1  0
 17 18  2  0
 12 19  1  0
 19 20  2  0
 20 21  1  0
 21 22  2  0
 22 23  1  0
 23 24  2  0
 11 25  1  0
 25 26  1  0
  5 27  1  0
 27 28  2  0
 28 29  1  0
 29 30  2  0
 30 31  1  0
 31 32  2  0
  4 33  1  0
 33 34  2  0
 34  1  1  0
 26  8  1  0
 32 27  1  0
 18 13  1  0
 24 19  1  0
  1 35  1  0
  2 36  1  0
  3 37  1  0
  5 38  1  0
  6 39  1  0
  6 40  1  0
  7 41  1  0
  7 42  1  0
  8 43  1  0
  9 44  1  0
  9 45  1  0
 10 46  1  0
 10 47  1  0
 11 48  1  0
 12 49  1  0
 14 50  1  0
 15 51  1  0
 16 52  1  0
 17 53  1  0
 18 54  1  0
 20 55  1  0
 21 56  1  0
 22 57  1  0
 23 58  1  0
 24 59  1  0
 25 60  1  0
 25 61  1  0
 26 62  1  0
 26 63  1  0
 28 64  1  0
 29 65  1  0
 30 66  1  0
 31 67  1  0
 32 68  1  0
 33 69  1  0
 34 70  1  0
M  CHG  2   8   1  11   1
M  END
>  <meeko>  (2) 
{"is_sidechain": [false], "free_energy": -8.094, "intermolecular_energy": -12.037, "internal_energy": -1.699}

$$$$
LIB_CLZJJBZJUIWHJT__M_PUB_ALL__e8__s20260927
     RDKit          3D

 70 74  0  0  0  0  0  0  0  0999 V2000
    3.0700  -10.9120   -4.5390 C   0  0  0  0  0  0  0  0  0  0  0  0
    3.5840  -12.1980   -4.6650 C   0  0  0  0  0  0  0  0  0  0  0  0
    3.5730  -13.0710   -3.5730 C   0  0  0  0  0  0  0  0  0  0  0  0
    3.0390  -12.6690   -2.3380 C   0  0  0  0  0  0  0  0  0  0  0  0
    3.0040  -13.5720   -1.1130 C   0  0  0  0  0  0  0  0  0  0  0  0
    2.8360  -15.0770   -1.4500 C   0  0  0  0  0  0  0  0  0  0  0  0
    1.9040  -15.7760   -0.4580 C   0  0  0  0  0  0  0  0  0  0  0  0
    0.7160  -14.8690   -0.0950 N   0  0  0  0  0  0  0  0  0  0  0  0
   -0.5660  -15.3970   -0.7440 C   0  0  0  0  0  0  0  0  0  0  0  0
   -1.7860  -14.5070   -0.4090 C   0  0  0  0  0  0  0  0  0  0  0  0
   -1.9560  -14.3270    1.1020 N   0  0  0  0  0  0  0  0  0  0  0  0
   -3.1830  -13.4280    1.4390 C   0  0  0  0  0  0  0  0  0  0  0  0
   -2.8090  -11.9650    1.6360 C   0  0  0  0  0  0  0  0  0  0  0  0
   -2.9680  -11.0660    0.5650 C   0  0  0  0  0  0  0  0  0  0  0  0
   -2.6100   -9.7240    0.7000 C   0  0  0  0  0  0  0  0  0  0  0  0
   -2.0960   -9.2570    1.9060 C   0  0  0  0  0  0  0  0  0  0  0  0
   -1.9450  -10.1270    2.9810 C   0  0  0  0  0  0  0  0  0  0  0  0
   -2.3010  -11.4710    2.8510 C   0  0  0  0  0  0  0  0  0  0  0  0
   -4.0290  -13.9810    2.5770 C   0  0  0  0  0  0  0  0  0  0  0  0
   -3.6660  -15.1320    3.3000 C   0  0  0  0  0  0  0  0  0  0  0  0
   -4.4840  -15.6210    4.3210 C   0  0  0  0  0  0  0  0  0  0  0  0
   -5.6720  -14.9670    4.6370 C   0  0  0  0  0  0  0  0  0  0  0  0
   -6.0420  -13.8210    3.9430 C   0  0  0  0  0  0  0  0  0  0  0  0
   -5.2260  -13.3270    2.9230 C   0  0  0  0  0  0  0  0  0  0  0  0
   -0.6740  -13.7980    1.7500 C   0  0  0  0  0  0  0  0  0  0  0  0
    0.5500  -14.6850    1.4130 C   0  0  0  0  0  0  0  0  0  0  0  0
    4.1880  -13.3470   -0.1820 C   0  0  0  0  0  0  0  0  0  0  0  0
    4.1970  -12.3060    0.7600 C   0  0  0  0  0  0  0  0  0  0  0  0
    5.3080  -12.0990    1.5810 C   0  0  0  0  0  0  0  0  0  0  0  0
    6.4190  -12.9310    1.4740 C   0  0  0  0  0  0  0  0  0  0  0  0
    6.4200  -13.9770    0.5550 C   0  0  0  0  0  0  0  0  0  0  0  0
    5.3110  -14.1880   -0.2660 C   0  0  0  0  0  0  0  0  0  0  0  0
    2.5390  -11.3590   -2.2260 C   0  0  0  0  0  0  0  0  0  0  0  0
    2.5510  -10.4900   -3.3190 C   0  0  0  0  0  0  0  0  0  0  0  0
    3.0737  -10.2299   -5.4020 H   0  0  0  0  0  0  0  0  0  0  0  0
    4.0008  -12.5296   -5.6274 H   0  0  0  0  0  0  0  0  0  0  0  0
    3.9873  -14.0841   -3.6825 H   0  0  0  0  0  0  0  0  0  0  0  0
    2.0941  -13.2708   -0.5732 H   0  0  0  0  0  0  0  0  0  0  0  0
    2.4155  -15.1714   -2.4621 H   0  0  0  0  0  0  0  0  0  0  0  0
    3.8246  -15.5556   -1.3890 H   0  0  0  0  0  0  0  0  0  0  0  0
    1.5245  -16.7036   -0.9114 H   0  0  0  0  0  0  0  0  0  0  0  0
    2.4689  -16.0019    0.4584 H   0  0  0  0  0  0  0  0  0  0  0  0
    0.9350  -13.9550   -0.5240 H   0  0  0  0  0  0  0  0  0  0  0  0
   -0.4300  -15.4191   -1.8353 H   0  0  0  0  0  0  0  0  0  0  0  0
   -0.7592  -16.4057   -0.3500 H   0  0  0  0  0  0  0  0  0  0  0  0
   -1.6450  -13.5193   -0.8723 H   0  0  0  0  0  0  0  0  0  0  0  0
   -2.6884  -14.9998   -0.7999 H   0  0  0  0  0  0  0  0  0  0  0  0
   -2.1950  -15.2330    1.5230 H   0  0  0  0  0  0  0  0  0  0  0  0
   -3.8269  -13.4554    0.5476 H   0  0  0  0  0  0  0  0  0  0  0  0
   -3.3793  -11.4254   -0.3898 H   0  0  0  0  0  0  0  0  0  0  0  0
   -2.7342   -9.0344   -0.1479 H   0  0  0  0  0  0  0  0  0  0  0  0
   -1.8092   -8.2001    2.0092 H   0  0  0  0  0  0  0  0  0  0  0  0
   -1.5443   -9.7553    3.9356 H   0  0  0  0  0  0  0  0  0  0  0  0
   -2.1829  -12.1506    3.7079 H   0  0  0  0  0  0  0  0  0  0  0  0
   -2.7276  -15.6526    3.0585 H   0  0  0  0  0  0  0  0  0  0  0  0
   -4.1894  -16.5238    4.8761 H   0  0  0  0  0  0  0  0  0  0  0  0
   -6.3184  -15.3577    5.4367 H   0  0  0  0  0  0  0  0  0  0  0  0
   -6.9783  -13.3027    4.1974 H   0  0  0  0  0  0  0  0  0  0  0  0
   -5.5226  -12.4155    2.3834 H   0  0  0  0  0  0  0  0  0  0  0  0
   -0.4855  -12.7777    1.3848 H   0  0  0  0  0  0  0  0  0  0  0  0
   -0.8133  -13.8084    2.8411 H   0  0  0  0  0  0  0  0  0  0  0  0
    1.4565  -14.2099    1.8162 H   0  0  0  0  0  0  0  0  0  0  0  0
    0.3905  -15.6755    1.8640 H   0  0  0  0  0  0  0  0  0  0  0  0
    3.3209  -11.6472    0.8524 H   0  0  0  0  0  0  0  0  0  0  0  0
    5.3050  -11.2778    2.3128 H   0  0  0  0  0  0  0  0  0  0  0  0
    7.2963  -12.7620    2.1157 H   0  0  0  0  0  0  0  0  0  0  0  0
    7.2958  -14.6379    0.4759 H   0  0  0  0  0  0  0  0  0  0  0  0
    5.3160  -15.0202   -0.9854 H   0  0  0  0  0  0  0  0  0  0  0  0
    2.1327  -11.0142   -1.2637 H   0  0  0  0  0  0  0  0  0  0  0  0
    2.1498   -9.4710   -3.2154 H   0  0  0  0  0  0  0  0  0  0  0  0
  1  2  2  0
  2  3  1  0
  3  4  2  0
  4  5  1  0
  5  6  1  0
  6  7  1  0
  7  8  1  0
  8  9  1  0
  9 10  1  0
 10 11  1  0
 11 12  1  0
 12 13  1  0
 13 14  2  0
 14 15  1  0
 15 16  2  0
 16 17  1  0
 17 18  2  0
 12 19  1  0
 19 20  2  0
 20 21  1  0
 21 22  2  0
 22 23  1  0
 23 24  2  0
 11 25  1  0
 25 26  1  0
  5 27  1  0
 27 28  2  0
 28 29  1  0
 29 30  2  0
 30 31  1  0
 31 32  2  0
  4 33  1  0
 33 34  2  0
 34  1  1  0
 26  8  1  0
 32 27  1  0
 18 13  1  0
 24 19  1  0
  1 35  1  0
  2 36  1  0
  3 37  1  0
  5 38  1  0
  6 39  1  0
  6 40  1  0
  7 41  1  0
  7 42  1  0
  8 43  1  0
  9 44  1  0
  9 45  1  0
 10 46  1  0
 10 47  1  0
 11 48  1  0
 12 49  1  0
 14 50  1  0
 15 51  1  0
 16 52  1  0
 17 53  1  0
 18 54  1  0
 20 55  1  0
 21 56  1  0
 22 57  1  0
 23 58  1  0
 24 59  1  0
 25 60  1  0
 25 61  1  0
 26 62  1  0
 26 63  1  0
 28 64  1  0
 29 65  1  0
 30 66  1  0
 31 67  1  0
 32 68  1  0
 33 69  1  0
 34 70  1  0
M  CHG  2   8   1  11   1
M  END
>  <meeko>  (3) 
{"is_sidechain": [false], "free_energy": -7.953, "intermolecular_energy": -11.865, "internal_energy": -1.664}

$$$$
LIB_CLZJJBZJUIWHJT__M_PUB_ALL__e8__s20260927
     RDKit          3D

 70 74  0  0  0  0  0  0  0  0999 V2000
   -2.0620   -9.3590    1.7230 C   0  0  0  0  0  0  0  0  0  0  0  0
   -1.7370  -10.1430    2.8250 C   0  0  0  0  0  0  0  0  0  0  0  0
   -2.0000  -11.5160    2.8140 C   0  0  0  0  0  0  0  0  0  0  0  0
   -2.5870  -12.1250    1.6930 C   0  0  0  0  0  0  0  0  0  0  0  0
   -2.9020  -13.6140    1.6240 C   0  0  0  0  0  0  0  0  0  0  0  0
   -1.6470  -14.5230    1.6990 C   0  0  0  0  0  0  0  0  0  0  0  0
   -1.1550  -14.9190    0.3060 C   0  0  0  0  0  0  0  0  0  0  0  0
   -0.0860  -13.9320   -0.1950 N   0  0  0  0  0  0  0  0  0  0  0  0
    0.8310  -13.5210    0.9580 C   0  0  0  0  0  0  0  0  0  0  0  0
    1.9170  -12.5200    0.4980 C   0  0  0  0  0  0  0  0  0  0  0  0
    2.7190  -13.0640   -0.6890 N   0  0  0  0  0  0  0  0  0  0  0  0
    3.8110  -12.0550   -1.1550 C   0  0  0  0  0  0  0  0  0  0  0  0
    3.7420  -11.7560   -2.6460 C   0  0  0  0  0  0  0  0  0  0  0  0
    4.4690  -12.5620   -3.5410 C   0  0  0  0  0  0  0  0  0  0  0  0
    4.4520  -12.3020   -4.9120 C   0  0  0  0  0  0  0  0  0  0  0  0
    3.7060  -11.2390   -5.4120 C   0  0  0  0  0  0  0  0  0  0  0  0
    2.9690  -10.4400   -4.5440 C   0  0  0  0  0  0  0  0  0  0  0  0
    2.9820  -10.6940   -3.1710 C   0  0  0  0  0  0  0  0  0  0  0  0
    5.2090  -12.4380   -0.6910 C   0  0  0  0  0  0  0  0  0  0  0  0
    5.5530  -13.7550   -0.3330 C   0  0  0  0  0  0  0  0  0  0  0  0
    6.8420  -14.0580    0.1110 C   0  0  0  0  0  0  0  0  0  0  0  0
    7.8050  -13.0570    0.2020 C   0  0  0  0  0  0  0  0  0  0  0  0
    7.4870  -11.7520   -0.1600 C   0  0  0  0  0  0  0  0  0  0  0  0
    6.2010  -11.4440   -0.6070 C   0  0  0  0  0  0  0  0  0  0  0  0
    1.8000  -13.4750   -1.8420 C   0  0  0  0  0  0  0  0  0  0  0  0
    0.7090  -14.4720   -1.3830 C   0  0  0  0  0  0  0  0  0  0  0  0
   -3.9510  -14.0400    2.6410 C   0  0  0  0  0  0  0  0  0  0  0  0
   -5.1140  -13.2850    2.8620 C   0  0  0  0  0  0  0  0  0  0  0  0
   -6.0460  -13.6790    3.8240 C   0  0  0  0  0  0  0  0  0  0  0  0
   -5.8320  -14.8330    4.5730 C   0  0  0  0  0  0  0  0  0  0  0  0
   -4.6900  -15.6010    4.3570 C   0  0  0  0  0  0  0  0  0  0  0  0
   -3.7570  -15.2110    3.3940 C   0  0  0  0  0  0  0  0  0  0  0  0
   -2.9220  -11.3130    0.5950 C   0  0  0  0  0  0  0  0  0  0  0  0
   -2.6570   -9.9420    0.6090 C   0  0  0  0  0  0  0  0  0  0  0  0
   -1.8489   -8.2799    1.7324 H   0  0  0  0  0  0  0  0  0  0  0  0
   -1.2715   -9.6811    3.7081 H   0  0  0  0  0  0  0  0  0  0  0  0
   -1.7444  -12.1259    3.6930 H   0  0  0  0  0  0  0  0  0  0  0  0
   -3.3313  -13.7607    0.6219 H   0  0  0  0  0  0  0  0  0  0  0  0
   -0.8443  -13.9811    2.2205 H   0  0  0  0  0  0  0  0  0  0  0  0
   -1.9184  -15.4404    2.2419 H   0  0  0  0  0  0  0  0  0  0  0  0
   -0.7215  -15.9290    0.3499 H   0  0  0  0  0  0  0  0  0  0  0  0
   -2.0076  -14.8991   -0.3888 H   0  0  0  0  0  0  0  0  0  0  0  0
   -0.6130  -13.0960   -0.4940 H   0  0  0  0  0  0  0  0  0  0  0  0
    0.2240  -13.0510    1.7458 H   0  0  0  0  0  0  0  0  0  0  0  0
    1.3346  -14.4240    1.3335 H   0  0  0  0  0  0  0  0  0  0  0  0
    1.4318  -11.5789    0.1997 H   0  0  0  0  0  0  0  0  0  0  0  0
    2.6107  -12.3559    1.3357 H   0  0  0  0  0  0  0  0  0  0  0  0
    3.2580  -13.8830   -0.3820 H   0  0  0  0  0  0  0  0  0  0  0  0
    3.5784  -11.1067   -0.6483 H   0  0  0  0  0  0  0  0  0  0  0  0
    5.0579  -13.4073   -3.1555 H   0  0  0  0  0  0  0  0  0  0  0  0
    5.0294  -12.9385   -5.5987 H   0  0  0  0  0  0  0  0  0  0  0  0
    3.6991  -11.0309   -6.4921 H   0  0  0  0  0  0  0  0  0  0  0  0
    2.3735   -9.6046   -4.9409 H   0  0  0  0  0  0  0  0  0  0  0  0
    2.3929  -10.0583   -2.4935 H   0  0  0  0  0  0  0  0  0  0  0  0
    4.7994  -14.5532   -0.4036 H   0  0  0  0  0  0  0  0  0  0  0  0
    7.0971  -15.0911    0.3897 H   0  0  0  0  0  0  0  0  0  0  0  0
    8.8169  -13.2978    0.5600 H   0  0  0  0  0  0  0  0  0  0  0  0
    8.2497  -10.9621   -0.0939 H   0  0  0  0  0  0  0  0  0  0  0  0
    5.9601  -10.4107   -0.8973 H   0  0  0  0  0  0  0  0  0  0  0  0
    1.3125  -12.5756   -2.2462 H   0  0  0  0  0  0  0  0  0  0  0  0
    2.4146  -13.9709   -2.6077 H   0  0  0  0  0  0  0  0  0  0  0  0
    0.0191  -14.6557   -2.2198 H   0  0  0  0  0  0  0  0  0  0  0  0
    1.2047  -15.4026   -1.0695 H   0  0  0  0  0  0  0  0  0  0  0  0
   -5.2926  -12.3743    2.2715 H   0  0  0  0  0  0  0  0  0  0  0  0
   -6.9511  -13.0765    3.9905 H   0  0  0  0  0  0  0  0  0  0  0  0
   -6.5643  -15.1382    5.3350 H   0  0  0  0  0  0  0  0  0  0  0  0
   -4.5231  -16.5153    4.9454 H   0  0  0  0  0  0  0  0  0  0  0  0
   -2.8613  -15.8263    3.2230 H   0  0  0  0  0  0  0  0  0  0  0  0
   -3.3995  -11.7641   -0.2874 H   0  0  0  0  0  0  0  0  0  0  0  0
   -2.9190   -9.3227   -0.2615 H   0  0  0  0  0  0  0  0  0  0  0  0
  1  2  2  0
  2  3  1  0
  3  4  2  0
  4  5  1  0
  5  6  1  0
  6  7  1  0
  7  8  1  0
  8  9  1  0
  9 10  1  0
 10 11  1  0
 11 12  1  0
 12 13  1  0
 13 14  2  0
 14 15  1  0
 15 16  2  0
 16 17  1  0
 17 18  2  0
 12 19  1  0
 19 20  2  0
 20 21  1  0
 21 22  2  0
 22 23  1  0
 23 24  2  0
 11 25  1  0
 25 26  1  0
  5 27  1  0
 27 28  2  0
 28 29  1  0
 29 30  2  0
 30 31  1  0
 31 32  2  0
  4 33  1  0
 33 34  2  0
 34  1  1  0
 26  8  1  0
 32 27  1  0
 18 13  1  0
 24 19  1  0
  1 35  1  0
  2 36  1  0
  3 37  1  0
  5 38  1  0
  6 39  1  0
  6 40  1  0
  7 41  1  0
  7 42  1  0
  8 43  1  0
  9 44  1  0
  9 45  1  0
 10 46  1  0
 10 47  1  0
 11 48  1  0
 12 49  1  0
 14 50  1  0
 15 51  1  0
 16 52  1  0
 17 53  1  0
 18 54  1  0
 20 55  1  0
 21 56  1  0
 22 57  1  0
 23 58  1  0
 24 59  1  0
 25 60  1  0
 25 61  1  0
 26 62  1  0
 26 63  1  0
 28 64  1  0
 29 65  1  0
 30 66  1  0
 31 67  1  0
 32 68  1  0
 33 69  1  0
 34 70  1  0
M  CHG  2   8   1  11   1
M  END
>  <meeko>  (4) 
{"is_sidechain": [false], "free_energy": -7.933, "intermolecular_energy": -11.812, "internal_energy": -1.687}

$$$$
LIB_CLZJJBZJUIWHJT__M_PUB_ALL__e8__s20260927
     RDKit          3D

 70 74  0  0  0  0  0  0  0  0999 V2000
   -5.9440  -14.8230    4.3760 C   0  0  0  0  0  0  0  0  0  0  0  0
   -6.0170  -13.6380    3.6510 C   0  0  0  0  0  0  0  0  0  0  0  0
   -4.9320  -13.2210    2.8740 C   0  0  0  0  0  0  0  0  0  0  0  0
   -3.7580  -13.9900    2.8080 C   0  0  0  0  0  0  0  0  0  0  0  0
   -2.5430  -13.5840    1.9840 C   0  0  0  0  0  0  0  0  0  0  0  0
   -2.4730  -14.2680    0.5940 C   0  0  0  0  0  0  0  0  0  0  0  0
   -1.1300  -14.9650    0.3760 C   0  0  0  0  0  0  0  0  0  0  0  0
   -0.0740  -13.9670   -0.1310 N   0  0  0  0  0  0  0  0  0  0  0  0
    0.8770  -13.5860    1.0060 C   0  0  0  0  0  0  0  0  0  0  0  0
    1.9510  -12.5750    0.5400 C   0  0  0  0  0  0  0  0  0  0  0  0
    2.7180  -13.0910   -0.6830 N   0  0  0  0  0  0  0  0  0  0  0  0
    3.7980  -12.0710   -1.1540 C   0  0  0  0  0  0  0  0  0  0  0  0
    3.7510  -11.8100   -2.6530 C   0  0  0  0  0  0  0  0  0  0  0  0
    4.4630  -12.6590   -3.5200 C   0  0  0  0  0  0  0  0  0  0  0  0
    4.4640  -12.4340   -4.8980 C   0  0  0  0  0  0  0  0  0  0  0  0
    3.7510  -11.3650   -5.4310 C   0  0  0  0  0  0  0  0  0  0  0  0
    3.0290  -10.5240   -4.5920 C   0  0  0  0  0  0  0  0  0  0  0  0
    3.0240  -10.7430   -3.2120 C   0  0  0  0  0  0  0  0  0  0  0  0
    5.1950  -12.4160   -0.6560 C   0  0  0  0  0  0  0  0  0  0  0  0
    6.2500  -11.4860   -0.6570 C   0  0  0  0  0  0  0  0  0  0  0  0
    7.5230  -11.8520   -0.2140 C   0  0  0  0  0  0  0  0  0  0  0  0
    7.7610  -13.1470    0.2380 C   0  0  0  0  0  0  0  0  0  0  0  0
    6.7270  -14.0760    0.2590 C   0  0  0  0  0  0  0  0  0  0  0  0
    5.4520  -13.7150   -0.1800 C   0  0  0  0  0  0  0  0  0  0  0  0
    1.7660  -13.4720   -1.8190 C   0  0  0  0  0  0  0  0  0  0  0  0
    0.6860  -14.4790   -1.3540 C   0  0  0  0  0  0  0  0  0  0  0  0
   -2.3940  -12.0740    1.8610 C   0  0  0  0  0  0  0  0  0  0  0  0
   -1.8960  -11.2940    2.9180 C   0  0  0  0  0  0  0  0  0  0  0  0
   -1.7990   -9.9070    2.7930 C   0  0  0  0  0  0  0  0  0  0  0  0
   -2.1920   -9.2820    1.6130 C   0  0  0  0  0  0  0  0  0  0  0  0
   -2.6740  -10.0420    0.5510 C   0  0  0  0  0  0  0  0  0  0  0  0
   -2.7710  -11.4300    0.6710 C   0  0  0  0  0  0  0  0  0  0  0  0
   -3.6990  -15.1750    3.5610 C   0  0  0  0  0  0  0  0  0  0  0  0
   -4.7840  -15.5900    4.3350 C   0  0  0  0  0  0  0  0  0  0  0  0
   -6.8017  -15.1529    4.9805 H   0  0  0  0  0  0  0  0  0  0  0  0
   -6.9311  -13.0272    3.6891 H   0  0  0  0  0  0  0  0  0  0  0  0
   -4.9983  -12.2802    2.3079 H   0  0  0  0  0  0  0  0  0  0  0  0
   -1.6821  -13.9579    2.5576 H   0  0  0  0  0  0  0  0  0  0  0  0
   -3.2781  -15.0142    0.5225 H   0  0  0  0  0  0  0  0  0  0  0  0
   -2.5867  -13.4919   -0.1772 H   0  0  0  0  0  0  0  0  0  0  0  0
   -0.7895  -15.3982    1.3280 H   0  0  0  0  0  0  0  0  0  0  0  0
   -1.2604  -15.7549   -0.3783 H   0  0  0  0  0  0  0  0  0  0  0  0
   -0.6070  -13.1230   -0.3950 H   0  0  0  0  0  0  0  0  0  0  0  0
    0.2937  -13.1353    1.8225 H   0  0  0  0  0  0  0  0  0  0  0  0
    1.3895  -14.4986    1.3443 H   0  0  0  0  0  0  0  0  0  0  0  0
    1.4591  -11.6264    0.2789 H   0  0  0  0  0  0  0  0  0  0  0  0
    2.6686  -12.4320    1.3613 H   0  0  0  0  0  0  0  0  0  0  0  0
    3.2640  -13.9170   -0.4120 H   0  0  0  0  0  0  0  0  0  0  0  0
    3.5374  -11.1155   -0.6754 H   0  0  0  0  0  0  0  0  0  0  0  0
    5.0253  -13.5097   -3.1075 H   0  0  0  0  0  0  0  0  0  0  0  0
    5.0295  -13.1031   -5.5632 H   0  0  0  0  0  0  0  0  0  0  0  0
    3.7585  -11.1852   -6.5162 H   0  0  0  0  0  0  0  0  0  0  0  0
    2.4599   -9.6835   -5.0158 H   0  0  0  0  0  0  0  0  0  0  0  0
    2.4462  -10.0749   -2.5564 H   0  0  0  0  0  0  0  0  0  0  0  0
    6.0707  -10.4598   -1.0103 H   0  0  0  0  0  0  0  0  0  0  0  0
    8.3396  -11.1151   -0.2223 H   0  0  0  0  0  0  0  0  0  0  0  0
    8.7666  -13.4350    0.5783 H   0  0  0  0  0  0  0  0  0  0  0  0
    6.9139  -15.0974    0.6222 H   0  0  0  0  0  0  0  0  0  0  0  0
    4.6384  -14.4549   -0.1535 H   0  0  0  0  0  0  0  0  0  0  0  0
    1.2691  -12.5622   -2.1867 H   0  0  0  0  0  0  0  0  0  0  0  0
    2.3577  -13.9496   -2.6139 H   0  0  0  0  0  0  0  0  0  0  0  0
   -0.0276  -14.6411   -2.1752 H   0  0  0  0  0  0  0  0  0  0  0  0
    1.1883  -15.4178   -1.0777 H   0  0  0  0  0  0  0  0  0  0  0  0
   -1.5797  -11.7805    3.8525 H   0  0  0  0  0  0  0  0  0  0  0  0
   -1.4111   -9.3066    3.6290 H   0  0  0  0  0  0  0  0  0  0  0  0
   -2.1217   -8.1882    1.5197 H   0  0  0  0  0  0  0  0  0  0  0  0
   -2.9788   -9.5487   -0.3838 H   0  0  0  0  0  0  0  0  0  0  0  0
   -3.1464  -12.0248   -0.1748 H   0  0  0  0  0  0  0  0  0  0  0  0
   -2.7838  -15.7849    3.5402 H   0  0  0  0  0  0  0  0  0  0  0  0
   -4.7218  -16.5240    4.9128 H   0  0  0  0  0  0  0  0  0  0  0  0
  1  2  2  0
  2  3  1  0
  3  4  2  0
  4  5  1  0
  5  6  1  0
  6  7  1  0
  7  8  1  0
  8  9  1  0
  9 10  1  0
 10 11  1  0
 11 12  1  0
 12 13  1  0
 13 14  2  0
 14 15  1  0
 15 16  2  0
 16 17  1  0
 17 18  2  0
 12 19  1  0
 19 20  2  0
 20 21  1  0
 21 22  2  0
 22 23  1  0
 23 24  2  0
 11 25  1  0
 25 26  1  0
  5 27  1  0
 27 28  2  0
 28 29  1  0
 29 30  2  0
 30 31  1  0
 31 32  2  0
  4 33  1  0
 33 34  2  0
 34  1  1  0
 26  8  1  0
 32 27  1  0
 18 13  1  0
 24 19  1  0
  1 35  1  0
  2 36  1  0
  3 37  1  0
  5 38  1  0
  6 39  1  0
  6 40  1  0
  7 41  1  0
  7 42  1  0
  8 43  1  0
  9 44  1  0
  9 45  1  0
 10 46  1  0
 10 47  1  0
 11 48  1  0
 12 49  1  0
 14 50  1  0
 15 51  1  0
 16 52  1  0
 17 53  1  0
 18 54  1  0
 20 55  1  0
 21 56  1  0
 22 57  1  0
 23 58  1  0
 24 59  1  0
 25 60  1  0
 25 61  1  0
 26 62  1  0
 26 63  1  0
 28 64  1  0
 29 65  1  0
 30 66  1  0
 31 67  1  0
 32 68  1  0
 33 69  1  0
 34 70  1  0
M  CHG  2   8   1  11   1
M  END
>  <meeko>  (5) 
{"is_sidechain": [false], "free_energy": -7.895, "intermolecular_energy": -11.864, "internal_energy": -1.58}

$$$$
LIB_CLZJJBZJUIWHJT__M_PUB_ALL__e8__s20260927
     RDKit          3D

 70 74  0  0  0  0  0  0  0  0999 V2000
   19.0710   -9.8030   15.2850 C   0  0  0  0  0  0  0  0  0  0  0  0
   18.1740  -10.4390   14.4330 C   0  0  0  0  0  0  0  0  0  0  0  0
   17.6510   -9.7610   13.3280 C   0  0  0  0  0  0  0  0  0  0  0  0
   18.0260   -8.4350   13.0560 C   0  0  0  0  0  0  0  0  0  0  0  0
   17.4870   -7.6440   11.8720 C   0  0  0  0  0  0  0  0  0  0  0  0
   16.2360   -6.7900   12.2080 C   0  0  0  0  0  0  0  0  0  0  0  0
   14.9790   -7.3420   11.5330 C   0  0  0  0  0  0  0  0  0  0  0  0
   14.4270   -8.5490   12.3120 N   0  0  0  0  0  0  0  0  0  0  0  0
   13.1690   -8.1450   13.0830 C   0  0  0  0  0  0  0  0  0  0  0  0
   12.5850   -9.3300   13.8880 C   0  0  0  0  0  0  0  0  0  0  0  0
   12.3280  -10.5470   12.9940 N   0  0  0  0  0  0  0  0  0  0  0  0
   11.7430  -11.7420   13.8060 C   0  0  0  0  0  0  0  0  0  0  0  0
   11.7520  -13.0490   13.0250 C   0  0  0  0  0  0  0  0  0  0  0  0
   12.8010  -13.9630   13.2300 C   0  0  0  0  0  0  0  0  0  0  0  0
   12.8570  -15.1590   12.5130 C   0  0  0  0  0  0  0  0  0  0  0  0
   11.8650  -15.4640   11.5860 C   0  0  0  0  0  0  0  0  0  0  0  0
   10.8120  -14.5790   11.3800 C   0  0  0  0  0  0  0  0  0  0  0  0
   10.7510  -13.3800   12.0940 C   0  0  0  0  0  0  0  0  0  0  0  0
   10.3880  -11.4300   14.4250 C   0  0  0  0  0  0  0  0  0  0  0  0
    9.4140  -10.6570   13.7660 C   0  0  0  0  0  0  0  0  0  0  0  0
    8.1930  -10.3740   14.3810 C   0  0  0  0  0  0  0  0  0  0  0  0
    7.9230  -10.8610   15.6570 C   0  0  0  0  0  0  0  0  0  0  0  0
    8.8680  -11.6380   16.3190 C   0  0  0  0  0  0  0  0  0  0  0  0
   10.0890  -11.9250   15.7080 C   0  0  0  0  0  0  0  0  0  0  0  0
   13.5870  -10.9500   12.2230 C   0  0  0  0  0  0  0  0  0  0  0  0
   14.1760   -9.7640   11.4210 C   0  0  0  0  0  0  0  0  0  0  0  0
   18.5570   -6.8060   11.1880 C   0  0  0  0  0  0  0  0  0  0  0  0
   19.3880   -7.3410   10.1910 C   0  0  0  0  0  0  0  0  0  0  0  0
   20.3840   -6.5610    9.6000 C   0  0  0  0  0  0  0  0  0  0  0  0
   20.5610   -5.2380    9.9950 C   0  0  0  0  0  0  0  0  0  0  0  0
   19.7360   -4.6870   10.9720 C   0  0  0  0  0  0  0  0  0  0  0  0
   18.7370   -5.4640   11.5630 C   0  0  0  0  0  0  0  0  0  0  0  0
   18.9220   -7.8050   13.9380 C   0  0  0  0  0  0  0  0  0  0  0  0
   19.4430   -8.4850   15.0400 C   0  0  0  0  0  0  0  0  0  0  0  0
   19.4852  -10.3409   16.1505 H   0  0  0  0  0  0  0  0  0  0  0  0
   17.8751  -11.4792   14.6295 H   0  0  0  0  0  0  0  0  0  0  0  0
   16.9379  -10.2716   12.6641 H   0  0  0  0  0  0  0  0  0  0  0  0
   17.1566   -8.4098   11.1549 H   0  0  0  0  0  0  0  0  0  0  0  0
   16.0855   -6.7907   13.2977 H   0  0  0  0  0  0  0  0  0  0  0  0
   16.4063   -5.7691   11.8354 H   0  0  0  0  0  0  0  0  0  0  0  0
   14.2124   -6.5538   11.4981 H   0  0  0  0  0  0  0  0  0  0  0  0
   15.2390   -7.6678   10.5150 H   0  0  0  0  0  0  0  0  0  0  0  0
   15.1600   -8.7810   13.0010 H   0  0  0  0  0  0  0  0  0  0  0  0
   13.4234   -7.3322   13.7792 H   0  0  0  0  0  0  0  0  0  0  0  0
   12.4113   -7.8187   12.3554 H   0  0  0  0  0  0  0  0  0  0  0  0
   13.2977   -9.6111   14.6773 H   0  0  0  0  0  0  0  0  0  0  0  0
   11.6249   -9.0121   14.3206 H   0  0  0  0  0  0  0  0  0  0  0  0
   11.5840  -10.3190   12.3240 H   0  0  0  0  0  0  0  0  0  0  0  0
   12.4295  -11.8947   14.6518 H   0  0  0  0  0  0  0  0  0  0  0  0
   13.5868  -13.7324   13.9644 H   0  0  0  0  0  0  0  0  0  0  0  0
   13.6865  -15.8616   12.6809 H   0  0  0  0  0  0  0  0  0  0  0  0
   11.9136  -16.4040   11.0168 H   0  0  0  0  0  0  0  0  0  0  0  0
   10.0244  -14.8242   10.6522 H   0  0  0  0  0  0  0  0  0  0  0  0
    9.9123  -12.6882   11.9266 H   0  0  0  0  0  0  0  0  0  0  0  0
    9.6168  -10.2718   12.7558 H   0  0  0  0  0  0  0  0  0  0  0  0
    7.4425   -9.7648   13.8561 H   0  0  0  0  0  0  0  0  0  0  0  0
    6.9626  -10.6314   16.1416 H   0  0  0  0  0  0  0  0  0  0  0  0
    8.6524  -12.0265   17.3253 H   0  0  0  0  0  0  0  0  0  0  0  0
   10.8275  -12.5462   16.2359 H   0  0  0  0  0  0  0  0  0  0  0  0
   14.3432  -11.3065   12.9379 H   0  0  0  0  0  0  0  0  0  0  0  0
   13.3120  -11.7411   11.5099 H   0  0  0  0  0  0  0  0  0  0  0  0
   15.1285  -10.0774   10.9689 H   0  0  0  0  0  0  0  0  0  0  0  0
   13.4480   -9.4777   10.6476 H   0  0  0  0  0  0  0  0  0  0  0  0
   19.2532   -8.3851    9.8722 H   0  0  0  0  0  0  0  0  0  0  0  0
   21.0297   -6.9926    8.8211 H   0  0  0  0  0  0  0  0  0  0  0  0
   21.3525   -4.6279    9.5354 H   0  0  0  0  0  0  0  0  0  0  0  0
   19.8710   -3.6393   11.2786 H   0  0  0  0  0  0  0  0  0  0  0  0
   18.0846   -5.0207   12.3298 H   0  0  0  0  0  0  0  0  0  0  0  0
   19.2166   -6.7608   13.7567 H   0  0  0  0  0  0  0  0  0  0  0  0
   20.1483   -7.9784   15.7153 H   0  0  0  0  0  0  0  0  0  0  0  0
  1  2  2  0
  2  3  1  0
  3  4  2  0
  4  5  1  0
  5  6  1  0
  6  7  1  0
  7  8  1  0
  8  9  1  0
  9 10  1  0
 10 11  1  0
 11 12  1  0
 12 13  1  0
 13 14  2  0
 14 15  1  0
 15 16  2  0
 16 17  1  0
 17 18  2  0
 12 19  1  0
 19 20  2  0
 20 21  1  0
 21 22  2  0
 22 23  1  0
 23 24  2  0
 11 25  1  0
 25 26  1  0
  5 27  1  0
 27 28  2  0
 28 29  1  0
 29 30  2  0
 30 31  1  0
 31 32  2  0
  4 33  1  0
 33 34  2  0
 34  1  1  0
 26  8  1  0
 32 27  1  0
 18 13  1  0
 24 19  1  0
  1 35  1  0
  2 36  1  0
  3 37  1  0
  5 38  1  0
  6 39  1  0
  6 40  1  0
  7 41  1  0
  7 42  1  0
  8 43  1  0
  9 44  1  0
  9 45  1  0
 10 46  1  0
 10 47  1  0
 11 48  1  0
 12 49  1  0
 14 50  1  0
 15 51  1  0
 16 52  1  0
 17 53  1  0
 18 54  1  0
 20 55  1  0
 21 56  1  0
 22 57  1  0
 23 58  1  0
 24 59  1  0
 25 60  1  0
 25 61  1  0
 26 62  1  0
 26 63  1  0
 28 64  1  0
 29 65  1  0
 30 66  1  0
 31 67  1  0
 32 68  1  0
 33 69  1  0
 34 70  1  0
M  CHG  2   8   1  11   1
M  END
>  <meeko>  (6) 
{"is_sidechain": [false], "free_energy": -7.844, "intermolecular_energy": -11.879, "internal_energy": -1.49}

$$$$
LIB_CLZJJBZJUIWHJT__M_PUB_ALL__e8__s20260927
     RDKit          3D

 70 74  0  0  0  0  0  0  0  0999 V2000
  -12.4720  -15.5100    9.4260 C   0  0  0  0  0  0  0  0  0  0  0  0
  -11.7020  -16.5420    9.9510 C   0  0  0  0  0  0  0  0  0  0  0  0
  -10.6440  -17.0780    9.2100 C   0  0  0  0  0  0  0  0  0  0  0  0
  -10.3390  -16.5810    7.9320 C   0  0  0  0  0  0  0  0  0  0  0  0
   -9.2040  -17.1280    7.0760 C   0  0  0  0  0  0  0  0  0  0  0  0
   -9.6850  -17.9210    5.8320 C   0  0  0  0  0  0  0  0  0  0  0  0
   -9.4370  -19.4220    5.9910 C   0  0  0  0  0  0  0  0  0  0  0  0
  -10.1700  -19.9680    7.2290 N   0  0  0  0  0  0  0  0  0  0  0  0
  -11.6600  -20.1380    6.9250 C   0  0  0  0  0  0  0  0  0  0  0  0
  -12.4360  -20.6780    8.1490 C   0  0  0  0  0  0  0  0  0  0  0  0
  -11.8200  -21.9770    8.6800 N   0  0  0  0  0  0  0  0  0  0  0  0
  -12.6010  -22.5190    9.9150 C   0  0  0  0  0  0  0  0  0  0  0  0
  -12.1220  -21.9150   11.2290 C   0  0  0  0  0  0  0  0  0  0  0  0
  -11.0750  -22.5410   11.9290 C   0  0  0  0  0  0  0  0  0  0  0  0
  -10.6280  -22.0310   13.1490 C   0  0  0  0  0  0  0  0  0  0  0  0
  -11.2130  -20.8890   13.6850 C   0  0  0  0  0  0  0  0  0  0  0  0
  -12.2400  -20.2480   13.0000 C   0  0  0  0  0  0  0  0  0  0  0  0
  -12.6920  -20.7530   11.7790 C   0  0  0  0  0  0  0  0  0  0  0  0
  -12.6700  -24.0390    9.9510 C   0  0  0  0  0  0  0  0  0  0  0  0
  -13.0730  -24.7520   11.0950 C   0  0  0  0  0  0  0  0  0  0  0  0
  -13.0980  -26.1480   11.0930 C   0  0  0  0  0  0  0  0  0  0  0  0
  -12.7260  -26.8520    9.9510 C   0  0  0  0  0  0  0  0  0  0  0  0
  -12.3380  -26.1650    8.8060 C   0  0  0  0  0  0  0  0  0  0  0  0
  -12.3130  -24.7700    8.8030 C   0  0  0  0  0  0  0  0  0  0  0  0
  -10.3300  -21.8050    8.9840 C   0  0  0  0  0  0  0  0  0  0  0  0
   -9.5520  -21.2590    7.7620 C   0  0  0  0  0  0  0  0  0  0  0  0
   -8.1930  -16.0590    6.6880 C   0  0  0  0  0  0  0  0  0  0  0  0
   -7.6050  -15.2180    7.6470 C   0  0  0  0  0  0  0  0  0  0  0  0
   -6.7030  -14.2230    7.2640 C   0  0  0  0  0  0  0  0  0  0  0  0
   -6.3740  -14.0580    5.9210 C   0  0  0  0  0  0  0  0  0  0  0  0
   -6.9370  -14.8940    4.9590 C   0  0  0  0  0  0  0  0  0  0  0  0
   -7.8380  -15.8910    5.3390 C   0  0  0  0  0  0  0  0  0  0  0  0
  -11.1400  -15.5490    7.4130 C   0  0  0  0  0  0  0  0  0  0  0  0
  -12.1950  -15.0150    8.1560 C   0  0  0  0  0  0  0  0  0  0  0  0
  -13.2990  -15.0857   10.0142 H   0  0  0  0  0  0  0  0  0  0  0  0
  -11.9258  -16.9381   10.9525 H   0  0  0  0  0  0  0  0  0  0  0  0
  -10.0442  -17.8976    9.6324 H   0  0  0  0  0  0  0  0  0  0  0  0
   -8.6905  -17.8516    7.7262 H   0  0  0  0  0  0  0  0  0  0  0  0
  -10.7628  -17.7498    5.6943 H   0  0  0  0  0  0  0  0  0  0  0  0
   -9.1167  -17.5689    4.9585 H   0  0  0  0  0  0  0  0  0  0  0  0
   -9.8030  -19.9450    5.0952 H   0  0  0  0  0  0  0  0  0  0  0  0
   -8.3573  -19.5899    6.1176 H   0  0  0  0  0  0  0  0  0  0  0  0
  -10.0750  -19.2290    7.9440 H   0  0  0  0  0  0  0  0  0  0  0  0
  -12.0791  -19.1619    6.6396 H   0  0  0  0  0  0  0  0  0  0  0  0
  -11.7619  -20.8656    6.1063 H   0  0  0  0  0  0  0  0  0  0  0  0
  -12.4155  -19.9211    8.9469 H   0  0  0  0  0  0  0  0  0  0  0  0
  -13.4686  -20.8904    7.8351 H   0  0  0  0  0  0  0  0  0  0  0  0
  -11.9350  -22.7150    7.9750 H   0  0  0  0  0  0  0  0  0  0  0  0
  -13.6386  -22.1762    9.7887 H   0  0  0  0  0  0  0  0  0  0  0  0
  -10.6033  -23.4423   11.5105 H   0  0  0  0  0  0  0  0  0  0  0  0
   -9.8111  -22.5336   13.6877 H   0  0  0  0  0  0  0  0  0  0  0  0
  -10.8639  -20.4928   14.6500 H   0  0  0  0  0  0  0  0  0  0  0  0
  -12.6975  -19.3407   13.4213 H   0  0  0  0  0  0  0  0  0  0  0  0
  -13.5017  -20.2369   11.2423 H   0  0  0  0  0  0  0  0  0  0  0  0
  -13.3716  -24.2038   12.0007 H   0  0  0  0  0  0  0  0  0  0  0  0
  -13.4122  -26.6927   11.9955 H   0  0  0  0  0  0  0  0  0  0  0  0
  -12.7390  -27.9519    9.9545 H   0  0  0  0  0  0  0  0  0  0  0  0
  -12.0506  -26.7218    7.9019 H   0  0  0  0  0  0  0  0  0  0  0  0
  -12.0102  -24.2346    7.8911 H   0  0  0  0  0  0  0  0  0  0  0  0
  -10.2167  -21.1010    9.8215 H   0  0  0  0  0  0  0  0  0  0  0  0
   -9.9172  -22.7924    9.2381 H   0  0  0  0  0  0  0  0  0  0  0  0
   -8.5125  -21.0594    8.0615 H   0  0  0  0  0  0  0  0  0  0  0  0
   -9.5943  -22.0143    6.9635 H   0  0  0  0  0  0  0  0  0  0  0  0
   -7.8574  -15.3443    8.7102 H   0  0  0  0  0  0  0  0  0  0  0  0
   -6.2517  -13.5686    8.0244 H   0  0  0  0  0  0  0  0  0  0  0  0
   -5.6701  -13.2682    5.6198 H   0  0  0  0  0  0  0  0  0  0  0  0
   -6.6715  -14.7685    3.8989 H   0  0  0  0  0  0  0  0  0  0  0  0
   -8.2740  -16.5512    4.5748 H   0  0  0  0  0  0  0  0  0  0  0  0
  -10.9327  -15.1562    6.4066 H   0  0  0  0  0  0  0  0  0  0  0  0
  -12.8070  -14.2028    7.7368 H   0  0  0  0  0  0  0  0  0  0  0  0
  1  2  2  0
  2  3  1  0
  3  4  2  0
  4  5  1  0
  5  6  1  0
  6  7  1  0
  7  8  1  0
  8  9  1  0
  9 10  1  0
 10 11  1  0
 11 12  1  0
 12 13  1  0
 13 14  2  0
 14 15  1  0
 15 16  2  0
 16 17  1  0
 17 18  2  0
 12 19  1  0
 19 20  2  0
 20 21  1  0
 21 22  2  0
 22 23  1  0
 23 24  2  0
 11 25  1  0
 25 26  1  0
  5 27  1  0
 27 28  2  0
 28 29  1  0
 29 30  2  0
 30 31  1  0
 31 32  2  0
  4 33  1  0
 33 34  2  0
 34  1  1  0
 26  8  1  0
 32 27  1  0
 18 13  1  0
 24 19  1  0
  1 35  1  0
  2 36  1  0
  3 37  1  0
  5 38  1  0
  6 39  1  0
  6 40  1  0
  7 41  1  0
  7 42  1  0
  8 43  1  0
  9 44  1  0
  9 45  1  0
 10 46  1  0
 10 47  1  0
 11 48  1  0
 12 49  1  0
 14 50  1  0
 15 51  1  0
 16 52  1  0
 17 53  1  0
 18 54  1  0
 20 55  1  0
 21 56  1  0
 22 57  1  0
 23 58  1  0
 24 59  1  0
 25 60  1  0
 25 61  1  0
 26 62  1  0
 26 63  1  0
 28 64  1  0
 29 65  1  0
 30 66  1  0
 31 67  1  0
 32 68  1  0
 33 69  1  0
 34 70  1  0
M  CHG  2   8   1  11   1
M  END
>  <meeko>  (7) 
{"is_sidechain": [false], "free_energy": -7.843, "intermolecular_energy": -11.873, "internal_energy": -1.495}

$$$$
LIB_CLZJJBZJUIWHJT__M_PUB_ALL__e8__s20260927
     RDKit          3D

 70 74  0  0  0  0  0  0  0  0999 V2000
  -10.1710  -17.4060    9.5600 C   0  0  0  0  0  0  0  0  0  0  0  0
  -10.3170  -16.2750    8.7640 C   0  0  0  0  0  0  0  0  0  0  0  0
   -9.2580  -15.8350    7.9660 C   0  0  0  0  0  0  0  0  0  0  0  0
   -8.0360  -16.5280    7.9490 C   0  0  0  0  0  0  0  0  0  0  0  0
   -6.8450  -16.0930    7.1040 C   0  0  0  0  0  0  0  0  0  0  0  0
   -7.1720  -14.9560    6.1010 C   0  0  0  0  0  0  0  0  0  0  0  0
   -6.7850  -15.3390    4.6710 C   0  0  0  0  0  0  0  0  0  0  0  0
   -5.4670  -14.6600    4.2630 N   0  0  0  0  0  0  0  0  0  0  0  0
   -4.4330  -15.7170    3.8670 C   0  0  0  0  0  0  0  0  0  0  0  0
   -3.0860  -15.0750    3.4570 C   0  0  0  0  0  0  0  0  0  0  0  0
   -3.2720  -14.0320    2.3500 N   0  0  0  0  0  0  0  0  0  0  0  0
   -1.9160  -13.3840    1.9390 C   0  0  0  0  0  0  0  0  0  0  0  0
   -1.9960  -11.8680    1.8250 C   0  0  0  0  0  0  0  0  0  0  0  0
   -1.4700  -11.0740    2.8610 C   0  0  0  0  0  0  0  0  0  0  0  0
   -1.5490   -9.6820    2.8030 C   0  0  0  0  0  0  0  0  0  0  0  0
   -2.1450   -9.0610    1.7110 C   0  0  0  0  0  0  0  0  0  0  0  0
   -2.6570   -9.8280    0.6700 C   0  0  0  0  0  0  0  0  0  0  0  0
   -2.5830  -11.2220    0.7220 C   0  0  0  0  0  0  0  0  0  0  0  0
   -1.2950  -14.0390    0.7140 C   0  0  0  0  0  0  0  0  0  0  0  0
   -1.9550  -15.0340   -0.0310 C   0  0  0  0  0  0  0  0  0  0  0  0
   -1.3370  -15.6260   -1.1340 C   0  0  0  0  0  0  0  0  0  0  0  0
   -0.0570  -15.2330   -1.5140 C   0  0  0  0  0  0  0  0  0  0  0  0
    0.6070  -14.2420   -0.7980 C   0  0  0  0  0  0  0  0  0  0  0  0
   -0.0070  -13.6450    0.3040 C   0  0  0  0  0  0  0  0  0  0  0  0
   -4.3060  -12.9750    2.7470 C   0  0  0  0  0  0  0  0  0  0  0  0
   -5.6530  -13.6150    3.1640 C   0  0  0  0  0  0  0  0  0  0  0  0
   -5.6230  -15.7510    7.9440 C   0  0  0  0  0  0  0  0  0  0  0  0
   -4.3520  -16.2660    7.6410 C   0  0  0  0  0  0  0  0  0  0  0  0
   -3.2510  -15.9640    8.4450 C   0  0  0  0  0  0  0  0  0  0  0  0
   -3.4040  -15.1400    9.5570 C   0  0  0  0  0  0  0  0  0  0  0  0
   -4.6540  -14.6090    9.8630 C   0  0  0  0  0  0  0  0  0  0  0  0
   -5.7570  -14.9080    9.0600 C   0  0  0  0  0  0  0  0  0  0  0  0
   -7.9030  -17.6590    8.7730 C   0  0  0  0  0  0  0  0  0  0  0  0
   -8.9640  -18.0970    9.5680 C   0  0  0  0  0  0  0  0  0  0  0  0
  -11.0088  -17.7535   10.1823 H   0  0  0  0  0  0  0  0  0  0  0  0
  -11.2696  -15.7249    8.7627 H   0  0  0  0  0  0  0  0  0  0  0  0
   -9.3823  -14.9362    7.3442 H   0  0  0  0  0  0  0  0  0  0  0  0
   -6.5958  -16.9773    6.4991 H   0  0  0  0  0  0  0  0  0  0  0  0
   -8.2518  -14.7489    6.1355 H   0  0  0  0  0  0  0  0  0  0  0  0
   -6.5925  -14.0662    6.3881 H   0  0  0  0  0  0  0  0  0  0  0  0
   -6.6625  -16.4305    4.6103 H   0  0  0  0  0  0  0  0  0  0  0  0
   -7.5804  -15.0051    3.9884 H   0  0  0  0  0  0  0  0  0  0  0  0
   -5.1290  -14.1920    5.1190 H   0  0  0  0  0  0  0  0  0  0  0  0
   -4.2627  -16.3871    4.7225 H   0  0  0  0  0  0  0  0  0  0  0  0
   -4.8249  -16.2730    3.0025 H   0  0  0  0  0  0  0  0  0  0  0  0
   -2.6410  -14.5866    4.3365 H   0  0  0  0  0  0  0  0  0  0  0  0
   -2.4286  -15.8695    3.0742 H   0  0  0  0  0  0  0  0  0  0  0  0
   -3.5870  -14.5040    1.4940 H   0  0  0  0  0  0  0  0  0  0  0  0
   -1.2227  -13.5853    2.7689 H   0  0  0  0  0  0  0  0  0  0  0  0
   -0.9913  -11.5560    3.7261 H   0  0  0  0  0  0  0  0  0  0  0  0
   -1.1388   -9.0745    3.6232 H   0  0  0  0  0  0  0  0  0  0  0  0
   -2.2115   -7.9638    1.6705 H   0  0  0  0  0  0  0  0  0  0  0  0
   -3.1216   -9.3355   -0.1969 H   0  0  0  0  0  0  0  0  0  0  0  0
   -2.9877  -11.8203   -0.1076 H   0  0  0  0  0  0  0  0  0  0  0  0
   -2.9684  -15.3485    0.2588 H   0  0  0  0  0  0  0  0  0  0  0  0
   -1.8633  -16.4054   -1.7045 H   0  0  0  0  0  0  0  0  0  0  0  0
    0.4294  -15.7057   -2.3800 H   0  0  0  0  0  0  0  0  0  0  0  0
    1.6170  -13.9287   -1.1008 H   0  0  0  0  0  0  0  0  0  0  0  0
    0.5221  -12.8566    0.8593 H   0  0  0  0  0  0  0  0  0  0  0  0
   -3.9122  -12.3918    3.5925 H   0  0  0  0  0  0  0  0  0  0  0  0
   -4.4894  -12.3317    1.8737 H   0  0  0  0  0  0  0  0  0  0  0  0
   -6.3236  -12.8251    3.5332 H   0  0  0  0  0  0  0  0  0  0  0  0
   -6.0811  -14.1165    2.2835 H   0  0  0  0  0  0  0  0  0  0  0  0
   -4.2225  -16.9138    6.7615 H   0  0  0  0  0  0  0  0  0  0  0  0
   -2.2617  -16.3775    8.1996 H   0  0  0  0  0  0  0  0  0  0  0  0
   -2.5373  -14.9087   10.1936 H   0  0  0  0  0  0  0  0  0  0  0  0
   -4.7731  -13.9533   10.7381 H   0  0  0  0  0  0  0  0  0  0  0  0
   -6.7403  -14.4793    9.3037 H   0  0  0  0  0  0  0  0  0  0  0  0
   -6.9493  -18.2069    8.7918 H   0  0  0  0  0  0  0  0  0  0  0  0
   -8.8452  -18.9889   10.2008 H   0  0  0  0  0  0  0  0  0  0  0  0
  1  2  2  0
  2  3  1  0
  3  4  2  0
  4  5  1  0
  5  6  1  0
  6  7  1  0
  7  8  1  0
  8  9  1  0
  9 10  1  0
 10 11  1  0
 11 12  1  0
 12 13  1  0
 13 14  2  0
 14 15  1  0
 15 16  2  0
 16 17  1  0
 17 18  2  0
 12 19  1  0
 19 20  2  0
 20 21  1  0
 21 22  2  0
 22 23  1  0
 23 24  2  0
 11 25  1  0
 25 26  1  0
  5 27  1  0
 27 28  2  0
 28 29  1  0
 29 30  2  0
 30 31  1  0
 31 32  2  0
  4 33  1  0
 33 34  2  0
 34  1  1  0
 26  8  1  0
 32 27  1  0
 18 13  1  0
 24 19  1  0
  1 35  1  0
  2 36  1  0
  3 37  1  0
  5 38  1  0
  6 39  1  0
  6 40  1  0
  7 41  1  0
  7 42  1  0
  8 43  1  0
  9 44  1  0
  9 45  1  0
 10 46  1  0
 10 47  1  0
 11 48  1  0
 12 49  1  0
 14 50  1  0
 15 51  1  0
 16 52  1  0
 17 53  1  0
 18 54  1  0
 20 55  1  0
 21 56  1  0
 22 57  1  0
 23 58  1  0
 24 59  1  0
 25 60  1  0
 25 61  1  0
 26 62  1  0
 26 63  1  0
 28 64  1  0
 29 65  1  0
 30 66  1  0
 31 67  1  0
 32 68  1  0
 33 69  1  0
 34 70  1  0
M  CHG  2   8   1  11   1
M  END
>  <meeko>  (8) 
{"is_sidechain": [false], "free_energy": -7.811, "intermolecular_energy": -11.766, "internal_energy": -1.555}

$$$$
LIB_CLZJJBZJUIWHJT__M_PUB_ALL__e8__s20260927
     RDKit          3D

 70 74  0  0  0  0  0  0  0  0999 V2000
  -10.5940  -17.2160    6.2370 C   0  0  0  0  0  0  0  0  0  0  0  0
  -10.0080  -16.4830    5.2110 C   0  0  0  0  0  0  0  0  0  0  0  0
   -8.6210  -16.3120    5.1710 C   0  0  0  0  0  0  0  0  0  0  0  0
   -7.7990  -16.8800    6.1590 C   0  0  0  0  0  0  0  0  0  0  0  0
   -6.2840  -16.7240    6.1710 C   0  0  0  0  0  0  0  0  0  0  0  0
   -5.7020  -16.1640    4.8470 C   0  0  0  0  0  0  0  0  0  0  0  0
   -4.3240  -16.7540    4.5440 C   0  0  0  0  0  0  0  0  0  0  0  0
   -3.3460  -15.6540    4.0950 N   0  0  0  0  0  0  0  0  0  0  0  0
   -2.0300  -16.2790    3.6280 C   0  0  0  0  0  0  0  0  0  0  0  0
   -1.0140  -15.2040    3.1760 C   0  0  0  0  0  0  0  0  0  0  0  0
   -1.6070  -14.2820    2.1060 N   0  0  0  0  0  0  0  0  0  0  0  0
   -0.5840  -13.1970    1.6530 C   0  0  0  0  0  0  0  0  0  0  0  0
   -1.1780  -11.7950    1.6330 C   0  0  0  0  0  0  0  0  0  0  0  0
   -1.0950  -10.9990    2.7910 C   0  0  0  0  0  0  0  0  0  0  0  0
   -1.6520   -9.7200    2.8180 C   0  0  0  0  0  0  0  0  0  0  0  0
   -2.2920   -9.2120    1.6920 C   0  0  0  0  0  0  0  0  0  0  0  0
   -2.3700   -9.9780    0.5330 C   0  0  0  0  0  0  0  0  0  0  0  0
   -1.8160  -11.2600    0.5000 C   0  0  0  0  0  0  0  0  0  0  0  0
    0.1270  -13.5580    0.3560 C   0  0  0  0  0  0  0  0  0  0  0  0
    1.3310  -12.9500   -0.0420 C   0  0  0  0  0  0  0  0  0  0  0  0
    1.9370  -13.2940   -1.2530 C   0  0  0  0  0  0  0  0  0  0  0  0
    1.3530  -14.2500   -2.0800 C   0  0  0  0  0  0  0  0  0  0  0  0
    0.1700  -14.8710   -1.6970 C   0  0  0  0  0  0  0  0  0  0  0  0
   -0.4380  -14.5330   -0.4870 C   0  0  0  0  0  0  0  0  0  0  0  0
   -2.9230  -13.6560    2.5750 C   0  0  0  0  0  0  0  0  0  0  0  0
   -3.9400  -14.7300    3.0330 C   0  0  0  0  0  0  0  0  0  0  0  0
   -5.7850  -15.9290    7.3690 C   0  0  0  0  0  0  0  0  0  0  0  0
   -4.7570  -16.4090    8.1960 C   0  0  0  0  0  0  0  0  0  0  0  0
   -4.3380  -15.6760    9.3090 C   0  0  0  0  0  0  0  0  0  0  0  0
   -4.9360  -14.4550    9.6070 C   0  0  0  0  0  0  0  0  0  0  0  0
   -5.9480  -13.9580    8.7890 C   0  0  0  0  0  0  0  0  0  0  0  0
   -6.3680  -14.6870    7.6740 C   0  0  0  0  0  0  0  0  0  0  0  0
   -8.4120  -17.6040    7.1960 C   0  0  0  0  0  0  0  0  0  0  0  0
   -9.7980  -17.7740    7.2320 C   0  0  0  0  0  0  0  0  0  0  0  0
  -11.6850  -17.3544    6.2618 H   0  0  0  0  0  0  0  0  0  0  0  0
  -10.6380  -16.0360    4.4279 H   0  0  0  0  0  0  0  0  0  0  0  0
   -8.1683  -15.7265    4.3573 H   0  0  0  0  0  0  0  0  0  0  0  0
   -5.9008  -17.7505    6.2688 H   0  0  0  0  0  0  0  0  0  0  0  0
   -6.3862  -16.4133    4.0226 H   0  0  0  0  0  0  0  0  0  0  0  0
   -5.5943  -15.0743    4.9521 H   0  0  0  0  0  0  0  0  0  0  0  0
   -3.9314  -17.2377    5.4506 H   0  0  0  0  0  0  0  0  0  0  0  0
   -4.4256  -17.4888    3.7318 H   0  0  0  0  0  0  0  0  0  0  0  0
   -3.1510  -15.1050    4.9480 H   0  0  0  0  0  0  0  0  0  0  0  0
   -1.5944  -16.8544    4.4582 H   0  0  0  0  0  0  0  0  0  0  0  0
   -2.2460  -16.9295    2.7677 H   0  0  0  0  0  0  0  0  0  0  0  0
   -0.7232  -14.5988    4.0474 H   0  0  0  0  0  0  0  0  0  0  0  0
   -0.1412  -15.7155    2.7440 H   0  0  0  0  0  0  0  0  0  0  0  0
   -1.7800  -14.8260    1.2530 H   0  0  0  0  0  0  0  0  0  0  0  0
    0.1972  -13.1800    2.4273 H   0  0  0  0  0  0  0  0  0  0  0  0
   -0.5855  -11.3895    3.6843 H   0  0  0  0  0  0  0  0  0  0  0  0
   -1.5849   -9.1117    3.7320 H   0  0  0  0  0  0  0  0  0  0  0  0
   -2.7359   -8.2059    1.7179 H   0  0  0  0  0  0  0  0  0  0  0  0
   -2.8692   -9.5730   -0.3596 H   0  0  0  0  0  0  0  0  0  0  0  0
   -1.8795  -11.8570   -0.4217 H   0  0  0  0  0  0  0  0  0  0  0  0
    1.8005  -12.1959    0.6068 H   0  0  0  0  0  0  0  0  0  0  0  0
    2.8772  -12.8087   -1.5537 H   0  0  0  0  0  0  0  0  0  0  0  0
    1.8279  -14.5138   -3.0365 H   0  0  0  0  0  0  0  0  0  0  0  0
   -0.2877  -15.6300   -2.3485 H   0  0  0  0  0  0  0  0  0  0  0  0
   -1.3703  -15.0349   -0.1886 H   0  0  0  0  0  0  0  0  0  0  0  0
   -2.7153  -12.9801    3.4176 H   0  0  0  0  0  0  0  0  0  0  0  0
   -3.3621  -13.1087    1.7279 H   0  0  0  0  0  0  0  0  0  0  0  0
   -4.8246  -14.2278    3.4518 H   0  0  0  0  0  0  0  0  0  0  0  0
   -4.2105  -15.3410    2.1592 H   0  0  0  0  0  0  0  0  0  0  0  0
   -4.2769  -17.3714    7.9654 H   0  0  0  0  0  0  0  0  0  0  0  0
   -3.5339  -16.0646    9.9511 H   0  0  0  0  0  0  0  0  0  0  0  0
   -4.6096  -13.8828   10.4880 H   0  0  0  0  0  0  0  0  0  0  0  0
   -6.4169  -12.9904    9.0213 H   0  0  0  0  0  0  0  0  0  0  0  0
   -7.1628  -14.2852    7.0283 H   0  0  0  0  0  0  0  0  0  0  0  0
   -7.7913  -18.0432    7.9909 H   0  0  0  0  0  0  0  0  0  0  0  0
  -10.2602  -18.3494    8.0476 H   0  0  0  0  0  0  0  0  0  0  0  0
  1  2  2  0
  2  3  1  0
  3  4  2  0
  4  5  1  0
  5  6  1  0
  6  7  1  0
  7  8  1  0
  8  9  1  0
  9 10  1  0
 10 11  1  0
 11 12  1  0
 12 13  1  0
 13 14  2  0
 14 15  1  0
 15 16  2  0
 16 17  1  0
 17 18  2  0
 12 19  1  0
 19 20  2  0
 20 21  1  0
 21 22  2  0
 22 23  1  0
 23 24  2  0
 11 25  1  0
 25 26  1  0
  5 27  1  0
 27 28  2  0
 28 29  1  0
 29 30  2  0
 30 31  1  0
 31 32  2  0
  4 33  1  0
 33 34  2  0
 34  1  1  0
 26  8  1  0
 32 27  1  0
 18 13  1  0
 24 19  1  0
  1 35  1  0
  2 36  1  0
  3 37  1  0
  5 38  1  0
  6 39  1  0
  6 40  1  0
  7 41  1  0
  7 42  1  0
  8 43  1  0
  9 44  1  0
  9 45  1  0
 10 46  1  0
 10 47  1  0
 11 48  1  0
 12 49  1  0
 14 50  1  0
 15 51  1  0
 16 52  1  0
 17 53  1  0
 18 54  1  0
 20 55  1  0
 21 56  1  0
 22 57  1  0
 23 58  1  0
 24 59  1  0
 25 60  1  0
 25 61  1  0
 26 62  1  0
 26 63  1  0
 28 64  1  0
 29 65  1  0
 30 66  1  0
 31 67  1  0
 32 68  1  0
 33 69  1  0
 34 70  1  0
M  CHG  2   8   1  11   1
M  END
>  <meeko>  (9) 
{"is_sidechain": [false], "free_energy": -7.783, "intermolecular_energy": -11.788, "internal_energy": -1.491}

$$$$
