LIB_CGYVWNFDAWEANQ__M_PUB_ALL__e8__s20260927
     RDKit          3D

 31 33  0  0  0  0  0  0  0  0999 V2000
   16.5280   -9.9860   13.6960 O   0  0  0  0  0  0  0  0  0  0  0  0
   16.1210   -9.4380   12.6790 C   0  0  0  0  0  0  0  0  0  0  0  0
   14.9700   -9.7300   11.9760 N   0  0  0  0  0  0  0  0  0  0  0  0
   13.9490  -10.6570   12.3070 C   0  0  0  0  0  0  0  0  0  0  0  0
   13.8740  -11.9420   11.7650 C   0  0  0  0  0  0  0  0  0  0  0  0
   12.8380  -12.8070   12.1480 C   0  0  0  0  0  0  0  0  0  0  0  0
   12.7250  -14.1540   11.6060 C   0  0  0  0  0  0  0  0  0  0  0  0
   11.6900  -14.8810   12.0580 C   0  0  0  0  0  0  0  0  0  0  0  0
   10.7200  -14.5540   12.9500 N   0  0  0  0  0  0  0  0  0  0  0  0
   10.7700  -13.3230   13.4840 C   0  0  0  0  0  0  0  0  0  0  0  0
    9.9590  -12.8920   14.3040 O   0  0  0  0  0  0  0  0  0  0  0  0
   11.8740  -12.3900   13.0760 C   0  0  0  0  0  0  0  0  0  0  0  0
   11.9400  -11.1090   13.6250 C   0  0  0  0  0  0  0  0  0  0  0  0
   12.9710  -10.2540   13.2410 C   0  0  0  0  0  0  0  0  0  0  0  0
   13.0260   -8.6710   13.9510 Cl  0  0  0  0  0  0  0  0  0  0  0  0
   16.9550   -8.3560   12.0800 C   0  0  0  0  0  0  0  0  0  0  0  0
   18.3540   -8.4370   12.0370 C   0  0  0  0  0  0  0  0  0  0  0  0
   19.0960   -7.4010   11.4640 C   0  0  0  0  0  0  0  0  0  0  0  0
   18.4460   -6.2890   10.9270 C   0  0  0  0  0  0  0  0  0  0  0  0
   17.0530   -6.2130   10.9510 C   0  0  0  0  0  0  0  0  0  0  0  0
   16.3080   -7.2470   11.5210 C   0  0  0  0  0  0  0  0  0  0  0  0
   14.8260   -9.2670   11.0870 H   0  0  0  0  0  0  0  0  0  0  0  0
   14.6280  -12.2762   11.0371 H   0  0  0  0  0  0  0  0  0  0  0  0
   13.4422  -14.5511   10.8725 H   0  0  0  0  0  0  0  0  0  0  0  0
   11.6171  -15.8966   11.6419 H   0  0  0  0  0  0  0  0  0  0  0  0
   11.1856  -10.7774   14.3537 H   0  0  0  0  0  0  0  0  0  0  0  0
   18.8673   -9.3159   12.4542 H   0  0  0  0  0  0  0  0  0  0  0  0
   20.1940   -7.4620   11.4361 H   0  0  0  0  0  0  0  0  0  0  0  0
   19.0329   -5.4709   10.4840 H   0  0  0  0  0  0  0  0  0  0  0  0
   16.5421   -5.3389   10.5211 H   0  0  0  0  0  0  0  0  0  0  0  0
   15.2095   -7.1904   11.5310 H   0  0  0  0  0  0  0  0  0  0  0  0
  1  2  2  0
  2  3  1  0
  3  4  1  0
  4  5  2  0
  5  6  1  0
  6  7  1  0
  7  8  2  0
  8  9  1  0
  9 10  1  0
 10 11  2  0
 10 12  1  0
 12 13  1  0
 13 14  2  0
 14 15  1  0
  2 16  1  0
 16 17  2  0
 17 18  1  0
 18 19  2  0
 19 20  1  0
 20 21  2  0
 14  4  1  0
 21 16  1  0
 12  6  2  0
  3 22  1  0
  5 23  1  0
  7 24  1  0
  8 25  1  0
 13 26  1  0
 17 27  1  0
 18 28  1  0
 19 29  1  0
 20 30  1  0
 21 31  1  0
M  CHG  1   9  -1
M  END
>  <meeko>  (1) 
{"is_sidechain": [false], "free_energy": -7.068, "intermolecular_energy": -7.894, "internal_energy": -0.418}

$$$$
LIB_CGYVWNFDAWEANQ__M_PUB_ALL__e8__s20260927
     RDKit          3D

 31 33  0  0  0  0  0  0  0  0999 V2000
   13.1210  -10.5110   14.0210 O   0  0  0  0  0  0  0  0  0  0  0  0
   13.4620  -11.0370   12.9690 C   0  0  0  0  0  0  0  0  0  0  0  0
   14.4410  -10.6050   12.0990 N   0  0  0  0  0  0  0  0  0  0  0  0
   15.3390   -9.5190   12.2530 C   0  0  0  0  0  0  0  0  0  0  0  0
   16.5640   -9.6230   12.9160 C   0  0  0  0  0  0  0  0  0  0  0  0
   17.4050   -8.5060   13.0220 C   0  0  0  0  0  0  0  0  0  0  0  0
   18.6890   -8.5750   13.7040 C   0  0  0  0  0  0  0  0  0  0  0  0
   19.3990   -7.4350   13.7300 C   0  0  0  0  0  0  0  0  0  0  0  0
   19.1050   -6.2140   13.2150 N   0  0  0  0  0  0  0  0  0  0  0  0
   17.9320   -6.0880   12.5750 C   0  0  0  0  0  0  0  0  0  0  0  0
   17.5360   -5.0410   12.0590 O   0  0  0  0  0  0  0  0  0  0  0  0
   17.0250   -7.2780   12.4610 C   0  0  0  0  0  0  0  0  0  0  0  0
   15.8040   -7.1620   11.7950 C   0  0  0  0  0  0  0  0  0  0  0  0
   14.9720   -8.2760   11.6940 C   0  0  0  0  0  0  0  0  0  0  0  0
   13.4660   -8.0960   10.8510 Cl  0  0  0  0  0  0  0  0  0  0  0  0
   12.7330  -12.2600   12.5260 C   0  0  0  0  0  0  0  0  0  0  0  0
   13.3560  -13.2560   11.7590 C   0  0  0  0  0  0  0  0  0  0  0  0
   12.6360  -14.3870   11.3670 C   0  0  0  0  0  0  0  0  0  0  0  0
   11.3010  -14.5320   11.7450 C   0  0  0  0  0  0  0  0  0  0  0  0
   10.6830  -13.5530   12.5230 C   0  0  0  0  0  0  0  0  0  0  0  0
   11.3990  -12.4220   12.9180 C   0  0  0  0  0  0  0  0  0  0  0  0
   14.5300  -11.0820   11.2100 H   0  0  0  0  0  0  0  0  0  0  0  0
   16.8698  -10.5836   13.3561 H   0  0  0  0  0  0  0  0  0  0  0  0
   19.0549   -9.5023   14.1689 H   0  0  0  0  0  0  0  0  0  0  0  0
   20.3671   -7.5011   14.2481 H   0  0  0  0  0  0  0  0  0  0  0  0
   15.5011   -6.2009   11.3540 H   0  0  0  0  0  0  0  0  0  0  0  0
   14.4107  -13.1463   11.4665 H   0  0  0  0  0  0  0  0  0  0  0  0
   13.1223  -15.1644   10.7594 H   0  0  0  0  0  0  0  0  0  0  0  0
   10.7345  -15.4203   11.4288 H   0  0  0  0  0  0  0  0  0  0  0  0
    9.6320  -13.6723   12.8250 H   0  0  0  0  0  0  0  0  0  0  0  0
   10.9134  -11.6553   13.5395 H   0  0  0  0  0  0  0  0  0  0  0  0
  1  2  2  0
  2  3  1  0
  3  4  1  0
  4  5  2  0
  5  6  1  0
  6  7  1  0
  7  8  2  0
  8  9  1  0
  9 10  1  0
 10 11  2  0
 10 12  1  0
 12 13  1  0
 13 14  2  0
 14 15  1  0
  2 16  1  0
 16 17  2  0
 17 18  1  0
 18 19  2  0
 19 20  1  0
 20 21  2  0
 14  4  1  0
 21 16  1  0
 12  6  2  0
  3 22  1  0
  5 23  1  0
  7 24  1  0
  8 25  1  0
 13 26  1  0
 17 27  1  0
 18 28  1  0
 19 29  1  0
 20 30  1  0
 21 31  1  0
M  CHG  1   9  -1
M  END
>  <meeko>  (2) 
{"is_sidechain": [false], "free_energy": -6.961, "intermolecular_energy": -7.759, "internal_energy": -0.433}

$$$$
LIB_CGYVWNFDAWEANQ__M_PUB_ALL__e8__s20260927
     RDKit          3D

 31 33  0  0  0  0  0  0  0  0999 V2000
  -11.4270  -16.5530  -11.3180 O   0  0  0  0  0  0  0  0  0  0  0  0
  -11.1860  -15.4060  -10.9600 C   0  0  0  0  0  0  0  0  0  0  0  0
  -11.6130  -14.7860   -9.8040 N   0  0  0  0  0  0  0  0  0  0  0  0
  -12.3420  -15.3440   -8.7240 C   0  0  0  0  0  0  0  0  0  0  0  0
  -13.7350  -15.4540   -8.7130 C   0  0  0  0  0  0  0  0  0  0  0  0
  -14.3870  -16.0270   -7.6100 C   0  0  0  0  0  0  0  0  0  0  0  0
  -15.8360  -16.1600   -7.5620 C   0  0  0  0  0  0  0  0  0  0  0  0
  -16.3330  -16.7290   -6.4510 C   0  0  0  0  0  0  0  0  0  0  0  0
  -15.6910  -17.2040   -5.3550 N   0  0  0  0  0  0  0  0  0  0  0  0
  -14.3510  -17.1080   -5.3400 C   0  0  0  0  0  0  0  0  0  0  0  0
  -13.6410  -17.4980   -4.4130 O   0  0  0  0  0  0  0  0  0  0  0  0
  -13.6470  -16.4930   -6.5150 C   0  0  0  0  0  0  0  0  0  0  0  0
  -12.2550  -16.3900   -6.5150 C   0  0  0  0  0  0  0  0  0  0  0  0
  -11.6130  -15.8200   -7.6130 C   0  0  0  0  0  0  0  0  0  0  0  0
   -9.8810  -15.7150   -7.5810 Cl  0  0  0  0  0  0  0  0  0  0  0  0
  -10.3790  -14.5410  -11.8670 C   0  0  0  0  0  0  0  0  0  0  0  0
   -9.6800  -13.4210  -11.3940 C   0  0  0  0  0  0  0  0  0  0  0  0
   -8.9340  -12.6390  -12.2790 C   0  0  0  0  0  0  0  0  0  0  0  0
   -8.8760  -12.9750  -13.6320 C   0  0  0  0  0  0  0  0  0  0  0  0
   -9.5560  -14.0990  -14.1040 C   0  0  0  0  0  0  0  0  0  0  0  0
  -10.3010  -14.8830  -13.2230 C   0  0  0  0  0  0  0  0  0  0  0  0
  -11.4280  -13.7950   -9.7010 H   0  0  0  0  0  0  0  0  0  0  0  0
  -14.3214  -15.0910   -9.5700 H   0  0  0  0  0  0  0  0  0  0  0  0
  -16.4826  -15.8166   -8.3829 H   0  0  0  0  0  0  0  0  0  0  0  0
  -17.4286  -16.8241   -6.4267 H   0  0  0  0  0  0  0  0  0  0  0  0
  -11.6708  -16.7549   -5.6574 H   0  0  0  0  0  0  0  0  0  0  0  0
   -9.7192  -13.1584  -10.3265 H   0  0  0  0  0  0  0  0  0  0  0  0
   -8.3913  -11.7568  -11.9086 H   0  0  0  0  0  0  0  0  0  0  0  0
   -8.2935  -12.3532  -14.3278 H   0  0  0  0  0  0  0  0  0  0  0  0
   -9.5044  -14.3663  -15.1698 H   0  0  0  0  0  0  0  0  0  0  0  0
  -10.8293  -15.7734  -13.5947 H   0  0  0  0  0  0  0  0  0  0  0  0
  1  2  2  0
  2  3  1  0
  3  4  1  0
  4  5  2  0
  5  6  1  0
  6  7  1  0
  7  8  2  0
  8  9  1  0
  9 10  1  0
 10 11  2  0
 10 12  1  0
 12 13  1  0
 13 14  2  0
 14 15  1  0
  2 16  1  0
 16 17  2  0
 17 18  1  0
 18 19  2  0
 19 20  1  0
 20 21  2  0
 14  4  1  0
 21 16  1  0
 12  6  2  0
  3 22  1  0
  5 23  1  0
  7 24  1  0
  8 25  1  0
 13 26  1  0
 17 27  1  0
 18 28  1  0
 19 29  1  0
 20 30  1  0
 21 31  1  0
M  CHG  1   9  -1
M  END
>  <meeko>  (3) 
{"is_sidechain": [false], "free_energy": -6.893, "intermolecular_energy": -7.664, "internal_energy": -0.453}

$$$$
LIB_CGYVWNFDAWEANQ__M_PUB_ALL__e8__s20260927
     RDKit          3D

 31 33  0  0  0  0  0  0  0  0999 V2000
   10.4870  -14.5420   -1.9390 O   0  0  0  0  0  0  0  0  0  0  0  0
   10.8160  -13.3670   -2.0380 C   0  0  0  0  0  0  0  0  0  0  0  0
   10.0930  -12.2620   -1.6370 N   0  0  0  0  0  0  0  0  0  0  0  0
    8.8590  -12.2230   -0.9410 C   0  0  0  0  0  0  0  0  0  0  0  0
    7.6180  -12.3680   -1.5670 C   0  0  0  0  0  0  0  0  0  0  0  0
    6.4380  -12.3280   -0.8100 C   0  0  0  0  0  0  0  0  0  0  0  0
    5.1270  -12.4760   -1.4260 C   0  0  0  0  0  0  0  0  0  0  0  0
    4.0790  -12.4220   -0.5880 C   0  0  0  0  0  0  0  0  0  0  0  0
    4.0480  -12.2490    0.7570 N   0  0  0  0  0  0  0  0  0  0  0  0
    5.2270  -12.1060    1.3830 C   0  0  0  0  0  0  0  0  0  0  0  0
    5.3490  -11.9430    2.5980 O   0  0  0  0  0  0  0  0  0  0  0  0
    6.4940  -12.1440    0.5790 C   0  0  0  0  0  0  0  0  0  0  0  0
    7.7270  -12.0000    1.2160 C   0  0  0  0  0  0  0  0  0  0  0  0
    8.8960  -12.0400    0.4590 C   0  0  0  0  0  0  0  0  0  0  0  0
   10.4120  -11.8650    1.2870 Cl  0  0  0  0  0  0  0  0  0  0  0  0
   12.1160  -13.0520   -2.6950 C   0  0  0  0  0  0  0  0  0  0  0  0
   12.6210  -13.8270   -3.7480 C   0  0  0  0  0  0  0  0  0  0  0  0
   13.8440  -13.4940   -4.3370 C   0  0  0  0  0  0  0  0  0  0  0  0
   14.5600  -12.3850   -3.8840 C   0  0  0  0  0  0  0  0  0  0  0  0
   14.0520  -11.6000   -2.8470 C   0  0  0  0  0  0  0  0  0  0  0  0
   12.8300  -11.9290   -2.2580 C   0  0  0  0  0  0  0  0  0  0  0  0
   10.4460  -11.3460   -1.8890 H   0  0  0  0  0  0  0  0  0  0  0  0
    7.5665  -12.5139   -2.6561 H   0  0  0  0  0  0  0  0  0  0  0  0
    5.0029  -12.6227   -2.5091 H   0  0  0  0  0  0  0  0  0  0  0  0
    3.0946  -12.5355   -1.0656 H   0  0  0  0  0  0  0  0  0  0  0  0
    7.7757  -11.8563    2.3055 H   0  0  0  0  0  0  0  0  0  0  0  0
   12.0547  -14.6974   -4.1109 H   0  0  0  0  0  0  0  0  0  0  0  0
   14.2428  -14.1069   -5.1588 H   0  0  0  0  0  0  0  0  0  0  0  0
   15.5257  -12.1290   -4.3444 H   0  0  0  0  0  0  0  0  0  0  0  0
   14.6144  -10.7229   -2.4944 H   0  0  0  0  0  0  0  0  0  0  0  0
   12.4263  -11.3041   -1.4477 H   0  0  0  0  0  0  0  0  0  0  0  0
  1  2  2  0
  2  3  1  0
  3  4  1  0
  4  5  2  0
  5  6  1  0
  6  7  1  0
  7  8  2  0
  8  9  1  0
  9 10  1  0
 10 11  2  0
 10 12  1  0
 12 13  1  0
 13 14  2  0
 14 15  1  0
  2 16  1  0
 16 17  2  0
 17 18  1  0
 18 19  2  0
 19 20  1  0
 20 21  2  0
 14  4  1  0
 21 16  1  0
 12  6  2  0
  3 22  1  0
  5 23  1  0
  7 24  1  0
  8 25  1  0
 13 26  1  0
 17 27  1  0
 18 28  1  0
 19 29  1  0
 20 30  1  0
 21 31  1  0
M  CHG  1   9  -1
M  END
>  <meeko>  (4) 
{"is_sidechain": [false], "free_energy": -6.834, "intermolecular_energy": -7.585, "internal_energy": -0.466}

$$$$
LIB_CGYVWNFDAWEANQ__M_PUB_ALL__e8__s20260927
     RDKit          3D

 31 33  0  0  0  0  0  0  0  0999 V2000
   14.4090  -15.9370   -5.4020 O   0  0  0  0  0  0  0  0  0  0  0  0
   14.1140  -14.9770   -6.1010 C   0  0  0  0  0  0  0  0  0  0  0  0
   13.3760  -13.8710   -5.7330 N   0  0  0  0  0  0  0  0  0  0  0  0
   12.8670  -13.5400   -4.4520 C   0  0  0  0  0  0  0  0  0  0  0  0
   13.4230  -12.5510   -3.6360 C   0  0  0  0  0  0  0  0  0  0  0  0
   12.8580  -12.2730   -2.3820 C   0  0  0  0  0  0  0  0  0  0  0  0
   13.4090  -11.2500   -1.5050 C   0  0  0  0  0  0  0  0  0  0  0  0
   12.7710  -11.0800   -0.3340 C   0  0  0  0  0  0  0  0  0  0  0  0
   11.6830  -11.7200    0.1650 N   0  0  0  0  0  0  0  0  0  0  0  0
   11.1310  -12.6760   -0.5990 C   0  0  0  0  0  0  0  0  0  0  0  0
   10.1430  -13.3350   -0.2740 O   0  0  0  0  0  0  0  0  0  0  0  0
   11.7320  -12.9820   -1.9400 C   0  0  0  0  0  0  0  0  0  0  0  0
   11.1670  -13.9710   -2.7470 C   0  0  0  0  0  0  0  0  0  0  0  0
   11.7330  -14.2430   -3.9910 C   0  0  0  0  0  0  0  0  0  0  0  0
   10.9980  -15.4740   -4.9700 Cl  0  0  0  0  0  0  0  0  0  0  0  0
   14.5500  -14.9840   -7.5280 C   0  0  0  0  0  0  0  0  0  0  0  0
   15.7750  -15.5360   -7.9250 C   0  0  0  0  0  0  0  0  0  0  0  0
   16.1420  -15.5230   -9.2730 C   0  0  0  0  0  0  0  0  0  0  0  0
   15.2870  -14.9700  -10.2260 C   0  0  0  0  0  0  0  0  0  0  0  0
   14.0570  -14.4360   -9.8370 C   0  0  0  0  0  0  0  0  0  0  0  0
   13.6870  -14.4480   -8.4920 C   0  0  0  0  0  0  0  0  0  0  0  0
   13.1160  -13.2110   -6.4560 H   0  0  0  0  0  0  0  0  0  0  0  0
   14.3051  -11.9895   -3.9774 H   0  0  0  0  0  0  0  0  0  0  0  0
   14.2910  -10.6542   -1.7827 H   0  0  0  0  0  0  0  0  0  0  0  0
   13.1955  -10.3037    0.3196 H   0  0  0  0  0  0  0  0  0  0  0  0
   10.2838  -14.5301   -2.4044 H   0  0  0  0  0  0  0  0  0  0  0  0
   16.4474  -15.9794   -7.1758 H   0  0  0  0  0  0  0  0  0  0  0  0
   17.1072  -15.9498   -9.5833 H   0  0  0  0  0  0  0  0  0  0  0  0
   15.5821  -14.9545  -11.2856 H   0  0  0  0  0  0  0  0  0  0  0  0
   13.3804  -14.0063  -10.5903 H   0  0  0  0  0  0  0  0  0  0  0  0
   12.7140  -14.0350   -8.1875 H   0  0  0  0  0  0  0  0  0  0  0  0
  1  2  2  0
  2  3  1  0
  3  4  1  0
  4  5  2  0
  5  6  1  0
  6  7  1  0
  7  8  2  0
  8  9  1  0
  9 10  1  0
 10 11  2  0
 10 12  1  0
 12 13  1  0
 13 14  2  0
 14 15  1  0
  2 16  1  0
 16 17  2  0
 17 18  1  0
 18 19  2  0
 19 20  1  0
 20 21  2  0
 14  4  1  0
 21 16  1  0
 12  6  2  0
  3 22  1  0
  5 23  1  0
  7 24  1  0
  8 25  1  0
 13 26  1  0
 17 27  1  0
 18 28  1  0
 19 29  1  0
 20 30  1  0
 21 31  1  0
M  CHG  1   9  -1
M  END
>  <meeko>  (5) 
{"is_sidechain": [false], "free_energy": -6.806, "intermolecular_energy": -7.678, "internal_energy": -0.342}

$$$$
LIB_CGYVWNFDAWEANQ__M_PUB_ALL__e8__s20260927
     RDKit          3D

 31 33  0  0  0  0  0  0  0  0999 V2000
   13.4890   -8.5040   11.0310 O   0  0  0  0  0  0  0  0  0  0  0  0
   14.0170   -8.6510   12.1260 C   0  0  0  0  0  0  0  0  0  0  0  0
   13.3850   -8.7790   13.3460 N   0  0  0  0  0  0  0  0  0  0  0  0
   11.9950   -8.8630   13.6130 C   0  0  0  0  0  0  0  0  0  0  0  0
   11.1630   -7.7450   13.7120 C   0  0  0  0  0  0  0  0  0  0  0  0
    9.7930   -7.9080   13.9700 C   0  0  0  0  0  0  0  0  0  0  0  0
    8.8950   -6.7680   14.0800 C   0  0  0  0  0  0  0  0  0  0  0  0
    7.6060   -7.0610   14.3250 C   0  0  0  0  0  0  0  0  0  0  0  0
    7.0040   -8.2660   14.4870 N   0  0  0  0  0  0  0  0  0  0  0  0
    7.7830   -9.3560   14.3980 C   0  0  0  0  0  0  0  0  0  0  0  0
    7.3720  -10.5110   14.5230 O   0  0  0  0  0  0  0  0  0  0  0  0
    9.2500   -9.1900   14.1260 C   0  0  0  0  0  0  0  0  0  0  0  0
   10.0710  -10.3150   14.0270 C   0  0  0  0  0  0  0  0  0  0  0  0
   11.4310  -10.1470   13.7720 C   0  0  0  0  0  0  0  0  0  0  0  0
   12.4190  -11.5680   13.6470 Cl  0  0  0  0  0  0  0  0  0  0  0  0
   15.5060   -8.6590   12.1950 C   0  0  0  0  0  0  0  0  0  0  0  0
   16.2230   -9.7910   12.6080 C   0  0  0  0  0  0  0  0  0  0  0  0
   17.6180   -9.7540   12.6560 C   0  0  0  0  0  0  0  0  0  0  0  0
   18.3010   -8.5960   12.2850 C   0  0  0  0  0  0  0  0  0  0  0  0
   17.5920   -7.4730   11.8550 C   0  0  0  0  0  0  0  0  0  0  0  0
   16.1980   -7.5060   11.8050 C   0  0  0  0  0  0  0  0  0  0  0  0
   13.9590   -8.7790   14.1800 H   0  0  0  0  0  0  0  0  0  0  0  0
   11.5822   -6.7356   13.5876 H   0  0  0  0  0  0  0  0  0  0  0  0
    9.2486   -5.7322   13.9697 H   0  0  0  0  0  0  0  0  0  0  0  0
    6.9376   -6.1912   14.4065 H   0  0  0  0  0  0  0  0  0  0  0  0
    9.6489  -11.3234   14.1490 H   0  0  0  0  0  0  0  0  0  0  0  0
   15.6867  -10.7078   12.8941 H   0  0  0  0  0  0  0  0  0  0  0  0
   18.1795  -10.6401   12.9871 H   0  0  0  0  0  0  0  0  0  0  0  0
   19.3997   -8.5675   12.3313 H   0  0  0  0  0  0  0  0  0  0  0  0
   18.1320   -6.5626   11.5558 H   0  0  0  0  0  0  0  0  0  0  0  0
   15.6408   -6.6233   11.4580 H   0  0  0  0  0  0  0  0  0  0  0  0
  1  2  2  0
  2  3  1  0
  3  4  1  0
  4  5  2  0
  5  6  1  0
  6  7  1  0
  7  8  2  0
  8  9  1  0
  9 10  1  0
 10 11  2  0
 10 12  1  0
 12 13  1  0
 13 14  2  0
 14 15  1  0
  2 16  1  0
 16 17  2  0
 17 18  1  0
 18 19  2  0
 19 20  1  0
 20 21  2  0
 14  4  1  0
 21 16  1  0
 12  6  2  0
  3 22  1  0
  5 23  1  0
  7 24  1  0
  8 25  1  0
 13 26  1  0
 17 27  1  0
 18 28  1  0
 19 29  1  0
 20 30  1  0
 21 31  1  0
M  CHG  1   9  -1
M  END
>  <meeko>  (6) 
{"is_sidechain": [false], "free_energy": -6.708, "intermolecular_energy": -7.474, "internal_energy": -0.436}

$$$$
LIB_CGYVWNFDAWEANQ__M_PUB_ALL__e8__s20260927
     RDKit          3D

 31 33  0  0  0  0  0  0  0  0999 V2000
    0.0250  -12.9940   -0.0520 O   0  0  0  0  0  0  0  0  0  0  0  0
    0.3680  -11.8710    0.2950 C   0  0  0  0  0  0  0  0  0  0  0  0
    1.4600  -11.1560   -0.1520 N   0  0  0  0  0  0  0  0  0  0  0  0
    2.3820  -11.5030   -1.1710 C   0  0  0  0  0  0  0  0  0  0  0  0
    2.2450  -11.1000   -2.5020 C   0  0  0  0  0  0  0  0  0  0  0  0
    3.2040  -11.4760   -3.4540 C   0  0  0  0  0  0  0  0  0  0  0  0
    3.0960  -11.0740   -4.8490 C   0  0  0  0  0  0  0  0  0  0  0  0
    4.0830  -11.4970   -5.6570 C   0  0  0  0  0  0  0  0  0  0  0  0
    5.1770  -12.2490   -5.3740 N   0  0  0  0  0  0  0  0  0  0  0  0
    5.3310  -12.6510   -4.1020 C   0  0  0  0  0  0  0  0  0  0  0  0
    6.2740  -13.3350   -3.7030 O   0  0  0  0  0  0  0  0  0  0  0  0
    4.3060  -12.2560   -3.0780 C   0  0  0  0  0  0  0  0  0  0  0  0
    4.4550  -12.6640   -1.7520 C   0  0  0  0  0  0  0  0  0  0  0  0
    3.4990  -12.2880   -0.8100 C   0  0  0  0  0  0  0  0  0  0  0  0
    3.7210  -12.8060    0.8310 Cl  0  0  0  0  0  0  0  0  0  0  0  0
   -0.4370  -11.1810    1.3440 C   0  0  0  0  0  0  0  0  0  0  0  0
   -0.7590  -11.8040    2.5580 C   0  0  0  0  0  0  0  0  0  0  0  0
   -1.5140  -11.1200    3.5150 C   0  0  0  0  0  0  0  0  0  0  0  0
   -1.9400   -9.8150    3.2670 C   0  0  0  0  0  0  0  0  0  0  0  0
   -1.6060   -9.1850    2.0670 C   0  0  0  0  0  0  0  0  0  0  0  0
   -0.8520   -9.8640    1.1100 C   0  0  0  0  0  0  0  0  0  0  0  0
    1.6790  -10.2830    0.3130 H   0  0  0  0  0  0  0  0  0  0  0  0
    1.3832  -10.4866   -2.8038 H   0  0  0  0  0  0  0  0  0  0  0  0
    2.2594  -10.4627   -5.2183 H   0  0  0  0  0  0  0  0  0  0  0  0
    3.9902  -11.1864   -6.7082 H   0  0  0  0  0  0  0  0  0  0  0  0
    5.3185  -13.2764   -1.4530 H   0  0  0  0  0  0  0  0  0  0  0  0
   -0.4177  -12.8305    2.7573 H   0  0  0  0  0  0  0  0  0  0  0  0
   -1.7725  -11.6112    4.4647 H   0  0  0  0  0  0  0  0  0  0  0  0
   -2.5403   -9.2814    4.0186 H   0  0  0  0  0  0  0  0  0  0  0  0
   -1.9373   -8.1536    1.8762 H   0  0  0  0  0  0  0  0  0  0  0  0
   -0.5824   -9.3634    0.1683 H   0  0  0  0  0  0  0  0  0  0  0  0
  1  2  2  0
  2  3  1  0
  3  4  1  0
  4  5  2  0
  5  6  1  0
  6  7  1  0
  7  8  2  0
  8  9  1  0
  9 10  1  0
 10 11  2  0
 10 12  1  0
 12 13  1  0
 13 14  2  0
 14 15  1  0
  2 16  1  0
 16 17  2  0
 17 18  1  0
 18 19  2  0
 19 20  1  0
 20 21  2  0
 14  4  1  0
 21 16  1  0
 12  6  2  0
  3 22  1  0
  5 23  1  0
  7 24  1  0
  8 25  1  0
 13 26  1  0
 17 27  1  0
 18 28  1  0
 19 29  1  0
 20 30  1  0
 21 31  1  0
M  CHG  1   9  -1
M  END
>  <meeko>  (7) 
{"is_sidechain": [false], "free_energy": -6.605, "intermolecular_energy": -7.369, "internal_energy": -0.427}

$$$$
LIB_CGYVWNFDAWEANQ__M_PUB_ALL__e8__s20260927
     RDKit          3D

 31 33  0  0  0  0  0  0  0  0999 V2000
    2.2140  -10.0180   -2.8570 O   0  0  0  0  0  0  0  0  0  0  0  0
    2.3720  -11.2320   -2.8790 C   0  0  0  0  0  0  0  0  0  0  0  0
    1.9620  -12.1440   -1.9280 N   0  0  0  0  0  0  0  0  0  0  0  0
    1.1900  -11.9120   -0.7620 C   0  0  0  0  0  0  0  0  0  0  0  0
    0.7620  -10.6430   -0.3630 C   0  0  0  0  0  0  0  0  0  0  0  0
   -0.0090  -10.4930    0.8000 C   0  0  0  0  0  0  0  0  0  0  0  0
   -0.4740   -9.1880    1.2470 C   0  0  0  0  0  0  0  0  0  0  0  0
   -1.2060   -9.1840    2.3730 C   0  0  0  0  0  0  0  0  0  0  0  0
   -1.5840  -10.2150    3.1700 N   0  0  0  0  0  0  0  0  0  0  0  0
   -1.1830  -11.4450    2.8090 C   0  0  0  0  0  0  0  0  0  0  0  0
   -1.4530  -12.4710    3.4360 O   0  0  0  0  0  0  0  0  0  0  0  0
   -0.3550  -11.6130    1.5680 C   0  0  0  0  0  0  0  0  0  0  0  0
    0.0650  -12.8860    1.1790 C   0  0  0  0  0  0  0  0  0  0  0  0
    0.8300  -13.0290    0.0230 C   0  0  0  0  0  0  0  0  0  0  0  0
    1.3280  -14.6280   -0.4340 Cl  0  0  0  0  0  0  0  0  0  0  0  0
    3.1220  -11.8250   -4.0230 C   0  0  0  0  0  0  0  0  0  0  0  0
    3.4110  -13.1950   -4.0890 C   0  0  0  0  0  0  0  0  0  0  0  0
    4.1140  -13.7080   -5.1820 C   0  0  0  0  0  0  0  0  0  0  0  0
    4.5220  -12.8600   -6.2130 C   0  0  0  0  0  0  0  0  0  0  0  0
    4.2190  -11.4990   -6.1600 C   0  0  0  0  0  0  0  0  0  0  0  0
    3.5160  -10.9830   -5.0710 C   0  0  0  0  0  0  0  0  0  0  0  0
    2.2670  -13.1050   -2.0280 H   0  0  0  0  0  0  0  0  0  0  0  0
    1.0299   -9.7599   -0.9617 H   0  0  0  0  0  0  0  0  0  0  0  0
   -0.2407   -8.2640    0.6976 H   0  0  0  0  0  0  0  0  0  0  0  0
   -1.5524   -8.1923    2.6993 H   0  0  0  0  0  0  0  0  0  0  0  0
   -0.2052  -13.7675    1.7789 H   0  0  0  0  0  0  0  0  0  0  0  0
    3.0845  -13.8659   -3.2807 H   0  0  0  0  0  0  0  0  0  0  0  0
    4.3464  -14.7821   -5.2302 H   0  0  0  0  0  0  0  0  0  0  0  0
    5.0830  -13.2651   -7.0681 H   0  0  0  0  0  0  0  0  0  0  0  0
    4.5344  -10.8330   -6.9767 H   0  0  0  0  0  0  0  0  0  0  0  0
    3.2703   -9.9114   -5.0352 H   0  0  0  0  0  0  0  0  0  0  0  0
  1  2  2  0
  2  3  1  0
  3  4  1  0
  4  5  2  0
  5  6  1  0
  6  7  1  0
  7  8  2  0
  8  9  1  0
  9 10  1  0
 10 11  2  0
 10 12  1  0
 12 13  1  0
 13 14  2  0
 14 15  1  0
  2 16  1  0
 16 17  2  0
 17 18  1  0
 18 19  2  0
 19 20  1  0
 20 21  2  0
 14  4  1  0
 21 16  1  0
 12  6  2  0
  3 22  1  0
  5 23  1  0
  7 24  1  0
  8 25  1  0
 13 26  1  0
 17 27  1  0
 18 28  1  0
 19 29  1  0
 20 30  1  0
 21 31  1  0
M  CHG  1   9  -1
M  END
>  <meeko>  (8) 
{"is_sidechain": [false], "free_energy": -6.594, "intermolecular_energy": -7.756, "internal_energy": -0.026}

$$$$
LIB_CGYVWNFDAWEANQ__M_PUB_ALL__e8__s20260927
     RDKit          3D

 31 33  0  0  0  0  0  0  0  0999 V2000
   16.0810   -9.4990   13.8910 O   0  0  0  0  0  0  0  0  0  0  0  0
   15.6490   -8.9980   12.8610 C   0  0  0  0  0  0  0  0  0  0  0  0
   14.4060   -9.1930   12.2950 N   0  0  0  0  0  0  0  0  0  0  0  0
   13.3120   -9.9340   12.8080 C   0  0  0  0  0  0  0  0  0  0  0  0
   12.2540   -9.3540   13.5130 C   0  0  0  0  0  0  0  0  0  0  0  0
   11.2000  -10.1520   13.9830 C   0  0  0  0  0  0  0  0  0  0  0  0
   10.0810   -9.5850   14.7200 C   0  0  0  0  0  0  0  0  0  0  0  0
    9.1360  -10.4580   15.1100 C   0  0  0  0  0  0  0  0  0  0  0  0
    9.0610  -11.7990   14.9230 N   0  0  0  0  0  0  0  0  0  0  0  0
   10.0670  -12.3810   14.2500 C   0  0  0  0  0  0  0  0  0  0  0  0
   10.1290  -13.5870   14.0070 O   0  0  0  0  0  0  0  0  0  0  0  0
   11.2000  -11.5340   13.7480 C   0  0  0  0  0  0  0  0  0  0  0  0
   12.2500  -12.1250   13.0430 C   0  0  0  0  0  0  0  0  0  0  0  0
   13.2950  -11.3270   12.5790 C   0  0  0  0  0  0  0  0  0  0  0  0
   14.5800  -12.0950   11.7010 Cl  0  0  0  0  0  0  0  0  0  0  0  0
   16.5520   -8.1030   12.0810 C   0  0  0  0  0  0  0  0  0  0  0  0
   16.0730   -6.9640   11.4170 C   0  0  0  0  0  0  0  0  0  0  0  0
   16.9550   -6.1520   10.7000 C   0  0  0  0  0  0  0  0  0  0  0  0
   18.3130   -6.4670   10.6510 C   0  0  0  0  0  0  0  0  0  0  0  0
   18.7970   -7.5890   11.3250 C   0  0  0  0  0  0  0  0  0  0  0  0
   17.9190   -8.4020   12.0440 C   0  0  0  0  0  0  0  0  0  0  0  0
   14.2350   -8.7990   11.3770 H   0  0  0  0  0  0  0  0  0  0  0  0
   12.2475   -8.2700   13.6998 H   0  0  0  0  0  0  0  0  0  0  0  0
   10.0126   -8.5102   14.9439 H   0  0  0  0  0  0  0  0  0  0  0  0
    8.2952  -10.0172   15.6657 H   0  0  0  0  0  0  0  0  0  0  0  0
   12.2529  -13.2089   12.8555 H   0  0  0  0  0  0  0  0  0  0  0  0
   15.0035   -6.7104   11.4609 H   0  0  0  0  0  0  0  0  0  0  0  0
   16.5781   -5.2629   10.1733 H   0  0  0  0  0  0  0  0  0  0  0  0
   19.0039   -5.8296   10.0798 H   0  0  0  0  0  0  0  0  0  0  0  0
   19.8691   -7.8325   11.2898 H   0  0  0  0  0  0  0  0  0  0  0  0
   18.3027   -9.2806   12.5833 H   0  0  0  0  0  0  0  0  0  0  0  0
  1  2  2  0
  2  3  1  0
  3  4  1  0
  4  5  2  0
  5  6  1  0
  6  7  1  0
  7  8  2  0
  8  9  1  0
  9 10  1  0
 10 11  2  0
 10 12  1  0
 12 13  1  0
 13 14  2  0
 14 15  1  0
  2 16  1  0
 16 17  2  0
 17 18  1  0
 18 19  2  0
 19 20  1  0
 20 21  2  0
 14  4  1  0
 21 16  1  0
 12  6  2  0
  3 22  1  0
  5 23  1  0
  7 24  1  0
  8 25  1  0
 13 26  1  0
 17 27  1  0
 18 28  1  0
 19 29  1  0
 20 30  1  0
 21 31  1  0
M  CHG  1   9  -1
M  END
>  <meeko>  (9) 
{"is_sidechain": [false], "free_energy": -6.333, "intermolecular_energy": -7.081, "internal_energy": -0.41}

$$$$
