LIB_UHGSEJDZVOPSFT__M_PUB_ALL__e8__s20260927
     RDKit          3D

 45 48  0  0  0  0  0  0  0  0999 V2000
   17.8590   -7.5430   14.3710 C   0  0  0  0  0  0  0  0  0  0  0  0
   17.1990   -7.8920   13.0450 C   0  0  2  0  0  0  0  0  0  0  0  0
   18.1830   -8.4110   11.9980 C   0  0  0  0  0  0  0  0  0  0  0  0
   18.5270   -7.2000   11.1530 C   0  0  0  0  0  0  0  0  0  0  0  0
   17.2000   -6.4850   11.0400 C   0  0  0  0  0  0  0  0  0  0  0  0
   16.6190   -6.6100   12.4330 N   0  0  0  0  0  0  0  0  0  0  0  0
   15.1090   -6.5470   12.5030 C   0  0  0  0  0  0  0  0  0  0  0  0
   14.4700   -7.3600   11.3750 C   0  0  0  0  0  0  0  0  0  0  0  0
   13.8500   -8.6270   11.9070 C   0  0  0  0  0  0  0  0  0  0  0  0
   12.9180   -8.5770   12.9470 C   0  0  0  0  0  0  0  0  0  0  0  0
   12.3710   -9.7580   13.4590 C   0  0  0  0  0  0  0  0  0  0  0  0
   12.7250  -11.0040   12.9640 C   0  0  0  0  0  0  0  0  0  0  0  0
   12.1700  -12.1030   13.4990 N   0  0  0  0  0  0  0  0  0  0  0  0
   12.5180  -13.3190   13.0040 C   0  0  0  0  0  0  0  0  0  0  0  0
   11.8880  -14.5080   13.6110 C   0  0  0  0  0  0  0  0  0  0  0  0
   12.1580  -14.9580   14.8260 N   0  0  0  0  0  0  0  0  0  0  0  0
   11.4070  -16.0850   15.0980 C   0  0  0  0  0  0  0  0  0  0  0  0
   10.5640  -16.4930   14.0890 C   0  0  0  0  0  0  0  0  0  0  0  0
   10.7100  -15.4360   12.7520 S   0  0  0  0  0  0  0  0  0  0  0  0
   13.4310  -13.4620   11.9650 C   0  0  0  0  0  0  0  0  0  0  0  0
   14.0080  -12.3220   11.4150 C   0  0  0  0  0  0  0  0  0  0  0  0
   13.6610  -11.0600   11.9130 C   0  0  0  0  0  0  0  0  0  0  0  0
   14.2180   -9.8760   11.3930 C   0  0  0  0  0  0  0  0  0  0  0  0
   17.2191   -7.8813   15.1993 H   0  0  0  0  0  0  0  0  0  0  0  0
   18.8373   -8.0417   14.4361 H   0  0  0  0  0  0  0  0  0  0  0  0
   17.9976   -6.4537   14.4361 H   0  0  0  0  0  0  0  0  0  0  0  0
   16.4516   -8.6664   13.2723 H   0  0  0  0  0  0  0  0  0  0  0  0
   19.0850   -8.8149   12.4810 H   0  0  0  0  0  0  0  0  0  0  0  0
   17.7564   -9.2278   11.3973 H   0  0  0  0  0  0  0  0  0  0  0  0
   19.2766   -6.5683   11.6520 H   0  0  0  0  0  0  0  0  0  0  0  0
   18.9675   -7.4587   10.1788 H   0  0  0  0  0  0  0  0  0  0  0  0
   17.3430   -5.4294   10.7656 H   0  0  0  0  0  0  0  0  0  0  0  0
   16.5477   -6.9073   10.2614 H   0  0  0  0  0  0  0  0  0  0  0  0
   16.9850   -5.8170   12.9780 H   0  0  0  0  0  0  0  0  0  0  0  0
   14.7771   -6.9523   13.4703 H   0  0  0  0  0  0  0  0  0  0  0  0
   14.7981   -5.4973   12.3960 H   0  0  0  0  0  0  0  0  0  0  0  0
   13.6902   -6.7533   10.8914 H   0  0  0  0  0  0  0  0  0  0  0  0
   15.2525   -7.6299   10.6506 H   0  0  0  0  0  0  0  0  0  0  0  0
   12.6136   -7.6058   13.3643 H   0  0  0  0  0  0  0  0  0  0  0  0
   11.6390   -9.6967   14.2778 H   0  0  0  0  0  0  0  0  0  0  0  0
   11.4778  -16.6204   16.0563 H   0  0  0  0  0  0  0  0  0  0  0  0
    9.8973  -17.3667   14.1355 H   0  0  0  0  0  0  0  0  0  0  0  0
   13.6927  -14.4603   11.5842 H   0  0  0  0  0  0  0  0  0  0  0  0
   14.7333  -12.4114   10.5929 H   0  0  0  0  0  0  0  0  0  0  0  0
   14.9502   -9.9331   10.5741 H   0  0  0  0  0  0  0  0  0  0  0  0
  1  2  1  0
  2  3  1  0
  3  4  1  0
  4  5  1  0
  5  6  1  0
  6  7  1  0
  7  8  1  0
  8  9  1  0
  9 10  2  0
 10 11  1  0
 11 12  2  0
 12 13  1  0
 13 14  2  0
 14 15  1  0
 15 16  2  0
 16 17  1  0
 17 18  2  0
 18 19  1  0
 14 20  1  0
 20 21  2  0
 21 22  1  0
 22 23  2  0
  6  2  1  0
 23  9  1  0
 22 12  1  0
 19 15  1  0
  1 24  1  0
  1 25  1  0
  1 26  1  0
  2 27  1  1
  3 28  1  0
  3 29  1  0
  4 30  1  0
  4 31  1  0
  5 32  1  0
  5 33  1  0
  6 34  1  0
  7 35  1  0
  7 36  1  0
  8 37  1  0
  8 38  1  0
 10 39  1  0
 11 40  1  0
 17 41  1  0
 18 42  1  0
 20 43  1  0
 21 44  1  0
 23 45  1  0
M  CHG  1   6   1
M  END
>  <meeko>  (1) 
{"is_sidechain": [false], "free_energy": -7.12, "intermolecular_energy": -8.785, "internal_energy": -0.759}

$$$$
LIB_UHGSEJDZVOPSFT__M_PUB_ALL__e8__s20260927
     RDKit          3D

 45 48  0  0  0  0  0  0  0  0999 V2000
   10.2480  -13.3440   14.3510 C   0  0  0  0  0  0  0  0  0  0  0  0
   10.7320  -12.9550   12.9610 C   0  0  2  0  0  0  0  0  0  0  0  0
   10.3050  -13.9410   11.8750 C   0  0  0  0  0  0  0  0  0  0  0  0
   11.4970  -14.8600   11.6930 C   0  0  0  0  0  0  0  0  0  0  0  0
   12.6680  -13.9120   11.8070 C   0  0  0  0  0  0  0  0  0  0  0  0
   12.2650  -12.9970   12.9450 N   0  0  0  0  0  0  0  0  0  0  0  0
   12.8990  -11.6240   12.9150 C   0  0  0  0  0  0  0  0  0  0  0  0
   13.8700  -11.4890   11.7390 C   0  0  0  0  0  0  0  0  0  0  0  0
   14.7820  -10.3040   11.9260 C   0  0  0  0  0  0  0  0  0  0  0  0
   16.0350  -10.4600   12.5250 C   0  0  0  0  0  0  0  0  0  0  0  0
   16.8630   -9.3510   12.7250 C   0  0  0  0  0  0  0  0  0  0  0  0
   16.4810   -8.0740   12.3440 C   0  0  0  0  0  0  0  0  0  0  0  0
   17.3170   -7.0480   12.5660 N   0  0  0  0  0  0  0  0  0  0  0  0
   16.9370   -5.8010   12.1840 C   0  0  0  0  0  0  0  0  0  0  0  0
   17.8790   -4.6930   12.4400 C   0  0  0  0  0  0  0  0  0  0  0  0
   17.5800   -3.6010   13.1250 N   0  0  0  0  0  0  0  0  0  0  0  0
   18.6720   -2.7580   13.1850 C   0  0  0  0  0  0  0  0  0  0  0  0
   19.8050   -3.2090   12.5460 C   0  0  0  0  0  0  0  0  0  0  0  0
   19.5010   -4.7400   11.8450 S   0  0  0  0  0  0  0  0  0  0  0  0
   15.7120   -5.5530   11.5750 C   0  0  0  0  0  0  0  0  0  0  0  0
   14.8460   -6.6180   11.3500 C   0  0  0  0  0  0  0  0  0  0  0  0
   15.2210   -7.9100   11.7370 C   0  0  0  0  0  0  0  0  0  0  0  0
   14.3800   -9.0210   11.5330 C   0  0  0  0  0  0  0  0  0  0  0  0
   10.8695  -12.8445   15.1088 H   0  0  0  0  0  0  0  0  0  0  0  0
    9.1997  -13.0342   14.4743 H   0  0  0  0  0  0  0  0  0  0  0  0
   10.3250  -14.4344   14.4743 H   0  0  0  0  0  0  0  0  0  0  0  0
   10.3024  -11.9633   12.7562 H   0  0  0  0  0  0  0  0  0  0  0  0
    9.4214  -14.5120   12.1962 H   0  0  0  0  0  0  0  0  0  0  0  0
   10.0270  -13.4327   10.9399 H   0  0  0  0  0  0  0  0  0  0  0  0
   11.5299  -15.6275   12.4803 H   0  0  0  0  0  0  0  0  0  0  0  0
   11.4775  -15.4175   10.7449 H   0  0  0  0  0  0  0  0  0  0  0  0
   13.5935  -14.4558   12.0473 H   0  0  0  0  0  0  0  0  0  0  0  0
   12.8767  -13.3708   10.8724 H   0  0  0  0  0  0  0  0  0  0  0  0
   12.5700  -13.4560   13.8150 H   0  0  0  0  0  0  0  0  0  0  0  0
   12.1083  -10.8656   12.8165 H   0  0  0  0  0  0  0  0  0  0  0  0
   13.4609  -11.4789   13.8495 H   0  0  0  0  0  0  0  0  0  0  0  0
   14.4777  -12.4031   11.6674 H   0  0  0  0  0  0  0  0  0  0  0  0
   13.2871  -11.3411   10.8180 H   0  0  0  0  0  0  0  0  0  0  0  0
   16.3711  -11.4588   12.8403 H   0  0  0  0  0  0  0  0  0  0  0  0
   17.8454   -9.4960   13.1981 H   0  0  0  0  0  0  0  0  0  0  0  0
   18.6389   -1.7910   13.7082 H   0  0  0  0  0  0  0  0  0  0  0  0
   20.7609   -2.6672   12.4940 H   0  0  0  0  0  0  0  0  0  0  0  0
   15.4324   -4.5320   11.2762 H   0  0  0  0  0  0  0  0  0  0  0  0
   13.8712   -6.4458   10.8703 H   0  0  0  0  0  0  0  0  0  0  0  0
   13.3970   -8.8798   11.0600 H   0  0  0  0  0  0  0  0  0  0  0  0
  1  2  1  0
  2  3  1  0
  3  4  1  0
  4  5  1  0
  5  6  1  0
  6  7  1  0
  7  8  1  0
  8  9  1  0
  9 10  2  0
 10 11  1  0
 11 12  2  0
 12 13  1  0
 13 14  2  0
 14 15  1  0
 15 16  2  0
 16 17  1  0
 17 18  2  0
 18 19  1  0
 14 20  1  0
 20 21  2  0
 21 22  1  0
 22 23  2  0
  6  2  1  0
 23  9  1  0
 22 12  1  0
 19 15  1  0
  1 24  1  0
  1 25  1  0
  1 26  1  0
  2 27  1  6
  3 28  1  0
  3 29  1  0
  4 30  1  0
  4 31  1  0
  5 32  1  0
  5 33  1  0
  6 34  1  0
  7 35  1  0
  7 36  1  0
  8 37  1  0
  8 38  1  0
 10 39  1  0
 11 40  1  0
 17 41  1  0
 18 42  1  0
 20 43  1  0
 21 44  1  0
 23 45  1  0
M  CHG  1   6   1
M  END
>  <meeko>  (2) 
{"is_sidechain": [false], "free_energy": -7.054, "intermolecular_energy": -9.018, "internal_energy": -0.444}

$$$$
LIB_UHGSEJDZVOPSFT__M_PUB_ALL__e8__s20260927
     RDKit          3D

 45 48  0  0  0  0  0  0  0  0999 V2000
    8.0340  -15.5530  -10.1690 C   0  0  0  0  0  0  0  0  0  0  0  0
    6.9420  -14.5000  -10.0460 C   0  0  2  0  0  0  0  0  0  0  0  0
    6.7030  -13.7240  -11.3400 C   0  0  0  0  0  0  0  0  0  0  0  0
    7.5140  -12.4520  -11.1870 C   0  0  0  0  0  0  0  0  0  0  0  0
    7.3070  -12.0990   -9.7320 C   0  0  0  0  0  0  0  0  0  0  0  0
    7.3930  -13.4400   -9.0330 N   0  0  0  0  0  0  0  0  0  0  0  0
    6.6540  -13.5220   -7.7160 C   0  0  0  0  0  0  0  0  0  0  0  0
    5.5470  -12.4670   -7.6380 C   0  0  0  0  0  0  0  0  0  0  0  0
    4.8200  -12.5470   -6.3200 C   0  0  0  0  0  0  0  0  0  0  0  0
    4.7290  -13.7590   -5.6310 C   0  0  0  0  0  0  0  0  0  0  0  0
    4.0250  -13.8330   -4.4250 C   0  0  0  0  0  0  0  0  0  0  0  0
    3.3990  -12.7260   -3.8730 C   0  0  0  0  0  0  0  0  0  0  0  0
    2.7340  -12.8590   -2.7150 N   0  0  0  0  0  0  0  0  0  0  0  0
    2.1280  -11.7680   -2.1800 C   0  0  0  0  0  0  0  0  0  0  0  0
    1.4060  -11.9460   -0.9040 C   0  0  0  0  0  0  0  0  0  0  0  0
    1.2700  -13.1040   -0.2780 N   0  0  0  0  0  0  0  0  0  0  0  0
    0.5430  -12.9370    0.8850 C   0  0  0  0  0  0  0  0  0  0  0  0
    0.1270  -11.6510    1.1450 C   0  0  0  0  0  0  0  0  0  0  0  0
    0.6590  -10.6090   -0.1030 S   0  0  0  0  0  0  0  0  0  0  0  0
    2.1720  -10.5200   -2.7920 C   0  0  0  0  0  0  0  0  0  0  0  0
    2.8590  -10.3860   -3.9950 C   0  0  0  0  0  0  0  0  0  0  0  0
    3.4890  -11.5000   -4.5610 C   0  0  0  0  0  0  0  0  0  0  0  0
    4.1940  -11.4170   -5.7770 C   0  0  0  0  0  0  0  0  0  0  0  0
    8.3574  -15.8649   -9.1649 H   0  0  0  0  0  0  0  0  0  0  0  0
    7.6435  -16.4241  -10.7155 H   0  0  0  0  0  0  0  0  0  0  0  0
    8.8903  -15.1311  -10.7155 H   0  0  0  0  0  0  0  0  0  0  0  0
    6.0284  -15.0418   -9.7602 H   0  0  0  0  0  0  0  0  0  0  0  0
    7.0509  -14.3028  -12.2083 H   0  0  0  0  0  0  0  0  0  0  0  0
    5.6358  -13.5172  -11.5080 H   0  0  0  0  0  0  0  0  0  0  0  0
    8.5774  -12.6310  -11.4043 H   0  0  0  0  0  0  0  0  0  0  0  0
    7.2072  -11.6530  -11.8780 H   0  0  0  0  0  0  0  0  0  0  0  0
    8.0938  -11.4177   -9.3759 H   0  0  0  0  0  0  0  0  0  0  0  0
    6.3568  -11.5768   -9.5465 H   0  0  0  0  0  0  0  0  0  0  0  0
    8.3900  -13.6070   -8.8370 H   0  0  0  0  0  0  0  0  0  0  0  0
    6.2052  -14.5215   -7.6176 H   0  0  0  0  0  0  0  0  0  0  0  0
    7.3701  -13.3376   -6.9017 H   0  0  0  0  0  0  0  0  0  0  0  0
    5.9940  -11.4674   -7.7427 H   0  0  0  0  0  0  0  0  0  0  0  0
    4.8269  -12.6525   -8.4486 H   0  0  0  0  0  0  0  0  0  0  0  0
    5.2131  -14.6586   -6.0388 H   0  0  0  0  0  0  0  0  0  0  0  0
    3.9662  -14.7974   -3.8991 H   0  0  0  0  0  0  0  0  0  0  0  0
    0.3121  -13.7758    1.5582 H   0  0  0  0  0  0  0  0  0  0  0  0
   -0.4589  -11.3403    2.0226 H   0  0  0  0  0  0  0  0  0  0  0  0
    1.6726   -9.6539   -2.3333 H   0  0  0  0  0  0  0  0  0  0  0  0
    2.9065   -9.4091   -4.4984 H   0  0  0  0  0  0  0  0  0  0  0  0
    4.2540  -10.4547   -6.3065 H   0  0  0  0  0  0  0  0  0  0  0  0
  1  2  1  0
  2  3  1  0
  3  4  1  0
  4  5  1  0
  5  6  1  0
  6  7  1  0
  7  8  1  0
  8  9  1  0
  9 10  2  0
 10 11  1  0
 11 12  2  0
 12 13  1  0
 13 14  2  0
 14 15  1  0
 15 16  2  0
 16 17  1  0
 17 18  2  0
 18 19  1  0
 14 20  1  0
 20 21  2  0
 21 22  1  0
 22 23  2  0
  6  2  1  0
 23  9  1  0
 22 12  1  0
 19 15  1  0
  1 24  1  0
  1 25  1  0
  1 26  1  0
  2 27  1  1
  3 28  1  0
  3 29  1  0
  4 30  1  0
  4 31  1  0
  5 32  1  0
  5 33  1  0
  6 34  1  0
  7 35  1  0
  7 36  1  0
  8 37  1  0
  8 38  1  0
 10 39  1  0
 11 40  1  0
 17 41  1  0
 18 42  1  0
 20 43  1  0
 21 44  1  0
 23 45  1  0
M  CHG  1   6   1
M  END
>  <meeko>  (3) 
{"is_sidechain": [false], "free_energy": -6.838, "intermolecular_energy": -8.702, "internal_energy": -0.493}

$$$$
LIB_UHGSEJDZVOPSFT__M_PUB_ALL__e8__s20260927
     RDKit          3D

 45 48  0  0  0  0  0  0  0  0999 V2000
   -1.5450   -8.8900    2.9130 C   0  0  0  0  0  0  0  0  0  0  0  0
   -1.4430   -9.6700    1.6110 C   0  0  2  0  0  0  0  0  0  0  0  0
   -2.6730  -10.5290    1.3220 C   0  0  0  0  0  0  0  0  0  0  0  0
   -2.3060  -11.9140    1.8200 C   0  0  0  0  0  0  0  0  0  0  0  0
   -0.8560  -12.0400    1.4130 C   0  0  0  0  0  0  0  0  0  0  0  0
   -0.2870  -10.6720    1.7280 N   0  0  0  0  0  0  0  0  0  0  0  0
    0.9250  -10.2810    0.9120 C   0  0  0  0  0  0  0  0  0  0  0  0
    0.5620  -10.0970   -0.5630 C   0  0  0  0  0  0  0  0  0  0  0  0
    1.4580  -10.9260   -1.4470 C   0  0  0  0  0  0  0  0  0  0  0  0
    1.8800  -12.1950   -1.0390 C   0  0  0  0  0  0  0  0  0  0  0  0
    2.7380  -12.9450   -1.8490 C   0  0  0  0  0  0  0  0  0  0  0  0
    3.1970  -12.4700   -3.0680 C   0  0  0  0  0  0  0  0  0  0  0  0
    4.0230  -13.2350   -3.7990 N   0  0  0  0  0  0  0  0  0  0  0  0
    4.4640  -12.7630   -4.9950 C   0  0  0  0  0  0  0  0  0  0  0  0
    5.3690  -13.6280   -5.7770 C   0  0  0  0  0  0  0  0  0  0  0  0
    5.9370  -13.2750   -6.9190 N   0  0  0  0  0  0  0  0  0  0  0  0
    6.7240  -14.3040   -7.4010 C   0  0  0  0  0  0  0  0  0  0  0  0
    6.7560  -15.4400   -6.6240 C   0  0  0  0  0  0  0  0  0  0  0  0
    5.7710  -15.2210   -5.2420 S   0  0  0  0  0  0  0  0  0  0  0  0
    4.0900  -11.5160   -5.4830 C   0  0  0  0  0  0  0  0  0  0  0  0
    3.2360  -10.7240   -4.7210 C   0  0  0  0  0  0  0  0  0  0  0  0
    2.7730  -11.1940   -3.4860 C   0  0  0  0  0  0  0  0  0  0  0  0
    1.9110  -10.4300   -2.6760 C   0  0  0  0  0  0  0  0  0  0  0  0
   -1.4545   -9.5822    3.7631 H   0  0  0  0  0  0  0  0  0  0  0  0
   -0.7366   -8.1454    2.9587 H   0  0  0  0  0  0  0  0  0  0  0  0
   -2.5177   -8.3784    2.9587 H   0  0  0  0  0  0  0  0  0  0  0  0
   -1.3162   -8.9193    0.8170 H   0  0  0  0  0  0  0  0  0  0  0  0
   -3.5503  -10.1432    1.8619 H   0  0  0  0  0  0  0  0  0  0  0  0
   -2.9372  -10.5289    0.2542 H   0  0  0  0  0  0  0  0  0  0  0  0
   -2.4192  -11.9858    2.9118 H   0  0  0  0  0  0  0  0  0  0  0  0
   -2.9454  -12.7092    1.4091 H   0  0  0  0  0  0  0  0  0  0  0  0
   -0.3490  -12.8220    1.9973 H   0  0  0  0  0  0  0  0  0  0  0  0
   -0.7276  -12.3280    0.3592 H   0  0  0  0  0  0  0  0  0  0  0  0
    0.0020  -10.6930    2.7160 H   0  0  0  0  0  0  0  0  0  0  0  0
    1.3309   -9.3361    1.3023 H   0  0  0  0  0  0  0  0  0  0  0  0
    1.6718  -11.0849    0.9897 H   0  0  0  0  0  0  0  0  0  0  0  0
   -0.4822  -10.4064   -0.7178 H   0  0  0  0  0  0  0  0  0  0  0  0
    0.6929   -9.0371   -0.8266 H   0  0  0  0  0  0  0  0  0  0  0  0
    1.5359  -12.6045   -0.0778 H   0  0  0  0  0  0  0  0  0  0  0  0
    3.0582  -13.9410   -1.5092 H   0  0  0  0  0  0  0  0  0  0  0  0
    7.2870  -14.2208   -8.3423 H   0  0  0  0  0  0  0  0  0  0  0  0
    7.3280  -16.3504   -6.8563 H   0  0  0  0  0  0  0  0  0  0  0  0
    4.4628  -11.1612   -6.4552 H   0  0  0  0  0  0  0  0  0  0  0  0
    2.9264   -9.7340   -5.0871 H   0  0  0  0  0  0  0  0  0  0  0  0
    1.5900   -9.4330   -3.0121 H   0  0  0  0  0  0  0  0  0  0  0  0
  1  2  1  0
  2  3  1  0
  3  4  1  0
  4  5  1  0
  5  6  1  0
  6  7  1  0
  7  8  1  0
  8  9  1  0
  9 10  2  0
 10 11  1  0
 11 12  2  0
 12 13  1  0
 13 14  2  0
 14 15  1  0
 15 16  2  0
 16 17  1  0
 17 18  2  0
 18 19  1  0
 14 20  1  0
 20 21  2  0
 21 22  1  0
 22 23  2  0
  6  2  1  0
 23  9  1  0
 22 12  1  0
 19 15  1  0
  1 24  1  0
  1 25  1  0
  1 26  1  0
  2 27  1  6
  3 28  1  0
  3 29  1  0
  4 30  1  0
  4 31  1  0
  5 32  1  0
  5 33  1  0
  6 34  1  0
  7 35  1  0
  7 36  1  0
  8 37  1  0
  8 38  1  0
 10 39  1  0
 11 40  1  0
 17 41  1  0
 18 42  1  0
 20 43  1  0
 21 44  1  0
 23 45  1  0
M  CHG  1   6   1
M  END
>  <meeko>  (4) 
{"is_sidechain": [false], "free_energy": -6.792, "intermolecular_energy": -8.513, "internal_energy": -0.626}

$$$$
LIB_UHGSEJDZVOPSFT__M_PUB_ALL__e8__s20260927
     RDKit          3D

 45 48  0  0  0  0  0  0  0  0999 V2000
   13.9180  -12.9860   11.2660 C   0  0  0  0  0  0  0  0  0  0  0  0
   13.0500  -13.4340   12.4330 C   0  0  2  0  0  0  0  0  0  0  0  0
   12.2860  -14.7280   12.1560 C   0  0  0  0  0  0  0  0  0  0  0  0
   10.9090  -14.2780   11.7080 C   0  0  0  0  0  0  0  0  0  0  0  0
   10.6300  -13.1040   12.6180 C   0  0  0  0  0  0  0  0  0  0  0  0
   11.9600  -12.3810   12.6680 N   0  0  0  0  0  0  0  0  0  0  0  0
   12.1900  -11.5530   13.9130 C   0  0  0  0  0  0  0  0  0  0  0  0
   11.9400  -10.0680   13.6420 C   0  0  0  0  0  0  0  0  0  0  0  0
   13.1950   -9.3890   13.1560 C   0  0  0  0  0  0  0  0  0  0  0  0
   13.1210   -8.2090   12.4120 C   0  0  0  0  0  0  0  0  0  0  0  0
   14.2880   -7.6030   11.9360 C   0  0  0  0  0  0  0  0  0  0  0  0
   15.5440   -8.1380   12.1790 C   0  0  0  0  0  0  0  0  0  0  0  0
   16.6270   -7.5130   11.6930 N   0  0  0  0  0  0  0  0  0  0  0  0
   17.8530   -8.0410   11.9410 C   0  0  0  0  0  0  0  0  0  0  0  0
   19.0260   -7.3300   11.3950 C   0  0  0  0  0  0  0  0  0  0  0  0
   19.4720   -7.4650   10.1560 N   0  0  0  0  0  0  0  0  0  0  0  0
   20.5820   -6.6680    9.9560 C   0  0  0  0  0  0  0  0  0  0  0  0
   20.9820   -5.9240   11.0430 C   0  0  0  0  0  0  0  0  0  0  0  0
   19.9370   -6.2260   12.3650 S   0  0  0  0  0  0  0  0  0  0  0  0
   18.0220   -9.2080   12.6790 C   0  0  0  0  0  0  0  0  0  0  0  0
   16.8970   -9.8560   13.1790 C   0  0  0  0  0  0  0  0  0  0  0  0
   15.6250   -9.3250   12.9320 C   0  0  0  0  0  0  0  0  0  0  0  0
   14.4550   -9.9440   13.4140 C   0  0  0  0  0  0  0  0  0  0  0  0
   14.8338  -12.5133   11.6505 H   0  0  0  0  0  0  0  0  0  0  0  0
   14.1857  -13.8585   10.6520 H   0  0  0  0  0  0  0  0  0  0  0  0
   13.3619  -12.2623   10.6520 H   0  0  0  0  0  0  0  0  0  0  0  0
   13.7342  -13.5773   13.2823 H   0  0  0  0  0  0  0  0  0  0  0  0
   12.7810  -15.3078   11.3630 H   0  0  0  0  0  0  0  0  0  0  0  0
   12.2417  -15.3808   13.0402 H   0  0  0  0  0  0  0  0  0  0  0  0
   10.9169  -13.9685   10.6525 H   0  0  0  0  0  0  0  0  0  0  0  0
   10.1487  -15.0703   11.7725 H   0  0  0  0  0  0  0  0  0  0  0  0
    9.8452  -12.4575   12.1984 H   0  0  0  0  0  0  0  0  0  0  0  0
   10.2652  -13.4052   13.6111 H   0  0  0  0  0  0  0  0  0  0  0  0
   11.9770  -11.7370   11.8640 H   0  0  0  0  0  0  0  0  0  0  0  0
   11.5047  -11.8942   14.7029 H   0  0  0  0  0  0  0  0  0  0  0  0
   13.2365  -11.6790   14.2275 H   0  0  0  0  0  0  0  0  0  0  0  0
   11.1574   -9.9690   12.8753 H   0  0  0  0  0  0  0  0  0  0  0  0
   11.6231   -9.5890   14.5801 H   0  0  0  0  0  0  0  0  0  0  0  0
   12.1417   -7.7551   12.1999 H   0  0  0  0  0  0  0  0  0  0  0  0
   14.2072   -6.6746   11.3516 H   0  0  0  0  0  0  0  0  0  0  0  0
   21.1112   -6.6302    8.9924 H   0  0  0  0  0  0  0  0  0  0  0  0
   21.8427   -5.2392   11.0596 H   0  0  0  0  0  0  0  0  0  0  0  0
   19.0283   -9.6117   12.8642 H   0  0  0  0  0  0  0  0  0  0  0  0
   17.0061  -10.7804   13.7651 H   0  0  0  0  0  0  0  0  0  0  0  0
   14.5316  -10.8725   13.9988 H   0  0  0  0  0  0  0  0  0  0  0  0
  1  2  1  0
  2  3  1  0
  3  4  1  0
  4  5  1  0
  5  6  1  0
  6  7  1  0
  7  8  1  0
  8  9  1  0
  9 10  2  0
 10 11  1  0
 11 12  2  0
 12 13  1  0
 13 14  2  0
 14 15  1  0
 15 16  2  0
 16 17  1  0
 17 18  2  0
 18 19  1  0
 14 20  1  0
 20 21  2  0
 21 22  1  0
 22 23  2  0
  6  2  1  0
 23  9  1  0
 22 12  1  0
 19 15  1  0
  1 24  1  0
  1 25  1  0
  1 26  1  0
  2 27  1  1
  3 28  1  0
  3 29  1  0
  4 30  1  0
  4 31  1  0
  5 32  1  0
  5 33  1  0
  6 34  1  0
  7 35  1  0
  7 36  1  0
  8 37  1  0
  8 38  1  0
 10 39  1  0
 11 40  1  0
 17 41  1  0
 18 42  1  0
 20 43  1  0
 21 44  1  0
 23 45  1  0
M  CHG  1   6   1
M  END
>  <meeko>  (5) 
{"is_sidechain": [false], "free_energy": -6.628, "intermolecular_energy": -8.208, "internal_energy": -0.729}

$$$$
LIB_UHGSEJDZVOPSFT__M_PUB_ALL__e8__s20260927
     RDKit          3D

 45 48  0  0  0  0  0  0  0  0999 V2000
   10.8170  -14.2330   11.8410 C   0  0  0  0  0  0  0  0  0  0  0  0
   12.2010  -14.6860   11.4010 C   0  0  2  0  0  0  0  0  0  0  0  0
   12.3860  -16.2020   11.4540 C   0  0  0  0  0  0  0  0  0  0  0  0
   13.0630  -16.4650   12.7850 C   0  0  0  0  0  0  0  0  0  0  0  0
   14.0360  -15.3140   12.8960 C   0  0  0  0  0  0  0  0  0  0  0  0
   13.2360  -14.1330   12.3890 N   0  0  0  0  0  0  0  0  0  0  0  0
   14.0620  -13.0020   11.8160 C   0  0  0  0  0  0  0  0  0  0  0  0
   13.2610  -11.6980   11.7780 C   0  0  0  0  0  0  0  0  0  0  0  0
   14.1720  -10.5020   11.8770 C   0  0  0  0  0  0  0  0  0  0  0  0
   13.7580   -9.2530   11.4070 C   0  0  0  0  0  0  0  0  0  0  0  0
   14.6210   -8.1540   11.4730 C   0  0  0  0  0  0  0  0  0  0  0  0
   15.9000   -8.2580   11.9990 C   0  0  0  0  0  0  0  0  0  0  0  0
   16.6840   -7.1690   12.0310 N   0  0  0  0  0  0  0  0  0  0  0  0
   17.9330   -7.2780   12.5530 C   0  0  0  0  0  0  0  0  0  0  0  0
   18.7710   -6.0620   12.5770 C   0  0  0  0  0  0  0  0  0  0  0  0
   18.3650   -4.8680   12.1780 N   0  0  0  0  0  0  0  0  0  0  0  0
   19.3810   -3.9430   12.3250 C   0  0  0  0  0  0  0  0  0  0  0  0
   20.5610   -4.4340   12.8370 C   0  0  0  0  0  0  0  0  0  0  0  0
   20.4010   -6.1090   13.1490 S   0  0  0  0  0  0  0  0  0  0  0  0
   18.4260   -8.4790   13.0510 C   0  0  0  0  0  0  0  0  0  0  0  0
   17.6120   -9.6070   13.0120 C   0  0  0  0  0  0  0  0  0  0  0  0
   16.3220   -9.5130   12.4780 C   0  0  0  0  0  0  0  0  0  0  0  0
   15.4600  -10.6250   12.4130 C   0  0  0  0  0  0  0  0  0  0  0  0
   10.7685  -14.2171   12.9398 H   0  0  0  0  0  0  0  0  0  0  0  0
   10.6203  -13.2236   11.4507 H   0  0  0  0  0  0  0  0  0  0  0  0
   10.0615  -14.9307   11.4507 H   0  0  0  0  0  0  0  0  0  0  0  0
   12.3227  -14.3296   10.3675 H   0  0  0  0  0  0  0  0  0  0  0  0
   11.4129  -16.7127   11.4070 H   0  0  0  0  0  0  0  0  0  0  0  0
   12.9782  -16.5772   10.6064 H   0  0  0  0  0  0  0  0  0  0  0  0
   12.3354  -16.4503   13.6099 H   0  0  0  0  0  0  0  0  0  0  0  0
   13.5458  -17.4517   12.8417 H   0  0  0  0  0  0  0  0  0  0  0  0
   14.3474  -15.1603   13.9397 H   0  0  0  0  0  0  0  0  0  0  0  0
   14.9653  -15.4793   12.3311 H   0  0  0  0  0  0  0  0  0  0  0  0
   12.7200  -13.7570   13.1970 H   0  0  0  0  0  0  0  0  0  0  0  0
   14.9551  -12.8568   12.4416 H   0  0  0  0  0  0  0  0  0  0  0  0
   14.3488  -13.2656   10.7873 H   0  0  0  0  0  0  0  0  0  0  0  0
   12.7016  -11.6468   10.8323 H   0  0  0  0  0  0  0  0  0  0  0  0
   12.5712  -11.6852   12.6348 H   0  0  0  0  0  0  0  0  0  0  0  0
   12.7498   -9.1335   10.9836 H   0  0  0  0  0  0  0  0  0  0  0  0
   14.2754   -7.1797   11.0970 H   0  0  0  0  0  0  0  0  0  0  0  0
   19.2554   -2.8850   12.0512 H   0  0  0  0  0  0  0  0  0  0  0  0
   21.4688   -3.8398   13.0180 H   0  0  0  0  0  0  0  0  0  0  0  0
   19.4420   -8.5365   13.4686 H   0  0  0  0  0  0  0  0  0  0  0  0
   17.9810  -10.5682   13.3992 H   0  0  0  0  0  0  0  0  0  0  0  0
   15.8023  -11.6010   12.7874 H   0  0  0  0  0  0  0  0  0  0  0  0
  1  2  1  0
  2  3  1  0
  3  4  1  0
  4  5  1  0
  5  6  1  0
  6  7  1  0
  7  8  1  0
  8  9  1  0
  9 10  2  0
 10 11  1  0
 11 12  2  0
 12 13  1  0
 13 14  2  0
 14 15  1  0
 15 16  2  0
 16 17  1  0
 17 18  2  0
 18 19  1  0
 14 20  1  0
 20 21  2  0
 21 22  1  0
 22 23  2  0
  6  2  1  0
 23  9  1  0
 22 12  1  0
 19 15  1  0
  1 24  1  0
  1 25  1  0
  1 26  1  0
  2 27  1  6
  3 28  1  0
  3 29  1  0
  4 30  1  0
  4 31  1  0
  5 32  1  0
  5 33  1  0
  6 34  1  0
  7 35  1  0
  7 36  1  0
  8 37  1  0
  8 38  1  0
 10 39  1  0
 11 40  1  0
 17 41  1  0
 18 42  1  0
 20 43  1  0
 21 44  1  0
 23 45  1  0
M  CHG  1   6   1
M  END
>  <meeko>  (6) 
{"is_sidechain": [false], "free_energy": -6.613, "intermolecular_energy": -8.519, "internal_energy": -0.399}

$$$$
LIB_UHGSEJDZVOPSFT__M_PUB_ALL__e8__s20260927
     RDKit          3D

 45 48  0  0  0  0  0  0  0  0999 V2000
   15.9560   -4.1080   12.8570 C   0  0  0  0  0  0  0  0  0  0  0  0
   15.3960   -5.4760   13.2180 C   0  0  2  0  0  0  0  0  0  0  0  0
   15.1380   -5.6480   14.7140 C   0  0  0  0  0  0  0  0  0  0  0  0
   16.3700   -6.3580   15.2410 C   0  0  0  0  0  0  0  0  0  0  0  0
   16.6820   -7.3450   14.1400 C   0  0  0  0  0  0  0  0  0  0  0  0
   16.4440   -6.5420   12.8780 N   0  0  0  0  0  0  0  0  0  0  0  0
   16.0870   -7.3620   11.6580 C   0  0  0  0  0  0  0  0  0  0  0  0
   14.5780   -7.3420   11.4020 C   0  0  0  0  0  0  0  0  0  0  0  0
   13.9190   -8.5760   11.9630 C   0  0  0  0  0  0  0  0  0  0  0  0
   13.0220   -8.4800   13.0300 C   0  0  0  0  0  0  0  0  0  0  0  0
   12.4390   -9.6330   13.5660 C   0  0  0  0  0  0  0  0  0  0  0  0
   12.7230  -10.8960   13.0700 C   0  0  0  0  0  0  0  0  0  0  0  0
   12.1360  -11.9660   13.6290 N   0  0  0  0  0  0  0  0  0  0  0  0
   12.4150  -13.1990   13.1320 C   0  0  0  0  0  0  0  0  0  0  0  0
   11.7530  -14.3560   13.7670 C   0  0  0  0  0  0  0  0  0  0  0  0
   11.1240  -15.3130   13.1030 N   0  0  0  0  0  0  0  0  0  0  0  0
   10.6120  -16.2480   13.9820 C   0  0  0  0  0  0  0  0  0  0  0  0
   10.8520  -16.0030   15.3150 C   0  0  0  0  0  0  0  0  0  0  0  0
   11.7490  -14.5550   15.4830 S   0  0  0  0  0  0  0  0  0  0  0  0
   13.2900  -13.3880   12.0680 C   0  0  0  0  0  0  0  0  0  0  0  0
   13.8990  -12.2780   11.4930 C   0  0  0  0  0  0  0  0  0  0  0  0
   13.6240  -10.9990   11.9920 C   0  0  0  0  0  0  0  0  0  0  0  0
   14.2160   -9.8440   11.4470 C   0  0  0  0  0  0  0  0  0  0  0  0
   16.1842   -3.5507   13.7775 H   0  0  0  0  0  0  0  0  0  0  0  0
   16.8755   -4.2325   12.2663 H   0  0  0  0  0  0  0  0  0  0  0  0
   15.2131   -3.5519   12.2663 H   0  0  0  0  0  0  0  0  0  0  0  0
   14.4520   -5.5734   12.6618 H   0  0  0  0  0  0  0  0  0  0  0  0
   15.0168   -4.6693   15.2013 H   0  0  0  0  0  0  0  0  0  0  0  0
   14.2159   -6.2134   14.9138 H   0  0  0  0  0  0  0  0  0  0  0  0
   17.2013   -5.6529   15.3887 H   0  0  0  0  0  0  0  0  0  0  0  0
   16.2142   -6.8326   16.2210 H   0  0  0  0  0  0  0  0  0  0  0  0
   17.7262   -7.6856   14.1998 H   0  0  0  0  0  0  0  0  0  0  0  0
   16.0702   -8.2576   14.1925 H   0  0  0  0  0  0  0  0  0  0  0  0
   17.3250   -6.0510   12.6700 H   0  0  0  0  0  0  0  0  0  0  0  0
   16.6055   -6.9462   10.7815 H   0  0  0  0  0  0  0  0  0  0  0  0
   16.3975   -8.4025   11.8337 H   0  0  0  0  0  0  0  0  0  0  0  0
   14.1435   -6.4525   11.8815 H   0  0  0  0  0  0  0  0  0  0  0  0
   14.4070   -7.3162   10.3157 H   0  0  0  0  0  0  0  0  0  0  0  0
   12.7734   -7.4942   13.4500 H   0  0  0  0  0  0  0  0  0  0  0  0
   11.7348   -9.5347   14.4053 H   0  0  0  0  0  0  0  0  0  0  0  0
   10.0501  -17.1294   13.6394 H   0  0  0  0  0  0  0  0  0  0  0  0
   10.5179  -16.6411   16.1464 H   0  0  0  0  0  0  0  0  0  0  0  0
   13.4971  -14.3991   11.6874 H   0  0  0  0  0  0  0  0  0  0  0  0
   14.5939  -12.4042   10.6497 H   0  0  0  0  0  0  0  0  0  0  0  0
   14.9196   -9.9382   10.6067 H   0  0  0  0  0  0  0  0  0  0  0  0
  1  2  1  0
  2  3  1  0
  3  4  1  0
  4  5  1  0
  5  6  1  0
  6  7  1  0
  7  8  1  0
  8  9  1  0
  9 10  2  0
 10 11  1  0
 11 12  2  0
 12 13  1  0
 13 14  2  0
 14 15  1  0
 15 16  2  0
 16 17  1  0
 17 18  2  0
 18 19  1  0
 14 20  1  0
 20 21  2  0
 21 22  1  0
 22 23  2  0
  6  2  1  0
 23  9  1  0
 22 12  1  0
 19 15  1  0
  1 24  1  0
  1 25  1  0
  1 26  1  0
  2 27  1  6
  3 28  1  0
  3 29  1  0
  4 30  1  0
  4 31  1  0
  5 32  1  0
  5 33  1  0
  6 34  1  0
  7 35  1  0
  7 36  1  0
  8 37  1  0
  8 38  1  0
 10 39  1  0
 11 40  1  0
 17 41  1  0
 18 42  1  0
 20 43  1  0
 21 44  1  0
 23 45  1  0
M  CHG  1   6   1
M  END
>  <meeko>  (7) 
{"is_sidechain": [false], "free_energy": -6.579, "intermolecular_energy": -8.007, "internal_energy": -0.87}

$$$$
LIB_UHGSEJDZVOPSFT__M_PUB_ALL__e8__s20260927
     RDKit          3D

 45 48  0  0  0  0  0  0  0  0999 V2000
   -4.5570  -11.3610   -0.3900 C   0  0  0  0  0  0  0  0  0  0  0  0
   -3.2950  -11.9560    0.2180 C   0  0  2  0  0  0  0  0  0  0  0  0
   -3.1330  -13.4490   -0.0660 C   0  0  0  0  0  0  0  0  0  0  0  0
   -3.6800  -14.1400    1.1680 C   0  0  0  0  0  0  0  0  0  0  0  0
   -3.1890  -13.2560    2.2910 C   0  0  0  0  0  0  0  0  0  0  0  0
   -3.3920  -11.8580    1.7460 N   0  0  0  0  0  0  0  0  0  0  0  0
   -2.4800  -10.8050    2.3340 C   0  0  0  0  0  0  0  0  0  0  0  0
   -1.0890  -11.3760    2.6210 C   0  0  0  0  0  0  0  0  0  0  0  0
   -0.2540  -11.4160    1.3670 C   0  0  0  0  0  0  0  0  0  0  0  0
   -0.0370  -10.2540    0.6220 C   0  0  0  0  0  0  0  0  0  0  0  0
    0.7120  -10.3040   -0.5580 C   0  0  0  0  0  0  0  0  0  0  0  0
    1.2600  -11.4870   -1.0290 C   0  0  0  0  0  0  0  0  0  0  0  0
    1.9650  -11.4730   -2.1710 N   0  0  0  0  0  0  0  0  0  0  0  0
    2.5030  -12.6360   -2.6210 C   0  0  0  0  0  0  0  0  0  0  0  0
    3.2750  -12.5890   -3.8790 C   0  0  0  0  0  0  0  0  0  0  0  0
    3.8610  -13.6370   -4.4350 N   0  0  0  0  0  0  0  0  0  0  0  0
    4.5040  -13.2640   -5.6000 C   0  0  0  0  0  0  0  0  0  0  0  0
    4.4060  -11.9310   -5.9310 C   0  0  0  0  0  0  0  0  0  0  0  0
    3.4790  -11.1100   -4.7500 S   0  0  0  0  0  0  0  0  0  0  0  0
    2.3430  -13.8390   -1.9410 C   0  0  0  0  0  0  0  0  0  0  0  0
    1.6080  -13.8510   -0.7600 C   0  0  0  0  0  0  0  0  0  0  0  0
    1.0470  -12.6620   -0.2810 C   0  0  0  0  0  0  0  0  0  0  0  0
    0.2930  -12.6210    0.9080 C   0  0  0  0  0  0  0  0  0  0  0  0
   -5.2358  -11.0410    0.4143 H   0  0  0  0  0  0  0  0  0  0  0  0
   -4.2907  -10.4936   -1.0119 H   0  0  0  0  0  0  0  0  0  0  0  0
   -5.0567  -12.1184   -1.0119 H   0  0  0  0  0  0  0  0  0  0  0  0
   -2.4546  -11.3982   -0.2208 H   0  0  0  0  0  0  0  0  0  0  0  0
   -3.7072  -13.7381   -0.9585 H   0  0  0  0  0  0  0  0  0  0  0  0
   -2.0863  -13.7224   -0.2652 H   0  0  0  0  0  0  0  0  0  0  0  0
   -4.7791  -14.1791    1.1460 H   0  0  0  0  0  0  0  0  0  0  0  0
   -3.3536  -15.1862    1.2624 H   0  0  0  0  0  0  0  0  0  0  0  0
   -3.7816  -13.4131    3.2043 H   0  0  0  0  0  0  0  0  0  0  0  0
   -2.1464  -13.4603    2.5760 H   0  0  0  0  0  0  0  0  0  0  0  0
   -4.3600  -11.5890    1.9750 H   0  0  0  0  0  0  0  0  0  0  0  0
   -2.3862   -9.9727    1.6209 H   0  0  0  0  0  0  0  0  0  0  0  0
   -2.9159  -10.4561    3.2818 H   0  0  0  0  0  0  0  0  0  0  0  0
   -0.5871  -10.7431    3.3677 H   0  0  0  0  0  0  0  0  0  0  0  0
   -1.2022  -12.4023    3.0004 H   0  0  0  0  0  0  0  0  0  0  0  0
   -0.4567   -9.2967    0.9647 H   0  0  0  0  0  0  0  0  0  0  0  0
    0.8709   -9.3774   -1.1291 H   0  0  0  0  0  0  0  0  0  0  0  0
    5.0571  -13.9838   -6.2213 H   0  0  0  0  0  0  0  0  0  0  0  0
    4.8555  -11.4645   -6.8200 H   0  0  0  0  0  0  0  0  0  0  0  0
    2.7902  -14.7653   -2.3307 H   0  0  0  0  0  0  0  0  0  0  0  0
    1.4685  -14.7906   -0.2054 H   0  0  0  0  0  0  0  0  0  0  0  0
    0.1320  -13.5453    1.4823 H   0  0  0  0  0  0  0  0  0  0  0  0
  1  2  1  0
  2  3  1  0
  3  4  1  0
  4  5  1  0
  5  6  1  0
  6  7  1  0
  7  8  1  0
  8  9  1  0
  9 10  2  0
 10 11  1  0
 11 12  2  0
 12 13  1  0
 13 14  2  0
 14 15  1  0
 15 16  2  0
 16 17  1  0
 17 18  2  0
 18 19  1  0
 14 20  1  0
 20 21  2  0
 21 22  1  0
 22 23  2  0
  6  2  1  0
 23  9  1  0
 22 12  1  0
 19 15  1  0
  1 24  1  0
  1 25  1  0
  1 26  1  0
  2 27  1  6
  3 28  1  0
  3 29  1  0
  4 30  1  0
  4 31  1  0
  5 32  1  0
  5 33  1  0
  6 34  1  0
  7 35  1  0
  7 36  1  0
  8 37  1  0
  8 38  1  0
 10 39  1  0
 11 40  1  0
 17 41  1  0
 18 42  1  0
 20 43  1  0
 21 44  1  0
 23 45  1  0
M  CHG  1   6   1
M  END
>  <meeko>  (8) 
{"is_sidechain": [false], "free_energy": -6.394, "intermolecular_energy": -7.787, "internal_energy": -0.861}

$$$$
LIB_UHGSEJDZVOPSFT__M_PUB_ALL__e8__s20260927
     RDKit          3D

 45 48  0  0  0  0  0  0  0  0999 V2000
   16.2600   -6.3410   11.1140 C   0  0  0  0  0  0  0  0  0  0  0  0
   17.6810   -6.4110   11.6520 C   0  0  2  0  0  0  0  0  0  0  0  0
   18.6750   -5.5770   10.8460 C   0  0  0  0  0  0  0  0  0  0  0  0
   19.3210   -6.5600    9.8880 C   0  0  0  0  0  0  0  0  0  0  0  0
   19.4830   -7.7970   10.7400 C   0  0  0  0  0  0  0  0  0  0  0  0
   18.1860   -7.8540   11.5200 N   0  0  0  0  0  0  0  0  0  0  0  0
   18.2690   -8.5800   12.8450 C   0  0  0  0  0  0  0  0  0  0  0  0
   17.4730   -9.8870   12.8090 C   0  0  0  0  0  0  0  0  0  0  0  0
   15.9950   -9.6210   12.9360 C   0  0  0  0  0  0  0  0  0  0  0  0
   15.0790  -10.3070   12.1330 C   0  0  0  0  0  0  0  0  0  0  0  0
   13.7110  -10.0330   12.2330 C   0  0  0  0  0  0  0  0  0  0  0  0
   13.2160   -9.0870   13.1170 C   0  0  0  0  0  0  0  0  0  0  0  0
   11.8940   -8.8640   13.1650 N   0  0  0  0  0  0  0  0  0  0  0  0
   11.4180   -7.9380   14.0380 C   0  0  0  0  0  0  0  0  0  0  0  0
    9.9580   -7.7170   14.0680 C   0  0  0  0  0  0  0  0  0  0  0  0
    9.3590   -6.6220   13.6300 N   0  0  0  0  0  0  0  0  0  0  0  0
    7.9920   -6.7230   13.7990 C   0  0  0  0  0  0  0  0  0  0  0  0
    7.5490   -7.8970   14.3650 C   0  0  0  0  0  0  0  0  0  0  0  0
    8.8840   -8.9150   14.7010 S   0  0  0  0  0  0  0  0  0  0  0  0
   12.2540   -7.2140   14.8790 C   0  0  0  0  0  0  0  0  0  0  0  0
   13.6260   -7.4450   14.8250 C   0  0  0  0  0  0  0  0  0  0  0  0
   14.1340   -8.3940   13.9310 C   0  0  0  0  0  0  0  0  0  0  0  0
   15.5130   -8.6630   13.8360 C   0  0  0  0  0  0  0  0  0  0  0  0
   15.5511   -6.3061   11.9544 H   0  0  0  0  0  0  0  0  0  0  0  0
   16.1448   -5.4361   10.4993 H   0  0  0  0  0  0  0  0  0  0  0  0
   16.0564   -7.2302   10.4993 H   0  0  0  0  0  0  0  0  0  0  0  0
   17.6322   -6.0387   12.6859 H   0  0  0  0  0  0  0  0  0  0  0  0
   18.1540   -4.7821   10.2922 H   0  0  0  0  0  0  0  0  0  0  0  0
   19.4148   -5.0779   11.4891 H   0  0  0  0  0  0  0  0  0  0  0  0
   18.6705   -6.7566    9.0230 H   0  0  0  0  0  0  0  0  0  0  0  0
   20.2678   -6.1963    9.4623 H   0  0  0  0  0  0  0  0  0  0  0  0
   19.6064   -8.6932   10.1143 H   0  0  0  0  0  0  0  0  0  0  0  0
   20.3729   -7.7619   11.3857 H   0  0  0  0  0  0  0  0  0  0  0  0
   17.5100   -8.3630   10.9330 H   0  0  0  0  0  0  0  0  0  0  0  0
   19.3226   -8.8072   13.0646 H   0  0  0  0  0  0  0  0  0  0  0  0
   17.8419   -7.9326   13.6251 H   0  0  0  0  0  0  0  0  0  0  0  0
   17.6659  -10.3998   11.8552 H   0  0  0  0  0  0  0  0  0  0  0  0
   17.7907  -10.5150   13.6544 H   0  0  0  0  0  0  0  0  0  0  0  0
   15.4354  -11.0650   11.4199 H   0  0  0  0  0  0  0  0  0  0  0  0
   13.0076  -10.5842   11.5916 H   0  0  0  0  0  0  0  0  0  0  0  0
    7.3031   -5.9188   13.5011 H   0  0  0  0  0  0  0  0  0  0  0  0
    6.4969   -8.1437   14.5703 H   0  0  0  0  0  0  0  0  0  0  0  0
   11.8390   -6.4708   15.5757 H   0  0  0  0  0  0  0  0  0  0  0  0
   14.3072   -6.8842   15.4819 H   0  0  0  0  0  0  0  0  0  0  0  0
   16.2195   -8.1142   14.4761 H   0  0  0  0  0  0  0  0  0  0  0  0
  1  2  1  0
  2  3  1  0
  3  4  1  0
  4  5  1  0
  5  6  1  0
  6  7  1  0
  7  8  1  0
  8  9  1  0
  9 10  2  0
 10 11  1  0
 11 12  2  0
 12 13  1  0
 13 14  2  0
 14 15  1  0
 15 16  2  0
 16 17  1  0
 17 18  2  0
 18 19  1  0
 14 20  1  0
 20 21  2  0
 21 22  1  0
 22 23  2  0
  6  2  1  0
 23  9  1  0
 22 12  1  0
 19 15  1  0
  1 24  1  0
  1 25  1  0
  1 26  1  0
  2 27  1  1
  3 28  1  0
  3 29  1  0
  4 30  1  0
  4 31  1  0
  5 32  1  0
  5 33  1  0
  6 34  1  0
  7 35  1  0
  7 36  1  0
  8 37  1  0
  8 38  1  0
 10 39  1  0
 11 40  1  0
 17 41  1  0
 18 42  1  0
 20 43  1  0
 21 44  1  0
 23 45  1  0
M  CHG  1   6   1
M  END
>  <meeko>  (9) 
{"is_sidechain": [false], "free_energy": -6.389, "intermolecular_energy": -7.788, "internal_energy": -0.853}

$$$$
