LIB_LVSWEGNPHRUXSW__M_PUB_ALL__e8__s20260927
     RDKit          3D

 79 84  0  0  0  0  0  0  0  0999 V2000
    0.4310  -19.5840    9.0320 C   0  0  0  0  0  0  0  0  0  0  0  0
   -0.8990  -19.4580    8.3510 N   0  0  0  0  0  0  0  0  0  0  0  0
   -1.5700  -18.1070    8.5710 C   0  0  0  0  0  0  0  0  0  0  0  0
   -0.9030  -16.9850    7.7490 C   0  0  0  0  0  0  0  0  0  0  0  0
   -0.7750  -17.3670    6.3310 N   0  0  0  0  0  0  0  0  0  0  0  0
   -0.6460  -16.3350    5.4030 C   0  0  0  0  0  0  0  0  0  0  0  0
   -1.3320  -16.3260    4.1810 C   0  0  0  0  0  0  0  0  0  0  0  0
   -1.1890  -15.2750    3.2610 C   0  0  0  0  0  0  0  0  0  0  0  0
   -0.3590  -14.1860    3.5410 C   0  0  0  0  0  0  0  0  0  0  0  0
   -0.2060  -13.1130    2.5720 C   0  0  0  0  0  0  0  0  0  0  0  0
   -0.7740  -11.8220    2.5650 C   0  0  0  0  0  0  0  0  0  0  0  0
   -0.4090  -11.0870    1.5170 N   0  0  0  0  0  0  0  0  0  0  0  0
    0.4230  -11.9050    0.8050 N   0  0  0  0  0  0  0  0  0  0  0  0
    1.0850  -11.5870   -0.4120 C   0  0  0  0  0  0  0  0  0  0  0  0
    0.8630  -10.3270   -0.9290 N   0  0  0  0  0  0  0  0  0  0  0  0
    1.8790  -12.5290   -0.9680 C   0  0  0  0  0  0  0  0  0  0  0  0
    2.6230  -12.3460   -2.2180 C   0  0  0  0  0  0  0  0  0  0  0  0
    2.0650  -12.7420   -3.4380 C   0  0  0  0  0  0  0  0  0  0  0  0
    2.7800  -12.5680   -4.6290 C   0  0  0  0  0  0  0  0  0  0  0  0
    4.0600  -11.9990   -4.6210 C   0  0  0  0  0  0  0  0  0  0  0  0
    4.7120  -11.8600   -5.8620 N   0  0  0  0  0  0  0  0  0  0  0  0
    5.4080  -12.8220   -6.5610 C   0  0  0  0  0  0  0  0  0  0  0  0
    5.5510  -13.9950   -6.2440 O   0  0  0  0  0  0  0  0  0  0  0  0
    5.9480  -12.3020   -7.7190 N   0  0  0  0  0  0  0  0  0  0  0  0
    6.7090  -13.1290   -8.6350 C   0  0  0  0  0  0  0  0  0  0  0  0
    7.0090  -12.4040   -9.9550 C   0  0  0  0  0  0  0  0  0  0  0  0
    8.4670  -12.6190  -10.3960 C   0  0  0  0  0  0  0  0  0  0  0  0
    8.7930  -11.8460  -11.6710 C   0  0  0  0  0  0  0  0  0  0  0  0
    8.4780  -10.3610  -11.5260 C   0  0  0  0  0  0  0  0  0  0  0  0
    7.0340  -10.1350  -11.0900 C   0  0  0  0  0  0  0  0  0  0  0  0
    6.7060  -10.9040   -9.8130 C   0  0  0  0  0  0  0  0  0  0  0  0
    4.6110  -11.6030   -3.4020 C   0  0  0  0  0  0  0  0  0  0  0  0
    3.9000  -11.7760   -2.2080 C   0  0  0  0  0  0  0  0  0  0  0  0
    1.9780  -13.8190   -0.2170 C   0  0  0  0  0  0  0  0  0  0  0  0
    1.3800  -14.1250    0.8950 N   0  0  0  0  0  0  0  0  0  0  0  0
    0.5740  -13.1540    1.4270 C   0  0  0  0  0  0  0  0  0  0  0  0
    0.3240  -14.1770    4.7590 C   0  0  0  0  0  0  0  0  0  0  0  0
    0.1780  -15.2320    5.6720 C   0  0  0  0  0  0  0  0  0  0  0  0
   -0.1820  -18.6800    6.0380 C   0  0  0  0  0  0  0  0  0  0  0  0
   -0.8570  -19.7930    6.8640 C   0  0  0  0  0  0  0  0  0  0  0  0
    0.2873  -19.5704   10.1225 H   0  0  0  0  0  0  0  0  0  0  0  0
    0.9060  -20.5312    8.7365 H   0  0  0  0  0  0  0  0  0  0  0  0
    1.0754  -18.7429    8.7365 H   0  0  0  0  0  0  0  0  0  0  0  0
   -1.5140  -20.1570    8.7840 H   0  0  0  0  0  0  0  0  0  0  0  0
   -2.6264  -18.1835    8.2742 H   0  0  0  0  0  0  0  0  0  0  0  0
   -1.4712  -17.8501    9.6360 H   0  0  0  0  0  0  0  0  0  0  0  0
   -1.5158  -16.0744    7.8214 H   0  0  0  0  0  0  0  0  0  0  0  0
    0.1042  -16.8080    8.1543 H   0  0  0  0  0  0  0  0  0  0  0  0
   -2.0003  -17.1647    3.9361 H   0  0  0  0  0  0  0  0  0  0  0  0
   -1.7371  -15.3092    2.3079 H   0  0  0  0  0  0  0  0  0  0  0  0
   -1.4531  -11.4577    3.3499 H   0  0  0  0  0  0  0  0  0  0  0  0
    0.4470   -9.5910   -0.3730 H   0  0  0  0  0  0  0  0  0  0  0  0
    1.1240  -10.1650   -1.9000 H   0  0  0  0  0  0  0  0  0  0  0  0
    1.0613  -13.1915   -3.4617 H   0  0  0  0  0  0  0  0  0  0  0  0
    2.3311  -12.8820   -5.5829 H   0  0  0  0  0  0  0  0  0  0  0  0
    4.6290  -10.9650   -6.3170 H   0  0  0  0  0  0  0  0  0  0  0  0
    5.9810  -11.3030   -7.8400 H   0  0  0  0  0  0  0  0  0  0  0  0
    7.6609  -13.4041   -8.1572 H   0  0  0  0  0  0  0  0  0  0  0  0
    6.1067  -14.0197   -8.8672 H   0  0  0  0  0  0  0  0  0  0  0  0
    6.3592  -12.8301  -10.7336 H   0  0  0  0  0  0  0  0  0  0  0  0
    9.1361  -12.2784   -9.5921 H   0  0  0  0  0  0  0  0  0  0  0  0
    8.6081  -13.6906  -10.6002 H   0  0  0  0  0  0  0  0  0  0  0  0
    9.8635  -11.9632  -11.8951 H   0  0  0  0  0  0  0  0  0  0  0  0
    8.1734  -12.2502  -12.4851 H   0  0  0  0  0  0  0  0  0  0  0  0
    9.1510   -9.9249  -10.7731 H   0  0  0  0  0  0  0  0  0  0  0  0
    8.6216   -9.8809  -12.5052 H   0  0  0  0  0  0  0  0  0  0  0  0
    6.8795   -9.0609  -10.9096 H   0  0  0  0  0  0  0  0  0  0  0  0
    6.3721  -10.4981  -11.8900 H   0  0  0  0  0  0  0  0  0  0  0  0
    7.3077  -10.4960   -8.9874 H   0  0  0  0  0  0  0  0  0  0  0  0
    5.6304  -10.7904   -9.6128 H   0  0  0  0  0  0  0  0  0  0  0  0
    5.6134  -11.1506   -3.3785 H   0  0  0  0  0  0  0  0  0  0  0  0
    4.3495  -11.4611   -1.2547 H   0  0  0  0  0  0  0  0  0  0  0  0
    2.6274  -14.5921   -0.6536 H   0  0  0  0  0  0  0  0  0  0  0  0
    0.9844  -13.3325    5.0055 H   0  0  0  0  0  0  0  0  0  0  0  0
    0.7250  -15.1933    6.6256 H   0  0  0  0  0  0  0  0  0  0  0  0
   -0.3088  -18.9003    4.9678 H   0  0  0  0  0  0  0  0  0  0  0  0
    0.8850  -18.6475    6.3033 H   0  0  0  0  0  0  0  0  0  0  0  0
   -1.8867  -19.9288    6.5017 H   0  0  0  0  0  0  0  0  0  0  0  0
   -0.2661  -20.7125    6.7403 H   0  0  0  0  0  0  0  0  0  0  0  0
  1  2  1  0
  2  3  1  0
  3  4  1  0
  4  5  1  0
  5  6  1  0
  6  7  2  0
  7  8  1  0
  8  9  2  0
  9 10  1  0
 10 11  1  0
 11 12  2  0
 12 13  1  0
 13 14  1  0
 14 15  1  0
 14 16  2  0
 16 17  1  0
 17 18  2  0
 18 19  1  0
 19 20  2  0
 20 21  1  0
 21 22  1  0
 22 23  2  0
 22 24  1  0
 24 25  1  0
 25 26  1  0
 26 27  1  0
 27 28  1  0
 28 29  1  0
 29 30  1  0
 30 31  1  0
 20 32  1  0
 32 33  2  0
 16 34  1  0
 34 35  2  0
 35 36  1  0
  9 37  1  0
 37 38  2  0
  5 39  1  0
 39 40  1  0
 40  2  1  0
 38  6  1  0
 36 10  2  0
 36 13  1  0
 33 17  1  0
 31 26  1  0
  1 41  1  0
  1 42  1  0
  1 43  1  0
  2 44  1  0
  3 45  1  0
  3 46  1  0
  4 47  1  0
  4 48  1  0
  7 49  1  0
  8 50  1  0
 11 51  1  0
 15 52  1  0
 15 53  1  0
 18 54  1  0
 19 55  1  0
 21 56  1  0
 24 57  1  0
 25 58  1  0
 25 59  1  0
 26 60  1  0
 27 61  1  0
 27 62  1  0
 28 63  1  0
 28 64  1  0
 29 65  1  0
 29 66  1  0
 30 67  1  0
 30 68  1  0
 31 69  1  0
 31 70  1  0
 32 71  1  0
 33 72  1  0
 34 73  1  0
 37 74  1  0
 38 75  1  0
 39 76  1  0
 39 77  1  0
 40 78  1  0
 40 79  1  0
M  CHG  1   2   1
M  END
>  <meeko>  (1) 
{"is_sidechain": [false], "free_energy": -8.928, "intermolecular_energy": -12.321, "internal_energy": -0.965}

$$$$
LIB_LVSWEGNPHRUXSW__M_PUB_ALL__e8__s20260927
     RDKit          3D

 79 84  0  0  0  0  0  0  0  0999 V2000
   10.3010  -15.7280   -9.7260 C   0  0  0  0  0  0  0  0  0  0  0  0
    8.9370  -15.5970  -10.3360 N   0  0  0  0  0  0  0  0  0  0  0  0
    7.8630  -16.3930   -9.6010 C   0  0  0  0  0  0  0  0  0  0  0  0
    7.4660  -15.7370   -8.2630 C   0  0  0  0  0  0  0  0  0  0  0  0
    7.1360  -14.3120   -8.4460 N   0  0  0  0  0  0  0  0  0  0  0  0
    6.3270  -13.7160   -7.4780 C   0  0  0  0  0  0  0  0  0  0  0  0
    5.5820  -12.5550   -7.7240 C   0  0  0  0  0  0  0  0  0  0  0  0
    4.7730  -11.9730   -6.7360 C   0  0  0  0  0  0  0  0  0  0  0  0
    4.6740  -12.5440   -5.4640 C   0  0  0  0  0  0  0  0  0  0  0  0
    3.8460  -11.9210   -4.4430 C   0  0  0  0  0  0  0  0  0  0  0  0
    3.5420  -10.5580   -4.2430 C   0  0  0  0  0  0  0  0  0  0  0  0
    2.7370  -10.3400   -3.2060 N   0  0  0  0  0  0  0  0  0  0  0  0
    2.4960  -11.5870   -2.7000 N   0  0  0  0  0  0  0  0  0  0  0  0
    1.6860  -11.9020   -1.5750 C   0  0  0  0  0  0  0  0  0  0  0  0
    1.0830  -10.8420   -0.9280 N   0  0  0  0  0  0  0  0  0  0  0  0
    1.5590  -13.2020   -1.2260 C   0  0  0  0  0  0  0  0  0  0  0  0
    0.7600  -13.6770   -0.0930 C   0  0  0  0  0  0  0  0  0  0  0  0
    1.3640  -13.9300    1.1430 C   0  0  0  0  0  0  0  0  0  0  0  0
    0.5970  -14.3860    2.2210 C   0  0  0  0  0  0  0  0  0  0  0  0
   -0.7810  -14.5970    2.0840 C   0  0  0  0  0  0  0  0  0  0  0  0
   -1.4790  -15.0580    3.2170 N   0  0  0  0  0  0  0  0  0  0  0  0
   -2.3880  -16.0920    3.2840 C   0  0  0  0  0  0  0  0  0  0  0  0
   -2.7230  -16.8310    2.3690 O   0  0  0  0  0  0  0  0  0  0  0  0
   -2.9000  -16.2210    4.5590 N   0  0  0  0  0  0  0  0  0  0  0  0
   -3.8620  -17.2560    4.8850 C   0  0  0  0  0  0  0  0  0  0  0  0
   -5.1290  -16.6830    5.5360 C   0  0  0  0  0  0  0  0  0  0  0  0
   -5.6490  -15.4550    4.7680 C   0  0  0  0  0  0  0  0  0  0  0  0
   -6.8680  -14.8370    5.4460 C   0  0  0  0  0  0  0  0  0  0  0  0
   -6.5880  -14.4930    6.9060 C   0  0  0  0  0  0  0  0  0  0  0  0
   -6.0740  -15.7030    7.6770 C   0  0  0  0  0  0  0  0  0  0  0  0
   -4.8520  -16.3210    7.0030 C   0  0  0  0  0  0  0  0  0  0  0  0
   -1.3800  -14.3400    0.8500 C   0  0  0  0  0  0  0  0  0  0  0  0
   -0.6160  -13.8850   -0.2320 C   0  0  0  0  0  0  0  0  0  0  0  0
    2.2960  -14.1770   -2.0880 C   0  0  0  0  0  0  0  0  0  0  0  0
    3.0400  -13.9060   -3.1170 N   0  0  0  0  0  0  0  0  0  0  0  0
    3.1560  -12.5800   -3.4390 C   0  0  0  0  0  0  0  0  0  0  0  0
    5.4040  -13.7060   -5.2060 C   0  0  0  0  0  0  0  0  0  0  0  0
    6.2120  -14.2800   -6.1990 C   0  0  0  0  0  0  0  0  0  0  0  0
    8.1000  -13.4870   -9.1880 C   0  0  0  0  0  0  0  0  0  0  0  0
    8.4890  -14.1520  -10.5240 C   0  0  0  0  0  0  0  0  0  0  0  0
   10.2146  -15.7197   -8.6294 H   0  0  0  0  0  0  0  0  0  0  0  0
   10.7585  -16.6742  -10.0506 H   0  0  0  0  0  0  0  0  0  0  0  0
   10.9302  -14.8862  -10.0506 H   0  0  0  0  0  0  0  0  0  0  0  0
    8.9990  -16.0030  -11.2770 H   0  0  0  0  0  0  0  0  0  0  0  0
    6.9711  -16.4599  -10.2413 H   0  0  0  0  0  0  0  0  0  0  0  0
    8.2727  -17.3897   -9.3803 H   0  0  0  0  0  0  0  0  0  0  0  0
    6.5885  -16.2590   -7.8538 H   0  0  0  0  0  0  0  0  0  0  0  0
    8.3184  -15.8115   -7.5717 H   0  0  0  0  0  0  0  0  0  0  0  0
    5.6327  -12.0872   -8.7183 H   0  0  0  0  0  0  0  0  0  0  0  0
    4.2099  -11.0563   -6.9654 H   0  0  0  0  0  0  0  0  0  0  0  0
    3.9328   -9.7529   -4.8827 H   0  0  0  0  0  0  0  0  0  0  0  0
    0.1290  -10.8970   -0.5950 H   0  0  0  0  0  0  0  0  0  0  0  0
    1.6310   -9.9930   -0.8040 H   0  0  0  0  0  0  0  0  0  0  0  0
    2.4451  -13.7700    1.2680 H   0  0  0  0  0  0  0  0  0  0  0  0
    1.0825  -14.5813    3.1885 H   0  0  0  0  0  0  0  0  0  0  0  0
   -1.2640  -14.6090    4.0920 H   0  0  0  0  0  0  0  0  0  0  0  0
   -2.7570  -15.4780    5.2230 H   0  0  0  0  0  0  0  0  0  0  0  0
   -4.1447  -17.7813    3.9608 H   0  0  0  0  0  0  0  0  0  0  0  0
   -3.3913  -17.9410    5.6055 H   0  0  0  0  0  0  0  0  0  0  0  0
   -5.9106  -17.4562    5.4986 H   0  0  0  0  0  0  0  0  0  0  0  0
   -4.8492  -14.7015    4.7180 H   0  0  0  0  0  0  0  0  0  0  0  0
   -5.9472  -15.7826    3.7611 H   0  0  0  0  0  0  0  0  0  0  0  0
   -7.1460  -13.9175    4.9101 H   0  0  0  0  0  0  0  0  0  0  0  0
   -7.6856  -15.5723    5.4177 H   0  0  0  0  0  0  0  0  0  0  0  0
   -5.8312  -13.6957    6.9464 H   0  0  0  0  0  0  0  0  0  0  0  0
   -7.5297  -14.1635    7.3693 H   0  0  0  0  0  0  0  0  0  0  0  0
   -5.7992  -15.3877    8.6944 H   0  0  0  0  0  0  0  0  0  0  0  0
   -6.8723  -16.4594    7.7023 H   0  0  0  0  0  0  0  0  0  0  0  0
   -4.0222  -15.5999    7.0408 H   0  0  0  0  0  0  0  0  0  0  0  0
   -4.5977  -17.2465    7.5404 H   0  0  0  0  0  0  0  0  0  0  0  0
   -2.4618  -14.4962    0.7261 H   0  0  0  0  0  0  0  0  0  0  0  0
   -1.1022  -13.6896   -1.1992 H   0  0  0  0  0  0  0  0  0  0  0  0
    2.1969  -15.2395   -1.8211 H   0  0  0  0  0  0  0  0  0  0  0  0
    5.3449  -14.1765   -4.2134 H   0  0  0  0  0  0  0  0  0  0  0  0
    6.7713  -15.1986   -5.9679 H   0  0  0  0  0  0  0  0  0  0  0  0
    7.6489  -12.5051   -9.3936 H   0  0  0  0  0  0  0  0  0  0  0  0
    9.0075  -13.3757   -8.5764 H   0  0  0  0  0  0  0  0  0  0  0  0
    7.6179  -14.1352  -11.1955 H   0  0  0  0  0  0  0  0  0  0  0  0
    9.3322  -13.5885  -10.9501 H   0  0  0  0  0  0  0  0  0  0  0  0
  1  2  1  0
  2  3  1  0
  3  4  1  0
  4  5  1  0
  5  6  1  0
  6  7  2  0
  7  8  1  0
  8  9  2  0
  9 10  1  0
 10 11  1  0
 11 12  2  0
 12 13  1  0
 13 14  1  0
 14 15  1  0
 14 16  2  0
 16 17  1  0
 17 18  2  0
 18 19  1  0
 19 20  2  0
 20 21  1  0
 21 22  1  0
 22 23  2  0
 22 24  1  0
 24 25  1  0
 25 26  1  0
 26 27  1  0
 27 28  1  0
 28 29  1  0
 29 30  1  0
 30 31  1  0
 20 32  1  0
 32 33  2  0
 16 34  1  0
 34 35  2  0
 35 36  1  0
  9 37  1  0
 37 38  2  0
  5 39  1  0
 39 40  1  0
 40  2  1  0
 38  6  1  0
 36 10  2  0
 36 13  1  0
 33 17  1  0
 31 26  1  0
  1 41  1  0
  1 42  1  0
  1 43  1  0
  2 44  1  0
  3 45  1  0
  3 46  1  0
  4 47  1  0
  4 48  1  0
  7 49  1  0
  8 50  1  0
 11 51  1  0
 15 52  1  0
 15 53  1  0
 18 54  1  0
 19 55  1  0
 21 56  1  0
 24 57  1  0
 25 58  1  0
 25 59  1  0
 26 60  1  0
 27 61  1  0
 27 62  1  0
 28 63  1  0
 28 64  1  0
 29 65  1  0
 29 66  1  0
 30 67  1  0
 30 68  1  0
 31 69  1  0
 31 70  1  0
 32 71  1  0
 33 72  1  0
 34 73  1  0
 37 74  1  0
 38 75  1  0
 39 76  1  0
 39 77  1  0
 40 78  1  0
 40 79  1  0
M  CHG  1   2   1
M  END
>  <meeko>  (2) 
{"is_sidechain": [false], "free_energy": -8.877, "intermolecular_energy": -12.622, "internal_energy": -0.595}

$$$$
LIB_LVSWEGNPHRUXSW__M_PUB_ALL__e8__s20260927
     RDKit          3D

 79 84  0  0  0  0  0  0  0  0999 V2000
   13.2410  -11.1260   -0.7360 C   0  0  0  0  0  0  0  0  0  0  0  0
   12.7950  -12.5560   -0.6620 N   0  0  0  0  0  0  0  0  0  0  0  0
   11.9740  -12.8740    0.5830 C   0  0  0  0  0  0  0  0  0  0  0  0
   10.5440  -12.3020    0.4980 C   0  0  0  0  0  0  0  0  0  0  0  0
    9.8910  -12.6880   -0.7660 N   0  0  0  0  0  0  0  0  0  0  0  0
    8.4960  -12.6690   -0.7940 C   0  0  0  0  0  0  0  0  0  0  0  0
    7.7430  -13.5400   -1.5920 C   0  0  0  0  0  0  0  0  0  0  0  0
    6.3400  -13.5040   -1.6030 C   0  0  0  0  0  0  0  0  0  0  0  0
    5.6400  -12.5980   -0.8020 C   0  0  0  0  0  0  0  0  0  0  0  0
    4.1860  -12.5600   -0.8370 C   0  0  0  0  0  0  0  0  0  0  0  0
    3.3280  -11.8490   -1.7010 C   0  0  0  0  0  0  0  0  0  0  0  0
    2.0360  -12.0550   -1.4540 N   0  0  0  0  0  0  0  0  0  0  0  0
    2.0300  -12.9220   -0.3980 N   0  0  0  0  0  0  0  0  0  0  0  0
    0.8840  -13.4570    0.2510 C   0  0  0  0  0  0  0  0  0  0  0  0
   -0.3460  -13.0580   -0.2300 N   0  0  0  0  0  0  0  0  0  0  0  0
    1.0770  -14.3130    1.2800 C   0  0  0  0  0  0  0  0  0  0  0  0
   -0.0050  -14.9420    2.0430 C   0  0  0  0  0  0  0  0  0  0  0  0
   -0.3740  -14.4380    3.2940 C   0  0  0  0  0  0  0  0  0  0  0  0
   -1.4070  -15.0430    4.0210 C   0  0  0  0  0  0  0  0  0  0  0  0
   -2.0830  -16.1590    3.5120 C   0  0  0  0  0  0  0  0  0  0  0  0
   -3.1080  -16.7090    4.3070 N   0  0  0  0  0  0  0  0  0  0  0  0
   -4.3780  -16.2100    4.5080 C   0  0  0  0  0  0  0  0  0  0  0  0
   -4.8600  -15.2120    3.9930 O   0  0  0  0  0  0  0  0  0  0  0  0
   -5.0870  -17.0000    5.3890 N   0  0  0  0  0  0  0  0  0  0  0  0
   -6.4590  -16.6920    5.7440 C   0  0  0  0  0  0  0  0  0  0  0  0
   -6.5590  -15.9830    7.1020 C   0  0  0  0  0  0  0  0  0  0  0  0
   -6.5370  -14.4530    6.9400 C   0  0  0  0  0  0  0  0  0  0  0  0
   -6.5660  -13.7400    8.2900 C   0  0  0  0  0  0  0  0  0  0  0  0
   -5.4380  -14.2110    9.2010 C   0  0  0  0  0  0  0  0  0  0  0  0
   -5.4510  -15.7270    9.3700 C   0  0  0  0  0  0  0  0  0  0  0  0
   -5.4170  -16.4420    8.0220 C   0  0  0  0  0  0  0  0  0  0  0  0
   -1.7130  -16.6570    2.2630 C   0  0  0  0  0  0  0  0  0  0  0  0
   -0.6800  -16.0550    1.5330 C   0  0  0  0  0  0  0  0  0  0  0  0
    2.5050  -14.6100    1.6150 C   0  0  0  0  0  0  0  0  0  0  0  0
    3.5620  -14.1300    1.0330 N   0  0  0  0  0  0  0  0  0  0  0  0
    3.3320  -13.2580    0.0020 C   0  0  0  0  0  0  0  0  0  0  0  0
    6.3770  -11.7300    0.0050 C   0  0  0  0  0  0  0  0  0  0  0  0
    7.7790  -11.7690    0.0090 C   0  0  0  0  0  0  0  0  0  0  0  0
   10.6410  -12.4580   -2.0090 C   0  0  0  0  0  0  0  0  0  0  0  0
   12.0670  -13.0350   -1.9130 C   0  0  0  0  0  0  0  0  0  0  0  0
   13.3653  -10.7275    0.2817 H   0  0  0  0  0  0  0  0  0  0  0  0
   14.1998  -11.0682   -1.2720 H   0  0  0  0  0  0  0  0  0  0  0  0
   12.4850  -10.5334   -1.2720 H   0  0  0  0  0  0  0  0  0  0  0  0
   13.6490  -13.1230   -0.5930 H   0  0  0  0  0  0  0  0  0  0  0  0
   11.9127  -13.9663    0.6978 H   0  0  0  0  0  0  0  0  0  0  0  0
   12.4737  -12.4090    1.4456 H   0  0  0  0  0  0  0  0  0  0  0  0
    9.9520  -12.6886    1.3406 H   0  0  0  0  0  0  0  0  0  0  0  0
   10.6043  -11.2044    0.5385 H   0  0  0  0  0  0  0  0  0  0  0  0
    8.2650  -14.2713   -2.2266 H   0  0  0  0  0  0  0  0  0  0  0  0
    5.7842  -14.1980   -2.2506 H   0  0  0  0  0  0  0  0  0  0  0  0
    3.6910  -11.1880   -2.5018 H   0  0  0  0  0  0  0  0  0  0  0  0
   -0.8810  -13.6370   -0.8650 H   0  0  0  0  0  0  0  0  0  0  0  0
   -0.6960  -12.1490    0.0680 H   0  0  0  0  0  0  0  0  0  0  0  0
    0.1488  -13.5634    3.7085 H   0  0  0  0  0  0  0  0  0  0  0  0
   -1.6907  -14.6369    5.0032 H   0  0  0  0  0  0  0  0  0  0  0  0
   -2.9100  -17.5910    4.7510 H   0  0  0  0  0  0  0  0  0  0  0  0
   -4.5960  -17.6860    5.9400 H   0  0  0  0  0  0  0  0  0  0  0  0
   -6.8874  -16.0381    4.9701 H   0  0  0  0  0  0  0  0  0  0  0  0
   -7.0114  -17.6405    5.8157 H   0  0  0  0  0  0  0  0  0  0  0  0
   -7.5212  -16.2565    7.5595 H   0  0  0  0  0  0  0  0  0  0  0  0
   -5.6204  -14.1647    6.4045 H   0  0  0  0  0  0  0  0  0  0  0  0
   -7.4338  -14.1556    6.3766 H   0  0  0  0  0  0  0  0  0  0  0  0
   -6.4616  -12.6577    8.1238 H   0  0  0  0  0  0  0  0  0  0  0  0
   -7.5227  -13.9731    8.7803 H   0  0  0  0  0  0  0  0  0  0  0  0
   -4.4753  -13.9085    8.7633 H   0  0  0  0  0  0  0  0  0  0  0  0
   -5.5798  -13.7525   10.1908 H   0  0  0  0  0  0  0  0  0  0  0  0
   -4.5706  -16.0285    9.9565 H   0  0  0  0  0  0  0  0  0  0  0  0
   -6.3811  -16.0081    9.8856 H   0  0  0  0  0  0  0  0  0  0  0  0
   -4.4564  -16.2287    7.5303 H   0  0  0  0  0  0  0  0  0  0  0  0
   -5.5379  -17.5200    8.2043 H   0  0  0  0  0  0  0  0  0  0  0  0
   -2.2370  -17.5303    1.8474 H   0  0  0  0  0  0  0  0  0  0  0  0
   -0.3977  -16.4613    0.5506 H   0  0  0  0  0  0  0  0  0  0  0  0
    2.6781  -15.3113    2.4446 H   0  0  0  0  0  0  0  0  0  0  0  0
    5.8518  -11.0064    0.6458 H   0  0  0  0  0  0  0  0  0  0  0  0
    8.3316  -11.0751    0.6594 H   0  0  0  0  0  0  0  0  0  0  0  0
   10.1124  -12.9439   -2.8424 H   0  0  0  0  0  0  0  0  0  0  0  0
   10.7141  -11.3733   -2.1767 H   0  0  0  0  0  0  0  0  0  0  0  0
   12.0048  -14.1330   -1.8890 H   0  0  0  0  0  0  0  0  0  0  0  0
   12.6335  -12.6872   -2.7894 H   0  0  0  0  0  0  0  0  0  0  0  0
  1  2  1  0
  2  3  1  0
  3  4  1  0
  4  5  1  0
  5  6  1  0
  6  7  2  0
  7  8  1  0
  8  9  2  0
  9 10  1  0
 10 11  1  0
 11 12  2  0
 12 13  1  0
 13 14  1  0
 14 15  1  0
 14 16  2  0
 16 17  1  0
 17 18  2  0
 18 19  1  0
 19 20  2  0
 20 21  1  0
 21 22  1  0
 22 23  2  0
 22 24  1  0
 24 25  1  0
 25 26  1  0
 26 27  1  0
 27 28  1  0
 28 29  1  0
 29 30  1  0
 30 31  1  0
 20 32  1  0
 32 33  2  0
 16 34  1  0
 34 35  2  0
 35 36  1  0
  9 37  1  0
 37 38  2  0
  5 39  1  0
 39 40  1  0
 40  2  1  0
 38  6  1  0
 36 10  2  0
 36 13  1  0
 33 17  1  0
 31 26  1  0
  1 41  1  0
  1 42  1  0
  1 43  1  0
  2 44  1  0
  3 45  1  0
  3 46  1  0
  4 47  1  0
  4 48  1  0
  7 49  1  0
  8 50  1  0
 11 51  1  0
 15 52  1  0
 15 53  1  0
 18 54  1  0
 19 55  1  0
 21 56  1  0
 24 57  1  0
 25 58  1  0
 25 59  1  0
 26 60  1  0
 27 61  1  0
 27 62  1  0
 28 63  1  0
 28 64  1  0
 29 65  1  0
 29 66  1  0
 30 67  1  0
 30 68  1  0
 31 69  1  0
 31 70  1  0
 32 71  1  0
 33 72  1  0
 34 73  1  0
 37 74  1  0
 38 75  1  0
 39 76  1  0
 39 77  1  0
 40 78  1  0
 40 79  1  0
M  CHG  1   2   1
M  END
>  <meeko>  (3) 
{"is_sidechain": [false], "free_energy": -8.819, "intermolecular_energy": -12.094, "internal_energy": -1.043}

$$$$
LIB_LVSWEGNPHRUXSW__M_PUB_ALL__e8__s20260927
     RDKit          3D

 79 84  0  0  0  0  0  0  0  0999 V2000
   18.4300  -25.3560   -4.0040 C   0  0  0  0  0  0  0  0  0  0  0  0
   16.9400  -25.3490   -3.8370 N   0  0  0  0  0  0  0  0  0  0  0  0
   16.3810  -23.9930   -3.4180 C   0  0  0  0  0  0  0  0  0  0  0  0
   16.3820  -22.9790   -4.5800 C   0  0  0  0  0  0  0  0  0  0  0  0
   15.7430  -23.5460   -5.7820 N   0  0  0  0  0  0  0  0  0  0  0  0
   15.2450  -22.6450   -6.7230 C   0  0  0  0  0  0  0  0  0  0  0  0
   15.7360  -22.5710   -8.0330 C   0  0  0  0  0  0  0  0  0  0  0  0
   15.2190  -21.6580   -8.9650 C   0  0  0  0  0  0  0  0  0  0  0  0
   14.1790  -20.7910   -8.6180 C   0  0  0  0  0  0  0  0  0  0  0  0
   13.6650  -19.8380   -9.5880 C   0  0  0  0  0  0  0  0  0  0  0  0
   13.0450  -20.0700  -10.8340 C   0  0  0  0  0  0  0  0  0  0  0  0
   12.6870  -18.9540  -11.4650 N   0  0  0  0  0  0  0  0  0  0  0  0
   13.0760  -17.9510  -10.6220 N   0  0  0  0  0  0  0  0  0  0  0  0
   12.9170  -16.5550  -10.8380 C   0  0  0  0  0  0  0  0  0  0  0  0
   12.3120  -16.1740  -12.0180 N   0  0  0  0  0  0  0  0  0  0  0  0
   13.3600  -15.7090   -9.8810 C   0  0  0  0  0  0  0  0  0  0  0  0
   13.2650  -14.2490   -9.9640 C   0  0  0  0  0  0  0  0  0  0  0  0
   12.1330  -13.5840   -9.4820 C   0  0  0  0  0  0  0  0  0  0  0  0
   12.0460  -12.1900   -9.5650 C   0  0  0  0  0  0  0  0  0  0  0  0
   13.0840  -11.4390  -10.1310 C   0  0  0  0  0  0  0  0  0  0  0  0
   12.9160  -10.0400  -10.1780 N   0  0  0  0  0  0  0  0  0  0  0  0
   11.9500   -9.3290  -10.8560 C   0  0  0  0  0  0  0  0  0  0  0  0
   11.0280   -9.7930  -11.5130 O   0  0  0  0  0  0  0  0  0  0  0  0
   12.1340   -7.9710  -10.7020 N   0  0  0  0  0  0  0  0  0  0  0  0
   11.2280   -7.0130  -11.3070 C   0  0  0  0  0  0  0  0  0  0  0  0
   11.9650   -5.7730  -11.8310 C   0  0  0  0  0  0  0  0  0  0  0  0
   11.1400   -4.4930  -11.6100 C   0  0  0  0  0  0  0  0  0  0  0  0
   11.8340   -3.2640  -12.1900 C   0  0  0  0  0  0  0  0  0  0  0  0
   12.1710   -3.4500  -13.6660 C   0  0  0  0  0  0  0  0  0  0  0  0
   12.9900   -4.7150  -13.8970 C   0  0  0  0  0  0  0  0  0  0  0  0
   12.2970   -5.9470  -13.3220 C   0  0  0  0  0  0  0  0  0  0  0  0
   14.2130  -12.1050  -10.6080 C   0  0  0  0  0  0  0  0  0  0  0  0
   14.3040  -13.5010  -10.5270 C   0  0  0  0  0  0  0  0  0  0  0  0
   13.9700  -16.3560   -8.6780 C   0  0  0  0  0  0  0  0  0  0  0  0
   14.1230  -17.6290   -8.4660 N   0  0  0  0  0  0  0  0  0  0  0  0
   13.6740  -18.4580   -9.4580 C   0  0  0  0  0  0  0  0  0  0  0  0
   13.6730  -20.8600   -7.3190 C   0  0  0  0  0  0  0  0  0  0  0  0
   14.1970  -21.7730   -6.3920 C   0  0  0  0  0  0  0  0  0  0  0  0
   16.1930  -24.8740   -6.2210 C   0  0  0  0  0  0  0  0  0  0  0  0
   16.1870  -25.8790   -5.0520 C   0  0  0  0  0  0  0  0  0  0  0  0
   18.9099  -25.3583   -3.0142 H   0  0  0  0  0  0  0  0  0  0  0  0
   18.7324  -26.2556   -4.5602 H   0  0  0  0  0  0  0  0  0  0  0  0
   18.7408  -24.4593   -4.5602 H   0  0  0  0  0  0  0  0  0  0  0  0
   16.7310  -25.9940   -3.0660 H   0  0  0  0  0  0  0  0  0  0  0  0
   15.3474  -24.1289   -3.0671 H   0  0  0  0  0  0  0  0  0  0  0  0
   17.0249  -23.5938   -2.6205 H   0  0  0  0  0  0  0  0  0  0  0  0
   15.8306  -22.0786   -4.2712 H   0  0  0  0  0  0  0  0  0  0  0  0
   17.4251  -22.7297   -4.8244 H   0  0  0  0  0  0  0  0  0  0  0  0
   16.5484  -23.2465   -8.3392 H   0  0  0  0  0  0  0  0  0  0  0  0
   15.6376  -21.6243   -9.9817 H   0  0  0  0  0  0  0  0  0  0  0  0
   12.8740  -21.0761  -11.2444 H   0  0  0  0  0  0  0  0  0  0  0  0
   11.3330  -15.9200  -12.0540 H   0  0  0  0  0  0  0  0  0  0  0  0
   12.8850  -16.1660  -12.8600 H   0  0  0  0  0  0  0  0  0  0  0  0
   11.3081  -14.1590   -9.0360 H   0  0  0  0  0  0  0  0  0  0  0  0
   11.1515  -11.6776   -9.1811 H   0  0  0  0  0  0  0  0  0  0  0  0
   13.5500   -9.4920   -9.6190 H   0  0  0  0  0  0  0  0  0  0  0  0
   13.0060   -7.6320  -10.3310 H   0  0  0  0  0  0  0  0  0  0  0  0
   10.7080   -7.4977  -12.1464 H   0  0  0  0  0  0  0  0  0  0  0  0
   10.5177   -6.6837  -10.5343 H   0  0  0  0  0  0  0  0  0  0  0  0
   12.9016   -5.6685  -11.2637 H   0  0  0  0  0  0  0  0  0  0  0  0
   10.1609   -4.6120  -12.0970 H   0  0  0  0  0  0  0  0  0  0  0  0
   11.0269   -4.3421  -10.5263 H   0  0  0  0  0  0  0  0  0  0  0  0
   11.1681   -2.3950  -12.0832 H   0  0  0  0  0  0  0  0  0  0  0  0
   12.7744   -3.1101  -11.6405 H   0  0  0  0  0  0  0  0  0  0  0  0
   11.2354   -3.5201  -14.2402 H   0  0  0  0  0  0  0  0  0  0  0  0
   12.7686   -2.5871  -13.9950 H   0  0  0  0  0  0  0  0  0  0  0  0
   13.1301   -4.8568  -14.9788 H   0  0  0  0  0  0  0  0  0  0  0  0
   13.9575   -4.5958  -13.3873 H   0  0  0  0  0  0  0  0  0  0  0  0
   11.3631   -6.1213  -13.8765 H   0  0  0  0  0  0  0  0  0  0  0  0
   12.9821   -6.8018  -13.4217 H   0  0  0  0  0  0  0  0  0  0  0  0
   15.0389  -11.5295  -11.0515 H   0  0  0  0  0  0  0  0  0  0  0  0
   15.1997  -14.0125  -10.9092 H   0  0  0  0  0  0  0  0  0  0  0  0
   14.3280  -15.6808   -7.8868 H   0  0  0  0  0  0  0  0  0  0  0  0
   12.8536  -20.1904   -7.0187 H   0  0  0  0  0  0  0  0  0  0  0  0
   13.7744  -21.8062   -5.3770 H   0  0  0  0  0  0  0  0  0  0  0  0
   15.5195  -25.2382   -7.0108 H   0  0  0  0  0  0  0  0  0  0  0  0
   17.2221  -24.7857   -6.5993 H   0  0  0  0  0  0  0  0  0  0  0  0
   15.1450  -26.0811   -4.7632 H   0  0  0  0  0  0  0  0  0  0  0  0
   16.6920  -26.7957   -5.3905 H   0  0  0  0  0  0  0  0  0  0  0  0
  1  2  1  0
  2  3  1  0
  3  4  1  0
  4  5  1  0
  5  6  1  0
  6  7  2  0
  7  8  1  0
  8  9  2  0
  9 10  1  0
 10 11  1  0
 11 12  2  0
 12 13  1  0
 13 14  1  0
 14 15  1  0
 14 16  2  0
 16 17  1  0
 17 18  2  0
 18 19  1  0
 19 20  2  0
 20 21  1  0
 21 22  1  0
 22 23  2  0
 22 24  1  0
 24 25  1  0
 25 26  1  0
 26 27  1  0
 27 28  1  0
 28 29  1  0
 29 30  1  0
 30 31  1  0
 20 32  1  0
 32 33  2  0
 16 34  1  0
 34 35  2  0
 35 36  1  0
  9 37  1  0
 37 38  2  0
  5 39  1  0
 39 40  1  0
 40  2  1  0
 38  6  1  0
 36 10  2  0
 36 13  1  0
 33 17  1  0
 31 26  1  0
  1 41  1  0
  1 42  1  0
  1 43  1  0
  2 44  1  0
  3 45  1  0
  3 46  1  0
  4 47  1  0
  4 48  1  0
  7 49  1  0
  8 50  1  0
 11 51  1  0
 15 52  1  0
 15 53  1  0
 18 54  1  0
 19 55  1  0
 21 56  1  0
 24 57  1  0
 25 58  1  0
 25 59  1  0
 26 60  1  0
 27 61  1  0
 27 62  1  0
 28 63  1  0
 28 64  1  0
 29 65  1  0
 29 66  1  0
 30 67  1  0
 30 68  1  0
 31 69  1  0
 31 70  1  0
 32 71  1  0
 33 72  1  0
 34 73  1  0
 37 74  1  0
 38 75  1  0
 39 76  1  0
 39 77  1  0
 40 78  1  0
 40 79  1  0
M  CHG  1   2   1
M  END
>  <meeko>  (4) 
{"is_sidechain": [false], "free_energy": -8.723, "intermolecular_energy": -12.225, "internal_energy": -0.778}

$$$$
LIB_LVSWEGNPHRUXSW__M_PUB_ALL__e8__s20260927
     RDKit          3D

 79 84  0  0  0  0  0  0  0  0999 V2000
   15.3670  -14.5950  -10.6730 C   0  0  0  0  0  0  0  0  0  0  0  0
   14.7280  -15.7950  -10.0400 N   0  0  0  0  0  0  0  0  0  0  0  0
   15.3690  -16.1980   -8.7170 C   0  0  0  0  0  0  0  0  0  0  0  0
   14.9930  -15.2370   -7.5710 C   0  0  0  0  0  0  0  0  0  0  0  0
   13.5330  -15.0440   -7.4950 N   0  0  0  0  0  0  0  0  0  0  0  0
   13.0100  -14.6150   -6.2760 C   0  0  0  0  0  0  0  0  0  0  0  0
   13.7660  -14.5800   -5.0970 C   0  0  0  0  0  0  0  0  0  0  0  0
   13.2200  -14.1430   -3.8810 C   0  0  0  0  0  0  0  0  0  0  0  0
   11.8920  -13.7110   -3.8060 C   0  0  0  0  0  0  0  0  0  0  0  0
   11.3330  -13.2770   -2.5360 C   0  0  0  0  0  0  0  0  0  0  0  0
   11.9690  -12.6560   -1.4410 C   0  0  0  0  0  0  0  0  0  0  0  0
   11.1440  -12.3850   -0.4320 N   0  0  0  0  0  0  0  0  0  0  0  0
    9.9280  -12.8360   -0.8610 N   0  0  0  0  0  0  0  0  0  0  0  0
    8.7020  -12.7800   -0.1430 C   0  0  0  0  0  0  0  0  0  0  0  0
    8.7450  -12.2160    1.1160 N   0  0  0  0  0  0  0  0  0  0  0  0
    7.5930  -13.2720   -0.7380 C   0  0  0  0  0  0  0  0  0  0  0  0
    6.2630  -13.2830   -0.1220 C   0  0  0  0  0  0  0  0  0  0  0  0
    5.8310  -14.3930    0.6100 C   0  0  0  0  0  0  0  0  0  0  0  0
    4.5590  -14.4010    1.1950 C   0  0  0  0  0  0  0  0  0  0  0  0
    3.7000  -13.3030    1.0560 C   0  0  0  0  0  0  0  0  0  0  0  0
    2.4370  -13.3910    1.6750 N   0  0  0  0  0  0  0  0  0  0  0  0
    1.2000  -13.4060    1.0660 C   0  0  0  0  0  0  0  0  0  0  0  0
    0.9770  -13.3870   -0.1360 O   0  0  0  0  0  0  0  0  0  0  0  0
    0.1880  -13.4560    2.0020 N   0  0  0  0  0  0  0  0  0  0  0  0
   -1.2070  -13.5020    1.6040 C   0  0  0  0  0  0  0  0  0  0  0  0
   -1.9110  -12.1530    1.8130 C   0  0  0  0  0  0  0  0  0  0  0  0
   -1.9910  -11.3520    0.5020 C   0  0  0  0  0  0  0  0  0  0  0  0
   -2.6280   -9.9810    0.7130 C   0  0  0  0  0  0  0  0  0  0  0  0
   -1.9090   -9.1860    1.7990 C   0  0  0  0  0  0  0  0  0  0  0  0
   -1.8260   -9.9710    3.1040 C   0  0  0  0  0  0  0  0  0  0  0  0
   -1.1850  -11.3410    2.8960 C   0  0  0  0  0  0  0  0  0  0  0  0
    4.1360  -12.1960    0.3270 C   0  0  0  0  0  0  0  0  0  0  0  0
    5.4070  -12.1860   -0.2600 C   0  0  0  0  0  0  0  0  0  0  0  0
    7.7880  -13.8210   -2.1160 C   0  0  0  0  0  0  0  0  0  0  0  0
    8.8990  -13.8800   -2.7860 N   0  0  0  0  0  0  0  0  0  0  0  0
   10.0060  -13.3830   -2.1510 C   0  0  0  0  0  0  0  0  0  0  0  0
   11.1280  -13.7320   -4.9750 C   0  0  0  0  0  0  0  0  0  0  0  0
   11.6810  -14.1730   -6.1860 C   0  0  0  0  0  0  0  0  0  0  0  0
   12.8340  -14.7010   -8.7420 C   0  0  0  0  0  0  0  0  0  0  0  0
   13.2170  -15.6690   -9.8790 C   0  0  0  0  0  0  0  0  0  0  0  0
   15.7290  -13.9152   -9.8876 H   0  0  0  0  0  0  0  0  0  0  0  0
   16.2131  -14.9169  -11.2979 H   0  0  0  0  0  0  0  0  0  0  0  0
   14.6276  -14.0727  -11.2979 H   0  0  0  0  0  0  0  0  0  0  0  0
   14.8830  -16.5800  -10.6830 H   0  0  0  0  0  0  0  0  0  0  0  0
   15.0320  -17.2116   -8.4543 H   0  0  0  0  0  0  0  0  0  0  0  0
   16.4608  -16.1598   -8.8452 H   0  0  0  0  0  0  0  0  0  0  0  0
   15.3496  -15.6569   -6.6189 H   0  0  0  0  0  0  0  0  0  0  0  0
   15.4639  -14.2620   -7.7651 H   0  0  0  0  0  0  0  0  0  0  0  0
   14.8168  -14.9042   -5.1256 H   0  0  0  0  0  0  0  0  0  0  0  0
   13.8441  -14.1401   -2.9752 H   0  0  0  0  0  0  0  0  0  0  0  0
   13.0429  -12.4186   -1.4225 H   0  0  0  0  0  0  0  0  0  0  0  0
    8.3720  -12.6960    1.9250 H   0  0  0  0  0  0  0  0  0  0  0  0
    9.1590  -11.2900    1.2030 H   0  0  0  0  0  0  0  0  0  0  0  0
    6.4931  -15.2636    0.7268 H   0  0  0  0  0  0  0  0  0  0  0  0
    4.2304  -15.2792    1.7702 H   0  0  0  0  0  0  0  0  0  0  0  0
    2.4320  -13.4970    2.6760 H   0  0  0  0  0  0  0  0  0  0  0  0
    0.4010  -13.2660    2.9680 H   0  0  0  0  0  0  0  0  0  0  0  0
   -1.2635  -13.7705    0.5388 H   0  0  0  0  0  0  0  0  0  0  0  0
   -1.7142  -14.2501    2.2310 H   0  0  0  0  0  0  0  0  0  0  0  0
   -2.9405  -12.3533    2.1447 H   0  0  0  0  0  0  0  0  0  0  0  0
   -0.9740  -11.2149    0.1060 H   0  0  0  0  0  0  0  0  0  0  0  0
   -2.6181  -11.9151   -0.2049 H   0  0  0  0  0  0  0  0  0  0  0  0
   -2.5823   -9.4176   -0.2307 H   0  0  0  0  0  0  0  0  0  0  0  0
   -3.6699  -10.1322    1.0316 H   0  0  0  0  0  0  0  0  0  0  0  0
   -0.8899   -8.9535    1.4563 H   0  0  0  0  0  0  0  0  0  0  0  0
   -2.4790   -8.2641    1.9864 H   0  0  0  0  0  0  0  0  0  0  0  0
   -1.2230   -9.4007    3.8259 H   0  0  0  0  0  0  0  0  0  0  0  0
   -2.8486  -10.1231    3.4797 H   0  0  0  0  0  0  0  0  0  0  0  0
   -0.1368  -11.2012    2.5932 H   0  0  0  0  0  0  0  0  0  0  0  0
   -1.2528  -11.8970    3.8427 H   0  0  0  0  0  0  0  0  0  0  0  0
    3.4755  -11.3238    0.2125 H   0  0  0  0  0  0  0  0  0  0  0  0
    5.7351  -11.3074   -0.8348 H   0  0  0  0  0  0  0  0  0  0  0  0
    6.8925  -14.2181   -2.6164 H   0  0  0  0  0  0  0  0  0  0  0  0
   10.0801  -13.3987   -4.9455 H   0  0  0  0  0  0  0  0  0  0  0  0
   11.0555  -14.1725   -7.0908 H   0  0  0  0  0  0  0  0  0  0  0  0
   11.7486  -14.7579   -8.5725 H   0  0  0  0  0  0  0  0  0  0  0  0
   13.1271  -13.6827   -9.0373 H   0  0  0  0  0  0  0  0  0  0  0  0
   12.8001  -16.6620   -9.6550 H   0  0  0  0  0  0  0  0  0  0  0  0
   12.8085  -15.2673  -10.8180 H   0  0  0  0  0  0  0  0  0  0  0  0
  1  2  1  0
  2  3  1  0
  3  4  1  0
  4  5  1  0
  5  6  1  0
  6  7  2  0
  7  8  1  0
  8  9  2  0
  9 10  1  0
 10 11  1  0
 11 12  2  0
 12 13  1  0
 13 14  1  0
 14 15  1  0
 14 16  2  0
 16 17  1  0
 17 18  2  0
 18 19  1  0
 19 20  2  0
 20 21  1  0
 21 22  1  0
 22 23  2  0
 22 24  1  0
 24 25  1  0
 25 26  1  0
 26 27  1  0
 27 28  1  0
 28 29  1  0
 29 30  1  0
 30 31  1  0
 20 32  1  0
 32 33  2  0
 16 34  1  0
 34 35  2  0
 35 36  1  0
  9 37  1  0
 37 38  2  0
  5 39  1  0
 39 40  1  0
 40  2  1  0
 38  6  1  0
 36 10  2  0
 36 13  1  0
 33 17  1  0
 31 26  1  0
  1 41  1  0
  1 42  1  0
  1 43  1  0
  2 44  1  0
  3 45  1  0
  3 46  1  0
  4 47  1  0
  4 48  1  0
  7 49  1  0
  8 50  1  0
 11 51  1  0
 15 52  1  0
 15 53  1  0
 18 54  1  0
 19 55  1  0
 21 56  1  0
 24 57  1  0
 25 58  1  0
 25 59  1  0
 26 60  1  0
 27 61  1  0
 27 62  1  0
 28 63  1  0
 28 64  1  0
 29 65  1  0
 29 66  1  0
 30 67  1  0
 30 68  1  0
 31 69  1  0
 31 70  1  0
 32 71  1  0
 33 72  1  0
 34 73  1  0
 37 74  1  0
 38 75  1  0
 39 76  1  0
 39 77  1  0
 40 78  1  0
 40 79  1  0
M  CHG  1   2   1
M  END
>  <meeko>  (5) 
{"is_sidechain": [false], "free_energy": -8.543, "intermolecular_energy": -11.968, "internal_energy": -0.787}

$$$$
LIB_LVSWEGNPHRUXSW__M_PUB_ALL__e8__s20260927
     RDKit          3D

 79 84  0  0  0  0  0  0  0  0999 V2000
    6.6060  -15.3500   -6.6220 C   0  0  0  0  0  0  0  0  0  0  0  0
    6.8220  -13.8990   -6.3080 N   0  0  0  0  0  0  0  0  0  0  0  0
    5.6010  -13.0280   -6.5850 C   0  0  0  0  0  0  0  0  0  0  0  0
    4.4960  -13.2220   -5.5270 C   0  0  0  0  0  0  0  0  0  0  0  0
    5.0350  -13.0820   -4.1620 N   0  0  0  0  0  0  0  0  0  0  0  0
    4.1310  -12.7590   -3.1500 C   0  0  0  0  0  0  0  0  0  0  0  0
    4.3930  -12.9990   -1.7950 C   0  0  0  0  0  0  0  0  0  0  0  0
    3.4700  -12.6640   -0.7930 C   0  0  0  0  0  0  0  0  0  0  0  0
    2.2500  -12.0630   -1.1150 C   0  0  0  0  0  0  0  0  0  0  0  0
    1.2940  -11.7380   -0.0680 C   0  0  0  0  0  0  0  0  0  0  0  0
    1.0360  -10.5010    0.5590 C   0  0  0  0  0  0  0  0  0  0  0  0
    0.0770  -10.5620    1.4790 N   0  0  0  0  0  0  0  0  0  0  0  0
   -0.3160  -11.8710    1.4700 N   0  0  0  0  0  0  0  0  0  0  0  0
   -1.3240  -12.4580    2.2810 C   0  0  0  0  0  0  0  0  0  0  0  0
   -1.9700  -11.6240    3.1710 N   0  0  0  0  0  0  0  0  0  0  0  0
   -1.5810  -13.7760    2.1230 C   0  0  0  0  0  0  0  0  0  0  0  0
   -2.5890  -14.5170    2.8870 C   0  0  0  0  0  0  0  0  0  0  0  0
   -2.2130  -15.5930    3.6980 C   0  0  0  0  0  0  0  0  0  0  0  0
   -3.1790  -16.2990    4.4230 C   0  0  0  0  0  0  0  0  0  0  0  0
   -4.5320  -15.9450    4.3500 C   0  0  0  0  0  0  0  0  0  0  0  0
   -5.4410  -16.7080    5.1110 N   0  0  0  0  0  0  0  0  0  0  0  0
   -6.1150  -16.3250    6.2500 C   0  0  0  0  0  0  0  0  0  0  0  0
   -6.0780  -15.2260    6.7870 O   0  0  0  0  0  0  0  0  0  0  0  0
   -6.8840  -17.3580    6.7420 N   0  0  0  0  0  0  0  0  0  0  0  0
   -7.7060  -17.1910    7.9270 C   0  0  0  0  0  0  0  0  0  0  0  0
   -9.1830  -16.9600    7.5770 C   0  0  0  0  0  0  0  0  0  0  0  0
   -9.7110  -15.6590    8.2040 C   0  0  0  0  0  0  0  0  0  0  0  0
  -11.1970  -15.4550    7.9190 C   0  0  0  0  0  0  0  0  0  0  0  0
  -12.0270  -16.6550    8.3650 C   0  0  0  0  0  0  0  0  0  0  0  0
  -11.5120  -17.9510    7.7480 C   0  0  0  0  0  0  0  0  0  0  0  0
  -10.0270  -18.1590    8.0350 C   0  0  0  0  0  0  0  0  0  0  0  0
   -4.9020  -14.8690    3.5420 C   0  0  0  0  0  0  0  0  0  0  0  0
   -3.9390  -14.1600    2.8140 C   0  0  0  0  0  0  0  0  0  0  0  0
   -0.7610  -14.4740    1.0840 C   0  0  0  0  0  0  0  0  0  0  0  0
    0.1630  -13.9530    0.3360 N   0  0  0  0  0  0  0  0  0  0  0  0
    0.4060  -12.6190    0.5270 C   0  0  0  0  0  0  0  0  0  0  0  0
    1.9780  -11.8090   -2.4600 C   0  0  0  0  0  0  0  0  0  0  0  0
    2.9050  -12.1490   -3.4570 C   0  0  0  0  0  0  0  0  0  0  0  0
    6.2420  -13.8530   -3.8320 C   0  0  0  0  0  0  0  0  0  0  0  0
    7.3400  -13.6510   -4.8960 C   0  0  0  0  0  0  0  0  0  0  0  0
    6.5212  -15.9193   -5.6846 H   0  0  0  0  0  0  0  0  0  0  0  0
    5.6808  -15.4650   -7.2058 H   0  0  0  0  0  0  0  0  0  0  0  0
    7.4575  -15.7295   -7.2058 H   0  0  0  0  0  0  0  0  0  0  0  0
    7.5570  -13.5710   -6.9450 H   0  0  0  0  0  0  0  0  0  0  0  0
    5.9110  -11.9726   -6.5842 H   0  0  0  0  0  0  0  0  0  0  0  0
    5.1896  -13.3233   -7.5615 H   0  0  0  0  0  0  0  0  0  0  0  0
    3.7129  -12.4654   -5.6830 H   0  0  0  0  0  0  0  0  0  0  0  0
    4.0829  -14.2356   -5.6363 H   0  0  0  0  0  0  0  0  0  0  0  0
    5.3485  -13.4628   -1.5088 H   0  0  0  0  0  0  0  0  0  0  0  0
    3.7095  -12.8770    0.2593 H   0  0  0  0  0  0  0  0  0  0  0  0
    1.5758   -9.5751    0.3111 H   0  0  0  0  0  0  0  0  0  0  0  0
   -1.7470  -10.6380    3.2320 H   0  0  0  0  0  0  0  0  0  0  0  0
   -2.6770  -12.0380    3.7760 H   0  0  0  0  0  0  0  0  0  0  0  0
   -1.1546  -15.8849    3.7659 H   0  0  0  0  0  0  0  0  0  0  0  0
   -2.8719  -17.1428    5.0584 H   0  0  0  0  0  0  0  0  0  0  0  0
   -5.6570  -17.6280    4.7640 H   0  0  0  0  0  0  0  0  0  0  0  0
   -6.7330  -18.2920    6.3960 H   0  0  0  0  0  0  0  0  0  0  0  0
   -7.6254  -18.0972    8.5452 H   0  0  0  0  0  0  0  0  0  0  0  0
   -7.3435  -16.3050    8.4688 H   0  0  0  0  0  0  0  0  0  0  0  0
   -9.2639  -16.8607    6.4845 H   0  0  0  0  0  0  0  0  0  0  0  0
   -9.5597  -15.7014    9.2927 H   0  0  0  0  0  0  0  0  0  0  0  0
   -9.1590  -14.8171    7.7608 H   0  0  0  0  0  0  0  0  0  0  0  0
  -11.5440  -14.5613    8.4583 H   0  0  0  0  0  0  0  0  0  0  0  0
  -11.3245  -15.3344    6.8331 H   0  0  0  0  0  0  0  0  0  0  0  0
  -11.9775  -16.7364    9.4609 H   0  0  0  0  0  0  0  0  0  0  0  0
  -13.0635  -16.5014    8.0302 H   0  0  0  0  0  0  0  0  0  0  0  0
  -12.0783  -18.7957    8.1673 H   0  0  0  0  0  0  0  0  0  0  0  0
  -11.6465  -17.8902    6.6579 H   0  0  0  0  0  0  0  0  0  0  0  0
   -9.8898  -18.2980    9.1175 H   0  0  0  0  0  0  0  0  0  0  0  0
   -9.6922  -19.0455    7.4765 H   0  0  0  0  0  0  0  0  0  0  0  0
   -5.9600  -14.5752    3.4765 H   0  0  0  0  0  0  0  0  0  0  0  0
   -4.2467  -13.3156    2.1797 H   0  0  0  0  0  0  0  0  0  0  0  0
   -0.9633  -15.5454    0.9383 H   0  0  0  0  0  0  0  0  0  0  0  0
    1.0255  -11.3366   -2.7420 H   0  0  0  0  0  0  0  0  0  0  0  0
    2.6641  -11.9314   -4.5080 H   0  0  0  0  0  0  0  0  0  0  0  0
    6.6236  -13.5217   -2.8550 H   0  0  0  0  0  0  0  0  0  0  0  0
    5.9769  -14.9202   -3.8027 H   0  0  0  0  0  0  0  0  0  0  0  0
    7.7115  -12.6177   -4.8307 H   0  0  0  0  0  0  0  0  0  0  0  0
    8.1424  -14.3766   -4.6970 H   0  0  0  0  0  0  0  0  0  0  0  0
  1  2  1  0
  2  3  1  0
  3  4  1  0
  4  5  1  0
  5  6  1  0
  6  7  2  0
  7  8  1  0
  8  9  2  0
  9 10  1  0
 10 11  1  0
 11 12  2  0
 12 13  1  0
 13 14  1  0
 14 15  1  0
 14 16  2  0
 16 17  1  0
 17 18  2  0
 18 19  1  0
 19 20  2  0
 20 21  1  0
 21 22  1  0
 22 23  2  0
 22 24  1  0
 24 25  1  0
 25 26  1  0
 26 27  1  0
 27 28  1  0
 28 29  1  0
 29 30  1  0
 30 31  1  0
 20 32  1  0
 32 33  2  0
 16 34  1  0
 34 35  2  0
 35 36  1  0
  9 37  1  0
 37 38  2  0
  5 39  1  0
 39 40  1  0
 40  2  1  0
 38  6  1  0
 36 10  2  0
 36 13  1  0
 33 17  1  0
 31 26  1  0
  1 41  1  0
  1 42  1  0
  1 43  1  0
  2 44  1  0
  3 45  1  0
  3 46  1  0
  4 47  1  0
  4 48  1  0
  7 49  1  0
  8 50  1  0
 11 51  1  0
 15 52  1  0
 15 53  1  0
 18 54  1  0
 19 55  1  0
 21 56  1  0
 24 57  1  0
 25 58  1  0
 25 59  1  0
 26 60  1  0
 27 61  1  0
 27 62  1  0
 28 63  1  0
 28 64  1  0
 29 65  1  0
 29 66  1  0
 30 67  1  0
 30 68  1  0
 31 69  1  0
 31 70  1  0
 32 71  1  0
 33 72  1  0
 34 73  1  0
 37 74  1  0
 38 75  1  0
 39 76  1  0
 39 77  1  0
 40 78  1  0
 40 79  1  0
M  CHG  1   2   1
M  END
>  <meeko>  (6) 
{"is_sidechain": [false], "free_energy": -8.319, "intermolecular_energy": -11.613, "internal_energy": -0.833}

$$$$
LIB_LVSWEGNPHRUXSW__M_PUB_ALL__e8__s20260927
     RDKit          3D

 79 84  0  0  0  0  0  0  0  0999 V2000
   14.4320  -12.9460  -12.1580 C   0  0  0  0  0  0  0  0  0  0  0  0
   13.0030  -12.5110  -12.2880 N   0  0  0  0  0  0  0  0  0  0  0  0
   12.0180  -13.6730  -12.3640 C   0  0  0  0  0  0  0  0  0  0  0  0
   11.8170  -14.3560  -10.9960 C   0  0  0  0  0  0  0  0  0  0  0  0
   11.4990  -13.3680   -9.9490 N   0  0  0  0  0  0  0  0  0  0  0  0
   10.8400  -13.8350   -8.8110 C   0  0  0  0  0  0  0  0  0  0  0  0
   11.4980  -14.0590   -7.5940 C   0  0  0  0  0  0  0  0  0  0  0  0
   10.8150  -14.5280   -6.4610 C   0  0  0  0  0  0  0  0  0  0  0  0
    9.4400  -14.7780   -6.5060 C   0  0  0  0  0  0  0  0  0  0  0  0
    8.7480  -15.2800   -5.3300 C   0  0  0  0  0  0  0  0  0  0  0  0
    8.9150  -16.5010   -4.6440 C   0  0  0  0  0  0  0  0  0  0  0  0
    8.1130  -16.6320   -3.5900 N   0  0  0  0  0  0  0  0  0  0  0  0
    7.3910  -15.4720   -3.5700 N   0  0  0  0  0  0  0  0  0  0  0  0
    6.3870  -15.1150   -2.6300 C   0  0  0  0  0  0  0  0  0  0  0  0
    6.1100  -16.0340   -1.6380 N   0  0  0  0  0  0  0  0  0  0  0  0
    5.7840  -13.9130   -2.7680 C   0  0  0  0  0  0  0  0  0  0  0  0
    4.7330  -13.4100   -1.8770 C   0  0  0  0  0  0  0  0  0  0  0  0
    5.0670  -12.7220   -0.7070 C   0  0  0  0  0  0  0  0  0  0  0  0
    4.0610  -12.2460    0.1420 C   0  0  0  0  0  0  0  0  0  0  0  0
    2.7090  -12.4510   -0.1620 C   0  0  0  0  0  0  0  0  0  0  0  0
    1.7590  -11.9410    0.7450 N   0  0  0  0  0  0  0  0  0  0  0  0
    0.8640  -10.9140    0.5390 C   0  0  0  0  0  0  0  0  0  0  0  0
    0.7030  -10.2820   -0.4960 O   0  0  0  0  0  0  0  0  0  0  0  0
    0.1230  -10.6660    1.6750 N   0  0  0  0  0  0  0  0  0  0  0  0
   -0.9040   -9.6420    1.6990 C   0  0  0  0  0  0  0  0  0  0  0  0
   -2.3070  -10.2250    1.4760 C   0  0  0  0  0  0  0  0  0  0  0  0
   -2.4280  -11.6400    2.0680 C   0  0  0  0  0  0  0  0  0  0  0  0
   -3.7970  -12.2550    1.7910 C   0  0  0  0  0  0  0  0  0  0  0  0
   -4.1260  -12.2530    0.3010 C   0  0  0  0  0  0  0  0  0  0  0  0
   -4.0100  -10.8540   -0.2950 C   0  0  0  0  0  0  0  0  0  0  0  0
   -2.6400  -10.2380   -0.0230 C   0  0  0  0  0  0  0  0  0  0  0  0
    2.3810  -13.1360   -1.3330 C   0  0  0  0  0  0  0  0  0  0  0  0
    3.3850  -13.6150   -2.1840 C   0  0  0  0  0  0  0  0  0  0  0  0
    6.2610  -13.0780   -3.9130 C   0  0  0  0  0  0  0  0  0  0  0  0
    7.1760  -13.3890   -4.7810 N   0  0  0  0  0  0  0  0  0  0  0  0
    7.7600  -14.6170   -4.6200 C   0  0  0  0  0  0  0  0  0  0  0  0
    8.7700  -14.5500   -7.7090 C   0  0  0  0  0  0  0  0  0  0  0  0
    9.4600  -14.0850   -8.8380 C   0  0  0  0  0  0  0  0  0  0  0  0
   12.3750  -12.1920   -9.8440 C   0  0  0  0  0  0  0  0  0  0  0  0
   12.5670  -11.5170  -11.2170 C   0  0  0  0  0  0  0  0  0  0  0  0
   14.6954  -13.0262  -11.0930 H   0  0  0  0  0  0  0  0  0  0  0  0
   14.5629  -13.9247  -12.6428 H   0  0  0  0  0  0  0  0  0  0  0  0
   15.0860  -12.2063  -12.6428 H   0  0  0  0  0  0  0  0  0  0  0  0
   12.9300  -12.0160  -13.1850 H   0  0  0  0  0  0  0  0  0  0  0  0
   11.0478  -13.2926  -12.7161 H   0  0  0  0  0  0  0  0  0  0  0  0
   12.4302  -14.4206  -13.0576 H   0  0  0  0  0  0  0  0  0  0  0  0
   10.9894  -15.0766  -11.0728 H   0  0  0  0  0  0  0  0  0  0  0  0
   12.7515  -14.8669  -10.7208 H   0  0  0  0  0  0  0  0  0  0  0  0
   12.5780  -13.8621   -7.5249 H   0  0  0  0  0  0  0  0  0  0  0  0
   11.3683  -14.7010   -5.5261 H   0  0  0  0  0  0  0  0  0  0  0  0
    9.6384  -17.2708   -4.9506 H   0  0  0  0  0  0  0  0  0  0  0  0
    5.4070  -16.7520   -1.7620 H   0  0  0  0  0  0  0  0  0  0  0  0
    6.6320  -15.9580   -0.7670 H   0  0  0  0  0  0  0  0  0  0  0  0
    6.1239  -12.5541   -0.4526 H   0  0  0  0  0  0  0  0  0  0  0  0
    4.3355  -11.7043    1.0592 H   0  0  0  0  0  0  0  0  0  0  0  0
    1.6950  -12.4040    1.6370 H   0  0  0  0  0  0  0  0  0  0  0  0
    0.4200  -11.0620    2.5520 H   0  0  0  0  0  0  0  0  0  0  0  0
   -0.8804   -9.1389    2.6769 H   0  0  0  0  0  0  0  0  0  0  0  0
   -0.6970   -8.9357    0.8815 H   0  0  0  0  0  0  0  0  0  0  0  0
   -3.0310   -9.5826    1.9986 H   0  0  0  0  0  0  0  0  0  0  0  0
   -1.6530  -12.2803    1.6214 H   0  0  0  0  0  0  0  0  0  0  0  0
   -2.3003  -11.5667    3.1581 H   0  0  0  0  0  0  0  0  0  0  0  0
   -3.8019  -13.2928    2.1557 H   0  0  0  0  0  0  0  0  0  0  0  0
   -4.5555  -11.6509    2.3103 H   0  0  0  0  0  0  0  0  0  0  0  0
   -3.4264  -12.9228   -0.2204 H   0  0  0  0  0  0  0  0  0  0  0  0
   -5.1635  -12.5965    0.1761 H   0  0  0  0  0  0  0  0  0  0  0  0
   -4.1640  -10.9156   -1.3824 H   0  0  0  0  0  0  0  0  0  0  0  0
   -4.7730  -10.2160    0.1748 H   0  0  0  0  0  0  0  0  0  0  0  0
   -1.8747  -10.8244   -0.5525 H   0  0  0  0  0  0  0  0  0  0  0  0
   -2.6570   -9.1970   -0.3781 H   0  0  0  0  0  0  0  0  0  0  0  0
    1.3243  -13.3012   -1.5899 H   0  0  0  0  0  0  0  0  0  0  0  0
    3.1104  -14.1568   -3.1011 H   0  0  0  0  0  0  0  0  0  0  0  0
    5.7854  -12.0934   -4.0334 H   0  0  0  0  0  0  0  0  0  0  0  0
    7.6879  -14.7372   -7.7724 H   0  0  0  0  0  0  0  0  0  0  0  0
    8.9034  -13.9115   -9.7708 H   0  0  0  0  0  0  0  0  0  0  0  0
   11.9237  -11.4691   -9.1485 H   0  0  0  0  0  0  0  0  0  0  0  0
   13.3582  -12.5210   -9.4765 H   0  0  0  0  0  0  0  0  0  0  0  0
   11.6148  -11.0597  -11.5238 H   0  0  0  0  0  0  0  0  0  0  0  0
   13.3583  -10.7598  -11.1149 H   0  0  0  0  0  0  0  0  0  0  0  0
  1  2  1  0
  2  3  1  0
  3  4  1  0
  4  5  1  0
  5  6  1  0
  6  7  2  0
  7  8  1  0
  8  9  2  0
  9 10  1  0
 10 11  1  0
 11 12  2  0
 12 13  1  0
 13 14  1  0
 14 15  1  0
 14 16  2  0
 16 17  1  0
 17 18  2  0
 18 19  1  0
 19 20  2  0
 20 21  1  0
 21 22  1  0
 22 23  2  0
 22 24  1  0
 24 25  1  0
 25 26  1  0
 26 27  1  0
 27 28  1  0
 28 29  1  0
 29 30  1  0
 30 31  1  0
 20 32  1  0
 32 33  2  0
 16 34  1  0
 34 35  2  0
 35 36  1  0
  9 37  1  0
 37 38  2  0
  5 39  1  0
 39 40  1  0
 40  2  1  0
 38  6  1  0
 36 10  2  0
 36 13  1  0
 33 17  1  0
 31 26  1  0
  1 41  1  0
  1 42  1  0
  1 43  1  0
  2 44  1  0
  3 45  1  0
  3 46  1  0
  4 47  1  0
  4 48  1  0
  7 49  1  0
  8 50  1  0
 11 51  1  0
 15 52  1  0
 15 53  1  0
 18 54  1  0
 19 55  1  0
 21 56  1  0
 24 57  1  0
 25 58  1  0
 25 59  1  0
 26 60  1  0
 27 61  1  0
 27 62  1  0
 28 63  1  0
 28 64  1  0
 29 65  1  0
 29 66  1  0
 30 67  1  0
 30 68  1  0
 31 69  1  0
 31 70  1  0
 32 71  1  0
 33 72  1  0
 34 73  1  0
 37 74  1  0
 38 75  1  0
 39 76  1  0
 39 77  1  0
 40 78  1  0
 40 79  1  0
M  CHG  1   2   1
M  END
>  <meeko>  (7) 
{"is_sidechain": [false], "free_energy": -8.273, "intermolecular_energy": -11.444, "internal_energy": -0.937}

$$$$
LIB_LVSWEGNPHRUXSW__M_PUB_ALL__e8__s20260927
     RDKit          3D

 79 84  0  0  0  0  0  0  0  0999 V2000
   -2.1920  -16.2920   -0.1670 C   0  0  0  0  0  0  0  0  0  0  0  0
   -1.4940  -16.6250    1.1170 N   0  0  0  0  0  0  0  0  0  0  0  0
   -0.2660  -17.5090    0.9300 C   0  0  0  0  0  0  0  0  0  0  0  0
    0.9270  -16.7310    0.3380 C   0  0  0  0  0  0  0  0  0  0  0  0
    1.1870  -15.4960    1.0990 N   0  0  0  0  0  0  0  0  0  0  0  0
    2.4670  -14.9480    1.0060 C   0  0  0  0  0  0  0  0  0  0  0  0
    2.6950  -13.6130    0.6460 C   0  0  0  0  0  0  0  0  0  0  0  0
    3.9910  -13.0820    0.5600 C   0  0  0  0  0  0  0  0  0  0  0  0
    5.1090  -13.8720    0.8450 C   0  0  0  0  0  0  0  0  0  0  0  0
    6.4470  -13.3140    0.7340 C   0  0  0  0  0  0  0  0  0  0  0  0
    7.1050  -12.3880    1.5700 C   0  0  0  0  0  0  0  0  0  0  0  0
    8.3430  -12.1010    1.1740 N   0  0  0  0  0  0  0  0  0  0  0  0
    8.5170  -12.8520    0.0450 N   0  0  0  0  0  0  0  0  0  0  0  0
    9.6830  -12.9030   -0.7660 C   0  0  0  0  0  0  0  0  0  0  0  0
   10.7460  -12.1130   -0.3770 N   0  0  0  0  0  0  0  0  0  0  0  0
    9.6720  -13.7160   -1.8460 C   0  0  0  0  0  0  0  0  0  0  0  0
   10.7980  -13.8720   -2.7720 C   0  0  0  0  0  0  0  0  0  0  0  0
   10.8350  -13.1500   -3.9690 C   0  0  0  0  0  0  0  0  0  0  0  0
   11.9100  -13.3040   -4.8520 C   0  0  0  0  0  0  0  0  0  0  0  0
   12.9620  -14.1800   -4.5550 C   0  0  0  0  0  0  0  0  0  0  0  0
   14.0060  -14.2770   -5.4970 N   0  0  0  0  0  0  0  0  0  0  0  0
   14.1390  -15.1970   -6.5140 C   0  0  0  0  0  0  0  0  0  0  0  0
   13.3450  -16.0790   -6.8110 O   0  0  0  0  0  0  0  0  0  0  0  0
   15.3180  -15.0060   -7.2050 N   0  0  0  0  0  0  0  0  0  0  0  0
   15.6740  -15.8400   -8.3370 C   0  0  0  0  0  0  0  0  0  0  0  0
   15.7610  -15.0350   -9.6420 C   0  0  0  0  0  0  0  0  0  0  0  0
   14.5910  -14.0450   -9.7710 C   0  0  0  0  0  0  0  0  0  0  0  0
   14.6320  -13.2900  -11.0970 C   0  0  0  0  0  0  0  0  0  0  0  0
   14.6780  -14.2420  -12.2880 C   0  0  0  0  0  0  0  0  0  0  0  0
   15.8360  -15.2280  -12.1700 C   0  0  0  0  0  0  0  0  0  0  0  0
   15.7960  -15.9870  -10.8470 C   0  0  0  0  0  0  0  0  0  0  0  0
   12.9220  -14.8960   -3.3580 C   0  0  0  0  0  0  0  0  0  0  0  0
   11.8480  -14.7450   -2.4730 C   0  0  0  0  0  0  0  0  0  0  0  0
    8.4100  -14.4900   -2.0600 C   0  0  0  0  0  0  0  0  0  0  0  0
    7.3360  -14.4540   -1.3290 N   0  0  0  0  0  0  0  0  0  0  0  0
    7.3760  -13.6130   -0.2500 C   0  0  0  0  0  0  0  0  0  0  0  0
    4.8970  -15.2020    1.2130 C   0  0  0  0  0  0  0  0  0  0  0  0
    3.5980  -15.7260    1.2940 C   0  0  0  0  0  0  0  0  0  0  0  0
    0.0420  -14.6130    1.3640 C   0  0  0  0  0  0  0  0  0  0  0  0
   -1.1430  -15.4020    1.9570 C   0  0  0  0  0  0  0  0  0  0  0  0
   -3.1646  -15.8280    0.0540 H   0  0  0  0  0  0  0  0  0  0  0  0
   -1.5751  -15.5912   -0.7486 H   0  0  0  0  0  0  0  0  0  0  0  0
   -2.3486  -17.2124   -0.7486 H   0  0  0  0  0  0  0  0  0  0  0  0
   -2.1590  -17.1740    1.6750 H   0  0  0  0  0  0  0  0  0  0  0  0
    0.0281  -17.9183    1.9077 H   0  0  0  0  0  0  0  0  0  0  0  0
   -0.5307  -18.3099    0.2240 H   0  0  0  0  0  0  0  0  0  0  0  0
    1.8230  -17.3683    0.3708 H   0  0  0  0  0  0  0  0  0  0  0  0
    0.6844  -16.4569   -0.6993 H   0  0  0  0  0  0  0  0  0  0  0  0
    1.8349  -12.9639    0.4249 H   0  0  0  0  0  0  0  0  0  0  0  0
    4.1292  -12.0314    0.2648 H   0  0  0  0  0  0  0  0  0  0  0  0
    6.6399  -11.9456    2.4633 H   0  0  0  0  0  0  0  0  0  0  0  0
   11.6820  -12.4870   -0.2900 H   0  0  0  0  0  0  0  0  0  0  0  0
   10.5530  -11.1340   -0.1680 H   0  0  0  0  0  0  0  0  0  0  0  0
   10.0164  -12.4586   -4.2175 H   0  0  0  0  0  0  0  0  0  0  0  0
   11.9290  -12.7303   -5.7904 H   0  0  0  0  0  0  0  0  0  0  0  0
   14.7200  -13.5690   -5.4520 H   0  0  0  0  0  0  0  0  0  0  0  0
   16.0280  -14.4120   -6.8090 H   0  0  0  0  0  0  0  0  0  0  0  0
   16.6513  -16.3054   -8.1414 H   0  0  0  0  0  0  0  0  0  0  0  0
   14.8878  -16.5996   -8.4590 H   0  0  0  0  0  0  0  0  0  0  0  0
   16.6917  -14.4490   -9.6202 H   0  0  0  0  0  0  0  0  0  0  0  0
   13.6445  -14.6019   -9.7073 H   0  0  0  0  0  0  0  0  0  0  0  0
   14.6727  -13.3105   -8.9562 H   0  0  0  0  0  0  0  0  0  0  0  0
   13.7325  -12.6619  -11.1774 H   0  0  0  0  0  0  0  0  0  0  0  0
   15.5447  -12.6762  -11.1136 H   0  0  0  0  0  0  0  0  0  0  0  0
   13.7333  -14.8037  -12.3335 H   0  0  0  0  0  0  0  0  0  0  0  0
   14.8232  -13.6462  -13.2012 H   0  0  0  0  0  0  0  0  0  0  0  0
   15.7755  -15.9501  -12.9976 H   0  0  0  0  0  0  0  0  0  0  0  0
   16.7769  -14.6597  -12.2119 H   0  0  0  0  0  0  0  0  0  0  0  0
   14.8963  -16.6196  -10.8268 H   0  0  0  0  0  0  0  0  0  0  0  0
   16.7097  -16.5952  -10.7748 H   0  0  0  0  0  0  0  0  0  0  0  0
   13.7418  -15.5853   -3.1076 H   0  0  0  0  0  0  0  0  0  0  0  0
   11.8301  -15.3182   -1.5343 H   0  0  0  0  0  0  0  0  0  0  0  0
    8.3886  -15.1624   -2.9303 H   0  0  0  0  0  0  0  0  0  0  0  0
    5.7584  -15.8466    1.4421 H   0  0  0  0  0  0  0  0  0  0  0  0
    3.4628  -16.7763    1.5917 H   0  0  0  0  0  0  0  0  0  0  0  0
    0.3473  -13.8334    2.0774 H   0  0  0  0  0  0  0  0  0  0  0  0
   -0.2792  -14.1630    0.4130 H   0  0  0  0  0  0  0  0  0  0  0  0
   -0.8768  -15.7329    2.9717 H   0  0  0  0  0  0  0  0  0  0  0  0
   -2.0195  -14.7376    1.9716 H   0  0  0  0  0  0  0  0  0  0  0  0
  1  2  1  0
  2  3  1  0
  3  4  1  0
  4  5  1  0
  5  6  1  0
  6  7  2  0
  7  8  1  0
  8  9  2  0
  9 10  1  0
 10 11  1  0
 11 12  2  0
 12 13  1  0
 13 14  1  0
 14 15  1  0
 14 16  2  0
 16 17  1  0
 17 18  2  0
 18 19  1  0
 19 20  2  0
 20 21  1  0
 21 22  1  0
 22 23  2  0
 22 24  1  0
 24 25  1  0
 25 26  1  0
 26 27  1  0
 27 28  1  0
 28 29  1  0
 29 30  1  0
 30 31  1  0
 20 32  1  0
 32 33  2  0
 16 34  1  0
 34 35  2  0
 35 36  1  0
  9 37  1  0
 37 38  2  0
  5 39  1  0
 39 40  1  0
 40  2  1  0
 38  6  1  0
 36 10  2  0
 36 13  1  0
 33 17  1  0
 31 26  1  0
  1 41  1  0
  1 42  1  0
  1 43  1  0
  2 44  1  0
  3 45  1  0
  3 46  1  0
  4 47  1  0
  4 48  1  0
  7 49  1  0
  8 50  1  0
 11 51  1  0
 15 52  1  0
 15 53  1  0
 18 54  1  0
 19 55  1  0
 21 56  1  0
 24 57  1  0
 25 58  1  0
 25 59  1  0
 26 60  1  0
 27 61  1  0
 27 62  1  0
 28 63  1  0
 28 64  1  0
 29 65  1  0
 29 66  1  0
 30 67  1  0
 30 68  1  0
 31 69  1  0
 31 70  1  0
 32 71  1  0
 33 72  1  0
 34 73  1  0
 37 74  1  0
 38 75  1  0
 39 76  1  0
 39 77  1  0
 40 78  1  0
 40 79  1  0
M  CHG  1   2   1
M  END
>  <meeko>  (8) 
{"is_sidechain": [false], "free_energy": -8.22, "intermolecular_energy": -11.363, "internal_energy": -0.945}

$$$$
LIB_LVSWEGNPHRUXSW__M_PUB_ALL__e8__s20260927
     RDKit          3D

 79 84  0  0  0  0  0  0  0  0999 V2000
   12.6400  -20.0550  -12.4510 C   0  0  0  0  0  0  0  0  0  0  0  0
   12.7110  -19.9730  -10.9550 N   0  0  0  0  0  0  0  0  0  0  0  0
   13.1980  -18.6220  -10.4420 C   0  0  0  0  0  0  0  0  0  0  0  0
   12.1220  -17.5260  -10.5770 C   0  0  0  0  0  0  0  0  0  0  0  0
   10.8410  -17.9630   -9.9910 N   0  0  0  0  0  0  0  0  0  0  0  0
    9.9430  -16.9670   -9.6080 C   0  0  0  0  0  0  0  0  0  0  0  0
    8.5920  -16.9820   -9.9790 C   0  0  0  0  0  0  0  0  0  0  0  0
    7.7050  -15.9700   -9.5800 C   0  0  0  0  0  0  0  0  0  0  0  0
    8.1410  -14.9090   -8.7830 C   0  0  0  0  0  0  0  0  0  0  0  0
    7.2160  -13.8570   -8.3920 C   0  0  0  0  0  0  0  0  0  0  0  0
    6.8300  -12.6950   -9.0920 C   0  0  0  0  0  0  0  0  0  0  0  0
    5.9460  -11.9480   -8.4350 N   0  0  0  0  0  0  0  0  0  0  0  0
    5.7360  -12.6250   -7.2670 N   0  0  0  0  0  0  0  0  0  0  0  0
    4.8680  -12.2390   -6.2100 C   0  0  0  0  0  0  0  0  0  0  0  0
    4.1700  -11.0600   -6.3770 N   0  0  0  0  0  0  0  0  0  0  0  0
    4.7840  -13.0470   -5.1280 C   0  0  0  0  0  0  0  0  0  0  0  0
    3.9350  -12.7790   -3.9640 C   0  0  0  0  0  0  0  0  0  0  0  0
    2.6070  -13.2160   -3.9410 C   0  0  0  0  0  0  0  0  0  0  0  0
    1.7980  -12.9570   -2.8280 C   0  0  0  0  0  0  0  0  0  0  0  0
    2.3010  -12.2570   -1.7240 C   0  0  0  0  0  0  0  0  0  0  0  0
    1.4220  -12.0370   -0.6450 N   0  0  0  0  0  0  0  0  0  0  0  0
    0.6570  -10.9180   -0.3970 C   0  0  0  0  0  0  0  0  0  0  0  0
    0.5710   -9.9210   -1.1000 O   0  0  0  0  0  0  0  0  0  0  0  0
   -0.0460  -11.0500    0.7820 N   0  0  0  0  0  0  0  0  0  0  0  0
   -0.9420  -10.0070    1.2480 C   0  0  0  0  0  0  0  0  0  0  0  0
   -2.4160  -10.4190    1.1340 C   0  0  0  0  0  0  0  0  0  0  0  0
   -2.6390  -11.8550    1.6390 C   0  0  0  0  0  0  0  0  0  0  0  0
   -4.0900  -12.2980    1.4650 C   0  0  0  0  0  0  0  0  0  0  0  0
   -4.5570  -12.1460    0.0210 C   0  0  0  0  0  0  0  0  0  0  0  0
   -4.3410  -10.7250   -0.4900 C   0  0  0  0  0  0  0  0  0  0  0  0
   -2.8910  -10.2810   -0.3210 C   0  0  0  0  0  0  0  0  0  0  0  0
    3.6280  -11.8260   -1.7500 C   0  0  0  0  0  0  0  0  0  0  0  0
    4.4400  -12.0830   -2.8620 C   0  0  0  0  0  0  0  0  0  0  0  0
    5.6260  -14.2820   -5.1770 C   0  0  0  0  0  0  0  0  0  0  0  0
    6.4240  -14.6490   -6.1350 N   0  0  0  0  0  0  0  0  0  0  0  0
    6.4940  -13.8040   -7.2100 C   0  0  0  0  0  0  0  0  0  0  0  0
    9.4830  -14.8840   -8.3980 C   0  0  0  0  0  0  0  0  0  0  0  0
   10.3640  -15.8980   -8.8030 C   0  0  0  0  0  0  0  0  0  0  0  0
   10.3280  -19.2790  -10.3990 C   0  0  0  0  0  0  0  0  0  0  0  0
   11.4130  -20.3660  -10.2590 C   0  0  0  0  0  0  0  0  0  0  0  0
   11.9456  -20.8570  -12.7417 H   0  0  0  0  0  0  0  0  0  0  0  0
   12.2822  -19.0961  -12.8542 H   0  0  0  0  0  0  0  0  0  0  0  0
   13.6402  -20.2720  -12.8542 H   0  0  0  0  0  0  0  0  0  0  0  0
   13.4140  -20.6610  -10.6590 H   0  0  0  0  0  0  0  0  0  0  0  0
   13.4698  -18.7229   -9.3809 H   0  0  0  0  0  0  0  0  0  0  0  0
   14.0641  -18.3219  -11.0501 H   0  0  0  0  0  0  0  0  0  0  0  0
   12.4648  -16.6201  -10.0557 H   0  0  0  0  0  0  0  0  0  0  0  0
   11.9647  -17.3213  -11.6463 H   0  0  0  0  0  0  0  0  0  0  0  0
    8.2164  -17.8090  -10.5995 H   0  0  0  0  0  0  0  0  0  0  0  0
    6.6532  -16.0130   -9.8990 H   0  0  0  0  0  0  0  0  0  0  0  0
    7.2219  -12.4315  -10.0855 H   0  0  0  0  0  0  0  0  0  0  0  0
    4.0800  -10.3860   -5.6280 H   0  0  0  0  0  0  0  0  0  0  0  0
    3.7360  -10.8950   -7.2840 H   0  0  0  0  0  0  0  0  0  0  0  0
    2.1962  -13.7655   -4.8008 H   0  0  0  0  0  0  0  0  0  0  0  0
    0.7553  -13.3073   -2.8205 H   0  0  0  0  0  0  0  0  0  0  0  0
    1.3040  -12.7990    0.0030 H   0  0  0  0  0  0  0  0  0  0  0  0
    0.2040  -11.7840    1.4240 H   0  0  0  0  0  0  0  0  0  0  0  0
   -0.7151   -9.7892    2.3021 H   0  0  0  0  0  0  0  0  0  0  0  0
   -0.7881   -9.1204    0.6153 H   0  0  0  0  0  0  0  0  0  0  0  0
   -3.0086   -9.7459    1.7709 H   0  0  0  0  0  0  0  0  0  0  0  0
   -1.9880  -12.5369    1.0722 H   0  0  0  0  0  0  0  0  0  0  0  0
   -2.3997  -11.8812    2.7123 H   0  0  0  0  0  0  0  0  0  0  0  0
   -4.1779  -13.3544    1.7587 H   0  0  0  0  0  0  0  0  0  0  0  0
   -4.7221  -11.6587    2.0989 H   0  0  0  0  0  0  0  0  0  0  0  0
   -3.9905  -12.8438   -0.6132 H   0  0  0  0  0  0  0  0  0  0  0  0
   -5.6339  -12.3669   -0.0184 H   0  0  0  0  0  0  0  0  0  0  0  0
   -4.6042  -10.6857   -1.5573 H   0  0  0  0  0  0  0  0  0  0  0  0
   -4.9786  -10.0478    0.0973 H   0  0  0  0  0  0  0  0  0  0  0  0
   -2.2513  -10.9027   -0.9646 H   0  0  0  0  0  0  0  0  0  0  0  0
   -2.8241   -9.2197   -0.6025 H   0  0  0  0  0  0  0  0  0  0  0  0
    4.0402  -11.2793   -0.8891 H   0  0  0  0  0  0  0  0  0  0  0  0
    5.4833  -11.7344   -2.8681 H   0  0  0  0  0  0  0  0  0  0  0  0
    5.5631  -14.9529   -4.3075 H   0  0  0  0  0  0  0  0  0  0  0  0
    9.8535  -14.0602   -7.7703 H   0  0  0  0  0  0  0  0  0  0  0  0
   11.4146  -15.8535   -8.4802 H   0  0  0  0  0  0  0  0  0  0  0  0
    9.4705  -19.5433   -9.7627 H   0  0  0  0  0  0  0  0  0  0  0  0
   10.0237  -19.2233  -11.4546 H   0  0  0  0  0  0  0  0  0  0  0  0
   11.6181  -20.5270   -9.1903 H   0  0  0  0  0  0  0  0  0  0  0  0
   11.0372  -21.2834  -10.7356 H   0  0  0  0  0  0  0  0  0  0  0  0
  1  2  1  0
  2  3  1  0
  3  4  1  0
  4  5  1  0
  5  6  1  0
  6  7  2  0
  7  8  1  0
  8  9  2  0
  9 10  1  0
 10 11  1  0
 11 12  2  0
 12 13  1  0
 13 14  1  0
 14 15  1  0
 14 16  2  0
 16 17  1  0
 17 18  2  0
 18 19  1  0
 19 20  2  0
 20 21  1  0
 21 22  1  0
 22 23  2  0
 22 24  1  0
 24 25  1  0
 25 26  1  0
 26 27  1  0
 27 28  1  0
 28 29  1  0
 29 30  1  0
 30 31  1  0
 20 32  1  0
 32 33  2  0
 16 34  1  0
 34 35  2  0
 35 36  1  0
  9 37  1  0
 37 38  2  0
  5 39  1  0
 39 40  1  0
 40  2  1  0
 38  6  1  0
 36 10  2  0
 36 13  1  0
 33 17  1  0
 31 26  1  0
  1 41  1  0
  1 42  1  0
  1 43  1  0
  2 44  1  0
  3 45  1  0
  3 46  1  0
  4 47  1  0
  4 48  1  0
  7 49  1  0
  8 50  1  0
 11 51  1  0
 15 52  1  0
 15 53  1  0
 18 54  1  0
 19 55  1  0
 21 56  1  0
 24 57  1  0
 25 58  1  0
 25 59  1  0
 26 60  1  0
 27 61  1  0
 27 62  1  0
 28 63  1  0
 28 64  1  0
 29 65  1  0
 29 66  1  0
 30 67  1  0
 30 68  1  0
 31 69  1  0
 31 70  1  0
 32 71  1  0
 33 72  1  0
 34 73  1  0
 37 74  1  0
 38 75  1  0
 39 76  1  0
 39 77  1  0
 40 78  1  0
 40 79  1  0
M  CHG  1   2   1
M  END
>  <meeko>  (9) 
{"is_sidechain": [false], "free_energy": -8.132, "intermolecular_energy": -11.102, "internal_energy": -1.085}

$$$$
