LIB_AYTBHOFELXSNHQ__M_PUB_ALL__e8__s20260927
     RDKit          3D

 51 54  0  0  0  0  0  0  0  0999 V2000
   12.6410  -14.8250  -13.7210 C   0  0  0  0  0  0  0  0  0  0  0  0
   12.2600  -13.4820  -13.1460 N   0  0  0  0  0  0  0  0  0  0  0  0
   13.4850  -12.5910  -12.9420 C   0  0  0  0  0  0  0  0  0  0  0  0
   13.7340  -12.6320  -11.4500 C   0  0  0  0  0  0  0  0  0  0  0  0
   12.3380  -12.6870  -10.8340 C   0  0  1  0  0  0  0  0  0  0  0  0
   12.3740  -13.2120   -9.4000 C   0  0  0  0  0  0  0  0  0  0  0  0
   11.5510  -11.4090  -10.9220 C   0  0  0  0  0  0  0  0  0  0  0  0
   11.9300  -10.1330  -10.5410 C   0  0  0  0  0  0  0  0  0  0  0  0
   11.0620   -9.0830  -10.8540 C   0  0  0  0  0  0  0  0  0  0  0  0
   11.4450   -7.7650  -10.5940 O   0  0  0  0  0  0  0  0  0  0  0  0
   11.6080   -7.0140  -11.7600 C   0  0  0  0  0  0  0  0  0  0  0  0
   11.8870   -7.5070  -12.8480 O   0  0  0  0  0  0  0  0  0  0  0  0
   11.4150   -5.6930  -11.4580 N   0  0  0  0  0  0  0  0  0  0  0  0
   11.4740   -4.5820  -12.3210 C   0  0  0  0  0  0  0  0  0  0  0  0
   12.5900   -4.2540  -13.0950 C   0  0  0  0  0  0  0  0  0  0  0  0
   12.5700   -3.1320  -13.9300 C   0  0  0  0  0  0  0  0  0  0  0  0
   11.4340   -2.3260  -13.9980 C   0  0  0  0  0  0  0  0  0  0  0  0
   10.3130   -2.6430  -13.2300 C   0  0  0  0  0  0  0  0  0  0  0  0
    9.1400   -1.8220  -13.2900 C   0  0  0  0  0  0  0  0  0  0  0  0
    8.1800   -1.1710  -13.3220 N   0  0  0  0  0  0  0  0  0  0  0  0
   10.3350   -3.7690  -12.3940 C   0  0  0  0  0  0  0  0  0  0  0  0
    9.8100   -9.3020  -11.4500 C   0  0  0  0  0  0  0  0  0  0  0  0
    9.4250  -10.5960  -11.8040 C   0  0  0  0  0  0  0  0  0  0  0  0
   10.3140  -11.6220  -11.5330 C   0  0  0  0  0  0  0  0  0  0  0  0
   10.1530  -13.0180  -11.9340 N   0  0  0  0  0  0  0  0  0  0  0  0
    9.1330  -13.6990  -11.0550 C   0  0  0  0  0  0  0  0  0  0  0  0
   11.5420  -13.5880  -11.8180 C   0  0  1  0  0  0  0  0  0  0  0  0
   12.8413  -15.5311  -12.9017 H   0  0  0  0  0  0  0  0  0  0  0  0
   11.8156  -15.2063  -14.3401 H   0  0  0  0  0  0  0  0  0  0  0  0
   13.5437  -14.7160  -14.3401 H   0  0  0  0  0  0  0  0  0  0  0  0
   11.7040  -13.0070  -13.8670 H   0  0  0  0  0  0  0  0  0  0  0  0
   14.3510  -12.9874  -13.4925 H   0  0  0  0  0  0  0  0  0  0  0  0
   13.3265  -11.5678  -13.3133 H   0  0  0  0  0  0  0  0  0  0  0  0
   14.3156  -13.5248  -11.1767 H   0  0  0  0  0  0  0  0  0  0  0  0
   14.3143  -11.7665  -11.0976 H   0  0  0  0  0  0  0  0  0  0  0  0
   12.3160  -12.3667   -8.6985 H   0  0  0  0  0  0  0  0  0  0  0  0
   11.5199  -13.8851   -9.2344 H   0  0  0  0  0  0  0  0  0  0  0  0
   13.3120  -13.7622   -9.2344 H   0  0  0  0  0  0  0  0  0  0  0  0
   12.8776   -9.9525  -10.0124 H   0  0  0  0  0  0  0  0  0  0  0  0
   11.2000   -5.5100  -10.4850 H   0  0  0  0  0  0  0  0  0  0  0  0
   13.4912   -4.8829  -13.0474 H   0  0  0  0  0  0  0  0  0  0  0  0
   13.4542   -2.8843  -14.5357 H   0  0  0  0  0  0  0  0  0  0  0  0
   11.4217   -1.4436  -14.6547 H   0  0  0  0  0  0  0  0  0  0  0  0
    9.4496   -4.0163  -11.7899 H   0  0  0  0  0  0  0  0  0  0  0  0
    9.1335   -8.4552  -11.6377 H   0  0  0  0  0  0  0  0  0  0  0  0
    8.4530  -10.7929  -12.2798 H   0  0  0  0  0  0  0  0  0  0  0  0
    9.7800  -13.0420  -12.8880 H   0  0  0  0  0  0  0  0  0  0  0  0
    9.3876  -13.5290   -9.9985 H   0  0  0  0  0  0  0  0  0  0  0  0
    8.1352  -13.2853  -11.2629 H   0  0  0  0  0  0  0  0  0  0  0  0
    9.1326  -14.7792  -11.2629 H   0  0  0  0  0  0  0  0  0  0  0  0
   11.4764  -14.6361  -11.4907 H   0  0  0  0  0  0  0  0  0  0  0  0
  1  2  1  0
  2  3  1  0
  3  4  1  0
  4  5  1  0
  5  6  1  1
  5  7  1  0
  7  8  2  0
  8  9  1  0
  9 10  1  0
 10 11  1  0
 11 12  2  0
 11 13  1  0
 13 14  1  0
 14 15  2  0
 15 16  1  0
 16 17  2  0
 17 18  1  0
 18 19  1  0
 19 20  3  0
 18 21  2  0
  9 22  2  0
 22 23  1  0
 23 24  2  0
 24 25  1  0
 25 26  1  0
 25 27  1  0
 27  2  1  0
 27  5  1  0
 24  7  1  0
 21 14  1  0
  1 28  1  0
  1 29  1  0
  1 30  1  0
  2 31  1  0
  3 32  1  0
  3 33  1  0
  4 34  1  0
  4 35  1  0
  6 36  1  0
  6 37  1  0
  6 38  1  0
  8 39  1  0
 13 40  1  0
 15 41  1  0
 16 42  1  0
 17 43  1  0
 21 44  1  0
 22 45  1  0
 23 46  1  0
 25 47  1  0
 26 48  1  0
 26 49  1  0
 26 50  1  0
 27 51  1  1
M  CHG  2   2   1  25   1
M  END
>  <meeko>  (1) 
{"is_sidechain": [false], "free_energy": -8.882, "intermolecular_energy": -10.44, "internal_energy": -0.18}

$$$$
LIB_AYTBHOFELXSNHQ__M_PUB_ALL__e8__s20260927
     RDKit          3D

 51 54  0  0  0  0  0  0  0  0999 V2000
   13.8080  -16.0420   -3.0270 C   0  0  0  0  0  0  0  0  0  0  0  0
   12.9140  -15.2080   -2.1410 N   0  0  0  0  0  0  0  0  0  0  0  0
   11.6030  -15.9300   -1.8270 C   0  0  0  0  0  0  0  0  0  0  0  0
   10.5790  -15.2450   -2.7070 C   0  0  0  0  0  0  0  0  0  0  0  0
   11.0150  -13.7820   -2.7280 C   0  0  1  0  0  0  0  0  0  0  0  0
   10.4180  -13.0320   -3.9170 C   0  0  0  0  0  0  0  0  0  0  0  0
   10.7890  -13.0300   -1.4460 C   0  0  0  0  0  0  0  0  0  0  0  0
    9.6260  -12.9220   -0.7020 C   0  0  0  0  0  0  0  0  0  0  0  0
    9.7110  -12.2710    0.5330 C   0  0  0  0  0  0  0  0  0  0  0  0
    8.5950  -12.2320    1.3740 O   0  0  0  0  0  0  0  0  0  0  0  0
    7.5090  -11.5720    0.7940 C   0  0  0  0  0  0  0  0  0  0  0  0
    7.4640  -10.3570    0.6350 O   0  0  0  0  0  0  0  0  0  0  0  0
    6.5580  -12.5010    0.4690 N   0  0  0  0  0  0  0  0  0  0  0  0
    5.3050  -12.2930   -0.1390 C   0  0  0  0  0  0  0  0  0  0  0  0
    4.0920  -12.3010    0.5530 C   0  0  0  0  0  0  0  0  0  0  0  0
    2.8870  -12.0840   -0.1250 C   0  0  0  0  0  0  0  0  0  0  0  0
    2.8850  -11.8580   -1.5000 C   0  0  0  0  0  0  0  0  0  0  0  0
    4.0900  -11.8480   -2.2030 C   0  0  0  0  0  0  0  0  0  0  0  0
    4.1020  -11.6180   -3.6180 C   0  0  0  0  0  0  0  0  0  0  0  0
    4.1340  -11.4350   -4.7620 N   0  0  0  0  0  0  0  0  0  0  0  0
    5.2970  -12.0640   -1.5210 C   0  0  0  0  0  0  0  0  0  0  0  0
   10.8960  -11.6670    0.9790 C   0  0  0  0  0  0  0  0  0  0  0  0
   12.0550  -11.7570    0.2070 C   0  0  0  0  0  0  0  0  0  0  0  0
   11.9720  -12.4440   -0.9910 C   0  0  0  0  0  0  0  0  0  0  0  0
   13.0920  -12.7540   -1.8770 N   0  0  0  0  0  0  0  0  0  0  0  0
   13.5110  -11.5210   -2.6390 C   0  0  0  0  0  0  0  0  0  0  0  0
   12.5670  -13.8660   -2.7470 C   0  0  1  0  0  0  0  0  0  0  0  0
   14.4701  -16.6597   -2.4024 H   0  0  0  0  0  0  0  0  0  0  0  0
   13.1899  -16.6937   -3.6620 H   0  0  0  0  0  0  0  0  0  0  0  0
   14.4153  -15.3802   -3.6620 H   0  0  0  0  0  0  0  0  0  0  0  0
   13.3960  -15.1300   -1.2380 H   0  0  0  0  0  0  0  0  0  0  0  0
   11.6776  -16.9990   -2.0754 H   0  0  0  0  0  0  0  0  0  0  0  0
   11.3408  -15.8802   -0.7599 H   0  0  0  0  0  0  0  0  0  0  0  0
   10.5914  -15.6695   -3.7217 H   0  0  0  0  0  0  0  0  0  0  0  0
    9.5524  -15.3714   -2.3326 H   0  0  0  0  0  0  0  0  0  0  0  0
    9.7719  -12.2203   -3.5515 H   0  0  0  0  0  0  0  0  0  0  0  0
   11.2288  -12.6084   -4.5279 H   0  0  0  0  0  0  0  0  0  0  0  0
    9.8234  -13.7271   -4.5279 H   0  0  0  0  0  0  0  0  0  0  0  0
    8.6731  -13.3320   -1.0678 H   0  0  0  0  0  0  0  0  0  0  0  0
    6.8050  -13.4560    0.7010 H   0  0  0  0  0  0  0  0  0  0  0  0
    4.0836  -12.4791    1.6385 H   0  0  0  0  0  0  0  0  0  0  0  0
    1.9373  -12.0919    0.4300 H   0  0  0  0  0  0  0  0  0  0  0  0
    1.9360  -11.6880   -2.0296 H   0  0  0  0  0  0  0  0  0  0  0  0
    6.2462  -12.0534   -2.0769 H   0  0  0  0  0  0  0  0  0  0  0  0
   10.9116  -11.1236    1.9353 H   0  0  0  0  0  0  0  0  0  0  0  0
   12.9987  -11.2991    0.5384 H   0  0  0  0  0  0  0  0  0  0  0  0
   13.8950  -13.0290   -1.3020 H   0  0  0  0  0  0  0  0  0  0  0  0
   13.7813  -10.7254   -1.9291 H   0  0  0  0  0  0  0  0  0  0  0  0
   14.3789  -11.7583   -3.2717 H   0  0  0  0  0  0  0  0  0  0  0  0
   12.6782  -11.1803   -3.2717 H   0  0  0  0  0  0  0  0  0  0  0  0
   12.9953  -13.7694   -3.7556 H   0  0  0  0  0  0  0  0  0  0  0  0
  1  2  1  0
  2  3  1  0
  3  4  1  0
  4  5  1  0
  5  6  1  6
  5  7  1  0
  7  8  2  0
  8  9  1  0
  9 10  1  0
 10 11  1  0
 11 12  2  0
 11 13  1  0
 13 14  1  0
 14 15  2  0
 15 16  1  0
 16 17  2  0
 17 18  1  0
 18 19  1  0
 19 20  3  0
 18 21  2  0
  9 22  2  0
 22 23  1  0
 23 24  2  0
 24 25  1  0
 25 26  1  0
 25 27  1  0
 27  2  1  0
 27  5  1  0
 24  7  1  0
 21 14  1  0
  1 28  1  0
  1 29  1  0
  1 30  1  0
  2 31  1  0
  3 32  1  0
  3 33  1  0
  4 34  1  0
  4 35  1  0
  6 36  1  0
  6 37  1  0
  6 38  1  0
  8 39  1  0
 13 40  1  0
 15 41  1  0
 16 42  1  0
 17 43  1  0
 21 44  1  0
 22 45  1  0
 23 46  1  0
 25 47  1  0
 26 48  1  0
 26 49  1  0
 26 50  1  0
 27 51  1  6
M  CHG  2   2   1  25   1
M  END
>  <meeko>  (2) 
{"is_sidechain": [false], "free_energy": -8.306, "intermolecular_energy": -9.404, "internal_energy": -0.539}

$$$$
LIB_AYTBHOFELXSNHQ__M_PUB_ALL__e8__s20260927
     RDKit          3D

 51 54  0  0  0  0  0  0  0  0999 V2000
    5.6730  -12.6020   -5.0780 C   0  0  0  0  0  0  0  0  0  0  0  0
    6.4250  -12.3870   -3.7870 N   0  0  0  0  0  0  0  0  0  0  0  0
    7.8810  -12.8380   -3.9040 C   0  0  0  0  0  0  0  0  0  0  0  0
    7.9260  -14.1570   -3.1620 C   0  0  0  0  0  0  0  0  0  0  0  0
    6.9550  -13.9710   -1.9990 C   0  0  1  0  0  0  0  0  0  0  0  0
    6.4960  -15.3110   -1.4270 C   0  0  0  0  0  0  0  0  0  0  0  0
    7.4340  -13.0530   -0.9080 C   0  0  0  0  0  0  0  0  0  0  0  0
    8.6320  -13.0870   -0.2160 C   0  0  0  0  0  0  0  0  0  0  0  0
    8.8970  -12.0320    0.6630 C   0  0  0  0  0  0  0  0  0  0  0  0
   10.1370  -11.9570    1.3020 O   0  0  0  0  0  0  0  0  0  0  0  0
   11.1710  -12.4940    0.5320 C   0  0  0  0  0  0  0  0  0  0  0  0
   11.9020  -13.3990    0.9190 O   0  0  0  0  0  0  0  0  0  0  0  0
   11.2060  -11.8370   -0.6690 N   0  0  0  0  0  0  0  0  0  0  0  0
   12.0770  -12.0480   -1.7550 C   0  0  0  0  0  0  0  0  0  0  0  0
   13.3520  -11.4860   -1.8520 C   0  0  0  0  0  0  0  0  0  0  0  0
   14.1590  -11.7450   -2.9650 C   0  0  0  0  0  0  0  0  0  0  0  0
   13.6970  -12.5680   -3.9920 C   0  0  0  0  0  0  0  0  0  0  0  0
   12.4260  -13.1350   -3.9070 C   0  0  0  0  0  0  0  0  0  0  0  0
   11.9390  -13.9820   -4.9560 C   0  0  0  0  0  0  0  0  0  0  0  0
   11.5250  -14.6680   -5.7940 N   0  0  0  0  0  0  0  0  0  0  0  0
   11.6190  -12.8750   -2.7890 C   0  0  0  0  0  0  0  0  0  0  0  0
    7.9600  -11.0170    0.9160 C   0  0  0  0  0  0  0  0  0  0  0  0
    6.7430  -11.0100    0.2340 C   0  0  0  0  0  0  0  0  0  0  0  0
    6.5120  -12.0320   -0.6700 C   0  0  0  0  0  0  0  0  0  0  0  0
    5.3620  -12.1350   -1.5670 N   0  0  0  0  0  0  0  0  0  0  0  0
    4.1380  -12.5680   -0.7970 C   0  0  0  0  0  0  0  0  0  0  0  0
    5.8100  -13.1200   -2.6150 C   0  0  1  0  0  0  0  0  0  0  0  0
    4.6375  -12.8981   -4.8542 H   0  0  0  0  0  0  0  0  0  0  0  0
    5.6699  -11.6688   -5.6603 H   0  0  0  0  0  0  0  0  0  0  0  0
    6.1636  -13.3959   -5.6603 H   0  0  0  0  0  0  0  0  0  0  0  0
    6.4720  -11.3720   -3.6470 H   0  0  0  0  0  0  0  0  0  0  0  0
    8.1629  -12.9745   -4.9585 H   0  0  0  0  0  0  0  0  0  0  0  0
    8.5837  -12.0996   -3.4906 H   0  0  0  0  0  0  0  0  0  0  0  0
    7.6001  -14.9814   -3.8133 H   0  0  0  0  0  0  0  0  0  0  0  0
    8.9408  -14.4139   -2.8242 H   0  0  0  0  0  0  0  0  0  0  0  0
    6.5117  -15.2653   -0.3281 H   0  0  0  0  0  0  0  0  0  0  0  0
    5.4732  -15.5253   -1.7705 H   0  0  0  0  0  0  0  0  0  0  0  0
    7.1726  -16.1074   -1.7705 H   0  0  0  0  0  0  0  0  0  0  0  0
    9.3476  -13.9113   -0.3520 H   0  0  0  0  0  0  0  0  0  0  0  0
   10.5060  -11.1120   -0.7720 H   0  0  0  0  0  0  0  0  0  0  0  0
   13.7243  -10.8350   -1.0473 H   0  0  0  0  0  0  0  0  0  0  0  0
   15.1619  -11.2978   -3.0305 H   0  0  0  0  0  0  0  0  0  0  0  0
   14.3334  -12.7691   -4.8664 H   0  0  0  0  0  0  0  0  0  0  0  0
   10.6173  -13.3247   -2.7238 H   0  0  0  0  0  0  0  0  0  0  0  0
    8.1851  -10.2294    1.6502 H   0  0  0  0  0  0  0  0  0  0  0  0
    5.9955  -10.2221    0.4082 H   0  0  0  0  0  0  0  0  0  0  0  0
    5.1580  -11.2040   -1.9410 H   0  0  0  0  0  0  0  0  0  0  0  0
    4.3394  -12.4967    0.2821 H   0  0  0  0  0  0  0  0  0  0  0  0
    3.2918  -11.9147   -1.0560 H   0  0  0  0  0  0  0  0  0  0  0  0
    3.8908  -13.6081   -1.0560 H   0  0  0  0  0  0  0  0  0  0  0  0
    4.9480  -13.7219   -2.9385 H   0  0  0  0  0  0  0  0  0  0  0  0
  1  2  1  0
  2  3  1  0
  3  4  1  0
  4  5  1  0
  5  6  1  1
  5  7  1  0
  7  8  2  0
  8  9  1  0
  9 10  1  0
 10 11  1  0
 11 12  2  0
 11 13  1  0
 13 14  1  0
 14 15  2  0
 15 16  1  0
 16 17  2  0
 17 18  1  0
 18 19  1  0
 19 20  3  0
 18 21  2  0
  9 22  2  0
 22 23  1  0
 23 24  2  0
 24 25  1  0
 25 26  1  0
 25 27  1  0
 27  2  1  0
 27  5  1  0
 24  7  1  0
 21 14  1  0
  1 28  1  0
  1 29  1  0
  1 30  1  0
  2 31  1  0
  3 32  1  0
  3 33  1  0
  4 34  1  0
  4 35  1  0
  6 36  1  0
  6 37  1  0
  6 38  1  0
  8 39  1  0
 13 40  1  0
 15 41  1  0
 16 42  1  0
 17 43  1  0
 21 44  1  0
 22 45  1  0
 23 46  1  0
 25 47  1  0
 26 48  1  0
 26 49  1  0
 26 50  1  0
 27 51  1  6
M  CHG  2   2   1  25   1
M  END
>  <meeko>  (3) 
{"is_sidechain": [false], "free_energy": -8.121, "intermolecular_energy": -9.157, "internal_energy": -0.569}

$$$$
LIB_AYTBHOFELXSNHQ__M_PUB_ALL__e8__s20260927
     RDKit          3D

 51 54  0  0  0  0  0  0  0  0999 V2000
   13.4520  -10.9200   -0.6090 C   0  0  0  0  0  0  0  0  0  0  0  0
   13.4900  -12.0850   -1.5670 N   0  0  0  0  0  0  0  0  0  0  0  0
   13.9300  -11.6490   -2.9650 C   0  0  0  0  0  0  0  0  0  0  0  0
   12.6500  -11.6330   -3.7730 C   0  0  0  0  0  0  0  0  0  0  0  0
   11.8410  -12.8060   -3.2240 C   0  0  1  0  0  0  0  0  0  0  0  0
   10.3560  -12.6710   -3.5560 C   0  0  0  0  0  0  0  0  0  0  0  0
   12.3570  -14.1670   -3.5990 C   0  0  0  0  0  0  0  0  0  0  0  0
   12.6670  -14.6580   -4.8560 C   0  0  0  0  0  0  0  0  0  0  0  0
   13.2620  -15.9210   -4.9250 C   0  0  0  0  0  0  0  0  0  0  0  0
   13.6980  -16.4160   -6.1570 O   0  0  0  0  0  0  0  0  0  0  0  0
   14.3410  -15.4450   -6.9280 C   0  0  0  0  0  0  0  0  0  0  0  0
   15.3430  -14.8420   -6.5590 O   0  0  0  0  0  0  0  0  0  0  0  0
   13.6590  -15.3030   -8.1070 N   0  0  0  0  0  0  0  0  0  0  0  0
   13.9470  -14.4450   -9.1850 C   0  0  0  0  0  0  0  0  0  0  0  0
   14.8250  -14.7650  -10.2230 C   0  0  0  0  0  0  0  0  0  0  0  0
   15.0590  -13.8560  -11.2610 C   0  0  0  0  0  0  0  0  0  0  0  0
   14.4150  -12.6190  -11.2700 C   0  0  0  0  0  0  0  0  0  0  0  0
   13.5350  -12.2880  -10.2390 C   0  0  0  0  0  0  0  0  0  0  0  0
   12.8690  -11.0190  -10.2370 C   0  0  0  0  0  0  0  0  0  0  0  0
   12.3200   -9.9980  -10.2140 N   0  0  0  0  0  0  0  0  0  0  0  0
   13.3030  -13.2010   -9.2000 C   0  0  0  0  0  0  0  0  0  0  0  0
   13.4650  -16.7150   -3.7850 C   0  0  0  0  0  0  0  0  0  0  0  0
   13.1220  -16.2220   -2.5250 C   0  0  0  0  0  0  0  0  0  0  0  0
   12.5770  -14.9510   -2.4640 C   0  0  0  0  0  0  0  0  0  0  0  0
   12.2680  -14.2120   -1.2410 N   0  0  0  0  0  0  0  0  0  0  0  0
   11.0130  -14.7570   -0.6070 C   0  0  0  0  0  0  0  0  0  0  0  0
   12.1540  -12.7830   -1.7020 C   0  0  1  0  0  0  0  0  0  0  0  0
   13.4642  -11.2950    0.4250 H   0  0  0  0  0  0  0  0  0  0  0  0
   14.3297  -10.2785   -0.7768 H   0  0  0  0  0  0  0  0  0  0  0  0
   12.5344  -10.3371   -0.7768 H   0  0  0  0  0  0  0  0  0  0  0  0
   14.2370  -12.7070   -1.2360 H   0  0  0  0  0  0  0  0  0  0  0  0
   14.3846  -10.6478   -2.9357 H   0  0  0  0  0  0  0  0  0  0  0  0
   14.6892  -12.3193   -3.3943 H   0  0  0  0  0  0  0  0  0  0  0  0
   12.1099  -10.6857   -3.6282 H   0  0  0  0  0  0  0  0  0  0  0  0
   12.8348  -11.7199   -4.8539 H   0  0  0  0  0  0  0  0  0  0  0  0
    9.7751  -12.6182   -2.6234 H   0  0  0  0  0  0  0  0  0  0  0  0
   10.1931  -11.7543   -4.1418 H   0  0  0  0  0  0  0  0  0  0  0  0
   10.0305  -13.5433   -4.1418 H   0  0  0  0  0  0  0  0  0  0  0  0
   12.4533  -14.0767   -5.7651 H   0  0  0  0  0  0  0  0  0  0  0  0
   12.8470  -15.9020   -8.1980 H   0  0  0  0  0  0  0  0  0  0  0  0
   15.3364  -15.7389  -10.2246 H   0  0  0  0  0  0  0  0  0  0  0  0
   15.7535  -14.1182  -12.0728 H   0  0  0  0  0  0  0  0  0  0  0  0
   14.6002  -11.9065  -12.0873 H   0  0  0  0  0  0  0  0  0  0  0  0
   12.6084  -12.9376   -8.3887 H   0  0  0  0  0  0  0  0  0  0  0  0
   13.8934  -17.7233   -3.8846 H   0  0  0  0  0  0  0  0  0  0  0  0
   13.2787  -16.8205   -1.6155 H   0  0  0  0  0  0  0  0  0  0  0  0
   13.0260  -14.3660   -0.5690 H   0  0  0  0  0  0  0  0  0  0  0  0
   11.1078  -14.7158    0.4881 H   0  0  0  0  0  0  0  0  0  0  0  0
   10.1501  -14.1525   -0.9233 H   0  0  0  0  0  0  0  0  0  0  0  0
   10.8656  -15.8002   -0.9233 H   0  0  0  0  0  0  0  0  0  0  0  0
   11.3830  -12.2712   -1.1072 H   0  0  0  0  0  0  0  0  0  0  0  0
  1  2  1  0
  2  3  1  0
  3  4  1  0
  4  5  1  0
  5  6  1  1
  5  7  1  0
  7  8  2  0
  8  9  1  0
  9 10  1  0
 10 11  1  0
 11 12  2  0
 11 13  1  0
 13 14  1  0
 14 15  2  0
 15 16  1  0
 16 17  2  0
 17 18  1  0
 18 19  1  0
 19 20  3  0
 18 21  2  0
  9 22  2  0
 22 23  1  0
 23 24  2  0
 24 25  1  0
 25 26  1  0
 25 27  1  0
 27  2  1  0
 27  5  1  0
 24  7  1  0
 21 14  1  0
  1 28  1  0
  1 29  1  0
  1 30  1  0
  2 31  1  0
  3 32  1  0
  3 33  1  0
  4 34  1  0
  4 35  1  0
  6 36  1  0
  6 37  1  0
  6 38  1  0
  8 39  1  0
 13 40  1  0
 15 41  1  0
 16 42  1  0
 17 43  1  0
 21 44  1  0
 22 45  1  0
 23 46  1  0
 25 47  1  0
 26 48  1  0
 26 49  1  0
 26 50  1  0
 27 51  1  1
M  CHG  2   2   1  25   1
M  END
>  <meeko>  (4) 
{"is_sidechain": [false], "free_energy": -8.08, "intermolecular_energy": -9.204, "internal_energy": -0.473}

$$$$
LIB_AYTBHOFELXSNHQ__M_PUB_ALL__e8__s20260927
     RDKit          3D

 51 54  0  0  0  0  0  0  0  0999 V2000
    3.1300  -11.1560   -4.6900 C   0  0  0  0  0  0  0  0  0  0  0  0
    3.9120  -11.4750   -3.4390 N   0  0  0  0  0  0  0  0  0  0  0  0
    5.3920  -11.7070   -3.7470 C   0  0  0  0  0  0  0  0  0  0  0  0
    5.5600  -13.2100   -3.6700 C   0  0  0  0  0  0  0  0  0  0  0  0
    4.6220  -13.6380   -2.5430 C   0  0  1  0  0  0  0  0  0  0  0  0
    4.2830  -15.1250   -2.6260 C   0  0  0  0  0  0  0  0  0  0  0  0
    5.0740  -13.2630   -1.1590 C   0  0  0  0  0  0  0  0  0  0  0  0
    6.2970  -13.5020   -0.5560 C   0  0  0  0  0  0  0  0  0  0  0  0
    6.5180  -12.9290    0.7000 C   0  0  0  0  0  0  0  0  0  0  0  0
    7.7730  -13.0440    1.3040 O   0  0  0  0  0  0  0  0  0  0  0  0
    8.6780  -12.0830    0.8460 C   0  0  0  0  0  0  0  0  0  0  0  0
    8.4230  -10.8850    0.7930 O   0  0  0  0  0  0  0  0  0  0  0  0
    9.8360  -12.7160    0.4810 N   0  0  0  0  0  0  0  0  0  0  0  0
   11.0180  -12.1470   -0.0300 C   0  0  0  0  0  0  0  0  0  0  0  0
   11.8630  -11.3130    0.7050 C   0  0  0  0  0  0  0  0  0  0  0  0
   13.0220  -10.7860    0.1240 C   0  0  0  0  0  0  0  0  0  0  0  0
   13.3450  -11.0890   -1.1980 C   0  0  0  0  0  0  0  0  0  0  0  0
   12.5100  -11.9210   -1.9420 C   0  0  0  0  0  0  0  0  0  0  0  0
   12.8310  -12.2390   -3.3030 C   0  0  0  0  0  0  0  0  0  0  0  0
   13.0710  -12.5090   -4.4050 N   0  0  0  0  0  0  0  0  0  0  0  0
   11.3490  -12.4480   -1.3580 C   0  0  0  0  0  0  0  0  0  0  0  0
    5.5210  -12.2120    1.3800 C   0  0  0  0  0  0  0  0  0  0  0  0
    4.2810  -12.0010    0.7740 C   0  0  0  0  0  0  0  0  0  0  0  0
    4.0910  -12.5330   -0.4900 C   0  0  0  0  0  0  0  0  0  0  0  0
    2.9180  -12.3210   -1.3370 N   0  0  0  0  0  0  0  0  0  0  0  0
    1.7590  -13.1470   -0.8380 C   0  0  0  0  0  0  0  0  0  0  0  0
    3.3960  -12.6990   -2.7140 C   0  0  1  0  0  0  0  0  0  0  0  0
    2.1442  -10.7538   -4.4136 H   0  0  0  0  0  0  0  0  0  0  0  0
    3.6772  -10.4092   -5.2840 H   0  0  0  0  0  0  0  0  0  0  0  0
    2.9987  -12.0725   -5.2840 H   0  0  0  0  0  0  0  0  0  0  0  0
    3.8910  -10.6270   -2.8620 H   0  0  0  0  0  0  0  0  0  0  0  0
    5.6431  -11.3380   -4.7524 H   0  0  0  0  0  0  0  0  0  0  0  0
    6.0547  -11.1741   -3.0492 H   0  0  0  0  0  0  0  0  0  0  0  0
    5.2697  -13.6836   -4.6194 H   0  0  0  0  0  0  0  0  0  0  0  0
    6.6027  -13.5071   -3.4843 H   0  0  0  0  0  0  0  0  0  0  0  0
    4.1891  -15.5369   -1.6104 H   0  0  0  0  0  0  0  0  0  0  0  0
    3.3322  -15.2549   -3.1637 H   0  0  0  0  0  0  0  0  0  0  0  0
    5.0836  -15.6541   -3.1637 H   0  0  0  0  0  0  0  0  0  0  0  0
    7.0649  -14.1187   -1.0459 H   0  0  0  0  0  0  0  0  0  0  0  0
    9.8230  -13.7210    0.6030 H   0  0  0  0  0  0  0  0  0  0  0  0
   11.6158  -11.0684    1.7486 H   0  0  0  0  0  0  0  0  0  0  0  0
   13.6806  -10.1303    0.7125 H   0  0  0  0  0  0  0  0  0  0  0  0
   14.2561  -10.6727   -1.6526 H   0  0  0  0  0  0  0  0  0  0  0  0
   10.6919  -13.1039   -1.9480 H   0  0  0  0  0  0  0  0  0  0  0  0
    5.7162  -11.8173    2.3880 H   0  0  0  0  0  0  0  0  0  0  0  0
    3.4861  -11.4343    1.2810 H   0  0  0  0  0  0  0  0  0  0  0  0
    2.6340  -11.3390   -1.2580 H   0  0  0  0  0  0  0  0  0  0  0  0
    1.7567  -13.1487    0.2620 H   0  0  0  0  0  0  0  0  0  0  0  0
    0.8162  -12.7160   -1.2060 H   0  0  0  0  0  0  0  0  0  0  0  0
    1.8588  -14.1788   -1.2060 H   0  0  0  0  0  0  0  0  0  0  0  0
    2.5679  -13.1632   -3.2698 H   0  0  0  0  0  0  0  0  0  0  0  0
  1  2  1  0
  2  3  1  0
  3  4  1  0
  4  5  1  0
  5  6  1  1
  5  7  1  0
  7  8  2  0
  8  9  1  0
  9 10  1  0
 10 11  1  0
 11 12  2  0
 11 13  1  0
 13 14  1  0
 14 15  2  0
 15 16  1  0
 16 17  2  0
 17 18  1  0
 18 19  1  0
 19 20  3  0
 18 21  2  0
  9 22  2  0
 22 23  1  0
 23 24  2  0
 24 25  1  0
 25 26  1  0
 25 27  1  0
 27  2  1  0
 27  5  1  0
 24  7  1  0
 21 14  1  0
  1 28  1  0
  1 29  1  0
  1 30  1  0
  2 31  1  0
  3 32  1  0
  3 33  1  0
  4 34  1  0
  4 35  1  0
  6 36  1  0
  6 37  1  0
  6 38  1  0
  8 39  1  0
 13 40  1  0
 15 41  1  0
 16 42  1  0
 17 43  1  0
 21 44  1  0
 22 45  1  0
 23 46  1  0
 25 47  1  0
 26 48  1  0
 26 49  1  0
 26 50  1  0
 27 51  1  6
M  CHG  2   2   1  25   1
M  END
>  <meeko>  (5) 
{"is_sidechain": [false], "free_energy": -7.99, "intermolecular_energy": -9.094, "internal_energy": -0.478}

$$$$
LIB_AYTBHOFELXSNHQ__M_PUB_ALL__e8__s20260927
     RDKit          3D

 51 54  0  0  0  0  0  0  0  0999 V2000
   11.4930   -9.4780  -11.1160 C   0  0  0  0  0  0  0  0  0  0  0  0
   11.8310  -10.6710  -10.2560 N   0  0  0  0  0  0  0  0  0  0  0  0
   13.3270  -10.7330   -9.9460 C   0  0  0  0  0  0  0  0  0  0  0  0
   13.8530  -11.8270  -10.8500 C   0  0  0  0  0  0  0  0  0  0  0  0
   12.7270  -12.8570  -10.8920 C   0  0  1  0  0  0  0  0  0  0  0  0
   12.8520  -13.7810  -12.1010 C   0  0  0  0  0  0  0  0  0  0  0  0
   12.5360  -13.6460   -9.6260 C   0  0  0  0  0  0  0  0  0  0  0  0
   13.4780  -14.3530   -8.8990 C   0  0  0  0  0  0  0  0  0  0  0  0
   13.0730  -14.8940   -7.6750 C   0  0  0  0  0  0  0  0  0  0  0  0
   14.0110  -15.5190   -6.8480 O   0  0  0  0  0  0  0  0  0  0  0  0
   13.8450  -15.1860   -5.5020 C   0  0  0  0  0  0  0  0  0  0  0  0
   13.7940  -16.0160   -4.6010 O   0  0  0  0  0  0  0  0  0  0  0  0
   13.7460  -13.8240   -5.3990 N   0  0  0  0  0  0  0  0  0  0  0  0
   13.5770  -13.0460   -4.2380 C   0  0  0  0  0  0  0  0  0  0  0  0
   14.5500  -12.1830   -3.7290 C   0  0  0  0  0  0  0  0  0  0  0  0
   14.3040  -11.4410   -2.5680 C   0  0  0  0  0  0  0  0  0  0  0  0
   13.0830  -11.5580   -1.9060 C   0  0  0  0  0  0  0  0  0  0  0  0
   12.1030  -12.4160   -2.4040 C   0  0  0  0  0  0  0  0  0  0  0  0
   10.8440  -12.5450   -1.7310 C   0  0  0  0  0  0  0  0  0  0  0  0
    9.8190  -12.6660   -1.2020 N   0  0  0  0  0  0  0  0  0  0  0  0
   12.3510  -13.1570   -3.5680 C   0  0  0  0  0  0  0  0  0  0  0  0
   11.7460  -14.8130   -7.2250 C   0  0  0  0  0  0  0  0  0  0  0  0
   10.7970  -14.1230   -7.9810 C   0  0  0  0  0  0  0  0  0  0  0  0
   11.2210  -13.5510   -9.1680 C   0  0  0  0  0  0  0  0  0  0  0  0
   10.4180  -12.6900  -10.0340 N   0  0  0  0  0  0  0  0  0  0  0  0
    9.4240  -13.5160  -10.8130 C   0  0  0  0  0  0  0  0  0  0  0  0
   11.4390  -11.9880  -10.8900 C   0  0  1  0  0  0  0  0  0  0  0  0
   11.2498   -8.6195  -10.4728 H   0  0  0  0  0  0  0  0  0  0  0  0
   12.3556   -9.2276  -11.7511 H   0  0  0  0  0  0  0  0  0  0  0  0
   10.6273   -9.7173  -11.7511 H   0  0  0  0  0  0  0  0  0  0  0  0
   11.3790  -10.5110   -9.3490 H   0  0  0  0  0  0  0  0  0  0  0  0
   13.8121   -9.7725  -10.1743 H   0  0  0  0  0  0  0  0  0  0  0  0
   13.5273  -10.9344   -8.8833 H   0  0  0  0  0  0  0  0  0  0  0  0
   14.0597  -11.4346  -11.8566 H   0  0  0  0  0  0  0  0  0  0  0  0
   14.7991  -12.2539  -10.4858 H   0  0  0  0  0  0  0  0  0  0  0  0
   12.9921  -14.8167  -11.7580 H   0  0  0  0  0  0  0  0  0  0  0  0
   11.9369  -13.7164  -12.7080 H   0  0  0  0  0  0  0  0  0  0  0  0
   13.7170  -13.4756  -12.7080 H   0  0  0  0  0  0  0  0  0  0  0  0
   14.5053  -14.4841   -9.2698 H   0  0  0  0  0  0  0  0  0  0  0  0
   13.8070  -13.3300   -6.2810 H   0  0  0  0  0  0  0  0  0  0  0  0
   15.5169  -12.0857   -4.2444 H   0  0  0  0  0  0  0  0  0  0  0  0
   15.0769  -10.7632   -2.1767 H   0  0  0  0  0  0  0  0  0  0  0  0
   12.8929  -10.9749   -0.9929 H   0  0  0  0  0  0  0  0  0  0  0  0
   11.5757  -13.8322   -3.9593 H   0  0  0  0  0  0  0  0  0  0  0  0
   11.4546  -15.2922   -6.2787 H   0  0  0  0  0  0  0  0  0  0  0  0
    9.7526  -14.0371   -7.6464 H   0  0  0  0  0  0  0  0  0  0  0  0
    9.8720  -12.0540   -9.4450 H   0  0  0  0  0  0  0  0  0  0  0  0
    8.7707  -14.0589  -10.1141 H   0  0  0  0  0  0  0  0  0  0  0  0
    8.8143  -12.8548  -11.4464 H   0  0  0  0  0  0  0  0  0  0  0  0
    9.9624  -14.2364  -11.4464 H   0  0  0  0  0  0  0  0  0  0  0  0
   11.0210  -11.8298  -11.8951 H   0  0  0  0  0  0  0  0  0  0  0  0
  1  2  1  0
  2  3  1  0
  3  4  1  0
  4  5  1  0
  5  6  1  6
  5  7  1  0
  7  8  2  0
  8  9  1  0
  9 10  1  0
 10 11  1  0
 11 12  2  0
 11 13  1  0
 13 14  1  0
 14 15  2  0
 15 16  1  0
 16 17  2  0
 17 18  1  0
 18 19  1  0
 19 20  3  0
 18 21  2  0
  9 22  2  0
 22 23  1  0
 23 24  2  0
 24 25  1  0
 25 26  1  0
 25 27  1  0
 27  2  1  0
 27  5  1  0
 24  7  1  0
 21 14  1  0
  1 28  1  0
  1 29  1  0
  1 30  1  0
  2 31  1  0
  3 32  1  0
  3 33  1  0
  4 34  1  0
  4 35  1  0
  6 36  1  0
  6 37  1  0
  6 38  1  0
  8 39  1  0
 13 40  1  0
 15 41  1  0
 16 42  1  0
 17 43  1  0
 21 44  1  0
 22 45  1  0
 23 46  1  0
 25 47  1  0
 26 48  1  0
 26 49  1  0
 26 50  1  0
 27 51  1  6
M  CHG  2   2   1  25   1
M  END
>  <meeko>  (6) 
{"is_sidechain": [false], "free_energy": -7.857, "intermolecular_energy": -9.227, "internal_energy": -0.187}

$$$$
LIB_AYTBHOFELXSNHQ__M_PUB_ALL__e8__s20260927
     RDKit          3D

 51 54  0  0  0  0  0  0  0  0999 V2000
   13.3530  -14.0190   -4.0560 C   0  0  0  0  0  0  0  0  0  0  0  0
   12.0570  -13.8760   -3.2970 N   0  0  0  0  0  0  0  0  0  0  0  0
   11.6240  -12.4130   -3.1970 C   0  0  0  0  0  0  0  0  0  0  0  0
   11.9560  -12.0200   -1.7730 C   0  0  0  0  0  0  0  0  0  0  0  0
   11.6700  -13.2770   -0.9560 C   0  0  1  0  0  0  0  0  0  0  0  0
   12.3830  -13.2470    0.3940 C   0  0  0  0  0  0  0  0  0  0  0  0
   10.2140  -13.6130   -0.7910 C   0  0  0  0  0  0  0  0  0  0  0  0
    9.1850  -12.8000   -0.3460 C   0  0  0  0  0  0  0  0  0  0  0  0
    7.8860  -13.3120   -0.4120 C   0  0  0  0  0  0  0  0  0  0  0  0
    6.8010  -12.4950   -0.0820 O   0  0  0  0  0  0  0  0  0  0  0  0
    6.4040  -11.6780   -1.1430 C   0  0  0  0  0  0  0  0  0  0  0  0
    6.8570  -10.5560   -1.3390 O   0  0  0  0  0  0  0  0  0  0  0  0
    5.4530  -12.3420   -1.8720 N   0  0  0  0  0  0  0  0  0  0  0  0
    4.7770  -11.9060   -3.0270 C   0  0  0  0  0  0  0  0  0  0  0  0
    3.6740  -11.0510   -3.0090 C   0  0  0  0  0  0  0  0  0  0  0  0
    3.0560  -10.6630   -4.2040 C   0  0  0  0  0  0  0  0  0  0  0  0
    3.5370  -11.1280   -5.4270 C   0  0  0  0  0  0  0  0  0  0  0  0
    4.6390  -11.9830   -5.4580 C   0  0  0  0  0  0  0  0  0  0  0  0
    5.1420  -12.4690   -6.7100 C   0  0  0  0  0  0  0  0  0  0  0  0
    5.5650  -12.8750   -7.7100 N   0  0  0  0  0  0  0  0  0  0  0  0
    5.2560  -12.3700   -4.2600 C   0  0  0  0  0  0  0  0  0  0  0  0
    7.6210  -14.6270   -0.8250 C   0  0  0  0  0  0  0  0  0  0  0  0
    8.6690  -15.4480   -1.2440 C   0  0  0  0  0  0  0  0  0  0  0  0
    9.9460  -14.9140   -1.2190 C   0  0  0  0  0  0  0  0  0  0  0  0
   11.1520  -15.5640   -1.7300 N   0  0  0  0  0  0  0  0  0  0  0  0
   11.6070  -16.6400   -0.7760 C   0  0  0  0  0  0  0  0  0  0  0  0
   12.1310  -14.4300   -1.8910 C   0  0  1  0  0  0  0  0  0  0  0  0
   14.1866  -14.1110   -3.3442 H   0  0  0  0  0  0  0  0  0  0  0  0
   13.3102  -14.9179   -4.6886 H   0  0  0  0  0  0  0  0  0  0  0  0
   13.5072  -13.1324   -4.6886 H   0  0  0  0  0  0  0  0  0  0  0  0
   11.3350  -14.3270   -3.8700 H   0  0  0  0  0  0  0  0  0  0  0  0
   12.1824  -11.7918   -3.9128 H   0  0  0  0  0  0  0  0  0  0  0  0
   10.5589  -12.2733   -3.4336 H   0  0  0  0  0  0  0  0  0  0  0  0
   13.0138  -11.7311   -1.6854 H   0  0  0  0  0  0  0  0  0  0  0  0
   11.3706  -11.1544   -1.4295 H   0  0  0  0  0  0  0  0  0  0  0  0
   11.6381  -13.2783    1.2028 H   0  0  0  0  0  0  0  0  0  0  0  0
   13.0500  -14.1179    0.4758 H   0  0  0  0  0  0  0  0  0  0  0  0
   12.9745  -12.3232    0.4758 H   0  0  0  0  0  0  0  0  0  0  0  0
    9.3822  -11.7906    0.0442 H   0  0  0  0  0  0  0  0  0  0  0  0
    5.2220  -13.2630   -1.5210 H   0  0  0  0  0  0  0  0  0  0  0  0
    3.2873  -10.6791   -2.0487 H   0  0  0  0  0  0  0  0  0  0  0  0
    2.1874   -9.9885   -4.1777 H   0  0  0  0  0  0  0  0  0  0  0  0
    3.0494  -10.8219   -6.3643 H   0  0  0  0  0  0  0  0  0  0  0  0
    6.1246  -13.0444   -4.2879 H   0  0  0  0  0  0  0  0  0  0  0  0
    6.5897  -15.0096   -0.8185 H   0  0  0  0  0  0  0  0  0  0  0  0
    8.4874  -16.4792   -1.5810 H   0  0  0  0  0  0  0  0  0  0  0  0
   10.9210  -16.0320   -2.6110 H   0  0  0  0  0  0  0  0  0  0  0  0
   11.4621  -16.2974    0.2592 H   0  0  0  0  0  0  0  0  0  0  0  0
   11.0181  -17.5535   -0.9457 H   0  0  0  0  0  0  0  0  0  0  0  0
   12.6726  -16.8539   -0.9457 H   0  0  0  0  0  0  0  0  0  0  0  0
   13.1450  -14.7920   -1.6659 H   0  0  0  0  0  0  0  0  0  0  0  0
  1  2  1  0
  2  3  1  0
  3  4  1  0
  4  5  1  0
  5  6  1  1
  5  7  1  0
  7  8  2  0
  8  9  1  0
  9 10  1  0
 10 11  1  0
 11 12  2  0
 11 13  1  0
 13 14  1  0
 14 15  2  0
 15 16  1  0
 16 17  2  0
 17 18  1  0
 18 19  1  0
 19 20  3  0
 18 21  2  0
  9 22  2  0
 22 23  1  0
 23 24  2  0
 24 25  1  0
 25 26  1  0
 25 27  1  0
 27  2  1  0
 27  5  1  0
 24  7  1  0
 21 14  1  0
  1 28  1  0
  1 29  1  0
  1 30  1  0
  2 31  1  0
  3 32  1  0
  3 33  1  0
  4 34  1  0
  4 35  1  0
  6 36  1  0
  6 37  1  0
  6 38  1  0
  8 39  1  0
 13 40  1  0
 15 41  1  0
 16 42  1  0
 17 43  1  0
 21 44  1  0
 22 45  1  0
 23 46  1  0
 25 47  1  0
 26 48  1  0
 26 49  1  0
 26 50  1  0
 27 51  1  1
M  CHG  2   2   1  25   1
M  END
>  <meeko>  (7) 
{"is_sidechain": [false], "free_energy": -7.846, "intermolecular_energy": -8.893, "internal_energy": -0.509}

$$$$
LIB_AYTBHOFELXSNHQ__M_PUB_ALL__e8__s20260927
     RDKit          3D

 51 54  0  0  0  0  0  0  0  0999 V2000
   -4.9440  -12.7580    0.9390 C   0  0  0  0  0  0  0  0  0  0  0  0
   -3.4930  -12.5230    0.5960 N   0  0  0  0  0  0  0  0  0  0  0  0
   -2.7360  -13.8400    0.4240 C   0  0  0  0  0  0  0  0  0  0  0  0
   -1.9270  -13.9770    1.6960 C   0  0  0  0  0  0  0  0  0  0  0  0
   -1.5180  -12.5470    2.0400 C   0  0  1  0  0  0  0  0  0  0  0  0
   -1.1210  -12.4120    3.5090 C   0  0  0  0  0  0  0  0  0  0  0  0
   -0.4730  -11.9470    1.1400 C   0  0  0  0  0  0  0  0  0  0  0  0
    0.7580  -12.4680    0.7810 C   0  0  0  0  0  0  0  0  0  0  0  0
    1.4940  -11.7730   -0.1840 C   0  0  0  0  0  0  0  0  0  0  0  0
    2.6900  -12.3110   -0.6660 O   0  0  0  0  0  0  0  0  0  0  0  0
    2.6290  -12.6200   -2.0260 C   0  0  0  0  0  0  0  0  0  0  0  0
    1.7440  -13.3070   -2.5250 O   0  0  0  0  0  0  0  0  0  0  0  0
    3.7010  -12.0430   -2.6530 N   0  0  0  0  0  0  0  0  0  0  0  0
    4.0410  -12.0840   -4.0180 C   0  0  0  0  0  0  0  0  0  0  0  0
    3.6360  -11.1270   -4.9520 C   0  0  0  0  0  0  0  0  0  0  0  0
    4.0160  -11.2390   -6.2940 C   0  0  0  0  0  0  0  0  0  0  0  0
    4.8060  -12.3090   -6.7130 C   0  0  0  0  0  0  0  0  0  0  0  0
    5.2180  -13.2700   -5.7910 C   0  0  0  0  0  0  0  0  0  0  0  0
    6.0290  -14.3750   -6.2100 C   0  0  0  0  0  0  0  0  0  0  0  0
    6.6840  -15.2780   -6.5270 N   0  0  0  0  0  0  0  0  0  0  0  0
    4.8350  -13.1560   -4.4460 C   0  0  0  0  0  0  0  0  0  0  0  0
    1.0600  -10.5480   -0.7140 C   0  0  0  0  0  0  0  0  0  0  0  0
   -0.1700  -10.0180   -0.3230 C   0  0  0  0  0  0  0  0  0  0  0  0
   -0.9110  -10.7380    0.5970 C   0  0  0  0  0  0  0  0  0  0  0  0
   -2.2680  -10.4190    1.0380 N   0  0  0  0  0  0  0  0  0  0  0  0
   -2.2430   -9.2580    2.0010 C   0  0  0  0  0  0  0  0  0  0  0  0
   -2.7630  -11.7070    1.6410 C   0  0  1  0  0  0  0  0  0  0  0  0
   -5.0638  -12.7774    2.0323 H   0  0  0  0  0  0  0  0  0  0  0  0
   -5.5564  -11.9473    0.5173 H   0  0  0  0  0  0  0  0  0  0  0  0
   -5.2692  -13.7205    0.5173 H   0  0  0  0  0  0  0  0  0  0  0  0
   -3.4830  -12.0880   -0.3330 H   0  0  0  0  0  0  0  0  0  0  0  0
   -3.4370  -14.6808    0.3159 H   0  0  0  0  0  0  0  0  0  0  0  0
   -2.1054  -13.8470   -0.4772 H   0  0  0  0  0  0  0  0  0  0  0  0
   -2.5376  -14.4118    2.5010 H   0  0  0  0  0  0  0  0  0  0  0  0
   -1.0605  -14.6434    1.5728 H   0  0  0  0  0  0  0  0  0  0  0  0
   -1.9699  -12.7007    4.1462 H   0  0  0  0  0  0  0  0  0  0  0  0
   -0.2645  -13.0694    3.7193 H   0  0  0  0  0  0  0  0  0  0  0  0
   -0.8428  -11.3687    3.7193 H   0  0  0  0  0  0  0  0  0  0  0  0
    1.1424  -13.3924    1.2368 H   0  0  0  0  0  0  0  0  0  0  0  0
    4.3160  -11.5210   -2.0390 H   0  0  0  0  0  0  0  0  0  0  0  0
    3.0137  -10.2791   -4.6299 H   0  0  0  0  0  0  0  0  0  0  0  0
    3.6904  -10.4804   -7.0210 H   0  0  0  0  0  0  0  0  0  0  0  0
    5.1034  -12.3945   -7.7686 H   0  0  0  0  0  0  0  0  0  0  0  0
    5.1613  -13.9157   -3.7205 H   0  0  0  0  0  0  0  0  0  0  0  0
    1.6885  -10.0067   -1.4364 H   0  0  0  0  0  0  0  0  0  0  0  0
   -0.5365   -9.0643   -0.7306 H   0  0  0  0  0  0  0  0  0  0  0  0
   -2.8110  -10.1130    0.2250 H   0  0  0  0  0  0  0  0  0  0  0  0
   -2.2512   -9.6377    3.0334 H   0  0  0  0  0  0  0  0  0  0  0  0
   -1.3319   -8.6642    1.8359 H   0  0  0  0  0  0  0  0  0  0  0  0
   -3.1277   -8.6256    1.8359 H   0  0  0  0  0  0  0  0  0  0  0  0
   -3.4228  -11.4784    2.4909 H   0  0  0  0  0  0  0  0  0  0  0  0
  1  2  1  0
  2  3  1  0
  3  4  1  0
  4  5  1  0
  5  6  1  1
  5  7  1  0
  7  8  2  0
  8  9  1  0
  9 10  1  0
 10 11  1  0
 11 12  2  0
 11 13  1  0
 13 14  1  0
 14 15  2  0
 15 16  1  0
 16 17  2  0
 17 18  1  0
 18 19  1  0
 19 20  3  0
 18 21  2  0
  9 22  2  0
 22 23  1  0
 23 24  2  0
 24 25  1  0
 25 26  1  0
 25 27  1  0
 27  2  1  0
 27  5  1  0
 24  7  1  0
 21 14  1  0
  1 28  1  0
  1 29  1  0
  1 30  1  0
  2 31  1  0
  3 32  1  0
  3 33  1  0
  4 34  1  0
  4 35  1  0
  6 36  1  0
  6 37  1  0
  6 38  1  0
  8 39  1  0
 13 40  1  0
 15 41  1  0
 16 42  1  0
 17 43  1  0
 21 44  1  0
 22 45  1  0
 23 46  1  0
 25 47  1  0
 26 48  1  0
 26 49  1  0
 26 50  1  0
 27 51  1  1
M  CHG  2   2   1  25   1
M  END
>  <meeko>  (8) 
{"is_sidechain": [false], "free_energy": -7.844, "intermolecular_energy": -8.929, "internal_energy": -0.47}

$$$$
LIB_AYTBHOFELXSNHQ__M_PUB_ALL__e8__s20260927
     RDKit          3D

 51 54  0  0  0  0  0  0  0  0999 V2000
   -1.5070   -9.7340    3.1470 C   0  0  0  0  0  0  0  0  0  0  0  0
   -0.9040  -10.8930    2.3910 N   0  0  0  0  0  0  0  0  0  0  0  0
   -1.3450  -10.8990    0.9270 C   0  0  0  0  0  0  0  0  0  0  0  0
   -2.3820  -11.9990    0.8520 C   0  0  0  0  0  0  0  0  0  0  0  0
   -1.8750  -13.0650    1.8190 C   0  0  1  0  0  0  0  0  0  0  0  0
   -2.9910  -14.0160    2.2480 C   0  0  0  0  0  0  0  0  0  0  0  0
   -0.6660  -13.8280    1.3520 C   0  0  0  0  0  0  0  0  0  0  0  0
   -0.4710  -14.4840    0.1490 C   0  0  0  0  0  0  0  0  0  0  0  0
    0.8010  -15.0070   -0.1000 C   0  0  0  0  0  0  0  0  0  0  0  0
    1.0850  -15.5800   -1.3430 O   0  0  0  0  0  0  0  0  0  0  0  0
    2.0940  -14.9000   -2.0290 C   0  0  0  0  0  0  0  0  0  0  0  0
    3.2270  -15.3440   -2.1790 O   0  0  0  0  0  0  0  0  0  0  0  0
    1.5930  -13.7030   -2.4660 N   0  0  0  0  0  0  0  0  0  0  0  0
    2.2490  -12.6990   -3.2030 C   0  0  0  0  0  0  0  0  0  0  0  0
    2.1960  -11.3390   -2.8880 C   0  0  0  0  0  0  0  0  0  0  0  0
    2.8780  -10.4020   -3.6720 C   0  0  0  0  0  0  0  0  0  0  0  0
    3.6180  -10.8160   -4.7780 C   0  0  0  0  0  0  0  0  0  0  0  0
    3.6800  -12.1710   -5.1030 C   0  0  0  0  0  0  0  0  0  0  0  0
    4.4370  -12.6100   -6.2380 C   0  0  0  0  0  0  0  0  0  0  0  0
    5.0430  -12.9870   -7.1520 N   0  0  0  0  0  0  0  0  0  0  0  0
    2.9960  -13.1090   -4.3150 C   0  0  0  0  0  0  0  0  0  0  0  0
    1.8290  -14.9570    0.8540 C   0  0  0  0  0  0  0  0  0  0  0  0
    1.6130  -14.3180    2.0760 C   0  0  0  0  0  0  0  0  0  0  0  0
    0.3640  -13.7630    2.2920 C   0  0  0  0  0  0  0  0  0  0  0  0
   -0.0210  -12.9500    3.4450 N   0  0  0  0  0  0  0  0  0  0  0  0
   -0.2250  -13.8280    4.6550 C   0  0  0  0  0  0  0  0  0  0  0  0
   -1.2650  -12.2380    2.9850 C   0  0  1  0  0  0  0  0  0  0  0  0
   -1.4137   -9.9133    4.2283 H   0  0  0  0  0  0  0  0  0  0  0  0
   -0.9766   -8.8075    2.8818 H   0  0  0  0  0  0  0  0  0  0  0  0
   -2.5701   -9.6366    2.8818 H   0  0  0  0  0  0  0  0  0  0  0  0
    0.1070  -10.7250    2.3630 H   0  0  0  0  0  0  0  0  0  0  0  0
   -1.7845   -9.9298    0.6487 H   0  0  0  0  0  0  0  0  0  0  0  0
   -0.5053  -11.0659    0.2363 H   0  0  0  0  0  0  0  0  0  0  0  0
   -3.3682  -11.6263    1.1657 H   0  0  0  0  0  0  0  0  0  0  0  0
   -2.5094  -12.3862   -0.1697 H   0  0  0  0  0  0  0  0  0  0  0  0
   -3.0372  -14.0554    3.3463 H   0  0  0  0  0  0  0  0  0  0  0  0
   -3.9522  -13.6551    1.8533 H   0  0  0  0  0  0  0  0  0  0  0  0
   -2.7871  -15.0223    1.8533 H   0  0  0  0  0  0  0  0  0  0  0  0
   -1.2855  -14.5897   -0.5827 H   0  0  0  0  0  0  0  0  0  0  0  0
    0.6250  -13.5370   -2.2200 H   0  0  0  0  0  0  0  0  0  0  0  0
    1.6140  -11.0024   -2.0174 H   0  0  0  0  0  0  0  0  0  0  0  0
    2.8299   -9.3337   -3.4142 H   0  0  0  0  0  0  0  0  0  0  0  0
    4.1516  -10.0763   -5.3929 H   0  0  0  0  0  0  0  0  0  0  0  0
    3.0468  -14.1771   -4.5730 H   0  0  0  0  0  0  0  0  0  0  0  0
    2.8032  -15.4205    0.6392 H   0  0  0  0  0  0  0  0  0  0  0  0
    2.4046  -14.2580    2.8374 H   0  0  0  0  0  0  0  0  0  0  0  0
    0.7530  -12.3180    3.6700 H   0  0  0  0  0  0  0  0  0  0  0  0
   -0.0863  -13.2313    5.5686 H   0  0  0  0  0  0  0  0  0  0  0  0
   -1.2435  -14.2432    4.6393 H   0  0  0  0  0  0  0  0  0  0  0  0
    0.5062  -14.6497    4.6393 H   0  0  0  0  0  0  0  0  0  0  0  0
   -1.9499  -12.1191    3.8376 H   0  0  0  0  0  0  0  0  0  0  0  0
  1  2  1  0
  2  3  1  0
  3  4  1  0
  4  5  1  0
  5  6  1  1
  5  7  1  0
  7  8  2  0
  8  9  1  0
  9 10  1  0
 10 11  1  0
 11 12  2  0
 11 13  1  0
 13 14  1  0
 14 15  2  0
 15 16  1  0
 16 17  2  0
 17 18  1  0
 18 19  1  0
 19 20  3  0
 18 21  2  0
  9 22  2  0
 22 23  1  0
 23 24  2  0
 24 25  1  0
 25 26  1  0
 25 27  1  0
 27  2  1  0
 27  5  1  0
 24  7  1  0
 21 14  1  0
  1 28  1  0
  1 29  1  0
  1 30  1  0
  2 31  1  0
  3 32  1  0
  3 33  1  0
  4 34  1  0
  4 35  1  0
  6 36  1  0
  6 37  1  0
  6 38  1  0
  8 39  1  0
 13 40  1  0
 15 41  1  0
 16 42  1  0
 17 43  1  0
 21 44  1  0
 22 45  1  0
 23 46  1  0
 25 47  1  0
 26 48  1  0
 26 49  1  0
 26 50  1  0
 27 51  1  1
M  CHG  2   2   1  25   1
M  END
>  <meeko>  (9) 
{"is_sidechain": [false], "free_energy": -7.756, "intermolecular_energy": -8.996, "internal_energy": -0.3}

$$$$
