LIB_OFWIRPXDLBDEFC__M_PUB_ALL__e8__s20260927
     RDKit          3D

101106  0  0  0  0  0  0  0  0999 V2000
    5.0430  -12.4090   -5.2440 C   0  0  0  0  0  0  0  0  0  0  0  0
    4.0700  -12.8370   -4.1670 C   0  0  0  0  0  0  0  0  0  0  0  0
    4.4310  -13.2320   -2.9180 C   0  0  0  0  0  0  0  0  0  0  0  0
    5.8340  -13.3400   -2.4740 C   0  0  0  0  0  0  0  0  0  0  0  0
    6.6960  -14.1210   -3.1510 C   0  0  0  0  0  0  0  0  0  0  0  0
    8.1600  -14.2420   -2.8630 C   0  0  0  0  0  0  0  0  0  0  0  0
    8.6830  -13.1610   -1.8910 C   0  0  2  0  0  0  0  0  0  0  0  0
   10.2470  -13.2520   -1.5800 C   0  0  1  0  0  0  0  0  0  0  0  0
   10.6660  -14.6390   -1.0320 C   0  0  0  0  0  0  0  0  0  0  0  0
   11.0300  -13.0270   -2.9110 C   0  0  0  0  0  0  0  0  0  0  0  0
   12.5290  -12.7910   -2.7240 C   0  0  1  0  0  0  0  0  0  0  0  0
   13.1170  -12.4610   -3.9930 O   0  0  0  0  0  0  0  0  0  0  0  0
   12.8100  -11.6310   -1.7630 C   0  0  2  0  0  0  0  0  0  0  0  0
   14.2310  -11.4940   -1.6290 O   0  0  0  0  0  0  0  0  0  0  0  0
   12.1310  -11.7830   -0.3750 C   0  0  0  0  0  0  0  0  0  0  0  0
   12.3060  -10.4270    0.3660 C   0  0  0  0  0  0  0  0  0  0  0  0
   12.8430  -12.8360    0.4970 C   0  0  0  0  0  0  0  0  0  0  0  0
   10.6000  -12.0690   -0.6040 C   0  0  2  0  0  0  0  0  0  0  0  0
    9.7540  -12.1530    0.6820 C   0  0  0  0  0  0  0  0  0  0  0  0
    8.2700  -11.9840    0.3520 C   0  0  0  0  0  0  0  0  0  0  0  0
    7.7050  -13.0190   -0.6600 C   0  0  2  0  0  0  0  0  0  0  0  0
    7.5820  -14.3780    0.0940 C   0  0  0  0  0  0  0  0  0  0  0  0
    6.2360  -12.5540   -1.2130 C   0  0  1  0  0  0  0  0  0  0  0  0
    6.2200  -11.0480   -1.6160 C   0  0  0  0  0  0  0  0  0  0  0  0
    5.1480  -12.7580   -0.1100 C   0  0  0  0  0  0  0  0  0  0  0  0
    3.7060  -12.6350   -0.6110 C   0  0  0  0  0  0  0  0  0  0  0  0
    3.4110  -13.5610   -1.8200 C   0  0  2  0  0  0  0  0  0  0  0  0
    3.5210  -15.0700   -1.4710 C   0  0  0  0  0  0  0  0  0  0  0  0
    3.8280  -15.9540   -2.2630 O   0  0  0  0  0  0  0  0  0  0  0  0
    3.1470  -15.2990   -0.1830 O   0  0  0  0  0  0  0  0  0  0  0  0
    2.1230  -16.2860   -0.0130 C   0  0  2  0  0  0  0  0  0  0  0  0
    0.8470  -15.6550   -0.1740 O   0  0  0  0  0  0  0  0  0  0  0  0
   -0.2440  -16.5670   -0.0200 C   0  0  2  0  0  0  0  0  0  0  0  0
   -1.5420  -15.8030   -0.3130 C   0  0  0  0  0  0  0  0  0  0  0  0
   -2.6160  -16.7010   -0.5780 O   0  0  0  0  0  0  0  0  0  0  0  0
   -0.2520  -17.1690    1.3970 C   0  0  1  0  0  0  0  0  0  0  0  0
   -1.2590  -18.1740    1.5680 O   0  0  0  0  0  0  0  0  0  0  0  0
    1.1010  -17.8220    1.6840 C   0  0  2  0  0  0  0  0  0  0  0  0
    1.1600  -18.2530    3.0540 O   0  0  0  0  0  0  0  0  0  0  0  0
    2.2570  -16.8610    1.4090 C   0  0  1  0  0  0  0  0  0  0  0  0
    3.4950  -17.5690    1.5810 O   0  0  0  0  0  0  0  0  0  0  0  0
    1.9390  -13.3290   -2.2430 C   0  0  0  0  0  0  0  0  0  0  0  0
    1.7110  -13.6570   -3.7130 C   0  0  0  0  0  0  0  0  0  0  0  0
    2.6130  -12.8050   -4.6160 C   0  0  1  0  0  0  0  0  0  0  0  0
    2.0880  -11.3660   -4.7040 C   0  0  0  0  0  0  0  0  0  0  0  0
    5.9544  -12.0081   -4.7765 H   0  0  0  0  0  0  0  0  0  0  0  0
    5.3026  -13.2760   -5.8692 H   0  0  0  0  0  0  0  0  0  0  0  0
    4.5793  -11.6318   -5.8692 H   0  0  0  0  0  0  0  0  0  0  0  0
    6.2926  -14.7180   -3.9822 H   0  0  0  0  0  0  0  0  0  0  0  0
    8.3480  -15.2309   -2.4193 H   0  0  0  0  0  0  0  0  0  0  0  0
    8.6918  -14.1076   -3.8165 H   0  0  0  0  0  0  0  0  0  0  0  0
    8.6520  -12.1847   -2.3968 H   0  0  0  0  0  0  0  0  0  0  0  0
   10.6591  -14.6161    0.0677 H   0  0  0  0  0  0  0  0  0  0  0  0
    9.9585  -15.4026   -1.3873 H   0  0  0  0  0  0  0  0  0  0  0  0
   11.6780  -14.8832   -1.3873 H   0  0  0  0  0  0  0  0  0  0  0  0
   10.8972  -13.9167   -3.5440 H   0  0  0  0  0  0  0  0  0  0  0  0
   10.6208  -12.1139   -3.3680 H   0  0  0  0  0  0  0  0  0  0  0  0
   12.9586  -13.7129   -2.3050 H   0  0  0  0  0  0  0  0  0  0  0  0
   13.2030  -13.2900   -4.4950 H   0  0  0  0  0  0  0  0  0  0  0  0
   12.3665  -10.7215   -2.1945 H   0  0  0  0  0  0  0  0  0  0  0  0
   14.3760  -11.3340   -0.6740 H   0  0  0  0  0  0  0  0  0  0  0  0
   12.2840  -10.5974    1.4525 H   0  0  0  0  0  0  0  0  0  0  0  0
   13.2696   -9.9772    0.0848 H   0  0  0  0  0  0  0  0  0  0  0  0
   11.4881   -9.7473    0.0848 H   0  0  0  0  0  0  0  0  0  0  0  0
   12.6837  -12.6005    1.5596 H   0  0  0  0  0  0  0  0  0  0  0  0
   12.4326  -13.8326    0.2768 H   0  0  0  0  0  0  0  0  0  0  0  0
   13.9207  -12.8264    0.2768 H   0  0  0  0  0  0  0  0  0  0  0  0
   10.3066  -11.1502   -1.1329 H   0  0  0  0  0  0  0  0  0  0  0  0
    9.9111  -13.1329    1.1566 H   0  0  0  0  0  0  0  0  0  0  0  0
   10.0625  -11.3494    1.3668 H   0  0  0  0  0  0  0  0  0  0  0  0
    7.6990  -12.0738    1.2879 H   0  0  0  0  0  0  0  0  0  0  0  0
    8.1694  -10.9980   -0.1252 H   0  0  0  0  0  0  0  0  0  0  0  0
    7.5983  -14.1981    1.1791 H   0  0  0  0  0  0  0  0  0  0  0  0
    6.6360  -14.8664   -0.1825 H   0  0  0  0  0  0  0  0  0  0  0  0
    8.4250  -15.0284   -0.1825 H   0  0  0  0  0  0  0  0  0  0  0  0
    6.2134  -10.4258   -0.7089 H   0  0  0  0  0  0  0  0  0  0  0  0
    7.1158  -10.8183   -2.2117 H   0  0  0  0  0  0  0  0  0  0  0  0
    5.3196  -10.8374   -2.2117 H   0  0  0  0  0  0  0  0  0  0  0  0
    5.2781  -13.7622    0.3196 H   0  0  0  0  0  0  0  0  0  0  0  0
    5.2935  -11.9536    0.6260 H   0  0  0  0  0  0  0  0  0  0  0  0
    3.0243  -12.9008    0.2103 H   0  0  0  0  0  0  0  0  0  0  0  0
    3.5573  -11.5971   -0.9436 H   0  0  0  0  0  0  0  0  0  0  0  0
    2.2179  -17.0942   -0.7532 H   0  0  0  0  0  0  0  0  0  0  0  0
   -0.1442  -17.4078   -0.7222 H   0  0  0  0  0  0  0  0  0  0  0  0
   -1.7987  -15.1829    0.5586 H   0  0  0  0  0  0  0  0  0  0  0  0
   -1.3847  -15.1739   -1.2015 H   0  0  0  0  0  0  0  0  0  0  0  0
   -2.3240  -17.5790   -0.2690 H   0  0  0  0  0  0  0  0  0  0  0  0
   -0.4626  -16.3390    2.0875 H   0  0  0  0  0  0  0  0  0  0  0  0
   -1.7760  -18.1930    0.7310 H   0  0  0  0  0  0  0  0  0  0  0  0
    1.2008  -18.6881    1.0132 H   0  0  0  0  0  0  0  0  0  0  0  0
    0.4170  -18.8850    3.1480 H   0  0  0  0  0  0  0  0  0  0  0  0
    2.2363  -16.0163    2.1133 H   0  0  0  0  0  0  0  0  0  0  0  0
    3.7750  -17.8100    0.6740 H   0  0  0  0  0  0  0  0  0  0  0  0
    1.2879  -13.9702   -1.6306 H   0  0  0  0  0  0  0  0  0  0  0  0
    1.7048  -12.2650   -2.0912 H   0  0  0  0  0  0  0  0  0  0  0  0
    1.9348  -14.7206   -3.8826 H   0  0  0  0  0  0  0  0  0  0  0  0
    0.6619  -13.4381   -3.9610 H   0  0  0  0  0  0  0  0  0  0  0  0
    2.5819  -13.2463   -5.6231 H   0  0  0  0  0  0  0  0  0  0  0  0
    1.9422  -10.9662   -3.6896 H   0  0  0  0  0  0  0  0  0  0  0  0
    2.8165  -10.7422   -5.2427 H   0  0  0  0  0  0  0  0  0  0  0  0
    1.1290  -11.3579   -5.2427 H   0  0  0  0  0  0  0  0  0  0  0  0
  1  2  1  0
  2  3  2  0
  3  4  1  0
  4  5  2  0
  5  6  1  0
  6  7  1  0
  7  8  1  0
  8  9  1  1
  8 10  1  0
 10 11  1  0
 11 12  1  0
 11 13  1  0
 13 14  1  0
 13 15  1  0
 15 16  1  0
 15 17  1  0
 15 18  1  0
 18 19  1  0
 19 20  1  0
 20 21  1  0
 21 22  1  1
 21 23  1  0
 23 24  1  6
 23 25  1  0
 25 26  1  0
 26 27  1  0
 27 28  1  1
 28 29  2  0
 28 30  1  0
 30 31  1  0
 31 32  1  0
 32 33  1  0
 33 34  1  0
 34 35  1  0
 33 36  1  0
 36 37  1  0
 36 38  1  0
 38 39  1  0
 38 40  1  0
 40 41  1  0
 27 42  1  0
 42 43  1  0
 43 44  1  0
 44 45  1  0
 44  2  1  0
 27  3  1  0
 40 31  1  0
 23  4  1  0
 21  7  1  0
 18  8  1  0
  1 46  1  0
  1 47  1  0
  1 48  1  0
  5 49  1  0
  6 50  1  0
  6 51  1  0
  7 52  1  6
  9 53  1  0
  9 54  1  0
  9 55  1  0
 10 56  1  0
 10 57  1  0
 11 58  1  1
 12 59  1  0
 13 60  1  6
 14 61  1  0
 16 62  1  0
 16 63  1  0
 16 64  1  0
 17 65  1  0
 17 66  1  0
 17 67  1  0
 18 68  1  6
 19 69  1  0
 19 70  1  0
 20 71  1  0
 20 72  1  0
 22 73  1  0
 22 74  1  0
 22 75  1  0
 24 76  1  0
 24 77  1  0
 24 78  1  0
 25 79  1  0
 25 80  1  0
 26 81  1  0
 26 82  1  0
 31 83  1  6
 33 84  1  6
 34 85  1  0
 34 86  1  0
 35 87  1  0
 36 88  1  1
 37 89  1  0
 38 90  1  6
 39 91  1  0
 40 92  1  1
 41 93  1  0
 42 94  1  0
 42 95  1  0
 43 96  1  0
 43 97  1  0
 44 98  1  6
 45 99  1  0
 45100  1  0
 45101  1  0
M  END
>  <meeko>  (1) 
{"is_sidechain": [false], "free_energy": -9.29, "intermolecular_energy": -13.091, "internal_energy": -1.044}

$$$$
LIB_OFWIRPXDLBDEFC__M_PUB_ALL__e8__s20260927
     RDKit          3D

101106  0  0  0  0  0  0  0  0999 V2000
    2.9980  -11.1990   -4.8490 C   0  0  0  0  0  0  0  0  0  0  0  0
    4.1640  -12.0540   -4.4040 C   0  0  0  0  0  0  0  0  0  0  0  0
    4.2130  -12.7350   -3.2280 C   0  0  0  0  0  0  0  0  0  0  0  0
    3.1440  -12.6800   -2.2130 C   0  0  0  0  0  0  0  0  0  0  0  0
    2.7600  -11.4950   -1.7030 C   0  0  0  0  0  0  0  0  0  0  0  0
    1.6280  -11.2940   -0.7440 C   0  0  0  0  0  0  0  0  0  0  0  0
    0.7240  -12.5390   -0.5960 C   0  0  2  0  0  0  0  0  0  0  0  0
   -0.5040  -12.3480    0.4070 C   0  0  1  0  0  0  0  0  0  0  0  0
   -0.0550  -11.9050    1.8220 C   0  0  0  0  0  0  0  0  0  0  0  0
   -1.4310  -11.2250   -0.1540 C   0  0  0  0  0  0  0  0  0  0  0  0
   -2.7930  -11.1350    0.5340 C   0  0  1  0  0  0  0  0  0  0  0  0
   -3.6060  -10.1680   -0.1510 O   0  0  0  0  0  0  0  0  0  0  0  0
   -3.5390  -12.4740    0.5080 C   0  0  2  0  0  0  0  0  0  0  0  0
   -4.7880  -12.3050    1.1910 O   0  0  0  0  0  0  0  0  0  0  0  0
   -2.7310  -13.6570    1.1080 C   0  0  0  0  0  0  0  0  0  0  0  0
   -3.5150  -14.9570    0.7730 C   0  0  0  0  0  0  0  0  0  0  0  0
   -2.6690  -13.5850    2.6460 C   0  0  0  0  0  0  0  0  0  0  0  0
   -1.3200  -13.6940    0.4100 C   0  0  2  0  0  0  0  0  0  0  0  0
   -0.4200  -14.8750    0.8240 C   0  0  0  0  0  0  0  0  0  0  0  0
    0.6980  -15.0740   -0.2020 C   0  0  0  0  0  0  0  0  0  0  0  0
    1.6080  -13.8350   -0.4220 C   0  0  2  0  0  0  0  0  0  0  0  0
    2.5210  -13.7050    0.8350 C   0  0  0  0  0  0  0  0  0  0  0  0
    2.5300  -14.0190   -1.7620 C   0  0  1  0  0  0  0  0  0  0  0  0
    1.6970  -14.5430   -2.9710 C   0  0  0  0  0  0  0  0  0  0  0  0
    3.6760  -15.0480   -1.5000 C   0  0  0  0  0  0  0  0  0  0  0  0
    4.7640  -15.0750   -2.5770 C   0  0  0  0  0  0  0  0  0  0  0  0
    5.3680  -13.6730   -2.8550 C   0  0  2  0  0  0  0  0  0  0  0  0
    6.1180  -13.0820   -1.6320 C   0  0  0  0  0  0  0  0  0  0  0  0
    5.7210  -12.1430   -0.9500 O   0  0  0  0  0  0  0  0  0  0  0  0
    7.3260  -13.6870   -1.4640 O   0  0  0  0  0  0  0  0  0  0  0  0
    8.4320  -12.7960   -1.2830 C   0  0  2  0  0  0  0  0  0  0  0  0
    9.4450  -13.1230   -2.2420 O   0  0  0  0  0  0  0  0  0  0  0  0
   10.5970  -12.2820   -2.1370 C   0  0  2  0  0  0  0  0  0  0  0  0
   11.5600  -12.6590   -3.2720 C   0  0  0  0  0  0  0  0  0  0  0  0
   12.4000  -11.5600   -3.6160 O   0  0  0  0  0  0  0  0  0  0  0  0
   11.2620  -12.4430   -0.7580 C   0  0  1  0  0  0  0  0  0  0  0  0
   12.3570  -11.5390   -0.5610 O   0  0  0  0  0  0  0  0  0  0  0  0
   10.2350  -12.1660    0.3410 C   0  0  2  0  0  0  0  0  0  0  0  0
   10.8010  -12.4600    1.6300 O   0  0  0  0  0  0  0  0  0  0  0  0
    8.9690  -12.9990    0.1460 C   0  0  1  0  0  0  0  0  0  0  0  0
    8.0030  -12.6060    1.1350 O   0  0  0  0  0  0  0  0  0  0  0  0
    6.4310  -13.8310   -3.9710 C   0  0  0  0  0  0  0  0  0  0  0  0
    6.6310  -12.5400   -4.7530 C   0  0  0  0  0  0  0  0  0  0  0  0
    5.3190  -12.0760   -5.4000 C   0  0  1  0  0  0  0  0  0  0  0  0
    4.9820  -12.9390   -6.6240 C   0  0  0  0  0  0  0  0  0  0  0  0
    2.4694  -10.8114   -3.9656 H   0  0  0  0  0  0  0  0  0  0  0  0
    3.3695  -10.3577   -5.4525 H   0  0  0  0  0  0  0  0  0  0  0  0
    2.3073  -11.8063   -5.4525 H   0  0  0  0  0  0  0  0  0  0  0  0
    3.3228  -10.6031   -2.0158 H   0  0  0  0  0  0  0  0  0  0  0  0
    2.0462  -11.0468    0.2429 H   0  0  0  0  0  0  0  0  0  0  0  0
    1.0022  -10.4826   -1.1440 H   0  0  0  0  0  0  0  0  0  0  0  0
    0.1738  -12.6912   -1.5363 H   0  0  0  0  0  0  0  0  0  0  0  0
   -0.6230  -12.4654    2.5791 H   0  0  0  0  0  0  0  0  0  0  0  0
    1.0192  -12.1069    1.9458 H   0  0  0  0  0  0  0  0  0  0  0  0
   -0.2424  -10.8282    1.9458 H   0  0  0  0  0  0  0  0  0  0  0  0
   -0.9176  -10.2601   -0.0303 H   0  0  0  0  0  0  0  0  0  0  0  0
   -1.6250  -11.4725   -1.2081 H   0  0  0  0  0  0  0  0  0  0  0  0
   -2.6141  -10.8473    1.5805 H   0  0  0  0  0  0  0  0  0  0  0  0
   -3.0820   -9.8280   -0.8960 H   0  0  0  0  0  0  0  0  0  0  0  0
   -3.7012  -12.7488   -0.5447 H   0  0  0  0  0  0  0  0  0  0  0  0
   -4.5540  -12.3100    2.1410 H   0  0  0  0  0  0  0  0  0  0  0  0
   -3.8153  -15.4550    1.7067 H   0  0  0  0  0  0  0  0  0  0  0  0
   -4.4113  -14.7041    0.1876 H   0  0  0  0  0  0  0  0  0  0  0  0
   -2.8731  -15.6318    0.1876 H   0  0  0  0  0  0  0  0  0  0  0  0
   -3.3297  -14.3522    3.0759 H   0  0  0  0  0  0  0  0  0  0  0  0
   -1.6359  -13.7617    2.9800 H   0  0  0  0  0  0  0  0  0  0  0  0
   -2.9971  -12.5896    2.9800 H   0  0  0  0  0  0  0  0  0  0  0  0
   -1.6233  -13.8595   -0.6343 H   0  0  0  0  0  0  0  0  0  0  0  0
    0.0237  -14.6657    1.8086 H   0  0  0  0  0  0  0  0  0  0  0  0
   -1.0289  -15.7898    0.8726 H   0  0  0  0  0  0  0  0  0  0  0  0
    1.3306  -15.9071    0.1384 H   0  0  0  0  0  0  0  0  0  0  0  0
    0.2035  -15.2699   -1.1648 H   0  0  0  0  0  0  0  0  0  0  0  0
    1.9079  -13.7923    1.7441 H   0  0  0  0  0  0  0  0  0  0  0  0
    3.2763  -14.5047    0.8239 H   0  0  0  0  0  0  0  0  0  0  0  0
    3.0230  -12.7263    0.8239 H   0  0  0  0  0  0  0  0  0  0  0  0
    0.8203  -15.0945   -2.6007 H   0  0  0  0  0  0  0  0  0  0  0  0
    1.3632  -13.6919   -3.5827 H   0  0  0  0  0  0  0  0  0  0  0  0
    2.3197  -15.2124   -3.5827 H   0  0  0  0  0  0  0  0  0  0  0  0
    4.1497  -14.7974   -0.5394 H   0  0  0  0  0  0  0  0  0  0  0  0
    3.2087  -16.0438   -1.5025 H   0  0  0  0  0  0  0  0  0  0  0  0
    5.5703  -15.7459   -2.2456 H   0  0  0  0  0  0  0  0  0  0  0  0
    4.2989  -15.4267   -3.5097 H   0  0  0  0  0  0  0  0  0  0  0  0
    8.1298  -11.7478   -1.4240 H   0  0  0  0  0  0  0  0  0  0  0  0
   10.3109  -11.2240   -2.2308 H   0  0  0  0  0  0  0  0  0  0  0  0
   12.1866  -13.5025   -2.9467 H   0  0  0  0  0  0  0  0  0  0  0  0
   10.9676  -12.9372   -4.1561 H   0  0  0  0  0  0  0  0  0  0  0  0
   13.3170  -11.8550   -3.4610 H   0  0  0  0  0  0  0  0  0  0  0  0
   11.6440  -13.4736   -0.7132 H   0  0  0  0  0  0  0  0  0  0  0  0
   13.1420  -12.0960   -0.3580 H   0  0  0  0  0  0  0  0  0  0  0  0
    9.9645  -11.1013    0.2837 H   0  0  0  0  0  0  0  0  0  0  0  0
   10.8950  -11.5870    2.0640 H   0  0  0  0  0  0  0  0  0  0  0  0
    9.1857  -14.0700    0.2724 H   0  0  0  0  0  0  0  0  0  0  0  0
    8.4110  -12.8440    1.9930 H   0  0  0  0  0  0  0  0  0  0  0  0
    7.3879  -14.1204   -3.5120 H   0  0  0  0  0  0  0  0  0  0  0  0
    6.0773  -14.6019   -4.6714 H   0  0  0  0  0  0  0  0  0  0  0  0
    6.9902  -11.7575   -4.0684 H   0  0  0  0  0  0  0  0  0  0  0  0
    7.3667  -12.7249   -5.5496 H   0  0  0  0  0  0  0  0  0  0  0  0
    5.4675  -11.0398   -5.7379 H   0  0  0  0  0  0  0  0  0  0  0  0
    4.6007  -13.9154   -6.2904 H   0  0  0  0  0  0  0  0  0  0  0  0
    4.2153  -12.4333   -7.2293 H   0  0  0  0  0  0  0  0  0  0  0  0
    5.8885  -13.0867   -7.2293 H   0  0  0  0  0  0  0  0  0  0  0  0
  1  2  1  0
  2  3  2  0
  3  4  1  0
  4  5  2  0
  5  6  1  0
  6  7  1  0
  7  8  1  0
  8  9  1  1
  8 10  1  0
 10 11  1  0
 11 12  1  0
 11 13  1  0
 13 14  1  0
 13 15  1  0
 15 16  1  0
 15 17  1  0
 15 18  1  0
 18 19  1  0
 19 20  1  0
 20 21  1  0
 21 22  1  1
 21 23  1  0
 23 24  1  6
 23 25  1  0
 25 26  1  0
 26 27  1  0
 27 28  1  1
 28 29  2  0
 28 30  1  0
 30 31  1  0
 31 32  1  0
 32 33  1  0
 33 34  1  0
 34 35  1  0
 33 36  1  0
 36 37  1  0
 36 38  1  0
 38 39  1  0
 38 40  1  0
 40 41  1  0
 27 42  1  0
 42 43  1  0
 43 44  1  0
 44 45  1  0
 44  2  1  0
 27  3  1  0
 40 31  1  0
 23  4  1  0
 21  7  1  0
 18  8  1  0
  1 46  1  0
  1 47  1  0
  1 48  1  0
  5 49  1  0
  6 50  1  0
  6 51  1  0
  7 52  1  6
  9 53  1  0
  9 54  1  0
  9 55  1  0
 10 56  1  0
 10 57  1  0
 11 58  1  1
 12 59  1  0
 13 60  1  6
 14 61  1  0
 16 62  1  0
 16 63  1  0
 16 64  1  0
 17 65  1  0
 17 66  1  0
 17 67  1  0
 18 68  1  6
 19 69  1  0
 19 70  1  0
 20 71  1  0
 20 72  1  0
 22 73  1  0
 22 74  1  0
 22 75  1  0
 24 76  1  0
 24 77  1  0
 24 78  1  0
 25 79  1  0
 25 80  1  0
 26 81  1  0
 26 82  1  0
 31 83  1  1
 33 84  1  6
 34 85  1  0
 34 86  1  0
 35 87  1  0
 36 88  1  1
 37 89  1  0
 38 90  1  1
 39 91  1  0
 40 92  1  1
 41 93  1  0
 42 94  1  0
 42 95  1  0
 43 96  1  0
 43 97  1  0
 44 98  1  6
 45 99  1  0
 45100  1  0
 45101  1  0
M  END
>  <meeko>  (2) 
{"is_sidechain": [false], "free_energy": -9.07, "intermolecular_energy": -13.023, "internal_energy": -0.803}

$$$$
LIB_OFWIRPXDLBDEFC__M_PUB_ALL__e8__s20260927
     RDKit          3D

101106  0  0  0  0  0  0  0  0999 V2000
    2.1500  -14.5300    3.9620 C   0  0  0  0  0  0  0  0  0  0  0  0
    1.0800  -15.4270    3.3770 C   0  0  0  0  0  0  0  0  0  0  0  0
    0.8720  -15.6080    2.0460 C   0  0  0  0  0  0  0  0  0  0  0  0
    1.6410  -14.9060    1.0010 C   0  0  0  0  0  0  0  0  0  0  0  0
    1.6780  -13.5610    0.9810 C   0  0  0  0  0  0  0  0  0  0  0  0
    2.4940  -12.7330    0.0380 C   0  0  0  0  0  0  0  0  0  0  0  0
    3.5400  -13.5550   -0.7470 C   0  0  2  0  0  0  0  0  0  0  0  0
    4.4400  -12.6960   -1.7480 C   0  0  1  0  0  0  0  0  0  0  0  0
    3.5950  -11.8890   -2.7660 C   0  0  0  0  0  0  0  0  0  0  0  0
    5.2620  -11.6650   -0.9130 C   0  0  0  0  0  0  0  0  0  0  0  0
    6.3830  -10.9780   -1.6940 C   0  0  1  0  0  0  0  0  0  0  0  0
    7.1540  -10.1620   -0.7960 O   0  0  0  0  0  0  0  0  0  0  0  0
    7.3360  -11.9900   -2.3390 C   0  0  2  0  0  0  0  0  0  0  0  0
    8.3370  -11.2640   -3.0660 O   0  0  0  0  0  0  0  0  0  0  0  0
    6.6290  -13.0300   -3.2510 C   0  0  0  0  0  0  0  0  0  0  0  0
    7.6870  -14.1120   -3.6100 C   0  0  0  0  0  0  0  0  0  0  0  0
    6.1900  -12.4080   -4.5910 C   0  0  0  0  0  0  0  0  0  0  0  0
    5.4550  -13.6850   -2.4330 C   0  0  2  0  0  0  0  0  0  0  0  0
    4.7040  -14.8150   -3.1640 C   0  0  0  0  0  0  0  0  0  0  0  0
    3.9170  -15.6630   -2.1620 C   0  0  0  0  0  0  0  0  0  0  0  0
    2.8820  -14.8740   -1.3130 C   0  0  2  0  0  0  0  0  0  0  0  0
    1.6880  -14.5240   -2.2510 C   0  0  0  0  0  0  0  0  0  0  0  0
    2.3540  -15.7740   -0.0520 C   0  0  1  0  0  0  0  0  0  0  0  0
    3.5310  -16.4780    0.6900 C   0  0  0  0  0  0  0  0  0  0  0  0
    1.3770  -16.8890   -0.5470 C   0  0  0  0  0  0  0  0  0  0  0  0
    0.6010  -17.5940    0.5680 C   0  0  0  0  0  0  0  0  0  0  0  0
   -0.1550  -16.6030    1.4910 C   0  0  2  0  0  0  0  0  0  0  0  0
   -1.2680  -15.8120    0.7520 C   0  0  0  0  0  0  0  0  0  0  0  0
   -1.6900  -16.0730   -0.3690 O   0  0  0  0  0  0  0  0  0  0  0  0
   -1.6590  -14.7300    1.4790 O   0  0  0  0  0  0  0  0  0  0  0  0
   -1.9700  -13.5620    0.7110 C   0  0  2  0  0  0  0  0  0  0  0  0
   -1.3540  -12.4280    1.3330 O   0  0  0  0  0  0  0  0  0  0  0  0
   -1.6120  -11.2070    0.6330 C   0  0  2  0  0  0  0  0  0  0  0  0
   -0.8220  -10.0900    1.3300 C   0  0  0  0  0  0  0  0  0  0  0  0
   -1.6990   -9.1540    1.9510 O   0  0  0  0  0  0  0  0  0  0  0  0
   -3.1200  -10.9020    0.6120 C   0  0  1  0  0  0  0  0  0  0  0  0
   -3.4420   -9.7470   -0.1740 O   0  0  0  0  0  0  0  0  0  0  0  0
   -3.8740  -12.0890    0.0110 C   0  0  2  0  0  0  0  0  0  0  0  0
   -5.2920  -11.8810    0.1240 O   0  0  0  0  0  0  0  0  0  0  0  0
   -3.5010  -13.3980    0.7050 C   0  0  1  0  0  0  0  0  0  0  0  0
   -4.1480  -14.4830    0.0190 O   0  0  0  0  0  0  0  0  0  0  0  0
   -0.8770  -17.4330    2.5830 C   0  0  0  0  0  0  0  0  0  0  0  0
   -1.1070  -16.6240    3.8520 C   0  0  0  0  0  0  0  0  0  0  0  0
    0.2190  -16.1140    4.4320 C   0  0  1  0  0  0  0  0  0  0  0  0
    0.9840  -17.2530    5.1200 C   0  0  0  0  0  0  0  0  0  0  0  0
    2.1020  -14.5702    5.0602 H   0  0  0  0  0  0  0  0  0  0  0  0
    3.1397  -14.8723    3.6254 H   0  0  0  0  0  0  0  0  0  0  0  0
    1.9857  -13.4957    3.6254 H   0  0  0  0  0  0  0  0  0  0  0  0
    1.0588  -13.0270    1.7168 H   0  0  0  0  0  0  0  0  0  0  0  0
    1.8152  -12.2526   -0.6821 H   0  0  0  0  0  0  0  0  0  0  0  0
    3.0443  -11.9971    0.6426 H   0  0  0  0  0  0  0  0  0  0  0  0
    4.3167  -13.8988   -0.0481 H   0  0  0  0  0  0  0  0  0  0  0  0
    2.9024  -11.2275   -2.2249 H   0  0  0  0  0  0  0  0  0  0  0  0
    4.2617  -11.2838   -3.3978 H   0  0  0  0  0  0  0  0  0  0  0  0
    3.0211  -12.5828   -3.3978 H   0  0  0  0  0  0  0  0  0  0  0  0
    4.5726  -10.8905   -0.5456 H   0  0  0  0  0  0  0  0  0  0  0  0
    5.7425  -12.2282   -0.0994 H   0  0  0  0  0  0  0  0  0  0  0  0
    5.9118  -10.3773   -2.4859 H   0  0  0  0  0  0  0  0  0  0  0  0
    6.6620   -9.3330   -0.6680 H   0  0  0  0  0  0  0  0  0  0  0  0
    7.7901  -12.5852   -1.5331 H   0  0  0  0  0  0  0  0  0  0  0  0
    9.0640  -11.1350   -2.4240 H   0  0  0  0  0  0  0  0  0  0  0  0
    8.1038  -14.5382   -2.6855 H   0  0  0  0  0  0  0  0  0  0  0  0
    7.2106  -14.9094   -4.1992 H   0  0  0  0  0  0  0  0  0  0  0  0
    8.4949  -13.6536   -4.1992 H   0  0  0  0  0  0  0  0  0  0  0  0
    5.5656  -11.5233   -4.3975 H   0  0  0  0  0  0  0  0  0  0  0  0
    7.0793  -12.1105   -5.1660 H   0  0  0  0  0  0  0  0  0  0  0  0
    5.6117  -13.1463   -5.1660 H   0  0  0  0  0  0  0  0  0  0  0  0
    6.0233  -14.1433   -1.6102 H   0  0  0  0  0  0  0  0  0  0  0  0
    4.0078  -14.3756   -3.8935 H   0  0  0  0  0  0  0  0  0  0  0  0
    5.4345  -15.4556   -3.6797 H   0  0  0  0  0  0  0  0  0  0  0  0
    3.3782  -16.4419   -2.7215 H   0  0  0  0  0  0  0  0  0  0  0  0
    4.6539  -16.0692   -1.4535 H   0  0  0  0  0  0  0  0  0  0  0  0
    0.8079  -14.2660   -1.6436 H   0  0  0  0  0  0  0  0  0  0  0  0
    1.9592  -13.6676   -2.8858 H   0  0  0  0  0  0  0  0  0  0  0  0
    1.4539  -15.3913   -2.8858 H   0  0  0  0  0  0  0  0  0  0  0  0
    3.3842  -16.3902    1.7766 H   0  0  0  0  0  0  0  0  0  0  0  0
    3.5585  -17.5410    0.4084 H   0  0  0  0  0  0  0  0  0  0  0  0
    4.4806  -15.9994    0.4084 H   0  0  0  0  0  0  0  0  0  0  0  0
    0.6507  -16.4294   -1.2334 H   0  0  0  0  0  0  0  0  0  0  0  0
    1.9984  -17.6576   -1.0298 H   0  0  0  0  0  0  0  0  0  0  0  0
   -0.1304  -18.2763    0.1104 H   0  0  0  0  0  0  0  0  0  0  0  0
    1.3301  -18.1355    1.1887 H   0  0  0  0  0  0  0  0  0  0  0  0
   -1.5994  -13.6500   -0.3209 H   0  0  0  0  0  0  0  0  0  0  0  0
   -1.2902  -11.2887   -0.4157 H   0  0  0  0  0  0  0  0  0  0  0  0
   -0.1701  -10.5349    2.0962 H   0  0  0  0  0  0  0  0  0  0  0  0
   -0.2234   -9.5606    0.5741 H   0  0  0  0  0  0  0  0  0  0  0  0
   -1.2770   -8.2790    1.8620 H   0  0  0  0  0  0  0  0  0  0  0  0
   -3.4150  -10.7123    1.6546 H   0  0  0  0  0  0  0  0  0  0  0  0
   -2.6390   -9.5400   -0.7030 H   0  0  0  0  0  0  0  0  0  0  0  0
   -3.5888  -12.1624   -1.0488 H   0  0  0  0  0  0  0  0  0  0  0  0
   -5.5750  -12.4830    0.8420 H   0  0  0  0  0  0  0  0  0  0  0  0
   -3.8396  -13.3929    1.7516 H   0  0  0  0  0  0  0  0  0  0  0  0
   -4.4320  -15.0950    0.7290 H   0  0  0  0  0  0  0  0  0  0  0  0
   -1.8500  -17.7653    2.1919 H   0  0  0  0  0  0  0  0  0  0  0  0
   -0.2376  -18.2912    2.8372 H   0  0  0  0  0  0  0  0  0  0  0  0
   -1.7507  -15.7635    3.6173 H   0  0  0  0  0  0  0  0  0  0  0  0
   -1.5866  -17.2746    4.5981 H   0  0  0  0  0  0  0  0  0  0  0  0
   -0.0232  -15.3537    5.1892 H   0  0  0  0  0  0  0  0  0  0  0  0
    0.9076  -17.1392    6.2114 H   0  0  0  0  0  0  0  0  0  0  0  0
    0.5508  -18.2188    4.8208 H   0  0  0  0  0  0  0  0  0  0  0  0
    2.0419  -17.2173    4.8208 H   0  0  0  0  0  0  0  0  0  0  0  0
  1  2  1  0
  2  3  2  0
  3  4  1  0
  4  5  2  0
  5  6  1  0
  6  7  1  0
  7  8  1  0
  8  9  1  6
  8 10  1  0
 10 11  1  0
 11 12  1  0
 11 13  1  0
 13 14  1  0
 13 15  1  0
 15 16  1  0
 15 17  1  0
 15 18  1  0
 18 19  1  0
 19 20  1  0
 20 21  1  0
 21 22  1  6
 21 23  1  0
 23 24  1  1
 23 25  1  0
 25 26  1  0
 26 27  1  0
 27 28  1  6
 28 29  2  0
 28 30  1  0
 30 31  1  0
 31 32  1  0
 32 33  1  0
 33 34  1  0
 34 35  1  0
 33 36  1  0
 36 37  1  0
 36 38  1  0
 38 39  1  0
 38 40  1  0
 40 41  1  0
 27 42  1  0
 42 43  1  0
 43 44  1  0
 44 45  1  0
 44  2  1  0
 27  3  1  0
 40 31  1  0
 23  4  1  0
 21  7  1  0
 18  8  1  0
  1 46  1  0
  1 47  1  0
  1 48  1  0
  5 49  1  0
  6 50  1  0
  6 51  1  0
  7 52  1  1
  9 53  1  0
  9 54  1  0
  9 55  1  0
 10 56  1  0
 10 57  1  0
 11 58  1  6
 12 59  1  0
 13 60  1  1
 14 61  1  0
 16 62  1  0
 16 63  1  0
 16 64  1  0
 17 65  1  0
 17 66  1  0
 17 67  1  0
 18 68  1  1
 19 69  1  0
 19 70  1  0
 20 71  1  0
 20 72  1  0
 22 73  1  0
 22 74  1  0
 22 75  1  0
 24 76  1  0
 24 77  1  0
 24 78  1  0
 25 79  1  0
 25 80  1  0
 26 81  1  0
 26 82  1  0
 31 83  1  6
 33 84  1  6
 34 85  1  0
 34 86  1  0
 35 87  1  0
 36 88  1  1
 37 89  1  0
 38 90  1  6
 39 91  1  0
 40 92  1  1
 41 93  1  0
 42 94  1  0
 42 95  1  0
 43 96  1  0
 43 97  1  0
 44 98  1  1
 45 99  1  0
 45100  1  0
 45101  1  0
M  END
>  <meeko>  (3) 
{"is_sidechain": [false], "free_energy": -8.773, "intermolecular_energy": -12.175, "internal_energy": -1.231}

$$$$
LIB_OFWIRPXDLBDEFC__M_PUB_ALL__e8__s20260927
     RDKit          3D

101106  0  0  0  0  0  0  0  0999 V2000
    2.4020  -12.1880   -3.6380 C   0  0  0  0  0  0  0  0  0  0  0  0
    3.8360  -12.5560   -3.3250 C   0  0  0  0  0  0  0  0  0  0  0  0
    4.2480  -13.1180   -2.1570 C   0  0  0  0  0  0  0  0  0  0  0  0
    3.3430  -13.3920   -1.0240 C   0  0  0  0  0  0  0  0  0  0  0  0
    2.6210  -12.3940   -0.4820 C   0  0  0  0  0  0  0  0  0  0  0  0
    1.6010  -12.5550    0.6010 C   0  0  0  0  0  0  0  0  0  0  0  0
    1.2180  -14.0290    0.8640 C   0  0  2  0  0  0  0  0  0  0  0  0
    0.1160  -14.2320    2.0020 C   0  0  1  0  0  0  0  0  0  0  0  0
    0.5280  -13.5910    3.3510 C   0  0  0  0  0  0  0  0  0  0  0  0
   -1.2020  -13.5350    1.5440 C   0  0  0  0  0  0  0  0  0  0  0  0
   -2.4270  -13.8950    2.3870 C   0  0  1  0  0  0  0  0  0  0  0  0
   -3.5980  -13.3090    1.7940 O   0  0  0  0  0  0  0  0  0  0  0  0
   -2.6480  -15.4090    2.4590 C   0  0  2  0  0  0  0  0  0  0  0  0
   -3.7960  -15.6570    3.2820 O   0  0  0  0  0  0  0  0  0  0  0  0
   -1.4140  -16.2030    2.9690 C   0  0  0  0  0  0  0  0  0  0  0  0
   -1.7180  -17.7110    2.7400 C   0  0  0  0  0  0  0  0  0  0  0  0
   -1.2180  -16.0380    4.4890 C   0  0  0  0  0  0  0  0  0  0  0  0
   -0.1650  -15.7770    2.1120 C   0  0  2  0  0  0  0  0  0  0  0  0
    1.1340  -16.5450    2.4270 C   0  0  0  0  0  0  0  0  0  0  0  0
    2.1330  -16.3900    1.2790 C   0  0  0  0  0  0  0  0  0  0  0  0
    2.5170  -14.9220    0.9430 C   0  0  2  0  0  0  0  0  0  0  0  0
    3.4530  -14.4190    2.0830 C   0  0  0  0  0  0  0  0  0  0  0  0
    3.2960  -14.8370   -0.4940 C   0  0  1  0  0  0  0  0  0  0  0  0
    2.5780  -15.6790   -1.5930 C   0  0  0  0  0  0  0  0  0  0  0  0
    4.7530  -15.3840   -0.3590 C   0  0  0  0  0  0  0  0  0  0  0  0
    5.6580  -15.0810   -1.5570 C   0  0  0  0  0  0  0  0  0  0  0  0
    5.6930  -13.5720   -1.9150 C   0  0  2  0  0  0  0  0  0  0  0  0
    6.3110  -12.6960   -0.7930 C   0  0  0  0  0  0  0  0  0  0  0  0
    6.0090  -11.5290   -0.5650 O   0  0  0  0  0  0  0  0  0  0  0  0
    7.3010  -13.3660   -0.1430 O   0  0  0  0  0  0  0  0  0  0  0  0
    8.6340  -12.9880   -0.5090 C   0  0  2  0  0  0  0  0  0  0  0  0
    9.4280  -14.1730   -0.6360 O   0  0  0  0  0  0  0  0  0  0  0  0
   10.7820  -13.8950   -1.0000 C   0  0  2  0  0  0  0  0  0  0  0  0
   11.5000  -15.2360   -1.2040 C   0  0  0  0  0  0  0  0  0  0  0  0
   12.6620  -15.3250   -0.3830 O   0  0  0  0  0  0  0  0  0  0  0  0
   11.4710  -13.0460    0.0820 C   0  0  1  0  0  0  0  0  0  0  0  0
   12.7970  -12.6440   -0.2860 O   0  0  0  0  0  0  0  0  0  0  0  0
   10.6600  -11.7730    0.3300 C   0  0  2  0  0  0  0  0  0  0  0  0
   11.2080  -11.0460    1.4420 O   0  0  0  0  0  0  0  0  0  0  0  0
    9.1920  -12.0920    0.6110 C   0  0  1  0  0  0  0  0  0  0  0  0
    8.4650  -10.8560    0.7140 O   0  0  0  0  0  0  0  0  0  0  0  0
    6.6180  -13.4010   -3.1460 C   0  0  0  0  0  0  0  0  0  0  0  0
    6.2620  -12.1620   -3.9570 C   0  0  0  0  0  0  0  0  0  0  0  0
    4.8100  -12.2200   -4.4490 C   0  0  1  0  0  0  0  0  0  0  0  0
    4.6730  -13.2050   -5.6180 C   0  0  0  0  0  0  0  0  0  0  0  0
    1.8467  -12.0455   -2.6992 H   0  0  0  0  0  0  0  0  0  0  0  0
    2.3817  -11.2555   -4.2212 H   0  0  0  0  0  0  0  0  0  0  0  0
    1.9352  -12.9954   -4.2212 H   0  0  0  0  0  0  0  0  0  0  0  0
    2.7947  -11.3780   -0.8661 H   0  0  0  0  0  0  0  0  0  0  0  0
    2.0074  -12.1285    1.5299 H   0  0  0  0  0  0  0  0  0  0  0  0
    0.6897  -12.0349    0.2709 H   0  0  0  0  0  0  0  0  0  0  0  0
    0.6602  -14.4110   -0.0037 H   0  0  0  0  0  0  0  0  0  0  0  0
    0.1373  -14.1989    4.1803 H   0  0  0  0  0  0  0  0  0  0  0  0
    1.6252  -13.5451    3.4152 H   0  0  0  0  0  0  0  0  0  0  0  0
    0.1141  -12.5739    3.4152 H   0  0  0  0  0  0  0  0  0  0  0  0
   -1.0535  -12.4464    1.5984 H   0  0  0  0  0  0  0  0  0  0  0  0
   -1.4070  -13.8864    0.5220 H   0  0  0  0  0  0  0  0  0  0  0  0
   -2.2515  -13.5120    3.4031 H   0  0  0  0  0  0  0  0  0  0  0  0
   -4.2430  -13.1710    2.5090 H   0  0  0  0  0  0  0  0  0  0  0  0
   -2.8135  -15.7737    1.4345 H   0  0  0  0  0  0  0  0  0  0  0  0
   -4.3910  -14.8990    3.1120 H   0  0  0  0  0  0  0  0  0  0  0  0
   -1.8198  -18.2162    3.7118 H   0  0  0  0  0  0  0  0  0  0  0  0
   -2.6550  -17.8142    2.1731 H   0  0  0  0  0  0  0  0  0  0  0  0
   -0.8941  -18.1692    2.1731 H   0  0  0  0  0  0  0  0  0  0  0  0
   -1.9537  -16.6574    5.0229 H   0  0  0  0  0  0  0  0  0  0  0  0
   -0.2018  -16.3565    4.7644 H   0  0  0  0  0  0  0  0  0  0  0  0
   -1.3586  -14.9824    4.7644 H   0  0  0  0  0  0  0  0  0  0  0  0
   -0.4998  -16.0900    1.1120 H   0  0  0  0  0  0  0  0  0  0  0  0
    1.5775  -16.1448    3.3507 H   0  0  0  0  0  0  0  0  0  0  0  0
    0.8975  -17.6117    2.5545 H   0  0  0  0  0  0  0  0  0  0  0  0
    3.0519  -16.9307    1.5497 H   0  0  0  0  0  0  0  0  0  0  0  0
    1.6398  -16.7940    0.3826 H   0  0  0  0  0  0  0  0  0  0  0  0
    3.0050  -14.6598    3.0583 H   0  0  0  0  0  0  0  0  0  0  0  0
    4.4325  -14.9122    1.9977 H   0  0  0  0  0  0  0  0  0  0  0  0
    3.5822  -13.3300    1.9977 H   0  0  0  0  0  0  0  0  0  0  0  0
    1.9350  -16.4330   -1.1155 H   0  0  0  0  0  0  0  0  0  0  0  0
    1.9629  -15.0162   -2.2193 H   0  0  0  0  0  0  0  0  0  0  0  0
    3.3297  -16.1817   -2.2193 H   0  0  0  0  0  0  0  0  0  0  0  0
    5.2070  -14.9353    0.5369 H   0  0  0  0  0  0  0  0  0  0  0  0
    4.6718  -16.4792   -0.2970 H   0  0  0  0  0  0  0  0  0  0  0  0
    6.6801  -15.4096   -1.3178 H   0  0  0  0  0  0  0  0  0  0  0  0
    5.2503  -15.6189   -2.4256 H   0  0  0  0  0  0  0  0  0  0  0  0
    8.6480  -12.4439   -1.4649 H   0  0  0  0  0  0  0  0  0  0  0  0
   10.8176  -13.3118   -1.9320 H   0  0  0  0  0  0  0  0  0  0  0  0
   10.8129  -16.0548   -0.9443 H   0  0  0  0  0  0  0  0  0  0  0  0
   11.8091  -15.3106   -2.2570 H   0  0  0  0  0  0  0  0  0  0  0  0
   12.8370  -14.4230   -0.0560 H   0  0  0  0  0  0  0  0  0  0  0  0
   11.5309  -13.6775    0.9807 H   0  0  0  0  0  0  0  0  0  0  0  0
   12.8840  -11.7010   -0.0210 H   0  0  0  0  0  0  0  0  0  0  0  0
   10.7162  -11.1599   -0.5815 H   0  0  0  0  0  0  0  0  0  0  0  0
   10.5070  -10.4100    1.6930 H   0  0  0  0  0  0  0  0  0  0  0  0
    9.0879  -12.6407    1.5587 H   0  0  0  0  0  0  0  0  0  0  0  0
    7.5660  -11.0660    0.3900 H   0  0  0  0  0  0  0  0  0  0  0  0
    7.6582  -13.3123   -2.7994 H   0  0  0  0  0  0  0  0  0  0  0  0
    6.4891  -14.2807   -3.7937 H   0  0  0  0  0  0  0  0  0  0  0  0
    6.3918  -11.2704   -3.3259 H   0  0  0  0  0  0  0  0  0  0  0  0
    6.9254  -12.1165   -4.8333 H   0  0  0  0  0  0  0  0  0  0  0  0
    4.5439  -11.2155   -4.8099 H   0  0  0  0  0  0  0  0  0  0  0  0
    4.5315  -14.2227   -5.2253 H   0  0  0  0  0  0  0  0  0  0  0  0
    3.8051  -12.9254   -6.2333 H   0  0  0  0  0  0  0  0  0  0  0  0
    5.5843  -13.1729   -6.2333 H   0  0  0  0  0  0  0  0  0  0  0  0
  1  2  1  0
  2  3  2  0
  3  4  1  0
  4  5  2  0
  5  6  1  0
  6  7  1  0
  7  8  1  0
  8  9  1  1
  8 10  1  0
 10 11  1  0
 11 12  1  0
 11 13  1  0
 13 14  1  0
 13 15  1  0
 15 16  1  0
 15 17  1  0
 15 18  1  0
 18 19  1  0
 19 20  1  0
 20 21  1  0
 21 22  1  1
 21 23  1  0
 23 24  1  6
 23 25  1  0
 25 26  1  0
 26 27  1  0
 27 28  1  1
 28 29  2  0
 28 30  1  0
 30 31  1  0
 31 32  1  0
 32 33  1  0
 33 34  1  0
 34 35  1  0
 33 36  1  0
 36 37  1  0
 36 38  1  0
 38 39  1  0
 38 40  1  0
 40 41  1  0
 27 42  1  0
 42 43  1  0
 43 44  1  0
 44 45  1  0
 44  2  1  0
 27  3  1  0
 40 31  1  0
 23  4  1  0
 21  7  1  0
 18  8  1  0
  1 46  1  0
  1 47  1  0
  1 48  1  0
  5 49  1  0
  6 50  1  0
  6 51  1  0
  7 52  1  6
  9 53  1  0
  9 54  1  0
  9 55  1  0
 10 56  1  0
 10 57  1  0
 11 58  1  1
 12 59  1  0
 13 60  1  6
 14 61  1  0
 16 62  1  0
 16 63  1  0
 16 64  1  0
 17 65  1  0
 17 66  1  0
 17 67  1  0
 18 68  1  6
 19 69  1  0
 19 70  1  0
 20 71  1  0
 20 72  1  0
 22 73  1  0
 22 74  1  0
 22 75  1  0
 24 76  1  0
 24 77  1  0
 24 78  1  0
 25 79  1  0
 25 80  1  0
 26 81  1  0
 26 82  1  0
 31 83  1  6
 33 84  1  6
 34 85  1  0
 34 86  1  0
 35 87  1  0
 36 88  1  1
 37 89  1  0
 38 90  1  6
 39 91  1  0
 40 92  1  1
 41 93  1  0
 42 94  1  0
 42 95  1  0
 43 96  1  0
 43 97  1  0
 44 98  1  6
 45 99  1  0
 45100  1  0
 45101  1  0
M  END
>  <meeko>  (4) 
{"is_sidechain": [false], "free_energy": -8.763, "intermolecular_energy": -12.467, "internal_energy": -0.925}

$$$$
LIB_OFWIRPXDLBDEFC__M_PUB_ALL__e8__s20260927
     RDKit          3D

101106  0  0  0  0  0  0  0  0999 V2000
    4.6830  -11.8850   -5.6180 C   0  0  0  0  0  0  0  0  0  0  0  0
    4.0770  -12.2000   -4.2680 C   0  0  0  0  0  0  0  0  0  0  0  0
    4.7250  -12.8560   -3.2690 C   0  0  0  0  0  0  0  0  0  0  0  0
    6.0940  -13.3890   -3.4020 C   0  0  0  0  0  0  0  0  0  0  0  0
    6.3870  -14.2570   -4.3870 C   0  0  0  0  0  0  0  0  0  0  0  0
    7.7500  -14.7950   -4.6880 C   0  0  0  0  0  0  0  0  0  0  0  0
    8.8800  -14.0430   -3.9490 C   0  0  2  0  0  0  0  0  0  0  0  0
   10.3500  -14.5820   -4.2660 C   0  0  1  0  0  0  0  0  0  0  0  0
   10.5050  -16.0950   -3.9750 C   0  0  0  0  0  0  0  0  0  0  0  0
   10.6370  -14.3730   -5.7850 C   0  0  0  0  0  0  0  0  0  0  0  0
   12.1020  -14.5640   -6.1790 C   0  0  1  0  0  0  0  0  0  0  0  0
   12.2700  -14.2140   -7.5620 O   0  0  0  0  0  0  0  0  0  0  0  0
   13.0370  -13.6720   -5.3550 C   0  0  2  0  0  0  0  0  0  0  0  0
   14.3850  -13.9310   -5.7700 O   0  0  0  0  0  0  0  0  0  0  0  0
   12.8840  -13.8470   -3.8190 C   0  0  0  0  0  0  0  0  0  0  0  0
   13.7050  -12.7080   -3.1500 C   0  0  0  0  0  0  0  0  0  0  0  0
   13.5140  -15.1650   -3.3290 C   0  0  0  0  0  0  0  0  0  0  0  0
   11.3610  -13.6890   -3.4540 C   0  0  2  0  0  0  0  0  0  0  0  0
   11.0440  -13.7400   -1.9470 C   0  0  0  0  0  0  0  0  0  0  0  0
    9.6610  -13.1440   -1.6760 C   0  0  0  0  0  0  0  0  0  0  0  0
    8.4940  -13.8360   -2.4330 C   0  0  2  0  0  0  0  0  0  0  0  0
    8.2500  -15.2120   -1.7420 C   0  0  0  0  0  0  0  0  0  0  0  0
    7.1330  -12.9290   -2.3610 C   0  0  1  0  0  0  0  0  0  0  0  0
    7.4210  -11.4280   -2.6680 C   0  0  0  0  0  0  0  0  0  0  0  0
    6.5000  -13.0040   -0.9340 C   0  0  0  0  0  0  0  0  0  0  0  0
    5.0800  -12.4390   -0.8390 C   0  0  0  0  0  0  0  0  0  0  0  0
    4.1140  -13.0680   -1.8780 C   0  0  2  0  0  0  0  0  0  0  0  0
    3.8890  -14.5870   -1.6570 C   0  0  0  0  0  0  0  0  0  0  0  0
    4.0020  -15.4480   -2.5220 O   0  0  0  0  0  0  0  0  0  0  0  0
    3.4620  -14.8360   -0.3880 O   0  0  0  0  0  0  0  0  0  0  0  0
    2.4750  -15.8660   -0.2700 C   0  0  2  0  0  0  0  0  0  0  0  0
    1.2110  -15.3400   -0.6930 O   0  0  0  0  0  0  0  0  0  0  0  0
    0.1560  -16.3020   -0.6080 C   0  0  2  0  0  0  0  0  0  0  0  0
   -1.1150  -15.6590   -1.1790 C   0  0  0  0  0  0  0  0  0  0  0  0
   -2.1100  -16.6420   -1.4480 O   0  0  0  0  0  0  0  0  0  0  0  0
   -0.0480  -16.7560    0.8480 C   0  0  1  0  0  0  0  0  0  0  0  0
   -1.0190  -17.8030    0.9730 O   0  0  0  0  0  0  0  0  0  0  0  0
    1.2720  -17.2860    1.4100 C   0  0  2  0  0  0  0  0  0  0  0  0
    1.1330  -17.5710    2.8120 O   0  0  0  0  0  0  0  0  0  0  0  0
    2.4080  -16.2830    1.2110 C   0  0  1  0  0  0  0  0  0  0  0  0
    3.6360  -16.8870    1.6480 O   0  0  0  0  0  0  0  0  0  0  0  0
    2.7280  -12.4010   -1.6950 C   0  0  0  0  0  0  0  0  0  0  0  0
    1.9060  -12.4380   -2.9760 C   0  0  0  0  0  0  0  0  0  0  0  0
    2.6350  -11.7250   -4.1220 C   0  0  1  0  0  0  0  0  0  0  0  0
    2.5660  -10.2020   -3.9460 C   0  0  0  0  0  0  0  0  0  0  0  0
    5.6510  -11.3818   -5.4770 H   0  0  0  0  0  0  0  0  0  0  0  0
    4.8336  -12.8190   -6.1793 H   0  0  0  0  0  0  0  0  0  0  0  0
    4.0051  -11.2251   -6.1793 H   0  0  0  0  0  0  0  0  0  0  0  0
    5.5570  -14.5989   -5.0227 H   0  0  0  0  0  0  0  0  0  0  0  0
    7.7815  -15.8533   -4.3897 H   0  0  0  0  0  0  0  0  0  0  0  0
    7.9217  -14.6635   -5.7665 H   0  0  0  0  0  0  0  0  0  0  0  0
    8.9614  -13.0280   -4.3652 H   0  0  0  0  0  0  0  0  0  0  0  0
   10.5218  -16.2594   -2.8875 H   0  0  0  0  0  0  0  0  0  0  0  0
    9.6582  -16.6417   -4.4154 H   0  0  0  0  0  0  0  0  0  0  0  0
   11.4451  -16.4587   -4.4154 H   0  0  0  0  0  0  0  0  0  0  0  0
   10.0304  -15.0938   -6.3529 H   0  0  0  0  0  0  0  0  0  0  0  0
   10.3823  -13.3276   -6.0135 H   0  0  0  0  0  0  0  0  0  0  0  0
   12.3581  -15.6175   -5.9934 H   0  0  0  0  0  0  0  0  0  0  0  0
   11.4650  -13.7420   -7.8390 H   0  0  0  0  0  0  0  0  0  0  0  0
   12.7602  -12.6251   -5.5484 H   0  0  0  0  0  0  0  0  0  0  0  0
   14.4100  -13.6610   -6.7110 H   0  0  0  0  0  0  0  0  0  0  0  0
   13.6377  -12.8014   -2.0560 H   0  0  0  0  0  0  0  0  0  0  0  0
   14.7576  -12.7837   -3.4604 H   0  0  0  0  0  0  0  0  0  0  0  0
   13.3004  -11.7334   -3.4604 H   0  0  0  0  0  0  0  0  0  0  0  0
   13.5217  -15.1811   -2.2291 H   0  0  0  0  0  0  0  0  0  0  0  0
   12.9247  -16.0148   -3.7040 H   0  0  0  0  0  0  0  0  0  0  0  0
   14.5454  -15.2401   -3.7040 H   0  0  0  0  0  0  0  0  0  0  0  0
   11.1848  -12.6576   -3.7932 H   0  0  0  0  0  0  0  0  0  0  0  0
   11.0614  -14.7862   -1.6075 H   0  0  0  0  0  0  0  0  0  0  0  0
   11.7994  -13.1549   -1.4019 H   0  0  0  0  0  0  0  0  0  0  0  0
    9.4613  -13.2193   -0.5969 H   0  0  0  0  0  0  0  0  0  0  0  0
    9.6941  -12.1064   -2.0397 H   0  0  0  0  0  0  0  0  0  0  0  0
    8.2729  -15.0830   -0.6498 H   0  0  0  0  0  0  0  0  0  0  0  0
    7.2681  -15.6051   -2.0443 H   0  0  0  0  0  0  0  0  0  0  0  0
    9.0368  -15.9188   -2.0443 H   0  0  0  0  0  0  0  0  0  0  0  0
    7.5272  -10.8744   -1.7234 H   0  0  0  0  0  0  0  0  0  0  0  0
    8.3516  -11.3445   -3.2486 H   0  0  0  0  0  0  0  0  0  0  0  0
    6.5874  -11.0060   -3.2486 H   0  0  0  0  0  0  0  0  0  0  0  0
    6.4711  -14.0596   -0.6260 H   0  0  0  0  0  0  0  0  0  0  0  0
    7.1287  -12.3821   -0.2797 H   0  0  0  0  0  0  0  0  0  0  0  0
    4.6892  -12.6373    0.1699 H   0  0  0  0  0  0  0  0  0  0  0  0
    5.1369  -11.3607   -1.0487 H   0  0  0  0  0  0  0  0  0  0  0  0
    2.7270  -16.7367   -0.8933 H   0  0  0  0  0  0  0  0  0  0  0  0
    0.4080  -17.2013   -1.1891 H   0  0  0  0  0  0  0  0  0  0  0  0
   -1.5111  -14.9369   -0.4499 H   0  0  0  0  0  0  0  0  0  0  0  0
   -0.8581  -15.1544   -2.1221 H   0  0  0  0  0  0  0  0  0  0  0  0
   -1.6370  -17.4330   -1.7680 H   0  0  0  0  0  0  0  0  0  0  0  0
   -0.4063  -15.8756    1.4015 H   0  0  0  0  0  0  0  0  0  0  0  0
   -0.7700  -18.4910    0.3150 H   0  0  0  0  0  0  0  0  0  0  0  0
    1.5200  -18.2075    0.8628 H   0  0  0  0  0  0  0  0  0  0  0  0
    1.2080  -18.5460    2.8760 H   0  0  0  0  0  0  0  0  0  0  0  0
    2.2331  -15.3742    1.8056 H   0  0  0  0  0  0  0  0  0  0  0  0
    3.4940  -17.0890    2.5950 H   0  0  0  0  0  0  0  0  0  0  0  0
    2.1787  -12.9335   -0.9046 H   0  0  0  0  0  0  0  0  0  0  0  0
    2.8901  -11.3472   -1.4246 H   0  0  0  0  0  0  0  0  0  0  0  0
    1.7299  -13.4862   -3.2595 H   0  0  0  0  0  0  0  0  0  0  0  0
    0.9524  -11.9208   -2.7938 H   0  0  0  0  0  0  0  0  0  0  0  0
    2.1166  -11.9885   -5.0558 H   0  0  0  0  0  0  0  0  0  0  0  0
    2.5549   -9.9569   -2.8737 H   0  0  0  0  0  0  0  0  0  0  0  0
    3.4440   -9.7381   -4.4191 H   0  0  0  0  0  0  0  0  0  0  0  0
    1.6496   -9.8194   -4.4191 H   0  0  0  0  0  0  0  0  0  0  0  0
  1  2  1  0
  2  3  2  0
  3  4  1  0
  4  5  2  0
  5  6  1  0
  6  7  1  0
  7  8  1  0
  8  9  1  1
  8 10  1  0
 10 11  1  0
 11 12  1  0
 11 13  1  0
 13 14  1  0
 13 15  1  0
 15 16  1  0
 15 17  1  0
 15 18  1  0
 18 19  1  0
 19 20  1  0
 20 21  1  0
 21 22  1  1
 21 23  1  0
 23 24  1  6
 23 25  1  0
 25 26  1  0
 26 27  1  0
 27 28  1  1
 28 29  2  0
 28 30  1  0
 30 31  1  0
 31 32  1  0
 32 33  1  0
 33 34  1  0
 34 35  1  0
 33 36  1  0
 36 37  1  0
 36 38  1  0
 38 39  1  0
 38 40  1  0
 40 41  1  0
 27 42  1  0
 42 43  1  0
 43 44  1  0
 44 45  1  0
 44  2  1  0
 27  3  1  0
 40 31  1  0
 23  4  1  0
 21  7  1  0
 18  8  1  0
  1 46  1  0
  1 47  1  0
  1 48  1  0
  5 49  1  0
  6 50  1  0
  6 51  1  0
  7 52  1  6
  9 53  1  0
  9 54  1  0
  9 55  1  0
 10 56  1  0
 10 57  1  0
 11 58  1  6
 12 59  1  0
 13 60  1  1
 14 61  1  0
 16 62  1  0
 16 63  1  0
 16 64  1  0
 17 65  1  0
 17 66  1  0
 17 67  1  0
 18 68  1  6
 19 69  1  0
 19 70  1  0
 20 71  1  0
 20 72  1  0
 22 73  1  0
 22 74  1  0
 22 75  1  0
 24 76  1  0
 24 77  1  0
 24 78  1  0
 25 79  1  0
 25 80  1  0
 26 81  1  0
 26 82  1  0
 31 83  1  6
 33 84  1  6
 34 85  1  0
 34 86  1  0
 35 87  1  0
 36 88  1  1
 37 89  1  0
 38 90  1  6
 39 91  1  0
 40 92  1  1
 41 93  1  0
 42 94  1  0
 42 95  1  0
 43 96  1  0
 43 97  1  0
 44 98  1  6
 45 99  1  0
 45100  1  0
 45101  1  0
M  END
>  <meeko>  (5) 
{"is_sidechain": [false], "free_energy": -8.6, "intermolecular_energy": -12.189, "internal_energy": -0.974}

$$$$
LIB_OFWIRPXDLBDEFC__M_PUB_ALL__e8__s20260927
     RDKit          3D

101106  0  0  0  0  0  0  0  0999 V2000
    0.8200  -10.0330   -1.3880 C   0  0  0  0  0  0  0  0  0  0  0  0
    0.3040  -10.9020   -0.2620 C   0  0  0  0  0  0  0  0  0  0  0  0
    0.7550  -12.1560    0.0090 C   0  0  0  0  0  0  0  0  0  0  0  0
    1.7770  -12.8450   -0.8020 C   0  0  0  0  0  0  0  0  0  0  0  0
    1.5820  -13.0200   -2.1220 C   0  0  0  0  0  0  0  0  0  0  0  0
    2.5770  -13.6140   -3.0700 C   0  0  0  0  0  0  0  0  0  0  0  0
    3.9910  -13.7530   -2.4630 C   0  0  2  0  0  0  0  0  0  0  0  0
    5.0800  -14.3660   -3.4580 C   0  0  1  0  0  0  0  0  0  0  0  0
    4.6590  -15.7450   -4.0260 C   0  0  0  0  0  0  0  0  0  0  0  0
    5.2420  -13.3990   -4.6710 C   0  0  0  0  0  0  0  0  0  0  0  0
    6.4550  -13.6970   -5.5530 C   0  0  1  0  0  0  0  0  0  0  0  0
    6.5800  -12.6680   -6.5480 O   0  0  0  0  0  0  0  0  0  0  0  0
    7.7570  -13.7280   -4.7460 C   0  0  2  0  0  0  0  0  0  0  0  0
    8.8330  -14.0350   -5.6420 O   0  0  0  0  0  0  0  0  0  0  0  0
    7.7320  -14.7130   -3.5460 C   0  0  0  0  0  0  0  0  0  0  0  0
    9.0090  -14.4340   -2.7030 C   0  0  0  0  0  0  0  0  0  0  0  0
    7.8440  -16.1790   -4.0090 C   0  0  0  0  0  0  0  0  0  0  0  0
    6.4500  -14.4090   -2.6840 C   0  0  2  0  0  0  0  0  0  0  0  0
    6.3210  -15.2400   -1.3930 C   0  0  0  0  0  0  0  0  0  0  0  0
    5.3280  -14.5790   -0.4340 C   0  0  0  0  0  0  0  0  0  0  0  0
    3.9010  -14.3730   -1.0140 C   0  0  2  0  0  0  0  0  0  0  0  0
    3.2190  -15.7730   -1.0640 C   0  0  0  0  0  0  0  0  0  0  0  0
    3.0280  -13.3620   -0.0690 C   0  0  1  0  0  0  0  0  0  0  0  0
    3.8460  -12.0980    0.3380 C   0  0  0  0  0  0  0  0  0  0  0  0
    2.5920  -14.0830    1.2470 C   0  0  0  0  0  0  0  0  0  0  0  0
    1.5330  -13.3350    2.0610 C   0  0  0  0  0  0  0  0  0  0  0  0
    0.2810  -12.9680    1.2210 C   0  0  2  0  0  0  0  0  0  0  0  0
   -0.4970  -14.2120    0.7160 C   0  0  0  0  0  0  0  0  0  0  0  0
   -1.3510  -14.1980   -0.1650 O   0  0  0  0  0  0  0  0  0  0  0  0
   -0.1710  -15.3170    1.4410 O   0  0  0  0  0  0  0  0  0  0  0  0
   -1.1790  -15.7650    2.3550 C   0  0  2  0  0  0  0  0  0  0  0  0
   -0.6400  -15.7340    3.6820 O   0  0  0  0  0  0  0  0  0  0  0  0
   -1.5790  -16.1690    4.6690 C   0  0  2  0  0  0  0  0  0  0  0  0
   -0.9270  -15.9950    6.0470 C   0  0  0  0  0  0  0  0  0  0  0  0
   -0.5310  -17.2520    6.5880 O   0  0  0  0  0  0  0  0  0  0  0  0
   -1.9900  -17.6310    4.4200 C   0  0  1  0  0  0  0  0  0  0  0  0
   -3.0150  -18.0800    5.3160 O   0  0  0  0  0  0  0  0  0  0  0  0
   -2.5300  -17.7760    2.9970 C   0  0  2  0  0  0  0  0  0  0  0  0
   -2.7760  -19.1610    2.7010 O   0  0  0  0  0  0  0  0  0  0  0  0
   -1.5550  -17.2070    1.9670 C   0  0  1  0  0  0  0  0  0  0  0  0
   -2.1700  -17.2640    0.6700 O   0  0  0  0  0  0  0  0  0  0  0  0
   -0.6970  -12.2000    2.1450 C   0  0  0  0  0  0  0  0  0  0  0  0
   -1.6140  -11.2730    1.3580 C   0  0  0  0  0  0  0  0  0  0  0  0
   -0.8050  -10.2460    0.5550 C   0  0  1  0  0  0  0  0  0  0  0  0
   -0.2460   -9.1540    1.4770 C   0  0  0  0  0  0  0  0  0  0  0  0
    1.3391   -9.1588   -0.9681 H   0  0  0  0  0  0  0  0  0  0  0  0
    1.5203  -10.6128   -2.0072 H   0  0  0  0  0  0  0  0  0  0  0  0
   -0.0242   -9.6957   -2.0072 H   0  0  0  0  0  0  0  0  0  0  0  0
    0.6146  -12.7013   -2.5375 H   0  0  0  0  0  0  0  0  0  0  0  0
    2.2242  -14.6130   -3.3659 H   0  0  0  0  0  0  0  0  0  0  0  0
    2.6566  -12.9316   -3.9290 H   0  0  0  0  0  0  0  0  0  0  0  0
    4.4160  -12.7486   -2.3198 H   0  0  0  0  0  0  0  0  0  0  0  0
    4.4484  -16.4348   -3.1955 H   0  0  0  0  0  0  0  0  0  0  0  0
    3.7559  -15.6273   -4.6429 H   0  0  0  0  0  0  0  0  0  0  0  0
    5.4739  -16.1518   -4.6429 H   0  0  0  0  0  0  0  0  0  0  0  0
    4.3374  -13.4711   -5.2927 H   0  0  0  0  0  0  0  0  0  0  0  0
    5.3940  -12.3923   -4.2544 H   0  0  0  0  0  0  0  0  0  0  0  0
    6.2958  -14.6853   -6.0090 H   0  0  0  0  0  0  0  0  0  0  0  0
    6.8620  -11.8570   -6.0890 H   0  0  0  0  0  0  0  0  0  0  0  0
    7.8951  -12.7356   -4.2920 H   0  0  0  0  0  0  0  0  0  0  0  0
    9.6450  -13.8390   -5.1310 H   0  0  0  0  0  0  0  0  0  0  0  0
    8.7609  -14.4882   -1.6327 H   0  0  0  0  0  0  0  0  0  0  0  0
    9.7763  -15.1857   -2.9400 H   0  0  0  0  0  0  0  0  0  0  0  0
    9.3929  -13.4308   -2.9400 H   0  0  0  0  0  0  0  0  0  0  0  0
    7.8944  -16.8383   -3.1299 H   0  0  0  0  0  0  0  0  0  0  0  0
    6.9632  -16.4408   -4.6137 H   0  0  0  0  0  0  0  0  0  0  0  0
    8.7543  -16.3040   -4.6137 H   0  0  0  0  0  0  0  0  0  0  0  0
    6.6560  -13.3700   -2.3874 H   0  0  0  0  0  0  0  0  0  0  0  0
    5.9649  -16.2497   -1.6452 H   0  0  0  0  0  0  0  0  0  0  0  0
    7.3051  -15.2990   -0.9051 H   0  0  0  0  0  0  0  0  0  0  0  0
    5.2452  -15.2113    0.4623 H   0  0  0  0  0  0  0  0  0  0  0  0
    5.7240  -13.5750   -0.2216 H   0  0  0  0  0  0  0  0  0  0  0  0
    3.0439  -16.1324   -0.0392 H   0  0  0  0  0  0  0  0  0  0  0  0
    2.2584  -15.6942   -1.5940 H   0  0  0  0  0  0  0  0  0  0  0  0
    3.8732  -16.4808   -1.5940 H   0  0  0  0  0  0  0  0  0  0  0  0
    3.8913  -12.0280    1.4348 H   0  0  0  0  0  0  0  0  0  0  0  0
    4.8659  -12.1752   -0.0669 H   0  0  0  0  0  0  0  0  0  0  0  0
    3.3578  -11.1993   -0.0669 H   0  0  0  0  0  0  0  0  0  0  0  0
    2.1859  -15.0697    0.9796 H   0  0  0  0  0  0  0  0  0  0  0  0
    3.4884  -14.1438    1.8816 H   0  0  0  0  0  0  0  0  0  0  0  0
    1.2190  -13.9728    2.9004 H   0  0  0  0  0  0  0  0  0  0  0  0
    1.9854  -12.3954    2.4111 H   0  0  0  0  0  0  0  0  0  0  0  0
   -2.0710  -15.1224    2.3163 H   0  0  0  0  0  0  0  0  0  0  0  0
   -2.4987  -15.5678    4.6169 H   0  0  0  0  0  0  0  0  0  0  0  0
   -0.0405  -15.3515    5.9466 H   0  0  0  0  0  0  0  0  0  0  0  0
   -1.6612  -15.5373    6.7263 H   0  0  0  0  0  0  0  0  0  0  0  0
   -1.0630  -17.3860    7.3950 H   0  0  0  0  0  0  0  0  0  0  0  0
   -1.0888  -18.2406    4.5819 H   0  0  0  0  0  0  0  0  0  0  0  0
   -3.8730  -17.8680    4.8840 H   0  0  0  0  0  0  0  0  0  0  0  0
   -3.4698  -17.2073    2.9388 H   0  0  0  0  0  0  0  0  0  0  0  0
   -3.1720  -19.5240    3.5200 H   0  0  0  0  0  0  0  0  0  0  0  0
   -0.6279  -17.7985    1.9409 H   0  0  0  0  0  0  0  0  0  0  0  0
   -3.0900  -16.9620    0.8140 H   0  0  0  0  0  0  0  0  0  0  0  0
   -1.3131  -12.9276    2.6936 H   0  0  0  0  0  0  0  0  0  0  0  0
   -0.1011  -11.5842    2.8347 H   0  0  0  0  0  0  0  0  0  0  0  0
   -2.2218  -11.8728    0.6647 H   0  0  0  0  0  0  0  0  0  0  0  0
   -2.2571  -10.7327    2.0682 H   0  0  0  0  0  0  0  0  0  0  0  0
   -1.4921   -9.7735   -0.1624 H   0  0  0  0  0  0  0  0  0  0  0  0
   -0.3964   -9.4477    2.5263 H   0  0  0  0  0  0  0  0  0  0  0  0
    0.8290   -9.0250    1.2828 H   0  0  0  0  0  0  0  0  0  0  0  0
   -0.7700   -8.2065    1.2828 H   0  0  0  0  0  0  0  0  0  0  0  0
  1  2  1  0
  2  3  2  0
  3  4  1  0
  4  5  2  0
  5  6  1  0
  6  7  1  0
  7  8  1  0
  8  9  1  6
  8 10  1  0
 10 11  1  0
 11 12  1  0
 11 13  1  0
 13 14  1  0
 13 15  1  0
 15 16  1  0
 15 17  1  0
 15 18  1  0
 18 19  1  0
 19 20  1  0
 20 21  1  0
 21 22  1  6
 21 23  1  0
 23 24  1  1
 23 25  1  0
 25 26  1  0
 26 27  1  0
 27 28  1  6
 28 29  2  0
 28 30  1  0
 30 31  1  0
 31 32  1  0
 32 33  1  0
 33 34  1  0
 34 35  1  0
 33 36  1  0
 36 37  1  0
 36 38  1  0
 38 39  1  0
 38 40  1  0
 40 41  1  0
 27 42  1  0
 42 43  1  0
 43 44  1  0
 44 45  1  0
 44  2  1  0
 27  3  1  0
 40 31  1  0
 23  4  1  0
 21  7  1  0
 18  8  1  0
  1 46  1  0
  1 47  1  0
  1 48  1  0
  5 49  1  0
  6 50  1  0
  6 51  1  0
  7 52  1  1
  9 53  1  0
  9 54  1  0
  9 55  1  0
 10 56  1  0
 10 57  1  0
 11 58  1  6
 12 59  1  0
 13 60  1  1
 14 61  1  0
 16 62  1  0
 16 63  1  0
 16 64  1  0
 17 65  1  0
 17 66  1  0
 17 67  1  0
 18 68  1  1
 19 69  1  0
 19 70  1  0
 20 71  1  0
 20 72  1  0
 22 73  1  0
 22 74  1  0
 22 75  1  0
 24 76  1  0
 24 77  1  0
 24 78  1  0
 25 79  1  0
 25 80  1  0
 26 81  1  0
 26 82  1  0
 31 83  1  1
 33 84  1  1
 34 85  1  0
 34 86  1  0
 35 87  1  0
 36 88  1  6
 37 89  1  0
 38 90  1  1
 39 91  1  0
 40 92  1  6
 41 93  1  0
 42 94  1  0
 42 95  1  0
 43 96  1  0
 43 97  1  0
 44 98  1  6
 45 99  1  0
 45100  1  0
 45101  1  0
M  END
>  <meeko>  (6) 
{"is_sidechain": [false], "free_energy": -8.188, "intermolecular_energy": -11.5, "internal_energy": -1.082}

$$$$
LIB_OFWIRPXDLBDEFC__M_PUB_ALL__e8__s20260927
     RDKit          3D

101106  0  0  0  0  0  0  0  0999 V2000
    6.5360  -18.3150   -2.1040 C   0  0  0  0  0  0  0  0  0  0  0  0
    7.7040  -17.3530   -2.0660 C   0  0  0  0  0  0  0  0  0  0  0  0
    7.5850  -16.0050   -1.9360 C   0  0  0  0  0  0  0  0  0  0  0  0
    6.2870  -15.3070   -1.8670 C   0  0  0  0  0  0  0  0  0  0  0  0
    5.3870  -15.4580   -2.8560 C   0  0  0  0  0  0  0  0  0  0  0  0
    4.0040  -14.8860   -2.8600 C   0  0  0  0  0  0  0  0  0  0  0  0
    3.5680  -14.3320   -1.4850 C   0  0  2  0  0  0  0  0  0  0  0  0
    2.0890  -13.7310   -1.4540 C   0  0  1  0  0  0  0  0  0  0  0  0
    1.8730  -12.6210   -2.5130 C   0  0  0  0  0  0  0  0  0  0  0  0
    1.0820  -14.8780   -1.7780 C   0  0  0  0  0  0  0  0  0  0  0  0
   -0.3790  -14.5290   -1.4940 C   0  0  1  0  0  0  0  0  0  0  0  0
   -1.1930  -15.6960   -1.6960 O   0  0  0  0  0  0  0  0  0  0  0  0
   -0.5860  -14.0600   -0.0500 C   0  0  2  0  0  0  0  0  0  0  0  0
   -1.9720  -13.7330    0.1220 O   0  0  0  0  0  0  0  0  0  0  0  0
    0.3230  -12.8700    0.3640 C   0  0  0  0  0  0  0  0  0  0  0  0
    0.1690  -12.6950    1.9010 C   0  0  0  0  0  0  0  0  0  0  0  0
   -0.1530  -11.5440   -0.2620 C   0  0  0  0  0  0  0  0  0  0  0  0
    1.8120  -13.2440    0.0180 C   0  0  2  0  0  0  0  0  0  0  0  0
    2.8630  -12.2040    0.4530 C   0  0  0  0  0  0  0  0  0  0  0  0
    4.2550  -12.8380    0.4850 C   0  0  0  0  0  0  0  0  0  0  0  0
    4.7220  -13.4520   -0.8630 C   0  0  2  0  0  0  0  0  0  0  0  0
    5.0720  -12.2660   -1.8120 C   0  0  0  0  0  0  0  0  0  0  0  0
    6.0400  -14.4000   -0.6480 C   0  0  1  0  0  0  0  0  0  0  0  0
    5.8740  -15.3520    0.5760 C   0  0  0  0  0  0  0  0  0  0  0  0
    7.3070  -13.5220   -0.3930 C   0  0  0  0  0  0  0  0  0  0  0  0
    8.6330  -14.2850   -0.4720 C   0  0  0  0  0  0  0  0  0  0  0  0
    8.7940  -15.0710   -1.7990 C   0  0  2  0  0  0  0  0  0  0  0  0
    8.8590  -14.1510   -3.0470 C   0  0  0  0  0  0  0  0  0  0  0  0
    8.4840  -14.4630   -4.1720 O   0  0  0  0  0  0  0  0  0  0  0  0
    9.4700  -12.9710   -2.7490 O   0  0  0  0  0  0  0  0  0  0  0  0
   10.8960  -13.0370   -2.6340 C   0  0  2  0  0  0  0  0  0  0  0  0
   11.3340  -11.9900   -1.7600 O   0  0  0  0  0  0  0  0  0  0  0  0
   12.7530  -11.9740   -1.5830 C   0  0  2  0  0  0  0  0  0  0  0  0
   13.0880  -10.8850   -0.5550 C   0  0  0  0  0  0  0  0  0  0  0  0
   11.9490  -10.5620    0.2380 O   0  0  0  0  0  0  0  0  0  0  0  0
   13.4630  -11.7210   -2.9250 C   0  0  1  0  0  0  0  0  0  0  0  0
   14.8900  -11.8080   -2.8230 O   0  0  0  0  0  0  0  0  0  0  0  0
   13.0130  -12.7650   -3.9480 C   0  0  2  0  0  0  0  0  0  0  0  0
   13.5510  -12.4500   -5.2430 O   0  0  0  0  0  0  0  0  0  0  0  0
   11.4900  -12.8380   -4.0400 C   0  0  1  0  0  0  0  0  0  0  0  0
   11.1330  -13.9140   -4.9240 O   0  0  0  0  0  0  0  0  0  0  0  0
   10.1540  -15.8120   -1.7460 C   0  0  0  0  0  0  0  0  0  0  0  0
   10.1600  -17.0530   -2.6280 C   0  0  0  0  0  0  0  0  0  0  0  0
    9.0600  -18.0370   -2.2070 C   0  0  1  0  0  0  0  0  0  0  0  0
    9.4510  -18.7700   -0.9170 C   0  0  0  0  0  0  0  0  0  0  0  0
    6.2330  -18.5646   -1.0764 H   0  0  0  0  0  0  0  0  0  0  0  0
    5.6921  -17.8465   -2.6316 H   0  0  0  0  0  0  0  0  0  0  0  0
    6.8341  -19.2330   -2.6316 H   0  0  0  0  0  0  0  0  0  0  0  0
    5.6923  -16.0493   -3.7318 H   0  0  0  0  0  0  0  0  0  0  0  0
    3.9668  -14.0675   -3.5940 H   0  0  0  0  0  0  0  0  0  0  0  0
    3.3139  -15.7036   -3.1157 H   0  0  0  0  0  0  0  0  0  0  0  0
    3.4410  -15.1734   -0.7880 H   0  0  0  0  0  0  0  0  0  0  0  0
    1.6865  -11.6624   -2.0067 H   0  0  0  0  0  0  0  0  0  0  0  0
    2.7712  -12.5347   -3.1421 H   0  0  0  0  0  0  0  0  0  0  0  0
    1.0080  -12.8778   -3.1421 H   0  0  0  0  0  0  0  0  0  0  0  0
    1.1757  -15.1279   -2.8451 H   0  0  0  0  0  0  0  0  0  0  0  0
    1.3395  -15.7199   -1.1185 H   0  0  0  0  0  0  0  0  0  0  0  0
   -0.6610  -13.7145   -2.1774 H   0  0  0  0  0  0  0  0  0  0  0  0
   -0.5900  -16.4410   -1.8620 H   0  0  0  0  0  0  0  0  0  0  0  0
   -0.2911  -14.8842    0.6162 H   0  0  0  0  0  0  0  0  0  0  0  0
   -2.4200  -14.1430   -0.6450 H   0  0  0  0  0  0  0  0  0  0  0  0
    0.8101  -13.4235    2.4190 H   0  0  0  0  0  0  0  0  0  0  0  0
    0.4682  -11.6755    2.1858 H   0  0  0  0  0  0  0  0  0  0  0  0
   -0.8803  -12.8622    2.1858 H   0  0  0  0  0  0  0  0  0  0  0  0
   -0.4085  -10.8323    0.5369 H   0  0  0  0  0  0  0  0  0  0  0  0
    0.6503  -11.1233   -0.8848 H   0  0  0  0  0  0  0  0  0  0  0  0
   -1.0404  -11.7303   -0.8848 H   0  0  0  0  0  0  0  0  0  0  0  0
    1.9420  -14.1317    0.6545 H   0  0  0  0  0  0  0  0  0  0  0  0
    2.8619  -11.3666   -0.2603 H   0  0  0  0  0  0  0  0  0  0  0  0
    2.6117  -11.8409    1.4605 H   0  0  0  0  0  0  0  0  0  0  0  0
    4.9780  -12.0618    0.7762 H   0  0  0  0  0  0  0  0  0  0  0  0
    4.1998  -13.6705    1.2019 H   0  0  0  0  0  0  0  0  0  0  0  0
    5.3330  -11.3814   -1.2125 H   0  0  0  0  0  0  0  0  0  0  0  0
    5.9264  -12.5440   -2.4466 H   0  0  0  0  0  0  0  0  0  0  0  0
    4.2036  -12.0356   -2.4466 H   0  0  0  0  0  0  0  0  0  0  0  0
    5.9748  -14.7740    1.5064 H   0  0  0  0  0  0  0  0  0  0  0  0
    4.8803  -15.8225    0.5425 H   0  0  0  0  0  0  0  0  0  0  0  0
    6.6499  -16.1311    0.5425 H   0  0  0  0  0  0  0  0  0  0  0  0
    7.3265  -12.7197   -1.1453 H   0  0  0  0  0  0  0  0  0  0  0  0
    7.2240  -13.1432    0.6364 H   0  0  0  0  0  0  0  0  0  0  0  0
    9.4593  -13.5638   -0.3878 H   0  0  0  0  0  0  0  0  0  0  0  0
    8.6449  -15.0157    0.3501 H   0  0  0  0  0  0  0  0  0  0  0  0
   11.2207  -14.0049   -2.2243 H   0  0  0  0  0  0  0  0  0  0  0  0
   13.1062  -12.9486   -1.2150 H   0  0  0  0  0  0  0  0  0  0  0  0
   13.8928  -11.2463    0.1021 H   0  0  0  0  0  0  0  0  0  0  0  0
   13.4067   -9.9808   -1.0943 H   0  0  0  0  0  0  0  0  0  0  0  0
   11.7480   -9.6240    0.0640 H   0  0  0  0  0  0  0  0  0  0  0  0
   13.1930  -10.7002   -3.2333 H   0  0  0  0  0  0  0  0  0  0  0  0
   15.0820  -12.1950   -1.9380 H   0  0  0  0  0  0  0  0  0  0  0  0
   13.3892  -13.7430   -3.6132 H   0  0  0  0  0  0  0  0  0  0  0  0
   14.3990  -11.9970   -5.0560 H   0  0  0  0  0  0  0  0  0  0  0  0
   11.0804  -11.9009   -4.4451 H   0  0  0  0  0  0  0  0  0  0  0  0
   11.8180  -14.5970   -4.7770 H   0  0  0  0  0  0  0  0  0  0  0  0
   10.9448  -15.1285   -2.0887 H   0  0  0  0  0  0  0  0  0  0  0  0
   10.3277  -16.1312   -0.7078 H   0  0  0  0  0  0  0  0  0  0  0  0
    9.9918  -16.7519   -3.6725 H   0  0  0  0  0  0  0  0  0  0  0  0
   11.1343  -17.5523   -2.5210 H   0  0  0  0  0  0  0  0  0  0  0  0
    8.9595  -18.7824   -3.0097 H   0  0  0  0  0  0  0  0  0  0  0  0
    9.1341  -18.1758   -0.0472 H   0  0  0  0  0  0  0  0  0  0  0  0
    8.9572  -19.7525   -0.8895 H   0  0  0  0  0  0  0  0  0  0  0  0
   10.5421  -18.9071   -0.8895 H   0  0  0  0  0  0  0  0  0  0  0  0
  1  2  1  0
  2  3  2  0
  3  4  1  0
  4  5  2  0
  5  6  1  0
  6  7  1  0
  7  8  1  0
  8  9  1  6
  8 10  1  0
 10 11  1  0
 11 12  1  0
 11 13  1  0
 13 14  1  0
 13 15  1  0
 15 16  1  0
 15 17  1  0
 15 18  1  0
 18 19  1  0
 19 20  1  0
 20 21  1  0
 21 22  1  6
 21 23  1  0
 23 24  1  1
 23 25  1  0
 25 26  1  0
 26 27  1  0
 27 28  1  6
 28 29  2  0
 28 30  1  0
 30 31  1  0
 31 32  1  0
 32 33  1  0
 33 34  1  0
 34 35  1  0
 33 36  1  0
 36 37  1  0
 36 38  1  0
 38 39  1  0
 38 40  1  0
 40 41  1  0
 27 42  1  0
 42 43  1  0
 43 44  1  0
 44 45  1  0
 44  2  1  0
 27  3  1  0
 40 31  1  0
 23  4  1  0
 21  7  1  0
 18  8  1  0
  1 46  1  0
  1 47  1  0
  1 48  1  0
  5 49  1  0
  6 50  1  0
  6 51  1  0
  7 52  1  1
  9 53  1  0
  9 54  1  0
  9 55  1  0
 10 56  1  0
 10 57  1  0
 11 58  1  6
 12 59  1  0
 13 60  1  1
 14 61  1  0
 16 62  1  0
 16 63  1  0
 16 64  1  0
 17 65  1  0
 17 66  1  0
 17 67  1  0
 18 68  1  1
 19 69  1  0
 19 70  1  0
 20 71  1  0
 20 72  1  0
 22 73  1  0
 22 74  1  0
 22 75  1  0
 24 76  1  0
 24 77  1  0
 24 78  1  0
 25 79  1  0
 25 80  1  0
 26 81  1  0
 26 82  1  0
 31 83  1  1
 33 84  1  1
 34 85  1  0
 34 86  1  0
 35 87  1  0
 36 88  1  6
 37 89  1  0
 38 90  1  1
 39 91  1  0
 40 92  1  6
 41 93  1  0
 42 94  1  0
 42 95  1  0
 43 96  1  0
 43 97  1  0
 44 98  1  6
 45 99  1  0
 45100  1  0
 45101  1  0
M  END
>  <meeko>  (7) 
{"is_sidechain": [false], "free_energy": -8.17, "intermolecular_energy": -12.38, "internal_energy": -0.177}

$$$$
LIB_OFWIRPXDLBDEFC__M_PUB_ALL__e8__s20260927
     RDKit          3D

101106  0  0  0  0  0  0  0  0999 V2000
    6.0450  -16.9910   -5.2860 C   0  0  0  0  0  0  0  0  0  0  0  0
    7.3350  -16.5000   -4.6640 C   0  0  0  0  0  0  0  0  0  0  0  0
    7.4080  -15.7840   -3.5110 C   0  0  0  0  0  0  0  0  0  0  0  0
    6.2220  -15.3530   -2.7460 C   0  0  0  0  0  0  0  0  0  0  0  0
    5.2700  -14.6120   -3.3410 C   0  0  0  0  0  0  0  0  0  0  0  0
    3.9800  -14.1930   -2.7080 C   0  0  0  0  0  0  0  0  0  0  0  0
    3.6820  -14.9310   -1.3840 C   0  0  2  0  0  0  0  0  0  0  0  0
    2.3010  -14.5190   -0.6940 C   0  0  1  0  0  0  0  0  0  0  0  0
    2.1970  -12.9960   -0.4320 C   0  0  0  0  0  0  0  0  0  0  0  0
    1.1340  -14.9030   -1.6550 C   0  0  0  0  0  0  0  0  0  0  0  0
   -0.2520  -14.8440   -1.0130 C   0  0  1  0  0  0  0  0  0  0  0  0
   -1.2260  -15.3470   -1.9420 O   0  0  0  0  0  0  0  0  0  0  0  0
   -0.3330  -15.7000    0.2560 C   0  0  2  0  0  0  0  0  0  0  0  0
   -1.6520  -15.5700    0.8030 O   0  0  0  0  0  0  0  0  0  0  0  0
    0.7480  -15.3570    1.3180 C   0  0  0  0  0  0  0  0  0  0  0  0
    0.6840  -16.4680    2.4050 C   0  0  0  0  0  0  0  0  0  0  0  0
    0.4330  -14.0360    2.0460 C   0  0  0  0  0  0  0  0  0  0  0  0
    2.1560  -15.3830    0.6150 C   0  0  2  0  0  0  0  0  0  0  0  0
    3.3570  -15.1550    1.5530 C   0  0  0  0  0  0  0  0  0  0  0  0
    4.6480  -15.6330    0.8870 C   0  0  0  0  0  0  0  0  0  0  0  0
    4.9700  -14.9540   -0.4720 C   0  0  2  0  0  0  0  0  0  0  0  0
    5.4400  -13.5010   -0.1610 C   0  0  0  0  0  0  0  0  0  0  0  0
    6.1530  -15.7640   -1.2630 C   0  0  1  0  0  0  0  0  0  0  0  0
    5.9090  -17.3040   -1.2500 C   0  0  0  0  0  0  0  0  0  0  0  0
    7.5390  -15.5010   -0.5910 C   0  0  0  0  0  0  0  0  0  0  0  0
    8.7430  -15.9650   -1.4160 C   0  0  0  0  0  0  0  0  0  0  0  0
    8.7390  -15.3910   -2.8570 C   0  0  2  0  0  0  0  0  0  0  0  0
    8.8770  -13.8460   -2.8960 C   0  0  0  0  0  0  0  0  0  0  0  0
    8.4350  -13.1220   -3.7810 O   0  0  0  0  0  0  0  0  0  0  0  0
    9.6350  -13.4000   -1.8570 O   0  0  0  0  0  0  0  0  0  0  0  0
   10.7620  -12.5970   -2.2260 C   0  0  2  0  0  0  0  0  0  0  0  0
   11.5620  -13.3330   -3.1600 O   0  0  0  0  0  0  0  0  0  0  0  0
   12.7190  -12.6080   -3.5870 C   0  0  2  0  0  0  0  0  0  0  0  0
   13.4330  -13.4500   -4.6540 C   0  0  0  0  0  0  0  0  0  0  0  0
   13.1440  -12.9690   -5.9640 O   0  0  0  0  0  0  0  0  0  0  0  0
   13.6420  -12.3080   -2.3940 C   0  0  1  0  0  0  0  0  0  0  0  0
   14.7610  -11.4860   -2.7500 O   0  0  0  0  0  0  0  0  0  0  0  0
   12.8560  -11.5670   -1.3110 C   0  0  2  0  0  0  0  0  0  0  0  0
   13.6640  -11.4140   -0.1320 O   0  0  0  0  0  0  0  0  0  0  0  0
   11.5700  -12.3070   -0.9480 C   0  0  1  0  0  0  0  0  0  0  0  0
   10.8230  -11.5030   -0.0200 O   0  0  0  0  0  0  0  0  0  0  0  0
    9.9850  -15.9490   -3.5900 C   0  0  0  0  0  0  0  0  0  0  0  0
    9.7840  -15.9960   -5.0990 C   0  0  0  0  0  0  0  0  0  0  0  0
    8.5770  -16.8680   -5.4690 C   0  0  1  0  0  0  0  0  0  0  0  0
    8.9170  -18.3570   -5.3190 C   0  0  0  0  0  0  0  0  0  0  0  0
    5.3344  -17.2615   -4.4911 H   0  0  0  0  0  0  0  0  0  0  0  0
    5.6122  -16.1947   -5.9094 H   0  0  0  0  0  0  0  0  0  0  0  0
    6.2512  -17.8735   -5.9094 H   0  0  0  0  0  0  0  0  0  0  0  0
    5.4543  -14.2879   -4.3759 H   0  0  0  0  0  0  0  0  0  0  0  0
    4.0259  -13.1132   -2.5033 H   0  0  0  0  0  0  0  0  0  0  0  0
    3.1737  -14.4472   -3.4117 H   0  0  0  0  0  0  0  0  0  0  0  0
    3.4702  -15.9870   -1.6075 H   0  0  0  0  0  0  0  0  0  0  0  0
    2.1843  -12.8105    0.6522 H   0  0  0  0  0  0  0  0  0  0  0  0
    3.0625  -12.4868   -0.8810 H   0  0  0  0  0  0  0  0  0  0  0  0
    1.2703  -12.6091   -0.8810 H   0  0  0  0  0  0  0  0  0  0  0  0
    1.1483  -14.2099   -2.5091 H   0  0  0  0  0  0  0  0  0  0  0  0
    1.3004  -15.9490   -1.9519 H   0  0  0  0  0  0  0  0  0  0  0  0
   -0.4471  -13.7943   -0.7485 H   0  0  0  0  0  0  0  0  0  0  0  0
   -1.7170  -14.5800   -2.2870 H   0  0  0  0  0  0  0  0  0  0  0  0
   -0.1277  -16.7426   -0.0282 H   0  0  0  0  0  0  0  0  0  0  0  0
   -1.5090  -15.3810    1.7520 H   0  0  0  0  0  0  0  0  0  0  0  0
    0.7106  -16.0064    3.4031 H   0  0  0  0  0  0  0  0  0  0  0  0
   -0.2486  -17.0400    2.2903 H   0  0  0  0  0  0  0  0  0  0  0  0
    1.5447  -17.1433    2.2903 H   0  0  0  0  0  0  0  0  0  0  0  0
    0.4717  -14.1983    3.1333 H   0  0  0  0  0  0  0  0  0  0  0  0
    1.1749  -13.2750    1.7622 H   0  0  0  0  0  0  0  0  0  0  0  0
   -0.5724  -13.6917    1.7622 H   0  0  0  0  0  0  0  0  0  0  0  0
    2.1899  -16.4318    0.2850 H   0  0  0  0  0  0  0  0  0  0  0  0
    3.4415  -14.0821    1.7803 H   0  0  0  0  0  0  0  0  0  0  0  0
    3.2002  -15.7251    2.4806 H   0  0  0  0  0  0  0  0  0  0  0  0
    5.4824  -15.4333    1.5754 H   0  0  0  0  0  0  0  0  0  0  0  0
    4.5082  -16.7029    0.6731 H   0  0  0  0  0  0  0  0  0  0  0  0
    5.4869  -13.3561    0.9284 H   0  0  0  0  0  0  0  0  0  0  0  0
    6.4370  -13.3371   -0.5959 H   0  0  0  0  0  0  0  0  0  0  0  0
    4.7279  -12.7843   -0.5959 H   0  0  0  0  0  0  0  0  0  0  0  0
    5.8530  -17.6576   -0.2099 H   0  0  0  0  0  0  0  0  0  0  0  0
    4.9639  -17.5299   -1.7655 H   0  0  0  0  0  0  0  0  0  0  0  0
    6.7380  -17.8110   -1.7655 H   0  0  0  0  0  0  0  0  0  0  0  0
    7.6373  -14.4191   -0.4182 H   0  0  0  0  0  0  0  0  0  0  0  0
    7.5521  -16.0881    0.3392 H   0  0  0  0  0  0  0  0  0  0  0  0
    9.6633  -15.6383   -0.9097 H   0  0  0  0  0  0  0  0  0  0  0  0
    8.6889  -17.0608   -1.4950 H   0  0  0  0  0  0  0  0  0  0  0  0
   10.4460  -11.6517   -2.6913 H   0  0  0  0  0  0  0  0  0  0  0  0
   12.4295  -11.6370   -4.0151 H   0  0  0  0  0  0  0  0  0  0  0  0
   14.5187  -13.4000   -4.4841 H   0  0  0  0  0  0  0  0  0  0  0  0
   13.0773  -14.4880   -4.5762 H   0  0  0  0  0  0  0  0  0  0  0  0
   13.9730  -13.0420   -6.4730 H   0  0  0  0  0  0  0  0  0  0  0  0
   14.0171  -13.2790   -2.0383 H   0  0  0  0  0  0  0  0  0  0  0  0
   14.9210  -10.8890   -1.9850 H   0  0  0  0  0  0  0  0  0  0  0  0
   12.5877  -10.5784   -1.7120 H   0  0  0  0  0  0  0  0  0  0  0  0
   13.0740  -11.6680    0.6070 H   0  0  0  0  0  0  0  0  0  0  0  0
   11.7986  -13.2719   -0.4719 H   0  0  0  0  0  0  0  0  0  0  0  0
   11.2780  -11.6210    0.8380 H   0  0  0  0  0  0  0  0  0  0  0  0
   10.8475  -15.3040   -3.3663 H   0  0  0  0  0  0  0  0  0  0  0  0
   10.1556  -16.9768   -3.2372 H   0  0  0  0  0  0  0  0  0  0  0  0
    9.6166  -14.9745   -5.4710 H   0  0  0  0  0  0  0  0  0  0  0  0
   10.6836  -16.4322   -5.5577 H   0  0  0  0  0  0  0  0  0  0  0  0
    8.3407  -16.6722   -6.5253 H   0  0  0  0  0  0  0  0  0  0  0  0
    8.9757  -18.6139   -4.2510 H   0  0  0  0  0  0  0  0  0  0  0  0
    8.1339  -18.9621   -5.7992 H   0  0  0  0  0  0  0  0  0  0  0  0
    9.8851  -18.5622   -5.7992 H   0  0  0  0  0  0  0  0  0  0  0  0
  1  2  1  0
  2  3  2  0
  3  4  1  0
  4  5  2  0
  5  6  1  0
  6  7  1  0
  7  8  1  0
  8  9  1  1
  8 10  1  0
 10 11  1  0
 11 12  1  0
 11 13  1  0
 13 14  1  0
 13 15  1  0
 15 16  1  0
 15 17  1  0
 15 18  1  0
 18 19  1  0
 19 20  1  0
 20 21  1  0
 21 22  1  1
 21 23  1  0
 23 24  1  6
 23 25  1  0
 25 26  1  0
 26 27  1  0
 27 28  1  1
 28 29  2  0
 28 30  1  0
 30 31  1  0
 31 32  1  0
 32 33  1  0
 33 34  1  0
 34 35  1  0
 33 36  1  0
 36 37  1  0
 36 38  1  0
 38 39  1  0
 38 40  1  0
 40 41  1  0
 27 42  1  0
 42 43  1  0
 43 44  1  0
 44 45  1  0
 44  2  1  0
 27  3  1  0
 40 31  1  0
 23  4  1  0
 21  7  1  0
 18  8  1  0
  1 46  1  0
  1 47  1  0
  1 48  1  0
  5 49  1  0
  6 50  1  0
  6 51  1  0
  7 52  1  6
  9 53  1  0
  9 54  1  0
  9 55  1  0
 10 56  1  0
 10 57  1  0
 11 58  1  1
 12 59  1  0
 13 60  1  6
 14 61  1  0
 16 62  1  0
 16 63  1  0
 16 64  1  0
 17 65  1  0
 17 66  1  0
 17 67  1  0
 18 68  1  6
 19 69  1  0
 19 70  1  0
 20 71  1  0
 20 72  1  0
 22 73  1  0
 22 74  1  0
 22 75  1  0
 24 76  1  0
 24 77  1  0
 24 78  1  0
 25 79  1  0
 25 80  1  0
 26 81  1  0
 26 82  1  0
 31 83  1  6
 33 84  1  6
 34 85  1  0
 34 86  1  0
 35 87  1  0
 36 88  1  1
 37 89  1  0
 38 90  1  6
 39 91  1  0
 40 92  1  1
 41 93  1  0
 42 94  1  0
 42 95  1  0
 43 96  1  0
 43 97  1  0
 44 98  1  6
 45 99  1  0
 45100  1  0
 45101  1  0
M  END
>  <meeko>  (8) 
{"is_sidechain": [false], "free_energy": -8.159, "intermolecular_energy": -11.856, "internal_energy": -0.686}

$$$$
LIB_OFWIRPXDLBDEFC__M_PUB_ALL__e8__s20260927
     RDKit          3D

101106  0  0  0  0  0  0  0  0999 V2000
   10.5540  -12.2040   -3.3760 C   0  0  0  0  0  0  0  0  0  0  0  0
   10.9400  -13.5200   -2.7360 C   0  0  0  0  0  0  0  0  0  0  0  0
   11.3820  -14.6070   -3.4220 C   0  0  0  0  0  0  0  0  0  0  0  0
   11.4920  -14.6500   -4.8930 C   0  0  0  0  0  0  0  0  0  0  0  0
   10.4130  -14.4010   -5.6560 C   0  0  0  0  0  0  0  0  0  0  0  0
   10.4130  -14.3180   -7.1510 C   0  0  0  0  0  0  0  0  0  0  0  0
   11.8320  -14.2550   -7.7590 C   0  0  2  0  0  0  0  0  0  0  0  0
   11.8640  -14.1470   -9.3520 C   0  0  1  0  0  0  0  0  0  0  0  0
   11.0920  -15.2990  -10.0430 C   0  0  0  0  0  0  0  0  0  0  0  0
   11.1720  -12.8130   -9.7720 C   0  0  0  0  0  0  0  0  0  0  0  0
   11.3880  -12.4280  -11.2360 C   0  0  1  0  0  0  0  0  0  0  0  0
   10.8280  -11.1260  -11.4700 O   0  0  0  0  0  0  0  0  0  0  0  0
   12.8760  -12.3700  -11.6000 C   0  0  2  0  0  0  0  0  0  0  0  0
   12.9850  -12.0270  -12.9880 O   0  0  0  0  0  0  0  0  0  0  0  0
   13.6540  -13.6770  -11.2850 C   0  0  0  0  0  0  0  0  0  0  0  0
   15.1650  -13.3610  -11.4730 C   0  0  0  0  0  0  0  0  0  0  0  0
   13.3270  -14.7930  -12.2970 C   0  0  0  0  0  0  0  0  0  0  0  0
   13.3750  -14.0680   -9.7860 C   0  0  2  0  0  0  0  0  0  0  0  0
   14.1520  -15.2980   -9.2790 C   0  0  0  0  0  0  0  0  0  0  0  0
   14.1650  -15.3240   -7.7500 C   0  0  0  0  0  0  0  0  0  0  0  0
   12.7600  -15.3410   -7.0870 C   0  0  2  0  0  0  0  0  0  0  0  0
   12.1690  -16.7670   -7.2980 C   0  0  0  0  0  0  0  0  0  0  0  0
   12.8660  -15.0140   -5.4860 C   0  0  1  0  0  0  0  0  0  0  0  0
   13.7980  -13.7970   -5.2030 C   0  0  0  0  0  0  0  0  0  0  0  0
   13.4510  -16.2420   -4.7160 C   0  0  0  0  0  0  0  0  0  0  0  0
   13.3180  -16.1570   -3.1920 C   0  0  0  0  0  0  0  0  0  0  0  0
   11.8620  -15.8900   -2.7310 C   0  0  2  0  0  0  0  0  0  0  0  0
   10.8890  -17.0450   -3.0910 C   0  0  0  0  0  0  0  0  0  0  0  0
   11.2250  -18.2000   -3.3270 O   0  0  0  0  0  0  0  0  0  0  0  0
    9.6110  -16.5880   -3.1970 O   0  0  0  0  0  0  0  0  0  0  0  0
    8.7650  -17.3450   -4.0710 C   0  0  2  0  0  0  0  0  0  0  0  0
    9.2770  -17.2440   -5.4050 O   0  0  0  0  0  0  0  0  0  0  0  0
    8.4920  -17.9710   -6.3540 C   0  0  2  0  0  0  0  0  0  0  0  0
    9.1920  -17.8720   -7.7170 C   0  0  0  0  0  0  0  0  0  0  0  0
    9.5700  -19.1610   -8.1930 O   0  0  0  0  0  0  0  0  0  0  0  0
    7.0590  -17.4130   -6.4140 C   0  0  1  0  0  0  0  0  0  0  0  0
    6.2010  -18.1780   -7.2690 O   0  0  0  0  0  0  0  0  0  0  0  0
    6.4440  -17.4280   -5.0140 C   0  0  2  0  0  0  0  0  0  0  0  0
    5.1660  -16.7720   -5.0290 O   0  0  0  0  0  0  0  0  0  0  0  0
    7.3520  -16.7390   -3.9960 C   0  0  1  0  0  0  0  0  0  0  0  0
    6.7770  -16.8930   -2.6890 O   0  0  0  0  0  0  0  0  0  0  0  0
   11.8660  -15.8040   -1.1840 C   0  0  0  0  0  0  0  0  0  0  0  0
   10.7120  -14.9600   -0.6590 C   0  0  0  0  0  0  0  0  0  0  0  0
   10.7700  -13.5330   -1.2210 C   0  0  1  0  0  0  0  0  0  0  0  0
   11.8740  -12.7210   -0.5290 C   0  0  0  0  0  0  0  0  0  0  0  0
   10.3370  -11.4643   -2.5913 H   0  0  0  0  0  0  0  0  0  0  0  0
   11.3840  -11.8428   -4.0010 H   0  0  0  0  0  0  0  0  0  0  0  0
    9.6604  -12.3484   -4.0010 H   0  0  0  0  0  0  0  0  0  0  0  0
    9.4537  -14.2459   -5.1406 H   0  0  0  0  0  0  0  0  0  0  0  0
    9.9012  -15.2061   -7.5501 H   0  0  0  0  0  0  0  0  0  0  0  0
    9.8988  -13.3852   -7.4258 H   0  0  0  0  0  0  0  0  0  0  0  0
   12.2863  -13.2878   -7.4981 H   0  0  0  0  0  0  0  0  0  0  0  0
   10.6518  -15.9559   -9.2783 H   0  0  0  0  0  0  0  0  0  0  0  0
   10.2919  -14.8795  -10.6706 H   0  0  0  0  0  0  0  0  0  0  0  0
   11.7841  -15.8795  -10.6706 H   0  0  0  0  0  0  0  0  0  0  0  0
   10.0907  -12.9159   -9.5984 H   0  0  0  0  0  0  0  0  0  0  0  0
   11.6274  -12.0164   -9.1654 H   0  0  0  0  0  0  0  0  0  0  0  0
   10.9003  -13.1962  -11.8541 H   0  0  0  0  0  0  0  0  0  0  0  0
   10.0850  -11.2390  -12.0870 H   0  0  0  0  0  0  0  0  0  0  0  0
   13.3477  -11.6033  -10.9678 H   0  0  0  0  0  0  0  0  0  0  0  0
   13.2110  -12.8680  -13.4340 H   0  0  0  0  0  0  0  0  0  0  0  0
   15.6440  -13.2608  -10.4878 H   0  0  0  0  0  0  0  0  0  0  0  0
   15.6438  -14.1785  -12.0321 H   0  0  0  0  0  0  0  0  0  0  0  0
   15.2761  -12.4202  -12.0321 H   0  0  0  0  0  0  0  0  0  0  0  0
   13.0578  -15.7118  -11.7554 H   0  0  0  0  0  0  0  0  0  0  0  0
   12.4830  -14.4792  -12.9289 H   0  0  0  0  0  0  0  0  0  0  0  0
   14.2068  -14.9843  -12.9289 H   0  0  0  0  0  0  0  0  0  0  0  0
   13.7847  -13.1846   -9.2745 H   0  0  0  0  0  0  0  0  0  0  0  0
   13.6685  -16.2124   -9.6534 H   0  0  0  0  0  0  0  0  0  0  0  0
   15.1879  -15.2428   -9.6449 H   0  0  0  0  0  0  0  0  0  0  0  0
   14.7065  -16.2256   -7.4276 H   0  0  0  0  0  0  0  0  0  0  0  0
   14.6480  -14.3895   -7.4284 H   0  0  0  0  0  0  0  0  0  0  0  0
   11.9761  -17.2324   -6.3201 H   0  0  0  0  0  0  0  0  0  0  0  0
   11.2271  -16.6939   -7.8614 H   0  0  0  0  0  0  0  0  0  0  0  0
   12.8865  -17.3816   -7.8614 H   0  0  0  0  0  0  0  0  0  0  0  0
   13.9027  -13.6602   -4.1166 H   0  0  0  0  0  0  0  0  0  0  0  0
   14.7875  -13.9821   -5.6464 H   0  0  0  0  0  0  0  0  0  0  0  0
   13.3614  -12.8899   -5.6464 H   0  0  0  0  0  0  0  0  0  0  0  0
   12.9235  -17.1449   -5.0573 H   0  0  0  0  0  0  0  0  0  0  0  0
   14.5286  -16.2653   -4.9357 H   0  0  0  0  0  0  0  0  0  0  0  0
   13.6560  -17.1086   -2.7559 H   0  0  0  0  0  0  0  0  0  0  0  0
   13.9339  -15.3114   -2.8520 H   0  0  0  0  0  0  0  0  0  0  0  0
    8.7330  -18.4053   -3.7799 H   0  0  0  0  0  0  0  0  0  0  0  0
    8.4089  -19.0269   -6.0570 H   0  0  0  0  0  0  0  0  0  0  0  0
    8.5056  -17.4085   -8.4409 H   0  0  0  0  0  0  0  0  0  0  0  0
   10.0998  -17.2618   -7.6007 H   0  0  0  0  0  0  0  0  0  0  0  0
    9.3360  -19.7950   -7.4890 H   0  0  0  0  0  0  0  0  0  0  0  0
    7.1377  -16.3924   -6.8168 H   0  0  0  0  0  0  0  0  0  0  0  0
    6.3890  -19.1240   -7.0750 H   0  0  0  0  0  0  0  0  0  0  0  0
    6.3216  -18.4798   -4.7161 H   0  0  0  0  0  0  0  0  0  0  0  0
    5.1650  -16.2100   -4.2270 H   0  0  0  0  0  0  0  0  0  0  0  0
    7.4384  -15.6648   -4.2163 H   0  0  0  0  0  0  0  0  0  0  0  0
    7.2310  -16.2260   -2.1340 H   0  0  0  0  0  0  0  0  0  0  0  0
   11.7801  -16.8200   -0.7711 H   0  0  0  0  0  0  0  0  0  0  0  0
   12.8067  -15.3271   -0.8716 H   0  0  0  0  0  0  0  0  0  0  0  0
    9.7614  -15.4255   -0.9583 H   0  0  0  0  0  0  0  0  0  0  0  0
   10.7886  -14.9070    0.4370 H   0  0  0  0  0  0  0  0  0  0  0  0
    9.8032  -13.0546   -1.0054 H   0  0  0  0  0  0  0  0  0  0  0  0
   11.7611  -12.8040    0.5620 H   0  0  0  0  0  0  0  0  0  0  0  0
   12.8581  -13.1121   -0.8266 H   0  0  0  0  0  0  0  0  0  0  0  0
   11.7938  -11.6651   -0.8266 H   0  0  0  0  0  0  0  0  0  0  0  0
  1  2  1  0
  2  3  2  0
  3  4  1  0
  4  5  2  0
  5  6  1  0
  6  7  1  0
  7  8  1  0
  8  9  1  6
  8 10  1  0
 10 11  1  0
 11 12  1  0
 11 13  1  0
 13 14  1  0
 13 15  1  0
 15 16  1  0
 15 17  1  0
 15 18  1  0
 18 19  1  0
 19 20  1  0
 20 21  1  0
 21 22  1  1
 21 23  1  0
 23 24  1  6
 23 25  1  0
 25 26  1  0
 26 27  1  0
 27 28  1  1
 28 29  2  0
 28 30  1  0
 30 31  1  0
 31 32  1  0
 32 33  1  0
 33 34  1  0
 34 35  1  0
 33 36  1  0
 36 37  1  0
 36 38  1  0
 38 39  1  0
 38 40  1  0
 40 41  1  0
 27 42  1  0
 42 43  1  0
 43 44  1  0
 44 45  1  0
 44  2  1  0
 27  3  1  0
 40 31  1  0
 23  4  1  0
 21  7  1  0
 18  8  1  0
  1 46  1  0
  1 47  1  0
  1 48  1  0
  5 49  1  0
  6 50  1  0
  6 51  1  0
  7 52  1  1
  9 53  1  0
  9 54  1  0
  9 55  1  0
 10 56  1  0
 10 57  1  0
 11 58  1  6
 12 59  1  0
 13 60  1  1
 14 61  1  0
 16 62  1  0
 16 63  1  0
 16 64  1  0
 17 65  1  0
 17 66  1  0
 17 67  1  0
 18 68  1  1
 19 69  1  0
 19 70  1  0
 20 71  1  0
 20 72  1  0
 22 73  1  0
 22 74  1  0
 22 75  1  0
 24 76  1  0
 24 77  1  0
 24 78  1  0
 25 79  1  0
 25 80  1  0
 26 81  1  0
 26 82  1  0
 31 83  1  1
 33 84  1  1
 34 85  1  0
 34 86  1  0
 35 87  1  0
 36 88  1  6
 37 89  1  0
 38 90  1  1
 39 91  1  0
 40 92  1  6
 41 93  1  0
 42 94  1  0
 42 95  1  0
 43 96  1  0
 43 97  1  0
 44 98  1  6
 45 99  1  0
 45100  1  0
 45101  1  0
M  END
>  <meeko>  (9) 
{"is_sidechain": [false], "free_energy": -7.84, "intermolecular_energy": -11.331, "internal_energy": -0.76}

$$$$
