LIB_YDJYRDOKNBKUDY__M_PUB_ALL__e8__s20260927
     RDKit          3D

 86 90  0  0  0  0  0  0  0  0999 V2000
   -1.9190  -10.8720    1.6980 C   0  0  0  0  0  0  0  0  0  0  0  0
   -1.4450  -11.8080    0.5740 C   0  0  2  0  0  0  0  0  0  0  0  0
   -2.2170  -13.1410    0.6610 C   0  0  0  0  0  0  0  0  0  0  0  0
   -1.3760  -14.2980    1.1920 C   0  0  0  0  0  0  0  0  0  0  0  0
   -0.1100  -14.5790    0.3310 C   0  0  2  0  0  0  0  0  0  0  0  0
   -0.6730  -15.5820   -0.7380 C   0  0  0  0  0  0  0  0  0  0  0  0
   -0.7670  -15.1490   -1.9230 O   0  0  0  0  0  0  0  0  0  0  0  0
   -1.0400  -16.7140   -0.3010 O   0  0  0  0  0  0  0  0  0  0  0  0
    0.9440  -15.2480    1.2350 C   0  0  0  0  0  0  0  0  0  0  0  0
    2.2470  -15.5300    0.4900 C   0  0  0  0  0  0  0  0  0  0  0  0
    2.9400  -14.2710   -0.1040 C   0  0  2  0  0  0  0  0  0  0  0  0
    3.4750  -13.4210    1.0820 C   0  0  0  0  0  0  0  0  0  0  0  0
    1.9020  -13.4140   -0.8560 C   0  0  0  0  0  0  0  0  0  0  0  0
    2.2100  -12.8180   -2.0270 C   0  0  0  0  0  0  0  0  0  0  0  0
    3.5390  -12.8280   -2.7120 C   0  0  0  0  0  0  0  0  0  0  0  0
    4.6820  -13.4460   -1.8820 C   0  0  2  0  0  0  0  0  0  0  0  0
    6.0680  -13.5760   -2.6670 C   0  0  1  0  0  0  0  0  0  0  0  0
    5.9390  -14.4330   -3.9540 C   0  0  0  0  0  0  0  0  0  0  0  0
    6.5250  -12.1520   -3.1110 C   0  0  0  0  0  0  0  0  0  0  0  0
    7.9740  -12.0840   -3.5940 C   0  0  1  0  0  0  0  0  0  0  0  0
    8.3030  -10.7140   -3.8750 O   0  0  0  0  0  0  0  0  0  0  0  0
    8.9450  -12.6260   -2.5380 C   0  0  2  0  0  0  0  0  0  0  0  0
   10.2750  -12.4760   -3.0570 O   0  0  0  0  0  0  0  0  0  0  0  0
    8.6430  -14.0950   -2.1160 C   0  0  1  0  0  0  0  0  0  0  0  0
    8.9630  -15.0910   -3.2530 C   0  0  0  0  0  0  0  0  0  0  0  0
    9.6240  -14.4800   -0.9610 C   0  0  0  0  0  0  0  0  0  0  0  0
   10.0010  -13.3520   -0.1880 O   0  0  0  0  0  0  0  0  0  0  0  0
   11.5870  -13.1800    0.1630 S   0  0  0  0  0  0  0  0  0  0  0  0
   12.1750  -14.4440   -0.2590 O   0  0  0  0  0  0  0  0  0  0  0  0
   11.5830  -12.9640    1.6120 O   0  0  0  0  0  0  0  0  0  0  0  0
   11.9920  -12.0170   -0.6180 O   0  0  0  0  0  0  0  0  0  0  0  0
    7.1350  -14.1420   -1.6450 C   0  0  2  0  0  0  0  0  0  0  0  0
    6.6630  -15.4960   -1.0770 C   0  0  0  0  0  0  0  0  0  0  0  0
    5.3570  -15.3290   -0.2930 C   0  0  0  0  0  0  0  0  0  0  0  0
    4.1750  -14.7190   -1.0990 C   0  0  1  0  0  0  0  0  0  0  0  0
    3.6770  -15.8170   -2.0860 C   0  0  0  0  0  0  0  0  0  0  0  0
    0.4450  -13.2810   -0.3300 C   0  0  2  0  0  0  0  0  0  0  0  0
    0.1100  -11.9960    0.5290 C   0  0  1  0  0  0  0  0  0  0  0  0
    0.7650  -10.7230   -0.0420 C   0  0  0  0  0  0  0  0  0  0  0  0
    0.5740  -12.1470    1.8790 O   0  0  0  0  0  0  0  0  0  0  0  0
   -1.6895  -11.3251    2.6737 H   0  0  0  0  0  0  0  0  0  0  0  0
   -1.4020   -9.9048    1.6122 H   0  0  0  0  0  0  0  0  0  0  0  0
   -3.0046  -10.7164    1.6122 H   0  0  0  0  0  0  0  0  0  0  0  0
   -1.6783  -11.3315   -0.3896 H   0  0  0  0  0  0  0  0  0  0  0  0
   -3.0788  -13.0012    1.3302 H   0  0  0  0  0  0  0  0  0  0  0  0
   -2.5219  -13.4056   -0.3622 H   0  0  0  0  0  0  0  0  0  0  0  0
   -1.0561  -14.0568    2.2164 H   0  0  0  0  0  0  0  0  0  0  0  0
   -2.0027  -15.2014    1.1578 H   0  0  0  0  0  0  0  0  0  0  0  0
    1.1580  -14.5811    2.0832 H   0  0  0  0  0  0  0  0  0  0  0  0
    0.5347  -16.2104    1.5761 H   0  0  0  0  0  0  0  0  0  0  0  0
    2.9467  -16.0076    1.1917 H   0  0  0  0  0  0  0  0  0  0  0  0
    1.9848  -16.1727   -0.3634 H   0  0  0  0  0  0  0  0  0  0  0  0
    3.1796  -13.8903    2.0320 H   0  0  0  0  0  0  0  0  0  0  0  0
    4.5721  -13.3640    1.0267 H   0  0  0  0  0  0  0  0  0  0  0  0
    3.0519  -12.4071    1.0267 H   0  0  0  0  0  0  0  0  0  0  0  0
    1.4001  -12.2684   -2.5291 H   0  0  0  0  0  0  0  0  0  0  0  0
    3.4408  -13.4042   -3.6439 H   0  0  0  0  0  0  0  0  0  0  0  0
    3.8104  -11.7758   -2.8831 H   0  0  0  0  0  0  0  0  0  0  0  0
    4.9691  -12.7299   -1.0979 H   0  0  0  0  0  0  0  0  0  0  0  0
    5.7805  -15.4862   -3.6789 H   0  0  0  0  0  0  0  0  0  0  0  0
    5.0844  -14.0765   -4.5478 H   0  0  0  0  0  0  0  0  0  0  0  0
    6.8607  -14.3439   -4.5478 H   0  0  0  0  0  0  0  0  0  0  0  0
    5.8715  -11.8195   -3.9310 H   0  0  0  0  0  0  0  0  0  0  0  0
    6.4556  -11.5055   -2.2238 H   0  0  0  0  0  0  0  0  0  0  0  0
    8.0696  -12.7045   -4.4973 H   0  0  0  0  0  0  0  0  0  0  0  0
    8.4480  -10.3230   -2.9880 H   0  0  0  0  0  0  0  0  0  0  0  0
    8.8265  -12.0482   -1.6095 H   0  0  0  0  0  0  0  0  0  0  0  0
   10.8760  -12.7200   -2.3020 H   0  0  0  0  0  0  0  0  0  0  0  0
    9.2724  -16.0540   -2.8206 H   0  0  0  0  0  0  0  0  0  0  0  0
    8.0671  -15.2388   -3.8739 H   0  0  0  0  0  0  0  0  0  0  0  0
    9.7773  -14.6893   -3.8739 H   0  0  0  0  0  0  0  0  0  0  0  0
    9.1305  -15.2118   -0.3046 H   0  0  0  0  0  0  0  0  0  0  0  0
   10.5335  -14.9022   -1.4133 H   0  0  0  0  0  0  0  0  0  0  0  0
    7.1733  -13.4291   -0.8082 H   0  0  0  0  0  0  0  0  0  0  0  0
    6.4983  -16.1983   -1.9075 H   0  0  0  0  0  0  0  0  0  0  0  0
    7.4364  -15.8832   -0.3973 H   0  0  0  0  0  0  0  0  0  0  0  0
    5.0472  -16.3210    0.0675 H   0  0  0  0  0  0  0  0  0  0  0  0
    5.5752  -14.6163    0.5160 H   0  0  0  0  0  0  0  0  0  0  0  0
    3.2885  -16.6737   -1.5158 H   0  0  0  0  0  0  0  0  0  0  0  0
    2.8775  -15.4053   -2.7195 H   0  0  0  0  0  0  0  0  0  0  0  0
    4.5134  -16.1472   -2.7195 H   0  0  0  0  0  0  0  0  0  0  0  0
   -0.1062  -13.1231   -1.2687 H   0  0  0  0  0  0  0  0  0  0  0  0
    1.0966  -10.0785    0.7855 H   0  0  0  0  0  0  0  0  0  0  0  0
    1.6316  -11.0019   -0.6595 H   0  0  0  0  0  0  0  0  0  0  0  0
    0.0343  -10.1801   -0.6595 H   0  0  0  0  0  0  0  0  0  0  0  0
   -0.1830  -12.0500    2.4760 H   0  0  0  0  0  0  0  0  0  0  0  0
  1  2  1  0
  2  3  1  0
  3  4  1  0
  4  5  1  0
  5  6  1  6
  6  7  2  0
  6  8  1  0
  5  9  1  0
  9 10  1  0
 10 11  1  0
 11 12  1  1
 11 13  1  0
 13 14  2  0
 14 15  1  0
 15 16  1  0
 16 17  1  0
 17 18  1  6
 17 19  1  0
 19 20  1  0
 20 21  1  0
 20 22  1  0
 22 23  1  0
 22 24  1  0
 24 25  1  6
 24 26  1  0
 26 27  1  0
 27 28  1  0
 28 29  2  0
 28 30  2  0
 28 31  1  0
 24 32  1  0
 32 33  1  0
 33 34  1  0
 34 35  1  0
 35 36  1  6
 13 37  1  0
 37 38  1  0
 38 39  1  0
 38 40  1  1
 38  2  1  0
 37  5  1  0
 35 11  1  0
 35 16  1  0
 32 17  1  0
  1 41  1  0
  1 42  1  0
  1 43  1  0
  2 44  1  6
  3 45  1  0
  3 46  1  0
  4 47  1  0
  4 48  1  0
  9 49  1  0
  9 50  1  0
 10 51  1  0
 10 52  1  0
 12 53  1  0
 12 54  1  0
 12 55  1  0
 14 56  1  0
 15 57  1  0
 15 58  1  0
 16 59  1  1
 18 60  1  0
 18 61  1  0
 18 62  1  0
 19 63  1  0
 19 64  1  0
 20 65  1  6
 21 66  1  0
 22 67  1  1
 23 68  1  0
 25 69  1  0
 25 70  1  0
 25 71  1  0
 26 72  1  0
 26 73  1  0
 32 74  1  1
 33 75  1  0
 33 76  1  0
 34 77  1  0
 34 78  1  0
 36 79  1  0
 36 80  1  0
 36 81  1  0
 37 82  1  6
 39 83  1  0
 39 84  1  0
 39 85  1  0
 40 86  1  0
M  CHG  2   8  -1  31  -1
M  END
>  <meeko>  (1) 
{"is_sidechain": [false], "free_energy": -8.466, "intermolecular_energy": -11.188, "internal_energy": -1.092}

$$$$
LIB_YDJYRDOKNBKUDY__M_PUB_ALL__e8__s20260927
     RDKit          3D

 86 90  0  0  0  0  0  0  0  0999 V2000
    1.0980  -16.4450   -0.3310 C   0  0  0  0  0  0  0  0  0  0  0  0
    1.9120  -15.1800   -0.6470 C   0  0  2  0  0  0  0  0  0  0  0  0
    1.0800  -14.2510   -1.5560 C   0  0  0  0  0  0  0  0  0  0  0  0
    1.5610  -14.2240   -3.0030 C   0  0  0  0  0  0  0  0  0  0  0  0
    3.0420  -13.7670   -3.1470 C   0  0  2  0  0  0  0  0  0  0  0  0
    2.8810  -12.2090   -3.2540 C   0  0  0  0  0  0  0  0  0  0  0  0
    3.2720  -11.5330   -2.2590 O   0  0  0  0  0  0  0  0  0  0  0  0
    2.3160  -11.7780   -4.3040 O   0  0  0  0  0  0  0  0  0  0  0  0
    3.6030  -14.3690   -4.4510 C   0  0  0  0  0  0  0  0  0  0  0  0
    5.0720  -14.0110   -4.6650 C   0  0  0  0  0  0  0  0  0  0  0  0
    6.0280  -14.4880   -3.5360 C   0  0  2  0  0  0  0  0  0  0  0  0
    6.1050  -16.0390   -3.6050 C   0  0  0  0  0  0  0  0  0  0  0  0
    5.4340  -14.1160   -2.1630 C   0  0  0  0  0  0  0  0  0  0  0  0
    6.2210  -13.6580   -1.1660 C   0  0  0  0  0  0  0  0  0  0  0  0
    7.7080  -13.5100   -1.1980 C   0  0  0  0  0  0  0  0  0  0  0  0
    8.3830  -14.1110   -2.4470 C   0  0  2  0  0  0  0  0  0  0  0  0
    9.9550  -13.8340   -2.5410 C   0  0  1  0  0  0  0  0  0  0  0  0
   10.2880  -12.3190   -2.5410 C   0  0  0  0  0  0  0  0  0  0  0  0
   10.6460  -14.4550   -1.2880 C   0  0  0  0  0  0  0  0  0  0  0  0
   12.1690  -14.5400   -1.3950 C   0  0  1  0  0  0  0  0  0  0  0  0
   12.6750  -15.2170   -0.2330 O   0  0  0  0  0  0  0  0  0  0  0  0
   12.6030  -15.3080   -2.6490 C   0  0  2  0  0  0  0  0  0  0  0  0
   14.0370  -15.3800   -2.6370 O   0  0  0  0  0  0  0  0  0  0  0  0
   12.0590  -14.6900   -3.9720 C   0  0  1  0  0  0  0  0  0  0  0  0
   12.7340  -13.3360   -4.2870 C   0  0  0  0  0  0  0  0  0  0  0  0
   12.4730  -15.6270   -5.1530 C   0  0  0  0  0  0  0  0  0  0  0  0
   13.8490  -15.5010   -5.4710 O   0  0  0  0  0  0  0  0  0  0  0  0
   14.2580  -15.5430   -7.0520 S   0  0  0  0  0  0  0  0  0  0  0  0
   15.7040  -15.3660   -7.0410 O   0  0  0  0  0  0  0  0  0  0  0  0
   13.5120  -14.4150   -7.6170 O   0  0  0  0  0  0  0  0  0  0  0  0
   13.7970  -16.8530   -7.4960 O   0  0  0  0  0  0  0  0  0  0  0  0
   10.4880  -14.5890   -3.8250 C   0  0  2  0  0  0  0  0  0  0  0  0
    9.7380  -14.1000   -5.0820 C   0  0  0  0  0  0  0  0  0  0  0  0
    8.2430  -14.4210   -4.9790 C   0  0  0  0  0  0  0  0  0  0  0  0
    7.5220  -13.8230   -3.7370 C   0  0  1  0  0  0  0  0  0  0  0  0
    7.3820  -12.2910   -3.9820 C   0  0  0  0  0  0  0  0  0  0  0  0
    3.9000  -14.1770   -1.9130 C   0  0  2  0  0  0  0  0  0  0  0  0
    3.3410  -15.4820   -1.2160 C   0  0  1  0  0  0  0  0  0  0  0  0
    4.2540  -15.9740   -0.0760 C   0  0  0  0  0  0  0  0  0  0  0  0
    3.2210  -16.5560   -2.1610 O   0  0  0  0  0  0  0  0  0  0  0  0
    1.0192  -16.5675    0.7593 H   0  0  0  0  0  0  0  0  0  0  0  0
    0.0909  -16.3504   -0.7631 H   0  0  0  0  0  0  0  0  0  0  0  0
    1.6014  -17.3224   -0.7631 H   0  0  0  0  0  0  0  0  0  0  0  0
    2.1111  -14.6556    0.2992 H   0  0  0  0  0  0  0  0  0  0  0  0
    0.0354  -14.5956   -1.5429 H   0  0  0  0  0  0  0  0  0  0  0  0
    1.1881  -13.2303   -1.1604 H   0  0  0  0  0  0  0  0  0  0  0  0
    1.4648  -15.2363   -3.4226 H   0  0  0  0  0  0  0  0  0  0  0  0
    0.9391  -13.4936   -3.5413 H   0  0  0  0  0  0  0  0  0  0  0  0
    3.5080  -15.4639   -4.4055 H   0  0  0  0  0  0  0  0  0  0  0  0
    3.0276  -13.9524   -5.2908 H   0  0  0  0  0  0  0  0  0  0  0  0
    5.4020  -14.4684   -5.6094 H   0  0  0  0  0  0  0  0  0  0  0  0
    5.1258  -12.9124   -4.6741 H   0  0  0  0  0  0  0  0  0  0  0  0
    6.1254  -16.4508   -2.5852 H   0  0  0  0  0  0  0  0  0  0  0  0
    5.2250  -16.4264   -4.1393 H   0  0  0  0  0  0  0  0  0  0  0  0
    7.0191  -16.3373   -4.1393 H   0  0  0  0  0  0  0  0  0  0  0  0
    5.7158  -13.3635   -0.2343 H   0  0  0  0  0  0  0  0  0  0  0  0
    7.9475  -12.4370   -1.1607 H   0  0  0  0  0  0  0  0  0  0  0  0
    8.0968  -14.0675   -0.3331 H   0  0  0  0  0  0  0  0  0  0  0  0
    8.3838  -15.2067   -2.3494 H   0  0  0  0  0  0  0  0  0  0  0  0
   10.3667  -11.9609   -1.5039 H   0  0  0  0  0  0  0  0  0  0  0  0
   11.2439  -12.1537   -3.0595 H   0  0  0  0  0  0  0  0  0  0  0  0
    9.4895  -11.7681   -3.0595 H   0  0  0  0  0  0  0  0  0  0  0  0
   10.3948  -13.8376   -0.4130 H   0  0  0  0  0  0  0  0  0  0  0  0
   10.2754  -15.4869   -1.1992 H   0  0  0  0  0  0  0  0  0  0  0  0
   12.5712  -13.5184   -1.4627 H   0  0  0  0  0  0  0  0  0  0  0  0
   13.5840  -14.8630   -0.1340 H   0  0  0  0  0  0  0  0  0  0  0  0
   12.1664  -16.3173   -2.6219 H   0  0  0  0  0  0  0  0  0  0  0  0
   14.3250  -14.9170   -3.4700 H   0  0  0  0  0  0  0  0  0  0  0  0
   12.9885  -12.8256   -3.3464 H   0  0  0  0  0  0  0  0  0  0  0  0
   13.6508  -13.5100   -4.8694 H   0  0  0  0  0  0  0  0  0  0  0  0
   12.0432  -12.7086   -4.8694 H   0  0  0  0  0  0  0  0  0  0  0  0
   12.2679  -16.6696   -4.8684 H   0  0  0  0  0  0  0  0  0  0  0  0
   11.8904  -15.3357   -6.0394 H   0  0  0  0  0  0  0  0  0  0  0  0
   10.2396  -15.6515   -3.6855 H   0  0  0  0  0  0  0  0  0  0  0  0
    9.8680  -13.0121   -5.1798 H   0  0  0  0  0  0  0  0  0  0  0  0
   10.1505  -14.6140   -5.9627 H   0  0  0  0  0  0  0  0  0  0  0  0
    7.7481  -14.0308   -5.8806 H   0  0  0  0  0  0  0  0  0  0  0  0
    8.1714  -15.5139   -4.8771 H   0  0  0  0  0  0  0  0  0  0  0  0
    7.3342  -11.7680   -3.0155 H   0  0  0  0  0  0  0  0  0  0  0  0
    8.2509  -11.9299   -4.5518 H   0  0  0  0  0  0  0  0  0  0  0  0
    6.4621  -12.0933   -4.5518 H   0  0  0  0  0  0  0  0  0  0  0  0
    3.7775  -13.3961   -1.1480 H   0  0  0  0  0  0  0  0  0  0  0  0
    3.7959  -15.7271    0.8931 H   0  0  0  0  0  0  0  0  0  0  0  0
    4.3828  -17.0637   -0.1537 H   0  0  0  0  0  0  0  0  0  0  0  0
    5.2349  -15.4824   -0.1537 H   0  0  0  0  0  0  0  0  0  0  0  0
    3.8210  -17.2680   -1.8940 H   0  0  0  0  0  0  0  0  0  0  0  0
  1  2  1  0
  2  3  1  0
  3  4  1  0
  4  5  1  0
  5  6  1  6
  6  7  2  0
  6  8  1  0
  5  9  1  0
  9 10  1  0
 10 11  1  0
 11 12  1  1
 11 13  1  0
 13 14  2  0
 14 15  1  0
 15 16  1  0
 16 17  1  0
 17 18  1  6
 17 19  1  0
 19 20  1  0
 20 21  1  0
 20 22  1  0
 22 23  1  0
 22 24  1  0
 24 25  1  6
 24 26  1  0
 26 27  1  0
 27 28  1  0
 28 29  2  0
 28 30  2  0
 28 31  1  0
 24 32  1  0
 32 33  1  0
 33 34  1  0
 34 35  1  0
 35 36  1  6
 13 37  1  0
 37 38  1  0
 38 39  1  0
 38 40  1  6
 38  2  1  0
 37  5  1  0
 35 11  1  0
 35 16  1  0
 32 17  1  0
  1 41  1  0
  1 42  1  0
  1 43  1  0
  2 44  1  1
  3 45  1  0
  3 46  1  0
  4 47  1  0
  4 48  1  0
  9 49  1  0
  9 50  1  0
 10 51  1  0
 10 52  1  0
 12 53  1  0
 12 54  1  0
 12 55  1  0
 14 56  1  0
 15 57  1  0
 15 58  1  0
 16 59  1  1
 18 60  1  0
 18 61  1  0
 18 62  1  0
 19 63  1  0
 19 64  1  0
 20 65  1  6
 21 66  1  0
 22 67  1  1
 23 68  1  0
 25 69  1  0
 25 70  1  0
 25 71  1  0
 26 72  1  0
 26 73  1  0
 32 74  1  1
 33 75  1  0
 33 76  1  0
 34 77  1  0
 34 78  1  0
 36 79  1  0
 36 80  1  0
 36 81  1  0
 37 82  1  1
 39 83  1  0
 39 84  1  0
 39 85  1  0
 40 86  1  0
M  CHG  2   8  -1  31  -1
M  END
>  <meeko>  (2) 
{"is_sidechain": [false], "free_energy": -8.166, "intermolecular_energy": -11.037, "internal_energy": -0.847}

$$$$
LIB_YDJYRDOKNBKUDY__M_PUB_ALL__e8__s20260927
     RDKit          3D

 86 90  0  0  0  0  0  0  0  0999 V2000
   -1.6750  -16.1170    4.8610 C   0  0  0  0  0  0  0  0  0  0  0  0
   -1.5040  -15.4060    3.5090 C   0  0  2  0  0  0  0  0  0  0  0  0
   -2.4850  -16.0150    2.4840 C   0  0  0  0  0  0  0  0  0  0  0  0
   -1.8070  -16.9060    1.4480 C   0  0  0  0  0  0  0  0  0  0  0  0
   -0.7150  -16.1640    0.6240 C   0  0  2  0  0  0  0  0  0  0  0  0
   -1.5630  -15.5700   -0.5570 C   0  0  0  0  0  0  0  0  0  0  0  0
   -1.9320  -16.3860   -1.4520 O   0  0  0  0  0  0  0  0  0  0  0  0
   -1.7480  -14.3170   -0.5350 O   0  0  0  0  0  0  0  0  0  0  0  0
    0.2990  -17.2110    0.1210 C   0  0  0  0  0  0  0  0  0  0  0  0
    1.4390  -16.5750   -0.6700 C   0  0  0  0  0  0  0  0  0  0  0  0
    2.2730  -15.5280    0.1210 C   0  0  2  0  0  0  0  0  0  0  0  0
    3.0790  -16.2890    1.2100 C   0  0  0  0  0  0  0  0  0  0  0  0
    1.3250  -14.5510    0.8450 C   0  0  0  0  0  0  0  0  0  0  0  0
    1.6010  -13.2310    0.9050 C   0  0  0  0  0  0  0  0  0  0  0  0
    2.8210  -12.5480    0.3770 C   0  0  0  0  0  0  0  0  0  0  0  0
    3.9220  -13.5040   -0.1230 C   0  0  2  0  0  0  0  0  0  0  0  0
    5.1670  -12.7710   -0.8080 C   0  0  1  0  0  0  0  0  0  0  0  0
    4.7450  -11.9040   -2.0230 C   0  0  0  0  0  0  0  0  0  0  0  0
    5.8160  -11.8110    0.2360 C   0  0  0  0  0  0  0  0  0  0  0  0
    7.1900  -11.2810   -0.1740 C   0  0  1  0  0  0  0  0  0  0  0  0
    7.7230  -10.4970    0.9060 O   0  0  0  0  0  0  0  0  0  0  0  0
    8.1630  -12.4250   -0.4890 C   0  0  2  0  0  0  0  0  0  0  0  0
    9.4310  -11.8360   -0.8120 O   0  0  0  0  0  0  0  0  0  0  0  0
    7.6550  -13.3760   -1.6130 C   0  0  1  0  0  0  0  0  0  0  0  0
    7.6650  -12.6820   -2.9930 C   0  0  0  0  0  0  0  0  0  0  0  0
    8.6760  -14.5530   -1.7510 C   0  0  0  0  0  0  0  0  0  0  0  0
    9.5310  -14.6470   -0.6240 O   0  0  0  0  0  0  0  0  0  0  0  0
   11.1390  -14.5580   -0.8950 S   0  0  0  0  0  0  0  0  0  0  0  0
   11.6380  -13.7810    0.2320 O   0  0  0  0  0  0  0  0  0  0  0  0
   11.2190  -13.8740   -2.1880 O   0  0  0  0  0  0  0  0  0  0  0  0
   11.5650  -15.9520   -0.9230 O   0  0  0  0  0  0  0  0  0  0  0  0
    6.2240  -13.8880   -1.1770 C   0  0  2  0  0  0  0  0  0  0  0  0
    5.5880  -14.9390   -2.1090 C   0  0  0  0  0  0  0  0  0  0  0  0
    4.4280  -15.6540   -1.4080 C   0  0  0  0  0  0  0  0  0  0  0  0
    3.2900  -14.7250   -0.8970 C   0  0  1  0  0  0  0  0  0  0  0  0
    2.4980  -14.2400   -2.1490 C   0  0  0  0  0  0  0  0  0  0  0  0
   -0.0180  -15.0460    1.4550 C   0  0  2  0  0  0  0  0  0  0  0  0
   -0.0210  -15.3750    3.0020 C   0  0  1  0  0  0  0  0  0  0  0  0
    0.7800  -14.3450    3.8210 C   0  0  0  0  0  0  0  0  0  0  0  0
    0.5570  -16.6640    3.2530 O   0  0  0  0  0  0  0  0  0  0  0  0
   -1.5025  -15.3997    5.6769 H   0  0  0  0  0  0  0  0  0  0  0  0
   -2.6957  -16.5200    4.9368 H   0  0  0  0  0  0  0  0  0  0  0  0
   -0.9492  -16.9401    4.9368 H   0  0  0  0  0  0  0  0  0  0  0  0
   -1.7569  -14.3442    3.6456 H   0  0  0  0  0  0  0  0  0  0  0  0
   -3.2279  -16.6168    3.0281 H   0  0  0  0  0  0  0  0  0  0  0  0
   -2.9449  -15.1774    1.9391 H   0  0  0  0  0  0  0  0  0  0  0  0
   -1.3369  -17.7531    1.9690 H   0  0  0  0  0  0  0  0  0  0  0  0
   -2.5830  -17.2356    0.7414 H   0  0  0  0  0  0  0  0  0  0  0  0
    0.7213  -17.7403    0.9879 H   0  0  0  0  0  0  0  0  0  0  0  0
   -0.2331  -17.9021   -0.5493 H   0  0  0  0  0  0  0  0  0  0  0  0
    2.1173  -17.3764   -0.9981 H   0  0  0  0  0  0  0  0  0  0  0  0
    0.9728  -16.0335   -1.5063 H   0  0  0  0  0  0  0  0  0  0  0  0
    2.7407  -15.9696    2.2068 H   0  0  0  0  0  0  0  0  0  0  0  0
    2.9168  -17.3711    1.0971 H   0  0  0  0  0  0  0  0  0  0  0  0
    4.1500  -16.0650    1.0971 H   0  0  0  0  0  0  0  0  0  0  0  0
    0.8503  -12.5919    1.3930 H   0  0  0  0  0  0  0  0  0  0  0  0
    2.5184  -11.9037   -0.4616 H   0  0  0  0  0  0  0  0  0  0  0  0
    3.2531  -11.9849    1.2174 H   0  0  0  0  0  0  0  0  0  0  0  0
    4.4164  -13.9522    0.7515 H   0  0  0  0  0  0  0  0  0  0  0  0
    4.2897  -10.9686   -1.6655 H   0  0  0  0  0  0  0  0  0  0  0  0
    5.6306  -11.6712   -2.6326 H   0  0  0  0  0  0  0  0  0  0  0  0
    4.0154  -12.4573   -2.6326 H   0  0  0  0  0  0  0  0  0  0  0  0
    5.1436  -10.9526    0.3809 H   0  0  0  0  0  0  0  0  0  0  0  0
    5.9628  -12.3953    1.1563 H   0  0  0  0  0  0  0  0  0  0  0  0
    7.0716  -10.6715   -1.0820 H   0  0  0  0  0  0  0  0  0  0  0  0
    7.0420  -10.5730    1.6070 H   0  0  0  0  0  0  0  0  0  0  0  0
    8.2542  -13.0745    0.3941 H   0  0  0  0  0  0  0  0  0  0  0  0
   10.0050  -12.5980   -1.0960 H   0  0  0  0  0  0  0  0  0  0  0  0
    7.6807  -11.5909   -2.8546 H   0  0  0  0  0  0  0  0  0  0  0  0
    8.5588  -12.9934   -3.5536 H   0  0  0  0  0  0  0  0  0  0  0  0
    6.7626  -12.9675   -3.5536 H   0  0  0  0  0  0  0  0  0  0  0  0
    8.1194  -15.4961   -1.8546 H   0  0  0  0  0  0  0  0  0  0  0  0
    9.2996  -14.3608   -2.6365 H   0  0  0  0  0  0  0  0  0  0  0  0
    6.4799  -14.3955   -0.2352 H   0  0  0  0  0  0  0  0  0  0  0  0
    5.2103  -14.4386   -3.0128 H   0  0  0  0  0  0  0  0  0  0  0  0
    6.3525  -15.6835   -2.3759 H   0  0  0  0  0  0  0  0  0  0  0  0
    3.9897  -16.3697   -2.1191 H   0  0  0  0  0  0  0  0  0  0  0  0
    4.8580  -16.1302   -0.5145 H   0  0  0  0  0  0  0  0  0  0  0  0
    1.6014  -13.6909   -1.8256 H   0  0  0  0  0  0  0  0  0  0  0  0
    3.1359  -13.5775   -2.7524 H   0  0  0  0  0  0  0  0  0  0  0  0
    2.1978  -15.1094   -2.7524 H   0  0  0  0  0  0  0  0  0  0  0  0
   -0.6356  -14.1391    1.3765 H   0  0  0  0  0  0  0  0  0  0  0  0
    0.6322  -14.5351    4.8943 H   0  0  0  0  0  0  0  0  0  0  0  0
    1.8489  -14.4336    3.5767 H   0  0  0  0  0  0  0  0  0  0  0  0
    0.4309  -13.3309    3.5767 H   0  0  0  0  0  0  0  0  0  0  0  0
    1.4120  -16.5370    3.6910 H   0  0  0  0  0  0  0  0  0  0  0  0
  1  2  1  0
  2  3  1  0
  3  4  1  0
  4  5  1  0
  5  6  1  6
  6  7  2  0
  6  8  1  0
  5  9  1  0
  9 10  1  0
 10 11  1  0
 11 12  1  1
 11 13  1  0
 13 14  2  0
 14 15  1  0
 15 16  1  0
 16 17  1  0
 17 18  1  6
 17 19  1  0
 19 20  1  0
 20 21  1  0
 20 22  1  0
 22 23  1  0
 22 24  1  0
 24 25  1  6
 24 26  1  0
 26 27  1  0
 27 28  1  0
 28 29  2  0
 28 30  2  0
 28 31  1  0
 24 32  1  0
 32 33  1  0
 33 34  1  0
 34 35  1  0
 35 36  1  6
 13 37  1  0
 37 38  1  0
 38 39  1  0
 38 40  1  6
 38  2  1  0
 37  5  1  0
 35 11  1  0
 35 16  1  0
 32 17  1  0
  1 41  1  0
  1 42  1  0
  1 43  1  0
  2 44  1  1
  3 45  1  0
  3 46  1  0
  4 47  1  0
  4 48  1  0
  9 49  1  0
  9 50  1  0
 10 51  1  0
 10 52  1  0
 12 53  1  0
 12 54  1  0
 12 55  1  0
 14 56  1  0
 15 57  1  0
 15 58  1  0
 16 59  1  1
 18 60  1  0
 18 61  1  0
 18 62  1  0
 19 63  1  0
 19 64  1  0
 20 65  1  6
 21 66  1  0
 22 67  1  1
 23 68  1  0
 25 69  1  0
 25 70  1  0
 25 71  1  0
 26 72  1  0
 26 73  1  0
 32 74  1  1
 33 75  1  0
 33 76  1  0
 34 77  1  0
 34 78  1  0
 36 79  1  0
 36 80  1  0
 36 81  1  0
 37 82  1  1
 39 83  1  0
 39 84  1  0
 39 85  1  0
 40 86  1  0
M  CHG  2   8  -1  31  -1
M  END
>  <meeko>  (3) 
{"is_sidechain": [false], "free_energy": -8.072, "intermolecular_energy": -10.697, "internal_energy": -1.062}

$$$$
LIB_YDJYRDOKNBKUDY__M_PUB_ALL__e8__s20260927
     RDKit          3D

 86 90  0  0  0  0  0  0  0  0999 V2000
   -4.3600  -13.5550    2.6430 C   0  0  0  0  0  0  0  0  0  0  0  0
   -3.4070  -14.6280    2.0920 C   0  0  2  0  0  0  0  0  0  0  0  0
   -3.3010  -15.7860    3.1060 C   0  0  0  0  0  0  0  0  0  0  0  0
   -1.9740  -15.8180    3.8580 C   0  0  0  0  0  0  0  0  0  0  0  0
   -0.7410  -15.9440    2.9180 C   0  0  2  0  0  0  0  0  0  0  0  0
   -0.6100  -17.5030    2.7800 C   0  0  0  0  0  0  0  0  0  0  0  0
   -0.9910  -18.0050    1.6830 O   0  0  0  0  0  0  0  0  0  0  0  0
   -0.1910  -18.1190    3.8040 O   0  0  0  0  0  0  0  0  0  0  0  0
    0.4760  -15.3350    3.6410 C   0  0  0  0  0  0  0  0  0  0  0  0
    1.7370  -15.3740    2.7800 C   0  0  0  0  0  0  0  0  0  0  0  0
    1.6250  -14.6100    1.4300 C   0  0  2  0  0  0  0  0  0  0  0  0
    1.5510  -13.0910    1.7510 C   0  0  0  0  0  0  0  0  0  0  0  0
    0.3110  -14.9980    0.7230 C   0  0  0  0  0  0  0  0  0  0  0  0
    0.2700  -15.1900   -0.6120 C   0  0  0  0  0  0  0  0  0  0  0  0
    1.3980  -15.0070   -1.5750 C   0  0  0  0  0  0  0  0  0  0  0  0
    2.6620  -14.3690   -0.9660 C   0  0  2  0  0  0  0  0  0  0  0  0
    3.9080  -14.2970   -1.9640 C   0  0  1  0  0  0  0  0  0  0  0  0
    4.3250  -15.6960   -2.4910 C   0  0  0  0  0  0  0  0  0  0  0  0
    3.5030  -13.4430   -3.2050 C   0  0  0  0  0  0  0  0  0  0  0  0
    4.6800  -13.0300   -4.0890 C   0  0  1  0  0  0  0  0  0  0  0  0
    4.1940  -12.1710   -5.1330 O   0  0  0  0  0  0  0  0  0  0  0  0
    5.7530  -12.2850   -3.2860 C   0  0  2  0  0  0  0  0  0  0  0  0
    6.7870  -11.8960   -4.2020 O   0  0  0  0  0  0  0  0  0  0  0  0
    6.3120  -13.1090   -2.0880 C   0  0  1  0  0  0  0  0  0  0  0  0
    7.1730  -14.2990   -2.5680 C   0  0  0  0  0  0  0  0  0  0  0  0
    7.3020  -12.1970   -1.2910 C   0  0  0  0  0  0  0  0  0  0  0  0
    6.6270  -11.1560   -0.6050 O   0  0  0  0  0  0  0  0  0  0  0  0
    7.0460  -10.8900    0.9510 S   0  0  0  0  0  0  0  0  0  0  0  0
    7.4310   -9.4850    0.9720 O   0  0  0  0  0  0  0  0  0  0  0  0
    8.1530  -11.8270    1.1600 O   0  0  0  0  0  0  0  0  0  0  0  0
    5.8360  -11.2120    1.6980 O   0  0  0  0  0  0  0  0  0  0  0  0
    5.0740  -13.5440   -1.2060 C   0  0  2  0  0  0  0  0  0  0  0  0
    5.4240  -14.2830    0.1020 C   0  0  0  0  0  0  0  0  0  0  0  0
    4.2240  -14.2960    1.0550 C   0  0  0  0  0  0  0  0  0  0  0  0
    2.9310  -14.9400    0.4810 C   0  0  1  0  0  0  0  0  0  0  0  0
    3.1660  -16.4800    0.4360 C   0  0  0  0  0  0  0  0  0  0  0  0
   -0.9880  -15.2590    1.5390 C   0  0  2  0  0  0  0  0  0  0  0  0
   -2.0130  -14.0610    1.6540 C   0  0  1  0  0  0  0  0  0  0  0  0
   -2.1660  -13.2920    0.3270 C   0  0  0  0  0  0  0  0  0  0  0  0
   -1.5890  -13.1170    2.6490 O   0  0  0  0  0  0  0  0  0  0  0  0
   -4.3405  -13.5770    3.7426 H   0  0  0  0  0  0  0  0  0  0  0  0
   -4.0392  -12.5637    2.2903 H   0  0  0  0  0  0  0  0  0  0  0  0
   -5.3823  -13.7565    2.2903 H   0  0  0  0  0  0  0  0  0  0  0  0
   -3.8360  -15.0202    1.1581 H   0  0  0  0  0  0  0  0  0  0  0  0
   -4.1142  -15.6819    3.8394 H   0  0  0  0  0  0  0  0  0  0  0  0
   -3.3713  -16.7233    2.5346 H   0  0  0  0  0  0  0  0  0  0  0  0
   -1.8781  -14.8883    4.4380 H   0  0  0  0  0  0  0  0  0  0  0  0
   -1.9853  -16.7082    4.5041 H   0  0  0  0  0  0  0  0  0  0  0  0
    0.2512  -14.2881    3.8929 H   0  0  0  0  0  0  0  0  0  0  0  0
    0.6656  -15.9322    4.5451 H   0  0  0  0  0  0  0  0  0  0  0  0
    2.5606  -14.9296    3.3581 H   0  0  0  0  0  0  0  0  0  0  0  0
    1.9078  -16.4306    2.5262 H   0  0  0  0  0  0  0  0  0  0  0  0
    1.5440  -12.9466    2.8415 H   0  0  0  0  0  0  0  0  0  0  0  0
    2.4254  -12.5820    1.3194 H   0  0  0  0  0  0  0  0  0  0  0  0
    0.6313  -12.6694    1.3194 H   0  0  0  0  0  0  0  0  0  0  0  0
   -0.6923  -15.5145   -1.0348 H   0  0  0  0  0  0  0  0  0  0  0  0
    1.6708  -15.9943   -1.9761 H   0  0  0  0  0  0  0  0  0  0  0  0
    1.0389  -14.3123   -2.3486 H   0  0  0  0  0  0  0  0  0  0  0  0
    2.4711  -13.2963   -0.8147 H   0  0  0  0  0  0  0  0  0  0  0  0
    4.5241  -16.3640   -1.6400 H   0  0  0  0  0  0  0  0  0  0  0  0
    3.5125  -16.1143   -3.1032 H   0  0  0  0  0  0  0  0  0  0  0  0
    5.2339  -15.6012   -3.1032 H   0  0  0  0  0  0  0  0  0  0  0  0
    2.8021  -14.0313   -3.8155 H   0  0  0  0  0  0  0  0  0  0  0  0
    3.0549  -12.5154   -2.8194 H   0  0  0  0  0  0  0  0  0  0  0  0
    5.1362  -13.9389   -4.5082 H   0  0  0  0  0  0  0  0  0  0  0  0
    3.3750  -12.6150   -5.4380 H   0  0  0  0  0  0  0  0  0  0  0  0
    5.3006  -11.3985   -2.8177 H   0  0  0  0  0  0  0  0  0  0  0  0
    7.3870  -12.6870   -4.2650 H   0  0  0  0  0  0  0  0  0  0  0  0
    7.5661  -14.8424   -1.6961 H   0  0  0  0  0  0  0  0  0  0  0  0
    6.5552  -14.9774   -3.1748 H   0  0  0  0  0  0  0  0  0  0  0  0
    8.0105  -13.9244   -3.1748 H   0  0  0  0  0  0  0  0  0  0  0  0
    7.8420  -12.8141   -0.5578 H   0  0  0  0  0  0  0  0  0  0  0  0
    7.9957  -11.7371   -2.0103 H   0  0  0  0  0  0  0  0  0  0  0  0
    4.6777  -12.5554   -0.9310 H   0  0  0  0  0  0  0  0  0  0  0  0
    5.7090  -15.3189   -0.1338 H   0  0  0  0  0  0  0  0  0  0  0  0
    6.2584  -13.7594    0.5914 H   0  0  0  0  0  0  0  0  0  0  0  0
    4.5117  -14.8559    1.9571 H   0  0  0  0  0  0  0  0  0  0  0  0
    3.9789  -13.2419    1.2521 H   0  0  0  0  0  0  0  0  0  0  0  0
    3.2258  -16.8719    1.4621 H   0  0  0  0  0  0  0  0  0  0  0  0
    2.3312  -16.9630   -0.0929 H   0  0  0  0  0  0  0  0  0  0  0  0
    4.1069  -16.6920   -0.0929 H   0  0  0  0  0  0  0  0  0  0  0  0
   -1.5029  -15.9852    0.8929 H   0  0  0  0  0  0  0  0  0  0  0  0
   -2.3766  -12.2334    0.5389 H   0  0  0  0  0  0  0  0  0  0  0  0
   -1.2344  -13.3717   -0.2525 H   0  0  0  0  0  0  0  0  0  0  0  0
   -2.9962  -13.7222   -0.2525 H   0  0  0  0  0  0  0  0  0  0  0  0
   -2.0280  -13.3350    3.4850 H   0  0  0  0  0  0  0  0  0  0  0  0
  1  2  1  0
  2  3  1  0
  3  4  1  0
  4  5  1  0
  5  6  1  6
  6  7  2  0
  6  8  1  0
  5  9  1  0
  9 10  1  0
 10 11  1  0
 11 12  1  1
 11 13  1  0
 13 14  2  0
 14 15  1  0
 15 16  1  0
 16 17  1  0
 17 18  1  6
 17 19  1  0
 19 20  1  0
 20 21  1  0
 20 22  1  0
 22 23  1  0
 22 24  1  0
 24 25  1  6
 24 26  1  0
 26 27  1  0
 27 28  1  0
 28 29  2  0
 28 30  2  0
 28 31  1  0
 24 32  1  0
 32 33  1  0
 33 34  1  0
 34 35  1  0
 35 36  1  6
 13 37  1  0
 37 38  1  0
 38 39  1  0
 38 40  1  1
 38  2  1  0
 37  5  1  0
 35 11  1  0
 35 16  1  0
 32 17  1  0
  1 41  1  0
  1 42  1  0
  1 43  1  0
  2 44  1  6
  3 45  1  0
  3 46  1  0
  4 47  1  0
  4 48  1  0
  9 49  1  0
  9 50  1  0
 10 51  1  0
 10 52  1  0
 12 53  1  0
 12 54  1  0
 12 55  1  0
 14 56  1  0
 15 57  1  0
 15 58  1  0
 16 59  1  1
 18 60  1  0
 18 61  1  0
 18 62  1  0
 19 63  1  0
 19 64  1  0
 20 65  1  6
 21 66  1  0
 22 67  1  1
 23 68  1  0
 25 69  1  0
 25 70  1  0
 25 71  1  0
 26 72  1  0
 26 73  1  0
 32 74  1  1
 33 75  1  0
 33 76  1  0
 34 77  1  0
 34 78  1  0
 36 79  1  0
 36 80  1  0
 36 81  1  0
 37 82  1  6
 39 83  1  0
 39 84  1  0
 39 85  1  0
 40 86  1  0
M  CHG  2   8  -1  31  -1
M  END
>  <meeko>  (4) 
{"is_sidechain": [false], "free_energy": -7.638, "intermolecular_energy": -10.294, "internal_energy": -0.892}

$$$$
LIB_YDJYRDOKNBKUDY__M_PUB_ALL__e8__s20260927
     RDKit          3D

 86 90  0  0  0  0  0  0  0  0999 V2000
   14.5450  -14.3700  -13.0260 C   0  0  0  0  0  0  0  0  0  0  0  0
   14.7040  -15.2670  -11.7880 C   0  0  2  0  0  0  0  0  0  0  0  0
   14.3690  -16.7250  -12.1670 C   0  0  0  0  0  0  0  0  0  0  0  0
   13.0250  -17.2010  -11.6260 C   0  0  0  0  0  0  0  0  0  0  0  0
   12.9260  -17.1170  -10.0750 C   0  0  2  0  0  0  0  0  0  0  0  0
   13.5040  -18.5130   -9.6480 C   0  0  0  0  0  0  0  0  0  0  0  0
   12.8310  -19.5300   -9.9870 O   0  0  0  0  0  0  0  0  0  0  0  0
   14.5610  -18.4890   -8.9490 O   0  0  0  0  0  0  0  0  0  0  0  0
   11.4380  -16.9810   -9.6970 C   0  0  0  0  0  0  0  0  0  0  0  0
   11.2350  -16.8510   -8.1890 C   0  0  0  0  0  0  0  0  0  0  0  0
   11.9460  -15.6290   -7.5420 C   0  0  2  0  0  0  0  0  0  0  0  0
   11.2220  -14.3440   -8.0340 C   0  0  0  0  0  0  0  0  0  0  0  0
   13.4040  -15.5550   -8.0380 C   0  0  0  0  0  0  0  0  0  0  0  0
   14.4090  -15.2260   -7.1990 C   0  0  0  0  0  0  0  0  0  0  0  0
   14.2800  -14.8360   -5.7620 C   0  0  0  0  0  0  0  0  0  0  0  0
   12.8280  -14.6370   -5.2810 C   0  0  2  0  0  0  0  0  0  0  0  0
   12.6880  -14.3500   -3.7150 C   0  0  1  0  0  0  0  0  0  0  0  0
   13.2910  -15.4890   -2.8510 C   0  0  0  0  0  0  0  0  0  0  0  0
   13.4790  -13.0500   -3.3730 C   0  0  0  0  0  0  0  0  0  0  0  0
   13.1810  -12.4850   -1.9840 C   0  0  1  0  0  0  0  0  0  0  0  0
   13.8870  -11.2430   -1.8300 O   0  0  0  0  0  0  0  0  0  0  0  0
   11.6810  -12.2360   -1.7890 C   0  0  2  0  0  0  0  0  0  0  0  0
   11.5050  -11.6630   -0.4840 O   0  0  0  0  0  0  0  0  0  0  0  0
   10.8100  -13.5120   -1.9900 C   0  0  1  0  0  0  0  0  0  0  0  0
   11.0230  -14.5320   -0.8480 C   0  0  0  0  0  0  0  0  0  0  0  0
    9.3070  -13.0970   -1.8790 C   0  0  0  0  0  0  0  0  0  0  0  0
    8.6920  -13.6380   -0.7210 O   0  0  0  0  0  0  0  0  0  0  0  0
    8.1370  -12.5810    0.3940 S   0  0  0  0  0  0  0  0  0  0  0  0
    7.5320  -11.5220   -0.4020 O   0  0  0  0  0  0  0  0  0  0  0  0
    9.3540  -12.1850    1.1090 O   0  0  0  0  0  0  0  0  0  0  0  0
    7.2030  -13.3710    1.1870 O   0  0  0  0  0  0  0  0  0  0  0  0
   11.1560  -14.0890   -3.4210 C   0  0  2  0  0  0  0  0  0  0  0  0
   10.3130  -15.3030   -3.8640 C   0  0  0  0  0  0  0  0  0  0  0  0
   10.4340  -15.5220   -5.3760 C   0  0  0  0  0  0  0  0  0  0  0  0
   11.8820  -15.7380   -5.9000 C   0  0  1  0  0  0  0  0  0  0  0  0
   12.3230  -17.1640   -5.4540 C   0  0  0  0  0  0  0  0  0  0  0  0
   13.7710  -15.9400   -9.5000 C   0  0  2  0  0  0  0  0  0  0  0  0
   13.9090  -14.7550  -10.5380 C   0  0  1  0  0  0  0  0  0  0  0  0
   14.6280  -13.5320   -9.9380 C   0  0  0  0  0  0  0  0  0  0  0  0
   12.6190  -14.3150  -10.9870 O   0  0  0  0  0  0  0  0  0  0  0  0
   14.3613  -13.3335  -12.7067 H   0  0  0  0  0  0  0  0  0  0  0  0
   15.4643  -14.4105  -13.6287 H   0  0  0  0  0  0  0  0  0  0  0  0
   13.6956  -14.7240  -13.6287 H   0  0  0  0  0  0  0  0  0  0  0  0
   15.7549  -15.2232  -11.4661 H   0  0  0  0  0  0  0  0  0  0  0  0
   14.3504  -16.8040  -13.2640 H   0  0  0  0  0  0  0  0  0  0  0  0
   15.1435  -17.3626  -11.7157 H   0  0  0  0  0  0  0  0  0  0  0  0
   12.2313  -16.5763  -12.0617 H   0  0  0  0  0  0  0  0  0  0  0  0
   12.9160  -18.2596  -11.9045 H   0  0  0  0  0  0  0  0  0  0  0  0
   11.0282  -16.0860  -10.1880 H   0  0  0  0  0  0  0  0  0  0  0  0
   10.9205  -17.8928  -10.0298 H   0  0  0  0  0  0  0  0  0  0  0  0
   10.1559  -16.7623   -7.9947 H   0  0  0  0  0  0  0  0  0  0  0  0
   11.6833  -17.7476   -7.7362 H   0  0  0  0  0  0  0  0  0  0  0  0
   10.8902  -13.7551   -7.1662 H   0  0  0  0  0  0  0  0  0  0  0  0
   11.9143  -13.7430   -8.6419 H   0  0  0  0  0  0  0  0  0  0  0  0
   10.3493  -14.6248   -8.6419 H   0  0  0  0  0  0  0  0  0  0  0  0
   15.4269  -15.2471   -7.6155 H   0  0  0  0  0  0  0  0  0  0  0  0
   14.7398  -15.6253   -5.1492 H   0  0  0  0  0  0  0  0  0  0  0  0
   14.7809  -13.8624   -5.6559 H   0  0  0  0  0  0  0  0  0  0  0  0
   12.4541  -13.6853   -5.6865 H   0  0  0  0  0  0  0  0  0  0  0  0
   13.1633  -15.2478   -1.7854 H   0  0  0  0  0  0  0  0  0  0  0  0
   12.7748  -16.4336   -3.0775 H   0  0  0  0  0  0  0  0  0  0  0  0
   14.3624  -15.5931   -3.0775 H   0  0  0  0  0  0  0  0  0  0  0  0
   14.5543  -13.2745   -3.4312 H   0  0  0  0  0  0  0  0  0  0  0  0
   13.1643  -12.2868   -4.1000 H   0  0  0  0  0  0  0  0  0  0  0  0
   13.5071  -13.2183   -1.2318 H   0  0  0  0  0  0  0  0  0  0  0  0
   14.5720  -11.4460   -1.1600 H   0  0  0  0  0  0  0  0  0  0  0  0
   11.3275  -11.5423   -2.5661 H   0  0  0  0  0  0  0  0  0  0  0  0
   11.6640  -10.6880   -0.6070 H   0  0  0  0  0  0  0  0  0  0  0  0
   10.9169  -14.0240    0.1219 H   0  0  0  0  0  0  0  0  0  0  0  0
   10.2726  -15.3325   -0.9267 H   0  0  0  0  0  0  0  0  0  0  0  0
   12.0310  -14.9653   -0.9267 H   0  0  0  0  0  0  0  0  0  0  0  0
    9.2435  -11.9997   -1.8354 H   0  0  0  0  0  0  0  0  0  0  0  0
    8.7792  -13.4906   -2.7602 H   0  0  0  0  0  0  0  0  0  0  0  0
   10.8602  -13.2357   -4.0490 H   0  0  0  0  0  0  0  0  0  0  0  0
   10.6697  -16.2015   -3.3391 H   0  0  0  0  0  0  0  0  0  0  0  0
    9.2584  -15.1110   -3.6171 H   0  0  0  0  0  0  0  0  0  0  0  0
    9.8407  -16.4099   -5.6398 H   0  0  0  0  0  0  0  0  0  0  0  0
   10.0734  -14.5963   -5.8483 H   0  0  0  0  0  0  0  0  0  0  0  0
   12.3391  -17.2160   -4.3553 H   0  0  0  0  0  0  0  0  0  0  0  0
   11.6126  -17.9068   -5.8459 H   0  0  0  0  0  0  0  0  0  0  0  0
   13.3287  -17.3761   -5.8459 H   0  0  0  0  0  0  0  0  0  0  0  0
   14.8022  -16.3010   -9.3723 H   0  0  0  0  0  0  0  0  0  0  0  0
   14.5944  -13.5891   -8.8400 H   0  0  0  0  0  0  0  0  0  0  0  0
   15.6758  -13.5219  -10.2728 H   0  0  0  0  0  0  0  0  0  0  0  0
   14.1273  -12.6116  -10.2728 H   0  0  0  0  0  0  0  0  0  0  0  0
   12.1720  -13.8730  -10.2500 H   0  0  0  0  0  0  0  0  0  0  0  0
  1  2  1  0
  2  3  1  0
  3  4  1  0
  4  5  1  0
  5  6  1  1
  6  7  2  0
  6  8  1  0
  5  9  1  0
  9 10  1  0
 10 11  1  0
 11 12  1  6
 11 13  1  0
 13 14  2  0
 14 15  1  0
 15 16  1  0
 16 17  1  0
 17 18  1  1
 17 19  1  0
 19 20  1  0
 20 21  1  0
 20 22  1  0
 22 23  1  0
 22 24  1  0
 24 25  1  1
 24 26  1  0
 26 27  1  0
 27 28  1  0
 28 29  2  0
 28 30  2  0
 28 31  1  0
 24 32  1  0
 32 33  1  0
 33 34  1  0
 34 35  1  0
 35 36  1  6
 13 37  1  0
 37 38  1  0
 38 39  1  0
 38 40  1  6
 38  2  1  0
 37  5  1  0
 35 11  1  0
 35 16  1  0
 32 17  1  0
  1 41  1  0
  1 42  1  0
  1 43  1  0
  2 44  1  1
  3 45  1  0
  3 46  1  0
  4 47  1  0
  4 48  1  0
  9 49  1  0
  9 50  1  0
 10 51  1  0
 10 52  1  0
 12 53  1  0
 12 54  1  0
 12 55  1  0
 14 56  1  0
 15 57  1  0
 15 58  1  0
 16 59  1  6
 18 60  1  0
 18 61  1  0
 18 62  1  0
 19 63  1  0
 19 64  1  0
 20 65  1  1
 21 66  1  0
 22 67  1  6
 23 68  1  0
 25 69  1  0
 25 70  1  0
 25 71  1  0
 26 72  1  0
 26 73  1  0
 32 74  1  6
 33 75  1  0
 33 76  1  0
 34 77  1  0
 34 78  1  0
 36 79  1  0
 36 80  1  0
 36 81  1  0
 37 82  1  1
 39 83  1  0
 39 84  1  0
 39 85  1  0
 40 86  1  0
M  CHG  2   8  -1  31  -1
M  END
>  <meeko>  (5) 
{"is_sidechain": [false], "free_energy": -7.633, "intermolecular_energy": -10.292, "internal_energy": -0.887}

$$$$
LIB_YDJYRDOKNBKUDY__M_PUB_ALL__e8__s20260927
     RDKit          3D

 86 90  0  0  0  0  0  0  0  0999 V2000
   -2.4850  -18.3370    2.8110 C   0  0  0  0  0  0  0  0  0  0  0  0
   -1.8100  -16.9840    3.0880 C   0  0  2  0  0  0  0  0  0  0  0  0
   -2.8950  -15.9050    3.2900 C   0  0  0  0  0  0  0  0  0  0  0  0
   -3.0250  -14.9450    2.1110 C   0  0  0  0  0  0  0  0  0  0  0  0
   -1.7050  -14.1860    1.7910 C   0  0  2  0  0  0  0  0  0  0  0  0
   -1.8300  -12.9310    2.7250 C   0  0  0  0  0  0  0  0  0  0  0  0
   -0.9420  -12.8030    3.6180 O   0  0  0  0  0  0  0  0  0  0  0  0
   -2.8440  -12.1940    2.5380 O   0  0  0  0  0  0  0  0  0  0  0  0
   -1.7320  -13.7880    0.3020 C   0  0  0  0  0  0  0  0  0  0  0  0
   -0.4550  -13.0690   -0.1260 C   0  0  0  0  0  0  0  0  0  0  0  0
    0.8500  -13.8930    0.0660 C   0  0  2  0  0  0  0  0  0  0  0  0
    0.8280  -15.0590   -0.9620 C   0  0  0  0  0  0  0  0  0  0  0  0
    0.8650  -14.5200    1.4740 C   0  0  0  0  0  0  0  0  0  0  0  0
    2.0000  -14.5670    2.2020 C   0  0  0  0  0  0  0  0  0  0  0  0
    3.3580  -14.1150    1.7700 C   0  0  0  0  0  0  0  0  0  0  0  0
    3.4570  -13.7230    0.2820 C   0  0  2  0  0  0  0  0  0  0  0  0
    4.8730  -13.1150   -0.1440 C   0  0  1  0  0  0  0  0  0  0  0  0
    5.2420  -11.8500    0.6740 C   0  0  0  0  0  0  0  0  0  0  0  0
    5.9770  -14.1800    0.1360 C   0  0  0  0  0  0  0  0  0  0  0  0
    7.3280  -13.8620   -0.5050 C   0  0  1  0  0  0  0  0  0  0  0  0
    8.2240  -14.9580   -0.2610 O   0  0  0  0  0  0  0  0  0  0  0  0
    7.1970  -13.6500   -2.0180 C   0  0  2  0  0  0  0  0  0  0  0  0
    8.5140  -13.4080   -2.5360 O   0  0  0  0  0  0  0  0  0  0  0  0
    6.2000  -12.5150   -2.3990 C   0  0  1  0  0  0  0  0  0  0  0  0
    6.7520  -11.1220   -2.0210 C   0  0  0  0  0  0  0  0  0  0  0  0
    6.0730  -12.4840   -3.9570 C   0  0  0  0  0  0  0  0  0  0  0  0
    6.5350  -13.6850   -4.5510 O   0  0  0  0  0  0  0  0  0  0  0  0
    5.4260  -14.6330   -5.2860 S   0  0  0  0  0  0  0  0  0  0  0  0
    4.3950  -13.6950   -5.7100 O   0  0  0  0  0  0  0  0  0  0  0  0
    5.0150  -15.5490   -4.2190 O   0  0  0  0  0  0  0  0  0  0  0  0
    6.1710  -15.2650   -6.3680 O   0  0  0  0  0  0  0  0  0  0  0  0
    4.8220  -12.8560   -1.7040 C   0  0  2  0  0  0  0  0  0  0  0  0
    3.6570  -11.9040   -2.0480 C   0  0  0  0  0  0  0  0  0  0  0  0
    2.3130  -12.5350   -1.6690 C   0  0  0  0  0  0  0  0  0  0  0  0
    2.1680  -12.9350   -0.1730 C   0  0  1  0  0  0  0  0  0  0  0  0
    2.0070  -11.6150    0.6410 C   0  0  0  0  0  0  0  0  0  0  0  0
   -0.4460  -15.0390    2.1320 C   0  0  2  0  0  0  0  0  0  0  0  0
   -0.7380  -16.5890    2.0150 C   0  0  1  0  0  0  0  0  0  0  0  0
    0.5300  -17.4400    2.2200 C   0  0  0  0  0  0  0  0  0  0  0  0
   -1.2680  -16.9150    0.7220 O   0  0  0  0  0  0  0  0  0  0  0  0
   -2.7294  -18.8270    3.7650 H   0  0  0  0  0  0  0  0  0  0  0  0
   -3.4080  -18.1752    2.2349 H   0  0  0  0  0  0  0  0  0  0  0  0
   -1.8006  -18.9771    2.2349 H   0  0  0  0  0  0  0  0  0  0  0  0
   -1.2295  -17.0739    4.0180 H   0  0  0  0  0  0  0  0  0  0  0  0
   -3.8623  -16.4073    3.4384 H   0  0  0  0  0  0  0  0  0  0  0  0
   -2.5976  -15.3064    4.1637 H   0  0  0  0  0  0  0  0  0  0  0  0
   -3.3215  -15.5210    1.2220 H   0  0  0  0  0  0  0  0  0  0  0  0
   -3.7779  -14.1911    2.3845 H   0  0  0  0  0  0  0  0  0  0  0  0
   -1.8471  -14.6976   -0.3058 H   0  0  0  0  0  0  0  0  0  0  0  0
   -2.5748  -13.0972    0.1523 H   0  0  0  0  0  0  0  0  0  0  0  0
   -0.5459  -12.8146   -1.1923 H   0  0  0  0  0  0  0  0  0  0  0  0
   -0.3632  -12.1857    0.5232 H   0  0  0  0  0  0  0  0  0  0  0  0
    0.8099  -16.0197   -0.4265 H   0  0  0  0  0  0  0  0  0  0  0  0
   -0.0687  -14.9742   -1.5935 H   0  0  0  0  0  0  0  0  0  0  0  0
    1.7273  -15.0081   -1.5935 H   0  0  0  0  0  0  0  0  0  0  0  0
    1.9177  -14.9805    3.2180 H   0  0  0  0  0  0  0  0  0  0  0  0
    3.6378  -13.2402    2.3753 H   0  0  0  0  0  0  0  0  0  0  0  0
    4.0337  -14.9710    1.9141 H   0  0  0  0  0  0  0  0  0  0  0  0
    3.4504  -14.6428   -0.3212 H   0  0  0  0  0  0  0  0  0  0  0  0
    5.1761  -12.0760    1.7485 H   0  0  0  0  0  0  0  0  0  0  0  0
    6.2680  -11.5399    0.4268 H   0  0  0  0  0  0  0  0  0  0  0  0
    4.5436  -11.0369    0.4268 H   0  0  0  0  0  0  0  0  0  0  0  0
    6.1194  -14.2520    1.2244 H   0  0  0  0  0  0  0  0  0  0  0  0
    5.6284  -15.1231   -0.3102 H   0  0  0  0  0  0  0  0  0  0  0  0
    7.7136  -12.9323   -0.0611 H   0  0  0  0  0  0  0  0  0  0  0  0
    9.1040  -14.5310   -0.1970 H   0  0  0  0  0  0  0  0  0  0  0  0
    6.7649  -14.5538   -2.4723 H   0  0  0  0  0  0  0  0  0  0  0  0
    8.6890  -14.1640   -3.1590 H   0  0  0  0  0  0  0  0  0  0  0  0
    6.7895  -11.0273   -0.9257 H   0  0  0  0  0  0  0  0  0  0  0  0
    7.7647  -11.0044   -2.4341 H   0  0  0  0  0  0  0  0  0  0  0  0
    6.0947  -10.3427   -2.4341 H   0  0  0  0  0  0  0  0  0  0  0  0
    5.0159  -12.3392   -4.2244 H   0  0  0  0  0  0  0  0  0  0  0  0
    6.6949  -11.6580   -4.3324 H   0  0  0  0  0  0  0  0  0  0  0  0
    4.6054  -13.8270   -2.1734 H   0  0  0  0  0  0  0  0  0  0  0  0
    3.7836  -10.9629   -1.4928 H   0  0  0  0  0  0  0  0  0  0  0  0
    3.6649  -11.7118   -3.1310 H   0  0  0  0  0  0  0  0  0  0  0  0
    1.5186  -11.8122   -1.9066 H   0  0  0  0  0  0  0  0  0  0  0  0
    2.2420  -13.4704   -2.2435 H   0  0  0  0  0  0  0  0  0  0  0  0
    2.0347  -11.8420    1.7170 H   0  0  0  0  0  0  0  0  0  0  0  0
    2.8279  -10.9271    0.3902 H   0  0  0  0  0  0  0  0  0  0  0  0
    1.0448  -11.1446    0.3902 H   0  0  0  0  0  0  0  0  0  0  0  0
   -0.2226  -14.8912    3.1989 H   0  0  0  0  0  0  0  0  0  0  0  0
    0.7172  -17.5656    3.2967 H   0  0  0  0  0  0  0  0  0  0  0  0
    0.3885  -18.4267    1.7548 H   0  0  0  0  0  0  0  0  0  0  0  0
    1.3895  -16.9352    1.7548 H   0  0  0  0  0  0  0  0  0  0  0  0
   -0.9730  -17.8080    0.4860 H   0  0  0  0  0  0  0  0  0  0  0  0
  1  2  1  0
  2  3  1  0
  3  4  1  0
  4  5  1  0
  5  6  1  1
  6  7  2  0
  6  8  1  0
  5  9  1  0
  9 10  1  0
 10 11  1  0
 11 12  1  6
 11 13  1  0
 13 14  2  0
 14 15  1  0
 15 16  1  0
 16 17  1  0
 17 18  1  1
 17 19  1  0
 19 20  1  0
 20 21  1  0
 20 22  1  0
 22 23  1  0
 22 24  1  0
 24 25  1  1
 24 26  1  0
 26 27  1  0
 27 28  1  0
 28 29  2  0
 28 30  2  0
 28 31  1  0
 24 32  1  0
 32 33  1  0
 33 34  1  0
 34 35  1  0
 35 36  1  1
 13 37  1  0
 37 38  1  0
 38 39  1  0
 38 40  1  6
 38  2  1  0
 37  5  1  0
 35 11  1  0
 35 16  1  0
 32 17  1  0
  1 41  1  0
  1 42  1  0
  1 43  1  0
  2 44  1  1
  3 45  1  0
  3 46  1  0
  4 47  1  0
  4 48  1  0
  9 49  1  0
  9 50  1  0
 10 51  1  0
 10 52  1  0
 12 53  1  0
 12 54  1  0
 12 55  1  0
 14 56  1  0
 15 57  1  0
 15 58  1  0
 16 59  1  6
 18 60  1  0
 18 61  1  0
 18 62  1  0
 19 63  1  0
 19 64  1  0
 20 65  1  1
 21 66  1  0
 22 67  1  6
 23 68  1  0
 25 69  1  0
 25 70  1  0
 25 71  1  0
 26 72  1  0
 26 73  1  0
 32 74  1  6
 33 75  1  0
 33 76  1  0
 34 77  1  0
 34 78  1  0
 36 79  1  0
 36 80  1  0
 36 81  1  0
 37 82  1  1
 39 83  1  0
 39 84  1  0
 39 85  1  0
 40 86  1  0
M  CHG  2   8  -1  31  -1
M  END
>  <meeko>  (6) 
{"is_sidechain": [false], "free_energy": -7.593, "intermolecular_energy": -10.102, "internal_energy": -1.024}

$$$$
LIB_YDJYRDOKNBKUDY__M_PUB_ALL__e8__s20260927
     RDKit          3D

 86 90  0  0  0  0  0  0  0  0999 V2000
    4.8870  -12.3880   -6.8310 C   0  0  0  0  0  0  0  0  0  0  0  0
    4.9410  -12.0880   -5.3250 C   0  0  2  0  0  0  0  0  0  0  0  0
    6.3190  -12.5080   -4.7710 C   0  0  0  0  0  0  0  0  0  0  0  0
    6.2740  -13.7800   -3.9290 C   0  0  0  0  0  0  0  0  0  0  0  0
    5.3230  -13.6680   -2.7020 C   0  0  2  0  0  0  0  0  0  0  0  0
    6.2850  -13.0750   -1.6120 C   0  0  0  0  0  0  0  0  0  0  0  0
    6.0760  -11.8740   -1.2710 O   0  0  0  0  0  0  0  0  0  0  0  0
    7.2200  -13.8350   -1.2200 O   0  0  0  0  0  0  0  0  0  0  0  0
    4.8530  -15.0890   -2.3300 C   0  0  0  0  0  0  0  0  0  0  0  0
    3.8780  -15.0840   -1.1550 C   0  0  0  0  0  0  0  0  0  0  0  0
    2.5800  -14.2610   -1.3930 C   0  0  2  0  0  0  0  0  0  0  0  0
    1.7320  -15.0110   -2.4580 C   0  0  0  0  0  0  0  0  0  0  0  0
    2.9410  -12.8810   -1.9780 C   0  0  0  0  0  0  0  0  0  0  0  0
    2.2970  -11.7660   -1.5770 C   0  0  0  0  0  0  0  0  0  0  0  0
    1.1550  -11.6910   -0.6150 C   0  0  0  0  0  0  0  0  0  0  0  0
    0.5800  -13.0590   -0.1980 C   0  0  2  0  0  0  0  0  0  0  0  0
   -0.5510  -12.9810    0.9300 C   0  0  1  0  0  0  0  0  0  0  0  0
   -0.0430  -12.2980    2.2270 C   0  0  0  0  0  0  0  0  0  0  0  0
   -1.7330  -12.1180    0.3910 C   0  0  0  0  0  0  0  0  0  0  0  0
   -3.0080  -12.2130    1.2300 C   0  0  1  0  0  0  0  0  0  0  0  0
   -4.0450  -11.4610    0.5800 O   0  0  0  0  0  0  0  0  0  0  0  0
   -3.4690  -13.6670    1.3900 C   0  0  2  0  0  0  0  0  0  0  0  0
   -4.6900  -13.6510    2.1440 O   0  0  0  0  0  0  0  0  0  0  0  0
   -2.3930  -14.5890    2.0370 C   0  0  1  0  0  0  0  0  0  0  0  0
   -2.1780  -14.2520    3.5300 C   0  0  0  0  0  0  0  0  0  0  0  0
   -2.9430  -16.0530    2.0340 C   0  0  0  0  0  0  0  0  0  0  0  0
   -3.0390  -16.5850    3.3440 O   0  0  0  0  0  0  0  0  0  0  0  0
   -2.2360  -17.9750    3.6490 S   0  0  0  0  0  0  0  0  0  0  0  0
   -3.0740  -18.6520    4.6300 O   0  0  0  0  0  0  0  0  0  0  0  0
   -0.9490  -17.5070    4.1680 O   0  0  0  0  0  0  0  0  0  0  0  0
   -2.1600  -18.6250    2.3460 O   0  0  0  0  0  0  0  0  0  0  0  0
   -1.0810  -14.4520    1.1660 C   0  0  2  0  0  0  0  0  0  0  0  0
    0.0830  -15.3790    1.5770 C   0  0  0  0  0  0  0  0  0  0  0  0
    1.1260  -15.4670    0.4580 C   0  0  0  0  0  0  0  0  0  0  0  0
    1.7390  -14.1080    0.0160 C   0  0  1  0  0  0  0  0  0  0  0  0
    2.7020  -13.6490    1.1510 C   0  0  0  0  0  0  0  0  0  0  0  0
    4.1160  -12.7240   -2.9860 C   0  0  2  0  0  0  0  0  0  0  0  0
    3.7410  -12.6950   -4.5210 C   0  0  1  0  0  0  0  0  0  0  0  0
    2.4690  -11.8700   -4.7980 C   0  0  0  0  0  0  0  0  0  0  0  0
    3.5060  -14.0220   -5.0170 O   0  0  0  0  0  0  0  0  0  0  0  0
    4.6940  -13.4600   -6.9846 H   0  0  0  0  0  0  0  0  0  0  0  0
    4.0802  -11.8003   -7.2933 H   0  0  0  0  0  0  0  0  0  0  0  0
    5.8481  -12.1185   -7.2933 H   0  0  0  0  0  0  0  0  0  0  0  0
    4.8245  -11.0028   -5.1878 H   0  0  0  0  0  0  0  0  0  0  0  0
    6.9990  -12.6757   -5.6192 H   0  0  0  0  0  0  0  0  0  0  0  0
    6.6647  -11.6966   -4.1136 H   0  0  0  0  0  0  0  0  0  0  0  0
    5.9286  -14.6085   -4.5649 H   0  0  0  0  0  0  0  0  0  0  0  0
    7.2891  -13.9526   -3.5419 H   0  0  0  0  0  0  0  0  0  0  0  0
    4.3546  -15.5371   -3.2022 H   0  0  0  0  0  0  0  0  0  0  0  0
    5.7379  -15.6707   -2.0325 H   0  0  0  0  0  0  0  0  0  0  0  0
    3.5904  -16.1245   -0.9436 H   0  0  0  0  0  0  0  0  0  0  0  0
    4.4029  -14.6021   -0.3170 H   0  0  0  0  0  0  0  0  0  0  0  0
    0.9997  -15.6587   -1.9539 H   0  0  0  0  0  0  0  0  0  0  0  0
    1.2031  -14.2798   -3.0869 H   0  0  0  0  0  0  0  0  0  0  0  0
    2.3931  -15.6253   -3.0869 H   0  0  0  0  0  0  0  0  0  0  0  0
    2.6481  -10.8138   -2.0014 H   0  0  0  0  0  0  0  0  0  0  0  0
    1.5026  -11.1736    0.2914 H   0  0  0  0  0  0  0  0  0  0  0  0
    0.3450  -11.1555   -1.1319 H   0  0  0  0  0  0  0  0  0  0  0  0
   -0.0089  -13.4582   -1.0370 H   0  0  0  0  0  0  0  0  0  0  0  0
   -0.4404  -12.8323    3.1026 H   0  0  0  0  0  0  0  0  0  0  0  0
    1.0565  -12.3247    2.2490 H   0  0  0  0  0  0  0  0  0  0  0  0
   -0.3849  -11.2527    2.2490 H   0  0  0  0  0  0  0  0  0  0  0  0
   -1.4112  -11.0663    0.3693 H   0  0  0  0  0  0  0  0  0  0  0  0
   -1.9805  -12.5070   -0.6077 H   0  0  0  0  0  0  0  0  0  0  0  0
   -2.7973  -11.8085    2.2310 H   0  0  0  0  0  0  0  0  0  0  0  0
   -4.7550  -12.1200    0.4330 H   0  0  0  0  0  0  0  0  0  0  0  0
   -3.6363  -14.1041    0.3945 H   0  0  0  0  0  0  0  0  0  0  0  0
   -4.6310  -14.4410    2.7470 H   0  0  0  0  0  0  0  0  0  0  0  0
   -2.6658  -15.0166    4.1524 H   0  0  0  0  0  0  0  0  0  0  0  0
   -1.1004  -14.2328    3.7501 H   0  0  0  0  0  0  0  0  0  0  0  0
   -2.6148  -13.2667    3.7501 H   0  0  0  0  0  0  0  0  0  0  0  0
   -3.9426  -16.0562    1.5749 H   0  0  0  0  0  0  0  0  0  0  0  0
   -2.2417  -16.6790    1.4628 H   0  0  0  0  0  0  0  0  0  0  0  0
   -1.4578  -14.8054    0.1949 H   0  0  0  0  0  0  0  0  0  0  0  0
    0.5596  -14.9796    2.4844 H   0  0  0  0  0  0  0  0  0  0  0  0
   -0.3170  -16.3858    1.7677 H   0  0  0  0  0  0  0  0  0  0  0  0
    1.9455  -16.1127    0.8066 H   0  0  0  0  0  0  0  0  0  0  0  0
    0.5976  -15.8639   -0.4213 H   0  0  0  0  0  0  0  0  0  0  0  0
    2.2465  -13.8661    2.1284 H   0  0  0  0  0  0  0  0  0  0  0  0
    3.6562  -14.1891    1.0630 H   0  0  0  0  0  0  0  0  0  0  0  0
    2.8833  -12.5676    1.0630 H   0  0  0  0  0  0  0  0  0  0  0  0
    4.4418  -11.6948   -2.7748 H   0  0  0  0  0  0  0  0  0  0  0  0
    2.0100  -11.5723   -3.8437 H   0  0  0  0  0  0  0  0  0  0  0  0
    2.7333  -10.9709   -5.3740 H   0  0  0  0  0  0  0  0  0  0  0  0
    1.7558  -12.4780   -5.3740 H   0  0  0  0  0  0  0  0  0  0  0  0
    4.0850  -14.1710   -5.7790 H   0  0  0  0  0  0  0  0  0  0  0  0
  1  2  1  0
  2  3  1  0
  3  4  1  0
  4  5  1  0
  5  6  1  1
  6  7  2  0
  6  8  1  0
  5  9  1  0
  9 10  1  0
 10 11  1  0
 11 12  1  6
 11 13  1  0
 13 14  2  0
 14 15  1  0
 15 16  1  0
 16 17  1  0
 17 18  1  1
 17 19  1  0
 19 20  1  0
 20 21  1  0
 20 22  1  0
 22 23  1  0
 22 24  1  0
 24 25  1  1
 24 26  1  0
 26 27  1  0
 27 28  1  0
 28 29  2  0
 28 30  2  0
 28 31  1  0
 24 32  1  0
 32 33  1  0
 33 34  1  0
 34 35  1  0
 35 36  1  1
 13 37  1  0
 37 38  1  0
 38 39  1  0
 38 40  1  6
 38  2  1  0
 37  5  1  0
 35 11  1  0
 35 16  1  0
 32 17  1  0
  1 41  1  0
  1 42  1  0
  1 43  1  0
  2 44  1  6
  3 45  1  0
  3 46  1  0
  4 47  1  0
  4 48  1  0
  9 49  1  0
  9 50  1  0
 10 51  1  0
 10 52  1  0
 12 53  1  0
 12 54  1  0
 12 55  1  0
 14 56  1  0
 15 57  1  0
 15 58  1  0
 16 59  1  6
 18 60  1  0
 18 61  1  0
 18 62  1  0
 19 63  1  0
 19 64  1  0
 20 65  1  1
 21 66  1  0
 22 67  1  6
 23 68  1  0
 25 69  1  0
 25 70  1  0
 25 71  1  0
 26 72  1  0
 26 73  1  0
 32 74  1  6
 33 75  1  0
 33 76  1  0
 34 77  1  0
 34 78  1  0
 36 79  1  0
 36 80  1  0
 36 81  1  0
 37 82  1  1
 39 83  1  0
 39 84  1  0
 39 85  1  0
 40 86  1  0
M  CHG  2   8  -1  31  -1
M  END
>  <meeko>  (7) 
{"is_sidechain": [false], "free_energy": -7.582, "intermolecular_energy": -10.312, "internal_energy": -0.8}

$$$$
LIB_YDJYRDOKNBKUDY__M_PUB_ALL__e8__s20260927
     RDKit          3D

 86 90  0  0  0  0  0  0  0  0999 V2000
   13.2310  -15.8310   -6.4730 C   0  0  0  0  0  0  0  0  0  0  0  0
   12.5430  -14.6890   -5.7080 C   0  0  2  0  0  0  0  0  0  0  0  0
   13.5550  -14.0440   -4.7370 C   0  0  0  0  0  0  0  0  0  0  0  0
   13.3060  -14.3990   -3.2740 C   0  0  0  0  0  0  0  0  0  0  0  0
   11.8920  -13.9840   -2.7750 C   0  0  2  0  0  0  0  0  0  0  0  0
   12.1500  -12.5120   -2.2920 C   0  0  0  0  0  0  0  0  0  0  0  0
   11.8220  -11.5900   -3.0940 O   0  0  0  0  0  0  0  0  0  0  0  0
   12.7200  -12.3870   -1.1670 O   0  0  0  0  0  0  0  0  0  0  0  0
   11.5090  -14.9060   -1.6010 C   0  0  0  0  0  0  0  0  0  0  0  0
   10.1130  -14.6040   -1.0620 C   0  0  0  0  0  0  0  0  0  0  0  0
    8.9680  -14.7530   -2.1050 C   0  0  2  0  0  0  0  0  0  0  0  0
    8.8210  -16.2650   -2.4330 C   0  0  0  0  0  0  0  0  0  0  0  0
    9.3610  -14.0340   -3.4110 C   0  0  0  0  0  0  0  0  0  0  0  0
    8.4540  -13.3190   -4.1100 C   0  0  0  0  0  0  0  0  0  0  0  0
    7.0000  -13.1710   -3.7970 C   0  0  0  0  0  0  0  0  0  0  0  0
    6.4960  -14.0770   -2.6560 C   0  0  2  0  0  0  0  0  0  0  0  0
    4.9750  -13.8200   -2.2360 C   0  0  1  0  0  0  0  0  0  0  0  0
    4.7270  -12.3560   -1.7850 C   0  0  0  0  0  0  0  0  0  0  0  0
    4.0660  -14.0770   -3.4770 C   0  0  0  0  0  0  0  0  0  0  0  0
    2.5760  -14.1730   -3.1490 C   0  0  1  0  0  0  0  0  0  0  0  0
    1.8600  -14.5100   -4.3480 O   0  0  0  0  0  0  0  0  0  0  0  0
    2.3020  -15.2430   -2.0850 C   0  0  2  0  0  0  0  0  0  0  0  0
    0.8820  -15.2960   -1.8810 O   0  0  0  0  0  0  0  0  0  0  0  0
    3.0770  -15.0060   -0.7550 C   0  0  1  0  0  0  0  0  0  0  0  0
    2.5310  -13.7790    0.0100 C   0  0  0  0  0  0  0  0  0  0  0  0
    2.8020  -16.2210    0.1910 C   0  0  0  0  0  0  0  0  0  0  0  0
    1.6020  -16.0560    0.9280 O   0  0  0  0  0  0  0  0  0  0  0  0
    0.5040  -17.2630    0.8500 S   0  0  0  0  0  0  0  0  0  0  0  0
    0.7300  -17.8530   -0.4630 O   0  0  0  0  0  0  0  0  0  0  0  0
   -0.7730  -16.5570    0.9870 O   0  0  0  0  0  0  0  0  0  0  0  0
    0.8440  -18.1170    1.9810 O   0  0  0  0  0  0  0  0  0  0  0  0
    4.6090  -14.8850   -1.1260 C   0  0  2  0  0  0  0  0  0  0  0  0
    5.5700  -14.7560    0.0750 C   0  0  0  0  0  0  0  0  0  0  0  0
    7.0120  -15.0520   -0.3520 C   0  0  0  0  0  0  0  0  0  0  0  0
    7.5610  -14.1520   -1.4940 C   0  0  1  0  0  0  0  0  0  0  0  0
    7.8190  -12.7420   -0.8830 C   0  0  0  0  0  0  0  0  0  0  0  0
   10.8320  -14.0410   -3.9160 C   0  0  2  0  0  0  0  0  0  0  0  0
   11.2060  -15.1180   -5.0120 C   0  0  1  0  0  0  0  0  0  0  0  0
   10.1030  -15.2790   -6.0750 C   0  0  0  0  0  0  0  0  0  0  0  0
   11.4150  -16.4060   -4.4140 O   0  0  0  0  0  0  0  0  0  0  0  0
   13.6615  -16.5455   -5.7560 H   0  0  0  0  0  0  0  0  0  0  0  0
   12.4926  -16.3458   -7.1053 H   0  0  0  0  0  0  0  0  0  0  0  0
   14.0313  -15.4189   -7.1053 H   0  0  0  0  0  0  0  0  0  0  0  0
   12.2259  -13.9295   -6.4378 H   0  0  0  0  0  0  0  0  0  0  0  0
   14.5649  -14.3834   -5.0106 H   0  0  0  0  0  0  0  0  0  0  0  0
   13.4420  -12.9537   -4.8291 H   0  0  0  0  0  0  0  0  0  0  0  0
   13.4133  -15.4873   -3.1551 H   0  0  0  0  0  0  0  0  0  0  0  0
   14.0409  -13.8434   -2.6730 H   0  0  0  0  0  0  0  0  0  0  0  0
   11.5370  -15.9499   -1.9467 H   0  0  0  0  0  0  0  0  0  0  0  0
   12.2294  -14.7340   -0.7877 H   0  0  0  0  0  0  0  0  0  0  0  0
    9.9103  -15.2939   -0.2295 H   0  0  0  0  0  0  0  0  0  0  0  0
   10.1195  -13.5474   -0.7561 H   0  0  0  0  0  0  0  0  0  0  0  0
    8.7651  -16.8396   -1.4967 H   0  0  0  0  0  0  0  0  0  0  0  0
    7.9030  -16.4259   -3.0173 H   0  0  0  0  0  0  0  0  0  0  0  0
    9.6908  -16.5997   -3.0173 H   0  0  0  0  0  0  0  0  0  0  0  0
    8.8230  -12.7910   -5.0017 H   0  0  0  0  0  0  0  0  0  0  0  0
    6.8147  -12.1248   -3.5123 H   0  0  0  0  0  0  0  0  0  0  0  0
    6.4529  -13.4740   -4.7019 H   0  0  0  0  0  0  0  0  0  0  0  0
    6.4219  -15.1065   -3.0364 H   0  0  0  0  0  0  0  0  0  0  0  0
    4.7187  -12.3073   -0.6861 H   0  0  0  0  0  0  0  0  0  0  0  0
    5.5288  -11.7115   -2.1746 H   0  0  0  0  0  0  0  0  0  0  0  0
    3.7577  -12.0115   -2.1746 H   0  0  0  0  0  0  0  0  0  0  0  0
    4.2107  -13.2507   -4.1885 H   0  0  0  0  0  0  0  0  0  0  0  0
    4.3632  -15.0513   -3.8921 H   0  0  0  0  0  0  0  0  0  0  0  0
    2.2437  -13.2023   -2.7522 H   0  0  0  0  0  0  0  0  0  0  0  0
    1.0840  -15.0120   -4.0240 H   0  0  0  0  0  0  0  0  0  0  0  0
    2.6753  -16.2128   -2.4456 H   0  0  0  0  0  0  0  0  0  0  0  0
    0.4880  -14.8930   -2.7010 H   0  0  0  0  0  0  0  0  0  0  0  0
    2.6102  -13.9569    1.0926 H   0  0  0  0  0  0  0  0  0  0  0  0
    3.1177  -12.8883   -0.2591 H   0  0  0  0  0  0  0  0  0  0  0  0
    1.4766  -13.6186   -0.2591 H   0  0  0  0  0  0  0  0  0  0  0  0
    2.7233  -17.1344   -0.4169 H   0  0  0  0  0  0  0  0  0  0  0  0
    3.6346  -16.2914    0.9064 H   0  0  0  0  0  0  0  0  0  0  0  0
    4.7761  -15.8740   -1.5776 H   0  0  0  0  0  0  0  0  0  0  0  0
    5.5143  -13.7324    0.4740 H   0  0  0  0  0  0  0  0  0  0  0  0
    5.2728  -15.4823    0.8458 H   0  0  0  0  0  0  0  0  0  0  0  0
    7.6609  -14.9211    0.5265 H   0  0  0  0  0  0  0  0  0  0  0  0
    7.0093  -16.0788   -0.7465 H   0  0  0  0  0  0  0  0  0  0  0  0
    7.8065  -12.8102    0.2148 H   0  0  0  0  0  0  0  0  0  0  0  0
    8.7998  -12.3719   -1.2162 H   0  0  0  0  0  0  0  0  0  0  0  0
    7.0328  -12.0485   -1.2162 H   0  0  0  0  0  0  0  0  0  0  0  0
   10.8755  -13.0855   -4.4592 H   0  0  0  0  0  0  0  0  0  0  0  0
    9.1322  -15.4207   -5.5775 H   0  0  0  0  0  0  0  0  0  0  0  0
   10.0648  -14.3769   -6.7033 H   0  0  0  0  0  0  0  0  0  0  0  0
   10.3243  -16.1544   -6.7033 H   0  0  0  0  0  0  0  0  0  0  0  0
   11.1560  -16.3570   -3.4820 H   0  0  0  0  0  0  0  0  0  0  0  0
  1  2  1  0
  2  3  1  0
  3  4  1  0
  4  5  1  0
  5  6  1  1
  6  7  2  0
  6  8  1  0
  5  9  1  0
  9 10  1  0
 10 11  1  0
 11 12  1  6
 11 13  1  0
 13 14  2  0
 14 15  1  0
 15 16  1  0
 16 17  1  0
 17 18  1  1
 17 19  1  0
 19 20  1  0
 20 21  1  0
 20 22  1  0
 22 23  1  0
 22 24  1  0
 24 25  1  1
 24 26  1  0
 26 27  1  0
 27 28  1  0
 28 29  2  0
 28 30  2  0
 28 31  1  0
 24 32  1  0
 32 33  1  0
 33 34  1  0
 34 35  1  0
 35 36  1  1
 13 37  1  0
 37 38  1  0
 38 39  1  0
 38 40  1  1
 38  2  1  0
 37  5  1  0
 35 11  1  0
 35 16  1  0
 32 17  1  0
  1 41  1  0
  1 42  1  0
  1 43  1  0
  2 44  1  6
  3 45  1  0
  3 46  1  0
  4 47  1  0
  4 48  1  0
  9 49  1  0
  9 50  1  0
 10 51  1  0
 10 52  1  0
 12 53  1  0
 12 54  1  0
 12 55  1  0
 14 56  1  0
 15 57  1  0
 15 58  1  0
 16 59  1  6
 18 60  1  0
 18 61  1  0
 18 62  1  0
 19 63  1  0
 19 64  1  0
 20 65  1  1
 21 66  1  0
 22 67  1  6
 23 68  1  0
 25 69  1  0
 25 70  1  0
 25 71  1  0
 26 72  1  0
 26 73  1  0
 32 74  1  6
 33 75  1  0
 33 76  1  0
 34 77  1  0
 34 78  1  0
 36 79  1  0
 36 80  1  0
 36 81  1  0
 37 82  1  6
 39 83  1  0
 39 84  1  0
 39 85  1  0
 40 86  1  0
M  CHG  2   8  -1  31  -1
M  END
>  <meeko>  (8) 
{"is_sidechain": [false], "free_energy": -7.477, "intermolecular_energy": -9.977, "internal_energy": -0.996}

$$$$
LIB_YDJYRDOKNBKUDY__M_PUB_ALL__e8__s20260927
     RDKit          3D

 86 90  0  0  0  0  0  0  0  0999 V2000
    9.4300  -14.8120   -3.6600 C   0  0  0  0  0  0  0  0  0  0  0  0
    8.3680  -13.7900   -3.2230 C   0  0  2  0  0  0  0  0  0  0  0  0
    9.0590  -12.6100   -2.5080 C   0  0  0  0  0  0  0  0  0  0  0  0
    8.8510  -12.6070   -0.9970 C   0  0  0  0  0  0  0  0  0  0  0  0
    7.3520  -12.5520   -0.5850 C   0  0  2  0  0  0  0  0  0  0  0  0
    7.0940  -11.0030   -0.5440 C   0  0  0  0  0  0  0  0  0  0  0  0
    6.6150  -10.4840   -1.5940 O   0  0  0  0  0  0  0  0  0  0  0  0
    7.4480  -10.4070    0.5160 O   0  0  0  0  0  0  0  0  0  0  0  0
    7.2160  -13.1850    0.8140 C   0  0  0  0  0  0  0  0  0  0  0  0
    5.7670  -13.2160    1.2940 C   0  0  0  0  0  0  0  0  0  0  0  0
    4.7950  -14.0120    0.3760 C   0  0  2  0  0  0  0  0  0  0  0  0
    5.1610  -15.5180    0.4920 C   0  0  0  0  0  0  0  0  0  0  0  0
    5.0130  -13.5950   -1.0920 C   0  0  0  0  0  0  0  0  0  0  0  0
    3.9680  -13.4370   -1.9320 C   0  0  0  0  0  0  0  0  0  0  0  0
    2.5270  -13.6880   -1.6220 C   0  0  0  0  0  0  0  0  0  0  0  0
    2.2740  -14.3550   -0.2550 C   0  0  2  0  0  0  0  0  0  0  0  0
    0.7290  -14.5000    0.1290 C   0  0  1  0  0  0  0  0  0  0  0  0
   -0.0020  -13.1330    0.1590 C   0  0  0  0  0  0  0  0  0  0  0  0
    0.0260  -15.3720   -0.9570 C   0  0  0  0  0  0  0  0  0  0  0  0
   -1.3710  -15.8520   -0.5630 C   0  0  1  0  0  0  0  0  0  0  0  0
   -1.8680  -16.7210   -1.5930 O   0  0  0  0  0  0  0  0  0  0  0  0
   -1.3490  -16.6140    0.7680 C   0  0  2  0  0  0  0  0  0  0  0  0
   -2.6870  -17.0660    1.0280 O   0  0  0  0  0  0  0  0  0  0  0  0
   -0.7720  -15.7790    1.9490 C   0  0  1  0  0  0  0  0  0  0  0  0
   -1.7270  -14.6350    2.3580 C   0  0  0  0  0  0  0  0  0  0  0  0
   -0.6980  -16.7050    3.2080 C   0  0  0  0  0  0  0  0  0  0  0  0
   -1.9130  -16.7030    3.9390 O   0  0  0  0  0  0  0  0  0  0  0  0
   -2.4780  -18.1450    4.4560 S   0  0  0  0  0  0  0  0  0  0  0  0
   -3.0800  -17.8400    5.7470 O   0  0  0  0  0  0  0  0  0  0  0  0
   -1.2680  -18.9680    4.5290 O   0  0  0  0  0  0  0  0  0  0  0  0
   -3.4160  -18.5450    3.4150 O   0  0  0  0  0  0  0  0  0  0  0  0
    0.6590  -15.2750    1.5060 C   0  0  2  0  0  0  0  0  0  0  0  0
    1.4540  -14.5150    2.5870 C   0  0  0  0  0  0  0  0  0  0  0  0
    2.9380  -14.4320    2.2110 C   0  0  0  0  0  0  0  0  0  0  0  0
    3.2360  -13.7560    0.8430 C   0  0  1  0  0  0  0  0  0  0  0  0
    2.9900  -12.2280    1.0230 C   0  0  0  0  0  0  0  0  0  0  0  0
    6.4360  -13.2640   -1.6260 C   0  0  2  0  0  0  0  0  0  0  0  0
    7.2000  -14.4200   -2.3870 C   0  0  1  0  0  0  0  0  0  0  0  0
    6.2720  -15.2180   -3.3230 C   0  0  0  0  0  0  0  0  0  0  0  0
    7.7760  -15.3510   -1.4590 O   0  0  0  0  0  0  0  0  0  0  0  0
    9.8957  -15.2602   -2.7699 H   0  0  0  0  0  0  0  0  0  0  0  0
    8.9543  -15.6007   -4.2614 H   0  0  0  0  0  0  0  0  0  0  0  0
   10.1999  -14.3064   -4.2614 H   0  0  0  0  0  0  0  0  0  0  0  0
    7.8687  -13.4076   -4.1255 H   0  0  0  0  0  0  0  0  0  0  0  0
   10.1388  -12.6645   -2.7105 H   0  0  0  0  0  0  0  0  0  0  0  0
    8.6070  -11.6862   -2.8983 H   0  0  0  0  0  0  0  0  0  0  0  0
    9.2945  -13.5238   -0.5812 H   0  0  0  0  0  0  0  0  0  0  0  0
    9.3320  -11.6997   -0.6026 H   0  0  0  0  0  0  0  0  0  0  0  0
    7.5986  -14.2156    0.7753 H   0  0  0  0  0  0  0  0  0  0  0  0
    7.7930  -12.5703    1.5206 H   0  0  0  0  0  0  0  0  0  0  0  0
    5.7469  -13.6745    2.2937 H   0  0  0  0  0  0  0  0  0  0  0  0
    5.4156  -12.1736    1.2889 H   0  0  0  0  0  0  0  0  0  0  0  0
    5.2291  -15.7981    1.5536 H   0  0  0  0  0  0  0  0  0  0  0  0
    4.3837  -16.1230    0.0023 H   0  0  0  0  0  0  0  0  0  0  0  0
    6.1292  -15.6988    0.0023 H   0  0  0  0  0  0  0  0  0  0  0  0
    4.2005  -13.0878   -2.9488 H   0  0  0  0  0  0  0  0  0  0  0  0
    1.9993  -12.7230   -1.6364 H   0  0  0  0  0  0  0  0  0  0  0  0
    2.1604  -14.3900   -2.3854 H   0  0  0  0  0  0  0  0  0  0  0  0
    2.5573  -15.4154   -0.3278 H   0  0  0  0  0  0  0  0  0  0  0  0
   -0.1654  -12.8274    1.2030 H   0  0  0  0  0  0  0  0  0  0  0  0
    0.6124  -12.3773   -0.3524 H   0  0  0  0  0  0  0  0  0  0  0  0
   -0.9716  -13.2244   -0.3524 H   0  0  0  0  0  0  0  0  0  0  0  0
   -0.0604  -14.7750   -1.8769 H   0  0  0  0  0  0  0  0  0  0  0  0
    0.6447  -16.2716   -1.0913 H   0  0  0  0  0  0  0  0  0  0  0  0
   -2.0208  -14.9725   -0.4435 H   0  0  0  0  0  0  0  0  0  0  0  0
   -1.4660  -17.5890   -1.3810 H   0  0  0  0  0  0  0  0  0  0  0  0
   -0.6632  -17.4698    0.6826 H   0  0  0  0  0  0  0  0  0  0  0  0
   -3.0390  -17.3560    0.1440 H   0  0  0  0  0  0  0  0  0  0  0  0
   -1.7777  -14.5743    3.4552 H   0  0  0  0  0  0  0  0  0  0  0  0
   -1.3521  -13.6826    1.9550 H   0  0  0  0  0  0  0  0  0  0  0  0
   -2.7310  -14.8338    1.9550 H   0  0  0  0  0  0  0  0  0  0  0  0
   -0.4815  -17.7328    2.8811 H   0  0  0  0  0  0  0  0  0  0  0  0
    0.0960  -16.3222    3.8661 H   0  0  0  0  0  0  0  0  0  0  0  0
    1.1615  -16.2402    1.3451 H   0  0  0  0  0  0  0  0  0  0  0  0
    1.0488  -13.4970    2.6843 H   0  0  0  0  0  0  0  0  0  0  0  0
    1.3606  -15.0560    3.5402 H   0  0  0  0  0  0  0  0  0  0  0  0
    3.4562  -13.8591    2.9941 H   0  0  0  0  0  0  0  0  0  0  0  0
    3.2895  -15.4705    2.1220 H   0  0  0  0  0  0  0  0  0  0  0  0
    2.9512  -11.9867    2.0955 H   0  0  0  0  0  0  0  0  0  0  0  0
    3.8093  -11.6665    0.5503 H   0  0  0  0  0  0  0  0  0  0  0  0
    2.0359  -11.9520    0.5503 H   0  0  0  0  0  0  0  0  0  0  0  0
    6.2028  -12.5363   -2.4172 H   0  0  0  0  0  0  0  0  0  0  0  0
    5.5735  -15.8187   -2.7219 H   0  0  0  0  0  0  0  0  0  0  0  0
    5.7044  -14.5215   -3.9576 H   0  0  0  0  0  0  0  0  0  0  0  0
    6.8756  -15.8835   -3.9576 H   0  0  0  0  0  0  0  0  0  0  0  0
    8.6380  -15.0110   -1.1780 H   0  0  0  0  0  0  0  0  0  0  0  0
  1  2  1  0
  2  3  1  0
  3  4  1  0
  4  5  1  0
  5  6  1  1
  6  7  2  0
  6  8  1  0
  5  9  1  0
  9 10  1  0
 10 11  1  0
 11 12  1  6
 11 13  1  0
 13 14  2  0
 14 15  1  0
 15 16  1  0
 16 17  1  0
 17 18  1  1
 17 19  1  0
 19 20  1  0
 20 21  1  0
 20 22  1  0
 22 23  1  0
 22 24  1  0
 24 25  1  1
 24 26  1  0
 26 27  1  0
 27 28  1  0
 28 29  2  0
 28 30  2  0
 28 31  1  0
 24 32  1  0
 32 33  1  0
 33 34  1  0
 34 35  1  0
 35 36  1  1
 13 37  1  0
 37 38  1  0
 38 39  1  0
 38 40  1  1
 38  2  1  0
 37  5  1  0
 35 11  1  0
 35 16  1  0
 32 17  1  0
  1 41  1  0
  1 42  1  0
  1 43  1  0
  2 44  1  6
  3 45  1  0
  3 46  1  0
  4 47  1  0
  4 48  1  0
  9 49  1  0
  9 50  1  0
 10 51  1  0
 10 52  1  0
 12 53  1  0
 12 54  1  0
 12 55  1  0
 14 56  1  0
 15 57  1  0
 15 58  1  0
 16 59  1  6
 18 60  1  0
 18 61  1  0
 18 62  1  0
 19 63  1  0
 19 64  1  0
 20 65  1  1
 21 66  1  0
 22 67  1  6
 23 68  1  0
 25 69  1  0
 25 70  1  0
 25 71  1  0
 26 72  1  0
 26 73  1  0
 32 74  1  6
 33 75  1  0
 33 76  1  0
 34 77  1  0
 34 78  1  0
 36 79  1  0
 36 80  1  0
 36 81  1  0
 37 82  1  6
 39 83  1  0
 39 84  1  0
 39 85  1  0
 40 86  1  0
M  CHG  2   8  -1  31  -1
M  END
>  <meeko>  (9) 
{"is_sidechain": [false], "free_energy": -7.461, "intermolecular_energy": -9.945, "internal_energy": -1.008}

$$$$
