LIB_HKBHNZWWRRRSCH__M_PUB_ALL__e8__s20260927
     RDKit          3D

 54 58  0  0  0  0  0  0  0  0999 V2000
   13.8320  -11.3630   -0.0760 N   0  0  0  0  0  0  0  0  0  0  0  0
   12.6290  -10.7610    0.1630 C   0  0  0  0  0  0  0  0  0  0  0  0
   12.5840   -9.6290    0.6300 O   0  0  0  0  0  0  0  0  0  0  0  0
   11.3910  -11.5330   -0.1280 C   0  0  0  0  0  0  0  0  0  0  0  0
   11.3240  -12.2290   -1.3450 C   0  0  0  0  0  0  0  0  0  0  0  0
   10.1970  -12.9810   -1.7010 C   0  0  0  0  0  0  0  0  0  0  0  0
    9.1410  -13.0090   -0.7830 C   0  0  0  0  0  0  0  0  0  0  0  0
    9.1870  -12.3410    0.4350 C   0  0  0  0  0  0  0  0  0  0  0  0
   10.3230  -11.5930    0.7810 C   0  0  0  0  0  0  0  0  0  0  0  0
    8.0380  -12.5420    1.1520 N   0  0  0  0  0  0  0  0  0  0  0  0
    7.2800  -13.3160    0.4090 C   0  0  0  0  0  0  0  0  0  0  0  0
    6.0590  -13.7900    0.7140 N   0  0  0  0  0  0  0  0  0  0  0  0
    4.9040  -12.9270    0.5700 C   0  0  0  0  0  0  0  0  0  0  0  0
    3.7790  -13.6890   -0.0930 C   0  0  0  0  0  0  0  0  0  0  0  0
    4.0130  -15.0080   -0.5240 C   0  0  0  0  0  0  0  0  0  0  0  0
    3.0020  -15.7560   -1.1300 C   0  0  0  0  0  0  0  0  0  0  0  0
    1.7380  -15.2010   -1.3080 C   0  0  0  0  0  0  0  0  0  0  0  0
    1.4840  -13.9010   -0.8730 C   0  0  0  0  0  0  0  0  0  0  0  0
    2.4950  -13.1490   -0.2640 C   0  0  0  0  0  0  0  0  0  0  0  0
    2.0910  -11.5620    0.2840 Cl  0  0  0  0  0  0  0  0  0  0  0  0
    7.9090  -13.6230   -0.7780 N   0  0  0  0  0  0  0  0  0  0  0  0
    7.3840  -14.4680   -1.8340 C   0  0  0  0  0  0  0  0  0  0  0  0
    7.2300  -13.7050   -3.1470 C   0  0  0  0  0  0  0  0  0  0  0  0
    6.0660  -12.7680   -3.1100 C   0  0  0  0  0  0  0  0  0  0  0  0
    6.0640  -11.4870   -2.5930 C   0  0  0  0  0  0  0  0  0  0  0  0
    4.8110  -10.9610   -2.7550 N   0  0  0  0  0  0  0  0  0  0  0  0
    3.9880  -11.8720   -3.3750 C   0  0  0  0  0  0  0  0  0  0  0  0
    2.6410  -11.7670   -3.7410 C   0  0  0  0  0  0  0  0  0  0  0  0
    2.0500  -12.8710   -4.3610 C   0  0  0  0  0  0  0  0  0  0  0  0
    2.7790  -14.0340   -4.6010 C   0  0  0  0  0  0  0  0  0  0  0  0
    4.1250  -14.1220   -4.2290 C   0  0  0  0  0  0  0  0  0  0  0  0
    4.7460  -13.0200   -3.6040 C   0  0  0  0  0  0  0  0  0  0  0  0
   13.9440  -12.3180   -0.3830 H   0  0  0  0  0  0  0  0  0  0  0  0
   14.6640  -10.8280    0.1330 H   0  0  0  0  0  0  0  0  0  0  0  0
   12.1780  -12.1828   -2.0367 H   0  0  0  0  0  0  0  0  0  0  0  0
   10.1445  -13.5236   -2.6564 H   0  0  0  0  0  0  0  0  0  0  0  0
   10.3754  -11.0648    1.7444 H   0  0  0  0  0  0  0  0  0  0  0  0
    5.8950  -14.6880    1.1490 H   0  0  0  0  0  0  0  0  0  0  0  0
    4.5779  -12.5836    1.5628 H   0  0  0  0  0  0  0  0  0  0  0  0
    5.1722  -12.0594   -0.0508 H   0  0  0  0  0  0  0  0  0  0  0  0
    5.0073  -15.4563   -0.3813 H   0  0  0  0  0  0  0  0  0  0  0  0
    3.2042  -16.7835   -1.4667 H   0  0  0  0  0  0  0  0  0  0  0  0
    0.9416  -15.7865   -1.7906 H   0  0  0  0  0  0  0  0  0  0  0  0
    0.4837  -13.4641   -1.0092 H   0  0  0  0  0  0  0  0  0  0  0  0
    8.0728  -15.3112   -1.9909 H   0  0  0  0  0  0  0  0  0  0  0  0
    6.3892  -14.8221   -1.5257 H   0  0  0  0  0  0  0  0  0  0  0  0
    8.1471  -13.1267   -3.3327 H   0  0  0  0  0  0  0  0  0  0  0  0
    7.0553  -14.4366   -3.9497 H   0  0  0  0  0  0  0  0  0  0  0  0
    6.9221  -10.9773   -2.1306 H   0  0  0  0  0  0  0  0  0  0  0  0
    4.5230  -10.0370   -2.4610 H   0  0  0  0  0  0  0  0  0  0  0  0
    2.0681  -10.8481   -3.5474 H   0  0  0  0  0  0  0  0  0  0  0  0
    0.9937  -12.8213   -4.6641 H   0  0  0  0  0  0  0  0  0  0  0  0
    2.2915  -14.8915   -5.0878 H   0  0  0  0  0  0  0  0  0  0  0  0
    4.6945  -15.0430   -4.4223 H   0  0  0  0  0  0  0  0  0  0  0  0
  1  2  1  0
  2  3  2  0
  2  4  1  0
  4  5  2  0
  5  6  1  0
  6  7  2  0
  7  8  1  0
  8  9  2  0
  8 10  1  0
 10 11  2  0
 11 12  1  0
 12 13  1  0
 13 14  1  0
 14 15  2  0
 15 16  1  0
 16 17  2  0
 17 18  1  0
 18 19  2  0
 19 20  1  0
 11 21  1  0
 21 22  1  0
 22 23  1  0
 23 24  1  0
 24 25  2  0
 25 26  1  0
 26 27  1  0
 27 28  2  0
 28 29  1  0
 29 30  2  0
 30 31  1  0
 31 32  2  0
  9  4  1  0
 19 14  1  0
 32 24  1  0
 21  7  1  0
 32 27  1  0
  1 33  1  0
  1 34  1  0
  5 35  1  0
  6 36  1  0
  9 37  1  0
 12 38  1  0
 13 39  1  0
 13 40  1  0
 15 41  1  0
 16 42  1  0
 17 43  1  0
 18 44  1  0
 22 45  1  0
 22 46  1  0
 23 47  1  0
 23 48  1  0
 25 49  1  0
 26 50  1  0
 28 51  1  0
 29 52  1  0
 30 53  1  0
 31 54  1  0
M  END
>  <meeko>  (1) 
{"is_sidechain": [false], "free_energy": -7.313, "intermolecular_energy": -10.305, "internal_energy": -3.093}

$$$$
LIB_HKBHNZWWRRRSCH__M_PUB_ALL__e8__s20260927
     RDKit          3D

 54 58  0  0  0  0  0  0  0  0999 V2000
   14.9810  -11.8560   -3.0470 N   0  0  0  0  0  0  0  0  0  0  0  0
   13.6220  -11.8440   -2.9140 C   0  0  0  0  0  0  0  0  0  0  0  0
   13.0870  -11.1340   -2.0710 O   0  0  0  0  0  0  0  0  0  0  0  0
   12.8260  -12.7370   -3.7980 C   0  0  0  0  0  0  0  0  0  0  0  0
   13.5170  -13.4990   -4.7530 C   0  0  0  0  0  0  0  0  0  0  0  0
   12.8480  -14.3660   -5.6260 C   0  0  0  0  0  0  0  0  0  0  0  0
   11.4560  -14.4410   -5.4980 C   0  0  0  0  0  0  0  0  0  0  0  0
   10.7490  -13.7090   -4.5520 C   0  0  0  0  0  0  0  0  0  0  0  0
   11.4310  -12.8460   -3.6820 C   0  0  0  0  0  0  0  0  0  0  0  0
    9.4070  -13.9750   -4.6250 N   0  0  0  0  0  0  0  0  0  0  0  0
    9.2650  -14.8510   -5.5920 C   0  0  0  0  0  0  0  0  0  0  0  0
    8.1190  -15.4170   -6.0130 N   0  0  0  0  0  0  0  0  0  0  0  0
    7.2330  -14.6680   -6.8800 C   0  0  0  0  0  0  0  0  0  0  0  0
    5.9750  -14.2980   -6.1260 C   0  0  0  0  0  0  0  0  0  0  0  0
    5.5620  -15.1120   -5.0550 C   0  0  0  0  0  0  0  0  0  0  0  0
    4.4150  -14.8050   -4.3210 C   0  0  0  0  0  0  0  0  0  0  0  0
    3.6670  -13.6740   -4.6390 C   0  0  0  0  0  0  0  0  0  0  0  0
    4.0720  -12.8480   -5.6870 C   0  0  0  0  0  0  0  0  0  0  0  0
    5.2210  -13.1530   -6.4240 C   0  0  0  0  0  0  0  0  0  0  0  0
    5.6780  -12.0590   -7.6790 Cl  0  0  0  0  0  0  0  0  0  0  0  0
   10.4840  -15.1620   -6.1540 N   0  0  0  0  0  0  0  0  0  0  0  0
   10.7170  -16.1050   -7.2330 C   0  0  0  0  0  0  0  0  0  0  0  0
   10.8670  -15.4000   -8.5790 C   0  0  0  0  0  0  0  0  0  0  0  0
    9.6020  -15.4470   -9.3730 C   0  0  0  0  0  0  0  0  0  0  0  0
    8.8820  -16.5810   -9.6980 C   0  0  0  0  0  0  0  0  0  0  0  0
    7.7870  -16.1990  -10.4260 N   0  0  0  0  0  0  0  0  0  0  0  0
    7.7700  -14.8330  -10.5810 C   0  0  0  0  0  0  0  0  0  0  0  0
    6.8490  -14.0120  -11.2430 C   0  0  0  0  0  0  0  0  0  0  0  0
    7.0920  -12.6360  -11.2440 C   0  0  0  0  0  0  0  0  0  0  0  0
    8.2140  -12.1050  -10.6120 C   0  0  0  0  0  0  0  0  0  0  0  0
    9.1250  -12.9400   -9.9570 C   0  0  0  0  0  0  0  0  0  0  0  0
    8.9010  -14.3320   -9.9370 C   0  0  0  0  0  0  0  0  0  0  0  0
   15.4920  -12.4710   -3.6630 H   0  0  0  0  0  0  0  0  0  0  0  0
   15.5090  -11.2470   -2.4350 H   0  0  0  0  0  0  0  0  0  0  0  0
   14.6117  -13.4130   -4.8174 H   0  0  0  0  0  0  0  0  0  0  0  0
   13.3905  -14.9597   -6.3765 H   0  0  0  0  0  0  0  0  0  0  0  0
   10.8840  -12.2662   -2.9240 H   0  0  0  0  0  0  0  0  0  0  0  0
    7.7700  -16.3040   -5.6750 H   0  0  0  0  0  0  0  0  0  0  0  0
    7.7399  -13.7519   -7.2175 H   0  0  0  0  0  0  0  0  0  0  0  0
    6.9676  -15.2854   -7.7509 H   0  0  0  0  0  0  0  0  0  0  0  0
    6.1514  -16.0029   -4.7925 H   0  0  0  0  0  0  0  0  0  0  0  0
    4.1020  -15.4562   -3.4916 H   0  0  0  0  0  0  0  0  0  0  0  0
    2.7598  -13.4331   -4.0654 H   0  0  0  0  0  0  0  0  0  0  0  0
    3.4847  -11.9517   -5.9354 H   0  0  0  0  0  0  0  0  0  0  0  0
   11.6380  -16.6680   -7.0213 H   0  0  0  0  0  0  0  0  0  0  0  0
    9.8482  -16.7770   -7.2937 H   0  0  0  0  0  0  0  0  0  0  0  0
   11.1378  -14.3486   -8.4022 H   0  0  0  0  0  0  0  0  0  0  0  0
   11.6501  -15.9185   -9.1516 H   0  0  0  0  0  0  0  0  0  0  0  0
    9.1435  -17.6126   -9.4198 H   0  0  0  0  0  0  0  0  0  0  0  0
    7.0880  -16.8260  -10.8010 H   0  0  0  0  0  0  0  0  0  0  0  0
    5.9659  -14.4350  -11.7442 H   0  0  0  0  0  0  0  0  0  0  0  0
    6.3865  -11.9618  -11.7516 H   0  0  0  0  0  0  0  0  0  0  0  0
    8.3852  -11.0185  -10.6282 H   0  0  0  0  0  0  0  0  0  0  0  0
   10.0097  -12.5140   -9.4611 H   0  0  0  0  0  0  0  0  0  0  0  0
  1  2  1  0
  2  3  2  0
  2  4  1  0
  4  5  2  0
  5  6  1  0
  6  7  2  0
  7  8  1  0
  8  9  2  0
  8 10  1  0
 10 11  2  0
 11 12  1  0
 12 13  1  0
 13 14  1  0
 14 15  2  0
 15 16  1  0
 16 17  2  0
 17 18  1  0
 18 19  2  0
 19 20  1  0
 11 21  1  0
 21 22  1  0
 22 23  1  0
 23 24  1  0
 24 25  2  0
 25 26  1  0
 26 27  1  0
 27 28  2  0
 28 29  1  0
 29 30  2  0
 30 31  1  0
 31 32  2  0
  9  4  1  0
 19 14  1  0
 32 24  1  0
 21  7  1  0
 32 27  1  0
  1 33  1  0
  1 34  1  0
  5 35  1  0
  6 36  1  0
  9 37  1  0
 12 38  1  0
 13 39  1  0
 13 40  1  0
 15 41  1  0
 16 42  1  0
 17 43  1  0
 18 44  1  0
 22 45  1  0
 22 46  1  0
 23 47  1  0
 23 48  1  0
 25 49  1  0
 26 50  1  0
 28 51  1  0
 29 52  1  0
 30 53  1  0
 31 54  1  0
M  END
>  <meeko>  (2) 
{"is_sidechain": [false], "free_energy": -7.015, "intermolecular_energy": -11.227, "internal_energy": -1.752}

$$$$
LIB_HKBHNZWWRRRSCH__M_PUB_ALL__e8__s20260927
     RDKit          3D

 54 58  0  0  0  0  0  0  0  0999 V2000
   -7.6570  -15.1360    8.3620 N   0  0  0  0  0  0  0  0  0  0  0  0
   -7.9210  -15.5990    7.1040 C   0  0  0  0  0  0  0  0  0  0  0  0
   -9.0640  -15.8940    6.7780 O   0  0  0  0  0  0  0  0  0  0  0  0
   -6.7780  -15.7610    6.1660 C   0  0  0  0  0  0  0  0  0  0  0  0
   -6.6270  -14.8080    5.1460 C   0  0  0  0  0  0  0  0  0  0  0  0
   -5.5800  -14.8830    4.2190 C   0  0  0  0  0  0  0  0  0  0  0  0
   -4.6880  -15.9510    4.3590 C   0  0  0  0  0  0  0  0  0  0  0  0
   -4.8050  -16.9000    5.3670 C   0  0  0  0  0  0  0  0  0  0  0  0
   -5.8570  -16.8130    6.2920 C   0  0  0  0  0  0  0  0  0  0  0  0
   -3.7990  -17.8270    5.2920 N   0  0  0  0  0  0  0  0  0  0  0  0
   -3.0630  -17.4780    4.2630 C   0  0  0  0  0  0  0  0  0  0  0  0
   -1.9520  -18.0900    3.8150 N   0  0  0  0  0  0  0  0  0  0  0  0
   -0.8080  -18.2180    4.6940 C   0  0  0  0  0  0  0  0  0  0  0  0
   -0.0480  -16.9120    4.7340 C   0  0  0  0  0  0  0  0  0  0  0  0
    0.7910  -16.5800    3.6540 C   0  0  0  0  0  0  0  0  0  0  0  0
    1.5020  -15.3780    3.6400 C   0  0  0  0  0  0  0  0  0  0  0  0
    1.3810  -14.4850    4.7010 C   0  0  0  0  0  0  0  0  0  0  0  0
    0.5420  -14.7920    5.7720 C   0  0  0  0  0  0  0  0  0  0  0  0
   -0.1730  -15.9940    5.7880 C   0  0  0  0  0  0  0  0  0  0  0  0
   -1.2210  -16.2810    7.1300 Cl  0  0  0  0  0  0  0  0  0  0  0  0
   -3.5670  -16.3450    3.6630 N   0  0  0  0  0  0  0  0  0  0  0  0
   -3.0050  -15.6600    2.5130 C   0  0  0  0  0  0  0  0  0  0  0  0
   -2.1970  -14.4320    2.9230 C   0  0  0  0  0  0  0  0  0  0  0  0
   -2.4600  -13.2690    2.0210 C   0  0  0  0  0  0  0  0  0  0  0  0
   -3.0350  -13.3210    0.7670 C   0  0  0  0  0  0  0  0  0  0  0  0
   -3.1060  -12.0470    0.2730 N   0  0  0  0  0  0  0  0  0  0  0  0
   -2.5920  -11.1540    1.1850 C   0  0  0  0  0  0  0  0  0  0  0  0
   -2.4640   -9.7620    1.1100 C   0  0  0  0  0  0  0  0  0  0  0  0
   -1.8890   -9.1040    2.2000 C   0  0  0  0  0  0  0  0  0  0  0  0
   -1.4560   -9.8140    3.3190 C   0  0  0  0  0  0  0  0  0  0  0  0
   -1.5900  -11.2050    3.3760 C   0  0  0  0  0  0  0  0  0  0  0  0
   -2.1710  -11.8920    2.2900 C   0  0  0  0  0  0  0  0  0  0  0  0
   -6.7330  -14.9500    8.7230 H   0  0  0  0  0  0  0  0  0  0  0  0
   -8.4440  -15.0380    8.9910 H   0  0  0  0  0  0  0  0  0  0  0  0
   -7.3493  -13.9816    5.0732 H   0  0  0  0  0  0  0  0  0  0  0  0
   -5.4647  -14.1372    3.4187 H   0  0  0  0  0  0  0  0  0  0  0  0
   -5.9577  -17.5537    7.0989 H   0  0  0  0  0  0  0  0  0  0  0  0
   -1.8130  -18.3760    2.8550 H   0  0  0  0  0  0  0  0  0  0  0  0
   -1.1521  -18.4721    5.7074 H   0  0  0  0  0  0  0  0  0  0  0  0
   -0.1470  -19.0129    4.3184 H   0  0  0  0  0  0  0  0  0  0  0  0
    0.8882  -17.2772    2.8088 H   0  0  0  0  0  0  0  0  0  0  0  0
    2.1578  -15.1369    2.7904 H   0  0  0  0  0  0  0  0  0  0  0  0
    1.9451  -13.5406    4.6947 H   0  0  0  0  0  0  0  0  0  0  0  0
    0.4421  -14.0849    6.6087 H   0  0  0  0  0  0  0  0  0  0  0  0
   -2.3463  -16.3550    1.9716 H   0  0  0  0  0  0  0  0  0  0  0  0
   -3.8362  -15.3247    1.8753 H   0  0  0  0  0  0  0  0  0  0  0  0
   -2.4693  -14.1536    3.9518 H   0  0  0  0  0  0  0  0  0  0  0  0
   -1.1290  -14.6856    2.8521 H   0  0  0  0  0  0  0  0  0  0  0  0
   -3.3775  -14.2311    0.2528 H   0  0  0  0  0  0  0  0  0  0  0  0
   -3.4780  -11.7900   -0.6310 H   0  0  0  0  0  0  0  0  0  0  0  0
   -2.8042   -9.2059    0.2240 H   0  0  0  0  0  0  0  0  0  0  0  0
   -1.7763   -8.0101    2.1750 H   0  0  0  0  0  0  0  0  0  0  0  0
   -1.0047   -9.2750    4.1651 H   0  0  0  0  0  0  0  0  0  0  0  0
   -1.2448  -11.7591    4.2613 H   0  0  0  0  0  0  0  0  0  0  0  0
  1  2  1  0
  2  3  2  0
  2  4  1  0
  4  5  2  0
  5  6  1  0
  6  7  2  0
  7  8  1  0
  8  9  2  0
  8 10  1  0
 10 11  2  0
 11 12  1  0
 12 13  1  0
 13 14  1  0
 14 15  2  0
 15 16  1  0
 16 17  2  0
 17 18  1  0
 18 19  2  0
 19 20  1  0
 11 21  1  0
 21 22  1  0
 22 23  1  0
 23 24  1  0
 24 25  2  0
 25 26  1  0
 26 27  1  0
 27 28  2  0
 28 29  1  0
 29 30  2  0
 30 31  1  0
 31 32  2  0
  9  4  1  0
 19 14  1  0
 32 24  1  0
 21  7  1  0
 32 27  1  0
  1 33  1  0
  1 34  1  0
  5 35  1  0
  6 36  1  0
  9 37  1  0
 12 38  1  0
 13 39  1  0
 13 40  1  0
 15 41  1  0
 16 42  1  0
 17 43  1  0
 18 44  1  0
 22 45  1  0
 22 46  1  0
 23 47  1  0
 23 48  1  0
 25 49  1  0
 26 50  1  0
 28 51  1  0
 29 52  1  0
 30 53  1  0
 31 54  1  0
M  END
>  <meeko>  (3) 
{"is_sidechain": [false], "free_energy": -7.01, "intermolecular_energy": -10.905, "internal_energy": -2.067}

$$$$
LIB_HKBHNZWWRRRSCH__M_PUB_ALL__e8__s20260927
     RDKit          3D

 54 58  0  0  0  0  0  0  0  0999 V2000
   14.5290  -10.3110    0.3920 N   0  0  0  0  0  0  0  0  0  0  0  0
   13.2220  -10.4740    0.0300 C   0  0  0  0  0  0  0  0  0  0  0  0
   12.3370   -9.8530    0.6060 O   0  0  0  0  0  0  0  0  0  0  0  0
   12.9130  -11.4460   -1.0530 C   0  0  0  0  0  0  0  0  0  0  0  0
   11.8950  -12.3840   -0.8200 C   0  0  0  0  0  0  0  0  0  0  0  0
   11.5370  -13.3360   -1.7840 C   0  0  0  0  0  0  0  0  0  0  0  0
   12.2410  -13.3050   -2.9930 C   0  0  0  0  0  0  0  0  0  0  0  0
   13.2430  -12.3780   -3.2550 C   0  0  0  0  0  0  0  0  0  0  0  0
   13.5900  -11.4280   -2.2820 C   0  0  0  0  0  0  0  0  0  0  0  0
   13.7590  -12.5510   -4.5110 N   0  0  0  0  0  0  0  0  0  0  0  0
   13.1050  -13.5620   -5.0340 C   0  0  0  0  0  0  0  0  0  0  0  0
   13.2630  -14.0830   -6.2650 N   0  0  0  0  0  0  0  0  0  0  0  0
   12.6290  -13.4380   -7.3960 C   0  0  0  0  0  0  0  0  0  0  0  0
   12.3150  -14.4680   -8.4580 C   0  0  0  0  0  0  0  0  0  0  0  0
   12.6050  -15.8210   -8.1990 C   0  0  0  0  0  0  0  0  0  0  0  0
   12.3210  -16.8090   -9.1430 C   0  0  0  0  0  0  0  0  0  0  0  0
   11.7350  -16.4640  -10.3580 C   0  0  0  0  0  0  0  0  0  0  0  0
   11.4270  -15.1300  -10.6240 C   0  0  0  0  0  0  0  0  0  0  0  0
   11.7080  -14.1370   -9.6800 C   0  0  0  0  0  0  0  0  0  0  0  0
   11.2600  -12.5160  -10.0680 Cl  0  0  0  0  0  0  0  0  0  0  0  0
   12.1740  -14.0540   -4.1460 N   0  0  0  0  0  0  0  0  0  0  0  0
   11.2560  -15.1530   -4.3840 C   0  0  0  0  0  0  0  0  0  0  0  0
    9.9990  -14.6940   -5.1190 C   0  0  0  0  0  0  0  0  0  0  0  0
    9.5820  -15.6730   -6.1690 C   0  0  0  0  0  0  0  0  0  0  0  0
    9.7350  -17.0450   -6.1140 C   0  0  0  0  0  0  0  0  0  0  0  0
    9.2220  -17.5810   -7.2640 N   0  0  0  0  0  0  0  0  0  0  0  0
    8.7280  -16.5850   -8.0740 C   0  0  0  0  0  0  0  0  0  0  0  0
    8.1150  -16.6660   -9.3300 C   0  0  0  0  0  0  0  0  0  0  0  0
    7.7120  -15.4710   -9.9320 C   0  0  0  0  0  0  0  0  0  0  0  0
    7.9180  -14.2450   -9.3030 C   0  0  0  0  0  0  0  0  0  0  0  0
    8.5330  -14.1830   -8.0480 C   0  0  0  0  0  0  0  0  0  0  0  0
    8.9460  -15.3740   -7.4170 C   0  0  0  0  0  0  0  0  0  0  0  0
   15.2990  -10.8460    0.0170 H   0  0  0  0  0  0  0  0  0  0  0  0
   14.7230   -9.6520    1.1340 H   0  0  0  0  0  0  0  0  0  0  0  0
   11.3648  -12.3714    0.1437 H   0  0  0  0  0  0  0  0  0  0  0  0
   10.7409  -14.0722   -1.5992 H   0  0  0  0  0  0  0  0  0  0  0  0
   14.3765  -10.6846   -2.4787 H   0  0  0  0  0  0  0  0  0  0  0  0
   13.7110  -14.9710   -6.4490 H   0  0  0  0  0  0  0  0  0  0  0  0
   11.6967  -12.9558   -7.0669 H   0  0  0  0  0  0  0  0  0  0  0  0
   13.3090  -12.6802   -7.8123 H   0  0  0  0  0  0  0  0  0  0  0  0
   13.0619  -16.1035   -7.2391 H   0  0  0  0  0  0  0  0  0  0  0  0
   12.5602  -17.8607   -8.9270 H   0  0  0  0  0  0  0  0  0  0  0  0
   11.5158  -17.2408  -11.1054 H   0  0  0  0  0  0  0  0  0  0  0  0
   10.9603  -14.8572  -11.5820 H   0  0  0  0  0  0  0  0  0  0  0  0
   11.7645  -15.9164   -4.9912 H   0  0  0  0  0  0  0  0  0  0  0  0
   10.9516  -15.5610   -3.4089 H   0  0  0  0  0  0  0  0  0  0  0  0
    9.1817  -14.5824   -4.3913 H   0  0  0  0  0  0  0  0  0  0  0  0
   10.2217  -13.7366   -5.6128 H   0  0  0  0  0  0  0  0  0  0  0  0
   10.1910  -17.6098   -5.2875 H   0  0  0  0  0  0  0  0  0  0  0  0
    9.2070  -18.5650   -7.4940 H   0  0  0  0  0  0  0  0  0  0  0  0
    7.9563  -17.6353   -9.8252 H   0  0  0  0  0  0  0  0  0  0  0  0
    7.2246  -15.4987  -10.9177 H   0  0  0  0  0  0  0  0  0  0  0  0
    7.5941  -13.3174   -9.7977 H   0  0  0  0  0  0  0  0  0  0  0  0
    8.6932  -13.2118   -7.5570 H   0  0  0  0  0  0  0  0  0  0  0  0
  1  2  1  0
  2  3  2  0
  2  4  1  0
  4  5  2  0
  5  6  1  0
  6  7  2  0
  7  8  1  0
  8  9  2  0
  8 10  1  0
 10 11  2  0
 11 12  1  0
 12 13  1  0
 13 14  1  0
 14 15  2  0
 15 16  1  0
 16 17  2  0
 17 18  1  0
 18 19  2  0
 19 20  1  0
 11 21  1  0
 21 22  1  0
 22 23  1  0
 23 24  1  0
 24 25  2  0
 25 26  1  0
 26 27  1  0
 27 28  2  0
 28 29  1  0
 29 30  2  0
 30 31  1  0
 31 32  2  0
  9  4  1  0
 19 14  1  0
 32 24  1  0
 21  7  1  0
 32 27  1  0
  1 33  1  0
  1 34  1  0
  5 35  1  0
  6 36  1  0
  9 37  1  0
 12 38  1  0
 13 39  1  0
 13 40  1  0
 15 41  1  0
 16 42  1  0
 17 43  1  0
 18 44  1  0
 22 45  1  0
 22 46  1  0
 23 47  1  0
 23 48  1  0
 25 49  1  0
 26 50  1  0
 28 51  1  0
 29 52  1  0
 30 53  1  0
 31 54  1  0
M  END
>  <meeko>  (4) 
{"is_sidechain": [false], "free_energy": -6.963, "intermolecular_energy": -9.835, "internal_energy": -3.07}

$$$$
LIB_HKBHNZWWRRRSCH__M_PUB_ALL__e8__s20260927
     RDKit          3D

 54 58  0  0  0  0  0  0  0  0999 V2000
    3.4310  -10.0030   -4.4120 N   0  0  0  0  0  0  0  0  0  0  0  0
    3.2540  -11.3530   -4.2970 C   0  0  0  0  0  0  0  0  0  0  0  0
    3.6720  -12.1090   -5.1660 O   0  0  0  0  0  0  0  0  0  0  0  0
    2.5170  -11.8630   -3.1100 C   0  0  0  0  0  0  0  0  0  0  0  0
    2.2240  -13.2350   -3.0610 C   0  0  0  0  0  0  0  0  0  0  0  0
    1.5340  -13.8020   -1.9810 C   0  0  0  0  0  0  0  0  0  0  0  0
    1.1530  -12.9350   -0.9510 C   0  0  0  0  0  0  0  0  0  0  0  0
    1.4430  -11.5760   -0.9680 C   0  0  0  0  0  0  0  0  0  0  0  0
    2.1370  -11.0210   -2.0540 C   0  0  0  0  0  0  0  0  0  0  0  0
    0.9760  -10.9570    0.1620 N   0  0  0  0  0  0  0  0  0  0  0  0
    0.4030  -11.8980    0.8770 C   0  0  0  0  0  0  0  0  0  0  0  0
   -0.1840  -11.7590    2.0790 N   0  0  0  0  0  0  0  0  0  0  0  0
   -1.2240  -10.7660    2.2530 C   0  0  0  0  0  0  0  0  0  0  0  0
   -2.4000  -11.1010    1.3630 C   0  0  0  0  0  0  0  0  0  0  0  0
   -2.7020  -10.2470    0.2870 C   0  0  0  0  0  0  0  0  0  0  0  0
   -3.7700  -10.5220   -0.5700 C   0  0  0  0  0  0  0  0  0  0  0  0
   -4.5480  -11.6580   -0.3700 C   0  0  0  0  0  0  0  0  0  0  0  0
   -4.2530  -12.5240    0.6830 C   0  0  0  0  0  0  0  0  0  0  0  0
   -3.1830  -12.2520    1.5420 C   0  0  0  0  0  0  0  0  0  0  0  0
   -2.8570  -13.3930    2.7960 Cl  0  0  0  0  0  0  0  0  0  0  0  0
    0.4840  -13.1160    0.2380 N   0  0  0  0  0  0  0  0  0  0  0  0
   -0.0210  -14.3820    0.7370 C   0  0  0  0  0  0  0  0  0  0  0  0
    1.0990  -15.2610    1.2890 C   0  0  0  0  0  0  0  0  0  0  0  0
    0.6280  -16.1090    2.4260 C   0  0  0  0  0  0  0  0  0  0  0  0
    0.4010  -17.4710    2.3920 C   0  0  0  0  0  0  0  0  0  0  0  0
   -0.0150  -17.8680    3.6340 N   0  0  0  0  0  0  0  0  0  0  0  0
   -0.0600  -16.7910    4.4880 C   0  0  0  0  0  0  0  0  0  0  0  0
   -0.4210  -16.7270    5.8400 C   0  0  0  0  0  0  0  0  0  0  0  0
   -0.3790  -15.4770    6.4620 C   0  0  0  0  0  0  0  0  0  0  0  0
    0.0050  -14.3370    5.7590 C   0  0  0  0  0  0  0  0  0  0  0  0
    0.3620  -14.4200    4.4080 C   0  0  0  0  0  0  0  0  0  0  0  0
    0.3310  -15.6700    3.7570 C   0  0  0  0  0  0  0  0  0  0  0  0
    3.0460   -9.3190   -3.7780 H   0  0  0  0  0  0  0  0  0  0  0  0
    3.9280   -9.6720   -5.2270 H   0  0  0  0  0  0  0  0  0  0  0  0
    2.5441  -13.8815   -3.8914 H   0  0  0  0  0  0  0  0  0  0  0  0
    1.3031  -14.8769   -1.9448 H   0  0  0  0  0  0  0  0  0  0  0  0
    2.3781   -9.9480   -2.0769 H   0  0  0  0  0  0  0  0  0  0  0  0
    0.1290  -12.2310    2.9180 H   0  0  0  0  0  0  0  0  0  0  0  0
   -1.5505  -10.7582    3.3034 H   0  0  0  0  0  0  0  0  0  0  0  0
   -0.8315   -9.7749    1.9817 H   0  0  0  0  0  0  0  0  0  0  0  0
   -2.0884   -9.3498    0.1181 H   0  0  0  0  0  0  0  0  0  0  0  0
   -3.9961   -9.8403   -1.4032 H   0  0  0  0  0  0  0  0  0  0  0  0
   -5.3933  -11.8726   -1.0403 H   0  0  0  0  0  0  0  0  0  0  0  0
   -4.8646  -13.4250    0.8386 H   0  0  0  0  0  0  0  0  0  0  0  0
   -0.7469  -14.1844    1.5395 H   0  0  0  0  0  0  0  0  0  0  0  0
   -0.4935  -14.9159   -0.1007 H   0  0  0  0  0  0  0  0  0  0  0  0
    1.4674  -15.9154    0.4852 H   0  0  0  0  0  0  0  0  0  0  0  0
    1.8989  -14.6036    1.6605 H   0  0  0  0  0  0  0  0  0  0  0  0
    0.5321  -18.1245    1.5169 H   0  0  0  0  0  0  0  0  0  0  0  0
   -0.2580  -18.8140    3.8940 H   0  0  0  0  0  0  0  0  0  0  0  0
   -0.7264  -17.6283    6.3917 H   0  0  0  0  0  0  0  0  0  0  0  0
   -0.6535  -15.3913    7.5238 H   0  0  0  0  0  0  0  0  0  0  0  0
    0.0278  -13.3632    6.2701 H   0  0  0  0  0  0  0  0  0  0  0  0
    0.6645  -13.5165    3.8584 H   0  0  0  0  0  0  0  0  0  0  0  0
  1  2  1  0
  2  3  2  0
  2  4  1  0
  4  5  2  0
  5  6  1  0
  6  7  2  0
  7  8  1  0
  8  9  2  0
  8 10  1  0
 10 11  2  0
 11 12  1  0
 12 13  1  0
 13 14  1  0
 14 15  2  0
 15 16  1  0
 16 17  2  0
 17 18  1  0
 18 19  2  0
 19 20  1  0
 11 21  1  0
 21 22  1  0
 22 23  1  0
 23 24  1  0
 24 25  2  0
 25 26  1  0
 26 27  1  0
 27 28  2  0
 28 29  1  0
 29 30  2  0
 30 31  1  0
 31 32  2  0
  9  4  1  0
 19 14  1  0
 32 24  1  0
 21  7  1  0
 32 27  1  0
  1 33  1  0
  1 34  1  0
  5 35  1  0
  6 36  1  0
  9 37  1  0
 12 38  1  0
 13 39  1  0
 13 40  1  0
 15 41  1  0
 16 42  1  0
 17 43  1  0
 18 44  1  0
 22 45  1  0
 22 46  1  0
 23 47  1  0
 23 48  1  0
 25 49  1  0
 26 50  1  0
 28 51  1  0
 29 52  1  0
 30 53  1  0
 31 54  1  0
M  END
>  <meeko>  (5) 
{"is_sidechain": [false], "free_energy": -6.938, "intermolecular_energy": -11.336, "internal_energy": -1.535}

$$$$
LIB_HKBHNZWWRRRSCH__M_PUB_ALL__e8__s20260927
     RDKit          3D

 54 58  0  0  0  0  0  0  0  0999 V2000
    8.0570  -16.4670  -10.3980 N   0  0  0  0  0  0  0  0  0  0  0  0
    7.6420  -15.1780  -10.2160 C   0  0  0  0  0  0  0  0  0  0  0  0
    7.7200  -14.3660  -11.1300 O   0  0  0  0  0  0  0  0  0  0  0  0
    7.1280  -14.7930   -8.8740 C   0  0  0  0  0  0  0  0  0  0  0  0
    7.3800  -15.6630   -7.8020 C   0  0  0  0  0  0  0  0  0  0  0  0
    6.9330  -15.3800   -6.5040 C   0  0  0  0  0  0  0  0  0  0  0  0
    6.2260  -14.1850   -6.3270 C   0  0  0  0  0  0  0  0  0  0  0  0
    5.9750  -13.3000   -7.3680 C   0  0  0  0  0  0  0  0  0  0  0  0
    6.4300  -13.5940   -8.6630 C   0  0  0  0  0  0  0  0  0  0  0  0
    5.2810  -12.2040   -6.9280 N   0  0  0  0  0  0  0  0  0  0  0  0
    5.0940  -12.3880   -5.6410 C   0  0  0  0  0  0  0  0  0  0  0  0
    4.4710  -11.5590   -4.7850 N   0  0  0  0  0  0  0  0  0  0  0  0
    3.0290  -11.6170   -4.6610 C   0  0  0  0  0  0  0  0  0  0  0  0
    2.6570  -12.2270   -3.3280 C   0  0  0  0  0  0  0  0  0  0  0  0
    3.0740  -11.5840   -2.1470 C   0  0  0  0  0  0  0  0  0  0  0  0
    2.7430  -12.1030   -0.8930 C   0  0  0  0  0  0  0  0  0  0  0  0
    1.9850  -13.2660   -0.7980 C   0  0  0  0  0  0  0  0  0  0  0  0
    1.5500  -13.9060   -1.9590 C   0  0  0  0  0  0  0  0  0  0  0  0
    1.8780  -13.3890   -3.2170 C   0  0  0  0  0  0  0  0  0  0  0  0
    1.2690  -14.2170   -4.6040 Cl  0  0  0  0  0  0  0  0  0  0  0  0
    5.6490  -13.5810   -5.2320 N   0  0  0  0  0  0  0  0  0  0  0  0
    5.6540  -14.1070   -3.8800 C   0  0  0  0  0  0  0  0  0  0  0  0
    6.9910  -13.8630   -3.1820 C   0  0  0  0  0  0  0  0  0  0  0  0
    6.9130  -12.7210   -2.2200 C   0  0  0  0  0  0  0  0  0  0  0  0
    7.2950  -11.4170   -2.4670 C   0  0  0  0  0  0  0  0  0  0  0  0
    7.0600  -10.6800   -1.3370 N   0  0  0  0  0  0  0  0  0  0  0  0
    6.5230  -11.4760   -0.3520 C   0  0  0  0  0  0  0  0  0  0  0  0
    6.1270  -11.1540    0.9520 C   0  0  0  0  0  0  0  0  0  0  0  0
    5.6130  -12.1830    1.7450 C   0  0  0  0  0  0  0  0  0  0  0  0
    5.5050  -13.4820    1.2540 C   0  0  0  0  0  0  0  0  0  0  0  0
    5.9070  -13.7870   -0.0510 C   0  0  0  0  0  0  0  0  0  0  0  0
    6.4260  -12.7660   -0.8740 C   0  0  0  0  0  0  0  0  0  0  0  0
    8.0960  -17.1650   -9.6710 H   0  0  0  0  0  0  0  0  0  0  0  0
    8.4100  -16.7120  -11.3140 H   0  0  0  0  0  0  0  0  0  0  0  0
    7.9425  -16.5904   -7.9850 H   0  0  0  0  0  0  0  0  0  0  0  0
    7.1284  -16.0640   -5.6650 H   0  0  0  0  0  0  0  0  0  0  0  0
    6.2433  -12.8991   -9.4950 H   0  0  0  0  0  0  0  0  0  0  0  0
    4.9330  -10.8080   -4.2900 H   0  0  0  0  0  0  0  0  0  0  0  0
    2.6150  -10.5999   -4.7261 H   0  0  0  0  0  0  0  0  0  0  0  0
    2.6178  -12.2354   -5.4725 H   0  0  0  0  0  0  0  0  0  0  0  0
    3.6683  -10.6607   -2.2126 H   0  0  0  0  0  0  0  0  0  0  0  0
    3.0819  -11.5918    0.0202 H   0  0  0  0  0  0  0  0  0  0  0  0
    1.7296  -13.6793    0.1889 H   0  0  0  0  0  0  0  0  0  0  0  0
    0.9458  -14.8222   -1.8848 H   0  0  0  0  0  0  0  0  0  0  0  0
    4.8564  -13.6155   -3.3036 H   0  0  0  0  0  0  0  0  0  0  0  0
    5.4898  -15.1933   -3.9348 H   0  0  0  0  0  0  0  0  0  0  0  0
    7.2777  -14.7722   -2.6333 H   0  0  0  0  0  0  0  0  0  0  0  0
    7.7380  -13.6137   -3.9500 H   0  0  0  0  0  0  0  0  0  0  0  0
    7.7156  -11.0360   -3.4093 H   0  0  0  0  0  0  0  0  0  0  0  0
    7.2520   -9.6930   -1.2330 H   0  0  0  0  0  0  0  0  0  0  0  0
    6.2174  -10.1279    1.3380 H   0  0  0  0  0  0  0  0  0  0  0  0
    5.2886  -11.9639    2.7730 H   0  0  0  0  0  0  0  0  0  0  0  0
    5.0997  -14.2759    1.8986 H   0  0  0  0  0  0  0  0  0  0  0  0
    5.8189  -14.8151   -0.4321 H   0  0  0  0  0  0  0  0  0  0  0  0
  1  2  1  0
  2  3  2  0
  2  4  1  0
  4  5  2  0
  5  6  1  0
  6  7  2  0
  7  8  1  0
  8  9  2  0
  8 10  1  0
 10 11  2  0
 11 12  1  0
 12 13  1  0
 13 14  1  0
 14 15  2  0
 15 16  1  0
 16 17  2  0
 17 18  1  0
 18 19  2  0
 19 20  1  0
 11 21  1  0
 21 22  1  0
 22 23  1  0
 23 24  1  0
 24 25  2  0
 25 26  1  0
 26 27  1  0
 27 28  2  0
 28 29  1  0
 29 30  2  0
 30 31  1  0
 31 32  2  0
  9  4  1  0
 19 14  1  0
 32 24  1  0
 21  7  1  0
 32 27  1  0
  1 33  1  0
  1 34  1  0
  5 35  1  0
  6 36  1  0
  9 37  1  0
 12 38  1  0
 13 39  1  0
 13 40  1  0
 15 41  1  0
 16 42  1  0
 17 43  1  0
 18 44  1  0
 22 45  1  0
 22 46  1  0
 23 47  1  0
 23 48  1  0
 25 49  1  0
 26 50  1  0
 28 51  1  0
 29 52  1  0
 30 53  1  0
 31 54  1  0
M  END
>  <meeko>  (6) 
{"is_sidechain": [false], "free_energy": -6.895, "intermolecular_energy": -10.301, "internal_energy": -2.509}

$$$$
LIB_HKBHNZWWRRRSCH__M_PUB_ALL__e8__s20260927
     RDKit          3D

 54 58  0  0  0  0  0  0  0  0999 V2000
    4.8560  -11.4800   -7.3470 N   0  0  0  0  0  0  0  0  0  0  0  0
    4.8810  -12.6160   -6.5890 C   0  0  0  0  0  0  0  0  0  0  0  0
    5.4660  -13.6160   -6.9880 O   0  0  0  0  0  0  0  0  0  0  0  0
    4.1530  -12.6070   -5.2910 C   0  0  0  0  0  0  0  0  0  0  0  0
    4.3390  -11.5030   -4.4440 C   0  0  0  0  0  0  0  0  0  0  0  0
    3.6940  -11.4100   -3.2040 C   0  0  0  0  0  0  0  0  0  0  0  0
    2.8510  -12.4700   -2.8510 C   0  0  0  0  0  0  0  0  0  0  0  0
    2.6370  -13.5670   -3.6770 C   0  0  0  0  0  0  0  0  0  0  0  0
    3.2880  -13.6460   -4.9180 C   0  0  0  0  0  0  0  0  0  0  0  0
    1.7600  -14.4500   -3.1060 N   0  0  0  0  0  0  0  0  0  0  0  0
    1.4250  -13.9300   -1.9480 C   0  0  0  0  0  0  0  0  0  0  0  0
    0.5690  -14.4420   -1.0460 N   0  0  0  0  0  0  0  0  0  0  0  0
    1.0610  -15.3610   -0.0400 C   0  0  0  0  0  0  0  0  0  0  0  0
    0.3540  -15.1050    1.2720 C   0  0  0  0  0  0  0  0  0  0  0  0
    0.8440  -14.0970    2.1220 C   0  0  0  0  0  0  0  0  0  0  0  0
    0.2170  -13.8160    3.3380 C   0  0  0  0  0  0  0  0  0  0  0  0
   -0.9140  -14.5320    3.7200 C   0  0  0  0  0  0  0  0  0  0  0  0
   -1.4220  -15.5240    2.8810 C   0  0  0  0  0  0  0  0  0  0  0  0
   -0.7970  -15.8070    1.6620 C   0  0  0  0  0  0  0  0  0  0  0  0
   -1.5090  -17.0220    0.6630 Cl  0  0  0  0  0  0  0  0  0  0  0  0
    2.0660  -12.7270   -1.7490 N   0  0  0  0  0  0  0  0  0  0  0  0
    1.9250  -11.8600   -0.5940 C   0  0  0  0  0  0  0  0  0  0  0  0
    0.9940  -10.6830   -0.8780 C   0  0  0  0  0  0  0  0  0  0  0  0
    0.1930  -10.3070    0.3260 C   0  0  0  0  0  0  0  0  0  0  0  0
    0.4110   -9.2170    1.1460 C   0  0  0  0  0  0  0  0  0  0  0  0
   -0.5400   -9.2230    2.1300 N   0  0  0  0  0  0  0  0  0  0  0  0
   -1.3850  -10.2960    1.9710 C   0  0  0  0  0  0  0  0  0  0  0  0
   -2.4900  -10.6950    2.7310 C   0  0  0  0  0  0  0  0  0  0  0  0
   -3.1680  -11.8500    2.3330 C   0  0  0  0  0  0  0  0  0  0  0  0
   -2.7530  -12.5770    1.2190 C   0  0  0  0  0  0  0  0  0  0  0  0
   -1.6460  -12.1650    0.4710 C   0  0  0  0  0  0  0  0  0  0  0  0
   -0.9450  -11.0010    0.8500 C   0  0  0  0  0  0  0  0  0  0  0  0
    4.3300  -10.6500   -7.1180 H   0  0  0  0  0  0  0  0  0  0  0  0
    5.3500  -11.5050   -8.2290 H   0  0  0  0  0  0  0  0  0  0  0  0
    5.0084  -10.6902   -4.7622 H   0  0  0  0  0  0  0  0  0  0  0  0
    3.8428  -10.5458   -2.5399 H   0  0  0  0  0  0  0  0  0  0  0  0
    3.1231  -14.5054   -5.5845 H   0  0  0  0  0  0  0  0  0  0  0  0
   -0.4340  -14.3150   -1.0840 H   0  0  0  0  0  0  0  0  0  0  0  0
    0.8689  -16.3947   -0.3635 H   0  0  0  0  0  0  0  0  0  0  0  0
    2.1426  -15.2111    0.0932 H   0  0  0  0  0  0  0  0  0  0  0  0
    1.7334  -13.5220    1.8249 H   0  0  0  0  0  0  0  0  0  0  0  0
    0.6170  -13.0288    3.9939 H   0  0  0  0  0  0  0  0  0  0  0  0
   -1.4055  -14.3163    4.6802 H   0  0  0  0  0  0  0  0  0  0  0  0
   -2.3188  -16.0866    3.1796 H   0  0  0  0  0  0  0  0  0  0  0  0
    1.5144  -12.4450    0.2422 H   0  0  0  0  0  0  0  0  0  0  0  0
    2.9182  -11.4578   -0.3453 H   0  0  0  0  0  0  0  0  0  0  0  0
    1.5982   -9.8177   -1.1883 H   0  0  0  0  0  0  0  0  0  0  0  0
    0.2960  -10.9830   -1.6735 H   0  0  0  0  0  0  0  0  0  0  0  0
    1.2117   -8.4720    1.0282 H   0  0  0  0  0  0  0  0  0  0  0  0
   -0.6160   -8.5420    2.8730 H   0  0  0  0  0  0  0  0  0  0  0  0
   -2.8135  -10.1196    3.6109 H   0  0  0  0  0  0  0  0  0  0  0  0
   -4.0422  -12.1904    2.9074 H   0  0  0  0  0  0  0  0  0  0  0  0
   -3.3018  -13.4840    0.9252 H   0  0  0  0  0  0  0  0  0  0  0  0
   -1.3239  -12.7444   -0.4068 H   0  0  0  0  0  0  0  0  0  0  0  0
  1  2  1  0
  2  3  2  0
  2  4  1  0
  4  5  2  0
  5  6  1  0
  6  7  2  0
  7  8  1  0
  8  9  2  0
  8 10  1  0
 10 11  2  0
 11 12  1  0
 12 13  1  0
 13 14  1  0
 14 15  2  0
 15 16  1  0
 16 17  2  0
 17 18  1  0
 18 19  2  0
 19 20  1  0
 11 21  1  0
 21 22  1  0
 22 23  1  0
 23 24  1  0
 24 25  2  0
 25 26  1  0
 26 27  1  0
 27 28  2  0
 28 29  1  0
 29 30  2  0
 30 31  1  0
 31 32  2  0
  9  4  1  0
 19 14  1  0
 32 24  1  0
 21  7  1  0
 32 27  1  0
  1 33  1  0
  1 34  1  0
  5 35  1  0
  6 36  1  0
  9 37  1  0
 12 38  1  0
 13 39  1  0
 13 40  1  0
 15 41  1  0
 16 42  1  0
 17 43  1  0
 18 44  1  0
 22 45  1  0
 22 46  1  0
 23 47  1  0
 23 48  1  0
 25 49  1  0
 26 50  1  0
 28 51  1  0
 29 52  1  0
 30 53  1  0
 31 54  1  0
M  END
>  <meeko>  (7) 
{"is_sidechain": [false], "free_energy": -6.837, "intermolecular_energy": -10.137, "internal_energy": -2.591}

$$$$
LIB_HKBHNZWWRRRSCH__M_PUB_ALL__e8__s20260927
     RDKit          3D

 54 58  0  0  0  0  0  0  0  0999 V2000
    3.3060  -10.0520   -4.1040 N   0  0  0  0  0  0  0  0  0  0  0  0
    3.0650  -11.3960   -4.0470 C   0  0  0  0  0  0  0  0  0  0  0  0
    3.4270  -12.1300   -4.9590 O   0  0  0  0  0  0  0  0  0  0  0  0
    2.3280  -11.9240   -2.8680 C   0  0  0  0  0  0  0  0  0  0  0  0
    1.9730  -13.2820   -2.8720 C   0  0  0  0  0  0  0  0  0  0  0  0
    1.2770  -13.8640   -1.8040 C   0  0  0  0  0  0  0  0  0  0  0  0
    0.9570  -13.0270   -0.7290 C   0  0  0  0  0  0  0  0  0  0  0  0
    1.3090  -11.6830   -0.6930 C   0  0  0  0  0  0  0  0  0  0  0  0
    2.0070  -11.1130   -1.7690 C   0  0  0  0  0  0  0  0  0  0  0  0
    0.8920  -11.0950    0.4720 N   0  0  0  0  0  0  0  0  0  0  0  0
    0.2900  -12.0400    1.1580 C   0  0  0  0  0  0  0  0  0  0  0  0
   -0.2660  -11.9280    2.3770 N   0  0  0  0  0  0  0  0  0  0  0  0
   -1.4310  -11.0850    2.5530 C   0  0  0  0  0  0  0  0  0  0  0  0
   -2.6410  -11.7560    1.9410 C   0  0  0  0  0  0  0  0  0  0  0  0
   -3.2980  -12.7650    2.6680 C   0  0  0  0  0  0  0  0  0  0  0  0
   -4.4270  -13.4040    2.1500 C   0  0  0  0  0  0  0  0  0  0  0  0
   -4.9220  -13.0390    0.9020 C   0  0  0  0  0  0  0  0  0  0  0  0
   -4.2910  -12.0290    0.1740 C   0  0  0  0  0  0  0  0  0  0  0  0
   -3.1620  -11.3860    0.6910 C   0  0  0  0  0  0  0  0  0  0  0  0
   -2.4630  -10.1200   -0.2520 Cl  0  0  0  0  0  0  0  0  0  0  0  0
    0.3030  -13.2310    0.4650 N   0  0  0  0  0  0  0  0  0  0  0  0
   -0.2500  -14.4930    0.9190 C   0  0  0  0  0  0  0  0  0  0  0  0
    0.7960  -15.3470    1.6320 C   0  0  0  0  0  0  0  0  0  0  0  0
    1.3650  -16.3940    0.7290 C   0  0  0  0  0  0  0  0  0  0  0  0
    0.6520  -17.3590    0.0440 C   0  0  0  0  0  0  0  0  0  0  0  0
    1.5360  -18.1180   -0.6730 N   0  0  0  0  0  0  0  0  0  0  0  0
    2.8210  -17.6650   -0.4780 C   0  0  0  0  0  0  0  0  0  0  0  0
    4.0310  -18.1300   -1.0060 C   0  0  0  0  0  0  0  0  0  0  0  0
    5.2010  -17.4710   -0.6220 C   0  0  0  0  0  0  0  0  0  0  0  0
    5.1610  -16.3930    0.2600 C   0  0  0  0  0  0  0  0  0  0  0  0
    3.9430  -15.9430    0.7800 C   0  0  0  0  0  0  0  0  0  0  0  0
    2.7460  -16.5880    0.4050 C   0  0  0  0  0  0  0  0  0  0  0  0
    2.9680   -9.3800   -3.4310 H   0  0  0  0  0  0  0  0  0  0  0  0
    3.8020   -9.7080   -4.9150 H   0  0  0  0  0  0  0  0  0  0  0  0
    2.2482  -13.9053   -3.7356 H   0  0  0  0  0  0  0  0  0  0  0  0
    0.9958  -14.9274   -1.8103 H   0  0  0  0  0  0  0  0  0  0  0  0
    2.2965  -10.0519   -1.7510 H   0  0  0  0  0  0  0  0  0  0  0  0
    0.1410  -12.3100    3.2200 H   0  0  0  0  0  0  0  0  0  0  0  0
   -1.6065  -10.9228    3.6267 H   0  0  0  0  0  0  0  0  0  0  0  0
   -1.2601  -10.1180    2.0572 H   0  0  0  0  0  0  0  0  0  0  0  0
   -2.9174  -13.0550    3.6585 H   0  0  0  0  0  0  0  0  0  0  0  0
   -4.9248  -14.1959    2.7289 H   0  0  0  0  0  0  0  0  0  0  0  0
   -5.8078  -13.5448    0.4903 H   0  0  0  0  0  0  0  0  0  0  0  0
   -4.6838  -11.7374   -0.8112 H   0  0  0  0  0  0  0  0  0  0  0  0
   -1.0776  -14.2894    1.6145 H   0  0  0  0  0  0  0  0  0  0  0  0
   -0.6019  -15.0489    0.0374 H   0  0  0  0  0  0  0  0  0  0  0  0
    1.6110  -14.6954    1.9800 H   0  0  0  0  0  0  0  0  0  0  0  0
    0.3068  -15.8528    2.4775 H   0  0  0  0  0  0  0  0  0  0  0  0
   -0.4394  -17.4939    0.0706 H   0  0  0  0  0  0  0  0  0  0  0  0
    1.2900  -18.9010   -1.2630 H   0  0  0  0  0  0  0  0  0  0  0  0
    4.0594  -18.9840   -1.6987 H   0  0  0  0  0  0  0  0  0  0  0  0
    6.1687  -17.8081   -1.0219 H   0  0  0  0  0  0  0  0  0  0  0  0
    6.0960  -15.8912    0.5500 H   0  0  0  0  0  0  0  0  0  0  0  0
    3.9188  -15.0920    1.4766 H   0  0  0  0  0  0  0  0  0  0  0  0
  1  2  1  0
  2  3  2  0
  2  4  1  0
  4  5  2  0
  5  6  1  0
  6  7  2  0
  7  8  1  0
  8  9  2  0
  8 10  1  0
 10 11  2  0
 11 12  1  0
 12 13  1  0
 13 14  1  0
 14 15  2  0
 15 16  1  0
 16 17  2  0
 17 18  1  0
 18 19  2  0
 19 20  1  0
 11 21  1  0
 21 22  1  0
 22 23  1  0
 23 24  1  0
 24 25  2  0
 25 26  1  0
 26 27  1  0
 27 28  2  0
 28 29  1  0
 29 30  2  0
 30 31  1  0
 31 32  2  0
  9  4  1  0
 19 14  1  0
 32 24  1  0
 21  7  1  0
 32 27  1  0
  1 33  1  0
  1 34  1  0
  5 35  1  0
  6 36  1  0
  9 37  1  0
 12 38  1  0
 13 39  1  0
 13 40  1  0
 15 41  1  0
 16 42  1  0
 17 43  1  0
 18 44  1  0
 22 45  1  0
 22 46  1  0
 23 47  1  0
 23 48  1  0
 25 49  1  0
 26 50  1  0
 28 51  1  0
 29 52  1  0
 30 53  1  0
 31 54  1  0
M  END
>  <meeko>  (8) 
{"is_sidechain": [false], "free_energy": -6.805, "intermolecular_energy": -10.844, "internal_energy": -1.839}

$$$$
LIB_HKBHNZWWRRRSCH__M_PUB_ALL__e8__s20260927
     RDKit          3D

 54 58  0  0  0  0  0  0  0  0999 V2000
    1.4530  -16.9900    6.1320 N   0  0  0  0  0  0  0  0  0  0  0  0
    0.1810  -16.5150    5.9850 C   0  0  0  0  0  0  0  0  0  0  0  0
   -0.5880  -16.4950    6.9380 O   0  0  0  0  0  0  0  0  0  0  0  0
   -0.2420  -16.0570    4.6340 C   0  0  0  0  0  0  0  0  0  0  0  0
   -1.5760  -16.2760    4.2560 C   0  0  0  0  0  0  0  0  0  0  0  0
   -2.0600  -15.8790    3.0030 C   0  0  0  0  0  0  0  0  0  0  0  0
   -1.1510  -15.2480    2.1460 C   0  0  0  0  0  0  0  0  0  0  0  0
    0.1710  -15.0060    2.5000 C   0  0  0  0  0  0  0  0  0  0  0  0
    0.6430  -15.4070    3.7600 C   0  0  0  0  0  0  0  0  0  0  0  0
    0.8420  -14.3640    1.4940 N   0  0  0  0  0  0  0  0  0  0  0  0
   -0.0290  -14.2030    0.5240 C   0  0  0  0  0  0  0  0  0  0  0  0
    0.1780  -13.6050   -0.6620 N   0  0  0  0  0  0  0  0  0  0  0  0
    1.0670  -14.2220   -1.6250 C   0  0  0  0  0  0  0  0  0  0  0  0
    1.7460  -13.1510   -2.4490 C   0  0  0  0  0  0  0  0  0  0  0  0
    2.4300  -12.1150   -1.7860 C   0  0  0  0  0  0  0  0  0  0  0  0
    3.0820  -11.1110   -2.5050 C   0  0  0  0  0  0  0  0  0  0  0  0
    3.0700  -11.1310   -3.8970 C   0  0  0  0  0  0  0  0  0  0  0  0
    2.4100  -12.1590   -4.5690 C   0  0  0  0  0  0  0  0  0  0  0  0
    1.7570  -13.1670   -3.8520 C   0  0  0  0  0  0  0  0  0  0  0  0
    0.9980  -14.4270   -4.7570 Cl  0  0  0  0  0  0  0  0  0  0  0  0
   -1.2540  -14.7280    0.8750 N   0  0  0  0  0  0  0  0  0  0  0  0
   -2.4580  -14.7160    0.0650 C   0  0  0  0  0  0  0  0  0  0  0  0
   -3.5820  -13.9250    0.7300 C   0  0  0  0  0  0  0  0  0  0  0  0
   -3.3780  -12.4500    0.5910 C   0  0  0  0  0  0  0  0  0  0  0  0
   -3.8070  -11.6610   -0.4590 C   0  0  0  0  0  0  0  0  0  0  0  0
   -3.4300  -10.3700   -0.2060 N   0  0  0  0  0  0  0  0  0  0  0  0
   -2.7650  -10.2930    0.9960 C   0  0  0  0  0  0  0  0  0  0  0  0
   -2.2090   -9.1870    1.6500 C   0  0  0  0  0  0  0  0  0  0  0  0
   -1.5780   -9.4100    2.8760 C   0  0  0  0  0  0  0  0  0  0  0  0
   -1.5040  -10.6900    3.4230 C   0  0  0  0  0  0  0  0  0  0  0  0
   -2.0650  -11.7840    2.7560 C   0  0  0  0  0  0  0  0  0  0  0  0
   -2.7100  -11.5860    1.5170 C   0  0  0  0  0  0  0  0  0  0  0  0
    2.1120  -17.1080    5.3770 H   0  0  0  0  0  0  0  0  0  0  0  0
    1.7240  -17.3030    7.0550 H   0  0  0  0  0  0  0  0  0  0  0  0
   -2.2586  -16.7720    4.9617 H   0  0  0  0  0  0  0  0  0  0  0  0
   -3.1047  -16.0548    2.7067 H   0  0  0  0  0  0  0  0  0  0  0  0
    1.6850  -15.2157    4.0560 H   0  0  0  0  0  0  0  0  0  0  0  0
   -0.1630  -12.6810   -0.8950 H   0  0  0  0  0  0  0  0  0  0  0  0
    1.8281  -14.8128   -1.0943 H   0  0  0  0  0  0  0  0  0  0  0  0
    0.4863  -14.8796   -2.2886 H   0  0  0  0  0  0  0  0  0  0  0  0
    2.4513  -12.0959   -0.6864 H   0  0  0  0  0  0  0  0  0  0  0  0
    3.6053  -10.3040   -1.9713 H   0  0  0  0  0  0  0  0  0  0  0  0
    3.5795  -10.3385   -4.4647 H   0  0  0  0  0  0  0  0  0  0  0  0
    2.4028  -12.1774   -5.6688 H   0  0  0  0  0  0  0  0  0  0  0  0
   -2.2277  -14.2577   -0.9081 H   0  0  0  0  0  0  0  0  0  0  0  0
   -2.7977  -15.7551   -0.0573 H   0  0  0  0  0  0  0  0  0  0  0  0
   -4.5375  -14.1986    0.2588 H   0  0  0  0  0  0  0  0  0  0  0  0
   -3.5864  -14.1709    1.8022 H   0  0  0  0  0  0  0  0  0  0  0  0
   -4.3568  -12.0103   -1.3454 H   0  0  0  0  0  0  0  0  0  0  0  0
   -3.6080   -9.5800   -0.8120 H   0  0  0  0  0  0  0  0  0  0  0  0
   -2.2670   -8.1787    1.2140 H   0  0  0  0  0  0  0  0  0  0  0  0
   -1.1327   -8.5627    3.4181 H   0  0  0  0  0  0  0  0  0  0  0  0
   -0.9995  -10.8412    4.3887 H   0  0  0  0  0  0  0  0  0  0  0  0
   -2.0037  -12.7911    3.1942 H   0  0  0  0  0  0  0  0  0  0  0  0
  1  2  1  0
  2  3  2  0
  2  4  1  0
  4  5  2  0
  5  6  1  0
  6  7  2  0
  7  8  1  0
  8  9  2  0
  8 10  1  0
 10 11  2  0
 11 12  1  0
 12 13  1  0
 13 14  1  0
 14 15  2  0
 15 16  1  0
 16 17  2  0
 17 18  1  0
 18 19  2  0
 19 20  1  0
 11 21  1  0
 21 22  1  0
 22 23  1  0
 23 24  1  0
 24 25  2  0
 25 26  1  0
 26 27  1  0
 27 28  2  0
 28 29  1  0
 29 30  2  0
 30 31  1  0
 31 32  2  0
  9  4  1  0
 19 14  1  0
 32 24  1  0
 21  7  1  0
 32 27  1  0
  1 33  1  0
  1 34  1  0
  5 35  1  0
  6 36  1  0
  9 37  1  0
 12 38  1  0
 13 39  1  0
 13 40  1  0
 15 41  1  0
 16 42  1  0
 17 43  1  0
 18 44  1  0
 22 45  1  0
 22 46  1  0
 23 47  1  0
 23 48  1  0
 25 49  1  0
 26 50  1  0
 28 51  1  0
 29 52  1  0
 30 53  1  0
 31 54  1  0
M  END
>  <meeko>  (9) 
{"is_sidechain": [false], "free_energy": -6.725, "intermolecular_energy": -11.002, "internal_energy": -1.569}

$$$$
