LIB_HTEUQPWFMDGLKN__M_PUB_ALL__e8__s20260927
     RDKit          3D

 78 83  0  0  0  0  0  0  0  0999 V2000
    0.9040  -17.4500    7.7780 C   0  0  0  0  0  0  0  0  0  0  0  0
   -0.3920  -17.2090    7.0280 C   0  0  0  0  0  0  0  0  0  0  0  0
   -0.2130  -16.3720    5.7890 N   0  0  0  0  0  0  0  0  0  0  0  0
   -1.5120  -16.0040    5.0780 C   0  0  0  0  0  0  0  0  0  0  0  0
   -1.2120  -15.3580    3.7080 C   0  0  0  0  0  0  0  0  0  0  0  0
   -0.2560  -14.2410    3.8380 N   0  0  0  0  0  0  0  0  0  0  0  0
   -0.2180  -13.3050    2.8050 C   0  0  0  0  0  0  0  0  0  0  0  0
    0.5390  -13.4990    1.6420 C   0  0  0  0  0  0  0  0  0  0  0  0
    0.5890  -12.5410    0.6140 C   0  0  0  0  0  0  0  0  0  0  0  0
    1.4420  -12.8430   -0.5720 C   0  0  0  0  0  0  0  0  0  0  0  0
    1.0590  -13.7270   -1.3320 O   0  0  0  0  0  0  0  0  0  0  0  0
    2.5640  -12.0540   -0.7110 N   0  0  0  0  0  0  0  0  0  0  0  0
    3.5640  -12.1500   -1.7050 C   0  0  0  0  0  0  0  0  0  0  0  0
    3.4820  -11.5520   -2.9550 C   0  0  0  0  0  0  0  0  0  0  0  0
    4.5240  -11.7060   -3.8710 C   0  0  0  0  0  0  0  0  0  0  0  0
    5.6660  -12.4630   -3.5530 C   0  0  0  0  0  0  0  0  0  0  0  0
    6.7520  -12.5780   -4.5900 C   0  0  0  0  0  0  0  0  0  0  0  0
    5.7640  -13.0900   -2.2900 C   0  0  0  0  0  0  0  0  0  0  0  0
    6.9120  -13.8460   -1.9680 N   0  0  0  0  0  0  0  0  0  0  0  0
    8.1320  -13.4400   -1.5240 C   0  0  0  0  0  0  0  0  0  0  0  0
    9.2910  -13.5070   -2.1450 N   0  0  0  0  0  0  0  0  0  0  0  0
   10.2030  -12.9180   -1.3220 C   0  0  0  0  0  0  0  0  0  0  0  0
   11.5690  -12.6920   -1.5580 C   0  0  0  0  0  0  0  0  0  0  0  0
   12.3180  -11.9960   -0.6060 C   0  0  0  0  0  0  0  0  0  0  0  0
   11.7120  -11.5160    0.5510 C   0  0  0  0  0  0  0  0  0  0  0  0
   10.3520  -11.7400    0.8050 C   0  0  0  0  0  0  0  0  0  0  0  0
    9.6160  -12.4860   -0.1350 C   0  0  0  0  0  0  0  0  0  0  0  0
    8.2920  -12.9170   -0.2280 N   0  0  0  0  0  0  0  0  0  0  0  0
    7.2630  -12.8600    0.7740 C   0  0  0  0  0  0  0  0  0  0  0  0
    6.6340  -11.6670    1.0710 C   0  0  0  0  0  0  0  0  0  0  0  0
    5.6560  -11.7000    2.0420 C   0  0  0  0  0  0  0  0  0  0  0  0
    5.0110  -10.5450    2.4350 N   0  0  0  0  0  0  0  0  0  0  0  0
    5.3340  -12.8130    2.7050 N   0  0  0  0  0  0  0  0  0  0  0  0
    6.0120  -13.9170    2.3760 C   0  0  0  0  0  0  0  0  0  0  0  0
    6.9770  -14.0020    1.4490 N   0  0  0  0  0  0  0  0  0  0  0  0
    4.7010  -12.9100   -1.3880 C   0  0  0  0  0  0  0  0  0  0  0  0
   -0.1170  -11.3430    0.7490 C   0  0  0  0  0  0  0  0  0  0  0  0
   -0.8930  -11.1180    1.8930 C   0  0  0  0  0  0  0  0  0  0  0  0
   -1.6390   -9.8170    2.0750 C   0  0  0  0  0  0  0  0  0  0  0  0
   -0.8020   -8.7720    2.3050 F   0  0  0  0  0  0  0  0  0  0  0  0
   -2.4980   -9.8530    3.1320 F   0  0  0  0  0  0  0  0  0  0  0  0
   -2.3890   -9.4780    0.9940 F   0  0  0  0  0  0  0  0  0  0  0  0
   -0.9280  -12.0980    2.9050 C   0  0  0  0  0  0  0  0  0  0  0  0
    0.9710  -14.4860    4.6200 C   0  0  0  0  0  0  0  0  0  0  0  0
    0.6490  -15.1280    5.9840 C   0  0  0  0  0  0  0  0  0  0  0  0
    0.7131  -17.4145    8.8607 H   0  0  0  0  0  0  0  0  0  0  0  0
    1.3052  -18.4382    7.5086 H   0  0  0  0  0  0  0  0  0  0  0  0
    1.6336  -16.6721    7.5086 H   0  0  0  0  0  0  0  0  0  0  0  0
   -0.8125  -18.1822    6.7348 H   0  0  0  0  0  0  0  0  0  0  0  0
   -1.0622  -16.6558    7.7024 H   0  0  0  0  0  0  0  0  0  0  0  0
    0.3070  -16.9650    5.1280 H   0  0  0  0  0  0  0  0  0  0  0  0
   -2.1122  -16.9133    4.9262 H   0  0  0  0  0  0  0  0  0  0  0  0
   -2.0663  -15.2841    5.6980 H   0  0  0  0  0  0  0  0  0  0  0  0
   -0.7843  -16.1193    3.0391 H   0  0  0  0  0  0  0  0  0  0  0  0
   -2.1530  -14.9628    3.2977 H   0  0  0  0  0  0  0  0  0  0  0  0
    1.1127  -14.4308    1.5296 H   0  0  0  0  0  0  0  0  0  0  0  0
    2.6910  -11.2870   -0.0630 H   0  0  0  0  0  0  0  0  0  0  0  0
    2.5965  -10.9572   -3.2235 H   0  0  0  0  0  0  0  0  0  0  0  0
    4.4507  -11.2271   -4.8586 H   0  0  0  0  0  0  0  0  0  0  0  0
    7.7266  -12.6812   -4.0904 H   0  0  0  0  0  0  0  0  0  0  0  0
    6.5668  -13.4616   -5.2185 H   0  0  0  0  0  0  0  0  0  0  0  0
    6.7559  -11.6752   -5.2185 H   0  0  0  0  0  0  0  0  0  0  0  0
    6.7830  -14.8550   -2.0470 H   0  0  0  0  0  0  0  0  0  0  0  0
   12.0430  -13.0583   -2.4806 H   0  0  0  0  0  0  0  0  0  0  0  0
   13.3921  -11.8266   -0.7719 H   0  0  0  0  0  0  0  0  0  0  0  0
   12.3113  -10.9504    1.2796 H   0  0  0  0  0  0  0  0  0  0  0  0
    9.8734  -11.3442    1.7129 H   0  0  0  0  0  0  0  0  0  0  0  0
    6.9013  -10.7325    0.5560 H   0  0  0  0  0  0  0  0  0  0  0  0
    4.0600  -10.7030    2.7480 H   0  0  0  0  0  0  0  0  0  0  0  0
    5.1930   -9.6830    1.9440 H   0  0  0  0  0  0  0  0  0  0  0  0
    5.7546  -14.8406    2.9153 H   0  0  0  0  0  0  0  0  0  0  0  0
    4.7624  -13.3824   -0.3965 H   0  0  0  0  0  0  0  0  0  0  0  0
   -0.0636  -10.5790   -0.0406 H   0  0  0  0  0  0  0  0  0  0  0  0
   -1.5327  -11.9108    3.8046 H   0  0  0  0  0  0  0  0  0  0  0  0
    1.6283  -15.1614    4.0527 H   0  0  0  0  0  0  0  0  0  0  0  0
    1.4659  -13.5202    4.7998 H   0  0  0  0  0  0  0  0  0  0  0  0
    1.5874  -15.4106    6.4835 H   0  0  0  0  0  0  0  0  0  0  0  0
    0.0991  -14.4028    6.6018 H   0  0  0  0  0  0  0  0  0  0  0  0
  1  2  1  0
  2  3  1  0
  3  4  1  0
  4  5  1  0
  5  6  1  0
  6  7  1  0
  7  8  2  0
  8  9  1  0
  9 10  1  0
 10 11  2  0
 10 12  1  0
 12 13  1  0
 13 14  2  0
 14 15  1  0
 15 16  2  0
 16 17  1  0
 16 18  1  0
 18 19  1  0
 19 20  1  0
 20 21  2  0
 21 22  1  0
 22 23  2  0
 23 24  1  0
 24 25  2  0
 25 26  1  0
 26 27  2  0
 27 28  1  0
 28 29  1  0
 29 30  2  0
 30 31  1  0
 31 32  1  0
 31 33  2  0
 33 34  1  0
 34 35  2  0
 18 36  2  0
  9 37  2  0
 37 38  1  0
 38 39  1  0
 39 40  1  0
 39 41  1  0
 39 42  1  0
 38 43  2  0
  6 44  1  0
 44 45  1  0
 45  3  1  0
 43  7  1  0
 36 13  1  0
 28 20  1  0
 35 29  1  0
 27 22  1  0
  1 46  1  0
  1 47  1  0
  1 48  1  0
  2 49  1  0
  2 50  1  0
  3 51  1  0
  4 52  1  0
  4 53  1  0
  5 54  1  0
  5 55  1  0
  8 56  1  0
 12 57  1  0
 14 58  1  0
 15 59  1  0
 17 60  1  0
 17 61  1  0
 17 62  1  0
 19 63  1  0
 23 64  1  0
 24 65  1  0
 25 66  1  0
 26 67  1  0
 30 68  1  0
 32 69  1  0
 32 70  1  0
 34 71  1  0
 36 72  1  0
 37 73  1  0
 43 74  1  0
 44 75  1  0
 44 76  1  0
 45 77  1  0
 45 78  1  0
M  CHG  1   3   1
M  END
>  <meeko>  (1) 
{"is_sidechain": [false], "free_energy": -9.813, "intermolecular_energy": -14.689, "internal_energy": -1.987}

$$$$
LIB_HTEUQPWFMDGLKN__M_PUB_ALL__e8__s20260927
     RDKit          3D

 78 83  0  0  0  0  0  0  0  0999 V2000
   -1.6410   -8.9360    3.9720 C   0  0  0  0  0  0  0  0  0  0  0  0
   -1.8660  -10.2090    3.1790 C   0  0  0  0  0  0  0  0  0  0  0  0
   -0.6660  -10.6230    2.3680 N   0  0  0  0  0  0  0  0  0  0  0  0
   -0.7390  -12.0370    1.8000 C   0  0  0  0  0  0  0  0  0  0  0  0
    0.6220  -12.4460    1.1950 C   0  0  0  0  0  0  0  0  0  0  0  0
    1.1120  -11.4340    0.2400 N   0  0  0  0  0  0  0  0  0  0  0  0
    2.0710  -11.8390   -0.6880 C   0  0  0  0  0  0  0  0  0  0  0  0
    3.0300  -12.8190   -0.3990 C   0  0  0  0  0  0  0  0  0  0  0  0
    4.0060  -13.2070   -1.3320 C   0  0  0  0  0  0  0  0  0  0  0  0
    4.9900  -14.2480   -0.9120 C   0  0  0  0  0  0  0  0  0  0  0  0
    4.9830  -14.5880    0.2660 O   0  0  0  0  0  0  0  0  0  0  0  0
    5.7840  -14.7530   -1.9210 N   0  0  0  0  0  0  0  0  0  0  0  0
    6.8220  -15.7040   -1.8010 C   0  0  0  0  0  0  0  0  0  0  0  0
    6.6450  -17.0750   -1.9370 C   0  0  0  0  0  0  0  0  0  0  0  0
    7.7350  -17.9350   -1.8010 C   0  0  0  0  0  0  0  0  0  0  0  0
    9.0220  -17.4400   -1.5220 C   0  0  0  0  0  0  0  0  0  0  0  0
   10.1510  -18.4300   -1.3950 C   0  0  0  0  0  0  0  0  0  0  0  0
    9.2220  -16.0500   -1.3670 C   0  0  0  0  0  0  0  0  0  0  0  0
   10.5140  -15.5520   -1.0920 N   0  0  0  0  0  0  0  0  0  0  0  0
   10.9200  -14.2900   -0.7880 C   0  0  0  0  0  0  0  0  0  0  0  0
   10.4490  -13.4810    0.1380 N   0  0  0  0  0  0  0  0  0  0  0  0
   11.2190  -12.3590    0.0970 C   0  0  0  0  0  0  0  0  0  0  0  0
   11.1510  -11.2260    0.9250 C   0  0  0  0  0  0  0  0  0  0  0  0
   12.0930  -10.2070    0.7640 C   0  0  0  0  0  0  0  0  0  0  0  0
   13.0980  -10.3240   -0.1920 C   0  0  0  0  0  0  0  0  0  0  0  0
   13.1750  -11.4440   -1.0310 C   0  0  0  0  0  0  0  0  0  0  0  0
   12.1920  -12.4420   -0.8970 C   0  0  0  0  0  0  0  0  0  0  0  0
   11.9300  -13.6550   -1.5350 N   0  0  0  0  0  0  0  0  0  0  0  0
   12.5410  -14.1900   -2.7210 C   0  0  0  0  0  0  0  0  0  0  0  0
   12.5170  -13.4810   -3.9070 C   0  0  0  0  0  0  0  0  0  0  0  0
   13.1290  -14.0640   -4.9960 C   0  0  0  0  0  0  0  0  0  0  0  0
   13.1090  -13.4480   -6.2300 N   0  0  0  0  0  0  0  0  0  0  0  0
   13.6980  -15.2700   -4.9450 N   0  0  0  0  0  0  0  0  0  0  0  0
   13.6500  -15.9000   -3.7670 C   0  0  0  0  0  0  0  0  0  0  0  0
   13.0870  -15.4290   -2.6450 N   0  0  0  0  0  0  0  0  0  0  0  0
    8.1050  -15.2100   -1.5170 C   0  0  0  0  0  0  0  0  0  0  0  0
    4.0500  -12.5920   -2.5850 C   0  0  0  0  0  0  0  0  0  0  0  0
    3.1020  -11.6150   -2.9140 C   0  0  0  0  0  0  0  0  0  0  0  0
    3.1490  -10.9130   -4.2510 C   0  0  0  0  0  0  0  0  0  0  0  0
    2.2230  -11.3970   -5.1200 F   0  0  0  0  0  0  0  0  0  0  0  0
    4.3560  -11.0530   -4.8690 F   0  0  0  0  0  0  0  0  0  0  0  0
    2.9290   -9.5750   -4.1580 F   0  0  0  0  0  0  0  0  0  0  0  0
    2.1310  -11.2500   -1.9600 C   0  0  0  0  0  0  0  0  0  0  0  0
    1.0970  -10.0240    0.6770 C   0  0  0  0  0  0  0  0  0  0  0  0
   -0.2710   -9.6360    1.2730 C   0  0  0  0  0  0  0  0  0  0  0  0
   -1.6810   -9.1622    5.0477 H   0  0  0  0  0  0  0  0  0  0  0  0
   -0.6550   -8.5175    3.7217 H   0  0  0  0  0  0  0  0  0  0  0  0
   -2.4238   -8.2049    3.7217 H   0  0  0  0  0  0  0  0  0  0  0  0
   -2.1100  -11.0198    3.8812 H   0  0  0  0  0  0  0  0  0  0  0  0
   -2.6862  -10.0133    2.4726 H   0  0  0  0  0  0  0  0  0  0  0  0
    0.1230  -10.6290    3.0290 H   0  0  0  0  0  0  0  0  0  0  0  0
   -1.0026  -12.7379    2.6057 H   0  0  0  0  0  0  0  0  0  0  0  0
   -1.5033  -12.0646    1.0094 H   0  0  0  0  0  0  0  0  0  0  0  0
    1.3558  -12.5569    2.0069 H   0  0  0  0  0  0  0  0  0  0  0  0
    0.4900  -13.3957    0.6559 H   0  0  0  0  0  0  0  0  0  0  0  0
    3.0182  -13.3000    0.5902 H   0  0  0  0  0  0  0  0  0  0  0  0
    5.5980  -14.4550   -2.8690 H   0  0  0  0  0  0  0  0  0  0  0  0
    5.6460  -17.4823   -2.1518 H   0  0  0  0  0  0  0  0  0  0  0  0
    7.5856  -19.0189   -1.9139 H   0  0  0  0  0  0  0  0  0  0  0  0
   10.3600  -18.6133   -0.3307 H   0  0  0  0  0  0  0  0  0  0  0  0
    9.8664  -19.3750   -1.8808 H   0  0  0  0  0  0  0  0  0  0  0  0
   11.0507  -18.0244   -1.8808 H   0  0  0  0  0  0  0  0  0  0  0  0
   11.2430  -16.2650   -1.0850 H   0  0  0  0  0  0  0  0  0  0  0  0
   10.3657  -11.1423    1.6907 H   0  0  0  0  0  0  0  0  0  0  0  0
   12.0403   -9.3080    1.3957 H   0  0  0  0  0  0  0  0  0  0  0  0
   13.8453   -9.5229   -0.2908 H   0  0  0  0  0  0  0  0  0  0  0  0
   13.9811  -11.5402   -1.7733 H   0  0  0  0  0  0  0  0  0  0  0  0
   12.0317  -12.4964   -3.9788 H   0  0  0  0  0  0  0  0  0  0  0  0
   13.1050  -14.1010   -7.0050 H   0  0  0  0  0  0  0  0  0  0  0  0
   13.6150  -12.5850   -6.3640 H   0  0  0  0  0  0  0  0  0  0  0  0
   14.1147  -16.8956   -3.7132 H   0  0  0  0  0  0  0  0  0  0  0  0
    8.2414  -14.1240   -1.4077 H   0  0  0  0  0  0  0  0  0  0  0  0
    4.8266  -12.8740   -3.3112 H   0  0  0  0  0  0  0  0  0  0  0  0
    1.3943  -10.4762   -2.2218 H   0  0  0  0  0  0  0  0  0  0  0  0
    1.8750   -9.8774    1.4407 H   0  0  0  0  0  0  0  0  0  0  0  0
    1.2867   -9.3871   -0.1996 H   0  0  0  0  0  0  0  0  0  0  0  0
   -0.2076   -8.6245    1.7007 H   0  0  0  0  0  0  0  0  0  0  0  0
   -1.0298   -9.6594    0.4769 H   0  0  0  0  0  0  0  0  0  0  0  0
  1  2  1  0
  2  3  1  0
  3  4  1  0
  4  5  1  0
  5  6  1  0
  6  7  1  0
  7  8  2  0
  8  9  1  0
  9 10  1  0
 10 11  2  0
 10 12  1  0
 12 13  1  0
 13 14  2  0
 14 15  1  0
 15 16  2  0
 16 17  1  0
 16 18  1  0
 18 19  1  0
 19 20  1  0
 20 21  2  0
 21 22  1  0
 22 23  2  0
 23 24  1  0
 24 25  2  0
 25 26  1  0
 26 27  2  0
 27 28  1  0
 28 29  1  0
 29 30  2  0
 30 31  1  0
 31 32  1  0
 31 33  2  0
 33 34  1  0
 34 35  2  0
 18 36  2  0
  9 37  2  0
 37 38  1  0
 38 39  1  0
 39 40  1  0
 39 41  1  0
 39 42  1  0
 38 43  2  0
  6 44  1  0
 44 45  1  0
 45  3  1  0
 43  7  1  0
 36 13  1  0
 28 20  1  0
 35 29  1  0
 27 22  1  0
  1 46  1  0
  1 47  1  0
  1 48  1  0
  2 49  1  0
  2 50  1  0
  3 51  1  0
  4 52  1  0
  4 53  1  0
  5 54  1  0
  5 55  1  0
  8 56  1  0
 12 57  1  0
 14 58  1  0
 15 59  1  0
 17 60  1  0
 17 61  1  0
 17 62  1  0
 19 63  1  0
 23 64  1  0
 24 65  1  0
 25 66  1  0
 26 67  1  0
 30 68  1  0
 32 69  1  0
 32 70  1  0
 34 71  1  0
 36 72  1  0
 37 73  1  0
 43 74  1  0
 44 75  1  0
 44 76  1  0
 45 77  1  0
 45 78  1  0
M  CHG  1   3   1
M  END
>  <meeko>  (2) 
{"is_sidechain": [false], "free_energy": -9.786, "intermolecular_energy": -14.778, "internal_energy": -1.857}

$$$$
LIB_HTEUQPWFMDGLKN__M_PUB_ALL__e8__s20260927
     RDKit          3D

 78 83  0  0  0  0  0  0  0  0999 V2000
   12.6370  -11.0620   -0.3330 C   0  0  0  0  0  0  0  0  0  0  0  0
   12.2080  -12.2170   -1.2170 C   0  0  0  0  0  0  0  0  0  0  0  0
   10.7670  -12.1310   -1.6460 N   0  0  0  0  0  0  0  0  0  0  0  0
   10.5270  -12.4080   -3.1280 C   0  0  0  0  0  0  0  0  0  0  0  0
    9.0710  -12.0650   -3.5110 C   0  0  0  0  0  0  0  0  0  0  0  0
    8.1080  -12.7250   -2.6080 N   0  0  0  0  0  0  0  0  0  0  0  0
    6.7980  -12.8720   -3.0650 C   0  0  0  0  0  0  0  0  0  0  0  0
    5.7880  -13.4430   -2.2790 C   0  0  0  0  0  0  0  0  0  0  0  0
    4.4750  -13.6070   -2.7530 C   0  0  0  0  0  0  0  0  0  0  0  0
    3.4830  -14.2430   -1.8380 C   0  0  0  0  0  0  0  0  0  0  0  0
    2.4660  -14.7070   -2.3430 O   0  0  0  0  0  0  0  0  0  0  0  0
    3.8440  -14.2790   -0.5070 N   0  0  0  0  0  0  0  0  0  0  0  0
    3.0820  -14.7740    0.5760 C   0  0  0  0  0  0  0  0  0  0  0  0
    3.2810  -16.0140    1.1670 C   0  0  0  0  0  0  0  0  0  0  0  0
    2.4760  -16.4150    2.2330 C   0  0  0  0  0  0  0  0  0  0  0  0
    1.4550  -15.5830    2.7270 C   0  0  0  0  0  0  0  0  0  0  0  0
    0.6300  -16.0810    3.8850 C   0  0  0  0  0  0  0  0  0  0  0  0
    1.2280  -14.3210    2.1310 C   0  0  0  0  0  0  0  0  0  0  0  0
    0.2050  -13.4830    2.6280 N   0  0  0  0  0  0  0  0  0  0  0  0
   -0.7790  -12.8170    1.9680 C   0  0  0  0  0  0  0  0  0  0  0  0
   -0.8060  -11.5530    1.6010 N   0  0  0  0  0  0  0  0  0  0  0  0
   -1.9700  -11.3750    0.9170 C   0  0  0  0  0  0  0  0  0  0  0  0
   -2.4340  -10.2150    0.2760 C   0  0  0  0  0  0  0  0  0  0  0  0
   -3.6310  -10.2660   -0.4430 C   0  0  0  0  0  0  0  0  0  0  0  0
   -4.3420  -11.4580   -0.5380 C   0  0  0  0  0  0  0  0  0  0  0  0
   -3.8970  -12.6220    0.1020 C   0  0  0  0  0  0  0  0  0  0  0  0
   -2.7170  -12.5500    0.8660 C   0  0  0  0  0  0  0  0  0  0  0  0
   -1.9880  -13.4570    1.6360 N   0  0  0  0  0  0  0  0  0  0  0  0
   -2.3570  -14.7860    2.0360 C   0  0  0  0  0  0  0  0  0  0  0  0
   -3.0970  -14.9970    3.1830 C   0  0  0  0  0  0  0  0  0  0  0  0
   -3.4120  -16.3030    3.4950 C   0  0  0  0  0  0  0  0  0  0  0  0
   -4.1060  -16.6060    4.6470 N   0  0  0  0  0  0  0  0  0  0  0  0
   -3.0050  -17.3380    2.7570 N   0  0  0  0  0  0  0  0  0  0  0  0
   -2.2680  -17.0480    1.6810 C   0  0  0  0  0  0  0  0  0  0  0  0
   -1.9060  -15.8200    1.2820 N   0  0  0  0  0  0  0  0  0  0  0  0
    2.0600  -13.9450    1.0630 C   0  0  0  0  0  0  0  0  0  0  0  0
    4.1540  -13.2130   -4.0540 C   0  0  0  0  0  0  0  0  0  0  0  0
    5.1350  -12.6280   -4.8660 C   0  0  0  0  0  0  0  0  0  0  0  0
    4.8200  -12.2240   -6.2870 C   0  0  0  0  0  0  0  0  0  0  0  0
    4.0590  -11.0990   -6.3450 F   0  0  0  0  0  0  0  0  0  0  0  0
    4.1260  -13.1850   -6.9600 F   0  0  0  0  0  0  0  0  0  0  0  0
    5.9310  -11.9750   -7.0290 F   0  0  0  0  0  0  0  0  0  0  0  0
    6.4420  -12.4720   -4.3620 C   0  0  0  0  0  0  0  0  0  0  0  0
    8.3450  -12.6040   -1.1570 C   0  0  0  0  0  0  0  0  0  0  0  0
    9.8030  -12.9540   -0.7960 C   0  0  0  0  0  0  0  0  0  0  0  0
   12.5302  -11.3495    0.7234 H   0  0  0  0  0  0  0  0  0  0  0  0
   13.6879  -10.8121   -0.5406 H   0  0  0  0  0  0  0  0  0  0  0  0
   12.0040  -10.1866   -0.5406 H   0  0  0  0  0  0  0  0  0  0  0  0
   12.8410  -12.2229   -2.1166 H   0  0  0  0  0  0  0  0  0  0  0  0
   12.3196  -13.1392   -0.6278 H   0  0  0  0  0  0  0  0  0  0  0  0
   10.4940  -11.1500   -1.4990 H   0  0  0  0  0  0  0  0  0  0  0  0
   11.2140  -11.7928   -3.7276 H   0  0  0  0  0  0  0  0  0  0  0  0
   10.7057  -13.4754   -3.3249 H   0  0  0  0  0  0  0  0  0  0  0  0
    8.9315  -10.9757   -3.4488 H   0  0  0  0  0  0  0  0  0  0  0  0
    8.8882  -12.4236   -4.5347 H   0  0  0  0  0  0  0  0  0  0  0  0
    6.0306  -13.7735   -1.2583 H   0  0  0  0  0  0  0  0  0  0  0  0
    4.7680  -13.9540   -0.2540 H   0  0  0  0  0  0  0  0  0  0  0  0
    4.0733  -16.6802    0.7948 H   0  0  0  0  0  0  0  0  0  0  0  0
    2.6424  -17.3991    2.6955 H   0  0  0  0  0  0  0  0  0  0  0  0
    1.1117  -15.7902    4.8302 H   0  0  0  0  0  0  0  0  0  0  0  0
   -0.3762  -15.6393    3.8352 H   0  0  0  0  0  0  0  0  0  0  0  0
    0.5521  -17.1771    3.8352 H   0  0  0  0  0  0  0  0  0  0  0  0
    0.1890  -13.4040    3.6450 H   0  0  0  0  0  0  0  0  0  0  0  0
   -1.8621   -9.2775    0.3391 H   0  0  0  0  0  0  0  0  0  0  0  0
   -4.0128   -9.3598   -0.9360 H   0  0  0  0  0  0  0  0  0  0  0  0
   -5.2708  -11.4871   -1.1266 H   0  0  0  0  0  0  0  0  0  0  0  0
   -4.4542  -13.5660    0.0100 H   0  0  0  0  0  0  0  0  0  0  0  0
   -3.4208  -14.1604    3.8195 H   0  0  0  0  0  0  0  0  0  0  0  0
   -4.8560  -15.9540    4.8470 H   0  0  0  0  0  0  0  0  0  0  0  0
   -3.6120  -16.9900    5.4390 H   0  0  0  0  0  0  0  0  0  0  0  0
   -1.9270  -17.8940    1.0662 H   0  0  0  0  0  0  0  0  0  0  0  0
    1.9043  -12.9638    0.5909 H   0  0  0  0  0  0  0  0  0  0  0  0
    3.1347  -13.3614   -4.4399 H   0  0  0  0  0  0  0  0  0  0  0  0
    7.2097  -12.0210   -5.0079 H   0  0  0  0  0  0  0  0  0  0  0  0
    8.1370  -11.5699   -0.8450 H   0  0  0  0  0  0  0  0  0  0  0  0
    7.6798  -13.3089   -0.6367 H   0  0  0  0  0  0  0  0  0  0  0  0
    9.9772  -12.7338    0.2676 H   0  0  0  0  0  0  0  0  0  0  0  0
    9.9749  -14.0229   -0.9905 H   0  0  0  0  0  0  0  0  0  0  0  0
  1  2  1  0
  2  3  1  0
  3  4  1  0
  4  5  1  0
  5  6  1  0
  6  7  1  0
  7  8  2  0
  8  9  1  0
  9 10  1  0
 10 11  2  0
 10 12  1  0
 12 13  1  0
 13 14  2  0
 14 15  1  0
 15 16  2  0
 16 17  1  0
 16 18  1  0
 18 19  1  0
 19 20  1  0
 20 21  2  0
 21 22  1  0
 22 23  2  0
 23 24  1  0
 24 25  2  0
 25 26  1  0
 26 27  2  0
 27 28  1  0
 28 29  1  0
 29 30  2  0
 30 31  1  0
 31 32  1  0
 31 33  2  0
 33 34  1  0
 34 35  2  0
 18 36  2  0
  9 37  2  0
 37 38  1  0
 38 39  1  0
 39 40  1  0
 39 41  1  0
 39 42  1  0
 38 43  2  0
  6 44  1  0
 44 45  1  0
 45  3  1  0
 43  7  1  0
 36 13  1  0
 28 20  1  0
 35 29  1  0
 27 22  1  0
  1 46  1  0
  1 47  1  0
  1 48  1  0
  2 49  1  0
  2 50  1  0
  3 51  1  0
  4 52  1  0
  4 53  1  0
  5 54  1  0
  5 55  1  0
  8 56  1  0
 12 57  1  0
 14 58  1  0
 15 59  1  0
 17 60  1  0
 17 61  1  0
 17 62  1  0
 19 63  1  0
 23 64  1  0
 24 65  1  0
 25 66  1  0
 26 67  1  0
 30 68  1  0
 32 69  1  0
 32 70  1  0
 34 71  1  0
 36 72  1  0
 37 73  1  0
 43 74  1  0
 44 75  1  0
 44 76  1  0
 45 77  1  0
 45 78  1  0
M  CHG  1   3   1
M  END
>  <meeko>  (3) 
{"is_sidechain": [false], "free_energy": -9.716, "intermolecular_energy": -14.217, "internal_energy": -2.313}

$$$$
LIB_HTEUQPWFMDGLKN__M_PUB_ALL__e8__s20260927
     RDKit          3D

 78 83  0  0  0  0  0  0  0  0999 V2000
    3.2670  -11.7120   -4.1290 C   0  0  0  0  0  0  0  0  0  0  0  0
    3.7960  -12.4430   -2.9100 C   0  0  0  0  0  0  0  0  0  0  0  0
    5.2610  -12.1980   -2.6600 N   0  0  0  0  0  0  0  0  0  0  0  0
    5.8810  -13.0910   -1.5900 C   0  0  0  0  0  0  0  0  0  0  0  0
    7.3060  -12.6060   -1.2440 C   0  0  0  0  0  0  0  0  0  0  0  0
    8.1320  -12.4520   -2.4570 N   0  0  0  0  0  0  0  0  0  0  0  0
    9.5170  -12.4470   -2.2940 C   0  0  0  0  0  0  0  0  0  0  0  0
   10.3980  -12.7240   -3.3470 C   0  0  0  0  0  0  0  0  0  0  0  0
   11.7920  -12.7380   -3.1710 C   0  0  0  0  0  0  0  0  0  0  0  0
   12.6370  -13.0620   -4.3580 C   0  0  0  0  0  0  0  0  0  0  0  0
   13.4850  -12.2400   -4.6870 O   0  0  0  0  0  0  0  0  0  0  0  0
   12.3960  -14.2890   -4.9390 N   0  0  0  0  0  0  0  0  0  0  0  0
   13.0080  -14.8280   -6.0930 C   0  0  0  0  0  0  0  0  0  0  0  0
   14.3620  -15.1210   -6.1930 C   0  0  0  0  0  0  0  0  0  0  0  0
   14.8740  -15.6520   -7.3780 C   0  0  0  0  0  0  0  0  0  0  0  0
   14.0420  -15.8960   -8.4850 C   0  0  0  0  0  0  0  0  0  0  0  0
   14.6650  -16.4760   -9.7270 C   0  0  0  0  0  0  0  0  0  0  0  0
   12.6630  -15.5930   -8.4080 C   0  0  0  0  0  0  0  0  0  0  0  0
   11.8260  -15.8420   -9.5180 N   0  0  0  0  0  0  0  0  0  0  0  0
   10.7510  -15.1480   -9.9770 C   0  0  0  0  0  0  0  0  0  0  0  0
    9.4940  -15.5350  -10.0400 N   0  0  0  0  0  0  0  0  0  0  0  0
    8.7860  -14.4700  -10.5110 C   0  0  0  0  0  0  0  0  0  0  0  0
    7.3990  -14.3640  -10.7030 C   0  0  0  0  0  0  0  0  0  0  0  0
    6.8610  -13.1470  -11.1260 C   0  0  0  0  0  0  0  0  0  0  0  0
    7.6890  -12.0480  -11.3340 C   0  0  0  0  0  0  0  0  0  0  0  0
    9.0750  -12.1390  -11.1540 C   0  0  0  0  0  0  0  0  0  0  0  0
    9.6150  -13.3830  -10.7770 C   0  0  0  0  0  0  0  0  0  0  0  0
   10.9020  -13.8600  -10.5240 N   0  0  0  0  0  0  0  0  0  0  0  0
   12.1590  -13.2050  -10.7620 C   0  0  0  0  0  0  0  0  0  0  0  0
   12.5480  -12.1270   -9.9910 C   0  0  0  0  0  0  0  0  0  0  0  0
   13.7700  -11.5580  -10.2820 C   0  0  0  0  0  0  0  0  0  0  0  0
   14.2130  -10.4480   -9.5940 N   0  0  0  0  0  0  0  0  0  0  0  0
   14.5470  -11.9880  -11.2780 N   0  0  0  0  0  0  0  0  0  0  0  0
   14.0820  -13.0160  -11.9930 C   0  0  0  0  0  0  0  0  0  0  0  0
   12.9150  -13.6470  -11.7980 N   0  0  0  0  0  0  0  0  0  0  0  0
   12.1780  -15.0660   -7.1990 C   0  0  0  0  0  0  0  0  0  0  0  0
   12.3330  -12.4930   -1.9070 C   0  0  0  0  0  0  0  0  0  0  0  0
   11.4830  -12.2030   -0.8310 C   0  0  0  0  0  0  0  0  0  0  0  0
   12.0440  -11.9660    0.5520 C   0  0  0  0  0  0  0  0  0  0  0  0
   13.3650  -11.6520    0.5250 F   0  0  0  0  0  0  0  0  0  0  0  0
   11.9320  -13.0620    1.3530 F   0  0  0  0  0  0  0  0  0  0  0  0
   11.4210  -10.9540    1.2120 F   0  0  0  0  0  0  0  0  0  0  0  0
   10.0900  -12.1900   -1.0390 C   0  0  0  0  0  0  0  0  0  0  0  0
    7.5460  -11.7020   -3.5850 C   0  0  0  0  0  0  0  0  0  0  0  0
    6.1270  -12.2040   -3.9170 C   0  0  0  0  0  0  0  0  0  0  0  0
    2.6504  -10.8600   -3.8067 H   0  0  0  0  0  0  0  0  0  0  0  0
    4.1111  -11.3464   -4.7322 H   0  0  0  0  0  0  0  0  0  0  0  0
    2.6558  -12.3995   -4.7322 H   0  0  0  0  0  0  0  0  0  0  0  0
    3.2301  -12.1075   -2.0284 H   0  0  0  0  0  0  0  0  0  0  0  0
    3.6719  -13.5201   -3.0956 H   0  0  0  0  0  0  0  0  0  0  0  0
    5.3200  -11.2390   -2.2910 H   0  0  0  0  0  0  0  0  0  0  0  0
    5.2572  -13.0585   -0.6846 H   0  0  0  0  0  0  0  0  0  0  0  0
    5.9375  -14.1206   -1.9731 H   0  0  0  0  0  0  0  0  0  0  0  0
    7.2389  -11.6352   -0.7311 H   0  0  0  0  0  0  0  0  0  0  0  0
    7.7797  -13.3581   -0.5959 H   0  0  0  0  0  0  0  0  0  0  0  0
    9.9853  -12.9375   -4.3440 H   0  0  0  0  0  0  0  0  0  0  0  0
   11.7370  -14.9100   -4.4870 H   0  0  0  0  0  0  0  0  0  0  0  0
   15.0301  -14.9348   -5.3392 H   0  0  0  0  0  0  0  0  0  0  0  0
   15.9471  -15.8836   -7.4471 H   0  0  0  0  0  0  0  0  0  0  0  0
   15.4428  -17.2002   -9.4432 H   0  0  0  0  0  0  0  0  0  0  0  0
   13.8917  -16.9832  -10.3226 H   0  0  0  0  0  0  0  0  0  0  0  0
   15.1156  -15.6684  -10.3226 H   0  0  0  0  0  0  0  0  0  0  0  0
   12.1040  -16.6490  -10.0770 H   0  0  0  0  0  0  0  0  0  0  0  0
    6.7443  -15.2293  -10.5223 H   0  0  0  0  0  0  0  0  0  0  0  0
    5.7779  -13.0565  -11.2956 H   0  0  0  0  0  0  0  0  0  0  0  0
    7.2468  -11.0902  -11.6455 H   0  0  0  0  0  0  0  0  0  0  0  0
    9.7233  -11.2629  -11.3031 H   0  0  0  0  0  0  0  0  0  0  0  0
   11.9118  -11.7399   -9.1815 H   0  0  0  0  0  0  0  0  0  0  0  0
   14.3320  -10.6120   -8.6000 H   0  0  0  0  0  0  0  0  0  0  0  0
   13.8950   -9.5310   -9.8700 H   0  0  0  0  0  0  0  0  0  0  0  0
   14.7142  -13.3780  -12.8171 H   0  0  0  0  0  0  0  0  0  0  0  0
   11.1066  -14.8310   -7.1165 H   0  0  0  0  0  0  0  0  0  0  0  0
   13.4221  -12.5275   -1.7565 H   0  0  0  0  0  0  0  0  0  0  0  0
    9.4282  -11.9708   -0.1881 H   0  0  0  0  0  0  0  0  0  0  0  0
    7.4953  -10.6360   -3.3183 H   0  0  0  0  0  0  0  0  0  0  0  0
    8.1825  -11.8531   -4.4693 H   0  0  0  0  0  0  0  0  0  0  0  0
    5.6755  -11.5448   -4.6730 H   0  0  0  0  0  0  0  0  0  0  0  0
    6.1902  -13.2311   -4.3057 H   0  0  0  0  0  0  0  0  0  0  0  0
  1  2  1  0
  2  3  1  0
  3  4  1  0
  4  5  1  0
  5  6  1  0
  6  7  1  0
  7  8  2  0
  8  9  1  0
  9 10  1  0
 10 11  2  0
 10 12  1  0
 12 13  1  0
 13 14  2  0
 14 15  1  0
 15 16  2  0
 16 17  1  0
 16 18  1  0
 18 19  1  0
 19 20  1  0
 20 21  2  0
 21 22  1  0
 22 23  2  0
 23 24  1  0
 24 25  2  0
 25 26  1  0
 26 27  2  0
 27 28  1  0
 28 29  1  0
 29 30  2  0
 30 31  1  0
 31 32  1  0
 31 33  2  0
 33 34  1  0
 34 35  2  0
 18 36  2  0
  9 37  2  0
 37 38  1  0
 38 39  1  0
 39 40  1  0
 39 41  1  0
 39 42  1  0
 38 43  2  0
  6 44  1  0
 44 45  1  0
 45  3  1  0
 43  7  1  0
 36 13  1  0
 28 20  1  0
 35 29  1  0
 27 22  1  0
  1 46  1  0
  1 47  1  0
  1 48  1  0
  2 49  1  0
  2 50  1  0
  3 51  1  0
  4 52  1  0
  4 53  1  0
  5 54  1  0
  5 55  1  0
  8 56  1  0
 12 57  1  0
 14 58  1  0
 15 59  1  0
 17 60  1  0
 17 61  1  0
 17 62  1  0
 19 63  1  0
 23 64  1  0
 24 65  1  0
 25 66  1  0
 26 67  1  0
 30 68  1  0
 32 69  1  0
 32 70  1  0
 34 71  1  0
 36 72  1  0
 37 73  1  0
 43 74  1  0
 44 75  1  0
 44 76  1  0
 45 77  1  0
 45 78  1  0
M  CHG  1   3   1
M  END
>  <meeko>  (4) 
{"is_sidechain": [false], "free_energy": -9.593, "intermolecular_energy": -14.109, "internal_energy": -2.238}

$$$$
LIB_HTEUQPWFMDGLKN__M_PUB_ALL__e8__s20260927
     RDKit          3D

 78 83  0  0  0  0  0  0  0  0999 V2000
   12.4790  -11.4060   -0.2290 C   0  0  0  0  0  0  0  0  0  0  0  0
   11.4590  -12.5260   -0.3040 C   0  0  0  0  0  0  0  0  0  0  0  0
   10.2150  -12.1460   -1.0630 N   0  0  0  0  0  0  0  0  0  0  0  0
   10.2280  -12.5320   -2.5390 C   0  0  0  0  0  0  0  0  0  0  0  0
    9.0290  -11.8950   -3.2740 C   0  0  0  0  0  0  0  0  0  0  0  0
    7.7580  -12.1870   -2.5830 N   0  0  0  0  0  0  0  0  0  0  0  0
    6.5820  -12.0660   -3.3230 C   0  0  0  0  0  0  0  0  0  0  0  0
    5.3980  -11.5570   -2.7740 C   0  0  0  0  0  0  0  0  0  0  0  0
    4.2110  -11.4570   -3.5210 C   0  0  0  0  0  0  0  0  0  0  0  0
    3.0030  -10.9160   -2.8310 C   0  0  0  0  0  0  0  0  0  0  0  0
    2.4480   -9.9500   -3.3410 O   0  0  0  0  0  0  0  0  0  0  0  0
    2.6120  -11.6010   -1.6990 N   0  0  0  0  0  0  0  0  0  0  0  0
    1.5430  -11.2840   -0.8300 C   0  0  0  0  0  0  0  0  0  0  0  0
    0.6530  -10.2390   -1.0380 C   0  0  0  0  0  0  0  0  0  0  0  0
   -0.3720  -10.0050   -0.1210 C   0  0  0  0  0  0  0  0  0  0  0  0
   -0.5240  -10.8100    1.0220 C   0  0  0  0  0  0  0  0  0  0  0  0
   -1.6590  -10.5000    1.9630 C   0  0  0  0  0  0  0  0  0  0  0  0
    0.3790  -11.8710    1.2590 C   0  0  0  0  0  0  0  0  0  0  0  0
    0.2250  -12.6830    2.4040 N   0  0  0  0  0  0  0  0  0  0  0  0
   -0.4880  -13.8280    2.5750 C   0  0  0  0  0  0  0  0  0  0  0  0
   -1.6330  -13.9920    3.2040 N   0  0  0  0  0  0  0  0  0  0  0  0
   -1.9740  -15.3010    3.0490 C   0  0  0  0  0  0  0  0  0  0  0  0
   -3.1360  -15.9550    3.4900 C   0  0  0  0  0  0  0  0  0  0  0  0
   -3.3300  -17.2980    3.1570 C   0  0  0  0  0  0  0  0  0  0  0  0
   -2.3910  -17.9710    2.3820 C   0  0  0  0  0  0  0  0  0  0  0  0
   -1.2230  -17.3360    1.9410 C   0  0  0  0  0  0  0  0  0  0  0  0
   -1.0110  -15.9980    2.3230 C   0  0  0  0  0  0  0  0  0  0  0  0
    0.0000  -15.0610    2.1040 N   0  0  0  0  0  0  0  0  0  0  0  0
    1.2960  -15.2690    1.5200 C   0  0  0  0  0  0  0  0  0  0  0  0
    1.4200  -15.7620    0.2350 C   0  0  0  0  0  0  0  0  0  0  0  0
    2.6990  -15.9290   -0.2510 C   0  0  0  0  0  0  0  0  0  0  0  0
    2.9140  -16.4620   -1.5050 N   0  0  0  0  0  0  0  0  0  0  0  0
    3.7870  -15.6630    0.4750 N   0  0  0  0  0  0  0  0  0  0  0  0
    3.5780  -15.2180    1.7170 C   0  0  0  0  0  0  0  0  0  0  0  0
    2.3830  -15.0160    2.2910 N   0  0  0  0  0  0  0  0  0  0  0  0
    1.3960  -12.0840    0.3130 C   0  0  0  0  0  0  0  0  0  0  0  0
    4.1880  -11.8940   -4.8470 C   0  0  0  0  0  0  0  0  0  0  0  0
    5.3560  -12.4000   -5.4330 C   0  0  0  0  0  0  0  0  0  0  0  0
    5.3460  -12.9080   -6.8560 C   0  0  0  0  0  0  0  0  0  0  0  0
    4.0860  -13.1070   -7.3230 F   0  0  0  0  0  0  0  0  0  0  0  0
    5.9910  -14.1010   -6.9860 F   0  0  0  0  0  0  0  0  0  0  0  0
    5.9510  -12.0590   -7.7280 F   0  0  0  0  0  0  0  0  0  0  0  0
    6.5320  -12.4830   -4.6620 C   0  0  0  0  0  0  0  0  0  0  0  0
    7.7080  -11.9550   -1.1260 C   0  0  0  0  0  0  0  0  0  0  0  0
    8.9120  -12.6010   -0.4130 C   0  0  0  0  0  0  0  0  0  0  0  0
   12.6911  -11.1732    0.8250 H   0  0  0  0  0  0  0  0  0  0  0  0
   13.4069  -11.7210   -0.7288 H   0  0  0  0  0  0  0  0  0  0  0  0
   12.0788  -10.5115   -0.7288 H   0  0  0  0  0  0  0  0  0  0  0  0
   11.9235  -13.3889   -0.8037 H   0  0  0  0  0  0  0  0  0  0  0  0
   11.1542  -12.7600    0.7267 H   0  0  0  0  0  0  0  0  0  0  0  0
   10.1860  -11.1170   -1.0450 H   0  0  0  0  0  0  0  0  0  0  0  0
   11.1633  -12.1785   -2.9976 H   0  0  0  0  0  0  0  0  0  0  0  0
   10.1558  -13.6265   -2.6216 H   0  0  0  0  0  0  0  0  0  0  0  0
    9.1721  -10.8051   -3.3150 H   0  0  0  0  0  0  0  0  0  0  0  0
    8.9782  -12.3199   -4.2873 H   0  0  0  0  0  0  0  0  0  0  0  0
    5.3969  -11.2250   -1.7253 H   0  0  0  0  0  0  0  0  0  0  0  0
    3.1060  -12.4510   -1.4600 H   0  0  0  0  0  0  0  0  0  0  0  0
    0.7559   -9.5963   -1.9248 H   0  0  0  0  0  0  0  0  0  0  0  0
   -1.0738   -9.1760   -0.2951 H   0  0  0  0  0  0  0  0  0  0  0  0
   -1.3104  -10.5952    3.0019 H   0  0  0  0  0  0  0  0  0  0  0  0
   -2.0110   -9.4728    1.7871 H   0  0  0  0  0  0  0  0  0  0  0  0
   -2.4843  -11.2056    1.7871 H   0  0  0  0  0  0  0  0  0  0  0  0
    0.7690  -12.3750    3.2100 H   0  0  0  0  0  0  0  0  0  0  0  0
   -3.8842  -15.4165    4.0902 H   0  0  0  0  0  0  0  0  0  0  0  0
   -4.2289  -17.8253    3.5091 H   0  0  0  0  0  0  0  0  0  0  0  0
   -2.5692  -19.0219    2.1103 H   0  0  0  0  0  0  0  0  0  0  0  0
   -0.4922  -17.8678    1.3140 H   0  0  0  0  0  0  0  0  0  0  0  0
    0.5374  -16.0101   -0.3729 H   0  0  0  0  0  0  0  0  0  0  0  0
    3.6790  -17.1270   -1.5330 H   0  0  0  0  0  0  0  0  0  0  0  0
    2.7820  -15.8840   -2.3210 H   0  0  0  0  0  0  0  0  0  0  0  0
    4.4678  -14.9969    2.3247 H   0  0  0  0  0  0  0  0  0  0  0  0
    2.1042  -12.9099    0.4750 H   0  0  0  0  0  0  0  0  0  0  0  0
    3.2564  -11.8412   -5.4295 H   0  0  0  0  0  0  0  0  0  0  0  0
    7.4431  -12.8889   -5.1258 H   0  0  0  0  0  0  0  0  0  0  0  0
    7.7180  -10.8717   -0.9354 H   0  0  0  0  0  0  0  0  0  0  0  0
    6.7872  -12.4114   -0.7338 H   0  0  0  0  0  0  0  0  0  0  0  0
    8.9104  -12.3025    0.6457 H   0  0  0  0  0  0  0  0  0  0  0  0
    8.8329  -13.6951   -0.4946 H   0  0  0  0  0  0  0  0  0  0  0  0
  1  2  1  0
  2  3  1  0
  3  4  1  0
  4  5  1  0
  5  6  1  0
  6  7  1  0
  7  8  2  0
  8  9  1  0
  9 10  1  0
 10 11  2  0
 10 12  1  0
 12 13  1  0
 13 14  2  0
 14 15  1  0
 15 16  2  0
 16 17  1  0
 16 18  1  0
 18 19  1  0
 19 20  1  0
 20 21  2  0
 21 22  1  0
 22 23  2  0
 23 24  1  0
 24 25  2  0
 25 26  1  0
 26 27  2  0
 27 28  1  0
 28 29  1  0
 29 30  2  0
 30 31  1  0
 31 32  1  0
 31 33  2  0
 33 34  1  0
 34 35  2  0
 18 36  2  0
  9 37  2  0
 37 38  1  0
 38 39  1  0
 39 40  1  0
 39 41  1  0
 39 42  1  0
 38 43  2  0
  6 44  1  0
 44 45  1  0
 45  3  1  0
 43  7  1  0
 36 13  1  0
 28 20  1  0
 35 29  1  0
 27 22  1  0
  1 46  1  0
  1 47  1  0
  1 48  1  0
  2 49  1  0
  2 50  1  0
  3 51  1  0
  4 52  1  0
  4 53  1  0
  5 54  1  0
  5 55  1  0
  8 56  1  0
 12 57  1  0
 14 58  1  0
 15 59  1  0
 17 60  1  0
 17 61  1  0
 17 62  1  0
 19 63  1  0
 23 64  1  0
 24 65  1  0
 25 66  1  0
 26 67  1  0
 30 68  1  0
 32 69  1  0
 32 70  1  0
 34 71  1  0
 36 72  1  0
 37 73  1  0
 43 74  1  0
 44 75  1  0
 44 76  1  0
 45 77  1  0
 45 78  1  0
M  CHG  1   3   1
M  END
>  <meeko>  (5) 
{"is_sidechain": [false], "free_energy": -9.587, "intermolecular_energy": -14.509, "internal_energy": -1.83}

$$$$
LIB_HTEUQPWFMDGLKN__M_PUB_ALL__e8__s20260927
     RDKit          3D

 78 83  0  0  0  0  0  0  0  0999 V2000
   -2.6100  -18.5990    4.2750 C   0  0  0  0  0  0  0  0  0  0  0  0
   -2.5680  -18.3610    2.7780 C   0  0  0  0  0  0  0  0  0  0  0  0
   -2.3790  -16.9120    2.4130 N   0  0  0  0  0  0  0  0  0  0  0  0
   -1.4350  -16.1430    3.3330 C   0  0  0  0  0  0  0  0  0  0  0  0
   -1.4930  -14.6320    3.0230 C   0  0  0  0  0  0  0  0  0  0  0  0
   -1.2850  -14.3690    1.5860 N   0  0  0  0  0  0  0  0  0  0  0  0
   -0.8840  -13.0840    1.2200 C   0  0  0  0  0  0  0  0  0  0  0  0
    0.0850  -12.8520    0.2350 C   0  0  0  0  0  0  0  0  0  0  0  0
    0.5000  -11.5550   -0.1140 C   0  0  0  0  0  0  0  0  0  0  0  0
    1.5510  -11.4240   -1.1650 C   0  0  0  0  0  0  0  0  0  0  0  0
    1.5000  -10.4390   -1.8950 O   0  0  0  0  0  0  0  0  0  0  0  0
    2.5060  -12.4190   -1.1740 N   0  0  0  0  0  0  0  0  0  0  0  0
    3.5790  -12.5710   -2.0810 C   0  0  0  0  0  0  0  0  0  0  0  0
    3.5710  -12.0940   -3.3860 C   0  0  0  0  0  0  0  0  0  0  0  0
    4.6810  -12.2950   -4.2070 C   0  0  0  0  0  0  0  0  0  0  0  0
    5.8180  -12.9780   -3.7390 C   0  0  0  0  0  0  0  0  0  0  0  0
    6.9810  -13.1500   -4.6820 C   0  0  0  0  0  0  0  0  0  0  0  0
    5.8420  -13.4820   -2.4190 C   0  0  0  0  0  0  0  0  0  0  0  0
    6.9850  -14.1640   -1.9470 N   0  0  0  0  0  0  0  0  0  0  0  0
    8.1860  -13.6790   -1.5350 C   0  0  0  0  0  0  0  0  0  0  0  0
    9.3460  -13.7370   -2.1540 N   0  0  0  0  0  0  0  0  0  0  0  0
   10.2330  -13.0570   -1.3750 C   0  0  0  0  0  0  0  0  0  0  0  0
   11.5880  -12.7900   -1.6290 C   0  0  0  0  0  0  0  0  0  0  0  0
   12.3080  -12.0020   -0.7280 C   0  0  0  0  0  0  0  0  0  0  0  0
   11.6820  -11.4720    0.3970 C   0  0  0  0  0  0  0  0  0  0  0  0
   10.3340  -11.7360    0.6690 C   0  0  0  0  0  0  0  0  0  0  0  0
    9.6290  -12.5730   -0.2170 C   0  0  0  0  0  0  0  0  0  0  0  0
    8.3240  -13.0640   -0.2760 N   0  0  0  0  0  0  0  0  0  0  0  0
    7.2950  -12.9850    0.7220 C   0  0  0  0  0  0  0  0  0  0  0  0
    6.6820  -11.7810    1.0090 C   0  0  0  0  0  0  0  0  0  0  0  0
    5.7010  -11.7920    1.9790 C   0  0  0  0  0  0  0  0  0  0  0  0
    5.0740  -10.6250    2.3610 N   0  0  0  0  0  0  0  0  0  0  0  0
    5.3620  -12.8960    2.6480 N   0  0  0  0  0  0  0  0  0  0  0  0
    6.0250  -14.0110    2.3300 C   0  0  0  0  0  0  0  0  0  0  0  0
    6.9900  -14.1170    1.4050 N   0  0  0  0  0  0  0  0  0  0  0  0
    4.7110  -13.2580   -1.6160 C   0  0  0  0  0  0  0  0  0  0  0  0
   -0.0440  -10.4520    0.5470 C   0  0  0  0  0  0  0  0  0  0  0  0
   -1.0230  -10.6440    1.5320 C   0  0  0  0  0  0  0  0  0  0  0  0
   -1.6030   -9.4690    2.2830 C   0  0  0  0  0  0  0  0  0  0  0  0
   -2.1930   -9.8430    3.4490 F   0  0  0  0  0  0  0  0  0  0  0  0
   -2.5600   -8.8150    1.5670 F   0  0  0  0  0  0  0  0  0  0  0  0
   -0.6720   -8.5320    2.6060 F   0  0  0  0  0  0  0  0  0  0  0  0
   -1.4230  -11.9560    1.8570 C   0  0  0  0  0  0  0  0  0  0  0  0
   -2.0780  -15.1650    0.6290 C   0  0  0  0  0  0  0  0  0  0  0  0
   -2.0030  -16.6700    0.9540 C   0  0  0  0  0  0  0  0  0  0  0  0
   -2.4422  -17.6483    4.8023 H   0  0  0  0  0  0  0  0  0  0  0  0
   -3.5936  -19.0046    4.5543 H   0  0  0  0  0  0  0  0  0  0  0  0
   -1.8246  -19.3168    4.5543 H   0  0  0  0  0  0  0  0  0  0  0  0
   -1.7336  -18.9398    2.3552 H   0  0  0  0  0  0  0  0  0  0  0  0
   -3.5390  -18.6773    2.3692 H   0  0  0  0  0  0  0  0  0  0  0  0
   -3.3020  -16.4750    2.5340 H   0  0  0  0  0  0  0  0  0  0  0  0
   -1.7324  -16.3100    4.3788 H   0  0  0  0  0  0  0  0  0  0  0  0
   -0.4078  -16.5013    3.1700 H   0  0  0  0  0  0  0  0  0  0  0  0
   -2.4786  -14.2435    3.3190 H   0  0  0  0  0  0  0  0  0  0  0  0
   -0.6912  -14.1320    3.5861 H   0  0  0  0  0  0  0  0  0  0  0  0
    0.5355  -13.7122   -0.2818 H   0  0  0  0  0  0  0  0  0  0  0  0
    2.4820  -13.1110   -0.4370 H   0  0  0  0  0  0  0  0  0  0  0  0
    2.6907  -11.5586   -3.7713 H   0  0  0  0  0  0  0  0  0  0  0  0
    4.6667  -11.9126   -5.2383 H   0  0  0  0  0  0  0  0  0  0  0  0
    7.9059  -13.2868   -4.1024 H   0  0  0  0  0  0  0  0  0  0  0  0
    6.8116  -14.0329   -5.3159 H   0  0  0  0  0  0  0  0  0  0  0  0
    7.0744  -12.2559   -5.3159 H   0  0  0  0  0  0  0  0  0  0  0  0
    6.8650  -15.1750   -1.8710 H   0  0  0  0  0  0  0  0  0  0  0  0
   12.0766  -13.1965   -2.5268 H   0  0  0  0  0  0  0  0  0  0  0  0
   13.3741  -11.7993   -0.9081 H   0  0  0  0  0  0  0  0  0  0  0  0
   12.2568  -10.8343    1.0847 H   0  0  0  0  0  0  0  0  0  0  0  0
    9.8396  -11.3016    1.5504 H   0  0  0  0  0  0  0  0  0  0  0  0
    6.9635  -10.8544    0.4873 H   0  0  0  0  0  0  0  0  0  0  0  0
    4.6780  -10.1080    1.5830 H   0  0  0  0  0  0  0  0  0  0  0  0
    5.4510  -10.0840    3.1230 H   0  0  0  0  0  0  0  0  0  0  0  0
    5.7546  -14.9262    2.8770 H   0  0  0  0  0  0  0  0  0  0  0  0
    4.7129  -13.6357   -0.5829 H   0  0  0  0  0  0  0  0  0  0  0  0
    0.2944   -9.4359    0.2958 H   0  0  0  0  0  0  0  0  0  0  0  0
   -2.1845  -12.1006    2.6375 H   0  0  0  0  0  0  0  0  0  0  0  0
   -3.1279  -14.8402    0.6763 H   0  0  0  0  0  0  0  0  0  0  0  0
   -1.6664  -15.0067   -0.3788 H   0  0  0  0  0  0  0  0  0  0  0  0
   -2.7004  -17.2177    0.3031 H   0  0  0  0  0  0  0  0  0  0  0  0
   -0.9754  -17.0237    0.7841 H   0  0  0  0  0  0  0  0  0  0  0  0
  1  2  1  0
  2  3  1  0
  3  4  1  0
  4  5  1  0
  5  6  1  0
  6  7  1  0
  7  8  2  0
  8  9  1  0
  9 10  1  0
 10 11  2  0
 10 12  1  0
 12 13  1  0
 13 14  2  0
 14 15  1  0
 15 16  2  0
 16 17  1  0
 16 18  1  0
 18 19  1  0
 19 20  1  0
 20 21  2  0
 21 22  1  0
 22 23  2  0
 23 24  1  0
 24 25  2  0
 25 26  1  0
 26 27  2  0
 27 28  1  0
 28 29  1  0
 29 30  2  0
 30 31  1  0
 31 32  1  0
 31 33  2  0
 33 34  1  0
 34 35  2  0
 18 36  2  0
  9 37  2  0
 37 38  1  0
 38 39  1  0
 39 40  1  0
 39 41  1  0
 39 42  1  0
 38 43  2  0
  6 44  1  0
 44 45  1  0
 45  3  1  0
 43  7  1  0
 36 13  1  0
 28 20  1  0
 35 29  1  0
 27 22  1  0
  1 46  1  0
  1 47  1  0
  1 48  1  0
  2 49  1  0
  2 50  1  0
  3 51  1  0
  4 52  1  0
  4 53  1  0
  5 54  1  0
  5 55  1  0
  8 56  1  0
 12 57  1  0
 14 58  1  0
 15 59  1  0
 17 60  1  0
 17 61  1  0
 17 62  1  0
 19 63  1  0
 23 64  1  0
 24 65  1  0
 25 66  1  0
 26 67  1  0
 30 68  1  0
 32 69  1  0
 32 70  1  0
 34 71  1  0
 36 72  1  0
 37 73  1  0
 43 74  1  0
 44 75  1  0
 44 76  1  0
 45 77  1  0
 45 78  1  0
M  CHG  1   3   1
M  END
>  <meeko>  (6) 
{"is_sidechain": [false], "free_energy": -9.488, "intermolecular_energy": -14.396, "internal_energy": -1.793}

$$$$
LIB_HTEUQPWFMDGLKN__M_PUB_ALL__e8__s20260927
     RDKit          3D

 78 83  0  0  0  0  0  0  0  0999 V2000
   12.3980  -11.9200   -0.3700 C   0  0  0  0  0  0  0  0  0  0  0  0
   11.0780  -12.3290    0.2550 C   0  0  0  0  0  0  0  0  0  0  0  0
    9.8860  -11.9820   -0.5980 N   0  0  0  0  0  0  0  0  0  0  0  0
    9.8950  -12.6100   -1.9890 C   0  0  0  0  0  0  0  0  0  0  0  0
    8.7680  -12.0110   -2.8580 C   0  0  0  0  0  0  0  0  0  0  0  0
    7.4640  -12.0790   -2.1710 N   0  0  0  0  0  0  0  0  0  0  0  0
    6.3180  -11.9890   -2.9600 C   0  0  0  0  0  0  0  0  0  0  0  0
    5.1180  -11.4450   -2.4830 C   0  0  0  0  0  0  0  0  0  0  0  0
    3.9610  -11.3760   -3.2780 C   0  0  0  0  0  0  0  0  0  0  0  0
    2.7330  -10.7920   -2.6630 C   0  0  0  0  0  0  0  0  0  0  0  0
    2.1740   -9.8860   -3.2720 O   0  0  0  0  0  0  0  0  0  0  0  0
    2.3300  -11.3730   -1.4780 N   0  0  0  0  0  0  0  0  0  0  0  0
    1.2410  -10.9930   -0.6620 C   0  0  0  0  0  0  0  0  0  0  0  0
    0.3500   -9.9750   -0.9750 C   0  0  0  0  0  0  0  0  0  0  0  0
   -0.6960   -9.6720   -0.1020 C   0  0  0  0  0  0  0  0  0  0  0  0
   -0.8690  -10.3820    1.1000 C   0  0  0  0  0  0  0  0  0  0  0  0
   -2.0250  -10.0030    1.9880 C   0  0  0  0  0  0  0  0  0  0  0  0
    0.0350  -11.4130    1.4430 C   0  0  0  0  0  0  0  0  0  0  0  0
   -0.1410  -12.1290    2.6480 N   0  0  0  0  0  0  0  0  0  0  0  0
   -0.1690  -13.4700    2.8730 C   0  0  0  0  0  0  0  0  0  0  0  0
    0.7980  -14.2450    3.3160 N   0  0  0  0  0  0  0  0  0  0  0  0
    0.2670  -15.4940    3.4340 C   0  0  0  0  0  0  0  0  0  0  0  0
    0.8840  -16.6590    3.9190 C   0  0  0  0  0  0  0  0  0  0  0  0
    0.1330  -17.8310    4.0310 C   0  0  0  0  0  0  0  0  0  0  0  0
   -1.2150  -17.8370    3.6850 C   0  0  0  0  0  0  0  0  0  0  0  0
   -1.8430  -16.6860    3.1920 C   0  0  0  0  0  0  0  0  0  0  0  0
   -1.0670  -15.5230    3.0340 C   0  0  0  0  0  0  0  0  0  0  0  0
   -1.3170  -14.2280    2.5750 N   0  0  0  0  0  0  0  0  0  0  0  0
   -2.4940  -13.7250    1.9230 C   0  0  0  0  0  0  0  0  0  0  0  0
   -3.6740  -13.5660    2.6230 C   0  0  0  0  0  0  0  0  0  0  0  0
   -4.7560  -13.0750    1.9230 C   0  0  0  0  0  0  0  0  0  0  0  0
   -5.9850  -12.9310    2.5320 N   0  0  0  0  0  0  0  0  0  0  0  0
   -4.7030  -12.7890    0.6200 N   0  0  0  0  0  0  0  0  0  0  0  0
   -3.5310  -13.0010    0.0130 C   0  0  0  0  0  0  0  0  0  0  0  0
   -2.4170  -13.4700    0.5930 N   0  0  0  0  0  0  0  0  0  0  0  0
    1.0730  -11.6970    0.5400 C   0  0  0  0  0  0  0  0  0  0  0  0
    3.9830  -11.8820   -4.5790 C   0  0  0  0  0  0  0  0  0  0  0  0
    5.1670  -12.4250   -5.0940 C   0  0  0  0  0  0  0  0  0  0  0  0
    5.2070  -13.0070   -6.4880 C   0  0  0  0  0  0  0  0  0  0  0  0
    3.9630  -13.2300   -6.9880 F   0  0  0  0  0  0  0  0  0  0  0  0
    5.8530  -14.2060   -6.5330 F   0  0  0  0  0  0  0  0  0  0  0  0
    5.8430  -12.2050   -7.3820 F   0  0  0  0  0  0  0  0  0  0  0  0
    6.3130  -12.4760   -4.2760 C   0  0  0  0  0  0  0  0  0  0  0  0
    7.4060  -11.6020   -0.7760 C   0  0  0  0  0  0  0  0  0  0  0  0
    8.5360  -12.2150    0.0750 C   0  0  0  0  0  0  0  0  0  0  0  0
   13.1253  -11.6946    0.4238 H   0  0  0  0  0  0  0  0  0  0  0  0
   12.7788  -12.7423   -0.9936 H   0  0  0  0  0  0  0  0  0  0  0  0
   12.2472  -11.0265   -0.9936 H   0  0  0  0  0  0  0  0  0  0  0  0
   11.0889  -13.4173    0.4147 H   0  0  0  0  0  0  0  0  0  0  0  0
   10.9772  -11.7743    1.1995 H   0  0  0  0  0  0  0  0  0  0  0  0
    9.9440  -10.9660   -0.7520 H   0  0  0  0  0  0  0  0  0  0  0  0
   10.8653  -12.4142   -2.4687 H   0  0  0  0  0  0  0  0  0  0  0  0
    9.7328  -13.6936   -1.8920 H   0  0  0  0  0  0  0  0  0  0  0  0
    9.0040  -10.9586   -3.0744 H   0  0  0  0  0  0  0  0  0  0  0  0
    8.7002  -12.5952   -3.7876 H   0  0  0  0  0  0  0  0  0  0  0  0
    5.0803  -11.0596   -1.4534 H   0  0  0  0  0  0  0  0  0  0  0  0
    2.8310  -12.1890   -1.1530 H   0  0  0  0  0  0  0  0  0  0  0  0
    0.4684   -9.4079   -1.9101 H   0  0  0  0  0  0  0  0  0  0  0  0
   -1.3972   -8.8641   -0.3583 H   0  0  0  0  0  0  0  0  0  0  0  0
   -1.7254  -10.1012    3.0418 H   0  0  0  0  0  0  0  0  0  0  0  0
   -2.3171   -8.9620    1.7853 H   0  0  0  0  0  0  0  0  0  0  0  0
   -2.8767  -10.6689    1.7853 H   0  0  0  0  0  0  0  0  0  0  0  0
   -0.2170  -11.5390    3.4760 H   0  0  0  0  0  0  0  0  0  0  0  0
    1.9456  -16.6483    4.2070 H   0  0  0  0  0  0  0  0  0  0  0  0
    0.6091  -18.7537    4.3944 H   0  0  0  0  0  0  0  0  0  0  0  0
   -1.7980  -18.7626    3.8008 H   0  0  0  0  0  0  0  0  0  0  0  0
   -2.9127  -16.6912    2.9356 H   0  0  0  0  0  0  0  0  0  0  0  0
   -3.7474  -13.8196    3.6908 H   0  0  0  0  0  0  0  0  0  0  0  0
   -6.6670  -12.4540    1.9520 H   0  0  0  0  0  0  0  0  0  0  0  0
   -6.0310  -12.7590    3.5250 H   0  0  0  0  0  0  0  0  0  0  0  0
   -3.4755  -12.7694   -1.0609 H   0  0  0  0  0  0  0  0  0  0  0  0
    1.7813  -12.5023    0.7847 H   0  0  0  0  0  0  0  0  0  0  0  0
    3.0737  -11.8543   -5.1974 H   0  0  0  0  0  0  0  0  0  0  0  0
    7.2366  -12.9131   -4.6834 H   0  0  0  0  0  0  0  0  0  0  0  0
    7.5057  -10.5066   -0.7678 H   0  0  0  0  0  0  0  0  0  0  0  0
    6.4419  -11.9092   -0.3447 H   0  0  0  0  0  0  0  0  0  0  0  0
    8.5391  -11.7440    1.0690 H   0  0  0  0  0  0  0  0  0  0  0  0
    8.3653  -13.2972    0.1737 H   0  0  0  0  0  0  0  0  0  0  0  0
  1  2  1  0
  2  3  1  0
  3  4  1  0
  4  5  1  0
  5  6  1  0
  6  7  1  0
  7  8  2  0
  8  9  1  0
  9 10  1  0
 10 11  2  0
 10 12  1  0
 12 13  1  0
 13 14  2  0
 14 15  1  0
 15 16  2  0
 16 17  1  0
 16 18  1  0
 18 19  1  0
 19 20  1  0
 20 21  2  0
 21 22  1  0
 22 23  2  0
 23 24  1  0
 24 25  2  0
 25 26  1  0
 26 27  2  0
 27 28  1  0
 28 29  1  0
 29 30  2  0
 30 31  1  0
 31 32  1  0
 31 33  2  0
 33 34  1  0
 34 35  2  0
 18 36  2  0
  9 37  2  0
 37 38  1  0
 38 39  1  0
 39 40  1  0
 39 41  1  0
 39 42  1  0
 38 43  2  0
  6 44  1  0
 44 45  1  0
 45  3  1  0
 43  7  1  0
 36 13  1  0
 28 20  1  0
 35 29  1  0
 27 22  1  0
  1 46  1  0
  1 47  1  0
  1 48  1  0
  2 49  1  0
  2 50  1  0
  3 51  1  0
  4 52  1  0
  4 53  1  0
  5 54  1  0
  5 55  1  0
  8 56  1  0
 12 57  1  0
 14 58  1  0
 15 59  1  0
 17 60  1  0
 17 61  1  0
 17 62  1  0
 19 63  1  0
 23 64  1  0
 24 65  1  0
 25 66  1  0
 26 67  1  0
 30 68  1  0
 32 69  1  0
 32 70  1  0
 34 71  1  0
 36 72  1  0
 37 73  1  0
 43 74  1  0
 44 75  1  0
 44 76  1  0
 45 77  1  0
 45 78  1  0
M  CHG  1   3   1
M  END
>  <meeko>  (7) 
{"is_sidechain": [false], "free_energy": -9.412, "intermolecular_energy": -14.414, "internal_energy": -1.661}

$$$$
LIB_HTEUQPWFMDGLKN__M_PUB_ALL__e8__s20260927
     RDKit          3D

 78 83  0  0  0  0  0  0  0  0999 V2000
    8.6470   -9.7000  -11.7860 C   0  0  0  0  0  0  0  0  0  0  0  0
    8.8610  -11.1990  -11.8740 C   0  0  0  0  0  0  0  0  0  0  0  0
    9.8000  -11.7270  -10.8220 N   0  0  0  0  0  0  0  0  0  0  0  0
    9.5550  -13.1800  -10.4220 C   0  0  0  0  0  0  0  0  0  0  0  0
   10.4010  -13.5480   -9.1850 C   0  0  0  0  0  0  0  0  0  0  0  0
   11.8230  -13.2070   -9.3840 N   0  0  0  0  0  0  0  0  0  0  0  0
   12.7570  -13.8510   -8.5740 C   0  0  0  0  0  0  0  0  0  0  0  0
   12.6760  -13.8370   -7.1750 C   0  0  0  0  0  0  0  0  0  0  0  0
   13.6330  -14.4710   -6.3640 C   0  0  0  0  0  0  0  0  0  0  0  0
   13.4570  -14.3780   -4.8850 C   0  0  0  0  0  0  0  0  0  0  0  0
   13.8450  -15.3260   -4.2110 O   0  0  0  0  0  0  0  0  0  0  0  0
   12.9080  -13.1980   -4.4270 N   0  0  0  0  0  0  0  0  0  0  0  0
   12.5880  -12.8610   -3.0920 C   0  0  0  0  0  0  0  0  0  0  0  0
   13.2040  -11.8440   -2.3760 C   0  0  0  0  0  0  0  0  0  0  0  0
   12.8180  -11.5870   -1.0600 C   0  0  0  0  0  0  0  0  0  0  0  0
   11.8110  -12.3450   -0.4360 C   0  0  0  0  0  0  0  0  0  0  0  0
   11.4440  -12.0050    0.9850 C   0  0  0  0  0  0  0  0  0  0  0  0
   11.1810  -13.3940   -1.1430 C   0  0  0  0  0  0  0  0  0  0  0  0
   10.1660  -14.1530   -0.5190 N   0  0  0  0  0  0  0  0  0  0  0  0
    9.1530  -14.8770   -1.0660 C   0  0  0  0  0  0  0  0  0  0  0  0
    9.2260  -15.8320   -1.9690 N   0  0  0  0  0  0  0  0  0  0  0  0
    7.9560  -16.2920   -2.1460 C   0  0  0  0  0  0  0  0  0  0  0  0
    7.5200  -17.3460   -2.9650 C   0  0  0  0  0  0  0  0  0  0  0  0
    6.1720  -17.7120   -2.9440 C   0  0  0  0  0  0  0  0  0  0  0  0
    5.2780  -17.0510   -2.1070 C   0  0  0  0  0  0  0  0  0  0  0  0
    5.6960  -15.9930   -1.2890 C   0  0  0  0  0  0  0  0  0  0  0  0
    7.0450  -15.5970   -1.3540 C   0  0  0  0  0  0  0  0  0  0  0  0
    7.8120  -14.6120   -0.7300 N   0  0  0  0  0  0  0  0  0  0  0  0
    7.3660  -13.5260    0.0980 C   0  0  0  0  0  0  0  0  0  0  0  0
    6.5050  -13.7520    1.1540 C   0  0  0  0  0  0  0  0  0  0  0  0
    6.1280  -12.6550    1.9000 C   0  0  0  0  0  0  0  0  0  0  0  0
    5.2330  -12.7840    2.9410 N   0  0  0  0  0  0  0  0  0  0  0  0
    6.5350  -11.4160    1.6170 N   0  0  0  0  0  0  0  0  0  0  0  0
    7.3430  -11.2820    0.5620 C   0  0  0  0  0  0  0  0  0  0  0  0
    7.7750  -12.2740   -0.2300 N   0  0  0  0  0  0  0  0  0  0  0  0
   11.5870  -13.6230   -2.4690 C   0  0  0  0  0  0  0  0  0  0  0  0
   14.7180  -15.1220   -6.9540 C   0  0  0  0  0  0  0  0  0  0  0  0
   14.8290  -15.1660   -8.3500 C   0  0  0  0  0  0  0  0  0  0  0  0
   16.0110  -15.8370   -9.0090 C   0  0  0  0  0  0  0  0  0  0  0  0
   15.7210  -17.0970   -9.4260 F   0  0  0  0  0  0  0  0  0  0  0  0
   17.0780  -15.9520   -8.1700 F   0  0  0  0  0  0  0  0  0  0  0  0
   16.4640  -15.1650  -10.1010 F   0  0  0  0  0  0  0  0  0  0  0  0
   13.8510  -14.5260   -9.1370 C   0  0  0  0  0  0  0  0  0  0  0  0
   12.1320  -11.8550   -9.8890 C   0  0  0  0  0  0  0  0  0  0  0  0
   11.2790  -11.5090  -11.1260 C   0  0  0  0  0  0  0  0  0  0  0  0
    8.6038   -9.3972  -10.7294 H   0  0  0  0  0  0  0  0  0  0  0  0
    9.4801   -9.1809  -12.2824 H   0  0  0  0  0  0  0  0  0  0  0  0
    7.7019   -9.4348  -12.2824 H   0  0  0  0  0  0  0  0  0  0  0  0
    7.8880  -11.6985  -11.7566 H   0  0  0  0  0  0  0  0  0  0  0  0
    9.3169  -11.4071  -12.8532 H   0  0  0  0  0  0  0  0  0  0  0  0
    9.6080  -11.1710   -9.9780 H   0  0  0  0  0  0  0  0  0  0  0  0
    8.4893  -13.3160  -10.1857 H   0  0  0  0  0  0  0  0  0  0  0  0
    9.8434  -13.8336  -11.2585 H   0  0  0  0  0  0  0  0  0  0  0  0
   10.0193  -12.9962   -8.3134 H   0  0  0  0  0  0  0  0  0  0  0  0
   10.3247  -14.6335   -9.0240 H   0  0  0  0  0  0  0  0  0  0  0  0
   11.8360  -13.3127   -6.6959 H   0  0  0  0  0  0  0  0  0  0  0  0
   12.7400  -12.4590   -5.0960 H   0  0  0  0  0  0  0  0  0  0  0  0
   13.9955  -11.2414   -2.8454 H   0  0  0  0  0  0  0  0  0  0  0  0
   13.3099  -10.7774   -0.5008 H   0  0  0  0  0  0  0  0  0  0  0  0
   12.0723  -12.5871    1.6753 H   0  0  0  0  0  0  0  0  0  0  0  0
   11.6063  -10.9310    1.1587 H   0  0  0  0  0  0  0  0  0  0  0  0
   10.3855  -12.2487    1.1587 H   0  0  0  0  0  0  0  0  0  0  0  0
   10.2370  -14.1880    0.4970 H   0  0  0  0  0  0  0  0  0  0  0  0
    8.2311  -17.8769   -3.6150 H   0  0  0  0  0  0  0  0  0  0  0  0
    5.8156  -18.5263   -3.5920 H   0  0  0  0  0  0  0  0  0  0  0  0
    4.2239  -17.3649   -2.0872 H   0  0  0  0  0  0  0  0  0  0  0  0
    4.9897  -15.4862   -0.6150 H   0  0  0  0  0  0  0  0  0  0  0  0
    6.1366  -14.7614    1.3894 H   0  0  0  0  0  0  0  0  0  0  0  0
    5.5070  -13.4830    3.6230 H   0  0  0  0  0  0  0  0  0  0  0  0
    4.2450  -12.6840    2.7640 H   0  0  0  0  0  0  0  0  0  0  0  0
    7.6854  -10.2649    0.3208 H   0  0  0  0  0  0  0  0  0  0  0  0
   11.1025  -14.4290   -3.0396 H   0  0  0  0  0  0  0  0  0  0  0  0
   15.4836  -15.5991   -6.3246 H   0  0  0  0  0  0  0  0  0  0  0  0
   13.9485  -14.5566  -10.2322 H   0  0  0  0  0  0  0  0  0  0  0  0
   11.9268  -11.1210   -9.0959 H   0  0  0  0  0  0  0  0  0  0  0  0
   13.1923  -11.8278  -10.1805 H   0  0  0  0  0  0  0  0  0  0  0  0
   11.4430  -10.4558  -11.3977 H   0  0  0  0  0  0  0  0  0  0  0  0
   11.5745  -12.1618  -11.9606 H   0  0  0  0  0  0  0  0  0  0  0  0
  1  2  1  0
  2  3  1  0
  3  4  1  0
  4  5  1  0
  5  6  1  0
  6  7  1  0
  7  8  2  0
  8  9  1  0
  9 10  1  0
 10 11  2  0
 10 12  1  0
 12 13  1  0
 13 14  2  0
 14 15  1  0
 15 16  2  0
 16 17  1  0
 16 18  1  0
 18 19  1  0
 19 20  1  0
 20 21  2  0
 21 22  1  0
 22 23  2  0
 23 24  1  0
 24 25  2  0
 25 26  1  0
 26 27  2  0
 27 28  1  0
 28 29  1  0
 29 30  2  0
 30 31  1  0
 31 32  1  0
 31 33  2  0
 33 34  1  0
 34 35  2  0
 18 36  2  0
  9 37  2  0
 37 38  1  0
 38 39  1  0
 39 40  1  0
 39 41  1  0
 39 42  1  0
 38 43  2  0
  6 44  1  0
 44 45  1  0
 45  3  1  0
 43  7  1  0
 36 13  1  0
 28 20  1  0
 35 29  1  0
 27 22  1  0
  1 46  1  0
  1 47  1  0
  1 48  1  0
  2 49  1  0
  2 50  1  0
  3 51  1  0
  4 52  1  0
  4 53  1  0
  5 54  1  0
  5 55  1  0
  8 56  1  0
 12 57  1  0
 14 58  1  0
 15 59  1  0
 17 60  1  0
 17 61  1  0
 17 62  1  0
 19 63  1  0
 23 64  1  0
 24 65  1  0
 25 66  1  0
 26 67  1  0
 30 68  1  0
 32 69  1  0
 32 70  1  0
 34 71  1  0
 36 72  1  0
 37 73  1  0
 43 74  1  0
 44 75  1  0
 44 76  1  0
 45 77  1  0
 45 78  1  0
M  CHG  1   3   1
M  END
>  <meeko>  (8) 
{"is_sidechain": [false], "free_energy": -9.373, "intermolecular_energy": -14.319, "internal_energy": -1.699}

$$$$
LIB_HTEUQPWFMDGLKN__M_PUB_ALL__e8__s20260927
     RDKit          3D

 78 83  0  0  0  0  0  0  0  0999 V2000
   12.2750  -13.2850    0.2980 C   0  0  0  0  0  0  0  0  0  0  0  0
   12.1490  -12.4250   -0.9450 C   0  0  0  0  0  0  0  0  0  0  0  0
   10.7210  -12.1130   -1.3080 N   0  0  0  0  0  0  0  0  0  0  0  0
   10.3330  -12.4860   -2.7360 C   0  0  0  0  0  0  0  0  0  0  0  0
    8.9400  -11.9150   -3.0820 C   0  0  0  0  0  0  0  0  0  0  0  0
    7.9380  -12.2870   -2.0640 N   0  0  0  0  0  0  0  0  0  0  0  0
    6.5950  -12.2290   -2.4350 C   0  0  0  0  0  0  0  0  0  0  0  0
    5.5560  -12.2250   -1.4960 C   0  0  0  0  0  0  0  0  0  0  0  0
    4.2030  -12.1880   -1.8780 C   0  0  0  0  0  0  0  0  0  0  0  0
    3.1770  -12.2050   -0.7940 C   0  0  0  0  0  0  0  0  0  0  0  0
    3.4820  -12.7470    0.2620 O   0  0  0  0  0  0  0  0  0  0  0  0
    1.9940  -11.5600   -1.0900 N   0  0  0  0  0  0  0  0  0  0  0  0
    0.8430  -11.4640   -0.2760 C   0  0  0  0  0  0  0  0  0  0  0  0
    0.1510  -10.2830   -0.0390 C   0  0  0  0  0  0  0  0  0  0  0  0
   -0.9770  -10.2890    0.7820 C   0  0  0  0  0  0  0  0  0  0  0  0
   -1.4320  -11.4760    1.3830 C   0  0  0  0  0  0  0  0  0  0  0  0
   -2.6610  -11.4050    2.2520 C   0  0  0  0  0  0  0  0  0  0  0  0
   -0.7360  -12.6860    1.1660 C   0  0  0  0  0  0  0  0  0  0  0  0
   -1.1950  -13.8790    1.7660 N   0  0  0  0  0  0  0  0  0  0  0  0
   -0.7200  -14.5550    2.8460 C   0  0  0  0  0  0  0  0  0  0  0  0
   -0.9420  -14.3170    4.1210 N   0  0  0  0  0  0  0  0  0  0  0  0
   -0.3020  -15.3010    4.8140 C   0  0  0  0  0  0  0  0  0  0  0  0
   -0.2850  -15.5180    6.2010 C   0  0  0  0  0  0  0  0  0  0  0  0
    0.3750  -16.6400    6.7070 C   0  0  0  0  0  0  0  0  0  0  0  0
    0.9900  -17.5420    5.8430 C   0  0  0  0  0  0  0  0  0  0  0  0
    0.9890  -17.3360    4.4570 C   0  0  0  0  0  0  0  0  0  0  0  0
    0.3650  -16.1760    3.9600 C   0  0  0  0  0  0  0  0  0  0  0  0
    0.1750  -15.6300    2.6890 N   0  0  0  0  0  0  0  0  0  0  0  0
    0.7570  -16.0470    1.4430 C   0  0  0  0  0  0  0  0  0  0  0  0
    2.0670  -15.7350    1.1380 C   0  0  0  0  0  0  0  0  0  0  0  0
    2.5490  -16.1760   -0.0770 C   0  0  0  0  0  0  0  0  0  0  0  0
    3.8300  -15.8660   -0.4820 N   0  0  0  0  0  0  0  0  0  0  0  0
    1.7960  -16.8470   -0.9510 N   0  0  0  0  0  0  0  0  0  0  0  0
    0.5310  -17.0810   -0.5890 C   0  0  0  0  0  0  0  0  0  0  0  0
   -0.0410  -16.7040    0.5640 N   0  0  0  0  0  0  0  0  0  0  0  0
    0.3930  -12.6480    0.3290 C   0  0  0  0  0  0  0  0  0  0  0  0
    3.8660  -12.1750   -3.2330 C   0  0  0  0  0  0  0  0  0  0  0  0
    4.8790  -12.1680   -4.2020 C   0  0  0  0  0  0  0  0  0  0  0  0
    4.5390  -12.1870   -5.6730 C   0  0  0  0  0  0  0  0  0  0  0  0
    3.7880  -13.2670   -6.0150 F   0  0  0  0  0  0  0  0  0  0  0  0
    5.6480  -12.2320   -6.4630 F   0  0  0  0  0  0  0  0  0  0  0  0
    3.8400  -11.0910   -6.0720 F   0  0  0  0  0  0  0  0  0  0  0  0
    6.2260  -12.2010   -3.7890 C   0  0  0  0  0  0  0  0  0  0  0  0
    8.2950  -12.0690   -0.6490 C   0  0  0  0  0  0  0  0  0  0  0  0
    9.6860  -12.6490   -0.3240 C   0  0  0  0  0  0  0  0  0  0  0  0
   12.1823  -12.6520    1.1928 H   0  0  0  0  0  0  0  0  0  0  0  0
   11.4784  -14.0436    0.3013 H   0  0  0  0  0  0  0  0  0  0  0  0
   13.2557  -13.7832    0.3013 H   0  0  0  0  0  0  0  0  0  0  0  0
   12.6803  -11.4778   -0.7702 H   0  0  0  0  0  0  0  0  0  0  0  0
   12.5823  -12.9934   -1.7812 H   0  0  0  0  0  0  0  0  0  0  0  0
   10.6430  -11.0880   -1.2580 H   0  0  0  0  0  0  0  0  0  0  0  0
   11.0772  -12.0736   -3.4333 H   0  0  0  0  0  0  0  0  0  0  0  0
   10.3009  -13.5821   -2.8223 H   0  0  0  0  0  0  0  0  0  0  0  0
    9.0059  -10.8183   -3.1355 H   0  0  0  0  0  0  0  0  0  0  0  0
    8.6240  -12.3344   -4.0486 H   0  0  0  0  0  0  0  0  0  0  0  0
    5.8062  -12.2517   -0.4252 H   0  0  0  0  0  0  0  0  0  0  0  0
    1.9290  -11.0600   -1.9670 H   0  0  0  0  0  0  0  0  0  0  0  0
    0.4922   -9.3436   -0.4984 H   0  0  0  0  0  0  0  0  0  0  0  0
   -1.5196   -9.3493    0.9622 H   0  0  0  0  0  0  0  0  0  0  0  0
   -2.3630  -11.4222    3.3107 H   0  0  0  0  0  0  0  0  0  0  0  0
   -3.2068  -10.4738    2.0398 H   0  0  0  0  0  0  0  0  0  0  0  0
   -3.3104  -12.2671    2.0398 H   0  0  0  0  0  0  0  0  0  0  0  0
   -2.0380  -14.2630    1.3380 H   0  0  0  0  0  0  0  0  0  0  0  0
   -0.7855  -14.8128    6.8809 H   0  0  0  0  0  0  0  0  0  0  0  0
    0.4091  -16.8118    7.7930 H   0  0  0  0  0  0  0  0  0  0  0  0
    1.4858  -18.4328    6.2560 H   0  0  0  0  0  0  0  0  0  0  0  0
    1.4621  -18.0597    3.7770 H   0  0  0  0  0  0  0  0  0  0  0  0
    2.6978  -15.1607    1.8325 H   0  0  0  0  0  0  0  0  0  0  0  0
    3.8970  -15.6470   -1.4700 H   0  0  0  0  0  0  0  0  0  0  0  0
    4.6130  -16.3490   -0.0680 H   0  0  0  0  0  0  0  0  0  0  0  0
   -0.0987  -17.6334   -1.3020 H   0  0  0  0  0  0  0  0  0  0  0  0
    0.9444  -13.5811    0.1412 H   0  0  0  0  0  0  0  0  0  0  0  0
    2.8094  -12.1703   -3.5390 H   0  0  0  0  0  0  0  0  0  0  0  0
    7.0159  -12.2050   -4.5545 H   0  0  0  0  0  0  0  0  0  0  0  0
    8.3010  -10.9883   -0.4438 H   0  0  0  0  0  0  0  0  0  0  0  0
    7.5510  -12.5814   -0.0214 H   0  0  0  0  0  0  0  0  0  0  0  0
    9.9713  -12.3589    0.6980 H   0  0  0  0  0  0  0  0  0  0  0  0
    9.6466  -13.7453   -0.4049 H   0  0  0  0  0  0  0  0  0  0  0  0
  1  2  1  0
  2  3  1  0
  3  4  1  0
  4  5  1  0
  5  6  1  0
  6  7  1  0
  7  8  2  0
  8  9  1  0
  9 10  1  0
 10 11  2  0
 10 12  1  0
 12 13  1  0
 13 14  2  0
 14 15  1  0
 15 16  2  0
 16 17  1  0
 16 18  1  0
 18 19  1  0
 19 20  1  0
 20 21  2  0
 21 22  1  0
 22 23  2  0
 23 24  1  0
 24 25  2  0
 25 26  1  0
 26 27  2  0
 27 28  1  0
 28 29  1  0
 29 30  2  0
 30 31  1  0
 31 32  1  0
 31 33  2  0
 33 34  1  0
 34 35  2  0
 18 36  2  0
  9 37  2  0
 37 38  1  0
 38 39  1  0
 39 40  1  0
 39 41  1  0
 39 42  1  0
 38 43  2  0
  6 44  1  0
 44 45  1  0
 45  3  1  0
 43  7  1  0
 36 13  1  0
 28 20  1  0
 35 29  1  0
 27 22  1  0
  1 46  1  0
  1 47  1  0
  1 48  1  0
  2 49  1  0
  2 50  1  0
  3 51  1  0
  4 52  1  0
  4 53  1  0
  5 54  1  0
  5 55  1  0
  8 56  1  0
 12 57  1  0
 14 58  1  0
 15 59  1  0
 17 60  1  0
 17 61  1  0
 17 62  1  0
 19 63  1  0
 23 64  1  0
 24 65  1  0
 25 66  1  0
 26 67  1  0
 30 68  1  0
 32 69  1  0
 32 70  1  0
 34 71  1  0
 36 72  1  0
 37 73  1  0
 43 74  1  0
 44 75  1  0
 44 76  1  0
 45 77  1  0
 45 78  1  0
M  CHG  1   3   1
M  END
>  <meeko>  (9) 
{"is_sidechain": [false], "free_energy": -9.244, "intermolecular_energy": -13.29, "internal_energy": -2.535}

$$$$
