LIB_KSWHJMMTIWWPIR__M_PUB_ALL__e8__s20260927
     RDKit          3D

 57 60  0  0  0  0  0  0  0  0999 V2000
  -15.5350  -16.1320   -8.9820 N   0  0  0  0  0  0  0  0  0  0  0  0
  -15.4100  -16.3750   -7.8520 C   0  0  0  0  0  0  0  0  0  0  0  0
  -15.1310  -16.6810   -6.4730 C   0  0  0  0  0  0  0  0  0  0  0  0
  -16.1930  -17.0260   -5.6260 C   0  0  0  0  0  0  0  0  0  0  0  0
  -15.9490  -17.3330   -4.2880 C   0  0  0  0  0  0  0  0  0  0  0  0
  -14.6470  -17.3010   -3.7930 C   0  0  0  0  0  0  0  0  0  0  0  0
  -13.5820  -16.9560   -4.6300 C   0  0  0  0  0  0  0  0  0  0  0  0
  -13.8070  -16.6310   -5.9750 C   0  0  0  0  0  0  0  0  0  0  0  0
  -12.6910  -16.2850   -6.8750 C   0  0  0  0  0  0  0  0  0  0  0  0
  -11.3840  -16.3390   -6.5900 C   0  0  0  0  0  0  0  0  0  0  0  0
  -10.2870  -15.8170   -7.5510 C   0  0  0  0  0  0  0  0  0  0  0  0
  -10.0930  -14.9030   -8.5440 C   0  0  0  0  0  0  0  0  0  0  0  0
  -10.7050  -13.9200   -9.1980 N   0  0  0  0  0  0  0  0  0  0  0  0
  -11.9470  -14.1430   -9.9650 C   0  0  0  0  0  0  0  0  0  0  0  0
  -12.8750  -12.9160   -9.9390 C   0  0  0  0  0  0  0  0  0  0  0  0
  -12.1810  -11.6960  -10.5510 N   0  0  0  0  0  0  0  0  0  0  0  0
  -12.9670  -10.4310  -10.2840 C   0  0  0  0  0  0  0  0  0  0  0  0
  -12.4140   -9.6540   -9.0710 C   0  0  0  0  0  0  0  0  0  0  0  0
  -12.8960  -10.3040   -7.7590 C   0  0  0  0  0  0  0  0  0  0  0  0
  -14.3800  -10.0650   -7.4840 C   0  0  0  0  0  0  0  0  0  0  0  0
  -14.7260   -8.5810   -7.5100 C   0  0  0  0  0  0  0  0  0  0  0  0
  -14.2660   -7.9070   -8.7990 C   0  0  0  0  0  0  0  0  0  0  0  0
  -12.7830   -8.1590   -9.0670 C   0  0  0  0  0  0  0  0  0  0  0  0
  -10.6990  -11.6060  -10.1730 C   0  0  0  0  0  0  0  0  0  0  0  0
  -10.3200  -12.5050   -8.9790 C   0  0  0  0  0  0  0  0  0  0  0  0
   -8.6780  -15.3900   -8.7070 C   0  0  0  0  0  0  0  0  0  0  0  0
   -7.7310  -15.1510   -9.4120 O   0  0  0  0  0  0  0  0  0  0  0  0
   -8.9160  -16.3080   -7.5580 C   0  0  0  0  0  0  0  0  0  0  0  0
   -8.2210  -17.0910   -6.9660 O   0  0  0  0  0  0  0  0  0  0  0  0
  -17.2206  -17.0546   -6.0174 H   0  0  0  0  0  0  0  0  0  0  0  0
  -16.7839  -17.6003   -3.6236 H   0  0  0  0  0  0  0  0  0  0  0  0
  -14.4562  -17.5485   -2.7383 H   0  0  0  0  0  0  0  0  0  0  0  0
  -12.5576  -16.9394   -4.2295 H   0  0  0  0  0  0  0  0  0  0  0  0
  -12.9608  -15.9471   -7.8865 H   0  0  0  0  0  0  0  0  0  0  0  0
  -11.0747  -16.7744   -5.6284 H   0  0  0  0  0  0  0  0  0  0  0  0
  -11.6831  -14.3654  -11.0095 H   0  0  0  0  0  0  0  0  0  0  0  0
  -12.4846  -14.9826   -9.5001 H   0  0  0  0  0  0  0  0  0  0  0  0
  -13.7850  -13.1399  -10.5150 H   0  0  0  0  0  0  0  0  0  0  0  0
  -13.1298  -12.6889   -8.8933 H   0  0  0  0  0  0  0  0  0  0  0  0
  -12.2010  -11.8720  -11.5620 H   0  0  0  0  0  0  0  0  0  0  0  0
  -12.9148   -9.7857  -11.1733 H   0  0  0  0  0  0  0  0  0  0  0  0
  -14.0057  -10.7162  -10.0609 H   0  0  0  0  0  0  0  0  0  0  0  0
  -11.3184   -9.7089   -9.1523 H   0  0  0  0  0  0  0  0  0  0  0  0
  -12.7211  -11.3883   -7.8201 H   0  0  0  0  0  0  0  0  0  0  0  0
  -12.3305   -9.8424   -6.9361 H   0  0  0  0  0  0  0  0  0  0  0  0
  -14.9729  -10.5828   -8.2523 H   0  0  0  0  0  0  0  0  0  0  0  0
  -14.6098  -10.4533   -6.4808 H   0  0  0  0  0  0  0  0  0  0  0  0
  -15.8167   -8.4695   -7.4211 H   0  0  0  0  0  0  0  0  0  0  0  0
  -14.2056   -8.0971   -6.6703 H   0  0  0  0  0  0  0  0  0  0  0  0
  -14.8534   -8.3053   -9.6394 H   0  0  0  0  0  0  0  0  0  0  0  0
  -14.4172   -6.8226   -8.6932 H   0  0  0  0  0  0  0  0  0  0  0  0
  -12.5275   -7.7330  -10.0485 H   0  0  0  0  0  0  0  0  0  0  0  0
  -12.2176   -7.6844   -8.2514 H   0  0  0  0  0  0  0  0  0  0  0  0
  -10.0975  -11.9085  -11.0429 H   0  0  0  0  0  0  0  0  0  0  0  0
  -10.5008  -10.5660   -9.8744 H   0  0  0  0  0  0  0  0  0  0  0  0
   -9.2316  -12.4534   -8.8283 H   0  0  0  0  0  0  0  0  0  0  0  0
  -10.8646  -12.1400   -8.0957 H   0  0  0  0  0  0  0  0  0  0  0  0
  1  2  3  0
  2  3  1  0
  3  4  2  0
  4  5  1  0
  5  6  2  0
  6  7  1  0
  7  8  2  0
  8  9  1  0
  9 10  2  0
 10 11  1  0
 11 12  2  0
 12 13  1  0
 13 14  1  0
 14 15  1  0
 15 16  1  0
 16 17  1  0
 17 18  1  0
 18 19  1  0
 19 20  1  0
 20 21  1  0
 21 22  1  0
 22 23  1  0
 16 24  1  0
 24 25  1  0
 12 26  1  0
 26 27  2  0
 26 28  1  0
 28 29  2  0
  8  3  1  0
 28 11  1  0
 25 13  1  0
 23 18  1  0
  4 30  1  0
  5 31  1  0
  6 32  1  0
  7 33  1  0
  9 34  1  0
 10 35  1  0
 14 36  1  0
 14 37  1  0
 15 38  1  0
 15 39  1  0
 16 40  1  0
 17 41  1  0
 17 42  1  0
 18 43  1  0
 19 44  1  0
 19 45  1  0
 20 46  1  0
 20 47  1  0
 21 48  1  0
 21 49  1  0
 22 50  1  0
 22 51  1  0
 23 52  1  0
 23 53  1  0
 24 54  1  0
 24 55  1  0
 25 56  1  0
 25 57  1  0
M  CHG  1  16   1
M  END
>  <meeko>  (1) 
{"is_sidechain": [false], "free_energy": -8.144, "intermolecular_energy": -10.524, "internal_energy": -0.935}

$$$$
LIB_KSWHJMMTIWWPIR__M_PUB_ALL__e8__s20260927
     RDKit          3D

 57 60  0  0  0  0  0  0  0  0999 V2000
    2.6540  -10.0290   -3.5450 N   0  0  0  0  0  0  0  0  0  0  0  0
    3.3090  -10.7430   -4.1880 C   0  0  0  0  0  0  0  0  0  0  0  0
    4.1850  -11.6520   -4.8800 C   0  0  0  0  0  0  0  0  0  0  0  0
    4.1520  -11.6940   -6.2800 C   0  0  0  0  0  0  0  0  0  0  0  0
    4.9950  -12.5610   -6.9740 C   0  0  0  0  0  0  0  0  0  0  0  0
    5.8760  -13.3840   -6.2740 C   0  0  0  0  0  0  0  0  0  0  0  0
    5.9140  -13.3500   -4.8770 C   0  0  0  0  0  0  0  0  0  0  0  0
    5.0660  -12.4950   -4.1600 C   0  0  0  0  0  0  0  0  0  0  0  0
    5.1100  -12.4340   -2.6870 C   0  0  0  0  0  0  0  0  0  0  0  0
    5.2540  -13.4640   -1.8450 C   0  0  0  0  0  0  0  0  0  0  0  0
    5.1420  -13.3200   -0.3070 C   0  0  0  0  0  0  0  0  0  0  0  0
    4.2270  -13.0740    0.6740 C   0  0  0  0  0  0  0  0  0  0  0  0
    2.9250  -12.8810    0.8670 N   0  0  0  0  0  0  0  0  0  0  0  0
    2.2510  -11.6290    0.4670 C   0  0  0  0  0  0  0  0  0  0  0  0
    0.7980  -11.8690    0.0200 C   0  0  0  0  0  0  0  0  0  0  0  0
   -0.0260  -12.4820    1.1550 N   0  0  0  0  0  0  0  0  0  0  0  0
   -1.3650  -12.9750    0.6510 C   0  0  0  0  0  0  0  0  0  0  0  0
   -2.5410  -12.2800    1.3670 C   0  0  0  0  0  0  0  0  0  0  0  0
   -3.8820  -12.7610    0.7780 C   0  0  0  0  0  0  0  0  0  0  0  0
   -4.1510  -12.2100   -0.6210 C   0  0  0  0  0  0  0  0  0  0  0  0
   -4.0630  -10.6880   -0.6540 C   0  0  0  0  0  0  0  0  0  0  0  0
   -2.7450  -10.1780   -0.0800 C   0  0  0  0  0  0  0  0  0  0  0  0
   -2.4830  -10.7420    1.3150 C   0  0  0  0  0  0  0  0  0  0  0  0
    0.7590  -13.5190    1.9660 C   0  0  0  0  0  0  0  0  0  0  0  0
    2.0390  -14.0040    1.2550 C   0  0  0  0  0  0  0  0  0  0  0  0
    5.3230  -13.1330    1.7030 C   0  0  0  0  0  0  0  0  0  0  0  0
    5.4320  -12.9960    2.8950 O   0  0  0  0  0  0  0  0  0  0  0  0
    6.2660  -13.4860    0.6060 C   0  0  0  0  0  0  0  0  0  0  0  0
    7.4370  -13.7620    0.5760 O   0  0  0  0  0  0  0  0  0  0  0  0
    3.4598  -11.0418   -6.8327 H   0  0  0  0  0  0  0  0  0  0  0  0
    4.9650  -12.5956   -8.0730 H   0  0  0  0  0  0  0  0  0  0  0  0
    6.5443  -14.0633   -6.8235 H   0  0  0  0  0  0  0  0  0  0  0  0
    6.6163  -14.0006   -4.3352 H   0  0  0  0  0  0  0  0  0  0  0  0
    5.0144  -11.4368   -2.2327 H   0  0  0  0  0  0  0  0  0  0  0  0
    5.4616  -14.4594   -2.2647 H   0  0  0  0  0  0  0  0  0  0  0  0
    2.2489  -10.9385    1.3233 H   0  0  0  0  0  0  0  0  0  0  0  0
    2.8017  -11.2064   -0.3863 H   0  0  0  0  0  0  0  0  0  0  0  0
    0.3482  -10.9094   -0.2745 H   0  0  0  0  0  0  0  0  0  0  0  0
    0.8015  -12.5673   -0.8299 H   0  0  0  0  0  0  0  0  0  0  0  0
   -0.1990  -11.6990    1.7960 H   0  0  0  0  0  0  0  0  0  0  0  0
   -1.4355  -12.7719   -0.4278 H   0  0  0  0  0  0  0  0  0  0  0  0
   -1.4303  -14.0536    0.8568 H   0  0  0  0  0  0  0  0  0  0  0  0
   -2.4571  -12.5642    2.4263 H   0  0  0  0  0  0  0  0  0  0  0  0
   -3.8678  -13.8596    0.7253 H   0  0  0  0  0  0  0  0  0  0  0  0
   -4.6820  -12.3919    1.4366 H   0  0  0  0  0  0  0  0  0  0  0  0
   -3.4072  -12.6253   -1.3169 H   0  0  0  0  0  0  0  0  0  0  0  0
   -5.1705  -12.5011   -0.9141 H   0  0  0  0  0  0  0  0  0  0  0  0
   -4.1502  -10.3500   -1.6971 H   0  0  0  0  0  0  0  0  0  0  0  0
   -4.8799  -10.2875   -0.0357 H   0  0  0  0  0  0  0  0  0  0  0  0
   -1.9244  -10.4805   -0.7472 H   0  0  0  0  0  0  0  0  0  0  0  0
   -2.8049   -9.0824   -0.0022 H   0  0  0  0  0  0  0  0  0  0  0  0
   -1.4835  -10.4184    1.6411 H   0  0  0  0  0  0  0  0  0  0  0  0
   -3.2758  -10.3619    1.9760 H   0  0  0  0  0  0  0  0  0  0  0  0
    1.0430  -13.0682    2.9283 H   0  0  0  0  0  0  0  0  0  0  0  0
    0.1059  -14.3944    2.0967 H   0  0  0  0  0  0  0  0  0  0  0  0
    2.5900  -14.6713    1.9341 H   0  0  0  0  0  0  0  0  0  0  0  0
    1.7365  -14.5278    0.3362 H   0  0  0  0  0  0  0  0  0  0  0  0
  1  2  3  0
  2  3  1  0
  3  4  2  0
  4  5  1  0
  5  6  2  0
  6  7  1  0
  7  8  2  0
  8  9  1  0
  9 10  2  0
 10 11  1  0
 11 12  2  0
 12 13  1  0
 13 14  1  0
 14 15  1  0
 15 16  1  0
 16 17  1  0
 17 18  1  0
 18 19  1  0
 19 20  1  0
 20 21  1  0
 21 22  1  0
 22 23  1  0
 16 24  1  0
 24 25  1  0
 12 26  1  0
 26 27  2  0
 26 28  1  0
 28 29  2  0
  8  3  1  0
 28 11  1  0
 25 13  1  0
 23 18  1  0
  4 30  1  0
  5 31  1  0
  6 32  1  0
  7 33  1  0
  9 34  1  0
 10 35  1  0
 14 36  1  0
 14 37  1  0
 15 38  1  0
 15 39  1  0
 16 40  1  0
 17 41  1  0
 17 42  1  0
 18 43  1  0
 19 44  1  0
 19 45  1  0
 20 46  1  0
 20 47  1  0
 21 48  1  0
 21 49  1  0
 22 50  1  0
 22 51  1  0
 23 52  1  0
 23 53  1  0
 24 54  1  0
 24 55  1  0
 25 56  1  0
 25 57  1  0
M  CHG  1  16   1
M  END
>  <meeko>  (2) 
{"is_sidechain": [false], "free_energy": -7.968, "intermolecular_energy": -10.256, "internal_energy": -0.976}

$$$$
LIB_KSWHJMMTIWWPIR__M_PUB_ALL__e8__s20260927
     RDKit          3D

 57 60  0  0  0  0  0  0  0  0999 V2000
   17.9720  -10.3700   13.5300 N   0  0  0  0  0  0  0  0  0  0  0  0
   17.5140   -9.4440   12.9970 C   0  0  0  0  0  0  0  0  0  0  0  0
   16.8400   -8.3630   12.3270 C   0  0  0  0  0  0  0  0  0  0  0  0
   17.5950   -7.2770   11.8620 C   0  0  0  0  0  0  0  0  0  0  0  0
   16.9670   -6.2200   11.2040 C   0  0  0  0  0  0  0  0  0  0  0  0
   15.5880   -6.2460   11.0040 C   0  0  0  0  0  0  0  0  0  0  0  0
   14.8280   -7.3230   11.4660 C   0  0  0  0  0  0  0  0  0  0  0  0
   15.4370   -8.3900   12.1410 C   0  0  0  0  0  0  0  0  0  0  0  0
   14.6500   -9.5440   12.6160 C   0  0  0  0  0  0  0  0  0  0  0  0
   13.9430  -10.3960   11.8650 C   0  0  0  0  0  0  0  0  0  0  0  0
   13.0280  -11.4930   12.4660 C   0  0  0  0  0  0  0  0  0  0  0  0
   11.9100  -11.6410   13.2320 C   0  0  0  0  0  0  0  0  0  0  0  0
   10.9540  -10.9410   13.8360 N   0  0  0  0  0  0  0  0  0  0  0  0
   11.2210   -9.6340   14.4690 C   0  0  0  0  0  0  0  0  0  0  0  0
   10.0150   -8.6830   14.3700 C   0  0  0  0  0  0  0  0  0  0  0  0
    8.7920   -9.2800   15.0700 N   0  0  0  0  0  0  0  0  0  0  0  0
    7.5410   -8.4940   14.7450 C   0  0  0  0  0  0  0  0  0  0  0  0
    7.8620   -7.0400   14.3420 C   0  0  0  0  0  0  0  0  0  0  0  0
    7.5510   -6.0830   15.5090 C   0  0  0  0  0  0  0  0  0  0  0  0
    6.0540   -5.8950   15.7460 C   0  0  0  0  0  0  0  0  0  0  0  0
    5.3360   -5.4480   14.4770 C   0  0  0  0  0  0  0  0  0  0  0  0
    5.6180   -6.3780   13.3010 C   0  0  0  0  0  0  0  0  0  0  0  0
    7.1180   -6.5640   13.0790 C   0  0  0  0  0  0  0  0  0  0  0  0
    8.6600  -10.7910   14.8460 C   0  0  0  0  0  0  0  0  0  0  0  0
    9.5270  -11.3110   13.6810 C   0  0  0  0  0  0  0  0  0  0  0  0
   12.0650  -13.1360   13.1560 C   0  0  0  0  0  0  0  0  0  0  0  0
   11.5030  -14.1100   13.5890 O   0  0  0  0  0  0  0  0  0  0  0  0
   13.2280  -12.9200   12.2520 C   0  0  0  0  0  0  0  0  0  0  0  0
   13.9630  -13.6630   11.6550 O   0  0  0  0  0  0  0  0  0  0  0  0
   18.6840   -7.2587   12.0164 H   0  0  0  0  0  0  0  0  0  0  0  0
   17.5596   -5.3664   10.8431 H   0  0  0  0  0  0  0  0  0  0  0  0
   15.0955   -5.4139   10.4795 H   0  0  0  0  0  0  0  0  0  0  0  0
   13.7409   -7.3340   11.2985 H   0  0  0  0  0  0  0  0  0  0  0  0
   14.6439   -9.7226   13.7014 H   0  0  0  0  0  0  0  0  0  0  0  0
   14.0144  -10.3141   10.7704 H   0  0  0  0  0  0  0  0  0  0  0  0
   11.4578   -9.7964   15.5308 H   0  0  0  0  0  0  0  0  0  0  0  0
   12.0636   -9.1673   13.9378 H   0  0  0  0  0  0  0  0  0  0  0  0
   10.2712   -7.7252   14.8464 H   0  0  0  0  0  0  0  0  0  0  0  0
    9.7732   -8.5303   13.3078 H   0  0  0  0  0  0  0  0  0  0  0  0
    8.9880   -9.1630   16.0710 H   0  0  0  0  0  0  0  0  0  0  0  0
    7.0183   -8.9865   13.9118 H   0  0  0  0  0  0  0  0  0  0  0  0
    6.9125   -8.4662   15.6474 H   0  0  0  0  0  0  0  0  0  0  0  0
    8.9355   -7.0248   14.1026 H   0  0  0  0  0  0  0  0  0  0  0  0
    8.0023   -6.4903   16.4257 H   0  0  0  0  0  0  0  0  0  0  0  0
    7.9680   -5.0994   15.2470 H   0  0  0  0  0  0  0  0  0  0  0  0
    5.6233   -6.8496   16.0823 H   0  0  0  0  0  0  0  0  0  0  0  0
    5.9221   -5.1137   16.5090 H   0  0  0  0  0  0  0  0  0  0  0  0
    4.2527   -5.4357   14.6678 H   0  0  0  0  0  0  0  0  0  0  0  0
    5.7058   -4.4462   14.2132 H   0  0  0  0  0  0  0  0  0  0  0  0
    5.1628   -7.3586   13.5041 H   0  0  0  0  0  0  0  0  0  0  0  0
    5.1892   -5.9263   12.3943 H   0  0  0  0  0  0  0  0  0  0  0  0
    7.2643   -7.3104   12.2844 H   0  0  0  0  0  0  0  0  0  0  0  0
    7.5329   -5.5830   12.8043 H   0  0  0  0  0  0  0  0  0  0  0  0
    8.9653  -11.3089   15.7672 H   0  0  0  0  0  0  0  0  0  0  0  0
    7.6100  -10.9924   14.5871 H   0  0  0  0  0  0  0  0  0  0  0  0
    9.4476  -12.4074   13.6424 H   0  0  0  0  0  0  0  0  0  0  0  0
    9.1575  -10.8497   12.7532 H   0  0  0  0  0  0  0  0  0  0  0  0
  1  2  3  0
  2  3  1  0
  3  4  2  0
  4  5  1  0
  5  6  2  0
  6  7  1  0
  7  8  2  0
  8  9  1  0
  9 10  2  0
 10 11  1  0
 11 12  2  0
 12 13  1  0
 13 14  1  0
 14 15  1  0
 15 16  1  0
 16 17  1  0
 17 18  1  0
 18 19  1  0
 19 20  1  0
 20 21  1  0
 21 22  1  0
 22 23  1  0
 16 24  1  0
 24 25  1  0
 12 26  1  0
 26 27  2  0
 26 28  1  0
 28 29  2  0
  8  3  1  0
 28 11  1  0
 25 13  1  0
 23 18  1  0
  4 30  1  0
  5 31  1  0
  6 32  1  0
  7 33  1  0
  9 34  1  0
 10 35  1  0
 14 36  1  0
 14 37  1  0
 15 38  1  0
 15 39  1  0
 16 40  1  0
 17 41  1  0
 17 42  1  0
 18 43  1  0
 19 44  1  0
 19 45  1  0
 20 46  1  0
 20 47  1  0
 21 48  1  0
 21 49  1  0
 22 50  1  0
 22 51  1  0
 23 52  1  0
 23 53  1  0
 24 54  1  0
 24 55  1  0
 25 56  1  0
 25 57  1  0
M  CHG  1  16   1
M  END
>  <meeko>  (3) 
{"is_sidechain": [false], "free_energy": -7.961, "intermolecular_energy": -10.284, "internal_energy": -0.939}

$$$$
LIB_KSWHJMMTIWWPIR__M_PUB_ALL__e8__s20260927
     RDKit          3D

 57 60  0  0  0  0  0  0  0  0999 V2000
    7.3190  -17.0560   -8.5790 N   0  0  0  0  0  0  0  0  0  0  0  0
    7.3270  -15.9960   -9.0540 C   0  0  0  0  0  0  0  0  0  0  0  0
    7.2670  -14.6430   -9.5450 C   0  0  0  0  0  0  0  0  0  0  0  0
    7.6880  -14.3770  -10.8540 C   0  0  0  0  0  0  0  0  0  0  0  0
    7.6340  -13.0770  -11.3560 C   0  0  0  0  0  0  0  0  0  0  0  0
    7.1560  -12.0420  -10.5550 C   0  0  0  0  0  0  0  0  0  0  0  0
    6.7350  -12.2980   -9.2470 C   0  0  0  0  0  0  0  0  0  0  0  0
    6.7930  -13.5960   -8.7190 C   0  0  0  0  0  0  0  0  0  0  0  0
    6.3330  -13.8840   -7.3480 C   0  0  0  0  0  0  0  0  0  0  0  0
    5.2800  -13.3410   -6.7240 C   0  0  0  0  0  0  0  0  0  0  0  0
    4.9590  -13.5980   -5.2300 C   0  0  0  0  0  0  0  0  0  0  0  0
    5.5730  -13.7370   -4.0210 C   0  0  0  0  0  0  0  0  0  0  0  0
    6.7670  -13.6730   -3.4380 N   0  0  0  0  0  0  0  0  0  0  0  0
    7.7630  -12.6460   -3.8050 C   0  0  0  0  0  0  0  0  0  0  0  0
    8.6280  -12.2220   -2.6050 C   0  0  0  0  0  0  0  0  0  0  0  0
    9.4000  -13.4160   -2.0410 N   0  0  0  0  0  0  0  0  0  0  0  0
   10.0310  -13.0770   -0.7080 C   0  0  0  0  0  0  0  0  0  0  0  0
   11.4980  -13.5470   -0.6280 C   0  0  0  0  0  0  0  0  0  0  0  0
   12.2350  -12.7990    0.5000 C   0  0  0  0  0  0  0  0  0  0  0  0
   12.5160  -11.3350    0.1630 C   0  0  0  0  0  0  0  0  0  0  0  0
   13.2660  -11.1950   -1.1570 C   0  0  0  0  0  0  0  0  0  0  0  0
   12.5610  -11.9210   -2.2970 C   0  0  0  0  0  0  0  0  0  0  0  0
   12.2790  -13.3810   -1.9460 C   0  0  0  0  0  0  0  0  0  0  0  0
    8.5730  -14.7070   -2.0340 C   0  0  0  0  0  0  0  0  0  0  0  0
    7.0620  -14.4610   -2.2190 C   0  0  0  0  0  0  0  0  0  0  0  0
    4.2370  -14.0000   -3.3800 C   0  0  0  0  0  0  0  0  0  0  0  0
    3.8130  -14.2630   -2.2840 O   0  0  0  0  0  0  0  0  0  0  0  0
    3.6080  -13.7520   -4.7070 C   0  0  0  0  0  0  0  0  0  0  0  0
    2.4690  -13.7230   -5.0920 O   0  0  0  0  0  0  0  0  0  0  0  0
    8.0619  -15.1950  -11.4873 H   0  0  0  0  0  0  0  0  0  0  0  0
    7.9684  -12.8690  -12.3831 H   0  0  0  0  0  0  0  0  0  0  0  0
    7.1097  -11.0180  -10.9541 H   0  0  0  0  0  0  0  0  0  0  0  0
    6.3546  -11.4737   -8.6259 H   0  0  0  0  0  0  0  0  0  0  0  0
    6.9160  -14.6224   -6.7780 H   0  0  0  0  0  0  0  0  0  0  0  0
    4.6121  -12.6822   -7.2984 H   0  0  0  0  0  0  0  0  0  0  0  0
    8.4190  -13.0525   -4.5888 H   0  0  0  0  0  0  0  0  0  0  0  0
    7.2187  -11.7585   -4.1600 H   0  0  0  0  0  0  0  0  0  0  0  0
    9.3429  -11.4518   -2.9303 H   0  0  0  0  0  0  0  0  0  0  0  0
    7.9688  -11.8259   -1.8185 H   0  0  0  0  0  0  0  0  0  0  0  0
   10.1570  -13.5740   -2.7170 H   0  0  0  0  0  0  0  0  0  0  0  0
    9.9991  -11.9866   -0.5668 H   0  0  0  0  0  0  0  0  0  0  0  0
    9.4640  -13.5963    0.0786 H   0  0  0  0  0  0  0  0  0  0  0  0
   11.4571  -14.6259   -0.4174 H   0  0  0  0  0  0  0  0  0  0  0  0
   11.6157  -12.8368    1.4083 H   0  0  0  0  0  0  0  0  0  0  0  0
   13.2061  -13.2953    0.6435 H   0  0  0  0  0  0  0  0  0  0  0  0
   11.5598  -10.7962    0.0888 H   0  0  0  0  0  0  0  0  0  0  0  0
   13.1445  -10.9135    0.9613 H   0  0  0  0  0  0  0  0  0  0  0  0
   13.3424  -10.1272   -1.4100 H   0  0  0  0  0  0  0  0  0  0  0  0
   14.2607  -11.6475   -1.0310 H   0  0  0  0  0  0  0  0  0  0  0  0
   11.6077  -11.4141   -2.5074 H   0  0  0  0  0  0  0  0  0  0  0  0
   13.2202  -11.9003   -3.1774 H   0  0  0  0  0  0  0  0  0  0  0  0
   11.6906  -13.8292   -2.7602 H   0  0  0  0  0  0  0  0  0  0  0  0
   13.2506  -13.8802   -1.8161 H   0  0  0  0  0  0  0  0  0  0  0  0
    8.9250  -15.3522   -2.8524 H   0  0  0  0  0  0  0  0  0  0  0  0
    8.7096  -15.1776   -1.0492 H   0  0  0  0  0  0  0  0  0  0  0  0
    6.5517  -15.4326   -2.2935 H   0  0  0  0  0  0  0  0  0  0  0  0
    6.7055  -13.8861   -1.3516 H   0  0  0  0  0  0  0  0  0  0  0  0
  1  2  3  0
  2  3  1  0
  3  4  2  0
  4  5  1  0
  5  6  2  0
  6  7  1  0
  7  8  2  0
  8  9  1  0
  9 10  2  0
 10 11  1  0
 11 12  2  0
 12 13  1  0
 13 14  1  0
 14 15  1  0
 15 16  1  0
 16 17  1  0
 17 18  1  0
 18 19  1  0
 19 20  1  0
 20 21  1  0
 21 22  1  0
 22 23  1  0
 16 24  1  0
 24 25  1  0
 12 26  1  0
 26 27  2  0
 26 28  1  0
 28 29  2  0
  8  3  1  0
 28 11  1  0
 25 13  1  0
 23 18  1  0
  4 30  1  0
  5 31  1  0
  6 32  1  0
  7 33  1  0
  9 34  1  0
 10 35  1  0
 14 36  1  0
 14 37  1  0
 15 38  1  0
 15 39  1  0
 16 40  1  0
 17 41  1  0
 17 42  1  0
 18 43  1  0
 19 44  1  0
 19 45  1  0
 20 46  1  0
 20 47  1  0
 21 48  1  0
 21 49  1  0
 22 50  1  0
 22 51  1  0
 23 52  1  0
 23 53  1  0
 24 54  1  0
 24 55  1  0
 25 56  1  0
 25 57  1  0
M  CHG  1  16   1
M  END
>  <meeko>  (4) 
{"is_sidechain": [false], "free_energy": -7.96, "intermolecular_energy": -10.353, "internal_energy": -0.869}

$$$$
LIB_KSWHJMMTIWWPIR__M_PUB_ALL__e8__s20260927
     RDKit          3D

 57 60  0  0  0  0  0  0  0  0999 V2000
    0.4720  -10.9490    1.2790 N   0  0  0  0  0  0  0  0  0  0  0  0
   -0.6220  -10.9860    0.8870 C   0  0  0  0  0  0  0  0  0  0  0  0
   -1.9680  -11.1560    0.4040 C   0  0  0  0  0  0  0  0  0  0  0  0
   -2.6580  -10.0420   -0.0910 C   0  0  0  0  0  0  0  0  0  0  0  0
   -3.9590  -10.1820   -0.5710 C   0  0  0  0  0  0  0  0  0  0  0  0
   -4.5730  -11.4330   -0.5620 C   0  0  0  0  0  0  0  0  0  0  0  0
   -3.8930  -12.5500   -0.0690 C   0  0  0  0  0  0  0  0  0  0  0  0
   -2.5890  -12.4280    0.4300 C   0  0  0  0  0  0  0  0  0  0  0  0
   -1.8510  -13.6020    0.9350 C   0  0  0  0  0  0  0  0  0  0  0  0
   -1.2180  -14.5270    0.2040 C   0  0  0  0  0  0  0  0  0  0  0  0
   -0.5940  -15.8050    0.8160 C   0  0  0  0  0  0  0  0  0  0  0  0
   -0.7450  -16.6640    1.8650 C   0  0  0  0  0  0  0  0  0  0  0  0
   -1.5360  -16.9210    2.9030 N   0  0  0  0  0  0  0  0  0  0  0  0
   -1.0410  -16.8800    4.2940 C   0  0  0  0  0  0  0  0  0  0  0  0
   -2.1220  -16.4070    5.2810 C   0  0  0  0  0  0  0  0  0  0  0  0
   -3.3290  -17.3480    5.2600 N   0  0  0  0  0  0  0  0  0  0  0  0
   -4.4990  -16.7510    6.0090 C   0  0  0  0  0  0  0  0  0  0  0  0
   -5.7040  -16.4890    5.0830 C   0  0  0  0  0  0  0  0  0  0  0  0
   -6.0790  -14.9940    5.1070 C   0  0  0  0  0  0  0  0  0  0  0  0
   -6.7410  -14.5650    6.4150 C   0  0  0  0  0  0  0  0  0  0  0  0
   -7.9530  -15.4300    6.7430 C   0  0  0  0  0  0  0  0  0  0  0  0
   -7.6160  -16.9180    6.7310 C   0  0  0  0  0  0  0  0  0  0  0  0
   -6.9470  -17.3330    5.4220 C   0  0  0  0  0  0  0  0  0  0  0  0
   -3.6720  -17.8410    3.8490 C   0  0  0  0  0  0  0  0  0  0  0  0
   -3.0060  -17.0070    2.7360 C   0  0  0  0  0  0  0  0  0  0  0  0
    0.4660  -17.4300    1.4030 C   0  0  0  0  0  0  0  0  0  0  0  0
    1.1080  -18.3820    1.7690 O   0  0  0  0  0  0  0  0  0  0  0  0
    0.5340  -16.5180    0.2280 C   0  0  0  0  0  0  0  0  0  0  0  0
    1.2500  -16.4610   -0.7360 O   0  0  0  0  0  0  0  0  0  0  0  0
   -2.1723   -9.0551   -0.1009 H   0  0  0  0  0  0  0  0  0  0  0  0
   -4.5007   -9.3057   -0.9566 H   0  0  0  0  0  0  0  0  0  0  0  0
   -5.5984  -11.5419   -0.9450 H   0  0  0  0  0  0  0  0  0  0  0  0
   -4.3855  -13.5336   -0.0726 H   0  0  0  0  0  0  0  0  0  0  0  0
   -1.8178  -13.7301    2.0270 H   0  0  0  0  0  0  0  0  0  0  0  0
   -1.1372  -14.3722   -0.8821 H   0  0  0  0  0  0  0  0  0  0  0  0
   -0.7139  -17.8895    4.5837 H   0  0  0  0  0  0  0  0  0  0  0  0
   -0.2082  -16.1625    4.3354 H   0  0  0  0  0  0  0  0  0  0  0  0
   -1.6988  -16.3864    6.2961 H   0  0  0  0  0  0  0  0  0  0  0  0
   -2.4545  -15.4016    4.9833 H   0  0  0  0  0  0  0  0  0  0  0  0
   -3.0140  -18.1780    5.7760 H   0  0  0  0  0  0  0  0  0  0  0  0
   -4.8058  -17.4482    6.8026 H   0  0  0  0  0  0  0  0  0  0  0  0
   -4.1773  -15.7868    6.4294 H   0  0  0  0  0  0  0  0  0  0  0  0
   -5.3803  -16.7923    4.0764 H   0  0  0  0  0  0  0  0  0  0  0  0
   -5.1634  -14.4008    4.9666 H   0  0  0  0  0  0  0  0  0  0  0  0
   -6.8063  -14.8245    4.2994 H   0  0  0  0  0  0  0  0  0  0  0  0
   -6.0086  -14.6531    7.2310 H   0  0  0  0  0  0  0  0  0  0  0  0
   -7.0818  -13.5252    6.3023 H   0  0  0  0  0  0  0  0  0  0  0  0
   -8.3228  -15.1581    7.7427 H   0  0  0  0  0  0  0  0  0  0  0  0
   -8.7168  -15.2493    5.9723 H   0  0  0  0  0  0  0  0  0  0  0  0
   -6.9333  -17.1360    7.5655 H   0  0  0  0  0  0  0  0  0  0  0  0
   -8.5539  -17.4838    6.8323 H   0  0  0  0  0  0  0  0  0  0  0  0
   -6.6426  -18.3869    5.5035 H   0  0  0  0  0  0  0  0  0  0  0  0
   -7.6790  -17.1761    4.6161 H   0  0  0  0  0  0  0  0  0  0  0  0
   -3.3372  -18.8843    3.7521 H   0  0  0  0  0  0  0  0  0  0  0  0
   -4.7605  -17.7433    3.7240 H   0  0  0  0  0  0  0  0  0  0  0  0
   -3.2252  -17.4739    1.7644 H   0  0  0  0  0  0  0  0  0  0  0  0
   -3.4119  -15.9861    2.7909 H   0  0  0  0  0  0  0  0  0  0  0  0
  1  2  3  0
  2  3  1  0
  3  4  2  0
  4  5  1  0
  5  6  2  0
  6  7  1  0
  7  8  2  0
  8  9  1  0
  9 10  2  0
 10 11  1  0
 11 12  2  0
 12 13  1  0
 13 14  1  0
 14 15  1  0
 15 16  1  0
 16 17  1  0
 17 18  1  0
 18 19  1  0
 19 20  1  0
 20 21  1  0
 21 22  1  0
 22 23  1  0
 16 24  1  0
 24 25  1  0
 12 26  1  0
 26 27  2  0
 26 28  1  0
 28 29  2  0
  8  3  1  0
 28 11  1  0
 25 13  1  0
 23 18  1  0
  4 30  1  0
  5 31  1  0
  6 32  1  0
  7 33  1  0
  9 34  1  0
 10 35  1  0
 14 36  1  0
 14 37  1  0
 15 38  1  0
 15 39  1  0
 16 40  1  0
 17 41  1  0
 17 42  1  0
 18 43  1  0
 19 44  1  0
 19 45  1  0
 20 46  1  0
 20 47  1  0
 21 48  1  0
 21 49  1  0
 22 50  1  0
 22 51  1  0
 23 52  1  0
 23 53  1  0
 24 54  1  0
 24 55  1  0
 25 56  1  0
 25 57  1  0
M  CHG  1  16   1
M  END
>  <meeko>  (5) 
{"is_sidechain": [false], "free_energy": -7.708, "intermolecular_energy": -9.831, "internal_energy": -1.065}

$$$$
LIB_KSWHJMMTIWWPIR__M_PUB_ALL__e8__s20260927
     RDKit          3D

 57 60  0  0  0  0  0  0  0  0999 V2000
    8.0580  -17.0670   -9.4550 N   0  0  0  0  0  0  0  0  0  0  0  0
    7.9540  -15.9760   -9.8420 C   0  0  0  0  0  0  0  0  0  0  0  0
    7.9360  -14.6010  -10.2690 C   0  0  0  0  0  0  0  0  0  0  0  0
    6.7510  -14.0690  -10.7950 C   0  0  0  0  0  0  0  0  0  0  0  0
    6.7050  -12.7390  -11.2090 C   0  0  0  0  0  0  0  0  0  0  0  0
    7.8380  -11.9350  -11.0950 C   0  0  0  0  0  0  0  0  0  0  0  0
    9.0240  -12.4580  -10.5720 C   0  0  0  0  0  0  0  0  0  0  0  0
    9.0950  -13.7960  -10.1630 C   0  0  0  0  0  0  0  0  0  0  0  0
   10.3350  -14.3560   -9.5910 C   0  0  0  0  0  0  0  0  0  0  0  0
   10.7250  -14.3000   -8.3110 C   0  0  0  0  0  0  0  0  0  0  0  0
   12.1130  -14.7890   -7.8290 C   0  0  0  0  0  0  0  0  0  0  0  0
   12.9360  -14.7470   -6.7430 C   0  0  0  0  0  0  0  0  0  0  0  0
   12.9870  -14.3210   -5.4840 N   0  0  0  0  0  0  0  0  0  0  0  0
   14.1720  -13.6280   -4.9390 C   0  0  0  0  0  0  0  0  0  0  0  0
   13.7940  -12.5740   -3.8830 C   0  0  0  0  0  0  0  0  0  0  0  0
   13.0690  -13.2230   -2.7010 N   0  0  0  0  0  0  0  0  0  0  0  0
   12.4530  -12.1770   -1.7990 C   0  0  0  0  0  0  0  0  0  0  0  0
   12.9590  -12.2980   -0.3470 C   0  0  0  0  0  0  0  0  0  0  0  0
   11.8450  -12.8590    0.5590 C   0  0  0  0  0  0  0  0  0  0  0  0
   10.7280  -11.8530    0.8250 C   0  0  0  0  0  0  0  0  0  0  0  0
   11.2700  -10.5430    1.3860 C   0  0  0  0  0  0  0  0  0  0  0  0
   12.3730   -9.9570    0.5100 C   0  0  0  0  0  0  0  0  0  0  0  0
   13.4810  -10.9750    0.2450 C   0  0  0  0  0  0  0  0  0  0  0  0
   12.0980  -14.3270   -3.1350 C   0  0  0  0  0  0  0  0  0  0  0  0
   11.7680  -14.2890   -4.6410 C   0  0  0  0  0  0  0  0  0  0  0  0
   13.9790  -15.5130   -7.5110 C   0  0  0  0  0  0  0  0  0  0  0  0
   15.0970  -15.9210   -7.3260 O   0  0  0  0  0  0  0  0  0  0  0  0
   13.0090  -15.6070   -8.6370 C   0  0  0  0  0  0  0  0  0  0  0  0
   13.0400  -16.1390   -9.7150 O   0  0  0  0  0  0  0  0  0  0  0  0
    5.8557  -14.7022  -10.8813 H   0  0  0  0  0  0  0  0  0  0  0  0
    5.7753  -12.3240  -11.6254 H   0  0  0  0  0  0  0  0  0  0  0  0
    7.7985  -10.8843  -11.4181 H   0  0  0  0  0  0  0  0  0  0  0  0
    9.9102  -11.8128  -10.4807 H   0  0  0  0  0  0  0  0  0  0  0  0
   11.0094  -14.8735  -10.2891 H   0  0  0  0  0  0  0  0  0  0  0  0
   10.0270  -13.8875   -7.5676 H   0  0  0  0  0  0  0  0  0  0  0  0
   14.8356  -14.3725   -4.4748 H   0  0  0  0  0  0  0  0  0  0  0  0
   14.6721  -13.1093   -5.7702 H   0  0  0  0  0  0  0  0  0  0  0  0
   14.7091  -12.0837   -3.5194 H   0  0  0  0  0  0  0  0  0  0  0  0
   13.1221  -11.8365   -4.3463 H   0  0  0  0  0  0  0  0  0  0  0  0
   13.8120  -13.6960   -2.1750 H   0  0  0  0  0  0  0  0  0  0  0  0
   12.7115  -11.1793   -2.1835 H   0  0  0  0  0  0  0  0  0  0  0  0
   11.3638  -12.3306   -1.7939 H   0  0  0  0  0  0  0  0  0  0  0  0
   13.8152  -12.9876   -0.3838 H   0  0  0  0  0  0  0  0  0  0  0  0
   11.4104  -13.7446    0.0724 H   0  0  0  0  0  0  0  0  0  0  0  0
   12.3028  -13.1057    1.5283 H   0  0  0  0  0  0  0  0  0  0  0  0
   10.2025  -11.6461   -0.1189 H   0  0  0  0  0  0  0  0  0  0  0  0
   10.0451  -12.2881    1.5695 H   0  0  0  0  0  0  0  0  0  0  0  0
   10.4460   -9.8173    1.4518 H   0  0  0  0  0  0  0  0  0  0  0  0
   11.6988  -10.7505    2.3775 H   0  0  0  0  0  0  0  0  0  0  0  0
   11.9378   -9.6447   -0.4508 H   0  0  0  0  0  0  0  0  0  0  0  0
   12.8133   -9.0990    1.0391 H   0  0  0  0  0  0  0  0  0  0  0  0
   14.1990  -10.5344   -0.4624 H   0  0  0  0  0  0  0  0  0  0  0  0
   13.9473  -11.2109    1.2130 H   0  0  0  0  0  0  0  0  0  0  0  0
   12.5501  -15.3021   -2.9008 H   0  0  0  0  0  0  0  0  0  0  0  0
   11.1561  -14.1664   -2.5900 H   0  0  0  0  0  0  0  0  0  0  0  0
   11.1435  -15.1600   -4.8886 H   0  0  0  0  0  0  0  0  0  0  0  0
   11.2407  -13.3458   -4.8467 H   0  0  0  0  0  0  0  0  0  0  0  0
  1  2  3  0
  2  3  1  0
  3  4  2  0
  4  5  1  0
  5  6  2  0
  6  7  1  0
  7  8  2  0
  8  9  1  0
  9 10  2  0
 10 11  1  0
 11 12  2  0
 12 13  1  0
 13 14  1  0
 14 15  1  0
 15 16  1  0
 16 17  1  0
 17 18  1  0
 18 19  1  0
 19 20  1  0
 20 21  1  0
 21 22  1  0
 22 23  1  0
 16 24  1  0
 24 25  1  0
 12 26  1  0
 26 27  2  0
 26 28  1  0
 28 29  2  0
  8  3  1  0
 28 11  1  0
 25 13  1  0
 23 18  1  0
  4 30  1  0
  5 31  1  0
  6 32  1  0
  7 33  1  0
  9 34  1  0
 10 35  1  0
 14 36  1  0
 14 37  1  0
 15 38  1  0
 15 39  1  0
 16 40  1  0
 17 41  1  0
 17 42  1  0
 18 43  1  0
 19 44  1  0
 19 45  1  0
 20 46  1  0
 20 47  1  0
 21 48  1  0
 21 49  1  0
 22 50  1  0
 22 51  1  0
 23 52  1  0
 23 53  1  0
 24 54  1  0
 24 55  1  0
 25 56  1  0
 25 57  1  0
M  CHG  1  16   1
M  END
>  <meeko>  (6) 
{"is_sidechain": [false], "free_energy": -7.632, "intermolecular_energy": -10.139, "internal_energy": -0.658}

$$$$
LIB_KSWHJMMTIWWPIR__M_PUB_ALL__e8__s20260927
     RDKit          3D

 57 60  0  0  0  0  0  0  0  0999 V2000
   13.4640   -7.3740   11.1200 N   0  0  0  0  0  0  0  0  0  0  0  0
   14.5750   -7.5950   11.3810 C   0  0  0  0  0  0  0  0  0  0  0  0
   15.9100   -7.9550   11.7840 C   0  0  0  0  0  0  0  0  0  0  0  0
   16.9780   -7.1290   11.4120 C   0  0  0  0  0  0  0  0  0  0  0  0
   18.2790   -7.4520   11.7950 C   0  0  0  0  0  0  0  0  0  0  0  0
   18.5170   -8.5970   12.5530 C   0  0  0  0  0  0  0  0  0  0  0  0
   17.4570   -9.4280   12.9270 C   0  0  0  0  0  0  0  0  0  0  0  0
   16.1430   -9.1280   12.5410 C   0  0  0  0  0  0  0  0  0  0  0  0
   15.0130   -9.9850   12.9470 C   0  0  0  0  0  0  0  0  0  0  0  0
   14.2580  -10.7480   12.1480 C   0  0  0  0  0  0  0  0  0  0  0  0
   12.9990  -11.5020   12.6430 C   0  0  0  0  0  0  0  0  0  0  0  0
   11.8680  -11.3110   13.3800 C   0  0  0  0  0  0  0  0  0  0  0  0
   11.1870  -10.3710   14.0300 N   0  0  0  0  0  0  0  0  0  0  0  0
   11.5420   -8.9410   13.9360 C   0  0  0  0  0  0  0  0  0  0  0  0
   10.3070   -8.0280   14.0280 C   0  0  0  0  0  0  0  0  0  0  0  0
    9.5830   -8.2250   15.3620 N   0  0  0  0  0  0  0  0  0  0  0  0
    8.2300   -7.5490   15.3530 C   0  0  0  0  0  0  0  0  0  0  0  0
    7.4210   -7.8940   14.0860 C   0  0  0  0  0  0  0  0  0  0  0  0
    7.0200   -6.6040   13.3440 C   0  0  0  0  0  0  0  0  0  0  0  0
    5.9280   -5.8160   14.0640 C   0  0  0  0  0  0  0  0  0  0  0  0
    4.7030   -6.6790   14.3460 C   0  0  0  0  0  0  0  0  0  0  0  0
    5.0650   -7.9630   15.0850 C   0  0  0  0  0  0  0  0  0  0  0  0
    6.1630   -8.7390   14.3590 C   0  0  0  0  0  0  0  0  0  0  0  0
    9.5490   -9.6920   15.8070 C   0  0  0  0  0  0  0  0  0  0  0  0
    9.8880  -10.6790   14.6720 C   0  0  0  0  0  0  0  0  0  0  0  0
   11.5020  -12.7570   13.1810 C   0  0  0  0  0  0  0  0  0  0  0  0
   10.6220  -13.5070   13.5230 O   0  0  0  0  0  0  0  0  0  0  0  0
   12.7030  -12.8900   12.3110 C   0  0  0  0  0  0  0  0  0  0  0  0
   13.1610  -13.7940   11.6630 O   0  0  0  0  0  0  0  0  0  0  0  0
   16.7900   -6.2235   10.8164 H   0  0  0  0  0  0  0  0  0  0  0  0
   19.1169   -6.8037   11.4992 H   0  0  0  0  0  0  0  0  0  0  0  0
   19.5435   -8.8479   12.8583 H   0  0  0  0  0  0  0  0  0  0  0  0
   17.6558  -10.3262   13.5301 H   0  0  0  0  0  0  0  0  0  0  0  0
   14.7651   -9.9982   14.0186 H   0  0  0  0  0  0  0  0  0  0  0  0
   14.5449  -10.8442   11.0904 H   0  0  0  0  0  0  0  0  0  0  0  0
   12.2288   -8.6918   14.7583 H   0  0  0  0  0  0  0  0  0  0  0  0
   12.0131   -8.7739   12.9561 H   0  0  0  0  0  0  0  0  0  0  0  0
   10.6270   -6.9790   13.9429 H   0  0  0  0  0  0  0  0  0  0  0  0
    9.6168   -8.2855   13.2111 H   0  0  0  0  0  0  0  0  0  0  0  0
   10.1740   -7.7400   16.0470 H   0  0  0  0  0  0  0  0  0  0  0  0
    7.6631   -7.8770   16.2368 H   0  0  0  0  0  0  0  0  0  0  0  0
    8.3932   -6.4613   15.3666 H   0  0  0  0  0  0  0  0  0  0  0  0
    8.0862   -8.5102   13.4633 H   0  0  0  0  0  0  0  0  0  0  0  0
    7.9093   -5.9637   13.2487 H   0  0  0  0  0  0  0  0  0  0  0  0
    6.6197   -6.8998   12.3630 H   0  0  0  0  0  0  0  0  0  0  0  0
    6.3281   -5.4423   15.0181 H   0  0  0  0  0  0  0  0  0  0  0  0
    5.6194   -4.9844   13.4134 H   0  0  0  0  0  0  0  0  0  0  0  0
    3.9967   -6.1024   14.9614 H   0  0  0  0  0  0  0  0  0  0  0  0
    4.2551   -6.9579   13.3808 H   0  0  0  0  0  0  0  0  0  0  0  0
    5.4173   -7.7065   16.0950 H   0  0  0  0  0  0  0  0  0  0  0  0
    4.1680   -8.5980   15.1315 H   0  0  0  0  0  0  0  0  0  0  0  0
    6.4488   -9.6025   14.9776 H   0  0  0  0  0  0  0  0  0  0  0  0
    5.7570   -9.0468   13.3841 H   0  0  0  0  0  0  0  0  0  0  0  0
   10.2791   -9.8282   16.6184 H   0  0  0  0  0  0  0  0  0  0  0  0
    8.5218   -9.9106   16.1344 H   0  0  0  0  0  0  0  0  0  0  0  0
    9.9314  -11.6961   15.0886 H   0  0  0  0  0  0  0  0  0  0  0  0
    9.1042  -10.5928   13.9051 H   0  0  0  0  0  0  0  0  0  0  0  0
  1  2  3  0
  2  3  1  0
  3  4  2  0
  4  5  1  0
  5  6  2  0
  6  7  1  0
  7  8  2  0
  8  9  1  0
  9 10  2  0
 10 11  1  0
 11 12  2  0
 12 13  1  0
 13 14  1  0
 14 15  1  0
 15 16  1  0
 16 17  1  0
 17 18  1  0
 18 19  1  0
 19 20  1  0
 20 21  1  0
 21 22  1  0
 22 23  1  0
 16 24  1  0
 24 25  1  0
 12 26  1  0
 26 27  2  0
 26 28  1  0
 28 29  2  0
  8  3  1  0
 28 11  1  0
 25 13  1  0
 23 18  1  0
  4 30  1  0
  5 31  1  0
  6 32  1  0
  7 33  1  0
  9 34  1  0
 10 35  1  0
 14 36  1  0
 14 37  1  0
 15 38  1  0
 15 39  1  0
 16 40  1  0
 17 41  1  0
 17 42  1  0
 18 43  1  0
 19 44  1  0
 19 45  1  0
 20 46  1  0
 20 47  1  0
 21 48  1  0
 21 49  1  0
 22 50  1  0
 22 51  1  0
 23 52  1  0
 23 53  1  0
 24 54  1  0
 24 55  1  0
 25 56  1  0
 25 57  1  0
M  CHG  1  16   1
M  END
>  <meeko>  (7) 
{"is_sidechain": [false], "free_energy": -7.595, "intermolecular_energy": -10.057, "internal_energy": -0.693}

$$$$
LIB_KSWHJMMTIWWPIR__M_PUB_ALL__e8__s20260927
     RDKit          3D

 57 60  0  0  0  0  0  0  0  0999 V2000
   -3.0350  -13.6640   -0.3430 N   0  0  0  0  0  0  0  0  0  0  0  0
   -2.8700  -12.6340    0.1710 C   0  0  0  0  0  0  0  0  0  0  0  0
   -2.6030  -11.4200    0.8970 C   0  0  0  0  0  0  0  0  0  0  0  0
   -3.2780  -10.2480    0.5320 C   0  0  0  0  0  0  0  0  0  0  0  0
   -3.0430   -9.0600    1.2230 C   0  0  0  0  0  0  0  0  0  0  0  0
   -2.1380   -9.0400    2.2830 C   0  0  0  0  0  0  0  0  0  0  0  0
   -1.4590  -10.2040    2.6530 C   0  0  0  0  0  0  0  0  0  0  0  0
   -1.6710  -11.4050    1.9630 C   0  0  0  0  0  0  0  0  0  0  0  0
   -0.9770  -12.6460    2.3560 C   0  0  0  0  0  0  0  0  0  0  0  0
   -0.5720  -12.9840    3.5860 C   0  0  0  0  0  0  0  0  0  0  0  0
    0.2800  -14.2440    3.8790 C   0  0  0  0  0  0  0  0  0  0  0  0
    1.0460  -15.1790    3.2470 C   0  0  0  0  0  0  0  0  0  0  0  0
    1.5360  -15.4980    2.0530 N   0  0  0  0  0  0  0  0  0  0  0  0
    0.9130  -16.5310    1.2010 C   0  0  0  0  0  0  0  0  0  0  0  0
    1.0560  -16.2130   -0.2970 C   0  0  0  0  0  0  0  0  0  0  0  0
    2.5310  -16.1280   -0.6980 N   0  0  0  0  0  0  0  0  0  0  0  0
    2.6860  -15.5490   -2.0870 C   0  0  0  0  0  0  0  0  0  0  0  0
    1.5900  -14.5100   -2.4040 C   0  0  0  0  0  0  0  0  0  0  0  0
    1.3250  -14.4640   -3.9220 C   0  0  0  0  0  0  0  0  0  0  0  0
    2.4550  -13.8020   -4.7070 C   0  0  0  0  0  0  0  0  0  0  0  0
    2.7720  -12.4090   -4.1720 C   0  0  0  0  0  0  0  0  0  0  0  0
    3.0450  -12.4200   -2.6720 C   0  0  0  0  0  0  0  0  0  0  0  0
    1.9110  -13.0910   -1.8980 C   0  0  0  0  0  0  0  0  0  0  0  0
    3.3960  -15.4450    0.3670 C   0  0  0  0  0  0  0  0  0  0  0  0
    2.5720  -14.6580    1.4060 C   0  0  0  0  0  0  0  0  0  0  0  0
    1.2650  -15.8780    4.5620 C   0  0  0  0  0  0  0  0  0  0  0  0
    1.8310  -16.8640    4.9600 O   0  0  0  0  0  0  0  0  0  0  0  0
    0.4940  -14.7840    5.2150 C   0  0  0  0  0  0  0  0  0  0  0  0
    0.2110  -14.5380    6.3580 O   0  0  0  0  0  0  0  0  0  0  0  0
   -3.9952  -10.2650   -0.3018 H   0  0  0  0  0  0  0  0  0  0  0  0
   -3.5710   -8.1399    0.9321 H   0  0  0  0  0  0  0  0  0  0  0  0
   -1.9574   -8.1034    2.8309 H   0  0  0  0  0  0  0  0  0  0  0  0
   -0.7510  -10.1772    3.4944 H   0  0  0  0  0  0  0  0  0  0  0  0
   -0.7707  -13.3697    1.5537 H   0  0  0  0  0  0  0  0  0  0  0  0
   -0.8575  -12.3367    4.4283 H   0  0  0  0  0  0  0  0  0  0  0  0
    1.3965  -17.4976    1.4056 H   0  0  0  0  0  0  0  0  0  0  0  0
   -0.1606  -16.5619    1.4385 H   0  0  0  0  0  0  0  0  0  0  0  0
    0.5687  -17.0069   -0.8820 H   0  0  0  0  0  0  0  0  0  0  0  0
    0.5803  -15.2417   -0.4975 H   0  0  0  0  0  0  0  0  0  0  0  0
    2.8440  -17.1050   -0.7270 H   0  0  0  0  0  0  0  0  0  0  0  0
    3.6696  -15.0621   -2.1614 H   0  0  0  0  0  0  0  0  0  0  0  0
    2.5946  -16.3720   -2.8111 H   0  0  0  0  0  0  0  0  0  0  0  0
    0.6927  -14.8438   -1.8624 H   0  0  0  0  0  0  0  0  0  0  0  0
    1.2016  -15.4942   -4.2873 H   0  0  0  0  0  0  0  0  0  0  0  0
    0.4189  -13.8603   -4.0789 H   0  0  0  0  0  0  0  0  0  0  0  0
    3.3567  -14.4273   -4.6300 H   0  0  0  0  0  0  0  0  0  0  0  0
    2.1330  -13.7024   -5.7541 H   0  0  0  0  0  0  0  0  0  0  0  0
    3.6614  -12.0232   -4.6917 H   0  0  0  0  0  0  0  0  0  0  0  0
    1.8958  -11.7689   -4.3525 H   0  0  0  0  0  0  0  0  0  0  0  0
    3.9794  -12.9689   -2.4834 H   0  0  0  0  0  0  0  0  0  0  0  0
    3.1252  -11.3777   -2.3296 H   0  0  0  0  0  0  0  0  0  0  0  0
    2.2000  -13.1543   -0.8385 H   0  0  0  0  0  0  0  0  0  0  0  0
    1.0084  -12.4793   -2.0433 H   0  0  0  0  0  0  0  0  0  0  0  0
    3.9767  -16.2168    0.8934 H   0  0  0  0  0  0  0  0  0  0  0  0
    4.0434  -14.7226   -0.1518 H   0  0  0  0  0  0  0  0  0  0  0  0
    3.2523  -14.2752    2.1810 H   0  0  0  0  0  0  0  0  0  0  0  0
    2.0613  -13.8378    0.8803 H   0  0  0  0  0  0  0  0  0  0  0  0
  1  2  3  0
  2  3  1  0
  3  4  2  0
  4  5  1  0
  5  6  2  0
  6  7  1  0
  7  8  2  0
  8  9  1  0
  9 10  2  0
 10 11  1  0
 11 12  2  0
 12 13  1  0
 13 14  1  0
 14 15  1  0
 15 16  1  0
 16 17  1  0
 17 18  1  0
 18 19  1  0
 19 20  1  0
 20 21  1  0
 21 22  1  0
 22 23  1  0
 16 24  1  0
 24 25  1  0
 12 26  1  0
 26 27  2  0
 26 28  1  0
 28 29  2  0
  8  3  1  0
 28 11  1  0
 25 13  1  0
 23 18  1  0
  4 30  1  0
  5 31  1  0
  6 32  1  0
  7 33  1  0
  9 34  1  0
 10 35  1  0
 14 36  1  0
 14 37  1  0
 15 38  1  0
 15 39  1  0
 16 40  1  0
 17 41  1  0
 17 42  1  0
 18 43  1  0
 19 44  1  0
 19 45  1  0
 20 46  1  0
 20 47  1  0
 21 48  1  0
 21 49  1  0
 22 50  1  0
 22 51  1  0
 23 52  1  0
 23 53  1  0
 24 54  1  0
 24 55  1  0
 25 56  1  0
 25 57  1  0
M  CHG  1  16   1
M  END
>  <meeko>  (8) 
{"is_sidechain": [false], "free_energy": -7.586, "intermolecular_energy": -9.51, "internal_energy": -1.228}

$$$$
LIB_KSWHJMMTIWWPIR__M_PUB_ALL__e8__s20260927
     RDKit          3D

 57 60  0  0  0  0  0  0  0  0999 V2000
   11.6120  -13.3190  -12.2120 N   0  0  0  0  0  0  0  0  0  0  0  0
   10.5640  -13.4480  -11.7260 C   0  0  0  0  0  0  0  0  0  0  0  0
    9.3200  -13.6830  -11.0400 C   0  0  0  0  0  0  0  0  0  0  0  0
    8.1230  -13.2810  -11.6460 C   0  0  0  0  0  0  0  0  0  0  0  0
    6.9050  -13.5030  -11.0060 C   0  0  0  0  0  0  0  0  0  0  0  0
    6.8780  -14.1310   -9.7620 C   0  0  0  0  0  0  0  0  0  0  0  0
    8.0670  -14.5350   -9.1490 C   0  0  0  0  0  0  0  0  0  0  0  0
    9.3030  -14.3090   -9.7700 C   0  0  0  0  0  0  0  0  0  0  0  0
   10.5650  -14.7480   -9.1440 C   0  0  0  0  0  0  0  0  0  0  0  0
   11.2520  -14.1090   -8.1890 C   0  0  0  0  0  0  0  0  0  0  0  0
   12.6440  -14.5740   -7.6960 C   0  0  0  0  0  0  0  0  0  0  0  0
   13.3740  -14.7130   -6.5520 C   0  0  0  0  0  0  0  0  0  0  0  0
   13.2850  -14.5860   -5.2310 N   0  0  0  0  0  0  0  0  0  0  0  0
   13.9220  -13.4680   -4.5070 C   0  0  0  0  0  0  0  0  0  0  0  0
   13.1120  -13.0390   -3.2710 C   0  0  0  0  0  0  0  0  0  0  0  0
   12.9760  -14.1980   -2.2800 N   0  0  0  0  0  0  0  0  0  0  0  0
   11.9600  -13.8790   -1.2050 C   0  0  0  0  0  0  0  0  0  0  0  0
   11.3870  -12.4560   -1.3570 C   0  0  0  0  0  0  0  0  0  0  0  0
   11.7700  -11.5960   -0.1360 C   0  0  0  0  0  0  0  0  0  0  0  0
   11.0060  -11.9810    1.1290 C   0  0  0  0  0  0  0  0  0  0  0  0
    9.4970  -11.9580    0.9050 C   0  0  0  0  0  0  0  0  0  0  0  0
    9.0840  -12.8040   -0.2950 C   0  0  0  0  0  0  0  0  0  0  0  0
    9.8600  -12.4150   -1.5520 C   0  0  0  0  0  0  0  0  0  0  0  0
   12.7550  -15.5470   -2.9730 C   0  0  0  0  0  0  0  0  0  0  0  0
   12.3330  -15.4100   -4.4500 C   0  0  0  0  0  0  0  0  0  0  0  0
   14.5470  -15.1880   -7.3660 C   0  0  0  0  0  0  0  0  0  0  0  0
   15.6860  -15.5290   -7.1700 O   0  0  0  0  0  0  0  0  0  0  0  0
   13.6790  -15.1030   -8.5740 C   0  0  0  0  0  0  0  0  0  0  0  0
   13.8470  -15.3670   -9.7350 O   0  0  0  0  0  0  0  0  0  0  0  0
    8.1443  -12.7888  -12.6295 H   0  0  0  0  0  0  0  0  0  0  0  0
    5.9663  -13.1831  -11.4820 H   0  0  0  0  0  0  0  0  0  0  0  0
    5.9156  -14.3096   -9.2601 H   0  0  0  0  0  0  0  0  0  0  0  0
    8.0326  -15.0351   -8.1699 H   0  0  0  0  0  0  0  0  0  0  0  0
   10.9855  -15.7003   -9.4993 H   0  0  0  0  0  0  0  0  0  0  0  0
   10.8069  -13.2121   -7.7335 H   0  0  0  0  0  0  0  0  0  0  0  0
   14.9248  -13.7822   -4.1818 H   0  0  0  0  0  0  0  0  0  0  0  0
   13.9740  -12.6085   -5.1915 H   0  0  0  0  0  0  0  0  0  0  0  0
   13.6250  -12.2006   -2.7770 H   0  0  0  0  0  0  0  0  0  0  0  0
   12.1065  -12.7346   -3.5971 H   0  0  0  0  0  0  0  0  0  0  0  0
   13.8990  -14.2620   -1.8340 H   0  0  0  0  0  0  0  0  0  0  0  0
   11.1346  -14.6032   -1.2701 H   0  0  0  0  0  0  0  0  0  0  0  0
   12.4660  -13.9395   -0.2301 H   0  0  0  0  0  0  0  0  0  0  0  0
   11.8338  -12.0486   -2.2759 H   0  0  0  0  0  0  0  0  0  0  0  0
   12.8466  -11.7173    0.0543 H   0  0  0  0  0  0  0  0  0  0  0  0
   11.5095  -10.5539   -0.3731 H   0  0  0  0  0  0  0  0  0  0  0  0
   11.3061  -12.9949    1.4322 H   0  0  0  0  0  0  0  0  0  0  0  0
   11.2479  -11.2478    1.9126 H   0  0  0  0  0  0  0  0  0  0  0  0
    8.9986  -12.3498    1.8040 H   0  0  0  0  0  0  0  0  0  0  0  0
    9.1991  -10.9180    0.7059 H   0  0  0  0  0  0  0  0  0  0  0  0
    9.2784  -13.8628   -0.0690 H   0  0  0  0  0  0  0  0  0  0  0  0
    8.0141  -12.6324   -0.4846 H   0  0  0  0  0  0  0  0  0  0  0  0
    9.5914  -13.1126   -2.3590 H   0  0  0  0  0  0  0  0  0  0  0  0
    9.5886  -11.3775   -1.7967 H   0  0  0  0  0  0  0  0  0  0  0  0
   13.6928  -16.1202   -2.9292 H   0  0  0  0  0  0  0  0  0  0  0  0
   11.9348  -16.0551   -2.4447 H   0  0  0  0  0  0  0  0  0  0  0  0
   12.2825  -16.4132   -4.8983 H   0  0  0  0  0  0  0  0  0  0  0  0
   11.3538  -14.9096   -4.4759 H   0  0  0  0  0  0  0  0  0  0  0  0
  1  2  3  0
  2  3  1  0
  3  4  2  0
  4  5  1  0
  5  6  2  0
  6  7  1  0
  7  8  2  0
  8  9  1  0
  9 10  2  0
 10 11  1  0
 11 12  2  0
 12 13  1  0
 13 14  1  0
 14 15  1  0
 15 16  1  0
 16 17  1  0
 17 18  1  0
 18 19  1  0
 19 20  1  0
 20 21  1  0
 21 22  1  0
 22 23  1  0
 16 24  1  0
 24 25  1  0
 12 26  1  0
 26 27  2  0
 26 28  1  0
 28 29  2  0
  8  3  1  0
 28 11  1  0
 25 13  1  0
 23 18  1  0
  4 30  1  0
  5 31  1  0
  6 32  1  0
  7 33  1  0
  9 34  1  0
 10 35  1  0
 14 36  1  0
 14 37  1  0
 15 38  1  0
 15 39  1  0
 16 40  1  0
 17 41  1  0
 17 42  1  0
 18 43  1  0
 19 44  1  0
 19 45  1  0
 20 46  1  0
 20 47  1  0
 21 48  1  0
 21 49  1  0
 22 50  1  0
 22 51  1  0
 23 52  1  0
 23 53  1  0
 24 54  1  0
 24 55  1  0
 25 56  1  0
 25 57  1  0
M  CHG  1  16   1
M  END
>  <meeko>  (9) 
{"is_sidechain": [false], "free_energy": -7.554, "intermolecular_energy": -9.827, "internal_energy": -0.87}

$$$$
