LIB_YZZJLDVCVPYUMF__M_PUB_ALL__e8__s20260927
     RDKit          3D

 64 68  0  0  0  0  0  0  0  0999 V2000
    5.5490  -11.8680    0.9410 C   0  0  0  0  0  0  0  0  0  0  0  0
    4.1220  -11.8250    0.8670 O   0  0  0  0  0  0  0  0  0  0  0  0
    3.6880  -12.2650   -0.3610 C   0  0  0  0  0  0  0  0  0  0  0  0
    4.5620  -12.9490   -1.2040 C   0  0  0  0  0  0  0  0  0  0  0  0
    4.1050  -13.4200   -2.4360 C   0  0  0  0  0  0  0  0  0  0  0  0
    2.7700  -13.2160   -2.8230 C   0  0  0  0  0  0  0  0  0  0  0  0
    2.2590  -13.7340   -4.1450 C   0  0  0  0  0  0  0  0  0  0  0  0
    3.1740  -14.4860   -4.8190 F   0  0  0  0  0  0  0  0  0  0  0  0
    1.8990  -12.7380   -5.0020 F   0  0  0  0  0  0  0  0  0  0  0  0
    1.1610  -14.5260   -4.0040 F   0  0  0  0  0  0  0  0  0  0  0  0
    1.8930  -12.5480   -1.9480 C   0  0  0  0  0  0  0  0  0  0  0  0
    2.3410  -12.0770   -0.7140 C   0  0  0  0  0  0  0  0  0  0  0  0
    1.5250  -11.4080    0.2130 N   0  0  0  0  0  0  0  0  0  0  0  0
    0.6950  -10.3230    0.0290 C   0  0  0  0  0  0  0  0  0  0  0  0
    0.4920   -9.7390   -1.0330 O   0  0  0  0  0  0  0  0  0  0  0  0
   -0.0290   -9.8910    1.3150 C   0  0  0  0  0  0  0  0  0  0  0  0
   -1.4870   -9.7910    1.1650 N   0  0  0  0  0  0  0  0  0  0  0  0
   -2.3050  -10.7980    0.6850 C   0  0  0  0  0  0  0  0  0  0  0  0
   -3.4080  -10.5670   -0.1440 C   0  0  0  0  0  0  0  0  0  0  0  0
   -4.2580  -11.6090   -0.5270 C   0  0  0  0  0  0  0  0  0  0  0  0
   -4.0210  -12.9040   -0.0760 C   0  0  0  0  0  0  0  0  0  0  0  0
   -2.9270  -13.1730    0.7520 C   0  0  0  0  0  0  0  0  0  0  0  0
   -2.7080  -14.5460    1.2530 C   0  0  0  0  0  0  0  0  0  0  0  0
   -3.3860  -14.9720    2.3390 C   0  0  0  0  0  0  0  0  0  0  0  0
   -3.1510  -16.2530    2.7880 N   0  0  0  0  0  0  0  0  0  0  0  0
   -3.6610  -16.9730    3.8340 C   0  0  0  0  0  0  0  0  0  0  0  0
   -3.0340  -18.1990    3.7640 C   0  0  0  0  0  0  0  0  0  0  0  0
   -2.1530  -18.2510    2.7080 N   0  0  0  0  0  0  0  0  0  0  0  0
   -2.2540  -17.0620    2.1490 C   0  0  0  0  0  0  0  0  0  0  0  0
   -1.5420  -16.5550    0.9890 C   0  0  0  0  0  0  0  0  0  0  0  0
   -0.6330  -17.3450    0.3330 N   0  0  0  0  0  0  0  0  0  0  0  0
    0.1200  -16.9290   -0.8180 C   0  0  0  0  0  0  0  0  0  0  0  0
    1.5800  -17.2290   -0.6020 C   0  0  0  0  0  0  0  0  0  0  0  0
    1.9820  -18.2080    0.3120 C   0  0  0  0  0  0  0  0  0  0  0  0
    3.3350  -18.4660    0.4570 C   0  0  0  0  0  0  0  0  0  0  0  0
    4.3000  -17.8310   -0.2420 N   0  0  0  0  0  0  0  0  0  0  0  0
    3.8920  -16.9010   -1.1310 C   0  0  0  0  0  0  0  0  0  0  0  0
    2.5630  -16.5710   -1.3480 C   0  0  0  0  0  0  0  0  0  0  0  0
   -1.7790  -15.3290    0.5760 N   0  0  0  0  0  0  0  0  0  0  0  0
   -2.0850  -12.1110    1.1270 C   0  0  0  0  0  0  0  0  0  0  0  0
    5.8613  -11.8774    1.9957 H   0  0  0  0  0  0  0  0  0  0  0  0
    5.9148  -12.7776    0.4421 H   0  0  0  0  0  0  0  0  0  0  0  0
    5.9689  -10.9821    0.4421 H   0  0  0  0  0  0  0  0  0  0  0  0
    5.6059  -13.1167   -0.9003 H   0  0  0  0  0  0  0  0  0  0  0  0
    4.7938  -13.9537   -3.1074 H   0  0  0  0  0  0  0  0  0  0  0  0
    0.8435  -12.3958   -2.2404 H   0  0  0  0  0  0  0  0  0  0  0  0
    1.5860  -11.7440    1.1740 H   0  0  0  0  0  0  0  0  0  0  0  0
    0.1897  -10.6284    2.1014 H   0  0  0  0  0  0  0  0  0  0  0  0
    0.3384   -8.8858    1.5693 H   0  0  0  0  0  0  0  0  0  0  0  0
   -1.9260   -8.9780    1.5840 H   0  0  0  0  0  0  0  0  0  0  0  0
   -3.6103   -9.5465   -0.5012 H   0  0  0  0  0  0  0  0  0  0  0  0
   -5.1151  -11.4049   -1.1856 H   0  0  0  0  0  0  0  0  0  0  0  0
   -4.6972  -13.7194   -0.3722 H   0  0  0  0  0  0  0  0  0  0  0  0
   -4.1053  -14.3157    2.8508 H   0  0  0  0  0  0  0  0  0  0  0  0
   -4.4089  -16.6449    4.5708 H   0  0  0  0  0  0  0  0  0  0  0  0
   -3.2148  -19.0292    4.4627 H   0  0  0  0  0  0  0  0  0  0  0  0
   -0.4880  -18.2810    0.7010 H   0  0  0  0  0  0  0  0  0  0  0  0
   -0.2379  -17.4717   -1.7053 H   0  0  0  0  0  0  0  0  0  0  0  0
   -0.0122  -15.8476   -0.9697 H   0  0  0  0  0  0  0  0  0  0  0  0
    1.2386  -18.7621    0.9039 H   0  0  0  0  0  0  0  0  0  0  0  0
    3.6412  -19.2328    1.1838 H   0  0  0  0  0  0  0  0  0  0  0  0
    4.6588  -16.3740   -1.7177 H   0  0  0  0  0  0  0  0  0  0  0  0
    2.2877  -15.8080   -2.0910 H   0  0  0  0  0  0  0  0  0  0  0  0
   -1.2287  -12.3159    1.7863 H   0  0  0  0  0  0  0  0  0  0  0  0
  1  2  1  0
  2  3  1  0
  3  4  2  0
  4  5  1  0
  5  6  2  0
  6  7  1  0
  7  8  1  0
  7  9  1  0
  7 10  1  0
  6 11  1  0
 11 12  2  0
 12 13  1  0
 13 14  1  0
 14 15  2  0
 14 16  1  0
 16 17  1  0
 17 18  1  0
 18 19  2  0
 19 20  1  0
 20 21  2  0
 21 22  1  0
 22 23  1  0
 23 24  2  0
 24 25  1  0
 25 26  1  0
 26 27  2  0
 27 28  1  0
 28 29  2  0
 29 30  1  0
 30 31  1  0
 31 32  1  0
 32 33  1  0
 33 34  2  0
 34 35  1  0
 35 36  2  0
 36 37  1  0
 37 38  2  0
 30 39  2  0
 22 40  2  0
 12  3  1  0
 40 18  1  0
 39 23  1  0
 29 25  1  0
 38 33  1  0
  1 41  1  0
  1 42  1  0
  1 43  1  0
  4 44  1  0
  5 45  1  0
 11 46  1  0
 13 47  1  0
 16 48  1  0
 16 49  1  0
 17 50  1  0
 19 51  1  0
 20 52  1  0
 21 53  1  0
 24 54  1  0
 26 55  1  0
 27 56  1  0
 31 57  1  0
 32 58  1  0
 32 59  1  0
 34 60  1  0
 35 61  1  0
 37 62  1  0
 38 63  1  0
 40 64  1  0
M  END
>  <meeko>  (1) 
{"is_sidechain": [false], "free_energy": -8.373, "intermolecular_energy": -12.779, "internal_energy": -2.432}

$$$$
LIB_YZZJLDVCVPYUMF__M_PUB_ALL__e8__s20260927
     RDKit          3D

 64 68  0  0  0  0  0  0  0  0999 V2000
   10.7370  -14.2260   -5.2890 C   0  0  0  0  0  0  0  0  0  0  0  0
    9.9430  -13.4270   -4.4100 O   0  0  0  0  0  0  0  0  0  0  0  0
   10.7120  -12.9240   -3.3860 C   0  0  0  0  0  0  0  0  0  0  0  0
   12.0270  -12.5330   -3.6320 C   0  0  0  0  0  0  0  0  0  0  0  0
   12.7900  -11.9940   -2.5950 C   0  0  0  0  0  0  0  0  0  0  0  0
   12.2370  -11.8370   -1.3130 C   0  0  0  0  0  0  0  0  0  0  0  0
   13.0460  -11.2410   -0.1870 C   0  0  0  0  0  0  0  0  0  0  0  0
   14.1730  -10.6030   -0.6140 F   0  0  0  0  0  0  0  0  0  0  0  0
   13.4700  -12.1720    0.7120 F   0  0  0  0  0  0  0  0  0  0  0  0
   12.3450  -10.3180    0.5260 F   0  0  0  0  0  0  0  0  0  0  0  0
   10.8990  -12.2110   -1.0890 C   0  0  0  0  0  0  0  0  0  0  0  0
   10.1280  -12.7480   -2.1210 C   0  0  0  0  0  0  0  0  0  0  0  0
    8.7870  -13.1380   -1.9750 N   0  0  0  0  0  0  0  0  0  0  0  0
    7.6520  -12.3610   -1.8740 C   0  0  0  0  0  0  0  0  0  0  0  0
    7.6090  -11.1340   -1.9230 O   0  0  0  0  0  0  0  0  0  0  0  0
    6.3640  -13.1890   -1.7210 C   0  0  0  0  0  0  0  0  0  0  0  0
    5.2210  -12.6410   -2.4620 N   0  0  0  0  0  0  0  0  0  0  0  0
    5.1360  -12.5570   -3.8400 C   0  0  0  0  0  0  0  0  0  0  0  0
    4.2650  -11.6910   -4.5090 C   0  0  0  0  0  0  0  0  0  0  0  0
    4.1510  -11.7100   -5.9020 C   0  0  0  0  0  0  0  0  0  0  0  0
    4.9040  -12.6090   -6.6520 C   0  0  0  0  0  0  0  0  0  0  0  0
    5.7870  -13.4880   -6.0180 C   0  0  0  0  0  0  0  0  0  0  0  0
    6.5540  -14.4620   -6.8230 C   0  0  0  0  0  0  0  0  0  0  0  0
    7.2220  -15.4560   -6.2020 C   0  0  0  0  0  0  0  0  0  0  0  0
    7.9360  -16.3410   -6.9800 N   0  0  0  0  0  0  0  0  0  0  0  0
    8.7020  -17.4320   -6.6710 C   0  0  0  0  0  0  0  0  0  0  0  0
    9.1550  -17.9060   -7.8840 C   0  0  0  0  0  0  0  0  0  0  0  0
    8.6920  -17.1360   -8.9260 N   0  0  0  0  0  0  0  0  0  0  0  0
    7.9660  -16.2070   -8.3390 C   0  0  0  0  0  0  0  0  0  0  0  0
    7.2370  -15.1150   -8.9610 C   0  0  0  0  0  0  0  0  0  0  0  0
    7.2550  -14.9560  -10.3240 N   0  0  0  0  0  0  0  0  0  0  0  0
    6.5700  -13.9050  -11.0250 C   0  0  0  0  0  0  0  0  0  0  0  0
    7.5260  -12.7730  -11.2970 C   0  0  0  0  0  0  0  0  0  0  0  0
    8.7840  -13.0170  -11.8560 C   0  0  0  0  0  0  0  0  0  0  0  0
    9.6170  -11.9400  -12.1110 C   0  0  0  0  0  0  0  0  0  0  0  0
    9.2840  -10.6560  -11.8580 N   0  0  0  0  0  0  0  0  0  0  0  0
    8.0600  -10.4400  -11.3330 C   0  0  0  0  0  0  0  0  0  0  0  0
    7.1560  -11.4490  -11.0430 C   0  0  0  0  0  0  0  0  0  0  0  0
    6.5620  -14.2800   -8.2020 N   0  0  0  0  0  0  0  0  0  0  0  0
    5.8860  -13.4540   -4.6150 C   0  0  0  0  0  0  0  0  0  0  0  0
   11.3905  -14.8836   -4.6970 H   0  0  0  0  0  0  0  0  0  0  0  0
   10.0788  -14.8379   -5.9234 H   0  0  0  0  0  0  0  0  0  0  0  0
   11.3530  -13.5717   -5.9234 H   0  0  0  0  0  0  0  0  0  0  0  0
   12.4605  -12.6484   -4.6364 H   0  0  0  0  0  0  0  0  0  0  0  0
   13.8305  -11.6903   -2.7825 H   0  0  0  0  0  0  0  0  0  0  0  0
   10.4564  -12.0788   -0.0907 H   0  0  0  0  0  0  0  0  0  0  0  0
    8.6290  -14.1420   -1.8860 H   0  0  0  0  0  0  0  0  0  0  0  0
    6.5599  -14.2075   -2.0874 H   0  0  0  0  0  0  0  0  0  0  0  0
    6.0948  -13.1724   -0.6546 H   0  0  0  0  0  0  0  0  0  0  0  0
    4.3850  -12.4510   -1.9200 H   0  0  0  0  0  0  0  0  0  0  0  0
    3.6580  -10.9813   -3.9277 H   0  0  0  0  0  0  0  0  0  0  0  0
    3.4652  -11.0134   -6.4064 H   0  0  0  0  0  0  0  0  0  0  0  0
    4.8039  -12.6278   -7.7473 H   0  0  0  0  0  0  0  0  0  0  0  0
    7.1974  -15.5569   -5.1069 H   0  0  0  0  0  0  0  0  0  0  0  0
    8.9110  -17.8419   -5.6718 H   0  0  0  0  0  0  0  0  0  0  0  0
    9.8033  -18.7866   -8.0033 H   0  0  0  0  0  0  0  0  0  0  0  0
    7.7980  -15.6290  -10.8570 H   0  0  0  0  0  0  0  0  0  0  0  0
    6.1815  -14.2932  -11.9781 H   0  0  0  0  0  0  0  0  0  0  0  0
    5.7353  -13.5386  -10.4093 H   0  0  0  0  0  0  0  0  0  0  0  0
    9.1056  -14.0429  -12.0885 H   0  0  0  0  0  0  0  0  0  0  0  0
   10.6074  -12.1425  -12.5448 H   0  0  0  0  0  0  0  0  0  0  0  0
    7.7625   -9.4020  -11.1229 H   0  0  0  0  0  0  0  0  0  0  0  0
    6.1676  -11.2132  -10.6216 H   0  0  0  0  0  0  0  0  0  0  0  0
    6.5716  -14.1512   -4.1111 H   0  0  0  0  0  0  0  0  0  0  0  0
  1  2  1  0
  2  3  1  0
  3  4  2  0
  4  5  1  0
  5  6  2  0
  6  7  1  0
  7  8  1  0
  7  9  1  0
  7 10  1  0
  6 11  1  0
 11 12  2  0
 12 13  1  0
 13 14  1  0
 14 15  2  0
 14 16  1  0
 16 17  1  0
 17 18  1  0
 18 19  2  0
 19 20  1  0
 20 21  2  0
 21 22  1  0
 22 23  1  0
 23 24  2  0
 24 25  1  0
 25 26  1  0
 26 27  2  0
 27 28  1  0
 28 29  2  0
 29 30  1  0
 30 31  1  0
 31 32  1  0
 32 33  1  0
 33 34  2  0
 34 35  1  0
 35 36  2  0
 36 37  1  0
 37 38  2  0
 30 39  2  0
 22 40  2  0
 12  3  1  0
 40 18  1  0
 39 23  1  0
 29 25  1  0
 38 33  1  0
  1 41  1  0
  1 42  1  0
  1 43  1  0
  4 44  1  0
  5 45  1  0
 11 46  1  0
 13 47  1  0
 16 48  1  0
 16 49  1  0
 17 50  1  0
 19 51  1  0
 20 52  1  0
 21 53  1  0
 24 54  1  0
 26 55  1  0
 27 56  1  0
 31 57  1  0
 32 58  1  0
 32 59  1  0
 34 60  1  0
 35 61  1  0
 37 62  1  0
 38 63  1  0
 40 64  1  0
M  END
>  <meeko>  (2) 
{"is_sidechain": [false], "free_energy": -8.189, "intermolecular_energy": -13.073, "internal_energy": -1.857}

$$$$
LIB_YZZJLDVCVPYUMF__M_PUB_ALL__e8__s20260927
     RDKit          3D

 64 68  0  0  0  0  0  0  0  0999 V2000
   12.7490  -11.3700   -0.7870 C   0  0  0  0  0  0  0  0  0  0  0  0
   11.4460  -11.7100   -1.2680 O   0  0  0  0  0  0  0  0  0  0  0  0
   11.5350  -12.4440   -2.4280 C   0  0  0  0  0  0  0  0  0  0  0  0
   12.7120  -13.1260   -2.7310 C   0  0  0  0  0  0  0  0  0  0  0  0
   12.7840  -13.8940   -3.8950 C   0  0  0  0  0  0  0  0  0  0  0  0
   11.6750  -13.9880   -4.7520 C   0  0  0  0  0  0  0  0  0  0  0  0
   11.7340  -14.8270   -6.0050 C   0  0  0  0  0  0  0  0  0  0  0  0
   11.7250  -16.1680   -5.7560 F   0  0  0  0  0  0  0  0  0  0  0  0
   12.8540  -14.5990   -6.7450 F   0  0  0  0  0  0  0  0  0  0  0  0
   10.6800  -14.5980   -6.8350 F   0  0  0  0  0  0  0  0  0  0  0  0
   10.4850  -13.3160   -4.4170 C   0  0  0  0  0  0  0  0  0  0  0  0
   10.4050  -12.5490   -3.2540 C   0  0  0  0  0  0  0  0  0  0  0  0
    9.2520  -11.8560   -2.8520 N   0  0  0  0  0  0  0  0  0  0  0  0
    8.2330  -12.2570   -2.0130 C   0  0  0  0  0  0  0  0  0  0  0  0
    8.1650  -13.3310   -1.4210 O   0  0  0  0  0  0  0  0  0  0  0  0
    7.1410  -11.1890   -1.8330 C   0  0  0  0  0  0  0  0  0  0  0  0
    5.8040  -11.6390   -2.2420 N   0  0  0  0  0  0  0  0  0  0  0  0
    5.4070  -11.8570   -3.5490 C   0  0  0  0  0  0  0  0  0  0  0  0
    4.2740  -11.2690   -4.1200 C   0  0  0  0  0  0  0  0  0  0  0  0
    3.8630  -11.5950   -5.4160 C   0  0  0  0  0  0  0  0  0  0  0  0
    4.5780  -12.5260   -6.1620 C   0  0  0  0  0  0  0  0  0  0  0  0
    5.7180  -13.1330   -5.6250 C   0  0  0  0  0  0  0  0  0  0  0  0
    6.4470  -14.1480   -6.4140 C   0  0  0  0  0  0  0  0  0  0  0  0
    7.1070  -15.1360   -5.7750 C   0  0  0  0  0  0  0  0  0  0  0  0
    7.7870  -16.0600   -6.5390 N   0  0  0  0  0  0  0  0  0  0  0  0
    8.5360  -17.1570   -6.2110 C   0  0  0  0  0  0  0  0  0  0  0  0
    8.9540  -17.6780   -7.4180 C   0  0  0  0  0  0  0  0  0  0  0  0
    8.4850  -16.9310   -8.4740 N   0  0  0  0  0  0  0  0  0  0  0  0
    7.7900  -15.9690   -7.9020 C   0  0  0  0  0  0  0  0  0  0  0  0
    7.0720  -14.8820   -8.5430 C   0  0  0  0  0  0  0  0  0  0  0  0
    7.0640  -14.7670   -9.9110 N   0  0  0  0  0  0  0  0  0  0  0  0
    6.3860  -13.7240  -10.6310 C   0  0  0  0  0  0  0  0  0  0  0  0
    7.3900  -12.7140  -11.1220 C   0  0  0  0  0  0  0  0  0  0  0  0
    7.1830  -11.3460  -10.9250 C   0  0  0  0  0  0  0  0  0  0  0  0
    8.1480  -10.4570  -11.3710 C   0  0  0  0  0  0  0  0  0  0  0  0
    9.2910  -10.8350  -11.9840 N   0  0  0  0  0  0  0  0  0  0  0  0
    9.4790  -12.1600  -12.1510 C   0  0  0  0  0  0  0  0  0  0  0  0
    8.5750  -13.1270  -11.7400 C   0  0  0  0  0  0  0  0  0  0  0  0
    6.4300  -14.0100   -7.7980 N   0  0  0  0  0  0  0  0  0  0  0  0
    6.1140  -12.7940   -4.3190 C   0  0  0  0  0  0  0  0  0  0  0  0
   12.7456  -11.3709    0.3130 H   0  0  0  0  0  0  0  0  0  0  0  0
   13.4787  -12.1078   -1.1520 H   0  0  0  0  0  0  0  0  0  0  0  0
   13.0251  -10.3697   -1.1520 H   0  0  0  0  0  0  0  0  0  0  0  0
   13.5790  -13.0597   -2.0573 H   0  0  0  0  0  0  0  0  0  0  0  0
   13.7135  -14.4279   -4.1420 H   0  0  0  0  0  0  0  0  0  0  0  0
    9.6095  -13.3960   -5.0781 H   0  0  0  0  0  0  0  0  0  0  0  0
    9.1220  -10.9360   -3.2740 H   0  0  0  0  0  0  0  0  0  0  0  0
    7.1028  -10.9066   -0.7706 H   0  0  0  0  0  0  0  0  0  0  0  0
    7.4085  -10.3422   -2.4821 H   0  0  0  0  0  0  0  0  0  0  0  0
    5.1890  -11.9480   -1.4980 H   0  0  0  0  0  0  0  0  0  0  0  0
    3.6952  -10.5362   -3.5386 H   0  0  0  0  0  0  0  0  0  0  0  0
    2.9723  -11.1142   -5.8466 H   0  0  0  0  0  0  0  0  0  0  0  0
    4.2458  -12.7859   -7.1779 H   0  0  0  0  0  0  0  0  0  0  0  0
    7.1026  -15.2022   -4.6770 H   0  0  0  0  0  0  0  0  0  0  0  0
    8.7568  -17.5402   -5.2038 H   0  0  0  0  0  0  0  0  0  0  0  0
    9.5816  -18.5753   -7.5227 H   0  0  0  0  0  0  0  0  0  0  0  0
    7.5810  -15.4670  -10.4330 H   0  0  0  0  0  0  0  0  0  0  0  0
    5.8537  -14.1585  -11.4900 H   0  0  0  0  0  0  0  0  0  0  0  0
    5.6655  -13.2283   -9.9638 H   0  0  0  0  0  0  0  0  0  0  0  0
    6.2726  -10.9823  -10.4261 H   0  0  0  0  0  0  0  0  0  0  0  0
    7.9733   -9.3819  -11.2171 H   0  0  0  0  0  0  0  0  0  0  0  0
   10.4049  -12.4931  -12.6427 H   0  0  0  0  0  0  0  0  0  0  0  0
    8.7848  -14.1954  -11.8963 H   0  0  0  0  0  0  0  0  0  0  0  0
    7.0035  -13.2770   -3.8883 H   0  0  0  0  0  0  0  0  0  0  0  0
  1  2  1  0
  2  3  1  0
  3  4  2  0
  4  5  1  0
  5  6  2  0
  6  7  1  0
  7  8  1  0
  7  9  1  0
  7 10  1  0
  6 11  1  0
 11 12  2  0
 12 13  1  0
 13 14  1  0
 14 15  2  0
 14 16  1  0
 16 17  1  0
 17 18  1  0
 18 19  2  0
 19 20  1  0
 20 21  2  0
 21 22  1  0
 22 23  1  0
 23 24  2  0
 24 25  1  0
 25 26  1  0
 26 27  2  0
 27 28  1  0
 28 29  2  0
 29 30  1  0
 30 31  1  0
 31 32  1  0
 32 33  1  0
 33 34  2  0
 34 35  1  0
 35 36  2  0
 36 37  1  0
 37 38  2  0
 30 39  2  0
 22 40  2  0
 12  3  1  0
 40 18  1  0
 39 23  1  0
 29 25  1  0
 38 33  1  0
  1 41  1  0
  1 42  1  0
  1 43  1  0
  4 44  1  0
  5 45  1  0
 11 46  1  0
 13 47  1  0
 16 48  1  0
 16 49  1  0
 17 50  1  0
 19 51  1  0
 20 52  1  0
 21 53  1  0
 24 54  1  0
 26 55  1  0
 27 56  1  0
 31 57  1  0
 32 58  1  0
 32 59  1  0
 34 60  1  0
 35 61  1  0
 37 62  1  0
 38 63  1  0
 40 64  1  0
M  END
>  <meeko>  (3) 
{"is_sidechain": [false], "free_energy": -8.121, "intermolecular_energy": -12.645, "internal_energy": -2.181}

$$$$
LIB_YZZJLDVCVPYUMF__M_PUB_ALL__e8__s20260927
     RDKit          3D

 64 68  0  0  0  0  0  0  0  0999 V2000
    8.1700  -14.2220   -2.5380 C   0  0  0  0  0  0  0  0  0  0  0  0
    8.1130  -13.1940   -3.5290 O   0  0  0  0  0  0  0  0  0  0  0  0
    6.8500  -12.6540   -3.5940 C   0  0  0  0  0  0  0  0  0  0  0  0
    6.3510  -11.9190   -2.5200 C   0  0  0  0  0  0  0  0  0  0  0  0
    5.0800  -11.3490   -2.6070 C   0  0  0  0  0  0  0  0  0  0  0  0
    4.3100  -11.5030   -3.7710 C   0  0  0  0  0  0  0  0  0  0  0  0
    2.9410  -10.8780   -3.8840 C   0  0  0  0  0  0  0  0  0  0  0  0
    2.1770  -11.0510   -2.7680 F   0  0  0  0  0  0  0  0  0  0  0  0
    2.2080  -11.3860   -4.9130 F   0  0  0  0  0  0  0  0  0  0  0  0
    2.9980   -9.5330   -4.0880 F   0  0  0  0  0  0  0  0  0  0  0  0
    4.8400  -12.2240   -4.8570 C   0  0  0  0  0  0  0  0  0  0  0  0
    6.1110  -12.7950   -4.7800 C   0  0  0  0  0  0  0  0  0  0  0  0
    6.7080  -13.5220   -5.8230 N   0  0  0  0  0  0  0  0  0  0  0  0
    6.6020  -14.8610   -6.1320 C   0  0  0  0  0  0  0  0  0  0  0  0
    5.9140  -15.6890   -5.5390 O   0  0  0  0  0  0  0  0  0  0  0  0
    7.4280  -15.2640   -7.3660 C   0  0  0  0  0  0  0  0  0  0  0  0
    7.4300  -14.2510   -8.4290 N   0  0  0  0  0  0  0  0  0  0  0  0
    8.5620  -13.7520   -9.0480 C   0  0  0  0  0  0  0  0  0  0  0  0
    8.5250  -12.8960  -10.1520 C   0  0  0  0  0  0  0  0  0  0  0  0
    9.6980  -12.4940  -10.7980 C   0  0  0  0  0  0  0  0  0  0  0  0
   10.9340  -12.9540  -10.3520 C   0  0  0  0  0  0  0  0  0  0  0  0
   11.0100  -13.8100   -9.2500 C   0  0  0  0  0  0  0  0  0  0  0  0
   12.3250  -14.3210   -8.8090 C   0  0  0  0  0  0  0  0  0  0  0  0
   13.3230  -14.4460   -9.7070 C   0  0  0  0  0  0  0  0  0  0  0  0
   14.5330  -14.9360   -9.2660 N   0  0  0  0  0  0  0  0  0  0  0  0
   15.7190  -15.1790   -9.9050 C   0  0  0  0  0  0  0  0  0  0  0  0
   16.5590  -15.6660   -8.9260 C   0  0  0  0  0  0  0  0  0  0  0  0
   15.9230  -15.7310   -7.7070 N   0  0  0  0  0  0  0  0  0  0  0  0
   14.7080  -15.2850   -7.9570 C   0  0  0  0  0  0  0  0  0  0  0  0
   13.6000  -15.1390   -7.0290 C   0  0  0  0  0  0  0  0  0  0  0  0
   13.7490  -15.4870   -5.7100 N   0  0  0  0  0  0  0  0  0  0  0  0
   12.7110  -15.3820   -4.7230 C   0  0  0  0  0  0  0  0  0  0  0  0
   12.7710  -14.0260   -4.0680 C   0  0  0  0  0  0  0  0  0  0  0  0
   13.9760  -13.3210   -3.9950 C   0  0  0  0  0  0  0  0  0  0  0  0
   13.9770  -12.0670   -3.4060 C   0  0  0  0  0  0  0  0  0  0  0  0
   12.8730  -11.4740   -2.9010 N   0  0  0  0  0  0  0  0  0  0  0  0
   11.7180  -12.1640   -2.9960 C   0  0  0  0  0  0  0  0  0  0  0  0
   11.6150  -13.4230   -3.5660 C   0  0  0  0  0  0  0  0  0  0  0  0
   12.4530  -14.6710   -7.4680 N   0  0  0  0  0  0  0  0  0  0  0  0
    9.8180  -14.2040   -8.6150 C   0  0  0  0  0  0  0  0  0  0  0  0
    8.1448  -13.7677   -1.5365 H   0  0  0  0  0  0  0  0  0  0  0  0
    7.3078  -14.8945   -2.6573 H   0  0  0  0  0  0  0  0  0  0  0  0
    9.1013  -14.7951   -2.6573 H   0  0  0  0  0  0  0  0  0  0  0  0
    6.9549  -11.7890   -1.6098 H   0  0  0  0  0  0  0  0  0  0  0  0
    4.6790  -10.7755   -1.7583 H   0  0  0  0  0  0  0  0  0  0  0  0
    4.2464  -12.3387   -5.7760 H   0  0  0  0  0  0  0  0  0  0  0  0
    7.3490  -12.9940   -6.4150 H   0  0  0  0  0  0  0  0  0  0  0  0
    8.4668  -15.4362   -7.0479 H   0  0  0  0  0  0  0  0  0  0  0  0
    6.9627  -16.1689   -7.7839 H   0  0  0  0  0  0  0  0  0  0  0  0
    6.5260  -14.0190   -8.8290 H   0  0  0  0  0  0  0  0  0  0  0  0
    7.5545  -12.5315  -10.5198 H   0  0  0  0  0  0  0  0  0  0  0  0
    9.6442  -11.8130  -11.6602 H   0  0  0  0  0  0  0  0  0  0  0  0
   11.8538  -12.6426  -10.8687 H   0  0  0  0  0  0  0  0  0  0  0  0
   13.1756  -14.1652  -10.7603 H   0  0  0  0  0  0  0  0  0  0  0  0
   15.9514  -15.0202  -10.9684 H   0  0  0  0  0  0  0  0  0  0  0  0
   17.6038  -15.9644   -9.0972 H   0  0  0  0  0  0  0  0  0  0  0  0
   14.6570  -15.8470   -5.4300 H   0  0  0  0  0  0  0  0  0  0  0  0
   11.7316  -15.5119   -5.2066 H   0  0  0  0  0  0  0  0  0  0  0  0
   12.8518  -16.1623   -3.9606 H   0  0  0  0  0  0  0  0  0  0  0  0
   14.9043  -13.7531   -4.3970 H   0  0  0  0  0  0  0  0  0  0  0  0
   14.9312  -11.5230   -3.3461 H   0  0  0  0  0  0  0  0  0  0  0  0
   10.8037  -11.7000   -2.5975 H   0  0  0  0  0  0  0  0  0  0  0  0
   10.6439  -13.9366   -3.6220 H   0  0  0  0  0  0  0  0  0  0  0  0
    9.8721  -14.8863   -7.7539 H   0  0  0  0  0  0  0  0  0  0  0  0
  1  2  1  0
  2  3  1  0
  3  4  2  0
  4  5  1  0
  5  6  2  0
  6  7  1  0
  7  8  1  0
  7  9  1  0
  7 10  1  0
  6 11  1  0
 11 12  2  0
 12 13  1  0
 13 14  1  0
 14 15  2  0
 14 16  1  0
 16 17  1  0
 17 18  1  0
 18 19  2  0
 19 20  1  0
 20 21  2  0
 21 22  1  0
 22 23  1  0
 23 24  2  0
 24 25  1  0
 25 26  1  0
 26 27  2  0
 27 28  1  0
 28 29  2  0
 29 30  1  0
 30 31  1  0
 31 32  1  0
 32 33  1  0
 33 34  2  0
 34 35  1  0
 35 36  2  0
 36 37  1  0
 37 38  2  0
 30 39  2  0
 22 40  2  0
 12  3  1  0
 40 18  1  0
 39 23  1  0
 29 25  1  0
 38 33  1  0
  1 41  1  0
  1 42  1  0
  1 43  1  0
  4 44  1  0
  5 45  1  0
 11 46  1  0
 13 47  1  0
 16 48  1  0
 16 49  1  0
 17 50  1  0
 19 51  1  0
 20 52  1  0
 21 53  1  0
 24 54  1  0
 26 55  1  0
 27 56  1  0
 31 57  1  0
 32 58  1  0
 32 59  1  0
 34 60  1  0
 35 61  1  0
 37 62  1  0
 38 63  1  0
 40 64  1  0
M  END
>  <meeko>  (4) 
{"is_sidechain": [false], "free_energy": -8.094, "intermolecular_energy": -12.86, "internal_energy": -1.924}

$$$$
LIB_YZZJLDVCVPYUMF__M_PUB_ALL__e8__s20260927
     RDKit          3D

 64 68  0  0  0  0  0  0  0  0999 V2000
    6.3530  -17.0550   -6.3040 C   0  0  0  0  0  0  0  0  0  0  0  0
    7.4560  -16.1540   -6.4260 O   0  0  0  0  0  0  0  0  0  0  0  0
    7.4070  -15.4890   -7.6290 C   0  0  0  0  0  0  0  0  0  0  0  0
    7.6540  -16.1790   -8.8150 C   0  0  0  0  0  0  0  0  0  0  0  0
    7.5710  -15.5040  -10.0340 C   0  0  0  0  0  0  0  0  0  0  0  0
    7.2330  -14.1410  -10.0700 C   0  0  0  0  0  0  0  0  0  0  0  0
    7.1250  -13.4040  -11.3820 C   0  0  0  0  0  0  0  0  0  0  0  0
    8.2980  -13.3670  -12.0770 F   0  0  0  0  0  0  0  0  0  0  0  0
    6.7470  -12.1040  -11.2310 F   0  0  0  0  0  0  0  0  0  0  0  0
    6.2150  -13.9670  -12.2230 F   0  0  0  0  0  0  0  0  0  0  0  0
    6.9590  -13.4670   -8.8650 C   0  0  0  0  0  0  0  0  0  0  0  0
    7.0370  -14.1350   -7.6420 C   0  0  0  0  0  0  0  0  0  0  0  0
    6.7730  -13.5310   -6.4020 N   0  0  0  0  0  0  0  0  0  0  0  0
    5.5680  -13.1500   -5.8500 C   0  0  0  0  0  0  0  0  0  0  0  0
    4.4590  -13.3030   -6.3560 O   0  0  0  0  0  0  0  0  0  0  0  0
    5.7160  -12.5140   -4.4570 C   0  0  0  0  0  0  0  0  0  0  0  0
    5.6240  -13.4810   -3.3550 N   0  0  0  0  0  0  0  0  0  0  0  0
    6.7030  -13.9870   -2.6520 C   0  0  0  0  0  0  0  0  0  0  0  0
    6.5790  -14.6970   -1.4540 C   0  0  0  0  0  0  0  0  0  0  0  0
    7.7050  -15.1070   -0.7350 C   0  0  0  0  0  0  0  0  0  0  0  0
    8.9810  -14.8040   -1.2010 C   0  0  0  0  0  0  0  0  0  0  0  0
    9.1440  -14.0980   -2.3970 C   0  0  0  0  0  0  0  0  0  0  0  0
   10.5020  -13.7490   -2.8630 C   0  0  0  0  0  0  0  0  0  0  0  0
   11.2060  -12.8030   -2.2080 C   0  0  0  0  0  0  0  0  0  0  0  0
   12.4650  -12.4930   -2.6740 N   0  0  0  0  0  0  0  0  0  0  0  0
   13.4140  -11.6040   -2.2490 C   0  0  0  0  0  0  0  0  0  0  0  0
   14.4680  -11.7590   -3.1260 C   0  0  0  0  0  0  0  0  0  0  0  0
   14.1900  -12.7140   -4.0770 N   0  0  0  0  0  0  0  0  0  0  0  0
   12.9780  -13.1290   -3.7700 C   0  0  0  0  0  0  0  0  0  0  0  0
   12.1780  -14.1350   -4.4450 C   0  0  0  0  0  0  0  0  0  0  0  0
   12.6690  -14.7850   -5.5500 N   0  0  0  0  0  0  0  0  0  0  0  0
   11.9510  -15.7890   -6.2850 C   0  0  0  0  0  0  0  0  0  0  0  0
   11.6040  -15.2630   -7.6530 C   0  0  0  0  0  0  0  0  0  0  0  0
   11.8350  -16.0350   -8.7960 C   0  0  0  0  0  0  0  0  0  0  0  0
   11.4760  -15.5190  -10.0300 C   0  0  0  0  0  0  0  0  0  0  0  0
   10.9040  -14.3070  -10.1990 N   0  0  0  0  0  0  0  0  0  0  0  0
   10.6750  -13.5840   -9.0840 C   0  0  0  0  0  0  0  0  0  0  0  0
   10.9980  -14.0120   -7.8060 C   0  0  0  0  0  0  0  0  0  0  0  0
   10.9790  -14.4160   -3.9870 N   0  0  0  0  0  0  0  0  0  0  0  0
    7.9980  -13.6920   -3.1050 C   0  0  0  0  0  0  0  0  0  0  0  0
    6.1386  -17.2301   -5.2394 H   0  0  0  0  0  0  0  0  0  0  0  0
    5.4676  -16.6185   -6.7894 H   0  0  0  0  0  0  0  0  0  0  0  0
    6.6040  -18.0097   -6.7894 H   0  0  0  0  0  0  0  0  0  0  0  0
    7.9125  -17.2479   -8.7903 H   0  0  0  0  0  0  0  0  0  0  0  0
    7.7715  -16.0426  -10.9720 H   0  0  0  0  0  0  0  0  0  0  0  0
    6.6806  -12.4031   -8.8874 H   0  0  0  0  0  0  0  0  0  0  0  0
    7.5940  -13.2990   -5.8440 H   0  0  0  0  0  0  0  0  0  0  0  0
    6.6966  -12.0185   -4.4036 H   0  0  0  0  0  0  0  0  0  0  0  0
    4.8821  -11.8070   -4.3355 H   0  0  0  0  0  0  0  0  0  0  0  0
    4.6930  -13.6670   -3.0000 H   0  0  0  0  0  0  0  0  0  0  0  0
    5.5765  -14.9374   -1.0703 H   0  0  0  0  0  0  0  0  0  0  0  0
    7.5825  -15.6706    0.2016 H   0  0  0  0  0  0  0  0  0  0  0  0
    9.8640  -15.1209   -0.6267 H   0  0  0  0  0  0  0  0  0  0  0  0
   10.7871  -12.2939   -1.3275 H   0  0  0  0  0  0  0  0  0  0  0  0
   13.3506  -10.9151   -1.3938 H   0  0  0  0  0  0  0  0  0  0  0  0
   15.4092  -11.1922   -3.0719 H   0  0  0  0  0  0  0  0  0  0  0  0
   13.6000  -14.5220   -5.8610 H   0  0  0  0  0  0  0  0  0  0  0  0
   12.5782  -16.6870   -6.3864 H   0  0  0  0  0  0  0  0  0  0  0  0
   11.0263  -16.0443   -5.7466 H   0  0  0  0  0  0  0  0  0  0  0  0
   12.2927  -17.0321   -8.7165 H   0  0  0  0  0  0  0  0  0  0  0  0
   11.6676  -16.1311  -10.9236 H   0  0  0  0  0  0  0  0  0  0  0  0
   10.2040  -12.5962   -9.1954 H   0  0  0  0  0  0  0  0  0  0  0  0
   10.7824  -13.3813   -6.9309 H   0  0  0  0  0  0  0  0  0  0  0  0
    8.1207  -13.1269   -4.0408 H   0  0  0  0  0  0  0  0  0  0  0  0
  1  2  1  0
  2  3  1  0
  3  4  2  0
  4  5  1  0
  5  6  2  0
  6  7  1  0
  7  8  1  0
  7  9  1  0
  7 10  1  0
  6 11  1  0
 11 12  2  0
 12 13  1  0
 13 14  1  0
 14 15  2  0
 14 16  1  0
 16 17  1  0
 17 18  1  0
 18 19  2  0
 19 20  1  0
 20 21  2  0
 21 22  1  0
 22 23  1  0
 23 24  2  0
 24 25  1  0
 25 26  1  0
 26 27  2  0
 27 28  1  0
 28 29  2  0
 29 30  1  0
 30 31  1  0
 31 32  1  0
 32 33  1  0
 33 34  2  0
 34 35  1  0
 35 36  2  0
 36 37  1  0
 37 38  2  0
 30 39  2  0
 22 40  2  0
 12  3  1  0
 40 18  1  0
 39 23  1  0
 29 25  1  0
 38 33  1  0
  1 41  1  0
  1 42  1  0
  1 43  1  0
  4 44  1  0
  5 45  1  0
 11 46  1  0
 13 47  1  0
 16 48  1  0
 16 49  1  0
 17 50  1  0
 19 51  1  0
 20 52  1  0
 21 53  1  0
 24 54  1  0
 26 55  1  0
 27 56  1  0
 31 57  1  0
 32 58  1  0
 32 59  1  0
 34 60  1  0
 35 61  1  0
 37 62  1  0
 38 63  1  0
 40 64  1  0
M  END
>  <meeko>  (5) 
{"is_sidechain": [false], "free_energy": -8.061, "intermolecular_energy": -11.918, "internal_energy": -2.817}

$$$$
LIB_YZZJLDVCVPYUMF__M_PUB_ALL__e8__s20260927
     RDKit          3D

 64 68  0  0  0  0  0  0  0  0999 V2000
   13.3710  -11.2260   -0.0360 C   0  0  0  0  0  0  0  0  0  0  0  0
   12.7310  -10.7020   -1.2020 O   0  0  0  0  0  0  0  0  0  0  0  0
   12.8070  -11.6000   -2.2410 C   0  0  0  0  0  0  0  0  0  0  0  0
   14.0070  -11.7660   -2.9310 C   0  0  0  0  0  0  0  0  0  0  0  0
   14.0850  -12.7010   -3.9630 C   0  0  0  0  0  0  0  0  0  0  0  0
   12.9660  -13.4800   -4.3020 C   0  0  0  0  0  0  0  0  0  0  0  0
   13.0410  -14.5070   -5.4050 C   0  0  0  0  0  0  0  0  0  0  0  0
   13.1310  -13.9550   -6.6490 F   0  0  0  0  0  0  0  0  0  0  0  0
   11.9540  -15.3260   -5.4440 F   0  0  0  0  0  0  0  0  0  0  0  0
   14.1240  -15.3230   -5.2840 F   0  0  0  0  0  0  0  0  0  0  0  0
   11.7710  -13.3210   -3.5770 C   0  0  0  0  0  0  0  0  0  0  0  0
   11.6850  -12.3890   -2.5410 C   0  0  0  0  0  0  0  0  0  0  0  0
   10.5300  -12.1780   -1.7710 N   0  0  0  0  0  0  0  0  0  0  0  0
    9.9990  -12.9450   -0.7550 C   0  0  0  0  0  0  0  0  0  0  0  0
   10.4800  -13.9830   -0.3060 O   0  0  0  0  0  0  0  0  0  0  0  0
    8.7050  -12.3580   -0.1670 C   0  0  0  0  0  0  0  0  0  0  0  0
    7.4840  -12.9820   -0.6920 N   0  0  0  0  0  0  0  0  0  0  0  0
    6.9930  -12.8080   -1.9740 C   0  0  0  0  0  0  0  0  0  0  0  0
    6.0380  -11.8440   -2.3120 C   0  0  0  0  0  0  0  0  0  0  0  0
    5.5070  -11.7710   -3.6030 C   0  0  0  0  0  0  0  0  0  0  0  0
    5.9180  -12.6730   -4.5800 C   0  0  0  0  0  0  0  0  0  0  0  0
    6.8730  -13.6490   -4.2800 C   0  0  0  0  0  0  0  0  0  0  0  0
    7.2740  -14.6240   -5.3150 C   0  0  0  0  0  0  0  0  0  0  0  0
    7.0460  -14.3430   -6.6150 C   0  0  0  0  0  0  0  0  0  0  0  0
    7.4210  -15.2780   -7.5550 N   0  0  0  0  0  0  0  0  0  0  0  0
    7.3330  -15.3010   -8.9200 C   0  0  0  0  0  0  0  0  0  0  0  0
    7.8820  -16.5110   -9.2940 C   0  0  0  0  0  0  0  0  0  0  0  0
    8.3010  -17.2290   -8.1970 N   0  0  0  0  0  0  0  0  0  0  0  0
    8.0050  -16.4540   -7.1740 C   0  0  0  0  0  0  0  0  0  0  0  0
    8.2220  -16.7130   -5.7620 C   0  0  0  0  0  0  0  0  0  0  0  0
    8.8020  -17.8880   -5.3540 N   0  0  0  0  0  0  0  0  0  0  0  0
    9.0520  -18.2330   -3.9810 C   0  0  0  0  0  0  0  0  0  0  0  0
   10.4650  -17.8610   -3.6160 C   0  0  0  0  0  0  0  0  0  0  0  0
   10.7210  -16.9090   -2.6250 C   0  0  0  0  0  0  0  0  0  0  0  0
   12.0370  -16.6190   -2.3070 C   0  0  0  0  0  0  0  0  0  0  0  0
   13.1000  -17.2100   -2.8940 N   0  0  0  0  0  0  0  0  0  0  0  0
   12.8330  -18.1380   -3.8360 C   0  0  0  0  0  0  0  0  0  0  0  0
   11.5520  -18.4970   -4.2250 C   0  0  0  0  0  0  0  0  0  0  0  0
    7.8560  -15.8100   -4.8790 N   0  0  0  0  0  0  0  0  0  0  0  0
    7.3940  -13.7070   -2.9740 C   0  0  0  0  0  0  0  0  0  0  0  0
   12.8807  -10.8245    0.8631 H   0  0  0  0  0  0  0  0  0  0  0  0
   13.2934  -12.3233   -0.0370 H   0  0  0  0  0  0  0  0  0  0  0  0
   14.4314  -10.9334   -0.0370 H   0  0  0  0  0  0  0  0  0  0  0  0
   14.8872  -11.1631   -2.6631 H   0  0  0  0  0  0  0  0  0  0  0  0
   15.0280  -12.8292   -4.5146 H   0  0  0  0  0  0  0  0  0  0  0  0
   10.8954  -13.9373   -3.8289 H   0  0  0  0  0  0  0  0  0  0  0  0
    9.9750  -11.3610   -2.0270 H   0  0  0  0  0  0  0  0  0  0  0  0
    8.7248  -12.4967    0.9240 H   0  0  0  0  0  0  0  0  0  0  0  0
    8.6733  -11.2965   -0.4537 H   0  0  0  0  0  0  0  0  0  0  0  0
    7.0630  -13.7010   -0.1140 H   0  0  0  0  0  0  0  0  0  0  0  0
    5.6983  -11.1297   -1.5476 H   0  0  0  0  0  0  0  0  0  0  0  0
    4.7626  -10.9989   -3.8473 H   0  0  0  0  0  0  0  0  0  0  0  0
    5.4899  -12.6178   -5.5918 H   0  0  0  0  0  0  0  0  0  0  0  0
    6.5747  -13.3955   -6.9154 H   0  0  0  0  0  0  0  0  0  0  0  0
    6.9154  -14.5239   -9.5770 H   0  0  0  0  0  0  0  0  0  0  0  0
    7.9729  -16.8567  -10.3343 H   0  0  0  0  0  0  0  0  0  0  0  0
    9.0590  -18.5500   -6.0800 H   0  0  0  0  0  0  0  0  0  0  0  0
    8.3506  -17.6872   -3.3328 H   0  0  0  0  0  0  0  0  0  0  0  0
    8.9125  -19.3156   -3.8451 H   0  0  0  0  0  0  0  0  0  0  0  0
    9.8937  -16.4005   -2.1083 H   0  0  0  0  0  0  0  0  0  0  0  0
   12.2278  -15.8631   -1.5310 H   0  0  0  0  0  0  0  0  0  0  0  0
   13.6818  -18.6393   -4.3241 H   0  0  0  0  0  0  0  0  0  0  0  0
   11.3935  -19.2654   -4.9960 H   0  0  0  0  0  0  0  0  0  0  0  0
    8.1376  -14.4800   -2.7299 H   0  0  0  0  0  0  0  0  0  0  0  0
  1  2  1  0
  2  3  1  0
  3  4  2  0
  4  5  1  0
  5  6  2  0
  6  7  1  0
  7  8  1  0
  7  9  1  0
  7 10  1  0
  6 11  1  0
 11 12  2  0
 12 13  1  0
 13 14  1  0
 14 15  2  0
 14 16  1  0
 16 17  1  0
 17 18  1  0
 18 19  2  0
 19 20  1  0
 20 21  2  0
 21 22  1  0
 22 23  1  0
 23 24  2  0
 24 25  1  0
 25 26  1  0
 26 27  2  0
 27 28  1  0
 28 29  2  0
 29 30  1  0
 30 31  1  0
 31 32  1  0
 32 33  1  0
 33 34  2  0
 34 35  1  0
 35 36  2  0
 36 37  1  0
 37 38  2  0
 30 39  2  0
 22 40  2  0
 12  3  1  0
 40 18  1  0
 39 23  1  0
 29 25  1  0
 38 33  1  0
  1 41  1  0
  1 42  1  0
  1 43  1  0
  4 44  1  0
  5 45  1  0
 11 46  1  0
 13 47  1  0
 16 48  1  0
 16 49  1  0
 17 50  1  0
 19 51  1  0
 20 52  1  0
 21 53  1  0
 24 54  1  0
 26 55  1  0
 27 56  1  0
 31 57  1  0
 32 58  1  0
 32 59  1  0
 34 60  1  0
 35 61  1  0
 37 62  1  0
 38 63  1  0
 40 64  1  0
M  END
>  <meeko>  (6) 
{"is_sidechain": [false], "free_energy": -8.01, "intermolecular_energy": -11.453, "internal_energy": -3.204}

$$$$
LIB_YZZJLDVCVPYUMF__M_PUB_ALL__e8__s20260927
     RDKit          3D

 64 68  0  0  0  0  0  0  0  0999 V2000
    5.3270  -15.8430   -0.4430 C   0  0  0  0  0  0  0  0  0  0  0  0
    6.1130  -14.6990   -0.7840 O   0  0  0  0  0  0  0  0  0  0  0  0
    5.4720  -13.9350   -1.7300 C   0  0  0  0  0  0  0  0  0  0  0  0
    4.4980  -14.5100   -2.5450 C   0  0  0  0  0  0  0  0  0  0  0  0
    3.8300  -13.7200   -3.4820 C   0  0  0  0  0  0  0  0  0  0  0  0
    4.1260  -12.3520   -3.5980 C   0  0  0  0  0  0  0  0  0  0  0  0
    3.3990  -11.4840   -4.5960 C   0  0  0  0  0  0  0  0  0  0  0  0
    3.2520  -10.1940   -4.1800 F   0  0  0  0  0  0  0  0  0  0  0  0
    2.1400  -11.9270   -4.8680 F   0  0  0  0  0  0  0  0  0  0  0  0
    4.0430  -11.4160   -5.7930 F   0  0  0  0  0  0  0  0  0  0  0  0
    5.0910  -11.7810   -2.7480 C   0  0  0  0  0  0  0  0  0  0  0  0
    5.7620  -12.5630   -1.8070 C   0  0  0  0  0  0  0  0  0  0  0  0
    6.7320  -12.0640   -0.9220 N   0  0  0  0  0  0  0  0  0  0  0  0
    6.6120  -11.7130    0.4060 C   0  0  0  0  0  0  0  0  0  0  0  0
    5.5940  -11.8050    1.0890 O   0  0  0  0  0  0  0  0  0  0  0  0
    7.9260  -11.2010    1.0170 C   0  0  0  0  0  0  0  0  0  0  0  0
    8.9920  -12.2110    1.0540 N   0  0  0  0  0  0  0  0  0  0  0  0
   10.2070  -12.1070    0.4010 C   0  0  0  0  0  0  0  0  0  0  0  0
   11.2850  -11.3640    0.8910 C   0  0  0  0  0  0  0  0  0  0  0  0
   12.4600  -11.2150    0.1480 C   0  0  0  0  0  0  0  0  0  0  0  0
   12.5710  -11.8030   -1.1080 C   0  0  0  0  0  0  0  0  0  0  0  0
   11.5150  -12.5550   -1.6290 C   0  0  0  0  0  0  0  0  0  0  0  0
   11.6310  -13.1440   -2.9800 C   0  0  0  0  0  0  0  0  0  0  0  0
   12.8530  -13.4040   -3.4880 C   0  0  0  0  0  0  0  0  0  0  0  0
   12.9280  -13.9420   -4.7540 N   0  0  0  0  0  0  0  0  0  0  0  0
   13.9860  -14.3140   -5.5380 C   0  0  0  0  0  0  0  0  0  0  0  0
   13.4180  -14.7870   -6.7030 C   0  0  0  0  0  0  0  0  0  0  0  0
   12.0450  -14.7130   -6.6560 N   0  0  0  0  0  0  0  0  0  0  0  0
   11.7930  -14.1990   -5.4690 C   0  0  0  0  0  0  0  0  0  0  0  0
   10.5000  -13.8940   -4.8830 C   0  0  0  0  0  0  0  0  0  0  0  0
    9.3450  -14.1380   -5.5830 N   0  0  0  0  0  0  0  0  0  0  0  0
    8.0240  -13.8650   -5.0870 C   0  0  0  0  0  0  0  0  0  0  0  0
    7.3000  -15.1620   -4.8370 C   0  0  0  0  0  0  0  0  0  0  0  0
    7.6600  -15.9870   -3.7680 C   0  0  0  0  0  0  0  0  0  0  0  0
    6.9480  -17.1580   -3.5630 C   0  0  0  0  0  0  0  0  0  0  0  0
    5.9120  -17.5510   -4.3350 N   0  0  0  0  0  0  0  0  0  0  0  0
    5.5700  -16.7340   -5.3520 C   0  0  0  0  0  0  0  0  0  0  0  0
    6.2200  -15.5430   -5.6380 C   0  0  0  0  0  0  0  0  0  0  0  0
   10.4480  -13.3790   -3.6740 N   0  0  0  0  0  0  0  0  0  0  0  0
   10.3400  -12.6920   -0.8670 C   0  0  0  0  0  0  0  0  0  0  0  0
    5.2655  -15.9325    0.6516 H   0  0  0  0  0  0  0  0  0  0  0  0
    4.3150  -15.7298   -0.8591 H   0  0  0  0  0  0  0  0  0  0  0  0
    5.7956  -16.7471   -0.8591 H   0  0  0  0  0  0  0  0  0  0  0  0
    4.2575  -15.5792   -2.4503 H   0  0  0  0  0  0  0  0  0  0  0  0
    3.0672  -14.1715   -4.1334 H   0  0  0  0  0  0  0  0  0  0  0  0
    5.3187  -10.7077   -2.8260 H   0  0  0  0  0  0  0  0  0  0  0  0
    7.6510  -11.8920   -1.3300 H   0  0  0  0  0  0  0  0  0  0  0  0
    8.2773  -10.3468    0.4196 H   0  0  0  0  0  0  0  0  0  0  0  0
    7.7096  -10.9231    2.0591 H   0  0  0  0  0  0  0  0  0  0  0  0
    8.8740  -12.9620    1.7260 H   0  0  0  0  0  0  0  0  0  0  0  0
   11.2074  -10.8877    1.8795 H   0  0  0  0  0  0  0  0  0  0  0  0
   13.2981  -10.6318    0.5572 H   0  0  0  0  0  0  0  0  0  0  0  0
   13.4937  -11.6754   -1.6931 H   0  0  0  0  0  0  0  0  0  0  0  0
   13.7635  -13.1926   -2.9082 H   0  0  0  0  0  0  0  0  0  0  0  0
   15.0564  -14.2499   -5.2928 H   0  0  0  0  0  0  0  0  0  0  0  0
   13.9896  -15.1737   -7.5596 H   0  0  0  0  0  0  0  0  0  0  0  0
    9.4470  -14.5320   -6.5140 H   0  0  0  0  0  0  0  0  0  0  0  0
    8.0958  -13.2987   -4.1467 H   0  0  0  0  0  0  0  0  0  0  0  0
    7.4693  -13.2745   -5.8310 H   0  0  0  0  0  0  0  0  0  0  0  0
    8.4918  -15.7123   -3.1027 H   0  0  0  0  0  0  0  0  0  0  0  0
    7.2436  -17.8044   -2.7235 H   0  0  0  0  0  0  0  0  0  0  0  0
    4.7258  -17.0298   -5.9922 H   0  0  0  0  0  0  0  0  0  0  0  0
    5.8926  -14.9117   -6.4772 H   0  0  0  0  0  0  0  0  0  0  0  0
    9.5019  -13.2744   -1.2773 H   0  0  0  0  0  0  0  0  0  0  0  0
  1  2  1  0
  2  3  1  0
  3  4  2  0
  4  5  1  0
  5  6  2  0
  6  7  1  0
  7  8  1  0
  7  9  1  0
  7 10  1  0
  6 11  1  0
 11 12  2  0
 12 13  1  0
 13 14  1  0
 14 15  2  0
 14 16  1  0
 16 17  1  0
 17 18  1  0
 18 19  2  0
 19 20  1  0
 20 21  2  0
 21 22  1  0
 22 23  1  0
 23 24  2  0
 24 25  1  0
 25 26  1  0
 26 27  2  0
 27 28  1  0
 28 29  2  0
 29 30  1  0
 30 31  1  0
 31 32  1  0
 32 33  1  0
 33 34  2  0
 34 35  1  0
 35 36  2  0
 36 37  1  0
 37 38  2  0
 30 39  2  0
 22 40  2  0
 12  3  1  0
 40 18  1  0
 39 23  1  0
 29 25  1  0
 38 33  1  0
  1 41  1  0
  1 42  1  0
  1 43  1  0
  4 44  1  0
  5 45  1  0
 11 46  1  0
 13 47  1  0
 16 48  1  0
 16 49  1  0
 17 50  1  0
 19 51  1  0
 20 52  1  0
 21 53  1  0
 24 54  1  0
 26 55  1  0
 27 56  1  0
 31 57  1  0
 32 58  1  0
 32 59  1  0
 34 60  1  0
 35 61  1  0
 37 62  1  0
 38 63  1  0
 40 64  1  0
M  END
>  <meeko>  (7) 
{"is_sidechain": [false], "free_energy": -7.993, "intermolecular_energy": -11.715, "internal_energy": -2.915}

$$$$
LIB_YZZJLDVCVPYUMF__M_PUB_ALL__e8__s20260927
     RDKit          3D

 64 68  0  0  0  0  0  0  0  0999 V2000
   13.3700  -10.1730    0.2380 C   0  0  0  0  0  0  0  0  0  0  0  0
   13.2460  -11.5970    0.2870 O   0  0  0  0  0  0  0  0  0  0  0  0
   11.9310  -11.9730    0.1410 C   0  0  0  0  0  0  0  0  0  0  0  0
   10.9860  -11.5810    1.0880 C   0  0  0  0  0  0  0  0  0  0  0  0
    9.6490  -11.9410    0.9160 C   0  0  0  0  0  0  0  0  0  0  0  0
    9.2520  -12.6850   -0.2070 C   0  0  0  0  0  0  0  0  0  0  0  0
    7.8070  -13.0670   -0.4130 C   0  0  0  0  0  0  0  0  0  0  0  0
    7.4280  -14.1550    0.3170 F   0  0  0  0  0  0  0  0  0  0  0  0
    7.5180  -13.3750   -1.7070 F   0  0  0  0  0  0  0  0  0  0  0  0
    6.9500  -12.0700   -0.0610 F   0  0  0  0  0  0  0  0  0  0  0  0
   10.2140  -13.0490   -1.1680 C   0  0  0  0  0  0  0  0  0  0  0  0
   11.5530  -12.6900   -1.0050 C   0  0  0  0  0  0  0  0  0  0  0  0
   12.5660  -13.0120   -1.9220 N   0  0  0  0  0  0  0  0  0  0  0  0
   12.8920  -12.4080   -3.1180 C   0  0  0  0  0  0  0  0  0  0  0  0
   12.3450  -11.4200   -3.6030 O   0  0  0  0  0  0  0  0  0  0  0  0
   14.0810  -13.0770   -3.8300 C   0  0  0  0  0  0  0  0  0  0  0  0
   13.7500  -14.3730   -4.4370 N   0  0  0  0  0  0  0  0  0  0  0  0
   13.7160  -14.6260   -5.7970 C   0  0  0  0  0  0  0  0  0  0  0  0
   14.7970  -15.1490   -6.5120 C   0  0  0  0  0  0  0  0  0  0  0  0
   14.7430  -15.3000   -7.9010 C   0  0  0  0  0  0  0  0  0  0  0  0
   13.6030  -14.9180   -8.6010 C   0  0  0  0  0  0  0  0  0  0  0  0
   12.5010  -14.3940   -7.9190 C   0  0  0  0  0  0  0  0  0  0  0  0
   11.3090  -13.9580   -8.6780 C   0  0  0  0  0  0  0  0  0  0  0  0
   11.4680  -13.3530   -9.8730 C   0  0  0  0  0  0  0  0  0  0  0  0
   10.3380  -12.9490  -10.5500 N   0  0  0  0  0  0  0  0  0  0  0  0
   10.1570  -12.3240  -11.7530 C   0  0  0  0  0  0  0  0  0  0  0  0
    8.7900  -12.1890  -11.8840 C   0  0  0  0  0  0  0  0  0  0  0  0
    8.1300  -12.7110  -10.7950 N   0  0  0  0  0  0  0  0  0  0  0  0
    9.0970  -13.1560  -10.0180 C   0  0  0  0  0  0  0  0  0  0  0  0
    8.9780  -13.8040   -8.7240 C   0  0  0  0  0  0  0  0  0  0  0  0
    7.7420  -14.0180   -8.1670 N   0  0  0  0  0  0  0  0  0  0  0  0
    7.5270  -14.6460   -6.8920 C   0  0  0  0  0  0  0  0  0  0  0  0
    6.2170  -14.1780   -6.3130 C   0  0  0  0  0  0  0  0  0  0  0  0
    5.6040  -14.8810   -5.2720 C   0  0  0  0  0  0  0  0  0  0  0  0
    4.4130  -14.3960   -4.7540 C   0  0  0  0  0  0  0  0  0  0  0  0
    3.8060  -13.2720   -5.1930 N   0  0  0  0  0  0  0  0  0  0  0  0
    4.4220  -12.6000   -6.1880 C   0  0  0  0  0  0  0  0  0  0  0  0
    5.6130  -13.0030   -6.7700 C   0  0  0  0  0  0  0  0  0  0  0  0
   10.0670  -14.1810   -8.0920 N   0  0  0  0  0  0  0  0  0  0  0  0
   12.5750  -14.2480   -6.5220 C   0  0  0  0  0  0  0  0  0  0  0  0
   13.4049   -9.7725    1.2619 H   0  0  0  0  0  0  0  0  0  0  0  0
   14.2950   -9.9035   -0.2928 H   0  0  0  0  0  0  0  0  0  0  0  0
   12.5055   -9.7477   -0.2928 H   0  0  0  0  0  0  0  0  0  0  0  0
   11.2924  -10.9918    1.9649 H   0  0  0  0  0  0  0  0  0  0  0  0
    8.9013  -11.6402    1.6646 H   0  0  0  0  0  0  0  0  0  0  0  0
    9.9077  -13.6217   -2.0558 H   0  0  0  0  0  0  0  0  0  0  0  0
   13.1170  -13.8400   -1.6950 H   0  0  0  0  0  0  0  0  0  0  0  0
   14.4358  -12.4022   -4.6229 H   0  0  0  0  0  0  0  0  0  0  0  0
   14.8495  -13.2658   -3.0660 H   0  0  0  0  0  0  0  0  0  0  0  0
   13.6890  -15.1620   -3.8030 H   0  0  0  0  0  0  0  0  0  0  0  0
   15.7075  -15.4475   -5.9718 H   0  0  0  0  0  0  0  0  0  0  0  0
   15.6034  -15.7216   -8.4413 H   0  0  0  0  0  0  0  0  0  0  0  0
   13.5687  -15.0287   -9.6949 H   0  0  0  0  0  0  0  0  0  0  0  0
   12.4703  -13.1870  -10.2947 H   0  0  0  0  0  0  0  0  0  0  0  0
   10.9327  -11.9994  -12.4621 H   0  0  0  0  0  0  0  0  0  0  0  0
    8.2920  -11.7241  -12.7476 H   0  0  0  0  0  0  0  0  0  0  0  0
    6.9370  -13.7010   -8.6990 H   0  0  0  0  0  0  0  0  0  0  0  0
    7.5008  -15.7380   -7.0215 H   0  0  0  0  0  0  0  0  0  0  0  0
    8.3458  -14.3759   -6.2089 H   0  0  0  0  0  0  0  0  0  0  0  0
    6.0572  -15.8000   -4.8720 H   0  0  0  0  0  0  0  0  0  0  0  0
    3.9349  -14.9588   -3.9387 H   0  0  0  0  0  0  0  0  0  0  0  0
    3.9507  -11.6779   -6.5589 H   0  0  0  0  0  0  0  0  0  0  0  0
    6.0735  -12.4110   -7.5746 H   0  0  0  0  0  0  0  0  0  0  0  0
   11.7145  -13.8257   -5.9824 H   0  0  0  0  0  0  0  0  0  0  0  0
  1  2  1  0
  2  3  1  0
  3  4  2  0
  4  5  1  0
  5  6  2  0
  6  7  1  0
  7  8  1  0
  7  9  1  0
  7 10  1  0
  6 11  1  0
 11 12  2  0
 12 13  1  0
 13 14  1  0
 14 15  2  0
 14 16  1  0
 16 17  1  0
 17 18  1  0
 18 19  2  0
 19 20  1  0
 20 21  2  0
 21 22  1  0
 22 23  1  0
 23 24  2  0
 24 25  1  0
 25 26  1  0
 26 27  2  0
 27 28  1  0
 28 29  2  0
 29 30  1  0
 30 31  1  0
 31 32  1  0
 32 33  1  0
 33 34  2  0
 34 35  1  0
 35 36  2  0
 36 37  1  0
 37 38  2  0
 30 39  2  0
 22 40  2  0
 12  3  1  0
 40 18  1  0
 39 23  1  0
 29 25  1  0
 38 33  1  0
  1 41  1  0
  1 42  1  0
  1 43  1  0
  4 44  1  0
  5 45  1  0
 11 46  1  0
 13 47  1  0
 16 48  1  0
 16 49  1  0
 17 50  1  0
 19 51  1  0
 20 52  1  0
 21 53  1  0
 24 54  1  0
 26 55  1  0
 27 56  1  0
 31 57  1  0
 32 58  1  0
 32 59  1  0
 34 60  1  0
 35 61  1  0
 37 62  1  0
 38 63  1  0
 40 64  1  0
M  END
>  <meeko>  (8) 
{"is_sidechain": [false], "free_energy": -7.992, "intermolecular_energy": -12.967, "internal_energy": -1.662}

$$$$
LIB_YZZJLDVCVPYUMF__M_PUB_ALL__e8__s20260927
     RDKit          3D

 64 68  0  0  0  0  0  0  0  0999 V2000
   10.8790  -11.8310    0.9310 C   0  0  0  0  0  0  0  0  0  0  0  0
   10.2110  -12.1340   -0.2960 O   0  0  0  0  0  0  0  0  0  0  0  0
   10.4330  -13.4410   -0.6590 C   0  0  0  0  0  0  0  0  0  0  0  0
   11.7190  -13.9750   -0.5860 C   0  0  0  0  0  0  0  0  0  0  0  0
   11.9310  -15.3110   -0.9260 C   0  0  0  0  0  0  0  0  0  0  0  0
   10.8560  -16.1200   -1.3310 C   0  0  0  0  0  0  0  0  0  0  0  0
   11.0690  -17.5720   -1.6860 C   0  0  0  0  0  0  0  0  0  0  0  0
   10.1730  -18.0380   -2.6020 F   0  0  0  0  0  0  0  0  0  0  0  0
   10.9620  -18.4020   -0.6120 F   0  0  0  0  0  0  0  0  0  0  0  0
   12.2990  -17.8020   -2.2210 F   0  0  0  0  0  0  0  0  0  0  0  0
    9.5600  -15.5740   -1.3720 C   0  0  0  0  0  0  0  0  0  0  0  0
    9.3390  -14.2390   -1.0310 C   0  0  0  0  0  0  0  0  0  0  0  0
    8.0750  -13.6270   -1.0420 N   0  0  0  0  0  0  0  0  0  0  0  0
    7.0670  -13.6750   -0.1030 C   0  0  0  0  0  0  0  0  0  0  0  0
    7.1080  -14.2690    0.9720 O   0  0  0  0  0  0  0  0  0  0  0  0
    5.8270  -12.8580   -0.5040 C   0  0  0  0  0  0  0  0  0  0  0  0
    6.0830  -11.8890   -1.5780 N   0  0  0  0  0  0  0  0  0  0  0  0
    5.4870  -11.9130   -2.8260 C   0  0  0  0  0  0  0  0  0  0  0  0
    4.1890  -11.4530   -3.0710 C   0  0  0  0  0  0  0  0  0  0  0  0
    3.5990  -11.5840   -4.3320 C   0  0  0  0  0  0  0  0  0  0  0  0
    4.2990  -12.1900   -5.3710 C   0  0  0  0  0  0  0  0  0  0  0  0
    5.5990  -12.6600   -5.1640 C   0  0  0  0  0  0  0  0  0  0  0  0
    6.3180  -13.3340   -6.2650 C   0  0  0  0  0  0  0  0  0  0  0  0
    5.9610  -13.0850   -7.5420 C   0  0  0  0  0  0  0  0  0  0  0  0
    6.6430  -13.7390   -8.5450 N   0  0  0  0  0  0  0  0  0  0  0  0
    6.5310  -13.7100   -9.9080 C   0  0  0  0  0  0  0  0  0  0  0  0
    7.4970  -14.5830  -10.3650 C   0  0  0  0  0  0  0  0  0  0  0  0
    8.1940  -15.1470   -9.3220 N   0  0  0  0  0  0  0  0  0  0  0  0
    7.6490  -14.6140   -8.2470 C   0  0  0  0  0  0  0  0  0  0  0  0
    7.9920  -14.8560   -6.8560 C   0  0  0  0  0  0  0  0  0  0  0  0
    8.9950  -15.7340   -6.5310 N   0  0  0  0  0  0  0  0  0  0  0  0
    9.4000  -16.0380   -5.1860 C   0  0  0  0  0  0  0  0  0  0  0  0
   10.7220  -15.3770   -4.8950 C   0  0  0  0  0  0  0  0  0  0  0  0
   11.9190  -16.0870   -5.0230 C   0  0  0  0  0  0  0  0  0  0  0  0
   13.1120  -15.4280   -4.7690 C   0  0  0  0  0  0  0  0  0  0  0  0
   13.1900  -14.1290   -4.4100 N   0  0  0  0  0  0  0  0  0  0  0  0
   12.0240  -13.4570   -4.3070 C   0  0  0  0  0  0  0  0  0  0  0  0
   10.7820  -14.0260   -4.5400 C   0  0  0  0  0  0  0  0  0  0  0  0
    7.3290  -14.2240   -5.9130 N   0  0  0  0  0  0  0  0  0  0  0  0
    6.1750  -12.5200   -3.8880 C   0  0  0  0  0  0  0  0  0  0  0  0
   10.2397  -12.1210    1.7779 H   0  0  0  0  0  0  0  0  0  0  0  0
   11.8267  -12.3874    0.9796 H   0  0  0  0  0  0  0  0  0  0  0  0
   11.0847  -10.7515    0.9796 H   0  0  0  0  0  0  0  0  0  0  0  0
   12.5615  -13.3462   -0.2621 H   0  0  0  0  0  0  0  0  0  0  0  0
   12.9454  -15.7336   -0.8768 H   0  0  0  0  0  0  0  0  0  0  0  0
    8.7124  -16.2058   -1.6759 H   0  0  0  0  0  0  0  0  0  0  0  0
    7.8490  -13.1030   -1.8880 H   0  0  0  0  0  0  0  0  0  0  0  0
    5.0463  -13.5548   -0.8431 H   0  0  0  0  0  0  0  0  0  0  0  0
    5.5190  -12.2835    0.3820 H   0  0  0  0  0  0  0  0  0  0  0  0
    6.6220  -11.0690   -1.3220 H   0  0  0  0  0  0  0  0  0  0  0  0
    3.6216  -10.9793   -2.2564 H   0  0  0  0  0  0  0  0  0  0  0  0
    2.5797  -11.2074   -4.5030 H   0  0  0  0  0  0  0  0  0  0  0  0
    3.8275  -12.2995   -6.3588 H   0  0  0  0  0  0  0  0  0  0  0  0
    5.1492  -12.3805   -7.7757 H   0  0  0  0  0  0  0  0  0  0  0  0
    5.8243  -13.1191  -10.5092 H   0  0  0  0  0  0  0  0  0  0  0  0
    7.6854  -14.7999  -11.4268 H   0  0  0  0  0  0  0  0  0  0  0  0
    9.4680  -16.1960   -7.3020 H   0  0  0  0  0  0  0  0  0  0  0  0
    8.6414  -15.6651   -4.4821 H   0  0  0  0  0  0  0  0  0  0  0  0
    9.5033  -17.1273   -5.0729 H   0  0  0  0  0  0  0  0  0  0  0  0
   11.9146  -17.1464   -5.3190 H   0  0  0  0  0  0  0  0  0  0  0  0
   14.0489  -15.9963   -4.8655 H   0  0  0  0  0  0  0  0  0  0  0  0
   12.0618  -12.3954   -4.0214 H   0  0  0  0  0  0  0  0  0  0  0  0
    9.8635  -13.4278   -4.4477 H   0  0  0  0  0  0  0  0  0  0  0  0
    7.1942  -12.8973   -3.7178 H   0  0  0  0  0  0  0  0  0  0  0  0
  1  2  1  0
  2  3  1  0
  3  4  2  0
  4  5  1  0
  5  6  2  0
  6  7  1  0
  7  8  1  0
  7  9  1  0
  7 10  1  0
  6 11  1  0
 11 12  2  0
 12 13  1  0
 13 14  1  0
 14 15  2  0
 14 16  1  0
 16 17  1  0
 17 18  1  0
 18 19  2  0
 19 20  1  0
 20 21  2  0
 21 22  1  0
 22 23  1  0
 23 24  2  0
 24 25  1  0
 25 26  1  0
 26 27  2  0
 27 28  1  0
 28 29  2  0
 29 30  1  0
 30 31  1  0
 31 32  1  0
 32 33  1  0
 33 34  2  0
 34 35  1  0
 35 36  2  0
 36 37  1  0
 37 38  2  0
 30 39  2  0
 22 40  2  0
 12  3  1  0
 40 18  1  0
 39 23  1  0
 29 25  1  0
 38 33  1  0
  1 41  1  0
  1 42  1  0
  1 43  1  0
  4 44  1  0
  5 45  1  0
 11 46  1  0
 13 47  1  0
 16 48  1  0
 16 49  1  0
 17 50  1  0
 19 51  1  0
 20 52  1  0
 21 53  1  0
 24 54  1  0
 26 55  1  0
 27 56  1  0
 31 57  1  0
 32 58  1  0
 32 59  1  0
 34 60  1  0
 35 61  1  0
 37 62  1  0
 38 63  1  0
 40 64  1  0
M  END
>  <meeko>  (9) 
{"is_sidechain": [false], "free_energy": -7.779, "intermolecular_energy": -10.769, "internal_energy": -3.535}

$$$$
