LIB_KGSCYSGAMAZIIM__M_PUB_ALL__e8__s20260927
     RDKit          3D

 30 32  0  0  0  0  0  0  0  0999 V2000
   14.0780   -8.7330   14.9110 O   0  0  0  0  0  0  0  0  0  0  0  0
   13.6920   -8.5940   13.5170 S   0  0  0  0  0  0  0  0  0  0  0  0
   12.5500   -7.7720   13.1560 O   0  0  0  0  0  0  0  0  0  0  0  0
   13.3390  -10.2530   12.9620 C   0  0  0  0  0  0  0  0  0  0  0  0
   14.0810  -10.8060   11.9130 C   0  0  0  0  0  0  0  0  0  0  0  0
   13.7870  -12.0960   11.4700 C   0  0  0  0  0  0  0  0  0  0  0  0
   12.7600  -12.8210   12.0770 C   0  0  0  0  0  0  0  0  0  0  0  0
   12.3670  -14.5720   11.4810 Br  0  0  0  0  0  0  0  0  0  0  0  0
   12.0190  -12.2670   13.1230 C   0  0  0  0  0  0  0  0  0  0  0  0
   12.3050  -10.9750   13.5670 C   0  0  0  0  0  0  0  0  0  0  0  0
   15.0790   -8.0100   12.5850 C   0  0  0  0  0  0  0  0  0  0  0  0
   14.9120   -6.9780   11.6580 C   0  0  0  0  0  0  0  0  0  0  0  0
   16.0340   -6.4540   11.0130 C   0  0  0  0  0  0  0  0  0  0  0  0
   17.3100   -6.9590   11.2930 C   0  0  0  0  0  0  0  0  0  0  0  0
   18.5280   -6.3910   10.6800 C   0  0  0  0  0  0  0  0  0  0  0  0
   19.0960   -6.8640    9.6190 N   0  0  0  0  0  0  0  0  0  0  0  0
   20.1710   -6.0670    9.4140 N   0  0  0  0  0  0  0  0  0  0  0  0
   20.1630   -5.1590   10.3940 C   0  0  0  0  0  0  0  0  0  0  0  0
   21.3100   -3.9410   10.5810 S   0  0  0  0  0  0  0  0  0  0  0  0
   19.1300   -5.3360   11.2130 N   0  0  0  0  0  0  0  0  0  0  0  0
   17.4550   -8.0170   12.2010 C   0  0  0  0  0  0  0  0  0  0  0  0
   16.3420   -8.5490   12.8490 C   0  0  0  0  0  0  0  0  0  0  0  0
   14.8897  -10.2286   11.4412 H   0  0  0  0  0  0  0  0  0  0  0  0
   14.3628  -12.5405   10.6448 H   0  0  0  0  0  0  0  0  0  0  0  0
   11.2125  -12.8470   13.5955 H   0  0  0  0  0  0  0  0  0  0  0  0
   11.7221  -10.5283   14.3859 H   0  0  0  0  0  0  0  0  0  0  0  0
   13.9089   -6.5832   11.4390 H   0  0  0  0  0  0  0  0  0  0  0  0
   15.9153   -5.6409   10.2817 H   0  0  0  0  0  0  0  0  0  0  0  0
   18.4542   -8.4301   12.4034 H   0  0  0  0  0  0  0  0  0  0  0  0
   16.4554   -9.3818   13.5587 H   0  0  0  0  0  0  0  0  0  0  0  0
  1  2  2  0
  2  3  2  0
  2  4  1  0
  4  5  2  0
  5  6  1  0
  6  7  2  0
  7  8  1  0
  7  9  1  0
  9 10  2  0
  2 11  1  0
 11 12  2  0
 12 13  1  0
 13 14  2  0
 14 15  1  0
 15 16  2  0
 16 17  1  0
 17 18  1  0
 18 19  2  0
 18 20  1  0
 14 21  1  0
 21 22  2  0
 10  4  1  0
 22 11  1  0
 20 15  1  0
  5 23  1  0
  6 24  1  0
  9 25  1  0
 10 26  1  0
 12 27  1  0
 13 28  1  0
 21 29  1  0
 22 30  1  0
M  CHG  2  17  -1  20  -1
M  END
>  <meeko>  (1) 
{"is_sidechain": [false], "free_energy": -7.075, "intermolecular_energy": -8.315, "internal_energy": -0.405}

$$$$
LIB_KGSCYSGAMAZIIM__M_PUB_ALL__e8__s20260927
     RDKit          3D

 30 32  0  0  0  0  0  0  0  0999 V2000
  -14.3200  -15.1480   -7.9150 O   0  0  0  0  0  0  0  0  0  0  0  0
  -13.3290  -14.3530   -8.6180 S   0  0  0  0  0  0  0  0  0  0  0  0
  -13.3550  -14.2720  -10.0690 O   0  0  0  0  0  0  0  0  0  0  0  0
  -11.7540  -15.0590   -8.1630 C   0  0  0  0  0  0  0  0  0  0  0  0
  -11.6450  -15.8120   -6.9900 C   0  0  0  0  0  0  0  0  0  0  0  0
  -10.4060  -16.3450   -6.6290 C   0  0  0  0  0  0  0  0  0  0  0  0
   -9.2920  -16.1230   -7.4400 C   0  0  0  0  0  0  0  0  0  0  0  0
   -7.6160  -16.8510   -6.9540 Br  0  0  0  0  0  0  0  0  0  0  0  0
   -9.4020  -15.3690   -8.6110 C   0  0  0  0  0  0  0  0  0  0  0  0
  -10.6380  -14.8300   -8.9740 C   0  0  0  0  0  0  0  0  0  0  0  0
  -13.3640  -12.6970   -7.9950 C   0  0  0  0  0  0  0  0  0  0  0  0
  -12.1920  -12.1100   -7.5080 C   0  0  0  0  0  0  0  0  0  0  0  0
  -12.2120  -10.7680   -7.1250 C   0  0  0  0  0  0  0  0  0  0  0  0
  -13.3920  -10.0210   -7.2280 C   0  0  0  0  0  0  0  0  0  0  0  0
  -13.4400   -8.5830   -6.8920 C   0  0  0  0  0  0  0  0  0  0  0  0
  -13.0330   -7.6390   -7.6770 N   0  0  0  0  0  0  0  0  0  0  0  0
  -13.2400   -6.4950   -6.9840 N   0  0  0  0  0  0  0  0  0  0  0  0
  -13.7630   -6.8530   -5.8070 C   0  0  0  0  0  0  0  0  0  0  0  0
  -14.1910   -5.7800   -4.5830 S   0  0  0  0  0  0  0  0  0  0  0  0
  -13.9050   -8.1730   -5.7190 N   0  0  0  0  0  0  0  0  0  0  0  0
  -14.5660  -10.6350   -7.6870 C   0  0  0  0  0  0  0  0  0  0  0  0
  -14.5590  -11.9740   -8.0700 C   0  0  0  0  0  0  0  0  0  0  0  0
  -12.5280  -15.9831   -6.3568 H   0  0  0  0  0  0  0  0  0  0  0  0
  -10.3081  -16.9383   -5.7079 H   0  0  0  0  0  0  0  0  0  0  0  0
   -8.5186  -15.2006   -9.2444 H   0  0  0  0  0  0  0  0  0  0  0  0
  -10.7331  -14.2298   -9.8909 H   0  0  0  0  0  0  0  0  0  0  0  0
  -11.2661  -12.6984   -7.4278 H   0  0  0  0  0  0  0  0  0  0  0  0
  -11.2965  -10.2948   -6.7404 H   0  0  0  0  0  0  0  0  0  0  0  0
  -15.4990  -10.0551   -7.7450 H   0  0  0  0  0  0  0  0  0  0  0  0
  -15.4809  -12.4565   -8.4267 H   0  0  0  0  0  0  0  0  0  0  0  0
  1  2  2  0
  2  3  2  0
  2  4  1  0
  4  5  2  0
  5  6  1  0
  6  7  2  0
  7  8  1  0
  7  9  1  0
  9 10  2  0
  2 11  1  0
 11 12  2  0
 12 13  1  0
 13 14  2  0
 14 15  1  0
 15 16  2  0
 16 17  1  0
 17 18  1  0
 18 19  2  0
 18 20  1  0
 14 21  1  0
 21 22  2  0
 10  4  1  0
 22 11  1  0
 20 15  1  0
  5 23  1  0
  6 24  1  0
  9 25  1  0
 10 26  1  0
 12 27  1  0
 13 28  1  0
 21 29  1  0
 22 30  1  0
M  CHG  2  17  -1  20  -1
M  END
>  <meeko>  (2) 
{"is_sidechain": [false], "free_energy": -6.969, "intermolecular_energy": -8.108, "internal_energy": -0.488}

$$$$
LIB_KGSCYSGAMAZIIM__M_PUB_ALL__e8__s20260927
     RDKit          3D

 30 32  0  0  0  0  0  0  0  0999 V2000
   10.8410  -14.3470   14.2980 O   0  0  0  0  0  0  0  0  0  0  0  0
   11.7090  -14.4850   13.1410 S   0  0  0  0  0  0  0  0  0  0  0  0
   11.1940  -15.0520   11.9060 O   0  0  0  0  0  0  0  0  0  0  0  0
   13.0450  -15.5380   13.6820 C   0  0  0  0  0  0  0  0  0  0  0  0
   13.2410  -15.7630   15.0480 C   0  0  0  0  0  0  0  0  0  0  0  0
   14.2990  -16.5720   15.4650 C   0  0  0  0  0  0  0  0  0  0  0  0
   15.1480  -17.1480   14.5180 C   0  0  0  0  0  0  0  0  0  0  0  0
   16.5770  -18.2480   15.0850 Br  0  0  0  0  0  0  0  0  0  0  0  0
   14.9520  -16.9200   13.1540 C   0  0  0  0  0  0  0  0  0  0  0  0
   13.8980  -16.1090   12.7310 C   0  0  0  0  0  0  0  0  0  0  0  0
   12.4080  -12.9070   12.7480 C   0  0  0  0  0  0  0  0  0  0  0  0
   12.0400  -11.7780   13.4840 C   0  0  0  0  0  0  0  0  0  0  0  0
   12.6820  -10.5640   13.2350 C   0  0  0  0  0  0  0  0  0  0  0  0
   13.6820  -10.4810   12.2580 C   0  0  0  0  0  0  0  0  0  0  0  0
   14.4290   -9.2310   12.0080 C   0  0  0  0  0  0  0  0  0  0  0  0
   13.9700   -8.2350   11.3220 N   0  0  0  0  0  0  0  0  0  0  0  0
   14.9680   -7.3190   11.3280 N   0  0  0  0  0  0  0  0  0  0  0  0
   15.9710   -7.8540   12.0290 C   0  0  0  0  0  0  0  0  0  0  0  0
   17.4480   -7.1000   12.3170 S   0  0  0  0  0  0  0  0  0  0  0  0
   15.6590   -9.0680   12.4770 N   0  0  0  0  0  0  0  0  0  0  0  0
   14.0150  -11.6160   11.5060 C   0  0  0  0  0  0  0  0  0  0  0  0
   13.3780  -12.8320   11.7440 C   0  0  0  0  0  0  0  0  0  0  0  0
   12.5670  -15.3063   15.7877 H   0  0  0  0  0  0  0  0  0  0  0  0
   14.4636  -16.7554   16.5370 H   0  0  0  0  0  0  0  0  0  0  0  0
   15.6263  -17.3782   12.4155 H   0  0  0  0  0  0  0  0  0  0  0  0
   13.7391  -15.9202   11.6590 H   0  0  0  0  0  0  0  0  0  0  0  0
   11.2538  -11.8450   14.2504 H   0  0  0  0  0  0  0  0  0  0  0  0
   12.4013   -9.6684   13.8087 H   0  0  0  0  0  0  0  0  0  0  0  0
   14.7843  -11.5462   10.7228 H   0  0  0  0  0  0  0  0  0  0  0  0
   13.6349  -13.7213   11.1498 H   0  0  0  0  0  0  0  0  0  0  0  0
  1  2  2  0
  2  3  2  0
  2  4  1  0
  4  5  2  0
  5  6  1  0
  6  7  2  0
  7  8  1  0
  7  9  1  0
  9 10  2  0
  2 11  1  0
 11 12  2  0
 12 13  1  0
 13 14  2  0
 14 15  1  0
 15 16  2  0
 16 17  1  0
 17 18  1  0
 18 19  2  0
 18 20  1  0
 14 21  1  0
 21 22  2  0
 10  4  1  0
 22 11  1  0
 20 15  1  0
  5 23  1  0
  6 24  1  0
  9 25  1  0
 10 26  1  0
 12 27  1  0
 13 28  1  0
 21 29  1  0
 22 30  1  0
M  CHG  2  17  -1  20  -1
M  END
>  <meeko>  (3) 
{"is_sidechain": [false], "free_energy": -6.885, "intermolecular_energy": -8.026, "internal_energy": -0.471}

$$$$
LIB_KGSCYSGAMAZIIM__M_PUB_ALL__e8__s20260927
     RDKit          3D

 30 32  0  0  0  0  0  0  0  0999 V2000
    9.6740  -14.2180   -2.9130 O   0  0  0  0  0  0  0  0  0  0  0  0
   11.0040  -14.6640   -2.5340 S   0  0  0  0  0  0  0  0  0  0  0  0
   11.1680  -15.8430   -1.7010 O   0  0  0  0  0  0  0  0  0  0  0  0
   11.7220  -13.2920   -1.6450 C   0  0  0  0  0  0  0  0  0  0  0  0
   11.3880  -13.0840   -0.3040 C   0  0  0  0  0  0  0  0  0  0  0  0
   11.9370  -11.9980    0.3800 C   0  0  0  0  0  0  0  0  0  0  0  0
   12.8150  -11.1350   -0.2790 C   0  0  0  0  0  0  0  0  0  0  0  0
   13.5640   -9.6690    0.6500 Br  0  0  0  0  0  0  0  0  0  0  0  0
   13.1460  -11.3440   -1.6200 C   0  0  0  0  0  0  0  0  0  0  0  0
   12.5960  -12.4250   -2.3100 C   0  0  0  0  0  0  0  0  0  0  0  0
   11.9730  -14.9100   -3.9950 C   0  0  0  0  0  0  0  0  0  0  0  0
   11.5820  -14.3170   -5.1990 C   0  0  0  0  0  0  0  0  0  0  0  0
   12.4140  -14.4280   -6.3140 C   0  0  0  0  0  0  0  0  0  0  0  0
   13.6260  -15.1260   -6.2250 C   0  0  0  0  0  0  0  0  0  0  0  0
   14.5630  -15.2130   -7.3630 C   0  0  0  0  0  0  0  0  0  0  0  0
   15.8060  -15.5570   -7.2570 N   0  0  0  0  0  0  0  0  0  0  0  0
   16.2940  -15.4930   -8.5180 N   0  0  0  0  0  0  0  0  0  0  0  0
   15.2830  -15.1010   -9.2980 C   0  0  0  0  0  0  0  0  0  0  0  0
   15.3910  -14.8660  -10.9610 S   0  0  0  0  0  0  0  0  0  0  0  0
   14.1680  -14.9180   -8.5950 N   0  0  0  0  0  0  0  0  0  0  0  0
   13.9850  -15.7430   -5.0190 C   0  0  0  0  0  0  0  0  0  0  0  0
   13.1610  -15.6400   -3.9000 C   0  0  0  0  0  0  0  0  0  0  0  0
   10.6980  -13.7706    0.2084 H   0  0  0  0  0  0  0  0  0  0  0  0
   11.6788  -11.8226    1.4348 H   0  0  0  0  0  0  0  0  0  0  0  0
   13.8382  -10.6583   -2.1306 H   0  0  0  0  0  0  0  0  0  0  0  0
   12.8473  -12.5941   -3.3675 H   0  0  0  0  0  0  0  0  0  0  0  0
   10.6303  -13.7696   -5.2668 H   0  0  0  0  0  0  0  0  0  0  0  0
   12.1171  -13.9656   -7.2669 H   0  0  0  0  0  0  0  0  0  0  0  0
   14.9239  -16.3126   -4.9553 H   0  0  0  0  0  0  0  0  0  0  0  0
   13.4419  -16.1268   -2.9544 H   0  0  0  0  0  0  0  0  0  0  0  0
  1  2  2  0
  2  3  2  0
  2  4  1  0
  4  5  2  0
  5  6  1  0
  6  7  2  0
  7  8  1  0
  7  9  1  0
  9 10  2  0
  2 11  1  0
 11 12  2  0
 12 13  1  0
 13 14  2  0
 14 15  1  0
 15 16  2  0
 16 17  1  0
 17 18  1  0
 18 19  2  0
 18 20  1  0
 14 21  1  0
 21 22  2  0
 10  4  1  0
 22 11  1  0
 20 15  1  0
  5 23  1  0
  6 24  1  0
  9 25  1  0
 10 26  1  0
 12 27  1  0
 13 28  1  0
 21 29  1  0
 22 30  1  0
M  CHG  2  17  -1  20  -1
M  END
>  <meeko>  (4) 
{"is_sidechain": [false], "free_energy": -6.815, "intermolecular_energy": -7.82, "internal_energy": -0.595}

$$$$
LIB_KGSCYSGAMAZIIM__M_PUB_ALL__e8__s20260927
     RDKit          3D

 30 32  0  0  0  0  0  0  0  0999 V2000
    3.4140  -10.4560   -4.8990 O   0  0  0  0  0  0  0  0  0  0  0  0
    4.0120  -11.4950   -4.0790 S   0  0  0  0  0  0  0  0  0  0  0  0
    4.9090  -11.1390   -2.9920 O   0  0  0  0  0  0  0  0  0  0  0  0
    4.9440  -12.5090   -5.2140 C   0  0  0  0  0  0  0  0  0  0  0  0
    5.7860  -13.5100   -4.7190 C   0  0  0  0  0  0  0  0  0  0  0  0
    6.5270  -14.2870   -5.6110 C   0  0  0  0  0  0  0  0  0  0  0  0
    6.4190  -14.0600   -6.9840 C   0  0  0  0  0  0  0  0  0  0  0  0
    7.4180  -15.1180   -8.1910 Br  0  0  0  0  0  0  0  0  0  0  0  0
    5.5800  -13.0580   -7.4770 C   0  0  0  0  0  0  0  0  0  0  0  0
    4.8390  -12.2760   -6.5890 C   0  0  0  0  0  0  0  0  0  0  0  0
    2.7310  -12.5080   -3.3970 C   0  0  0  0  0  0  0  0  0  0  0  0
    2.1620  -13.5250   -4.1690 C   0  0  0  0  0  0  0  0  0  0  0  0
    1.2330  -14.3860   -3.5810 C   0  0  0  0  0  0  0  0  0  0  0  0
    0.8770  -14.2290   -2.2350 C   0  0  0  0  0  0  0  0  0  0  0  0
   -0.0540  -15.1560   -1.5600 C   0  0  0  0  0  0  0  0  0  0  0  0
   -1.2220  -15.4740   -2.0150 N   0  0  0  0  0  0  0  0  0  0  0  0
   -1.7370  -16.3220   -1.0940 N   0  0  0  0  0  0  0  0  0  0  0  0
   -0.8160  -16.4450   -0.1340 C   0  0  0  0  0  0  0  0  0  0  0  0
   -0.9900  -17.3940    1.2450 S   0  0  0  0  0  0  0  0  0  0  0  0
    0.2660  -15.7180   -0.4020 N   0  0  0  0  0  0  0  0  0  0  0  0
    1.4320  -13.1820   -1.4870 C   0  0  0  0  0  0  0  0  0  0  0  0
    2.3580  -12.3160   -2.0640 C   0  0  0  0  0  0  0  0  0  0  0  0
    5.8637  -13.6836   -3.6356 H   0  0  0  0  0  0  0  0  0  0  0  0
    7.1940  -15.0758   -5.2331 H   0  0  0  0  0  0  0  0  0  0  0  0
    5.5034  -12.8857   -8.5607 H   0  0  0  0  0  0  0  0  0  0  0  0
    4.1777  -11.4828   -6.9679 H   0  0  0  0  0  0  0  0  0  0  0  0
    2.4424  -13.6455   -5.2258 H   0  0  0  0  0  0  0  0  0  0  0  0
    0.7787  -15.1911   -4.1772 H   0  0  0  0  0  0  0  0  0  0  0  0
    1.1344  -13.0431   -0.4372 H   0  0  0  0  0  0  0  0  0  0  0  0
    2.7901  -11.4915   -1.4779 H   0  0  0  0  0  0  0  0  0  0  0  0
  1  2  2  0
  2  3  2  0
  2  4  1  0
  4  5  2  0
  5  6  1  0
  6  7  2  0
  7  8  1  0
  7  9  1  0
  9 10  2  0
  2 11  1  0
 11 12  2  0
 12 13  1  0
 13 14  2  0
 14 15  1  0
 15 16  2  0
 16 17  1  0
 17 18  1  0
 18 19  2  0
 18 20  1  0
 14 21  1  0
 21 22  2  0
 10  4  1  0
 22 11  1  0
 20 15  1  0
  5 23  1  0
  6 24  1  0
  9 25  1  0
 10 26  1  0
 12 27  1  0
 13 28  1  0
 21 29  1  0
 22 30  1  0
M  CHG  2  17  -1  20  -1
M  END
>  <meeko>  (5) 
{"is_sidechain": [false], "free_energy": -6.731, "intermolecular_energy": -7.721, "internal_energy": -0.595}

$$$$
LIB_KGSCYSGAMAZIIM__M_PUB_ALL__e8__s20260927
     RDKit          3D

 30 32  0  0  0  0  0  0  0  0999 V2000
   13.9880   -9.1960   11.1800 O   0  0  0  0  0  0  0  0  0  0  0  0
   13.7120   -9.6670   12.5260 S   0  0  0  0  0  0  0  0  0  0  0  0
   12.8060   -8.9240   13.3870 O   0  0  0  0  0  0  0  0  0  0  0  0
   15.2980   -9.7030   13.3440 C   0  0  0  0  0  0  0  0  0  0  0  0
   16.4530   -9.9750   12.6050 C   0  0  0  0  0  0  0  0  0  0  0  0
   17.6880  -10.0210   13.2540 C   0  0  0  0  0  0  0  0  0  0  0  0
   17.7590   -9.7940   14.6290 C   0  0  0  0  0  0  0  0  0  0  0  0
   19.4330   -9.8500   15.5060 Br  0  0  0  0  0  0  0  0  0  0  0  0
   16.6030   -9.5250   15.3670 C   0  0  0  0  0  0  0  0  0  0  0  0
   15.3650   -9.4810   14.7240 C   0  0  0  0  0  0  0  0  0  0  0  0
   13.1210  -11.3330   12.4500 C   0  0  0  0  0  0  0  0  0  0  0  0
   13.7670  -12.2650   11.6320 C   0  0  0  0  0  0  0  0  0  0  0  0
   13.3590  -13.6000   11.6680 C   0  0  0  0  0  0  0  0  0  0  0  0
   12.3140  -13.9970   12.5120 C   0  0  0  0  0  0  0  0  0  0  0  0
   11.8930  -15.4090   12.6260 C   0  0  0  0  0  0  0  0  0  0  0  0
   10.7960  -15.7980   13.1880 N   0  0  0  0  0  0  0  0  0  0  0  0
   10.8110  -17.1480   13.0870 N   0  0  0  0  0  0  0  0  0  0  0  0
   11.9470  -17.4690   12.4610 C   0  0  0  0  0  0  0  0  0  0  0  0
   12.4330  -19.0400   12.1040 S   0  0  0  0  0  0  0  0  0  0  0  0
   12.6560  -16.3860   12.1520 N   0  0  0  0  0  0  0  0  0  0  0  0
   11.6550  -13.0430   13.2990 C   0  0  0  0  0  0  0  0  0  0  0  0
   12.0530  -11.7070   13.2700 C   0  0  0  0  0  0  0  0  0  0  0  0
   16.3892  -10.1513   11.5211 H   0  0  0  0  0  0  0  0  0  0  0  0
   18.6032  -10.2357   12.6828 H   0  0  0  0  0  0  0  0  0  0  0  0
   16.6686   -9.3486   16.4508 H   0  0  0  0  0  0  0  0  0  0  0  0
   14.4495   -9.2735   15.2973 H   0  0  0  0  0  0  0  0  0  0  0  0
   14.5862  -11.9506   10.9686 H   0  0  0  0  0  0  0  0  0  0  0  0
   13.8605  -14.3432   11.0307 H   0  0  0  0  0  0  0  0  0  0  0  0
   10.8184  -13.3501   13.9438 H   0  0  0  0  0  0  0  0  0  0  0  0
   11.5331  -10.9572   13.8845 H   0  0  0  0  0  0  0  0  0  0  0  0
  1  2  2  0
  2  3  2  0
  2  4  1  0
  4  5  2  0
  5  6  1  0
  6  7  2  0
  7  8  1  0
  7  9  1  0
  9 10  2  0
  2 11  1  0
 11 12  2  0
 12 13  1  0
 13 14  2  0
 14 15  1  0
 15 16  2  0
 16 17  1  0
 17 18  1  0
 18 19  2  0
 18 20  1  0
 14 21  1  0
 21 22  2  0
 10  4  1  0
 22 11  1  0
 20 15  1  0
  5 23  1  0
  6 24  1  0
  9 25  1  0
 10 26  1  0
 12 27  1  0
 13 28  1  0
 21 29  1  0
 22 30  1  0
M  CHG  2  17  -1  20  -1
M  END
>  <meeko>  (6) 
{"is_sidechain": [false], "free_energy": -6.659, "intermolecular_energy": -7.662, "internal_energy": -0.569}

$$$$
LIB_KGSCYSGAMAZIIM__M_PUB_ALL__e8__s20260927
     RDKit          3D

 30 32  0  0  0  0  0  0  0  0999 V2000
   -1.1830  -10.2410    3.0180 O   0  0  0  0  0  0  0  0  0  0  0  0
   -1.5470  -11.1970    1.9870 S   0  0  0  0  0  0  0  0  0  0  0  0
   -2.8540  -11.1250    1.3540 O   0  0  0  0  0  0  0  0  0  0  0  0
   -1.4350  -12.7970    2.7710 C   0  0  0  0  0  0  0  0  0  0  0  0
   -0.5040  -13.0030    3.7940 C   0  0  0  0  0  0  0  0  0  0  0  0
   -0.4070  -14.2620    4.3900 C   0  0  0  0  0  0  0  0  0  0  0  0
   -1.2390  -15.2980    3.9620 C   0  0  0  0  0  0  0  0  0  0  0  0
   -1.1120  -17.0010    4.7750 Br  0  0  0  0  0  0  0  0  0  0  0  0
   -2.1670  -15.0910    2.9390 C   0  0  0  0  0  0  0  0  0  0  0  0
   -2.2650  -13.8350    2.3370 C   0  0  0  0  0  0  0  0  0  0  0  0
   -0.3330  -11.1550    0.7000 C   0  0  0  0  0  0  0  0  0  0  0  0
    0.4460  -12.2860    0.4390 C   0  0  0  0  0  0  0  0  0  0  0  0
    1.3190  -12.2740   -0.6500 C   0  0  0  0  0  0  0  0  0  0  0  0
    1.4130  -11.1410   -1.4690 C   0  0  0  0  0  0  0  0  0  0  0  0
    2.2780  -11.1100   -2.6660 C   0  0  0  0  0  0  0  0  0  0  0  0
    2.5280  -10.0450   -3.3550 N   0  0  0  0  0  0  0  0  0  0  0  0
    3.3380  -10.4600   -4.3580 N   0  0  0  0  0  0  0  0  0  0  0  0
    3.5100  -11.7740   -4.1880 C   0  0  0  0  0  0  0  0  0  0  0  0
    4.4380  -12.7560   -5.1910 S   0  0  0  0  0  0  0  0  0  0  0  0
    2.8510  -12.2170   -3.1200 N   0  0  0  0  0  0  0  0  0  0  0  0
    0.6500  -10.0040   -1.1710 C   0  0  0  0  0  0  0  0  0  0  0  0
   -0.2240  -10.0040   -0.0860 C   0  0  0  0  0  0  0  0  0  0  0  0
    0.1463  -12.1803    4.1263 H   0  0  0  0  0  0  0  0  0  0  0  0
    0.3228  -14.4369    5.1943 H   0  0  0  0  0  0  0  0  0  0  0  0
   -2.8180  -15.9140    2.6089 H   0  0  0  0  0  0  0  0  0  0  0  0
   -2.9897  -13.6635    1.5274 H   0  0  0  0  0  0  0  0  0  0  0  0
    0.3719  -13.1742    1.0837 H   0  0  0  0  0  0  0  0  0  0  0  0
    1.9363  -13.1584   -0.8663 H   0  0  0  0  0  0  0  0  0  0  0  0
    0.7418   -9.1050   -1.7982 H   0  0  0  0  0  0  0  0  0  0  0  0
   -0.8204   -9.1101    0.1491 H   0  0  0  0  0  0  0  0  0  0  0  0
  1  2  2  0
  2  3  2  0
  2  4  1  0
  4  5  2  0
  5  6  1  0
  6  7  2  0
  7  8  1  0
  7  9  1  0
  9 10  2  0
  2 11  1  0
 11 12  2  0
 12 13  1  0
 13 14  2  0
 14 15  1  0
 15 16  2  0
 16 17  1  0
 17 18  1  0
 18 19  2  0
 18 20  1  0
 14 21  1  0
 21 22  2  0
 10  4  1  0
 22 11  1  0
 20 15  1  0
  5 23  1  0
  6 24  1  0
  9 25  1  0
 10 26  1  0
 12 27  1  0
 13 28  1  0
 21 29  1  0
 22 30  1  0
M  CHG  2  17  -1  20  -1
M  END
>  <meeko>  (7) 
{"is_sidechain": [false], "free_energy": -6.611, "intermolecular_energy": -7.627, "internal_energy": -0.548}

$$$$
LIB_KGSCYSGAMAZIIM__M_PUB_ALL__e8__s20260927
     RDKit          3D

 30 32  0  0  0  0  0  0  0  0999 V2000
   11.8750  -13.6050   -0.1950 O   0  0  0  0  0  0  0  0  0  0  0  0
   11.8870  -12.6910   -1.3230 S   0  0  0  0  0  0  0  0  0  0  0  0
   12.4870  -11.3740   -1.1880 O   0  0  0  0  0  0  0  0  0  0  0  0
   10.1700  -12.4430   -1.7440 C   0  0  0  0  0  0  0  0  0  0  0  0
    9.1890  -12.5730   -0.7570 C   0  0  0  0  0  0  0  0  0  0  0  0
    7.8460  -12.3970   -1.0970 C   0  0  0  0  0  0  0  0  0  0  0  0
    7.4980  -12.0910   -2.4130 C   0  0  0  0  0  0  0  0  0  0  0  0
    5.6800  -11.8460   -2.8700 Br  0  0  0  0  0  0  0  0  0  0  0  0
    8.4800  -11.9640   -3.3980 C   0  0  0  0  0  0  0  0  0  0  0  0
    9.8230  -12.1430   -3.0660 C   0  0  0  0  0  0  0  0  0  0  0  0
   12.6590  -13.4840   -2.7050 C   0  0  0  0  0  0  0  0  0  0  0  0
   12.4780  -14.8550   -2.9130 C   0  0  0  0  0  0  0  0  0  0  0  0
   13.0000  -15.4420   -4.0660 C   0  0  0  0  0  0  0  0  0  0  0  0
   13.6960  -14.6670   -5.0020 C   0  0  0  0  0  0  0  0  0  0  0  0
   14.2090  -15.2370   -6.2640 C   0  0  0  0  0  0  0  0  0  0  0  0
   15.4640  -15.3360   -6.5610 N   0  0  0  0  0  0  0  0  0  0  0  0
   15.4890  -15.8920   -7.7950 N   0  0  0  0  0  0  0  0  0  0  0  0
   14.2150  -16.0830   -8.1510 C   0  0  0  0  0  0  0  0  0  0  0  0
   13.7190  -16.7480   -9.6150 S   0  0  0  0  0  0  0  0  0  0  0  0
   13.3780  -15.6800   -7.1990 N   0  0  0  0  0  0  0  0  0  0  0  0
   13.8970  -13.3010   -4.7610 C   0  0  0  0  0  0  0  0  0  0  0  0
   13.3820  -12.7030   -3.6120 C   0  0  0  0  0  0  0  0  0  0  0  0
    9.4723  -12.8119    0.2787 H   0  0  0  0  0  0  0  0  0  0  0  0
    7.0647  -12.4993   -0.3294 H   0  0  0  0  0  0  0  0  0  0  0  0
    8.1951  -11.7235   -4.4329 H   0  0  0  0  0  0  0  0  0  0  0  0
   10.6023  -12.0492   -3.8366 H   0  0  0  0  0  0  0  0  0  0  0  0
   11.9311  -15.4627   -2.1771 H   0  0  0  0  0  0  0  0  0  0  0  0
   12.8641  -16.5195   -4.2408 H   0  0  0  0  0  0  0  0  0  0  0  0
   14.4651  -12.6967   -5.4836 H   0  0  0  0  0  0  0  0  0  0  0  0
   13.5421  -11.6315   -3.4214 H   0  0  0  0  0  0  0  0  0  0  0  0
  1  2  2  0
  2  3  2  0
  2  4  1  0
  4  5  2  0
  5  6  1  0
  6  7  2  0
  7  8  1  0
  7  9  1  0
  9 10  2  0
  2 11  1  0
 11 12  2  0
 12 13  1  0
 13 14  2  0
 14 15  1  0
 15 16  2  0
 16 17  1  0
 17 18  1  0
 18 19  2  0
 18 20  1  0
 14 21  1  0
 21 22  2  0
 10  4  1  0
 22 11  1  0
 20 15  1  0
  5 23  1  0
  6 24  1  0
  9 25  1  0
 10 26  1  0
 12 27  1  0
 13 28  1  0
 21 29  1  0
 22 30  1  0
M  CHG  2  17  -1  20  -1
M  END
>  <meeko>  (8) 
{"is_sidechain": [false], "free_energy": -6.6, "intermolecular_energy": -7.553, "internal_energy": -0.609}

$$$$
LIB_KGSCYSGAMAZIIM__M_PUB_ALL__e8__s20260927
     RDKit          3D

 30 32  0  0  0  0  0  0  0  0999 V2000
   12.2590  -11.0610   -0.0420 O   0  0  0  0  0  0  0  0  0  0  0  0
   11.6770  -12.3900   -0.1130 S   0  0  0  0  0  0  0  0  0  0  0  0
   11.9690  -13.3700    0.9200 O   0  0  0  0  0  0  0  0  0  0  0  0
   12.2550  -13.0720   -1.6590 C   0  0  0  0  0  0  0  0  0  0  0  0
   12.2650  -14.4580   -1.8450 C   0  0  0  0  0  0  0  0  0  0  0  0
   12.7360  -14.9850   -3.0480 C   0  0  0  0  0  0  0  0  0  0  0  0
   13.1900  -14.1280   -4.0510 C   0  0  0  0  0  0  0  0  0  0  0  0
   13.8220  -14.8440   -5.6830 Br  0  0  0  0  0  0  0  0  0  0  0  0
   13.1820  -12.7440   -3.8630 C   0  0  0  0  0  0  0  0  0  0  0  0
   12.7150  -12.2110   -2.6600 C   0  0  0  0  0  0  0  0  0  0  0  0
    9.9170  -12.2490   -0.2260 C   0  0  0  0  0  0  0  0  0  0  0  0
    9.2630  -12.6030   -1.4100 C   0  0  0  0  0  0  0  0  0  0  0  0
    7.8680  -12.5920   -1.4450 C   0  0  0  0  0  0  0  0  0  0  0  0
    7.1340  -12.2300   -0.3080 C   0  0  0  0  0  0  0  0  0  0  0  0
    5.6570  -12.2660   -0.2860 C   0  0  0  0  0  0  0  0  0  0  0  0
    4.9500  -12.4150    0.7860 N   0  0  0  0  0  0  0  0  0  0  0  0
    3.6640  -12.4060    0.3600 N   0  0  0  0  0  0  0  0  0  0  0  0
    3.7050  -12.2540   -0.9670 C   0  0  0  0  0  0  0  0  0  0  0  0
    2.3520  -12.1900   -1.9650 S   0  0  0  0  0  0  0  0  0  0  0  0
    4.9570  -12.1590   -1.4080 N   0  0  0  0  0  0  0  0  0  0  0  0
    7.8070  -11.8460    0.8590 C   0  0  0  0  0  0  0  0  0  0  0  0
    9.1990  -11.8500    0.9060 C   0  0  0  0  0  0  0  0  0  0  0  0
   11.9046  -15.1270   -1.0497 H   0  0  0  0  0  0  0  0  0  0  0  0
   12.7494  -16.0736   -3.2053 H   0  0  0  0  0  0  0  0  0  0  0  0
   13.5422  -12.0765   -4.6597 H   0  0  0  0  0  0  0  0  0  0  0  0
   12.7090  -11.1226   -2.5010 H   0  0  0  0  0  0  0  0  0  0  0  0
    9.8405  -12.8865   -2.3022 H   0  0  0  0  0  0  0  0  0  0  0  0
    7.3418  -12.8691   -2.3704 H   0  0  0  0  0  0  0  0  0  0  0  0
    7.2318  -11.5390    1.7449 H   0  0  0  0  0  0  0  0  0  0  0  0
    9.7266  -11.5434    1.8212 H   0  0  0  0  0  0  0  0  0  0  0  0
  1  2  2  0
  2  3  2  0
  2  4  1  0
  4  5  2  0
  5  6  1  0
  6  7  2  0
  7  8  1  0
  7  9  1  0
  9 10  2  0
  2 11  1  0
 11 12  2  0
 12 13  1  0
 13 14  2  0
 14 15  1  0
 15 16  2  0
 16 17  1  0
 17 18  1  0
 18 19  2  0
 18 20  1  0
 14 21  1  0
 21 22  2  0
 10  4  1  0
 22 11  1  0
 20 15  1  0
  5 23  1  0
  6 24  1  0
  9 25  1  0
 10 26  1  0
 12 27  1  0
 13 28  1  0
 21 29  1  0
 22 30  1  0
M  CHG  2  17  -1  20  -1
M  END
>  <meeko>  (9) 
{"is_sidechain": [false], "free_energy": -6.347, "intermolecular_energy": -7.316, "internal_energy": -0.548}

$$$$
