LIB_YJNUPBNOZDKQMS__M_PUB_ALL__e8__s20260927
     RDKit          3D

 29 32  0  0  0  0  0  0  0  0999 V2000
   10.2970  -12.2010    1.6050 N   0  0  0  0  0  0  0  0  0  0  0  0
   11.1900  -11.3880    1.0160 C   0  0  0  0  0  0  0  0  0  0  0  0
   11.4350  -10.1290    1.3750 N   0  0  0  0  0  0  0  0  0  0  0  0
   12.4230   -9.6890    0.5010 O   0  0  0  0  0  0  0  0  0  0  0  0
   12.7860  -10.6850   -0.4010 N   0  0  0  0  0  0  0  0  0  0  0  0
   12.0170  -11.7270   -0.0820 C   0  0  0  0  0  0  0  0  0  0  0  0
   12.0510  -13.1130   -0.8070 C   0  0  0  0  0  0  0  0  0  0  0  0
   11.6970  -14.2410   -0.2080 N   0  0  0  0  0  0  0  0  0  0  0  0
   11.9530  -15.2370   -1.1180 C   0  0  0  0  0  0  0  0  0  0  0  0
   11.7910  -16.6250   -0.9830 C   0  0  0  0  0  0  0  0  0  0  0  0
   12.1500  -17.4540   -2.0530 C   0  0  0  0  0  0  0  0  0  0  0  0
   12.6640  -16.9130   -3.2320 C   0  0  0  0  0  0  0  0  0  0  0  0
   12.8290  -15.5330   -3.3870 C   0  0  0  0  0  0  0  0  0  0  0  0
   12.4540  -14.7190   -2.3090 C   0  0  0  0  0  0  0  0  0  0  0  0
   12.4500  -13.3640   -2.0970 N   0  0  0  0  0  0  0  0  0  0  0  0
   12.8710  -12.3550   -3.1000 C   0  0  0  0  0  0  0  0  0  0  0  0
   14.2800  -11.8070   -3.1730 C   0  0  0  0  0  0  0  0  0  0  0  0
   13.7790  -12.7060   -4.2580 C   0  0  0  0  0  0  0  0  0  0  0  0
   10.0690  -12.1050    2.5950 H   0  0  0  0  0  0  0  0  0  0  0  0
    9.8140  -12.9260    1.0910 H   0  0  0  0  0  0  0  0  0  0  0  0
   11.3892  -17.0538   -0.0531 H   0  0  0  0  0  0  0  0  0  0  0  0
   12.0255  -18.5432   -1.9631 H   0  0  0  0  0  0  0  0  0  0  0  0
   12.9450  -17.5854   -4.0560 H   0  0  0  0  0  0  0  0  0  0  0  0
   13.2356  -15.1046   -4.3150 H   0  0  0  0  0  0  0  0  0  0  0  0
   11.8696  -11.9134   -2.9895 H   0  0  0  0  0  0  0  0  0  0  0  0
   14.4436  -10.7386   -3.3771 H   0  0  0  0  0  0  0  0  0  0  0  0
   15.1505  -11.8133   -2.5006 H   0  0  0  0  0  0  0  0  0  0  0  0
   13.5750  -12.2975   -5.2588 H   0  0  0  0  0  0  0  0  0  0  0  0
   14.1302  -13.6448   -4.7110 H   0  0  0  0  0  0  0  0  0  0  0  0
  1  2  1  0
  2  3  2  0
  3  4  1  0
  4  5  1  0
  5  6  2  0
  6  7  1  0
  7  8  2  0
  8  9  1  0
  9 10  2  0
 10 11  1  0
 11 12  2  0
 12 13  1  0
 13 14  2  0
 14 15  1  0
 15 16  1  0
 16 17  1  0
 17 18  1  0
  6  2  1  0
 15  7  1  0
 18 16  1  0
 14  9  1  0
  1 19  1  0
  1 20  1  0
 10 21  1  0
 11 22  1  0
 12 23  1  0
 13 24  1  0
 16 25  1  0
 17 26  1  0
 17 27  1  0
 18 28  1  0
 18 29  1  0
M  END
>  <meeko>  (1) 
{"is_sidechain": [false], "free_energy": -6.963, "intermolecular_energy": -7.981, "internal_energy": 0.155}

$$$$
LIB_YJNUPBNOZDKQMS__M_PUB_ALL__e8__s20260927
     RDKit          3D

 29 32  0  0  0  0  0  0  0  0999 V2000
   -5.5860  -14.0410   10.1540 N   0  0  0  0  0  0  0  0  0  0  0  0
   -4.5750  -14.8510    9.7950 C   0  0  0  0  0  0  0  0  0  0  0  0
   -3.3840  -14.9010   10.3890 N   0  0  0  0  0  0  0  0  0  0  0  0
   -2.6740  -15.8740    9.6940 O   0  0  0  0  0  0  0  0  0  0  0  0
   -3.4350  -16.4250    8.6660 N   0  0  0  0  0  0  0  0  0  0  0  0
   -4.6030  -15.7840    8.7310 C   0  0  0  0  0  0  0  0  0  0  0  0
   -5.8170  -16.0520    7.7810 C   0  0  0  0  0  0  0  0  0  0  0  0
   -5.8470  -15.6320    6.5250 N   0  0  0  0  0  0  0  0  0  0  0  0
   -7.0940  -15.9640    6.0550 C   0  0  0  0  0  0  0  0  0  0  0  0
   -7.6610  -15.7180    4.7950 C   0  0  0  0  0  0  0  0  0  0  0  0
   -8.9760  -16.1340    4.5530 C   0  0  0  0  0  0  0  0  0  0  0  0
   -9.7130  -16.7790    5.5470 C   0  0  0  0  0  0  0  0  0  0  0  0
   -9.1640  -17.0360    6.8070 C   0  0  0  0  0  0  0  0  0  0  0  0
   -7.8430  -16.6220    7.0260 C   0  0  0  0  0  0  0  0  0  0  0  0
   -6.9830  -16.7110    8.0910 N   0  0  0  0  0  0  0  0  0  0  0  0
   -7.3060  -17.3680    9.3800 C   0  0  0  0  0  0  0  0  0  0  0  0
   -7.5580  -18.8560    9.5040 C   0  0  0  0  0  0  0  0  0  0  0  0
   -6.3170  -18.2660   10.0930 C   0  0  0  0  0  0  0  0  0  0  0  0
   -5.7610  -13.8200   11.1340 H   0  0  0  0  0  0  0  0  0  0  0  0
   -6.1980  -13.6160    9.4700 H   0  0  0  0  0  0  0  0  0  0  0  0
   -7.0825  -15.2073    4.0111 H   0  0  0  0  0  0  0  0  0  0  0  0
   -9.4327  -15.9505    3.5693 H   0  0  0  0  0  0  0  0  0  0  0  0
  -10.7462  -17.0914    5.3351 H   0  0  0  0  0  0  0  0  0  0  0  0
   -9.7442  -17.5416    7.5930 H   0  0  0  0  0  0  0  0  0  0  0  0
   -7.8714  -16.4593    9.6342 H   0  0  0  0  0  0  0  0  0  0  0  0
   -8.3574  -19.2242   10.1639 H   0  0  0  0  0  0  0  0  0  0  0  0
   -7.7683  -19.6687    8.7931 H   0  0  0  0  0  0  0  0  0  0  0  0
   -6.2052  -18.2010   11.1854 H   0  0  0  0  0  0  0  0  0  0  0  0
   -5.2401  -18.4667    9.9931 H   0  0  0  0  0  0  0  0  0  0  0  0
  1  2  1  0
  2  3  2  0
  3  4  1  0
  4  5  1  0
  5  6  2  0
  6  7  1  0
  7  8  2  0
  8  9  1  0
  9 10  2  0
 10 11  1  0
 11 12  2  0
 12 13  1  0
 13 14  2  0
 14 15  1  0
 15 16  1  0
 16 17  1  0
 17 18  1  0
  6  2  1  0
 15  7  1  0
 18 16  1  0
 14  9  1  0
  1 19  1  0
  1 20  1  0
 10 21  1  0
 11 22  1  0
 12 23  1  0
 13 24  1  0
 16 25  1  0
 17 26  1  0
 17 27  1  0
 18 28  1  0
 18 29  1  0
M  END
>  <meeko>  (2) 
{"is_sidechain": [false], "free_energy": -6.729, "intermolecular_energy": -7.349, "internal_energy": -0.207}

$$$$
LIB_YJNUPBNOZDKQMS__M_PUB_ALL__e8__s20260927
     RDKit          3D

 29 32  0  0  0  0  0  0  0  0999 V2000
  -10.5260  -15.7080  -12.9350 N   0  0  0  0  0  0  0  0  0  0  0  0
   -9.8940  -14.6060  -12.4950 C   0  0  0  0  0  0  0  0  0  0  0  0
   -9.1770  -13.7790  -13.2530 N   0  0  0  0  0  0  0  0  0  0  0  0
   -8.7240  -12.7930  -12.3840 O   0  0  0  0  0  0  0  0  0  0  0  0
   -9.1670  -13.0160  -11.0830 N   0  0  0  0  0  0  0  0  0  0  0  0
   -9.8820  -14.1400  -11.1590 C   0  0  0  0  0  0  0  0  0  0  0  0
  -10.6080  -14.8140   -9.9480 C   0  0  0  0  0  0  0  0  0  0  0  0
  -11.9130  -15.0440   -9.9360 N   0  0  0  0  0  0  0  0  0  0  0  0
  -12.1870  -15.5460   -8.6870 C   0  0  0  0  0  0  0  0  0  0  0  0
  -13.4210  -15.9240   -8.1350 C   0  0  0  0  0  0  0  0  0  0  0  0
  -13.4550  -16.3900   -6.8150 C   0  0  0  0  0  0  0  0  0  0  0  0
  -12.2850  -16.4750   -6.0580 C   0  0  0  0  0  0  0  0  0  0  0  0
  -11.0460  -16.1060   -6.5930 C   0  0  0  0  0  0  0  0  0  0  0  0
  -11.0310  -15.6530   -7.9190 C   0  0  0  0  0  0  0  0  0  0  0  0
  -10.0400  -15.2330   -8.7690 N   0  0  0  0  0  0  0  0  0  0  0  0
   -8.5980  -15.1920   -8.4250 C   0  0  0  0  0  0  0  0  0  0  0  0
   -7.8550  -16.3830   -7.8570 C   0  0  0  0  0  0  0  0  0  0  0  0
   -7.5560  -15.9190   -9.2470 C   0  0  0  0  0  0  0  0  0  0  0  0
  -11.5350  -15.8160  -12.8240 H   0  0  0  0  0  0  0  0  0  0  0  0
  -10.0310  -16.4590  -13.3970 H   0  0  0  0  0  0  0  0  0  0  0  0
  -14.3445  -15.8554   -8.7286 H   0  0  0  0  0  0  0  0  0  0  0  0
  -14.4142  -16.6925   -6.3695 H   0  0  0  0  0  0  0  0  0  0  0  0
  -12.3383  -16.8390   -5.0213 H   0  0  0  0  0  0  0  0  0  0  0  0
  -10.1229  -16.1688   -5.9981 H   0  0  0  0  0  0  0  0  0  0  0  0
   -8.7640  -14.1531   -8.1039 H   0  0  0  0  0  0  0  0  0  0  0  0
   -7.1131  -16.2372   -7.0580 H   0  0  0  0  0  0  0  0  0  0  0  0
   -8.1540  -17.3409   -7.4065 H   0  0  0  0  0  0  0  0  0  0  0  0
   -6.5944  -15.4328   -9.4684 H   0  0  0  0  0  0  0  0  0  0  0  0
   -7.5448  -16.3962  -10.2380 H   0  0  0  0  0  0  0  0  0  0  0  0
  1  2  1  0
  2  3  2  0
  3  4  1  0
  4  5  1  0
  5  6  2  0
  6  7  1  0
  7  8  2  0
  8  9  1  0
  9 10  2  0
 10 11  1  0
 11 12  2  0
 12 13  1  0
 13 14  2  0
 14 15  1  0
 15 16  1  0
 16 17  1  0
 17 18  1  0
  6  2  1  0
 15  7  1  0
 18 16  1  0
 14  9  1  0
  1 19  1  0
  1 20  1  0
 10 21  1  0
 11 22  1  0
 12 23  1  0
 13 24  1  0
 16 25  1  0
 17 26  1  0
 17 27  1  0
 18 28  1  0
 18 29  1  0
M  END
>  <meeko>  (3) 
{"is_sidechain": [false], "free_energy": -6.648, "intermolecular_energy": -7.251, "internal_energy": -0.213}

$$$$
LIB_YJNUPBNOZDKQMS__M_PUB_ALL__e8__s20260927
     RDKit          3D

 29 32  0  0  0  0  0  0  0  0999 V2000
   -5.6450  -14.0140    9.9560 N   0  0  0  0  0  0  0  0  0  0  0  0
   -4.7020  -14.9570    9.7880 C   0  0  0  0  0  0  0  0  0  0  0  0
   -3.4400  -14.8620   10.2020 N   0  0  0  0  0  0  0  0  0  0  0  0
   -2.8430  -16.0590    9.8200 O   0  0  0  0  0  0  0  0  0  0  0  0
   -3.7450  -16.8940    9.1680 N   0  0  0  0  0  0  0  0  0  0  0  0
   -4.8880  -16.2050    9.1460 C   0  0  0  0  0  0  0  0  0  0  0  0
   -6.2250  -16.7220    8.5210 C   0  0  0  0  0  0  0  0  0  0  0  0
   -7.0520  -17.5300    9.1690 N   0  0  0  0  0  0  0  0  0  0  0  0
   -8.0460  -17.8370    8.2730 C   0  0  0  0  0  0  0  0  0  0  0  0
   -9.1550  -18.6810    8.4340 C   0  0  0  0  0  0  0  0  0  0  0  0
  -10.0290  -18.8620    7.3550 C   0  0  0  0  0  0  0  0  0  0  0  0
   -9.8030  -18.2160    6.1390 C   0  0  0  0  0  0  0  0  0  0  0  0
   -8.7050  -17.3670    5.9610 C   0  0  0  0  0  0  0  0  0  0  0  0
   -7.8480  -17.1920    7.0550 C   0  0  0  0  0  0  0  0  0  0  0  0
   -6.7140  -16.4480    7.2660 N   0  0  0  0  0  0  0  0  0  0  0  0
   -6.1020  -15.5460    6.2610 C   0  0  0  0  0  0  0  0  0  0  0  0
   -6.8830  -14.9440    5.1120 C   0  0  0  0  0  0  0  0  0  0  0  0
   -6.4070  -14.0640    6.2230 C   0  0  0  0  0  0  0  0  0  0  0  0
   -6.3100  -13.7970    9.2130 H   0  0  0  0  0  0  0  0  0  0  0  0
   -5.7350  -13.4970   10.8200 H   0  0  0  0  0  0  0  0  0  0  0  0
   -9.3349  -19.1918    9.3914 H   0  0  0  0  0  0  0  0  0  0  0  0
  -10.9030  -19.5204    7.4672 H   0  0  0  0  0  0  0  0  0  0  0  0
  -10.5013  -18.3772    5.3045 H   0  0  0  0  0  0  0  0  0  0  0  0
   -8.5227  -16.8587    5.0027 H   0  0  0  0  0  0  0  0  0  0  0  0
   -5.1951  -16.1626    6.3462 H   0  0  0  0  0  0  0  0  0  0  0  0
   -6.4228  -14.8678    4.1158 H   0  0  0  0  0  0  0  0  0  0  0  0
   -7.8592  -15.1469    4.6473 H   0  0  0  0  0  0  0  0  0  0  0  0
   -5.5974  -13.3415    6.0424 H   0  0  0  0  0  0  0  0  0  0  0  0
   -6.8896  -13.3539    6.9106 H   0  0  0  0  0  0  0  0  0  0  0  0
  1  2  1  0
  2  3  2  0
  3  4  1  0
  4  5  1  0
  5  6  2  0
  6  7  1  0
  7  8  2  0
  8  9  1  0
  9 10  2  0
 10 11  1  0
 11 12  2  0
 12 13  1  0
 13 14  2  0
 14 15  1  0
 15 16  1  0
 16 17  1  0
 17 18  1  0
  6  2  1  0
 15  7  1  0
 18 16  1  0
 14  9  1  0
  1 19  1  0
  1 20  1  0
 10 21  1  0
 11 22  1  0
 12 23  1  0
 13 24  1  0
 16 25  1  0
 17 26  1  0
 17 27  1  0
 18 28  1  0
 18 29  1  0
M  END
>  <meeko>  (4) 
{"is_sidechain": [false], "free_energy": -6.555, "intermolecular_energy": -7.476, "internal_energy": 0.119}

$$$$
LIB_YJNUPBNOZDKQMS__M_PUB_ALL__e8__s20260927
     RDKit          3D

 29 32  0  0  0  0  0  0  0  0999 V2000
    6.8050  -14.3620    1.9330 N   0  0  0  0  0  0  0  0  0  0  0  0
    6.4790  -13.0580    1.9160 C   0  0  0  0  0  0  0  0  0  0  0  0
    5.4010  -12.5290    2.4890 N   0  0  0  0  0  0  0  0  0  0  0  0
    5.4790  -11.1670    2.2220 O   0  0  0  0  0  0  0  0  0  0  0  0
    6.6150  -10.8580    1.4790 N   0  0  0  0  0  0  0  0  0  0  0  0
    7.2230  -12.0300    1.2890 C   0  0  0  0  0  0  0  0  0  0  0  0
    8.5650  -12.2180    0.5070 C   0  0  0  0  0  0  0  0  0  0  0  0
    9.7450  -12.2410    1.1090 N   0  0  0  0  0  0  0  0  0  0  0  0
   10.6730  -12.3220    0.0990 C   0  0  0  0  0  0  0  0  0  0  0  0
   12.0730  -12.3430    0.1810 C   0  0  0  0  0  0  0  0  0  0  0  0
   12.8190  -12.4040   -1.0030 C   0  0  0  0  0  0  0  0  0  0  0  0
   12.1820  -12.4390   -2.2440 C   0  0  0  0  0  0  0  0  0  0  0  0
   10.7870  -12.4240   -2.3460 C   0  0  0  0  0  0  0  0  0  0  0  0
   10.0590  -12.3730   -1.1500 C   0  0  0  0  0  0  0  0  0  0  0  0
    8.7200  -12.3620   -0.8510 N   0  0  0  0  0  0  0  0  0  0  0  0
    7.6340  -12.4360   -1.8580 C   0  0  0  0  0  0  0  0  0  0  0  0
    6.6870  -11.2870   -2.1320 C   0  0  0  0  0  0  0  0  0  0  0  0
    7.6970  -11.6750   -3.1640 C   0  0  0  0  0  0  0  0  0  0  0  0
    6.1180  -15.0800    1.7020 H   0  0  0  0  0  0  0  0  0  0  0  0
    7.7380  -14.6760    2.1640 H   0  0  0  0  0  0  0  0  0  0  0  0
   12.5766  -12.3121    1.1585 H   0  0  0  0  0  0  0  0  0  0  0  0
   13.9177  -12.4245   -0.9540 H   0  0  0  0  0  0  0  0  0  0  0  0
   12.7890  -12.4792   -3.1605 H   0  0  0  0  0  0  0  0  0  0  0  0
   10.2831  -12.4511   -3.3234 H   0  0  0  0  0  0  0  0  0  0  0  0
    7.5148  -13.4895   -1.5648 H   0  0  0  0  0  0  0  0  0  0  0  0
    5.6193  -11.4854   -2.3070 H   0  0  0  0  0  0  0  0  0  0  0  0
    6.4296  -10.3529   -1.6113 H   0  0  0  0  0  0  0  0  0  0  0  0
    7.3707  -12.1580   -4.0969 H   0  0  0  0  0  0  0  0  0  0  0  0
    8.4873  -11.1429   -3.7139 H   0  0  0  0  0  0  0  0  0  0  0  0
  1  2  1  0
  2  3  2  0
  3  4  1  0
  4  5  1  0
  5  6  2  0
  6  7  1  0
  7  8  2  0
  8  9  1  0
  9 10  2  0
 10 11  1  0
 11 12  2  0
 12 13  1  0
 13 14  2  0
 14 15  1  0
 15 16  1  0
 16 17  1  0
 17 18  1  0
  6  2  1  0
 15  7  1  0
 18 16  1  0
 14  9  1  0
  1 19  1  0
  1 20  1  0
 10 21  1  0
 11 22  1  0
 12 23  1  0
 13 24  1  0
 16 25  1  0
 17 26  1  0
 17 27  1  0
 18 28  1  0
 18 29  1  0
M  END
>  <meeko>  (5) 
{"is_sidechain": [false], "free_energy": -6.553, "intermolecular_energy": -7.23, "internal_energy": -0.125}

$$$$
LIB_YJNUPBNOZDKQMS__M_PUB_ALL__e8__s20260927
     RDKit          3D

 29 32  0  0  0  0  0  0  0  0999 V2000
    7.1490  -10.0830   -0.6320 N   0  0  0  0  0  0  0  0  0  0  0  0
    7.2010  -11.0740    0.2740 C   0  0  0  0  0  0  0  0  0  0  0  0
    6.4670  -11.1390    1.3830 N   0  0  0  0  0  0  0  0  0  0  0  0
    6.8480  -12.3250    2.0010 O   0  0  0  0  0  0  0  0  0  0  0  0
    7.8230  -12.9930    1.2650 N   0  0  0  0  0  0  0  0  0  0  0  0
    8.0400  -12.2120    0.2050 C   0  0  0  0  0  0  0  0  0  0  0  0
    9.0560  -12.5320   -0.9410 C   0  0  0  0  0  0  0  0  0  0  0  0
    8.6730  -12.7980   -2.1810 N   0  0  0  0  0  0  0  0  0  0  0  0
    9.8220  -13.1200   -2.8610 C   0  0  0  0  0  0  0  0  0  0  0  0
    9.9800  -13.5140   -4.1980 C   0  0  0  0  0  0  0  0  0  0  0  0
   11.2640  -13.8210   -4.6650 C   0  0  0  0  0  0  0  0  0  0  0  0
   12.3690  -13.7390   -3.8160 C   0  0  0  0  0  0  0  0  0  0  0  0
   12.2320  -13.3430   -2.4820 C   0  0  0  0  0  0  0  0  0  0  0  0
   10.9400  -13.0300   -2.0370 C   0  0  0  0  0  0  0  0  0  0  0  0
   10.4240  -12.6000   -0.8400 N   0  0  0  0  0  0  0  0  0  0  0  0
   11.2320  -12.3180    0.3710 C   0  0  0  0  0  0  0  0  0  0  0  0
   12.2330  -11.1840    0.4460 C   0  0  0  0  0  0  0  0  0  0  0  0
   10.9720  -11.1120    1.2460 C   0  0  0  0  0  0  0  0  0  0  0  0
    6.5500   -9.2700   -0.4890 H   0  0  0  0  0  0  0  0  0  0  0  0
    7.7040  -10.1020   -1.4770 H   0  0  0  0  0  0  0  0  0  0  0  0
    9.1102  -13.5807   -4.8681 H   0  0  0  0  0  0  0  0  0  0  0  0
   11.4033  -14.1299   -5.7115 H   0  0  0  0  0  0  0  0  0  0  0  0
   13.3670  -13.9908   -4.2040 H   0  0  0  0  0  0  0  0  0  0  0  0
   13.1009  -13.2798   -1.8104 H   0  0  0  0  0  0  0  0  0  0  0  0
   11.2768  -13.4066    0.5224 H   0  0  0  0  0  0  0  0  0  0  0  0
   13.1972  -11.3354    0.9533 H   0  0  0  0  0  0  0  0  0  0  0  0
   12.7222  -10.5309   -0.2917 H   0  0  0  0  0  0  0  0  0  0  0  0
   11.0105  -11.2100    2.3410 H   0  0  0  0  0  0  0  0  0  0  0  0
   10.1531  -10.3834    1.3381 H   0  0  0  0  0  0  0  0  0  0  0  0
  1  2  1  0
  2  3  2  0
  3  4  1  0
  4  5  1  0
  5  6  2  0
  6  7  1  0
  7  8  2  0
  8  9  1  0
  9 10  2  0
 10 11  1  0
 11 12  2  0
 12 13  1  0
 13 14  2  0
 14 15  1  0
 15 16  1  0
 16 17  1  0
 17 18  1  0
  6  2  1  0
 15  7  1  0
 18 16  1  0
 14  9  1  0
  1 19  1  0
  1 20  1  0
 10 21  1  0
 11 22  1  0
 12 23  1  0
 13 24  1  0
 16 25  1  0
 17 26  1  0
 17 27  1  0
 18 28  1  0
 18 29  1  0
M  END
>  <meeko>  (6) 
{"is_sidechain": [false], "free_energy": -6.186, "intermolecular_energy": -6.697, "internal_energy": -0.237}

$$$$
LIB_YJNUPBNOZDKQMS__M_PUB_ALL__e8__s20260927
     RDKit          3D

 29 32  0  0  0  0  0  0  0  0999 V2000
   -7.8280  -17.3140   11.8990 N   0  0  0  0  0  0  0  0  0  0  0  0
   -6.7050  -17.9870   11.5950 C   0  0  0  0  0  0  0  0  0  0  0  0
   -5.9400  -18.6380   12.4690 N   0  0  0  0  0  0  0  0  0  0  0  0
   -4.9060  -19.1790   11.7130 O   0  0  0  0  0  0  0  0  0  0  0  0
   -5.0370  -18.8570   10.3650 N   0  0  0  0  0  0  0  0  0  0  0  0
   -6.1450  -18.1160   10.3010 C   0  0  0  0  0  0  0  0  0  0  0  0
   -6.7330  -17.5090    8.9850 C   0  0  0  0  0  0  0  0  0  0  0  0
   -7.7690  -18.0420    8.3530 N   0  0  0  0  0  0  0  0  0  0  0  0
   -7.9240  -17.2990    7.2080 C   0  0  0  0  0  0  0  0  0  0  0  0
   -8.8520  -17.4580    6.1670 C   0  0  0  0  0  0  0  0  0  0  0  0
   -8.7980  -16.5830    5.0750 C   0  0  0  0  0  0  0  0  0  0  0  0
   -7.8380  -15.5720    5.0190 C   0  0  0  0  0  0  0  0  0  0  0  0
   -6.9080  -15.3950    6.0490 C   0  0  0  0  0  0  0  0  0  0  0  0
   -6.9850  -16.2740    7.1380 C   0  0  0  0  0  0  0  0  0  0  0  0
   -6.2810  -16.4010    8.3090 N   0  0  0  0  0  0  0  0  0  0  0  0
   -5.1740  -15.5070    8.7260 C   0  0  0  0  0  0  0  0  0  0  0  0
   -5.3890  -14.0600    9.1170 C   0  0  0  0  0  0  0  0  0  0  0  0
   -5.0030  -15.0580   10.1610 C   0  0  0  0  0  0  0  0  0  0  0  0
   -7.7930  -16.4360   12.4170 H   0  0  0  0  0  0  0  0  0  0  0  0
   -8.7420  -17.6460   11.6190 H   0  0  0  0  0  0  0  0  0  0  0  0
   -9.6082  -18.2557    6.2082 H   0  0  0  0  0  0  0  0  0  0  0  0
   -9.5201  -16.6939    4.2526 H   0  0  0  0  0  0  0  0  0  0  0  0
   -7.8119  -14.9009    4.1478 H   0  0  0  0  0  0  0  0  0  0  0  0
   -6.1489  -14.6001    6.0061 H   0  0  0  0  0  0  0  0  0  0  0  0
   -4.5517  -16.0281    7.9836 H   0  0  0  0  0  0  0  0  0  0  0  0
   -4.6685  -13.2924    8.7983 H   0  0  0  0  0  0  0  0  0  0  0  0
   -6.2113  -13.3389    8.9998 H   0  0  0  0  0  0  0  0  0  0  0  0
   -3.9990  -15.0230   10.6091 H   0  0  0  0  0  0  0  0  0  0  0  0
   -5.4251  -15.3719   11.1270 H   0  0  0  0  0  0  0  0  0  0  0  0
  1  2  1  0
  2  3  2  0
  3  4  1  0
  4  5  1  0
  5  6  2  0
  6  7  1  0
  7  8  2  0
  8  9  1  0
  9 10  2  0
 10 11  1  0
 11 12  2  0
 12 13  1  0
 13 14  2  0
 14 15  1  0
 15 16  1  0
 16 17  1  0
 17 18  1  0
  6  2  1  0
 15  7  1  0
 18 16  1  0
 14  9  1  0
  1 19  1  0
  1 20  1  0
 10 21  1  0
 11 22  1  0
 12 23  1  0
 13 24  1  0
 16 25  1  0
 17 26  1  0
 17 27  1  0
 18 28  1  0
 18 29  1  0
M  END
>  <meeko>  (7) 
{"is_sidechain": [false], "free_energy": -6.08, "intermolecular_energy": -6.643, "internal_energy": -0.17}

$$$$
LIB_YJNUPBNOZDKQMS__M_PUB_ALL__e8__s20260927
     RDKit          3D

 29 32  0  0  0  0  0  0  0  0999 V2000
    1.0260  -10.5580   -0.1330 N   0  0  0  0  0  0  0  0  0  0  0  0
    0.2370  -10.0210    0.8130 C   0  0  0  0  0  0  0  0  0  0  0  0
    0.3020   -8.7630    1.2420 N   0  0  0  0  0  0  0  0  0  0  0  0
   -0.6940   -8.6570    2.2060 O   0  0  0  0  0  0  0  0  0  0  0  0
   -1.3760   -9.8600    2.3700 N   0  0  0  0  0  0  0  0  0  0  0  0
   -0.7910  -10.6980    1.5120 C   0  0  0  0  0  0  0  0  0  0  0  0
   -1.2060  -12.1930    1.3070 C   0  0  0  0  0  0  0  0  0  0  0  0
   -0.3640  -13.1990    1.4940 N   0  0  0  0  0  0  0  0  0  0  0  0
   -1.0540  -14.3290    1.1260 C   0  0  0  0  0  0  0  0  0  0  0  0
   -0.6190  -15.6630    1.0980 C   0  0  0  0  0  0  0  0  0  0  0  0
   -1.5040  -16.6520    0.6540 C   0  0  0  0  0  0  0  0  0  0  0  0
   -2.7960  -16.3210    0.2440 C   0  0  0  0  0  0  0  0  0  0  0  0
   -3.2490  -14.9970    0.2690 C   0  0  0  0  0  0  0  0  0  0  0  0
   -2.3510  -14.0230    0.7260 C   0  0  0  0  0  0  0  0  0  0  0  0
   -2.4320  -12.6650    0.9070 N   0  0  0  0  0  0  0  0  0  0  0  0
   -3.6460  -11.8540    0.6480 C   0  0  0  0  0  0  0  0  0  0  0  0
   -3.6660  -10.6900   -0.3200 C   0  0  0  0  0  0  0  0  0  0  0  0
   -4.4080  -11.9440   -0.6560 C   0  0  0  0  0  0  0  0  0  0  0  0
    0.6300  -10.9590   -0.9840 H   0  0  0  0  0  0  0  0  0  0  0  0
    2.0330  -10.5770   -0.0420 H   0  0  0  0  0  0  0  0  0  0  0  0
    0.3995  -15.9265    1.4193 H   0  0  0  0  0  0  0  0  0  0  0  0
   -1.1774  -17.7021    0.6279 H   0  0  0  0  0  0  0  0  0  0  0  0
   -3.4714  -17.1158   -0.1055 H   0  0  0  0  0  0  0  0  0  0  0  0
   -4.2660  -14.7323   -0.0560 H   0  0  0  0  0  0  0  0  0  0  0  0
   -3.8884  -11.9844    1.7130 H   0  0  0  0  0  0  0  0  0  0  0  0
   -4.2211   -9.7748   -0.0667 H   0  0  0  0  0  0  0  0  0  0  0  0
   -2.8964  -10.0858   -0.8226 H   0  0  0  0  0  0  0  0  0  0  0  0
   -5.5080  -11.9493   -0.6496 H   0  0  0  0  0  0  0  0  0  0  0  0
   -4.4079  -12.6404   -1.5075 H   0  0  0  0  0  0  0  0  0  0  0  0
  1  2  1  0
  2  3  2  0
  3  4  1  0
  4  5  1  0
  5  6  2  0
  6  7  1  0
  7  8  2  0
  8  9  1  0
  9 10  2  0
 10 11  1  0
 11 12  2  0
 12 13  1  0
 13 14  2  0
 14 15  1  0
 15 16  1  0
 16 17  1  0
 17 18  1  0
  6  2  1  0
 15  7  1  0
 18 16  1  0
 14  9  1  0
  1 19  1  0
  1 20  1  0
 10 21  1  0
 11 22  1  0
 12 23  1  0
 13 24  1  0
 16 25  1  0
 17 26  1  0
 17 27  1  0
 18 28  1  0
 18 29  1  0
M  END
>  <meeko>  (8) 
{"is_sidechain": [false], "free_energy": -5.993, "intermolecular_energy": -6.56, "internal_energy": -0.154}

$$$$
LIB_YJNUPBNOZDKQMS__M_PUB_ALL__e8__s20260927
     RDKit          3D

 29 32  0  0  0  0  0  0  0  0999 V2000
   -8.3530  -22.3380    8.2570 N   0  0  0  0  0  0  0  0  0  0  0  0
   -9.5520  -21.9660    7.7760 C   0  0  0  0  0  0  0  0  0  0  0  0
   -9.7550  -21.3530    6.6110 N   0  0  0  0  0  0  0  0  0  0  0  0
  -11.1320  -21.1720    6.5330 O   0  0  0  0  0  0  0  0  0  0  0  0
  -11.7780  -21.6780    7.6570 N   0  0  0  0  0  0  0  0  0  0  0  0
  -10.7960  -22.1590    8.4220 C   0  0  0  0  0  0  0  0  0  0  0  0
  -11.0090  -22.8480    9.8110 C   0  0  0  0  0  0  0  0  0  0  0  0
  -10.4230  -22.4180   10.9190 N   0  0  0  0  0  0  0  0  0  0  0  0
  -10.7680  -23.3230   11.8930 C   0  0  0  0  0  0  0  0  0  0  0  0
  -10.3890  -23.3580   13.2440 C   0  0  0  0  0  0  0  0  0  0  0  0
  -10.8510  -24.4080   14.0470 C   0  0  0  0  0  0  0  0  0  0  0  0
  -11.6710  -25.4040   13.5160 C   0  0  0  0  0  0  0  0  0  0  0  0
  -12.0630  -25.3830   12.1740 C   0  0  0  0  0  0  0  0  0  0  0  0
  -11.5990  -24.3190   11.3880 C   0  0  0  0  0  0  0  0  0  0  0  0
  -11.7770  -23.9560   10.0770 N   0  0  0  0  0  0  0  0  0  0  0  0
  -12.6240  -24.6930    9.1090 C   0  0  0  0  0  0  0  0  0  0  0  0
  -12.0500  -25.5790    8.0230 C   0  0  0  0  0  0  0  0  0  0  0  0
  -12.7870  -26.1960    9.1680 C   0  0  0  0  0  0  0  0  0  0  0  0
   -8.2190  -23.2540    8.6850 H   0  0  0  0  0  0  0  0  0  0  0  0
   -7.5450  -21.7330    8.2030 H   0  0  0  0  0  0  0  0  0  0  0  0
   -9.7409  -22.5749   13.6643 H   0  0  0  0  0  0  0  0  0  0  0  0
  -10.5642  -24.4480   15.1082 H   0  0  0  0  0  0  0  0  0  0  0  0
  -12.0159  -26.2218   14.1658 H   0  0  0  0  0  0  0  0  0  0  0  0
  -12.7081  -26.1681   11.7528 H   0  0  0  0  0  0  0  0  0  0  0  0
  -13.3000  -23.8255    9.1291 H   0  0  0  0  0  0  0  0  0  0  0  0
  -12.4985  -25.5769    7.0186 H   0  0  0  0  0  0  0  0  0  0  0  0
  -11.0528  -25.7147    7.5789 H   0  0  0  0  0  0  0  0  0  0  0  0
  -13.7766  -26.6475    9.0042 H   0  0  0  0  0  0  0  0  0  0  0  0
  -12.5539  -26.9723    9.9117 H   0  0  0  0  0  0  0  0  0  0  0  0
  1  2  1  0
  2  3  2  0
  3  4  1  0
  4  5  1  0
  5  6  2  0
  6  7  1  0
  7  8  2  0
  8  9  1  0
  9 10  2  0
 10 11  1  0
 11 12  2  0
 12 13  1  0
 13 14  2  0
 14 15  1  0
 15 16  1  0
 16 17  1  0
 17 18  1  0
  6  2  1  0
 15  7  1  0
 18 16  1  0
 14  9  1  0
  1 19  1  0
  1 20  1  0
 10 21  1  0
 11 22  1  0
 12 23  1  0
 13 24  1  0
 16 25  1  0
 17 26  1  0
 17 27  1  0
 18 28  1  0
 18 29  1  0
M  END
>  <meeko>  (9) 
{"is_sidechain": [false], "free_energy": -5.928, "intermolecular_energy": -6.468, "internal_energy": -0.171}

$$$$
