LIB_XUBGGMQPGQRZMO__M_PUB_ALL__e8__s20260927
     RDKit          3D

 53 55  0  0  0  0  0  0  0  0999 V2000
  -12.6920  -15.3370    8.8100 C   0  0  0  0  0  0  0  0  0  0  0  0
  -11.4070  -15.2510    8.4410 C   0  0  0  0  0  0  0  0  0  0  0  0
  -10.5740  -16.4020    7.9650 C   0  0  0  0  0  0  0  0  0  0  0  0
   -9.2360  -16.1680    8.4000 O   0  0  0  0  0  0  0  0  0  0  0  0
   -8.3570  -15.6710    7.4770 C   0  0  0  0  0  0  0  0  0  0  0  0
   -7.3490  -14.7380    7.7220 C   0  0  0  0  0  0  0  0  0  0  0  0
   -6.5150  -14.3150    6.6800 C   0  0  0  0  0  0  0  0  0  0  0  0
   -6.6810  -14.8240    5.3880 C   0  0  0  0  0  0  0  0  0  0  0  0
   -5.8140  -14.3860    4.2910 C   0  0  0  0  0  0  0  0  0  0  0  0
   -4.6780  -15.0040    3.9110 C   0  0  0  0  0  0  0  0  0  0  0  0
   -4.1440  -16.2710    4.5130 C   0  0  0  0  0  0  0  0  0  0  0  0
   -3.9590  -14.3790    2.7520 C   0  0  0  0  0  0  0  0  0  0  0  0
   -4.4570  -13.4790    2.0880 O   0  0  0  0  0  0  0  0  0  0  0  0
   -2.7230  -14.8970    2.4850 N   0  0  0  0  0  0  0  0  0  0  0  0
   -1.7320  -14.3880    1.5120 C   0  0  2  0  0  0  0  0  0  0  0  0
   -1.8980  -14.7940    0.0270 C   0  0  2  0  0  0  0  0  0  0  0  0
   -3.0600  -14.2650   -0.6140 O   0  0  0  0  0  0  0  0  0  0  0  0
   -1.8580  -16.3170   -0.1380 C   0  0  1  0  0  0  0  0  0  0  0  0
   -2.0320  -16.6640   -1.5160 O   0  0  0  0  0  0  0  0  0  0  0  0
   -0.5450  -16.8940    0.3970 C   0  0  1  0  0  0  0  0  0  0  0  0
    0.6090  -16.4650   -0.3430 O   0  0  0  0  0  0  0  0  0  0  0  0
    1.6960  -16.7310    0.5460 C   0  0  0  0  0  0  0  0  0  0  0  0
    1.2150  -16.7250    1.9000 O   0  0  0  0  0  0  0  0  0  0  0  0
   -0.1860  -16.4130    1.7870 C   0  0  1  0  0  0  0  0  0  0  0  0
   -0.3450  -14.8860    1.9760 C   0  0  2  0  0  0  0  0  0  0  0  0
   -0.1690  -14.5820    3.3730 O   0  0  0  0  0  0  0  0  0  0  0  0
   -7.6940  -15.7520    5.1420 C   0  0  0  0  0  0  0  0  0  0  0  0
   -8.5240  -16.1730    6.1850 C   0  0  0  0  0  0  0  0  0  0  0  0
  -13.2286  -14.4381    9.1475 H   0  0  0  0  0  0  0  0  0  0  0  0
  -13.2104  -16.3065    8.7754 H   0  0  0  0  0  0  0  0  0  0  0  0
  -10.9279  -14.2621    8.4912 H   0  0  0  0  0  0  0  0  0  0  0  0
  -10.9504  -17.3419    8.3951 H   0  0  0  0  0  0  0  0  0  0  0  0
  -10.6173  -16.4861    6.8691 H   0  0  0  0  0  0  0  0  0  0  0  0
   -7.2093  -14.3341    8.7356 H   0  0  0  0  0  0  0  0  0  0  0  0
   -5.7237  -13.5772    6.8789 H   0  0  0  0  0  0  0  0  0  0  0  0
   -6.1128  -13.4847    3.7356 H   0  0  0  0  0  0  0  0  0  0  0  0
   -4.1751  -16.1972    5.6101 H   0  0  0  0  0  0  0  0  0  0  0  0
   -4.7604  -17.1210    4.1851 H   0  0  0  0  0  0  0  0  0  0  0  0
   -3.1051  -16.4233    4.1851 H   0  0  0  0  0  0  0  0  0  0  0  0
   -2.3040  -15.4940    3.1910 H   0  0  0  0  0  0  0  0  0  0  0  0
   -1.8736  -13.2972    1.5131 H   0  0  0  0  0  0  0  0  0  0  0  0
   -1.0372  -14.3366   -0.4827 H   0  0  0  0  0  0  0  0  0  0  0  0
   -3.3800  -13.5010   -0.0820 H   0  0  0  0  0  0  0  0  0  0  0  0
   -2.6814  -16.7513    0.4480 H   0  0  0  0  0  0  0  0  0  0  0  0
   -2.4620  -17.5430   -1.5100 H   0  0  0  0  0  0  0  0  0  0  0  0
   -0.7437  -17.9743    0.3389 H   0  0  0  0  0  0  0  0  0  0  0  0
    2.1279  -17.7157    0.3139 H   0  0  0  0  0  0  0  0  0  0  0  0
    2.4680  -15.9566    0.4259 H   0  0  0  0  0  0  0  0  0  0  0  0
   -0.8440  -16.8835    2.5325 H   0  0  0  0  0  0  0  0  0  0  0  0
    0.4110  -14.3760    1.3609 H   0  0  0  0  0  0  0  0  0  0  0  0
   -0.0570  -13.6110    3.4190 H   0  0  0  0  0  0  0  0  0  0  0  0
   -7.8392  -16.1520    4.1276 H   0  0  0  0  0  0  0  0  0  0  0  0
   -9.3176  -16.9081    5.9856 H   0  0  0  0  0  0  0  0  0  0  0  0
  1  2  2  0
  2  3  1  0
  3  4  1  0
  4  5  1  0
  5  6  2  0
  6  7  1  0
  7  8  2  0
  8  9  1  0
  9 10  2  0
 10 11  1  0
 10 12  1  0
 12 13  2  0
 12 14  1  0
 14 15  1  0
 15 16  1  0
 16 17  1  0
 16 18  1  0
 18 19  1  0
 18 20  1  0
 20 21  1  0
 21 22  1  0
 22 23  1  0
 23 24  1  0
 24 25  1  0
 25 26  1  0
  8 27  1  0
 27 28  2  0
 28  5  1  0
 25 15  1  0
 24 20  1  0
  1 29  1  0
  1 30  1  0
  2 31  1  0
  3 32  1  0
  3 33  1  0
  6 34  1  0
  7 35  1  0
  9 36  1  0
 11 37  1  0
 11 38  1  0
 11 39  1  0
 14 40  1  0
 15 41  1  6
 16 42  1  6
 17 43  1  0
 18 44  1  1
 19 45  1  0
 20 46  1  1
 22 47  1  0
 22 48  1  0
 24 49  1  1
 25 50  1  6
 26 51  1  0
 27 52  1  0
 28 53  1  0
M  END
>  <meeko>  (1) 
{"is_sidechain": [false], "free_energy": -7.279, "intermolecular_energy": -10.47, "internal_energy": -1.121}

$$$$
LIB_XUBGGMQPGQRZMO__M_PUB_ALL__e8__s20260927
     RDKit          3D

 53 55  0  0  0  0  0  0  0  0999 V2000
    0.7000  -14.3360   -4.9600 C   0  0  0  0  0  0  0  0  0  0  0  0
    1.8470  -13.7990   -4.5210 C   0  0  0  0  0  0  0  0  0  0  0  0
    2.1000  -12.3290   -4.3660 C   0  0  0  0  0  0  0  0  0  0  0  0
    2.2150  -12.0630   -2.9700 O   0  0  0  0  0  0  0  0  0  0  0  0
    3.4420  -12.2560   -2.3960 C   0  0  0  0  0  0  0  0  0  0  0  0
    3.7210  -13.0900   -1.3130 C   0  0  0  0  0  0  0  0  0  0  0  0
    5.0300  -13.1940   -0.8260 C   0  0  0  0  0  0  0  0  0  0  0  0
    6.0680  -12.4710   -1.4210 C   0  0  0  0  0  0  0  0  0  0  0  0
    7.4400  -12.5730   -0.9190 C   0  0  0  0  0  0  0  0  0  0  0  0
    7.9480  -11.8420    0.0940 C   0  0  0  0  0  0  0  0  0  0  0  0
    7.1770  -10.8440    0.9060 C   0  0  0  0  0  0  0  0  0  0  0  0
    9.3790  -12.1260    0.4420 C   0  0  0  0  0  0  0  0  0  0  0  0
    9.7630  -12.1990    1.6030 O   0  0  0  0  0  0  0  0  0  0  0  0
   10.2190  -12.2810   -0.6240 N   0  0  0  0  0  0  0  0  0  0  0  0
   11.6340  -12.7110   -0.5930 C   0  0  2  0  0  0  0  0  0  0  0  0
   12.6650  -11.8750   -1.3910 C   0  0  2  0  0  0  0  0  0  0  0  0
   12.8730  -10.5500   -0.8980 O   0  0  0  0  0  0  0  0  0  0  0  0
   12.3060  -11.8280   -2.8790 C   0  0  1  0  0  0  0  0  0  0  0  0
   13.2640  -11.0350   -3.5880 O   0  0  0  0  0  0  0  0  0  0  0  0
   12.2340  -13.2370   -3.4730 C   0  0  1  0  0  0  0  0  0  0  0  0
   13.4990  -13.9190   -3.4730 O   0  0  0  0  0  0  0  0  0  0  0  0
   13.1390  -15.2940   -3.6330 C   0  0  0  0  0  0  0  0  0  0  0  0
   11.8010  -15.4940   -3.1480 O   0  0  0  0  0  0  0  0  0  0  0  0
   11.3920  -14.2010   -2.6640 C   0  0  1  0  0  0  0  0  0  0  0  0
   11.6810  -14.1530   -1.1450 C   0  0  2  0  0  0  0  0  0  0  0  0
   10.6930  -14.9570   -0.4710 O   0  0  0  0  0  0  0  0  0  0  0  0
    5.7870  -11.6320   -2.5020 C   0  0  0  0  0  0  0  0  0  0  0  0
    4.4800  -11.5310   -2.9850 C   0  0  0  0  0  0  0  0  0  0  0  0
    0.6005  -15.4283   -5.0431 H   0  0  0  0  0  0  0  0  0  0  0  0
   -0.1417  -13.6844   -5.2372 H   0  0  0  0  0  0  0  0  0  0  0  0
    2.6628  -14.4872   -4.2548 H   0  0  0  0  0  0  0  0  0  0  0  0
    3.0320  -12.0513   -4.8801 H   0  0  0  0  0  0  0  0  0  0  0  0
    1.2795  -11.7442   -4.8074 H   0  0  0  0  0  0  0  0  0  0  0  0
    2.9119  -13.6666   -0.8410 H   0  0  0  0  0  0  0  0  0  0  0  0
    5.2430  -13.8496    0.0312 H   0  0  0  0  0  0  0  0  0  0  0  0
    8.1065  -13.3008   -1.4049 H   0  0  0  0  0  0  0  0  0  0  0  0
    7.3318  -11.0443    1.9765 H   0  0  0  0  0  0  0  0  0  0  0  0
    7.5277   -9.8288    0.6685 H   0  0  0  0  0  0  0  0  0  0  0  0
    6.1062  -10.9270    0.6685 H   0  0  0  0  0  0  0  0  0  0  0  0
    9.7960  -12.4030   -1.5390 H   0  0  0  0  0  0  0  0  0  0  0  0
   11.9400  -12.5900    0.4566 H   0  0  0  0  0  0  0  0  0  0  0  0
   13.6192  -12.4038   -1.2501 H   0  0  0  0  0  0  0  0  0  0  0  0
   12.0470  -10.0360   -1.0470 H   0  0  0  0  0  0  0  0  0  0  0  0
   11.3124  -11.3673   -2.9815 H   0  0  0  0  0  0  0  0  0  0  0  0
   14.1160  -11.5070   -3.4890 H   0  0  0  0  0  0  0  0  0  0  0  0
   11.8307  -13.0297   -4.4752 H   0  0  0  0  0  0  0  0  0  0  0  0
   13.1883  -15.5653   -4.6979 H   0  0  0  0  0  0  0  0  0  0  0  0
   13.8359  -15.9262   -3.0632 H   0  0  0  0  0  0  0  0  0  0  0  0
   10.3246  -13.9616   -2.7799 H   0  0  0  0  0  0  0  0  0  0  0  0
   12.6954  -14.5401   -0.9687 H   0  0  0  0  0  0  0  0  0  0  0  0
   10.8260  -14.7910    0.4840 H   0  0  0  0  0  0  0  0  0  0  0  0
    6.5941  -11.0514   -2.9725 H   0  0  0  0  0  0  0  0  0  0  0  0
    4.2660  -10.8724   -3.8396 H   0  0  0  0  0  0  0  0  0  0  0  0
  1  2  2  0
  2  3  1  0
  3  4  1  0
  4  5  1  0
  5  6  2  0
  6  7  1  0
  7  8  2  0
  8  9  1  0
  9 10  2  0
 10 11  1  0
 10 12  1  0
 12 13  2  0
 12 14  1  0
 14 15  1  0
 15 16  1  0
 16 17  1  0
 16 18  1  0
 18 19  1  0
 18 20  1  0
 20 21  1  0
 21 22  1  0
 22 23  1  0
 23 24  1  0
 24 25  1  0
 25 26  1  0
  8 27  1  0
 27 28  2  0
 28  5  1  0
 25 15  1  0
 24 20  1  0
  1 29  1  0
  1 30  1  0
  2 31  1  0
  3 32  1  0
  3 33  1  0
  6 34  1  0
  7 35  1  0
  9 36  1  0
 11 37  1  0
 11 38  1  0
 11 39  1  0
 14 40  1  0
 15 41  1  1
 16 42  1  6
 17 43  1  0
 18 44  1  1
 19 45  1  0
 20 46  1  6
 22 47  1  0
 22 48  1  0
 24 49  1  1
 25 50  1  6
 26 51  1  0
 27 52  1  0
 28 53  1  0
M  END
>  <meeko>  (2) 
{"is_sidechain": [false], "free_energy": -7.152, "intermolecular_energy": -10.386, "internal_energy": -1.022}

$$$$
LIB_XUBGGMQPGQRZMO__M_PUB_ALL__e8__s20260927
     RDKit          3D

 53 55  0  0  0  0  0  0  0  0999 V2000
  -12.5790  -15.5140    8.6410 C   0  0  0  0  0  0  0  0  0  0  0  0
  -11.4130  -15.2880    8.0210 C   0  0  0  0  0  0  0  0  0  0  0  0
  -10.1070  -15.9230    8.3950 C   0  0  0  0  0  0  0  0  0  0  0  0
   -9.7300  -16.7840    7.3230 O   0  0  0  0  0  0  0  0  0  0  0  0
   -8.6270  -16.4290    6.5960 C   0  0  0  0  0  0  0  0  0  0  0  0
   -8.6230  -15.9760    5.2760 C   0  0  0  0  0  0  0  0  0  0  0  0
   -7.4140  -15.6440    4.6510 C   0  0  0  0  0  0  0  0  0  0  0  0
   -6.2040  -15.7580    5.3410 C   0  0  0  0  0  0  0  0  0  0  0  0
   -4.9350  -15.4150    4.6960 C   0  0  0  0  0  0  0  0  0  0  0  0
   -4.0600  -16.3070    4.1900 C   0  0  0  0  0  0  0  0  0  0  0  0
   -4.2670  -17.7920    4.1560 C   0  0  0  0  0  0  0  0  0  0  0  0
   -2.8280  -15.7210    3.5650 C   0  0  0  0  0  0  0  0  0  0  0  0
   -1.7050  -16.1230    3.8420 O   0  0  0  0  0  0  0  0  0  0  0  0
   -3.0490  -14.7010    2.6840 N   0  0  0  0  0  0  0  0  0  0  0  0
   -2.0540  -14.0390    1.8130 C   0  0  2  0  0  0  0  0  0  0  0  0
   -1.1580  -12.9410    2.4390 C   0  0  2  0  0  0  0  0  0  0  0  0
   -0.2420  -13.4070    3.4310 O   0  0  0  0  0  0  0  0  0  0  0  0
   -2.0030  -11.7950    3.0040 C   0  0  1  0  0  0  0  0  0  0  0  0
   -1.1520  -10.8040    3.5910 O   0  0  0  0  0  0  0  0  0  0  0  0
   -2.8800  -11.1690    1.9170 C   0  0  1  0  0  0  0  0  0  0  0  0
   -2.1250  -10.5250    0.8770 O   0  0  0  0  0  0  0  0  0  0  0  0
   -3.0600  -10.4180   -0.1990 C   0  0  0  0  0  0  0  0  0  0  0  0
   -4.0600  -11.4410   -0.0640 O   0  0  0  0  0  0  0  0  0  0  0  0
   -3.6690  -12.1790    1.1100 C   0  0  1  0  0  0  0  0  0  0  0  0
   -2.8310  -13.3930    0.6450 C   0  0  2  0  0  0  0  0  0  0  0  0
   -3.7240  -14.3650    0.0680 O   0  0  0  0  0  0  0  0  0  0  0  0
   -6.2080  -16.2170    6.6600 C   0  0  0  0  0  0  0  0  0  0  0  0
   -7.4160  -16.5470    7.2810 C   0  0  0  0  0  0  0  0  0  0  0  0
  -13.4916  -15.0036    8.2994 H   0  0  0  0  0  0  0  0  0  0  0  0
  -12.6238  -16.2100    9.4916 H   0  0  0  0  0  0  0  0  0  0  0  0
  -11.4137  -14.5847    7.1752 H   0  0  0  0  0  0  0  0  0  0  0  0
   -9.3405  -15.1479    8.5423 H   0  0  0  0  0  0  0  0  0  0  0  0
  -10.2047  -16.4896    9.3327 H   0  0  0  0  0  0  0  0  0  0  0  0
   -9.5705  -15.8795    4.7256 H   0  0  0  0  0  0  0  0  0  0  0  0
   -7.4171  -15.2909    3.6092 H   0  0  0  0  0  0  0  0  0  0  0  0
   -4.6760  -14.3487    4.6185 H   0  0  0  0  0  0  0  0  0  0  0  0
   -4.3209  -18.1783    5.1845 H   0  0  0  0  0  0  0  0  0  0  0  0
   -5.2055  -18.0194    3.6293 H   0  0  0  0  0  0  0  0  0  0  0  0
   -3.4264  -18.2674    3.6293 H   0  0  0  0  0  0  0  0  0  0  0  0
   -4.0020  -14.5610    2.3610 H   0  0  0  0  0  0  0  0  0  0  0  0
   -1.3511  -14.8380    1.5345 H   0  0  0  0  0  0  0  0  0  0  0  0
   -0.5397  -12.5780    1.6048 H   0  0  0  0  0  0  0  0  0  0  0  0
    0.0950  -14.2860    3.1450 H   0  0  0  0  0  0  0  0  0  0  0  0
   -2.6671  -12.2041    3.7797 H   0  0  0  0  0  0  0  0  0  0  0  0
   -1.6220   -9.9540    3.4720 H   0  0  0  0  0  0  0  0  0  0  0  0
   -3.5070  -10.4871    2.5102 H   0  0  0  0  0  0  0  0  0  0  0  0
   -3.5404   -9.4288   -0.1711 H   0  0  0  0  0  0  0  0  0  0  0  0
   -2.5341  -10.5416   -1.1572 H   0  0  0  0  0  0  0  0  0  0  0  0
   -4.4911  -12.5885    1.7153 H   0  0  0  0  0  0  0  0  0  0  0  0
   -2.0914  -13.0470   -0.0921 H   0  0  0  0  0  0  0  0  0  0  0  0
   -4.4930  -14.4070    0.6720 H   0  0  0  0  0  0  0  0  0  0  0  0
   -5.2608  -16.3188    7.2100 H   0  0  0  0  0  0  0  0  0  0  0  0
   -7.4126  -16.9038    8.3215 H   0  0  0  0  0  0  0  0  0  0  0  0
  1  2  2  0
  2  3  1  0
  3  4  1  0
  4  5  1  0
  5  6  2  0
  6  7  1  0
  7  8  2  0
  8  9  1  0
  9 10  2  0
 10 11  1  0
 10 12  1  0
 12 13  2  0
 12 14  1  0
 14 15  1  0
 15 16  1  0
 16 17  1  0
 16 18  1  0
 18 19  1  0
 18 20  1  0
 20 21  1  0
 21 22  1  0
 22 23  1  0
 23 24  1  0
 24 25  1  0
 25 26  1  0
  8 27  1  0
 27 28  2  0
 28  5  1  0
 25 15  1  0
 24 20  1  0
  1 29  1  0
  1 30  1  0
  2 31  1  0
  3 32  1  0
  3 33  1  0
  6 34  1  0
  7 35  1  0
  9 36  1  0
 11 37  1  0
 11 38  1  0
 11 39  1  0
 14 40  1  0
 15 41  1  6
 16 42  1  6
 17 43  1  0
 18 44  1  1
 19 45  1  0
 20 46  1  1
 22 47  1  0
 22 48  1  0
 24 49  1  1
 25 50  1  6
 26 51  1  0
 27 52  1  0
 28 53  1  0
M  END
>  <meeko>  (3) 
{"is_sidechain": [false], "free_energy": -6.826, "intermolecular_energy": -9.808, "internal_energy": -1.132}

$$$$
LIB_XUBGGMQPGQRZMO__M_PUB_ALL__e8__s20260927
     RDKit          3D

 53 55  0  0  0  0  0  0  0  0999 V2000
   19.0770   -6.6060    9.6320 C   0  0  0  0  0  0  0  0  0  0  0  0
   18.3310   -6.7500   10.7360 C   0  0  0  0  0  0  0  0  0  0  0  0
   16.9240   -6.2540   10.8880 C   0  0  0  0  0  0  0  0  0  0  0  0
   16.4210   -6.7750   12.1170 O   0  0  0  0  0  0  0  0  0  0  0  0
   15.8490   -8.0170   12.0810 C   0  0  0  0  0  0  0  0  0  0  0  0
   16.3940   -9.1880   12.6090 C   0  0  0  0  0  0  0  0  0  0  0  0
   15.6950  -10.3970   12.5040 C   0  0  0  0  0  0  0  0  0  0  0  0
   14.4480  -10.4430   11.8740 C   0  0  0  0  0  0  0  0  0  0  0  0
   13.7110  -11.7040   11.7570 C   0  0  0  0  0  0  0  0  0  0  0  0
   12.8420  -12.1770   12.6730 C   0  0  0  0  0  0  0  0  0  0  0  0
   12.4470  -11.4660   13.9340 C   0  0  0  0  0  0  0  0  0  0  0  0
   12.1960  -13.4880   12.3340 C   0  0  0  0  0  0  0  0  0  0  0  0
   11.1680  -13.5540   11.6710 O   0  0  0  0  0  0  0  0  0  0  0  0
   12.8260  -14.5940   12.8300 N   0  0  0  0  0  0  0  0  0  0  0  0
   12.5100  -16.0090   12.5380 C   0  0  2  0  0  0  0  0  0  0  0  0
   11.1530  -16.5680   13.0330 C   0  0  2  0  0  0  0  0  0  0  0  0
   10.0040  -15.9980   12.4040 O   0  0  0  0  0  0  0  0  0  0  0  0
   11.0290  -16.4480   14.5560 C   0  0  1  0  0  0  0  0  0  0  0  0
    9.7590  -16.9540   14.9830 O   0  0  0  0  0  0  0  0  0  0  0  0
   12.1650  -17.1910   15.2610 C   0  0  1  0  0  0  0  0  0  0  0  0
   12.1330  -18.6120   15.0510 O   0  0  0  0  0  0  0  0  0  0  0  0
   13.4570  -19.0320   15.3910 C   0  0  0  0  0  0  0  0  0  0  0  0
   14.3650  -17.9330   15.2140 O   0  0  0  0  0  0  0  0  0  0  0  0
   13.5410  -16.8570   14.7250 C   0  0  1  0  0  0  0  0  0  0  0  0
   13.6250  -16.8640   13.1810 C   0  0  2  0  0  0  0  0  0  0  0  0
   14.9120  -16.3430   12.7950 O   0  0  0  0  0  0  0  0  0  0  0  0
   13.9070   -9.2720   11.3400 C   0  0  0  0  0  0  0  0  0  0  0  0
   14.6060   -8.0670   11.4480 C   0  0  0  0  0  0  0  0  0  0  0  0
   20.1031   -7.0015    9.6061 H   0  0  0  0  0  0  0  0  0  0  0  0
   18.6632   -6.0923    8.7517 H   0  0  0  0  0  0  0  0  0  0  0  0
   18.7838   -7.2699   11.5931 H   0  0  0  0  0  0  0  0  0  0  0  0
   16.9131   -5.1543   10.9128 H   0  0  0  0  0  0  0  0  0  0  0  0
   16.3019   -6.5822   10.0423 H   0  0  0  0  0  0  0  0  0  0  0  0
   17.3738   -9.1615   13.1083 H   0  0  0  0  0  0  0  0  0  0  0  0
   16.1305  -11.3173   12.9204 H   0  0  0  0  0  0  0  0  0  0  0  0
   13.8792  -12.3100   10.8545 H   0  0  0  0  0  0  0  0  0  0  0  0
   12.7737  -12.0541   14.8043 H   0  0  0  0  0  0  0  0  0  0  0  0
   12.9240  -10.4752   13.9611 H   0  0  0  0  0  0  0  0  0  0  0  0
   11.3537  -11.3475   13.9611 H   0  0  0  0  0  0  0  0  0  0  0  0
   13.7660  -14.4730   13.1940 H   0  0  0  0  0  0  0  0  0  0  0  0
   12.4405  -16.0590   11.4413 H   0  0  0  0  0  0  0  0  0  0  0  0
   11.1645  -17.6275   12.7375 H   0  0  0  0  0  0  0  0  0  0  0  0
   10.1490  -16.0180   11.4310 H   0  0  0  0  0  0  0  0  0  0  0  0
   11.1022  -15.3847   14.8279 H   0  0  0  0  0  0  0  0  0  0  0  0
    9.1520  -16.1870   14.9560 H   0  0  0  0  0  0  0  0  0  0  0  0
   12.0086  -16.8838   16.3056 H   0  0  0  0  0  0  0  0  0  0  0  0
   13.4796  -19.3618   16.4402 H   0  0  0  0  0  0  0  0  0  0  0  0
   13.7572  -19.8660   14.7396 H   0  0  0  0  0  0  0  0  0  0  0  0
   13.8351  -15.8457   15.0424 H   0  0  0  0  0  0  0  0  0  0  0  0
   13.4933  -17.8973   12.8275 H   0  0  0  0  0  0  0  0  0  0  0  0
   15.3690  -17.0810   12.3430 H   0  0  0  0  0  0  0  0  0  0  0  0
   12.9305   -9.2980   10.8343 H   0  0  0  0  0  0  0  0  0  0  0  0
   14.1717   -7.1472   11.0293 H   0  0  0  0  0  0  0  0  0  0  0  0
  1  2  2  0
  2  3  1  0
  3  4  1  0
  4  5  1  0
  5  6  2  0
  6  7  1  0
  7  8  2  0
  8  9  1  0
  9 10  2  0
 10 11  1  0
 10 12  1  0
 12 13  2  0
 12 14  1  0
 14 15  1  0
 15 16  1  0
 16 17  1  0
 16 18  1  0
 18 19  1  0
 18 20  1  0
 20 21  1  0
 21 22  1  0
 22 23  1  0
 23 24  1  0
 24 25  1  0
 25 26  1  0
  8 27  1  0
 27 28  2  0
 28  5  1  0
 25 15  1  0
 24 20  1  0
  1 29  1  0
  1 30  1  0
  2 31  1  0
  3 32  1  0
  3 33  1  0
  6 34  1  0
  7 35  1  0
  9 36  1  0
 11 37  1  0
 11 38  1  0
 11 39  1  0
 14 40  1  0
 15 41  1  6
 16 42  1  1
 17 43  1  0
 18 44  1  6
 19 45  1  0
 20 46  1  1
 22 47  1  0
 22 48  1  0
 24 49  1  1
 25 50  1  6
 26 51  1  0
 27 52  1  0
 28 53  1  0
M  END
>  <meeko>  (4) 
{"is_sidechain": [false], "free_energy": -6.814, "intermolecular_energy": -9.865, "internal_energy": -1.057}

$$$$
LIB_XUBGGMQPGQRZMO__M_PUB_ALL__e8__s20260927
     RDKit          3D

 53 55  0  0  0  0  0  0  0  0999 V2000
    7.0340  -10.3610  -11.0550 C   0  0  0  0  0  0  0  0  0  0  0  0
    7.0510  -11.6000  -10.5460 C   0  0  0  0  0  0  0  0  0  0  0  0
    6.9590  -12.8600  -11.3550 C   0  0  0  0  0  0  0  0  0  0  0  0
    8.2740  -13.1680  -11.8120 O   0  0  0  0  0  0  0  0  0  0  0  0
    9.2450  -13.3240  -10.8610 C   0  0  0  0  0  0  0  0  0  0  0  0
   10.4260  -12.5870  -10.7630 C   0  0  0  0  0  0  0  0  0  0  0  0
   11.3360  -12.8520   -9.7320 C   0  0  0  0  0  0  0  0  0  0  0  0
   11.0700  -13.8510   -8.7910 C   0  0  0  0  0  0  0  0  0  0  0  0
   12.0160  -14.1360   -7.7100 C   0  0  0  0  0  0  0  0  0  0  0  0
   13.0360  -15.0150   -7.7880 C   0  0  0  0  0  0  0  0  0  0  0  0
   13.4010  -15.8030   -9.0110 C   0  0  0  0  0  0  0  0  0  0  0  0
   13.8820  -15.1340   -6.5550 C   0  0  0  0  0  0  0  0  0  0  0  0
   15.0180  -15.5930   -6.5880 O   0  0  0  0  0  0  0  0  0  0  0  0
   13.2910  -14.7120   -5.3980 N   0  0  0  0  0  0  0  0  0  0  0  0
   13.9250  -14.5710   -4.0700 C   0  0  2  0  0  0  0  0  0  0  0  0
   13.5320  -15.5860   -2.9670 C   0  0  2  0  0  0  0  0  0  0  0  0
   13.9420  -16.9310   -3.2160 O   0  0  0  0  0  0  0  0  0  0  0  0
   12.0260  -15.5410   -2.6860 C   0  0  1  0  0  0  0  0  0  0  0  0
   11.6900  -16.5010   -1.6770 O   0  0  0  0  0  0  0  0  0  0  0  0
   11.5870  -14.1400   -2.2580 C   0  0  1  0  0  0  0  0  0  0  0  0
   12.1560  -13.7220   -1.0070 O   0  0  0  0  0  0  0  0  0  0  0  0
   11.9930  -12.3010   -1.0220 C   0  0  0  0  0  0  0  0  0  0  0  0
   11.9190  -11.8450   -2.3820 O   0  0  0  0  0  0  0  0  0  0  0  0
   12.0780  -13.0380   -3.1740 C   0  0  1  0  0  0  0  0  0  0  0  0
   13.5730  -13.1610   -3.5470 C   0  0  2  0  0  0  0  0  0  0  0  0
   13.8670  -12.1850   -4.5660 O   0  0  0  0  0  0  0  0  0  0  0  0
    9.8910  -14.5920   -8.8920 C   0  0  0  0  0  0  0  0  0  0  0  0
    8.9840  -14.3240   -9.9220 C   0  0  0  0  0  0  0  0  0  0  0  0
    7.1066   -9.4906  -10.3863 H   0  0  0  0  0  0  0  0  0  0  0  0
    6.9474  -10.2140  -12.1417 H   0  0  0  0  0  0  0  0  0  0  0  0
    7.1389  -11.7010   -9.4542 H   0  0  0  0  0  0  0  0  0  0  0  0
    6.5756  -13.6807  -10.7310 H   0  0  0  0  0  0  0  0  0  0  0  0
    6.2727  -12.7279  -12.2044 H   0  0  0  0  0  0  0  0  0  0  0  0
   10.6425  -11.7966  -11.4968 H   0  0  0  0  0  0  0  0  0  0  0  0
   12.2667  -12.2699   -9.6621 H   0  0  0  0  0  0  0  0  0  0  0  0
   11.8848  -13.5921   -6.7629 H   0  0  0  0  0  0  0  0  0  0  0  0
   13.8456  -16.7629   -8.7095 H   0  0  0  0  0  0  0  0  0  0  0  0
   12.4976  -15.9895   -9.6102 H   0  0  0  0  0  0  0  0  0  0  0  0
   14.1275  -15.2345   -9.6102 H   0  0  0  0  0  0  0  0  0  0  0  0
   12.4370  -14.1690   -5.4810 H   0  0  0  0  0  0  0  0  0  0  0  0
   14.9935  -14.7618   -4.2485 H   0  0  0  0  0  0  0  0  0  0  0  0
   14.0912  -15.2601   -2.0776 H   0  0  0  0  0  0  0  0  0  0  0  0
   14.1850  -17.3400   -2.3540 H   0  0  0  0  0  0  0  0  0  0  0  0
   11.4917  -15.7921   -3.6141 H   0  0  0  0  0  0  0  0  0  0  0  0
   10.8660  -16.9280   -1.9900 H   0  0  0  0  0  0  0  0  0  0  0  0
   10.4927  -14.2512   -2.2431 H   0  0  0  0  0  0  0  0  0  0  0  0
   11.0665  -12.0320   -0.4935 H   0  0  0  0  0  0  0  0  0  0  0  0
   12.8499  -11.8269   -0.5210 H   0  0  0  0  0  0  0  0  0  0  0  0
   11.5238  -13.0598   -4.1240 H   0  0  0  0  0  0  0  0  0  0  0  0
   14.1746  -12.9855   -2.6430 H   0  0  0  0  0  0  0  0  0  0  0  0
   13.6900  -12.6340   -5.4180 H   0  0  0  0  0  0  0  0  0  0  0  0
    9.6757  -15.3861   -8.1618 H   0  0  0  0  0  0  0  0  0  0  0  0
    8.0543  -14.9076   -9.9934 H   0  0  0  0  0  0  0  0  0  0  0  0
  1  2  2  0
  2  3  1  0
  3  4  1  0
  4  5  1  0
  5  6  2  0
  6  7  1  0
  7  8  2  0
  8  9  1  0
  9 10  2  0
 10 11  1  0
 10 12  1  0
 12 13  2  0
 12 14  1  0
 14 15  1  0
 15 16  1  0
 16 17  1  0
 16 18  1  0
 18 19  1  0
 18 20  1  0
 20 21  1  0
 21 22  1  0
 22 23  1  0
 23 24  1  0
 24 25  1  0
 25 26  1  0
  8 27  1  0
 27 28  2  0
 28  5  1  0
 25 15  1  0
 24 20  1  0
  1 29  1  0
  1 30  1  0
  2 31  1  0
  3 32  1  0
  3 33  1  0
  6 34  1  0
  7 35  1  0
  9 36  1  0
 11 37  1  0
 11 38  1  0
 11 39  1  0
 14 40  1  0
 15 41  1  6
 16 42  1  1
 17 43  1  0
 18 44  1  6
 19 45  1  0
 20 46  1  1
 22 47  1  0
 22 48  1  0
 24 49  1  6
 25 50  1  1
 26 51  1  0
 27 52  1  0
 28 53  1  0
M  END
>  <meeko>  (5) 
{"is_sidechain": [false], "free_energy": -6.685, "intermolecular_energy": -9.677, "internal_energy": -1.06}

$$$$
LIB_XUBGGMQPGQRZMO__M_PUB_ALL__e8__s20260927
     RDKit          3D

 53 55  0  0  0  0  0  0  0  0999 V2000
   -4.2920  -10.7410   -1.0070 C   0  0  0  0  0  0  0  0  0  0  0  0
   -3.6000  -11.1400    0.0690 C   0  0  0  0  0  0  0  0  0  0  0  0
   -2.5760  -10.3110    0.7850 C   0  0  0  0  0  0  0  0  0  0  0  0
   -1.5860  -11.2040    1.2900 O   0  0  0  0  0  0  0  0  0  0  0  0
   -0.4690  -11.3970    0.5240 C   0  0  0  0  0  0  0  0  0  0  0  0
    0.3070  -12.5560    0.4800 C   0  0  0  0  0  0  0  0  0  0  0  0
    1.4280  -12.6180   -0.3560 C   0  0  0  0  0  0  0  0  0  0  0  0
    1.7790  -11.5260   -1.1560 C   0  0  0  0  0  0  0  0  0  0  0  0
    2.9520  -11.5820   -2.0320 C   0  0  0  0  0  0  0  0  0  0  0  0
    2.9850  -12.1800   -3.2400 C   0  0  0  0  0  0  0  0  0  0  0  0
    1.8140  -12.8400   -3.9060 C   0  0  0  0  0  0  0  0  0  0  0  0
    4.2960  -12.1020   -3.9640 C   0  0  0  0  0  0  0  0  0  0  0  0
    4.3630  -12.0740   -5.1870 O   0  0  0  0  0  0  0  0  0  0  0  0
    5.4040  -12.0800   -3.1640 N   0  0  0  0  0  0  0  0  0  0  0  0
    6.8050  -11.8580   -3.5830 C   0  0  2  0  0  0  0  0  0  0  0  0
    7.5700  -13.0450   -4.2180 C   0  0  2  0  0  0  0  0  0  0  0  0
    7.0720  -13.4690   -5.4880 O   0  0  0  0  0  0  0  0  0  0  0  0
    7.6360  -14.2370   -3.2570 C   0  0  1  0  0  0  0  0  0  0  0  0
    8.3320  -15.3250   -3.8770 O   0  0  0  0  0  0  0  0  0  0  0  0
    8.3150  -13.8480   -1.9430 C   0  0  1  0  0  0  0  0  0  0  0  0
    9.6980  -13.4900   -2.1000 O   0  0  0  0  0  0  0  0  0  0  0  0
    9.9950  -12.7650   -0.9040 C   0  0  0  0  0  0  0  0  0  0  0  0
    8.7840  -12.1980   -0.3790 O   0  0  0  0  0  0  0  0  0  0  0  0
    7.7640  -12.5820   -1.3200 C   0  0  1  0  0  0  0  0  0  0  0  0
    7.5900  -11.4210   -2.3260 C   0  0  2  0  0  0  0  0  0  0  0  0
    6.8820  -10.3530   -1.6660 O   0  0  0  0  0  0  0  0  0  0  0  0
    1.0060  -10.3650   -1.1060 C   0  0  0  0  0  0  0  0  0  0  0  0
   -0.1140  -10.3060   -0.2720 C   0  0  0  0  0  0  0  0  0  0  0  0
   -5.0262  -11.4165   -1.4703 H   0  0  0  0  0  0  0  0  0  0  0  0
   -4.1258   -9.7380   -1.4269 H   0  0  0  0  0  0  0  0  0  0  0  0
   -3.7978  -12.1506    0.4557 H   0  0  0  0  0  0  0  0  0  0  0  0
   -2.1166   -9.5950    0.0876 H   0  0  0  0  0  0  0  0  0  0  0  0
   -3.0396   -9.7402    1.6031 H   0  0  0  0  0  0  0  0  0  0  0  0
    0.0375  -13.4217    1.1029 H   0  0  0  0  0  0  0  0  0  0  0  0
    2.0378  -13.5331   -0.3839 H   0  0  0  0  0  0  0  0  0  0  0  0
    3.8751  -11.1000   -1.6776 H   0  0  0  0  0  0  0  0  0  0  0  0
    1.1267  -13.2274   -3.1395 H   0  0  0  0  0  0  0  0  0  0  0  0
    1.2873  -12.1059   -4.5334 H   0  0  0  0  0  0  0  0  0  0  0  0
    2.1693  -13.6707   -4.5334 H   0  0  0  0  0  0  0  0  0  0  0  0
    5.2620  -11.9070   -2.1740 H   0  0  0  0  0  0  0  0  0  0  0  0
    6.7405  -11.1132   -4.3899 H   0  0  0  0  0  0  0  0  0  0  0  0
    8.5815  -12.6554   -4.4054 H   0  0  0  0  0  0  0  0  0  0  0  0
    7.7330  -13.2200   -6.1730 H   0  0  0  0  0  0  0  0  0  0  0  0
    6.6084  -14.5531   -3.0245 H   0  0  0  0  0  0  0  0  0  0  0  0
    9.0840  -14.9150   -4.3510 H   0  0  0  0  0  0  0  0  0  0  0  0
    8.1470  -14.7508   -1.3374 H   0  0  0  0  0  0  0  0  0  0  0  0
   10.4339  -13.4467   -0.1606 H   0  0  0  0  0  0  0  0  0  0  0  0
   10.7109  -11.9608   -1.1290 H   0  0  0  0  0  0  0  0  0  0  0  0
    6.7669  -12.7710   -0.8956 H   0  0  0  0  0  0  0  0  0  0  0  0
    8.5860  -11.0921   -2.6574 H   0  0  0  0  0  0  0  0  0  0  0  0
    7.0820  -10.4540   -0.7140 H   0  0  0  0  0  0  0  0  0  0  0  0
    1.2783   -9.4961   -1.7232 H   0  0  0  0  0  0  0  0  0  0  0  0
   -0.7225   -9.3901   -0.2423 H   0  0  0  0  0  0  0  0  0  0  0  0
  1  2  2  0
  2  3  1  0
  3  4  1  0
  4  5  1  0
  5  6  2  0
  6  7  1  0
  7  8  2  0
  8  9  1  0
  9 10  2  0
 10 11  1  0
 10 12  1  0
 12 13  2  0
 12 14  1  0
 14 15  1  0
 15 16  1  0
 16 17  1  0
 16 18  1  0
 18 19  1  0
 18 20  1  0
 20 21  1  0
 21 22  1  0
 22 23  1  0
 23 24  1  0
 24 25  1  0
 25 26  1  0
  8 27  1  0
 27 28  2  0
 28  5  1  0
 25 15  1  0
 24 20  1  0
  1 29  1  0
  1 30  1  0
  2 31  1  0
  3 32  1  0
  3 33  1  0
  6 34  1  0
  7 35  1  0
  9 36  1  0
 11 37  1  0
 11 38  1  0
 11 39  1  0
 14 40  1  0
 15 41  1  6
 16 42  1  6
 17 43  1  0
 18 44  1  1
 19 45  1  0
 20 46  1  1
 22 47  1  0
 22 48  1  0
 24 49  1  1
 25 50  1  6
 26 51  1  0
 27 52  1  0
 28 53  1  0
M  END
>  <meeko>  (6) 
{"is_sidechain": [false], "free_energy": -6.557, "intermolecular_energy": -9.304, "internal_energy": -1.248}

$$$$
LIB_XUBGGMQPGQRZMO__M_PUB_ALL__e8__s20260927
     RDKit          3D

 53 55  0  0  0  0  0  0  0  0999 V2000
   -3.8980  -10.7250   -0.4790 C   0  0  0  0  0  0  0  0  0  0  0  0
   -2.7160  -10.2800   -0.0290 C   0  0  0  0  0  0  0  0  0  0  0  0
   -2.3070  -10.2460    1.4130 C   0  0  0  0  0  0  0  0  0  0  0  0
   -3.0480  -11.2600    2.0880 O   0  0  0  0  0  0  0  0  0  0  0  0
   -2.3420  -12.3130    2.6020 C   0  0  0  0  0  0  0  0  0  0  0  0
   -1.0980  -12.2400    3.2300 C   0  0  0  0  0  0  0  0  0  0  0  0
   -0.4860  -13.4030    3.7130 C   0  0  0  0  0  0  0  0  0  0  0  0
   -1.1140  -14.6450    3.5760 C   0  0  0  0  0  0  0  0  0  0  0  0
   -0.4820  -15.8670    4.0780 C   0  0  0  0  0  0  0  0  0  0  0  0
    0.3710  -16.6390    3.3750 C   0  0  0  0  0  0  0  0  0  0  0  0
    0.8540  -16.3430    1.9850 C   0  0  0  0  0  0  0  0  0  0  0  0
    0.9030  -17.8400    4.0990 C   0  0  0  0  0  0  0  0  0  0  0  0
    1.4590  -18.7600    3.5120 O   0  0  0  0  0  0  0  0  0  0  0  0
    0.7070  -17.8400    5.4510 N   0  0  0  0  0  0  0  0  0  0  0  0
    1.2470  -18.8050    6.4330 C   0  0  2  0  0  0  0  0  0  0  0  0
    0.5300  -20.1700    6.5790 C   0  0  2  0  0  0  0  0  0  0  0  0
    0.6160  -21.0180    5.4330 O   0  0  0  0  0  0  0  0  0  0  0  0
   -0.9360  -19.9840    6.9830 C   0  0  1  0  0  0  0  0  0  0  0  0
   -1.5780  -21.2590    7.0920 O   0  0  0  0  0  0  0  0  0  0  0  0
   -1.0520  -19.2130    8.2990 C   0  0  1  0  0  0  0  0  0  0  0  0
   -0.5010  -19.9200    9.4230 O   0  0  0  0  0  0  0  0  0  0  0  0
   -0.3080  -18.8960   10.4020 C   0  0  0  0  0  0  0  0  0  0  0  0
   -0.1580  -17.6290    9.7410 O   0  0  0  0  0  0  0  0  0  0  0  0
   -0.2340  -17.9390    8.3370 C   0  0  1  0  0  0  0  0  0  0  0  0
    1.2110  -18.1140    7.8150 C   0  0  2  0  0  0  0  0  0  0  0  0
    1.8170  -16.8100    7.7140 O   0  0  0  0  0  0  0  0  0  0  0  0
   -2.3560  -14.7170    2.9420 C   0  0  0  0  0  0  0  0  0  0  0  0
   -2.9650  -13.5550    2.4620 C   0  0  0  0  0  0  0  0  0  0  0  0
   -4.1155  -10.7140   -1.5572 H   0  0  0  0  0  0  0  0  0  0  0  0
   -4.6502  -11.1011    0.2300 H   0  0  0  0  0  0  0  0  0  0  0  0
   -1.9932   -9.9129   -0.7725 H   0  0  0  0  0  0  0  0  0  0  0  0
   -1.2288  -10.4445    1.5032 H   0  0  0  0  0  0  0  0  0  0  0  0
   -2.5098   -9.2580    1.8521 H   0  0  0  0  0  0  0  0  0  0  0  0
   -0.5975  -11.2673    3.3457 H   0  0  0  0  0  0  0  0  0  0  0  0
    0.4963  -13.3393    4.2040 H   0  0  0  0  0  0  0  0  0  0  0  0
   -0.7211  -16.1783    5.1056 H   0  0  0  0  0  0  0  0  0  0  0  0
    1.7908  -15.7689    2.0369 H   0  0  0  0  0  0  0  0  0  0  0  0
    1.0319  -17.2874    1.4497 H   0  0  0  0  0  0  0  0  0  0  0  0
    0.0933  -15.7558    1.4497 H   0  0  0  0  0  0  0  0  0  0  0  0
    0.4220  -16.9650    5.8820 H   0  0  0  0  0  0  0  0  0  0  0  0
    2.2466  -19.0612    6.0521 H   0  0  0  0  0  0  0  0  0  0  0  0
    1.0787  -20.6874    7.3797 H   0  0  0  0  0  0  0  0  0  0  0  0
    1.5100  -20.9040    5.0360 H   0  0  0  0  0  0  0  0  0  0  0  0
   -1.4383  -19.3943    6.2020 H   0  0  0  0  0  0  0  0  0  0  0  0
   -1.4220  -21.7020    6.2330 H   0  0  0  0  0  0  0  0  0  0  0  0
   -2.1376  -19.0450    8.3570 H   0  0  0  0  0  0  0  0  0  0  0  0
   -1.1793  -18.8598   11.0724 H   0  0  0  0  0  0  0  0  0  0  0  0
    0.5957  -19.1141   10.9900 H   0  0  0  0  0  0  0  0  0  0  0  0
   -0.6985  -17.1712    7.7008 H   0  0  0  0  0  0  0  0  0  0  0  0
    1.7622  -18.7550    8.5188 H   0  0  0  0  0  0  0  0  0  0  0  0
    2.6400  -16.8610    8.2410 H   0  0  0  0  0  0  0  0  0  0  0  0
   -2.8553  -15.6896    2.8204 H   0  0  0  0  0  0  0  0  0  0  0  0
   -3.9459  -13.6190    1.9684 H   0  0  0  0  0  0  0  0  0  0  0  0
  1  2  2  0
  2  3  1  0
  3  4  1  0
  4  5  1  0
  5  6  2  0
  6  7  1  0
  7  8  2  0
  8  9  1  0
  9 10  2  0
 10 11  1  0
 10 12  1  0
 12 13  2  0
 12 14  1  0
 14 15  1  0
 15 16  1  0
 16 17  1  0
 16 18  1  0
 18 19  1  0
 18 20  1  0
 20 21  1  0
 21 22  1  0
 22 23  1  0
 23 24  1  0
 24 25  1  0
 25 26  1  0
  8 27  1  0
 27 28  2  0
 28  5  1  0
 25 15  1  0
 24 20  1  0
  1 29  1  0
  1 30  1  0
  2 31  1  0
  3 32  1  0
  3 33  1  0
  6 34  1  0
  7 35  1  0
  9 36  1  0
 11 37  1  0
 11 38  1  0
 11 39  1  0
 14 40  1  0
 15 41  1  6
 16 42  1  1
 17 43  1  0
 18 44  1  6
 19 45  1  0
 20 46  1  1
 22 47  1  0
 22 48  1  0
 24 49  1  6
 25 50  1  1
 26 51  1  0
 27 52  1  0
 28 53  1  0
M  END
>  <meeko>  (7) 
{"is_sidechain": [false], "free_energy": -6.4, "intermolecular_energy": -9.012, "internal_energy": -1.315}

$$$$
LIB_XUBGGMQPGQRZMO__M_PUB_ALL__e8__s20260927
     RDKit          3D

 53 55  0  0  0  0  0  0  0  0999 V2000
    2.9820  -10.3210   -3.8310 C   0  0  0  0  0  0  0  0  0  0  0  0
    2.7650  -11.4190   -4.5690 C   0  0  0  0  0  0  0  0  0  0  0  0
    2.1350  -12.6810   -4.0620 C   0  0  0  0  0  0  0  0  0  0  0  0
    2.8060  -13.7720   -4.6870 O   0  0  0  0  0  0  0  0  0  0  0  0
    4.0880  -14.0310   -4.2840 C   0  0  0  0  0  0  0  0  0  0  0  0
    5.1860  -14.2390   -5.1200 C   0  0  0  0  0  0  0  0  0  0  0  0
    6.4480  -14.4930   -4.5690 C   0  0  0  0  0  0  0  0  0  0  0  0
    6.6220  -14.5380   -3.1830 C   0  0  0  0  0  0  0  0  0  0  0  0
    7.9380  -14.8060   -2.5980 C   0  0  0  0  0  0  0  0  0  0  0  0
    8.2240  -15.8380   -1.7790 C   0  0  0  0  0  0  0  0  0  0  0  0
    7.2560  -16.9110   -1.3760 C   0  0  0  0  0  0  0  0  0  0  0  0
    9.6470  -15.9150   -1.3100 C   0  0  0  0  0  0  0  0  0  0  0  0
   10.2070  -16.9860   -1.1070 O   0  0  0  0  0  0  0  0  0  0  0  0
   10.2620  -14.7120   -1.1110 N   0  0  0  0  0  0  0  0  0  0  0  0
   11.6880  -14.4770   -0.7990 C   0  0  2  0  0  0  0  0  0  0  0  0
   12.0570  -13.2000   -0.0040 C   0  0  2  0  0  0  0  0  0  0  0  0
   11.5760  -13.1710    1.3410 O   0  0  0  0  0  0  0  0  0  0  0  0
   11.6090  -11.9370   -0.7470 C   0  0  1  0  0  0  0  0  0  0  0  0
   11.9460  -10.7750    0.0190 O   0  0  0  0  0  0  0  0  0  0  0  0
   12.2430  -11.8630   -2.1380 C   0  0  1  0  0  0  0  0  0  0  0  0
   13.6720  -11.7220   -2.1050 O   0  0  0  0  0  0  0  0  0  0  0  0
   14.0780  -12.1110   -3.4200 C   0  0  0  0  0  0  0  0  0  0  0  0
   13.0900  -12.9910   -3.9810 O   0  0  0  0  0  0  0  0  0  0  0  0
   12.1020  -13.1370   -2.9440 C   0  0  1  0  0  0  0  0  0  0  0  0
   12.4430  -14.4170   -2.1460 C   0  0  2  0  0  0  0  0  0  0  0  0
   12.0840  -15.5600   -2.9470 O   0  0  0  0  0  0  0  0  0  0  0  0
    5.5210  -14.3370   -2.3480 C   0  0  0  0  0  0  0  0  0  0  0  0
    4.2630  -14.0810   -2.9000 C   0  0  0  0  0  0  0  0  0  0  0  0
    3.4516   -9.4364   -4.2860 H   0  0  0  0  0  0  0  0  0  0  0  0
    2.6905  -10.3047   -2.7705 H   0  0  0  0  0  0  0  0  0  0  0  0
    3.0721  -11.3917   -5.6249 H   0  0  0  0  0  0  0  0  0  0  0  0
    2.2484  -12.7456   -2.9698 H   0  0  0  0  0  0  0  0  0  0  0  0
    1.0603  -12.7002   -4.2957 H   0  0  0  0  0  0  0  0  0  0  0  0
    5.0600  -14.2034   -6.2122 H   0  0  0  0  0  0  0  0  0  0  0  0
    7.3096  -14.6585   -5.2325 H   0  0  0  0  0  0  0  0  0  0  0  0
    8.7550  -14.1124   -2.8458 H   0  0  0  0  0  0  0  0  0  0  0  0
    7.2060  -16.9664   -0.2785 H   0  0  0  0  0  0  0  0  0  0  0  0
    6.2592  -16.6751   -1.7770 H   0  0  0  0  0  0  0  0  0  0  0  0
    7.5930  -17.8783   -1.7770 H   0  0  0  0  0  0  0  0  0  0  0  0
    9.8050  -13.8860   -1.4860 H   0  0  0  0  0  0  0  0  0  0  0  0
   11.9672  -15.3044   -0.1301 H   0  0  0  0  0  0  0  0  0  0  0  0
   13.1544  -13.2254    0.0678 H   0  0  0  0  0  0  0  0  0  0  0  0
   11.9670  -13.9360    1.8210 H   0  0  0  0  0  0  0  0  0  0  0  0
   10.5173  -11.9782   -0.8756 H   0  0  0  0  0  0  0  0  0  0  0  0
   12.7700  -11.0070    0.4930 H   0  0  0  0  0  0  0  0  0  0  0  0
   11.7130  -11.0025   -2.5723 H   0  0  0  0  0  0  0  0  0  0  0  0
   14.1763  -11.2173   -4.0537 H   0  0  0  0  0  0  0  0  0  0  0  0
   15.0467  -12.6296   -3.3684 H   0  0  0  0  0  0  0  0  0  0  0  0
   11.0630  -13.2566   -3.2849 H   0  0  0  0  0  0  0  0  0  0  0  0
   13.5197  -14.4122   -1.9211 H   0  0  0  0  0  0  0  0  0  0  0  0
   12.6200  -16.3020   -2.6010 H   0  0  0  0  0  0  0  0  0  0  0  0
    5.6439  -14.3802   -1.2557 H   0  0  0  0  0  0  0  0  0  0  0  0
    3.4011  -13.9171   -2.2365 H   0  0  0  0  0  0  0  0  0  0  0  0
  1  2  2  0
  2  3  1  0
  3  4  1  0
  4  5  1  0
  5  6  2  0
  6  7  1  0
  7  8  2  0
  8  9  1  0
  9 10  2  0
 10 11  1  0
 10 12  1  0
 12 13  2  0
 12 14  1  0
 14 15  1  0
 15 16  1  0
 16 17  1  0
 16 18  1  0
 18 19  1  0
 18 20  1  0
 20 21  1  0
 21 22  1  0
 22 23  1  0
 23 24  1  0
 24 25  1  0
 25 26  1  0
  8 27  1  0
 27 28  2  0
 28  5  1  0
 25 15  1  0
 24 20  1  0
  1 29  1  0
  1 30  1  0
  2 31  1  0
  3 32  1  0
  3 33  1  0
  6 34  1  0
  7 35  1  0
  9 36  1  0
 11 37  1  0
 11 38  1  0
 11 39  1  0
 14 40  1  0
 15 41  1  1
 16 42  1  1
 17 43  1  0
 18 44  1  6
 19 45  1  0
 20 46  1  6
 22 47  1  0
 22 48  1  0
 24 49  1  6
 25 50  1  1
 26 51  1  0
 27 52  1  0
 28 53  1  0
M  END
>  <meeko>  (8) 
{"is_sidechain": [false], "free_energy": -6.287, "intermolecular_energy": -9.428, "internal_energy": -0.737}

$$$$
LIB_XUBGGMQPGQRZMO__M_PUB_ALL__e8__s20260927
     RDKit          3D

 53 55  0  0  0  0  0  0  0  0999 V2000
   12.8470  -10.3650    0.1310 C   0  0  0  0  0  0  0  0  0  0  0  0
   11.9040  -11.2310    0.5250 C   0  0  0  0  0  0  0  0  0  0  0  0
   11.2280  -12.2270   -0.3690 C   0  0  0  0  0  0  0  0  0  0  0  0
   12.2270  -13.1390   -0.8200 O   0  0  0  0  0  0  0  0  0  0  0  0
   12.3700  -13.2890   -2.1720 C   0  0  0  0  0  0  0  0  0  0  0  0
   13.0490  -12.4220   -3.0280 C   0  0  0  0  0  0  0  0  0  0  0  0
   13.1200  -12.7000   -4.3990 C   0  0  0  0  0  0  0  0  0  0  0  0
   12.5160  -13.8480   -4.9220 C   0  0  0  0  0  0  0  0  0  0  0  0
   12.5840  -14.1470   -6.3540 C   0  0  0  0  0  0  0  0  0  0  0  0
   13.6240  -14.7460   -6.9690 C   0  0  0  0  0  0  0  0  0  0  0  0
   14.8560  -15.2520   -6.2800 C   0  0  0  0  0  0  0  0  0  0  0  0
   13.4650  -14.9590   -8.4460 C   0  0  0  0  0  0  0  0  0  0  0  0
   14.3210  -15.5220   -9.1170 O   0  0  0  0  0  0  0  0  0  0  0  0
   12.3110  -14.4660   -8.9860 N   0  0  0  0  0  0  0  0  0  0  0  0
   11.8160  -14.6560  -10.3660 C   0  0  2  0  0  0  0  0  0  0  0  0
   12.4130  -13.7610  -11.4810 C   0  0  2  0  0  0  0  0  0  0  0  0
   13.7960  -13.9870  -11.7560 O   0  0  0  0  0  0  0  0  0  0  0  0
   12.1740  -12.2770  -11.1840 C   0  0  1  0  0  0  0  0  0  0  0  0
   12.7520  -11.4740  -12.2200 O   0  0  0  0  0  0  0  0  0  0  0  0
   10.6810  -11.9760  -11.0440 C   0  0  1  0  0  0  0  0  0  0  0  0
    9.9430  -12.1790  -12.2600 O   0  0  0  0  0  0  0  0  0  0  0  0
    8.5870  -12.2810  -11.8170 C   0  0  0  0  0  0  0  0  0  0  0  0
    8.5660  -12.7270  -10.4510 O   0  0  0  0  0  0  0  0  0  0  0  0
    9.9520  -12.9180  -10.1090 C   0  0  1  0  0  0  0  0  0  0  0  0
   10.2920  -14.4090  -10.3410 C   0  0  2  0  0  0  0  0  0  0  0  0
    9.7000  -15.1790   -9.2760 O   0  0  0  0  0  0  0  0  0  0  0  0
   11.8320  -14.7130   -4.0650 C   0  0  0  0  0  0  0  0  0  0  0  0
   11.7640  -14.4320   -2.6980 C   0  0  0  0  0  0  0  0  0  0  0  0
   13.2906   -9.6672    0.8565 H   0  0  0  0  0  0  0  0  0  0  0  0
   13.1778  -10.3517   -0.9180 H   0  0  0  0  0  0  0  0  0  0  0  0
   11.6033  -11.2099    1.5829 H   0  0  0  0  0  0  0  0  0  0  0  0
   10.4499  -12.7674    0.1901 H   0  0  0  0  0  0  0  0  0  0  0  0
   10.7481  -11.7228   -1.2208 H   0  0  0  0  0  0  0  0  0  0  0  0
   13.5297  -11.5181   -2.6256 H   0  0  0  0  0  0  0  0  0  0  0  0
   13.6545  -12.0106   -5.0691 H   0  0  0  0  0  0  0  0  0  0  0  0
   11.7219  -13.8615   -6.9747 H   0  0  0  0  0  0  0  0  0  0  0  0
   14.7165  -15.1947   -5.1904 H   0  0  0  0  0  0  0  0  0  0  0  0
   15.0364  -16.2970   -6.5721 H   0  0  0  0  0  0  0  0  0  0  0  0
   15.7189  -14.6354   -6.5721 H   0  0  0  0  0  0  0  0  0  0  0  0
   11.5730  -14.1940   -8.3430 H   0  0  0  0  0  0  0  0  0  0  0  0
   12.1299  -15.6749  -10.6366 H   0  0  0  0  0  0  0  0  0  0  0  0
   11.8727  -14.0553  -12.3929 H   0  0  0  0  0  0  0  0  0  0  0  0
   14.3130  -13.2640  -11.3340 H   0  0  0  0  0  0  0  0  0  0  0  0
   12.6572  -12.0321  -10.2267 H   0  0  0  0  0  0  0  0  0  0  0  0
   13.5000  -11.9990  -12.5690 H   0  0  0  0  0  0  0  0  0  0  0  0
   10.7015  -10.9327  -10.6959 H   0  0  0  0  0  0  0  0  0  0  0  0
    8.1016  -11.2965  -11.8896 H   0  0  0  0  0  0  0  0  0  0  0  0
    8.0463  -13.0015  -12.4483 H   0  0  0  0  0  0  0  0  0  0  0  0
   10.2231  -12.7007   -9.0653 H   0  0  0  0  0  0  0  0  0  0  0  0
    9.8921  -14.7116  -11.3200 H   0  0  0  0  0  0  0  0  0  0  0  0
    8.7560  -14.9210   -9.2590 H   0  0  0  0  0  0  0  0  0  0  0  0
   11.3470  -15.6152   -4.4661 H   0  0  0  0  0  0  0  0  0  0  0  0
   11.2267  -15.1193   -2.0280 H   0  0  0  0  0  0  0  0  0  0  0  0
  1  2  2  0
  2  3  1  0
  3  4  1  0
  4  5  1  0
  5  6  2  0
  6  7  1  0
  7  8  2  0
  8  9  1  0
  9 10  2  0
 10 11  1  0
 10 12  1  0
 12 13  2  0
 12 14  1  0
 14 15  1  0
 15 16  1  0
 16 17  1  0
 16 18  1  0
 18 19  1  0
 18 20  1  0
 20 21  1  0
 21 22  1  0
 22 23  1  0
 23 24  1  0
 24 25  1  0
 25 26  1  0
  8 27  1  0
 27 28  2  0
 28  5  1  0
 25 15  1  0
 24 20  1  0
  1 29  1  0
  1 30  1  0
  2 31  1  0
  3 32  1  0
  3 33  1  0
  6 34  1  0
  7 35  1  0
  9 36  1  0
 11 37  1  0
 11 38  1  0
 11 39  1  0
 14 40  1  0
 15 41  1  6
 16 42  1  6
 17 43  1  0
 18 44  1  1
 19 45  1  0
 20 46  1  1
 22 47  1  0
 22 48  1  0
 24 49  1  1
 25 50  1  6
 26 51  1  0
 27 52  1  0
 28 53  1  0
M  END
>  <meeko>  (9) 
{"is_sidechain": [false], "free_energy": -6.234, "intermolecular_energy": -8.795, "internal_energy": -1.292}

$$$$
