LIB_JFADHIAXFVRSJF__M_PUB_ALL__e8__s20260927
     RDKit          3D

 74 80  0  0  0  0  0  0  0  0999 V2000
   13.6510  -14.2850   -3.6990 C   0  0  0  0  0  0  0  0  0  0  0  0
   12.7890  -13.0690   -3.9340 C   0  0  0  0  0  0  0  0  0  0  0  0
   13.2840  -12.0310   -4.3720 O   0  0  0  0  0  0  0  0  0  0  0  0
   11.3480  -13.1880   -3.6670 C   0  0  0  0  0  0  0  0  0  0  0  0
   10.7490  -12.3720   -2.7810 N   0  0  0  0  0  0  0  0  0  0  0  0
    9.4740  -12.8230   -2.6750 N   0  0  0  0  0  0  0  0  0  0  0  0
    8.5510  -12.2000   -1.7880 C   0  0  0  0  0  0  0  0  0  0  0  0
    7.5590  -11.3530   -2.3070 C   0  0  0  0  0  0  0  0  0  0  0  0
    6.6440  -10.7330   -1.4540 C   0  0  0  0  0  0  0  0  0  0  0  0
    6.7110  -10.9530   -0.0800 C   0  0  0  0  0  0  0  0  0  0  0  0
    7.6940  -11.7910    0.4440 C   0  0  0  0  0  0  0  0  0  0  0  0
    8.6130  -12.4160   -0.4040 C   0  0  0  0  0  0  0  0  0  0  0  0
    9.2560  -13.8920   -3.5080 C   0  0  0  0  0  0  0  0  0  0  0  0
   10.4290  -14.1300   -4.2020 C   0  0  0  0  0  0  0  0  0  0  0  0
   10.5860  -15.1580   -5.2250 C   0  0  0  0  0  0  0  0  0  0  0  0
   10.5260  -16.3510   -4.9380 O   0  0  0  0  0  0  0  0  0  0  0  0
   10.6790  -14.6980   -6.6180 C   0  0  0  0  0  0  0  0  0  0  0  0
   11.8180  -14.1720   -7.1150 N   0  0  0  0  0  0  0  0  0  0  0  0
   11.5260  -13.8230   -8.3920 N   0  0  0  0  0  0  0  0  0  0  0  0
   12.5250  -13.2610   -9.2360 C   0  0  0  0  0  0  0  0  0  0  0  0
   13.6010  -14.0570   -9.6590 C   0  0  0  0  0  0  0  0  0  0  0  0
   14.5900  -13.5240  -10.4880 C   0  0  0  0  0  0  0  0  0  0  0  0
   14.5140  -12.1960  -10.9000 C   0  0  0  0  0  0  0  0  0  0  0  0
   13.4500  -11.3980  -10.4860 C   0  0  0  0  0  0  0  0  0  0  0  0
   12.4550  -11.9240   -9.6540 C   0  0  0  0  0  0  0  0  0  0  0  0
   10.2120  -14.0850   -8.6930 C   0  0  0  0  0  0  0  0  0  0  0  0
    9.6300  -14.6520   -7.5750 C   0  0  0  0  0  0  0  0  0  0  0  0
    8.2710  -15.1560   -7.4260 C   0  0  0  0  0  0  0  0  0  0  0  0
    8.0340  -16.3590   -7.3900 O   0  0  0  0  0  0  0  0  0  0  0  0
    7.1930  -14.1570   -7.3000 C   0  0  0  0  0  0  0  0  0  0  0  0
    6.6330  -13.8280   -6.1210 N   0  0  0  0  0  0  0  0  0  0  0  0
    5.6370  -12.9560   -6.4150 N   0  0  0  0  0  0  0  0  0  0  0  0
    4.8330  -12.3950   -5.3830 C   0  0  0  0  0  0  0  0  0  0  0  0
    4.0800  -11.2320   -5.5970 C   0  0  0  0  0  0  0  0  0  0  0  0
    3.3010  -10.7030   -4.5620 C   0  0  0  0  0  0  0  0  0  0  0  0
    3.2690  -11.3270   -3.3170 C   0  0  0  0  0  0  0  0  0  0  0  0
    4.0140  -12.4830   -3.0970 C   0  0  0  0  0  0  0  0  0  0  0  0
    4.7950  -13.0170   -4.1240 C   0  0  0  0  0  0  0  0  0  0  0  0
    5.5550  -12.7320   -7.7690 C   0  0  0  0  0  0  0  0  0  0  0  0
    6.5470  -13.4810   -8.3680 C   0  0  0  0  0  0  0  0  0  0  0  0
    6.8960  -13.5000   -9.7750 C   0  0  0  0  0  0  0  0  0  0  0  0
    6.8050  -14.5340  -10.4300 O   0  0  0  0  0  0  0  0  0  0  0  0
    7.4290  -12.2610  -10.4090 C   0  0  0  0  0  0  0  0  0  0  0  0
    6.6990  -11.0650  -10.4410 C   0  0  0  0  0  0  0  0  0  0  0  0
    7.2410   -9.9300  -11.0490 C   0  0  0  0  0  0  0  0  0  0  0  0
    8.5060   -9.9840  -11.6320 C   0  0  0  0  0  0  0  0  0  0  0  0
    9.2320  -11.1750  -11.6180 C   0  0  0  0  0  0  0  0  0  0  0  0
    8.6940  -12.3120  -11.0120 C   0  0  0  0  0  0  0  0  0  0  0  0
   13.7671  -14.4487   -2.6175 H   0  0  0  0  0  0  0  0  0  0  0  0
   13.1744  -15.1658   -4.1541 H   0  0  0  0  0  0  0  0  0  0  0  0
   14.6399  -14.1270   -4.1541 H   0  0  0  0  0  0  0  0  0  0  0  0
    7.5023  -11.1769   -3.3913 H   0  0  0  0  0  0  0  0  0  0  0  0
    5.8695  -10.0702   -1.8672 H   0  0  0  0  0  0  0  0  0  0  0  0
    5.9885  -10.4656    0.5911 H   0  0  0  0  0  0  0  0  0  0  0  0
    7.7468  -11.9612    1.5295 H   0  0  0  0  0  0  0  0  0  0  0  0
    9.3854  -13.0778    0.0149 H   0  0  0  0  0  0  0  0  0  0  0  0
    8.3177  -14.4576   -3.6061 H   0  0  0  0  0  0  0  0  0  0  0  0
   13.6654  -15.1064   -9.3356 H   0  0  0  0  0  0  0  0  0  0  0  0
   15.4301  -14.1538  -10.8160 H   0  0  0  0  0  0  0  0  0  0  0  0
   15.2943  -11.7771  -11.5525 H   0  0  0  0  0  0  0  0  0  0  0  0
   13.3915  -10.3498  -10.8144 H   0  0  0  0  0  0  0  0  0  0  0  0
   11.6182  -11.2889   -9.3280 H   0  0  0  0  0  0  0  0  0  0  0  0
    9.7125  -13.8804   -9.6515 H   0  0  0  0  0  0  0  0  0  0  0  0
    4.1016  -10.7355   -6.5783 H   0  0  0  0  0  0  0  0  0  0  0  0
    2.7112   -9.7902   -4.7323 H   0  0  0  0  0  0  0  0  0  0  0  0
    2.6549  -10.9064   -2.5071 H   0  0  0  0  0  0  0  0  0  0  0  0
    3.9872  -12.9756   -2.1138 H   0  0  0  0  0  0  0  0  0  0  0  0
    5.3834  -13.9292   -3.9463 H   0  0  0  0  0  0  0  0  0  0  0  0
    4.8331  -12.0776   -8.2796 H   0  0  0  0  0  0  0  0  0  0  0  0
    5.6981  -11.0200   -9.9869 H   0  0  0  0  0  0  0  0  0  0  0  0
    6.6680   -8.9912  -11.0677 H   0  0  0  0  0  0  0  0  0  0  0  0
    8.9323   -9.0863  -12.1037 H   0  0  0  0  0  0  0  0  0  0  0  0
   10.2275  -11.2184  -12.0840 H   0  0  0  0  0  0  0  0  0  0  0  0
    9.2651  -13.2521  -11.0076 H   0  0  0  0  0  0  0  0  0  0  0  0
  1  2  1  0
  2  3  2  0
  2  4  1  0
  4  5  2  0
  5  6  1  0
  6  7  1  0
  7  8  2  0
  8  9  1  0
  9 10  2  0
 10 11  1  0
 11 12  2  0
  6 13  1  0
 13 14  2  0
 14 15  1  0
 15 16  2  0
 15 17  1  0
 17 18  2  0
 18 19  1  0
 19 20  1  0
 20 21  2  0
 21 22  1  0
 22 23  2  0
 23 24  1  0
 24 25  2  0
 19 26  1  0
 26 27  2  0
 27 28  1  0
 28 29  2  0
 28 30  1  0
 30 31  2  0
 31 32  1  0
 32 33  1  0
 33 34  2  0
 34 35  1  0
 35 36  2  0
 36 37  1  0
 37 38  2  0
 32 39  1  0
 39 40  2  0
 40 41  1  0
 41 42  2  0
 41 43  1  0
 43 44  2  0
 44 45  1  0
 45 46  2  0
 46 47  1  0
 47 48  2  0
 14  4  1  0
 27 17  1  0
 40 30  1  0
 48 43  1  0
 12  7  1  0
 25 20  1  0
 38 33  1  0
  1 49  1  0
  1 50  1  0
  1 51  1  0
  8 52  1  0
  9 53  1  0
 10 54  1  0
 11 55  1  0
 12 56  1  0
 13 57  1  0
 21 58  1  0
 22 59  1  0
 23 60  1  0
 24 61  1  0
 25 62  1  0
 26 63  1  0
 34 64  1  0
 35 65  1  0
 36 66  1  0
 37 67  1  0
 38 68  1  0
 39 69  1  0
 44 70  1  0
 45 71  1  0
 46 72  1  0
 47 73  1  0
 48 74  1  0
M  END
>  <meeko>  (1) 
{"is_sidechain": [false], "free_energy": -9.708, "intermolecular_energy": -15.383, "internal_energy": -3.798}

$$$$
LIB_JFADHIAXFVRSJF__M_PUB_ALL__e8__s20260927
     RDKit          3D

 74 80  0  0  0  0  0  0  0  0999 V2000
   14.3630  -12.8640   -3.8030 C   0  0  0  0  0  0  0  0  0  0  0  0
   13.0160  -12.2310   -3.5570 C   0  0  0  0  0  0  0  0  0  0  0  0
   12.8670  -11.0150   -3.6830 O   0  0  0  0  0  0  0  0  0  0  0  0
   11.8950  -13.1180   -3.2120 C   0  0  0  0  0  0  0  0  0  0  0  0
   10.9550  -12.7200   -2.3360 N   0  0  0  0  0  0  0  0  0  0  0  0
   10.1550  -13.7990   -2.1460 N   0  0  0  0  0  0  0  0  0  0  0  0
    9.0560  -13.7420   -1.2430 C   0  0  0  0  0  0  0  0  0  0  0  0
    8.8740  -12.5980   -0.4490 C   0  0  0  0  0  0  0  0  0  0  0  0
    7.8020  -12.5220    0.4430 C   0  0  0  0  0  0  0  0  0  0  0  0
    6.9050  -13.5840    0.5490 C   0  0  0  0  0  0  0  0  0  0  0  0
    7.0800  -14.7230   -0.2350 C   0  0  0  0  0  0  0  0  0  0  0  0
    8.1510  -14.8060   -1.1300 C   0  0  0  0  0  0  0  0  0  0  0  0
   10.5620  -14.8600   -2.9160 C   0  0  0  0  0  0  0  0  0  0  0  0
   11.6550  -14.4460   -3.6560 C   0  0  0  0  0  0  0  0  0  0  0  0
   12.3460  -15.2760   -4.6370 C   0  0  0  0  0  0  0  0  0  0  0  0
   13.0190  -16.2420   -4.2880 O   0  0  0  0  0  0  0  0  0  0  0  0
   12.0870  -14.9810   -6.0550 C   0  0  0  0  0  0  0  0  0  0  0  0
   12.9510  -14.2580   -6.7970 N   0  0  0  0  0  0  0  0  0  0  0  0
   12.3720  -14.1520   -8.0190 N   0  0  0  0  0  0  0  0  0  0  0  0
   13.0370  -13.4700   -9.0770 C   0  0  0  0  0  0  0  0  0  0  0  0
   14.0790  -14.1110   -9.7650 C   0  0  0  0  0  0  0  0  0  0  0  0
   14.7420  -13.4600  -10.8080 C   0  0  0  0  0  0  0  0  0  0  0  0
   14.3720  -12.1680  -11.1700 C   0  0  0  0  0  0  0  0  0  0  0  0
   13.3390  -11.5230  -10.4930 C   0  0  0  0  0  0  0  0  0  0  0  0
   12.6700  -12.1680   -9.4470 C   0  0  0  0  0  0  0  0  0  0  0  0
   11.1430  -14.7620   -8.0440 C   0  0  0  0  0  0  0  0  0  0  0  0
   10.9210  -15.3110   -6.7960 C   0  0  0  0  0  0  0  0  0  0  0  0
    9.7850  -16.1100   -6.3540 C   0  0  0  0  0  0  0  0  0  0  0  0
    9.8950  -17.3120   -6.1320 O   0  0  0  0  0  0  0  0  0  0  0  0
    8.5020  -15.4080   -6.1650 C   0  0  0  0  0  0  0  0  0  0  0  0
    8.1720  -14.7790   -5.0210 N   0  0  0  0  0  0  0  0  0  0  0  0
    6.9030  -14.3360   -5.1950 N   0  0  0  0  0  0  0  0  0  0  0  0
    6.2380  -13.6110   -4.1660 C   0  0  0  0  0  0  0  0  0  0  0  0
    5.1180  -14.1400   -3.5090 C   0  0  0  0  0  0  0  0  0  0  0  0
    4.4850  -13.4020   -2.5020 C   0  0  0  0  0  0  0  0  0  0  0  0
    4.9620  -12.1420   -2.1480 C   0  0  0  0  0  0  0  0  0  0  0  0
    6.0750  -11.6110   -2.7960 C   0  0  0  0  0  0  0  0  0  0  0  0
    6.7120  -12.3390   -3.8020 C   0  0  0  0  0  0  0  0  0  0  0  0
    6.4200  -14.6810   -6.4350 C   0  0  0  0  0  0  0  0  0  0  0  0
    7.4260  -15.3640   -7.0900 C   0  0  0  0  0  0  0  0  0  0  0  0
    7.4030  -15.8510   -8.4540 C   0  0  0  0  0  0  0  0  0  0  0  0
    7.2550  -17.0460   -8.6910 O   0  0  0  0  0  0  0  0  0  0  0  0
    7.6260  -14.8920   -9.5730 C   0  0  0  0  0  0  0  0  0  0  0  0
    8.8800  -14.7280  -10.1770 C   0  0  0  0  0  0  0  0  0  0  0  0
    9.0410  -13.8150  -11.2220 C   0  0  0  0  0  0  0  0  0  0  0  0
    7.9560  -13.0590  -11.6630 C   0  0  0  0  0  0  0  0  0  0  0  0
    6.7090  -13.2060  -11.0570 C   0  0  0  0  0  0  0  0  0  0  0  0
    6.5440  -14.1160  -10.0120 C   0  0  0  0  0  0  0  0  0  0  0  0
   14.8435  -13.0898   -2.8396 H   0  0  0  0  0  0  0  0  0  0  0  0
   14.2319  -13.7948   -4.3744 H   0  0  0  0  0  0  0  0  0  0  0  0
   14.9959  -12.1690   -4.3744 H   0  0  0  0  0  0  0  0  0  0  0  0
    9.5792  -11.7577   -0.5300 H   0  0  0  0  0  0  0  0  0  0  0  0
    7.6653  -11.6234    1.0625 H   0  0  0  0  0  0  0  0  0  0  0  0
    6.0600  -13.5231    1.2507 H   0  0  0  0  0  0  0  0  0  0  0  0
    6.3722  -15.5606   -0.1492 H   0  0  0  0  0  0  0  0  0  0  0  0
    8.2834  -15.7076   -1.7462 H   0  0  0  0  0  0  0  0  0  0  0  0
   10.1021  -15.8590   -2.9402 H   0  0  0  0  0  0  0  0  0  0  0  0
   14.3752  -15.1317   -9.4813 H   0  0  0  0  0  0  0  0  0  0  0  0
   15.5570  -13.9688  -11.3436 H   0  0  0  0  0  0  0  0  0  0  0  0
   14.8953  -11.6559  -11.9909 H   0  0  0  0  0  0  0  0  0  0  0  0
   13.0482  -10.5023  -10.7821 H   0  0  0  0  0  0  0  0  0  0  0  0
   11.8561  -11.6538   -8.9148 H   0  0  0  0  0  0  0  0  0  0  0  0
   10.4578  -14.8059   -8.9034 H   0  0  0  0  0  0  0  0  0  0  0  0
    4.7370  -15.1344   -3.7847 H   0  0  0  0  0  0  0  0  0  0  0  0
    3.6066  -13.8191   -1.9877 H   0  0  0  0  0  0  0  0  0  0  0  0
    4.4597  -11.5662   -1.3567 H   0  0  0  0  0  0  0  0  0  0  0  0
    6.4522  -10.6168   -2.5145 H   0  0  0  0  0  0  0  0  0  0  0  0
    7.5893  -11.9151   -4.3125 H   0  0  0  0  0  0  0  0  0  0  0  0
    5.4191  -14.4552   -6.8315 H   0  0  0  0  0  0  0  0  0  0  0  0
    9.7392  -15.3194   -9.8275 H   0  0  0  0  0  0  0  0  0  0  0  0
   10.0253  -13.6925  -11.6975 H   0  0  0  0  0  0  0  0  0  0  0  0
    8.0839  -12.3454  -12.4903 H   0  0  0  0  0  0  0  0  0  0  0  0
    5.8552  -12.6047  -11.4026 H   0  0  0  0  0  0  0  0  0  0  0  0
    5.5609  -14.2249   -9.5307 H   0  0  0  0  0  0  0  0  0  0  0  0
  1  2  1  0
  2  3  2  0
  2  4  1  0
  4  5  2  0
  5  6  1  0
  6  7  1  0
  7  8  2  0
  8  9  1  0
  9 10  2  0
 10 11  1  0
 11 12  2  0
  6 13  1  0
 13 14  2  0
 14 15  1  0
 15 16  2  0
 15 17  1  0
 17 18  2  0
 18 19  1  0
 19 20  1  0
 20 21  2  0
 21 22  1  0
 22 23  2  0
 23 24  1  0
 24 25  2  0
 19 26  1  0
 26 27  2  0
 27 28  1  0
 28 29  2  0
 28 30  1  0
 30 31  2  0
 31 32  1  0
 32 33  1  0
 33 34  2  0
 34 35  1  0
 35 36  2  0
 36 37  1  0
 37 38  2  0
 32 39  1  0
 39 40  2  0
 40 41  1  0
 41 42  2  0
 41 43  1  0
 43 44  2  0
 44 45  1  0
 45 46  2  0
 46 47  1  0
 47 48  2  0
 14  4  1  0
 27 17  1  0
 40 30  1  0
 48 43  1  0
 12  7  1  0
 25 20  1  0
 38 33  1  0
  1 49  1  0
  1 50  1  0
  1 51  1  0
  8 52  1  0
  9 53  1  0
 10 54  1  0
 11 55  1  0
 12 56  1  0
 13 57  1  0
 21 58  1  0
 22 59  1  0
 23 60  1  0
 24 61  1  0
 25 62  1  0
 26 63  1  0
 34 64  1  0
 35 65  1  0
 36 66  1  0
 37 67  1  0
 38 68  1  0
 39 69  1  0
 44 70  1  0
 45 71  1  0
 46 72  1  0
 47 73  1  0
 48 74  1  0
M  END
>  <meeko>  (2) 
{"is_sidechain": [false], "free_energy": -9.648, "intermolecular_energy": -14.593, "internal_energy": -4.494}

$$$$
LIB_JFADHIAXFVRSJF__M_PUB_ALL__e8__s20260927
     RDKit          3D

 74 80  0  0  0  0  0  0  0  0999 V2000
   13.5030  -14.5950   -3.7630 C   0  0  0  0  0  0  0  0  0  0  0  0
   13.1010  -15.5880   -4.8240 C   0  0  0  0  0  0  0  0  0  0  0  0
   13.4880  -16.7560   -4.7630 O   0  0  0  0  0  0  0  0  0  0  0  0
   12.2040  -15.1240   -5.8930 C   0  0  0  0  0  0  0  0  0  0  0  0
   12.6960  -14.4720   -6.9620 N   0  0  0  0  0  0  0  0  0  0  0  0
   11.6130  -14.0770   -7.6770 N   0  0  0  0  0  0  0  0  0  0  0  0
   11.7660  -13.3230   -8.8750 C   0  0  0  0  0  0  0  0  0  0  0  0
   13.0340  -12.8340   -9.2250 C   0  0  0  0  0  0  0  0  0  0  0  0
   13.2060  -12.0920  -10.3970 C   0  0  0  0  0  0  0  0  0  0  0  0
   12.1150  -11.8350  -11.2250 C   0  0  0  0  0  0  0  0  0  0  0  0
   10.8520  -12.3170  -10.8840 C   0  0  0  0  0  0  0  0  0  0  0  0
   10.6730  -13.0600   -9.7130 C   0  0  0  0  0  0  0  0  0  0  0  0
   10.4480  -14.5010   -7.0880 C   0  0  0  0  0  0  0  0  0  0  0  0
   10.7880  -15.2230   -5.9580 C   0  0  0  0  0  0  0  0  0  0  0  0
    9.8260  -15.8850   -5.0840 C   0  0  0  0  0  0  0  0  0  0  0  0
    9.5660  -17.0780   -5.2160 O   0  0  0  0  0  0  0  0  0  0  0  0
    9.2940  -15.0930   -3.9640 C   0  0  0  0  0  0  0  0  0  0  0  0
   10.1020  -14.5770   -3.0160 N   0  0  0  0  0  0  0  0  0  0  0  0
    9.2750  -13.9600   -2.1350 N   0  0  0  0  0  0  0  0  0  0  0  0
    9.8030  -13.2680   -1.0090 C   0  0  0  0  0  0  0  0  0  0  0  0
   11.1720  -13.3660   -0.7170 C   0  0  0  0  0  0  0  0  0  0  0  0
   11.7100  -12.6940    0.3820 C   0  0  0  0  0  0  0  0  0  0  0  0
   10.8880  -11.9200    1.1970 C   0  0  0  0  0  0  0  0  0  0  0  0
    9.5270  -11.8160    0.9150 C   0  0  0  0  0  0  0  0  0  0  0  0
    8.9800  -12.4880   -0.1840 C   0  0  0  0  0  0  0  0  0  0  0  0
    7.9590  -14.1140   -2.4950 C   0  0  0  0  0  0  0  0  0  0  0  0
    7.9270  -14.8390   -3.6710 C   0  0  0  0  0  0  0  0  0  0  0  0
    6.7650  -15.2030   -4.4730 C   0  0  0  0  0  0  0  0  0  0  0  0
    6.0940  -16.1970   -4.2140 O   0  0  0  0  0  0  0  0  0  0  0  0
    6.4190  -14.3130   -5.5960 C   0  0  0  0  0  0  0  0  0  0  0  0
    6.9130  -14.4730   -6.8380 N   0  0  0  0  0  0  0  0  0  0  0  0
    6.4420  -13.4280   -7.5620 N   0  0  0  0  0  0  0  0  0  0  0  0
    6.7700  -13.2910   -8.9400 C   0  0  0  0  0  0  0  0  0  0  0  0
    6.8390  -12.0310   -9.5510 C   0  0  0  0  0  0  0  0  0  0  0  0
    7.1630  -11.9280  -10.9080 C   0  0  0  0  0  0  0  0  0  0  0  0
    7.4190  -13.0740  -11.6580 C   0  0  0  0  0  0  0  0  0  0  0  0
    7.3540  -14.3290  -11.0580 C   0  0  0  0  0  0  0  0  0  0  0  0
    7.0300  -14.4410   -9.7040 C   0  0  0  0  0  0  0  0  0  0  0  0
    5.6570  -12.6020   -6.7920 C   0  0  0  0  0  0  0  0  0  0  0  0
    5.6130  -13.1460   -5.5240 C   0  0  0  0  0  0  0  0  0  0  0  0
    4.8410  -12.6640   -4.3960 C   0  0  0  0  0  0  0  0  0  0  0  0
    5.2720  -11.7680   -3.6770 O   0  0  0  0  0  0  0  0  0  0  0  0
    3.5380  -13.3140   -4.0750 C   0  0  0  0  0  0  0  0  0  0  0  0
    2.4380  -13.2450   -4.9400 C   0  0  0  0  0  0  0  0  0  0  0  0
    1.2360  -13.8690   -4.5940 C   0  0  0  0  0  0  0  0  0  0  0  0
    1.1250  -14.5560   -3.3860 C   0  0  0  0  0  0  0  0  0  0  0  0
    2.2120  -14.6150   -2.5140 C   0  0  0  0  0  0  0  0  0  0  0  0
    3.4140  -13.9930   -2.8550 C   0  0  0  0  0  0  0  0  0  0  0  0
   13.3269  -15.0300   -2.7681 H   0  0  0  0  0  0  0  0  0  0  0  0
   14.5702  -14.3523   -3.8734 H   0  0  0  0  0  0  0  0  0  0  0  0
   12.9052  -13.6783   -3.8734 H   0  0  0  0  0  0  0  0  0  0  0  0
   13.8971  -13.0357   -8.5736 H   0  0  0  0  0  0  0  0  0  0  0  0
   14.2023  -11.7110  -10.6657 H   0  0  0  0  0  0  0  0  0  0  0  0
   12.2503  -11.2518  -12.1478 H   0  0  0  0  0  0  0  0  0  0  0  0
    9.9925  -12.1119  -11.5391 H   0  0  0  0  0  0  0  0  0  0  0  0
    9.6744  -13.4383   -9.4491 H   0  0  0  0  0  0  0  0  0  0  0  0
    9.4281  -14.3025   -7.4492 H   0  0  0  0  0  0  0  0  0  0  0  0
   11.8253  -13.9761   -1.3580 H   0  0  0  0  0  0  0  0  0  0  0  0
   12.7842  -12.7760    0.6043 H   0  0  0  0  0  0  0  0  0  0  0  0
   11.3126  -11.3909    2.0629 H   0  0  0  0  0  0  0  0  0  0  0  0
    8.8798  -11.2028    1.5593 H   0  0  0  0  0  0  0  0  0  0  0  0
    7.9048  -12.4043   -0.4006 H   0  0  0  0  0  0  0  0  0  0  0  0
    7.0869  -13.7294   -1.9460 H   0  0  0  0  0  0  0  0  0  0  0  0
    6.6383  -11.1232   -8.9632 H   0  0  0  0  0  0  0  0  0  0  0  0
    7.2159  -10.9382  -11.3849 H   0  0  0  0  0  0  0  0  0  0  0  0
    7.6726  -12.9873  -12.7248 H   0  0  0  0  0  0  0  0  0  0  0  0
    7.5580  -15.2328  -11.6509 H   0  0  0  0  0  0  0  0  0  0  0  0
    6.9782  -15.4341   -9.2337 H   0  0  0  0  0  0  0  0  0  0  0  0
    5.1575  -11.6801   -7.1244 H   0  0  0  0  0  0  0  0  0  0  0  0
    2.5203  -12.6996   -5.8917 H   0  0  0  0  0  0  0  0  0  0  0  0
    0.3751  -13.8178   -5.2769 H   0  0  0  0  0  0  0  0  0  0  0  0
    0.1797  -15.0518   -3.1204 H   0  0  0  0  0  0  0  0  0  0  0  0
    2.1220  -15.1515   -1.5579 H   0  0  0  0  0  0  0  0  0  0  0  0
    4.2681  -14.0358   -2.1631 H   0  0  0  0  0  0  0  0  0  0  0  0
  1  2  1  0
  2  3  2  0
  2  4  1  0
  4  5  2  0
  5  6  1  0
  6  7  1  0
  7  8  2  0
  8  9  1  0
  9 10  2  0
 10 11  1  0
 11 12  2  0
  6 13  1  0
 13 14  2  0
 14 15  1  0
 15 16  2  0
 15 17  1  0
 17 18  2  0
 18 19  1  0
 19 20  1  0
 20 21  2  0
 21 22  1  0
 22 23  2  0
 23 24  1  0
 24 25  2  0
 19 26  1  0
 26 27  2  0
 27 28  1  0
 28 29  2  0
 28 30  1  0
 30 31  2  0
 31 32  1  0
 32 33  1  0
 33 34  2  0
 34 35  1  0
 35 36  2  0
 36 37  1  0
 37 38  2  0
 32 39  1  0
 39 40  2  0
 40 41  1  0
 41 42  2  0
 41 43  1  0
 43 44  2  0
 44 45  1  0
 45 46  2  0
 46 47  1  0
 47 48  2  0
 14  4  1  0
 27 17  1  0
 40 30  1  0
 48 43  1  0
 12  7  1  0
 25 20  1  0
 38 33  1  0
  1 49  1  0
  1 50  1  0
  1 51  1  0
  8 52  1  0
  9 53  1  0
 10 54  1  0
 11 55  1  0
 12 56  1  0
 13 57  1  0
 21 58  1  0
 22 59  1  0
 23 60  1  0
 24 61  1  0
 25 62  1  0
 26 63  1  0
 34 64  1  0
 35 65  1  0
 36 66  1  0
 37 67  1  0
 38 68  1  0
 39 69  1  0
 44 70  1  0
 45 71  1  0
 46 72  1  0
 47 73  1  0
 48 74  1  0
M  END
>  <meeko>  (3) 
{"is_sidechain": [false], "free_energy": -9.46, "intermolecular_energy": -14.555, "internal_energy": -4.233}

$$$$
LIB_JFADHIAXFVRSJF__M_PUB_ALL__e8__s20260927
     RDKit          3D

 74 80  0  0  0  0  0  0  0  0999 V2000
    1.3090  -14.1470   -4.6790 C   0  0  0  0  0  0  0  0  0  0  0  0
    2.2400  -14.0710   -3.4940 C   0  0  0  0  0  0  0  0  0  0  0  0
    3.1810  -14.8580   -3.3910 O   0  0  0  0  0  0  0  0  0  0  0  0
    2.0090  -13.0060   -2.5080 C   0  0  0  0  0  0  0  0  0  0  0  0
    1.2820  -13.2460   -1.4020 N   0  0  0  0  0  0  0  0  0  0  0  0
    1.1540  -12.0450   -0.7830 N   0  0  0  0  0  0  0  0  0  0  0  0
    0.4070  -11.9230    0.4230 C   0  0  0  0  0  0  0  0  0  0  0  0
    0.1240  -13.0710    1.1790 C   0  0  0  0  0  0  0  0  0  0  0  0
   -0.6070  -12.9730    2.3650 C   0  0  0  0  0  0  0  0  0  0  0  0
   -1.0580  -11.7300    2.8050 C   0  0  0  0  0  0  0  0  0  0  0  0
   -0.7820  -10.5850    2.0590 C   0  0  0  0  0  0  0  0  0  0  0  0
   -0.0510  -10.6760    0.8710 C   0  0  0  0  0  0  0  0  0  0  0  0
    1.8180  -11.0600   -1.4700 C   0  0  0  0  0  0  0  0  0  0  0  0
    2.4240  -11.6480   -2.5660 C   0  0  0  0  0  0  0  0  0  0  0  0
    3.2690  -10.9370   -3.5190 C   0  0  0  0  0  0  0  0  0  0  0  0
    3.0470   -9.7640   -3.8100 O   0  0  0  0  0  0  0  0  0  0  0  0
    4.4650  -11.6440   -4.0010 C   0  0  0  0  0  0  0  0  0  0  0  0
    4.5490  -12.1130   -5.2630 N   0  0  0  0  0  0  0  0  0  0  0  0
    5.7520  -12.7360   -5.3350 N   0  0  0  0  0  0  0  0  0  0  0  0
    6.1890  -13.3260   -6.5540 C   0  0  0  0  0  0  0  0  0  0  0  0
    6.9320  -14.5160   -6.5180 C   0  0  0  0  0  0  0  0  0  0  0  0
    7.3690  -15.1120   -7.7040 C   0  0  0  0  0  0  0  0  0  0  0  0
    7.0690  -14.5260   -8.9310 C   0  0  0  0  0  0  0  0  0  0  0  0
    6.3320  -13.3440   -8.9760 C   0  0  0  0  0  0  0  0  0  0  0  0
    5.8920  -12.7410   -7.7930 C   0  0  0  0  0  0  0  0  0  0  0  0
    6.4060  -12.6990   -4.1290 C   0  0  0  0  0  0  0  0  0  0  0  0
    5.6100  -12.0020   -3.2400 C   0  0  0  0  0  0  0  0  0  0  0  0
    5.9030  -11.6480   -1.8570 C   0  0  0  0  0  0  0  0  0  0  0  0
    6.2350  -10.5090   -1.5440 O   0  0  0  0  0  0  0  0  0  0  0  0
    5.7620  -12.7130   -0.8460 C   0  0  0  0  0  0  0  0  0  0  0  0
    4.5710  -13.2180   -0.4740 N   0  0  0  0  0  0  0  0  0  0  0  0
    4.8370  -14.0990    0.5210 N   0  0  0  0  0  0  0  0  0  0  0  0
    3.7870  -14.8290    1.1460 C   0  0  0  0  0  0  0  0  0  0  0  0
    3.1680  -15.9100    0.5030 C   0  0  0  0  0  0  0  0  0  0  0  0
    2.1370  -16.6070    1.1430 C   0  0  0  0  0  0  0  0  0  0  0  0
    1.7220  -16.2320    2.4190 C   0  0  0  0  0  0  0  0  0  0  0  0
    2.3320  -15.1600    3.0640 C   0  0  0  0  0  0  0  0  0  0  0  0
    3.3610  -14.4580    2.4330 C   0  0  0  0  0  0  0  0  0  0  0  0
    6.1840  -14.1560    0.7890 C   0  0  0  0  0  0  0  0  0  0  0  0
    6.8110  -13.2840   -0.0780 C   0  0  0  0  0  0  0  0  0  0  0  0
    8.2380  -13.0700   -0.2200 C   0  0  0  0  0  0  0  0  0  0  0  0
    8.8980  -12.6110    0.7080 O   0  0  0  0  0  0  0  0  0  0  0  0
    8.8900  -13.3530   -1.5290 C   0  0  0  0  0  0  0  0  0  0  0  0
    9.5870  -12.3690   -2.2440 C   0  0  0  0  0  0  0  0  0  0  0  0
   10.1810  -12.6820   -3.4690 C   0  0  0  0  0  0  0  0  0  0  0  0
   10.0760  -13.9720   -3.9890 C   0  0  0  0  0  0  0  0  0  0  0  0
    9.3710  -14.9510   -3.2910 C   0  0  0  0  0  0  0  0  0  0  0  0
    8.7750  -14.6430   -2.0660 C   0  0  0  0  0  0  0  0  0  0  0  0
    0.2710  -14.2317   -4.3249 H   0  0  0  0  0  0  0  0  0  0  0  0
    1.4156  -13.2372   -5.2880 H   0  0  0  0  0  0  0  0  0  0  0  0
    1.5617  -15.0275   -5.2880 H   0  0  0  0  0  0  0  0  0  0  0  0
    0.4799  -14.0535    0.8355 H   0  0  0  0  0  0  0  0  0  0  0  0
   -0.8268  -13.8770    2.9519 H   0  0  0  0  0  0  0  0  0  0  0  0
   -1.6315  -11.6523    3.7405 H   0  0  0  0  0  0  0  0  0  0  0  0
   -1.1412   -9.6053    2.4070 H   0  0  0  0  0  0  0  0  0  0  0  0
    0.1650   -9.7689    0.2875 H   0  0  0  0  0  0  0  0  0  0  0  0
    1.8607   -9.9949   -1.1983 H   0  0  0  0  0  0  0  0  0  0  0  0
    7.1717  -14.9822   -5.5509 H   0  0  0  0  0  0  0  0  0  0  0  0
    7.9506  -16.0450   -7.6682 H   0  0  0  0  0  0  0  0  0  0  0  0
    7.4135  -14.9957   -9.8641 H   0  0  0  0  0  0  0  0  0  0  0  0
    6.0952  -12.8831   -9.9463 H   0  0  0  0  0  0  0  0  0  0  0  0
    5.3125  -11.8070   -7.8349 H   0  0  0  0  0  0  0  0  0  0  0  0
    7.3876  -13.1442   -3.9094 H   0  0  0  0  0  0  0  0  0  0  0  0
    3.4926  -16.2103   -0.5042 H   0  0  0  0  0  0  0  0  0  0  0  0
    1.6522  -17.4546    0.6364 H   0  0  0  0  0  0  0  0  0  0  0  0
    0.9113  -16.7838    2.9173 H   0  0  0  0  0  0  0  0  0  0  0  0
    2.0032  -14.8656    4.0716 H   0  0  0  0  0  0  0  0  0  0  0  0
    3.8403  -13.6109    2.9454 H   0  0  0  0  0  0  0  0  0  0  0  0
    6.6715  -14.7803    1.5523 H   0  0  0  0  0  0  0  0  0  0  0  0
    9.6663  -11.3490   -1.8399 H   0  0  0  0  0  0  0  0  0  0  0  0
   10.7327  -11.9095   -4.0247 H   0  0  0  0  0  0  0  0  0  0  0  0
   10.5501  -14.2169   -4.9509 H   0  0  0  0  0  0  0  0  0  0  0  0
    9.2840  -15.9664   -3.7050 H   0  0  0  0  0  0  0  0  0  0  0  0
    8.2132  -15.4155   -1.5204 H   0  0  0  0  0  0  0  0  0  0  0  0
  1  2  1  0
  2  3  2  0
  2  4  1  0
  4  5  2  0
  5  6  1  0
  6  7  1  0
  7  8  2  0
  8  9  1  0
  9 10  2  0
 10 11  1  0
 11 12  2  0
  6 13  1  0
 13 14  2  0
 14 15  1  0
 15 16  2  0
 15 17  1  0
 17 18  2  0
 18 19  1  0
 19 20  1  0
 20 21  2  0
 21 22  1  0
 22 23  2  0
 23 24  1  0
 24 25  2  0
 19 26  1  0
 26 27  2  0
 27 28  1  0
 28 29  2  0
 28 30  1  0
 30 31  2  0
 31 32  1  0
 32 33  1  0
 33 34  2  0
 34 35  1  0
 35 36  2  0
 36 37  1  0
 37 38  2  0
 32 39  1  0
 39 40  2  0
 40 41  1  0
 41 42  2  0
 41 43  1  0
 43 44  2  0
 44 45  1  0
 45 46  2  0
 46 47  1  0
 47 48  2  0
 14  4  1  0
 27 17  1  0
 40 30  1  0
 48 43  1  0
 12  7  1  0
 25 20  1  0
 38 33  1  0
  1 49  1  0
  1 50  1  0
  1 51  1  0
  8 52  1  0
  9 53  1  0
 10 54  1  0
 11 55  1  0
 12 56  1  0
 13 57  1  0
 21 58  1  0
 22 59  1  0
 23 60  1  0
 24 61  1  0
 25 62  1  0
 26 63  1  0
 34 64  1  0
 35 65  1  0
 36 66  1  0
 37 67  1  0
 38 68  1  0
 39 69  1  0
 44 70  1  0
 45 71  1  0
 46 72  1  0
 47 73  1  0
 48 74  1  0
M  END
>  <meeko>  (4) 
{"is_sidechain": [false], "free_energy": -9.45, "intermolecular_energy": -14.09, "internal_energy": -4.683}

$$$$
LIB_JFADHIAXFVRSJF__M_PUB_ALL__e8__s20260927
     RDKit          3D

 74 80  0  0  0  0  0  0  0  0999 V2000
   12.5710  -11.1070    0.1390 C   0  0  0  0  0  0  0  0  0  0  0  0
   11.6880  -12.3260    0.2330 C   0  0  0  0  0  0  0  0  0  0  0  0
   11.5590  -12.9200    1.3030 O   0  0  0  0  0  0  0  0  0  0  0  0
   10.9610  -12.7410   -0.9760 C   0  0  0  0  0  0  0  0  0  0  0  0
   11.6320  -13.1340   -2.0740 N   0  0  0  0  0  0  0  0  0  0  0  0
   10.6880  -13.3200   -3.0300 N   0  0  0  0  0  0  0  0  0  0  0  0
   11.0530  -13.7160   -4.3480 C   0  0  0  0  0  0  0  0  0  0  0  0
   10.0510  -14.0790   -5.2620 C   0  0  0  0  0  0  0  0  0  0  0  0
   10.3880  -14.4700   -6.5600 C   0  0  0  0  0  0  0  0  0  0  0  0
   11.7240  -14.5020   -6.9540 C   0  0  0  0  0  0  0  0  0  0  0  0
   12.7250  -14.1450   -6.0520 C   0  0  0  0  0  0  0  0  0  0  0  0
   12.3950  -13.7520   -4.7520 C   0  0  0  0  0  0  0  0  0  0  0  0
    9.4300  -13.0790   -2.5380 C   0  0  0  0  0  0  0  0  0  0  0  0
    9.5590  -12.7480   -1.2010 C   0  0  0  0  0  0  0  0  0  0  0  0
    8.4370  -12.4700   -0.3110 C   0  0  0  0  0  0  0  0  0  0  0  0
    8.4780  -11.5370    0.4870 O   0  0  0  0  0  0  0  0  0  0  0  0
    7.2180  -13.2680   -0.5110 C   0  0  0  0  0  0  0  0  0  0  0  0
    6.9850  -14.3940    0.1940 N   0  0  0  0  0  0  0  0  0  0  0  0
    5.8110  -14.8790   -0.2800 N   0  0  0  0  0  0  0  0  0  0  0  0
    5.2390  -16.0600    0.2720 C   0  0  0  0  0  0  0  0  0  0  0  0
    5.9710  -17.2580    0.2490 C   0  0  0  0  0  0  0  0  0  0  0  0
    5.4280  -18.4270    0.7880 C   0  0  0  0  0  0  0  0  0  0  0  0
    4.1560  -18.4090    1.3520 C   0  0  0  0  0  0  0  0  0  0  0  0
    3.4220  -17.2250    1.3800 C   0  0  0  0  0  0  0  0  0  0  0  0
    3.9580  -16.0500    0.8410 C   0  0  0  0  0  0  0  0  0  0  0  0
    5.3230  -14.0980   -1.2980 C   0  0  0  0  0  0  0  0  0  0  0  0
    6.2010  -13.0460   -1.4780 C   0  0  0  0  0  0  0  0  0  0  0  0
    6.0820  -11.9210   -2.3980 C   0  0  0  0  0  0  0  0  0  0  0  0
    6.3700  -10.7790   -2.0540 O   0  0  0  0  0  0  0  0  0  0  0  0
    5.6190  -12.2190   -3.7660 C   0  0  0  0  0  0  0  0  0  0  0  0
    6.3880  -12.8390   -4.6820 N   0  0  0  0  0  0  0  0  0  0  0  0
    5.6600  -12.8550   -5.8250 N   0  0  0  0  0  0  0  0  0  0  0  0
    6.1790  -13.4520   -7.0090 C   0  0  0  0  0  0  0  0  0  0  0  0
    6.1660  -12.7710   -8.2340 C   0  0  0  0  0  0  0  0  0  0  0  0
    6.6820  -13.3850   -9.3810 C   0  0  0  0  0  0  0  0  0  0  0  0
    7.2110  -14.6720   -9.3120 C   0  0  0  0  0  0  0  0  0  0  0  0
    7.2280  -15.3540   -8.0980 C   0  0  0  0  0  0  0  0  0  0  0  0
    6.7140  -14.7500   -6.9480 C   0  0  0  0  0  0  0  0  0  0  0  0
    4.4400  -12.2480   -5.6480 C   0  0  0  0  0  0  0  0  0  0  0  0
    4.3750  -11.8340   -4.3330 C   0  0  0  0  0  0  0  0  0  0  0  0
    3.2450  -11.2180   -3.6670 C   0  0  0  0  0  0  0  0  0  0  0  0
    2.9650  -10.0400   -3.8670 O   0  0  0  0  0  0  0  0  0  0  0  0
    2.4580  -12.0130   -2.6820 C   0  0  0  0  0  0  0  0  0  0  0  0
    2.0830  -11.4960   -1.4350 C   0  0  0  0  0  0  0  0  0  0  0  0
    1.3470  -12.2810   -0.5440 C   0  0  0  0  0  0  0  0  0  0  0  0
    0.9890  -13.5830   -0.8890 C   0  0  0  0  0  0  0  0  0  0  0  0
    1.3720  -14.1100   -2.1220 C   0  0  0  0  0  0  0  0  0  0  0  0
    2.1090  -13.3300   -3.0150 C   0  0  0  0  0  0  0  0  0  0  0  0
   12.8236  -10.7583    1.1512 H   0  0  0  0  0  0  0  0  0  0  0  0
   13.4941  -11.3637   -0.4014 H   0  0  0  0  0  0  0  0  0  0  0  0
   12.0394  -10.3099   -0.4014 H   0  0  0  0  0  0  0  0  0  0  0  0
    8.9952  -14.0554   -4.9544 H   0  0  0  0  0  0  0  0  0  0  0  0
    9.5982  -14.7528   -7.2715 H   0  0  0  0  0  0  0  0  0  0  0  0
   11.9888  -14.8089   -7.9766 H   0  0  0  0  0  0  0  0  0  0  0  0
   13.7792  -14.1727   -6.3647 H   0  0  0  0  0  0  0  0  0  0  0  0
   13.1892  -13.4706   -4.0449 H   0  0  0  0  0  0  0  0  0  0  0  0
    8.4889  -13.1383   -3.1044 H   0  0  0  0  0  0  0  0  0  0  0  0
    6.9770  -17.2762   -0.1956 H   0  0  0  0  0  0  0  0  0  0  0  0
    6.0064  -19.3624    0.7665 H   0  0  0  0  0  0  0  0  0  0  0  0
    3.7297  -19.3301    1.7760 H   0  0  0  0  0  0  0  0  0  0  0  0
    2.4172  -17.2138    1.8276 H   0  0  0  0  0  0  0  0  0  0  0  0
    3.3738  -15.1182    0.8639 H   0  0  0  0  0  0  0  0  0  0  0  0
    4.3994  -14.2772   -1.8679 H   0  0  0  0  0  0  0  0  0  0  0  0
    5.7504  -11.7543   -8.2939 H   0  0  0  0  0  0  0  0  0  0  0  0
    6.6698  -12.8489  -10.3414 H   0  0  0  0  0  0  0  0  0  0  0  0
    7.6153  -15.1495  -10.2167 H   0  0  0  0  0  0  0  0  0  0  0  0
    7.6468  -16.3698   -8.0445 H   0  0  0  0  0  0  0  0  0  0  0  0
    6.7281  -15.2925   -5.9912 H   0  0  0  0  0  0  0  0  0  0  0  0
    3.6600  -12.1165   -6.4124 H   0  0  0  0  0  0  0  0  0  0  0  0
    2.3684  -10.4707   -1.1571 H   0  0  0  0  0  0  0  0  0  0  0  0
    1.0494  -11.8705    0.4322 H   0  0  0  0  0  0  0  0  0  0  0  0
    0.4035  -14.1958   -0.1878 H   0  0  0  0  0  0  0  0  0  0  0  0
    1.0936  -15.1397   -2.3908 H   0  0  0  0  0  0  0  0  0  0  0  0
    2.4173  -13.7500   -3.9838 H   0  0  0  0  0  0  0  0  0  0  0  0
  1  2  1  0
  2  3  2  0
  2  4  1  0
  4  5  2  0
  5  6  1  0
  6  7  1  0
  7  8  2  0
  8  9  1  0
  9 10  2  0
 10 11  1  0
 11 12  2  0
  6 13  1  0
 13 14  2  0
 14 15  1  0
 15 16  2  0
 15 17  1  0
 17 18  2  0
 18 19  1  0
 19 20  1  0
 20 21  2  0
 21 22  1  0
 22 23  2  0
 23 24  1  0
 24 25  2  0
 19 26  1  0
 26 27  2  0
 27 28  1  0
 28 29  2  0
 28 30  1  0
 30 31  2  0
 31 32  1  0
 32 33  1  0
 33 34  2  0
 34 35  1  0
 35 36  2  0
 36 37  1  0
 37 38  2  0
 32 39  1  0
 39 40  2  0
 40 41  1  0
 41 42  2  0
 41 43  1  0
 43 44  2  0
 44 45  1  0
 45 46  2  0
 46 47  1  0
 47 48  2  0
 14  4  1  0
 27 17  1  0
 40 30  1  0
 48 43  1  0
 12  7  1  0
 25 20  1  0
 38 33  1  0
  1 49  1  0
  1 50  1  0
  1 51  1  0
  8 52  1  0
  9 53  1  0
 10 54  1  0
 11 55  1  0
 12 56  1  0
 13 57  1  0
 21 58  1  0
 22 59  1  0
 23 60  1  0
 24 61  1  0
 25 62  1  0
 26 63  1  0
 34 64  1  0
 35 65  1  0
 36 66  1  0
 37 67  1  0
 38 68  1  0
 39 69  1  0
 44 70  1  0
 45 71  1  0
 46 72  1  0
 47 73  1  0
 48 74  1  0
M  END
>  <meeko>  (5) 
{"is_sidechain": [false], "free_energy": -9.45, "intermolecular_energy": -14.942, "internal_energy": -3.83}

$$$$
LIB_JFADHIAXFVRSJF__M_PUB_ALL__e8__s20260927
     RDKit          3D

 74 80  0  0  0  0  0  0  0  0999 V2000
   -1.4450  -14.7980    0.3030 C   0  0  0  0  0  0  0  0  0  0  0  0
   -0.9630  -15.5260   -0.9270 C   0  0  0  0  0  0  0  0  0  0  0  0
   -1.7060  -16.3130   -1.5150 O   0  0  0  0  0  0  0  0  0  0  0  0
    0.3910  -15.2270   -1.4150 C   0  0  0  0  0  0  0  0  0  0  0  0
    0.6160  -14.1470   -2.1850 N   0  0  0  0  0  0  0  0  0  0  0  0
    1.9160  -14.2350   -2.5630 N   0  0  0  0  0  0  0  0  0  0  0  0
    2.4930  -13.2560   -3.4210 C   0  0  0  0  0  0  0  0  0  0  0  0
    2.4370  -11.9010   -3.0580 C   0  0  0  0  0  0  0  0  0  0  0  0
    2.9980  -10.9250   -3.8860 C   0  0  0  0  0  0  0  0  0  0  0  0
    3.6170  -11.2940   -5.0790 C   0  0  0  0  0  0  0  0  0  0  0  0
    3.6760  -12.6380   -5.4460 C   0  0  0  0  0  0  0  0  0  0  0  0
    3.1180  -13.6200   -4.6230 C   0  0  0  0  0  0  0  0  0  0  0  0
    2.5190  -15.3380   -2.0130 C   0  0  0  0  0  0  0  0  0  0  0  0
    1.5810  -15.9810   -1.2260 C   0  0  0  0  0  0  0  0  0  0  0  0
    1.8520  -17.1730   -0.4310 C   0  0  0  0  0  0  0  0  0  0  0  0
    2.2710  -18.2020   -0.9540 O   0  0  0  0  0  0  0  0  0  0  0  0
    1.7310  -17.0380    1.0290 C   0  0  0  0  0  0  0  0  0  0  0  0
    0.9010  -17.8240    1.7460 N   0  0  0  0  0  0  0  0  0  0  0  0
    1.0150  -17.3930    3.0270 N   0  0  0  0  0  0  0  0  0  0  0  0
    0.2930  -18.0320    4.0730 C   0  0  0  0  0  0  0  0  0  0  0  0
   -1.1020  -17.8840    4.1410 C   0  0  0  0  0  0  0  0  0  0  0  0
   -1.8290  -18.5050    5.1580 C   0  0  0  0  0  0  0  0  0  0  0  0
   -1.1730  -19.2770    6.1140 C   0  0  0  0  0  0  0  0  0  0  0  0
    0.2110  -19.4300    6.0540 C   0  0  0  0  0  0  0  0  0  0  0  0
    0.9470  -18.8100    5.0390 C   0  0  0  0  0  0  0  0  0  0  0  0
    1.8720  -16.3240    3.1190 C   0  0  0  0  0  0  0  0  0  0  0  0
    2.3570  -16.0640    1.8510 C   0  0  0  0  0  0  0  0  0  0  0  0
    3.3420  -15.0660    1.4520 C   0  0  0  0  0  0  0  0  0  0  0  0
    4.5290  -15.3520    1.3270 O   0  0  0  0  0  0  0  0  0  0  0  0
    2.8470  -13.7030    1.1850 C   0  0  0  0  0  0  0  0  0  0  0  0
    1.5510  -13.3570    1.3030 N   0  0  0  0  0  0  0  0  0  0  0  0
    1.4750  -12.0660    0.8960 N   0  0  0  0  0  0  0  0  0  0  0  0
    0.2300  -11.3750    0.9000 C   0  0  0  0  0  0  0  0  0  0  0  0
   -0.1960  -10.6350   -0.2120 C   0  0  0  0  0  0  0  0  0  0  0  0
   -1.4240   -9.9650   -0.1770 C   0  0  0  0  0  0  0  0  0  0  0  0
   -2.2280  -10.0300    0.9590 C   0  0  0  0  0  0  0  0  0  0  0  0
   -1.8120  -10.7640    2.0670 C   0  0  0  0  0  0  0  0  0  0  0  0
   -0.5870  -11.4350    2.0410 C   0  0  0  0  0  0  0  0  0  0  0  0
    2.7070  -11.5890    0.5170 C   0  0  0  0  0  0  0  0  0  0  0  0
    3.6150  -12.6130    0.6980 C   0  0  0  0  0  0  0  0  0  0  0  0
    5.0510  -12.5480    0.5080 C   0  0  0  0  0  0  0  0  0  0  0  0
    5.8030  -12.3790    1.4630 O   0  0  0  0  0  0  0  0  0  0  0  0
    5.6060  -12.6240   -0.8730 C   0  0  0  0  0  0  0  0  0  0  0  0
    5.7520  -13.8420   -1.5520 C   0  0  0  0  0  0  0  0  0  0  0  0
    6.2800  -13.8630   -2.8450 C   0  0  0  0  0  0  0  0  0  0  0  0
    6.6700  -12.6750   -3.4620 C   0  0  0  0  0  0  0  0  0  0  0  0
    6.5430  -11.4620   -2.7860 C   0  0  0  0  0  0  0  0  0  0  0  0
    6.0170  -11.4360   -1.4930 C   0  0  0  0  0  0  0  0  0  0  0  0
   -1.0953  -15.3262    1.2023 H   0  0  0  0  0  0  0  0  0  0  0  0
   -1.0467  -13.7726    0.3018 H   0  0  0  0  0  0  0  0  0  0  0  0
   -2.5445  -14.7643    0.3018 H   0  0  0  0  0  0  0  0  0  0  0  0
    1.9492  -11.6061   -2.1172 H   0  0  0  0  0  0  0  0  0  0  0  0
    2.9510   -9.8649   -3.5960 H   0  0  0  0  0  0  0  0  0  0  0  0
    4.0587  -10.5256   -5.7306 H   0  0  0  0  0  0  0  0  0  0  0  0
    4.1644  -12.9268   -6.3884 H   0  0  0  0  0  0  0  0  0  0  0  0
    3.1689  -14.6785   -4.9178 H   0  0  0  0  0  0  0  0  0  0  0  0
    3.5609  -15.6539   -2.1698 H   0  0  0  0  0  0  0  0  0  0  0  0
   -1.6247  -17.2752    3.3885 H   0  0  0  0  0  0  0  0  0  0  0  0
   -2.9214  -18.3846    5.2045 H   0  0  0  0  0  0  0  0  0  0  0  0
   -1.7467  -19.7654    6.9155 H   0  0  0  0  0  0  0  0  0  0  0  0
    0.7271  -20.0415    6.8088 H   0  0  0  0  0  0  0  0  0  0  0  0
    2.0394  -18.9328    4.9985 H   0  0  0  0  0  0  0  0  0  0  0  0
    2.1267  -15.7736    4.0367 H   0  0  0  0  0  0  0  0  0  0  0  0
    0.4348  -10.5811   -1.1116 H   0  0  0  0  0  0  0  0  0  0  0  0
   -1.7560   -9.3844   -1.0503 H   0  0  0  0  0  0  0  0  0  0  0  0
   -3.1922   -9.5011    0.9808 H   0  0  0  0  0  0  0  0  0  0  0  0
   -2.4482  -10.8154    2.9629 H   0  0  0  0  0  0  0  0  0  0  0  0
   -0.2607  -12.0130    2.9182 H   0  0  0  0  0  0  0  0  0  0  0  0
    2.9282  -10.5796    0.1398 H   0  0  0  0  0  0  0  0  0  0  0  0
    5.4505  -14.7817   -1.0661 H   0  0  0  0  0  0  0  0  0  0  0  0
    6.3884  -14.8192   -3.3778 H   0  0  0  0  0  0  0  0  0  0  0  0
    7.0783  -12.6947   -4.4832 H   0  0  0  0  0  0  0  0  0  0  0  0
    6.8571  -10.5261   -3.2712 H   0  0  0  0  0  0  0  0  0  0  0  0
    5.9247  -10.4790   -0.9585 H   0  0  0  0  0  0  0  0  0  0  0  0
  1  2  1  0
  2  3  2  0
  2  4  1  0
  4  5  2  0
  5  6  1  0
  6  7  1  0
  7  8  2  0
  8  9  1  0
  9 10  2  0
 10 11  1  0
 11 12  2  0
  6 13  1  0
 13 14  2  0
 14 15  1  0
 15 16  2  0
 15 17  1  0
 17 18  2  0
 18 19  1  0
 19 20  1  0
 20 21  2  0
 21 22  1  0
 22 23  2  0
 23 24  1  0
 24 25  2  0
 19 26  1  0
 26 27  2  0
 27 28  1  0
 28 29  2  0
 28 30  1  0
 30 31  2  0
 31 32  1  0
 32 33  1  0
 33 34  2  0
 34 35  1  0
 35 36  2  0
 36 37  1  0
 37 38  2  0
 32 39  1  0
 39 40  2  0
 40 41  1  0
 41 42  2  0
 41 43  1  0
 43 44  2  0
 44 45  1  0
 45 46  2  0
 46 47  1  0
 47 48  2  0
 14  4  1  0
 27 17  1  0
 40 30  1  0
 48 43  1  0
 12  7  1  0
 25 20  1  0
 38 33  1  0
  1 49  1  0
  1 50  1  0
  1 51  1  0
  8 52  1  0
  9 53  1  0
 10 54  1  0
 11 55  1  0
 12 56  1  0
 13 57  1  0
 21 58  1  0
 22 59  1  0
 23 60  1  0
 24 61  1  0
 25 62  1  0
 26 63  1  0
 34 64  1  0
 35 65  1  0
 36 66  1  0
 37 67  1  0
 38 68  1  0
 39 69  1  0
 44 70  1  0
 45 71  1  0
 46 72  1  0
 47 73  1  0
 48 74  1  0
M  END
>  <meeko>  (6) 
{"is_sidechain": [false], "free_energy": -9.435, "intermolecular_energy": -13.327, "internal_energy": -5.423}

$$$$
LIB_JFADHIAXFVRSJF__M_PUB_ALL__e8__s20260927
     RDKit          3D

 74 80  0  0  0  0  0  0  0  0999 V2000
    5.1930  -13.3680    2.6730 C   0  0  0  0  0  0  0  0  0  0  0  0
    5.6220  -12.3840    1.6130 C   0  0  0  0  0  0  0  0  0  0  0  0
    6.1190  -11.3040    1.9310 O   0  0  0  0  0  0  0  0  0  0  0  0
    5.4670  -12.7820    0.2050 C   0  0  0  0  0  0  0  0  0  0  0  0
    4.5720  -12.1620   -0.5850 N   0  0  0  0  0  0  0  0  0  0  0  0
    4.5900  -12.8430   -1.7580 N   0  0  0  0  0  0  0  0  0  0  0  0
    3.7310  -12.4710   -2.8300 C   0  0  0  0  0  0  0  0  0  0  0  0
    3.8390  -11.1880   -3.3880 C   0  0  0  0  0  0  0  0  0  0  0  0
    3.0060  -10.8030   -4.4410 C   0  0  0  0  0  0  0  0  0  0  0  0
    2.0600  -11.6950   -4.9430 C   0  0  0  0  0  0  0  0  0  0  0  0
    1.9450  -12.9710   -4.3930 C   0  0  0  0  0  0  0  0  0  0  0  0
    2.7760  -13.3620   -3.3400 C   0  0  0  0  0  0  0  0  0  0  0  0
    5.5090  -13.8620   -1.7260 C   0  0  0  0  0  0  0  0  0  0  0  0
    6.1310  -13.8280   -0.4910 C   0  0  0  0  0  0  0  0  0  0  0  0
    7.2090  -14.7240   -0.0870 C   0  0  0  0  0  0  0  0  0  0  0  0
    6.9750  -15.7560    0.5370 O   0  0  0  0  0  0  0  0  0  0  0  0
    8.5580  -14.4030   -0.5800 C   0  0  0  0  0  0  0  0  0  0  0  0
    9.2330  -13.3210   -0.1400 N   0  0  0  0  0  0  0  0  0  0  0  0
   10.3980  -13.3190   -0.8340 N   0  0  0  0  0  0  0  0  0  0  0  0
   11.3820  -12.3190   -0.5920 C   0  0  0  0  0  0  0  0  0  0  0  0
   12.4380  -12.1550   -1.5030 C   0  0  0  0  0  0  0  0  0  0  0  0
   13.4130  -11.1780   -1.2850 C   0  0  0  0  0  0  0  0  0  0  0  0
   13.3410  -10.3600   -0.1610 C   0  0  0  0  0  0  0  0  0  0  0  0
   12.2970  -10.5160    0.7480 C   0  0  0  0  0  0  0  0  0  0  0  0
   11.3170  -11.4930    0.5380 C   0  0  0  0  0  0  0  0  0  0  0  0
   10.4490  -14.3590   -1.7290 C   0  0  0  0  0  0  0  0  0  0  0  0
    9.2790  -15.0840   -1.5960 C   0  0  0  0  0  0  0  0  0  0  0  0
    8.8980  -16.3100   -2.2870 C   0  0  0  0  0  0  0  0  0  0  0  0
    9.3770  -17.3960   -1.9740 O   0  0  0  0  0  0  0  0  0  0  0  0
    7.8980  -16.1920   -3.3630 C   0  0  0  0  0  0  0  0  0  0  0  0
    7.8840  -15.1740   -4.2430 N   0  0  0  0  0  0  0  0  0  0  0  0
    6.7830  -15.3630   -5.0110 N   0  0  0  0  0  0  0  0  0  0  0  0
    6.4660  -14.4580   -6.0640 C   0  0  0  0  0  0  0  0  0  0  0  0
    5.5040  -13.4530   -5.8940 C   0  0  0  0  0  0  0  0  0  0  0  0
    5.2120  -12.5790   -6.9480 C   0  0  0  0  0  0  0  0  0  0  0  0
    5.8760  -12.7020   -8.1670 C   0  0  0  0  0  0  0  0  0  0  0  0
    6.8330  -13.6980   -8.3420 C   0  0  0  0  0  0  0  0  0  0  0  0
    7.1300  -14.5750   -7.2960 C   0  0  0  0  0  0  0  0  0  0  0  0
    6.0940  -16.4880   -4.6260 C   0  0  0  0  0  0  0  0  0  0  0  0
    6.7870  -17.0520   -3.5730 C   0  0  0  0  0  0  0  0  0  0  0  0
    6.4820  -18.2960   -2.8950 C   0  0  0  0  0  0  0  0  0  0  0  0
    6.7860  -19.3740   -3.3970 O   0  0  0  0  0  0  0  0  0  0  0  0
    5.7350  -18.2580   -1.6060 C   0  0  0  0  0  0  0  0  0  0  0  0
    6.1370  -19.0020   -0.4890 C   0  0  0  0  0  0  0  0  0  0  0  0
    5.4020  -18.9350    0.6980 C   0  0  0  0  0  0  0  0  0  0  0  0
    4.2630  -18.1350    0.7720 C   0  0  0  0  0  0  0  0  0  0  0  0
    3.8480  -17.4050   -0.3410 C   0  0  0  0  0  0  0  0  0  0  0  0
    4.5790  -17.4690   -1.5290 C   0  0  0  0  0  0  0  0  0  0  0  0
    5.3800  -12.9392    3.6686 H   0  0  0  0  0  0  0  0  0  0  0  0
    4.1198  -13.5822    2.5617 H   0  0  0  0  0  0  0  0  0  0  0  0
    5.7664  -14.3001    2.5617 H   0  0  0  0  0  0  0  0  0  0  0  0
    4.5841  -10.4813   -2.9938 H   0  0  0  0  0  0  0  0  0  0  0  0
    3.0966   -9.7959   -4.8740 H   0  0  0  0  0  0  0  0  0  0  0  0
    1.4044  -11.3924   -5.7728 H   0  0  0  0  0  0  0  0  0  0  0  0
    1.1968  -13.6729   -4.7898 H   0  0  0  0  0  0  0  0  0  0  0  0
    2.6809  -14.3702   -2.9105 H   0  0  0  0  0  0  0  0  0  0  0  0
    5.7139  -14.5769   -2.5365 H   0  0  0  0  0  0  0  0  0  0  0  0
   12.4980  -12.7989   -2.3928 H   0  0  0  0  0  0  0  0  0  0  0  0
   14.2380  -11.0552   -2.0021 H   0  0  0  0  0  0  0  0  0  0  0  0
   14.1084   -9.5905    0.0094 H   0  0  0  0  0  0  0  0  0  0  0  0
   12.2425   -9.8681    1.6353 H   0  0  0  0  0  0  0  0  0  0  0  0
   10.4958  -11.6124    1.2600 H   0  0  0  0  0  0  0  0  0  0  0  0
   11.2719  -14.5762   -2.4259 H   0  0  0  0  0  0  0  0  0  0  0  0
    4.9787  -13.3510   -4.9329 H   0  0  0  0  0  0  0  0  0  0  0  0
    4.4554  -11.7920   -6.8134 H   0  0  0  0  0  0  0  0  0  0  0  0
    5.6439  -12.0118   -8.9915 H   0  0  0  0  0  0  0  0  0  0  0  0
    7.3558  -13.7944   -9.3050 H   0  0  0  0  0  0  0  0  0  0  0  0
    7.8870  -15.3604   -7.4379 H   0  0  0  0  0  0  0  0  0  0  0  0
    5.1638  -16.8684   -5.0733 H   0  0  0  0  0  0  0  0  0  0  0  0
    7.0317  -19.6393   -0.5462 H   0  0  0  0  0  0  0  0  0  0  0  0
    5.7232  -19.5150    1.5758 H   0  0  0  0  0  0  0  0  0  0  0  0
    3.6908  -18.0795    1.7098 H   0  0  0  0  0  0  0  0  0  0  0  0
    2.9453  -16.7790   -0.2833 H   0  0  0  0  0  0  0  0  0  0  0  0
    4.2463  -16.8978   -2.4082 H   0  0  0  0  0  0  0  0  0  0  0  0
  1  2  1  0
  2  3  2  0
  2  4  1  0
  4  5  2  0
  5  6  1  0
  6  7  1  0
  7  8  2  0
  8  9  1  0
  9 10  2  0
 10 11  1  0
 11 12  2  0
  6 13  1  0
 13 14  2  0
 14 15  1  0
 15 16  2  0
 15 17  1  0
 17 18  2  0
 18 19  1  0
 19 20  1  0
 20 21  2  0
 21 22  1  0
 22 23  2  0
 23 24  1  0
 24 25  2  0
 19 26  1  0
 26 27  2  0
 27 28  1  0
 28 29  2  0
 28 30  1  0
 30 31  2  0
 31 32  1  0
 32 33  1  0
 33 34  2  0
 34 35  1  0
 35 36  2  0
 36 37  1  0
 37 38  2  0
 32 39  1  0
 39 40  2  0
 40 41  1  0
 41 42  2  0
 41 43  1  0
 43 44  2  0
 44 45  1  0
 45 46  2  0
 46 47  1  0
 47 48  2  0
 14  4  1  0
 27 17  1  0
 40 30  1  0
 48 43  1  0
 12  7  1  0
 25 20  1  0
 38 33  1  0
  1 49  1  0
  1 50  1  0
  1 51  1  0
  8 52  1  0
  9 53  1  0
 10 54  1  0
 11 55  1  0
 12 56  1  0
 13 57  1  0
 21 58  1  0
 22 59  1  0
 23 60  1  0
 24 61  1  0
 25 62  1  0
 26 63  1  0
 34 64  1  0
 35 65  1  0
 36 66  1  0
 37 67  1  0
 38 68  1  0
 39 69  1  0
 44 70  1  0
 45 71  1  0
 46 72  1  0
 47 73  1  0
 48 74  1  0
M  END
>  <meeko>  (7) 
{"is_sidechain": [false], "free_energy": -9.412, "intermolecular_energy": -13.933, "internal_energy": -4.78}

$$$$
LIB_JFADHIAXFVRSJF__M_PUB_ALL__e8__s20260927
     RDKit          3D

 74 80  0  0  0  0  0  0  0  0999 V2000
    6.0020  -11.9680    1.3870 C   0  0  0  0  0  0  0  0  0  0  0  0
    6.9230  -13.1550    1.5240 C   0  0  0  0  0  0  0  0  0  0  0  0
    6.7400  -13.9860    2.4140 O   0  0  0  0  0  0  0  0  0  0  0  0
    8.0030  -13.3020    0.5370 C   0  0  0  0  0  0  0  0  0  0  0  0
    9.1430  -12.5990    0.6620 N   0  0  0  0  0  0  0  0  0  0  0  0
    9.8590  -12.8630   -0.4590 N   0  0  0  0  0  0  0  0  0  0  0  0
   11.1270  -12.2530   -0.6760 C   0  0  0  0  0  0  0  0  0  0  0  0
   11.6930  -11.4600    0.3350 C   0  0  0  0  0  0  0  0  0  0  0  0
   12.9360  -10.8530    0.1430 C   0  0  0  0  0  0  0  0  0  0  0  0
   13.6220  -11.0330   -1.0560 C   0  0  0  0  0  0  0  0  0  0  0  0
   13.0660  -11.8170   -2.0660 C   0  0  0  0  0  0  0  0  0  0  0  0
   11.8230  -12.4280   -1.8800 C   0  0  0  0  0  0  0  0  0  0  0  0
    9.1970  -13.7500   -1.2720 C   0  0  0  0  0  0  0  0  0  0  0  0
    8.0150  -14.0950   -0.6420 C   0  0  0  0  0  0  0  0  0  0  0  0
    7.0540  -15.0580   -1.1670 C   0  0  0  0  0  0  0  0  0  0  0  0
    6.9540  -16.1820   -0.6820 O   0  0  0  0  0  0  0  0  0  0  0  0
    6.1290  -14.5740   -2.2030 C   0  0  0  0  0  0  0  0  0  0  0  0
    5.4140  -13.4420   -2.0400 N   0  0  0  0  0  0  0  0  0  0  0  0
    4.6510  -13.3350   -3.1560 N   0  0  0  0  0  0  0  0  0  0  0  0
    3.7850  -12.2200   -3.3360 C   0  0  0  0  0  0  0  0  0  0  0  0
    2.8620  -11.8920   -2.3310 C   0  0  0  0  0  0  0  0  0  0  0  0
    2.0050  -10.8000   -2.4880 C   0  0  0  0  0  0  0  0  0  0  0  0
    2.0620  -10.0300   -3.6460 C   0  0  0  0  0  0  0  0  0  0  0  0
    2.9750  -10.3470   -4.6500 C   0  0  0  0  0  0  0  0  0  0  0  0
    3.8360  -11.4400   -4.5010 C   0  0  0  0  0  0  0  0  0  0  0  0
    4.8450  -14.4010   -3.9980 C   0  0  0  0  0  0  0  0  0  0  0  0
    5.7940  -15.2250   -3.4210 C   0  0  0  0  0  0  0  0  0  0  0  0
    6.3750  -16.4460   -3.9640 C   0  0  0  0  0  0  0  0  0  0  0  0
    5.7440  -17.4980   -3.9940 O   0  0  0  0  0  0  0  0  0  0  0  0
    7.7480  -16.3590   -4.4940 C   0  0  0  0  0  0  0  0  0  0  0  0
    8.8310  -16.2180   -3.7070 N   0  0  0  0  0  0  0  0  0  0  0  0
    9.8860  -16.0880   -4.5480 N   0  0  0  0  0  0  0  0  0  0  0  0
   11.2060  -15.9260   -4.0390 C   0  0  0  0  0  0  0  0  0  0  0  0
   11.5330  -16.3030   -2.7290 C   0  0  0  0  0  0  0  0  0  0  0  0
   12.8390  -16.1300   -2.2570 C   0  0  0  0  0  0  0  0  0  0  0  0
   13.8190  -15.5850   -3.0840 C   0  0  0  0  0  0  0  0  0  0  0  0
   13.5010  -15.2090   -4.3870 C   0  0  0  0  0  0  0  0  0  0  0  0
   12.2000  -15.3770   -4.8660 C   0  0  0  0  0  0  0  0  0  0  0  0
    9.4850  -16.1400   -5.8620 C   0  0  0  0  0  0  0  0  0  0  0  0
    8.1170  -16.3230   -5.8650 C   0  0  0  0  0  0  0  0  0  0  0  0
    7.2660  -16.5170   -7.0220 C   0  0  0  0  0  0  0  0  0  0  0  0
    6.7360  -17.6030   -7.2350 O   0  0  0  0  0  0  0  0  0  0  0  0
    7.0910  -15.3990   -7.9920 C   0  0  0  0  0  0  0  0  0  0  0  0
    7.4340  -15.5250   -9.3450 C   0  0  0  0  0  0  0  0  0  0  0  0
    7.2530  -14.4480  -10.2170 C   0  0  0  0  0  0  0  0  0  0  0  0
    6.7370  -13.2430   -9.7420 C   0  0  0  0  0  0  0  0  0  0  0  0
    6.4080  -13.1060   -8.3940 C   0  0  0  0  0  0  0  0  0  0  0  0
    6.5880  -14.1790   -7.5200 C   0  0  0  0  0  0  0  0  0  0  0  0
    5.7204  -11.6051    2.3865 H   0  0  0  0  0  0  0  0  0  0  0  0
    6.5166  -11.1661    0.8373 H   0  0  0  0  0  0  0  0  0  0  0  0
    5.0974  -12.2673    0.8373 H   0  0  0  0  0  0  0  0  0  0  0  0
   11.1545  -11.3161    1.2833 H   0  0  0  0  0  0  0  0  0  0  0  0
   13.3736  -10.2325    0.9389 H   0  0  0  0  0  0  0  0  0  0  0  0
   14.6021  -10.5567   -1.2059 H   0  0  0  0  0  0  0  0  0  0  0  0
   13.6080  -11.9552   -3.0132 H   0  0  0  0  0  0  0  0  0  0  0  0
   11.3902  -13.0471   -2.6796 H   0  0  0  0  0  0  0  0  0  0  0  0
    9.5442  -14.1195   -2.2482 H   0  0  0  0  0  0  0  0  0  0  0  0
    2.8131  -12.4982   -1.4144 H   0  0  0  0  0  0  0  0  0  0  0  0
    1.2845  -10.5485   -1.6957 H   0  0  0  0  0  0  0  0  0  0  0  0
    1.3861   -9.1709   -3.7688 H   0  0  0  0  0  0  0  0  0  0  0  0
    3.0190   -9.7355   -5.5633 H   0  0  0  0  0  0  0  0  0  0  0  0
    4.5530  -11.6877   -5.2976 H   0  0  0  0  0  0  0  0  0  0  0  0
    4.3371  -14.5698   -4.9590 H   0  0  0  0  0  0  0  0  0  0  0  0
   10.7633  -16.7347   -2.0723 H   0  0  0  0  0  0  0  0  0  0  0  0
   13.0930  -16.4256   -1.2284 H   0  0  0  0  0  0  0  0  0  0  0  0
   14.8440  -15.4516   -2.7078 H   0  0  0  0  0  0  0  0  0  0  0  0
   14.2755  -14.7793   -5.0394 H   0  0  0  0  0  0  0  0  0  0  0  0
   11.9525  -15.0782   -5.8953 H   0  0  0  0  0  0  0  0  0  0  0  0
   10.1335  -16.0521   -6.7461 H   0  0  0  0  0  0  0  0  0  0  0  0
    7.8463  -16.4729   -9.7211 H   0  0  0  0  0  0  0  0  0  0  0  0
    7.5180  -14.5511  -11.2796 H   0  0  0  0  0  0  0  0  0  0  0  0
    6.5892  -12.3990  -10.4318 H   0  0  0  0  0  0  0  0  0  0  0  0
    6.0068  -12.1527   -8.0196 H   0  0  0  0  0  0  0  0  0  0  0  0
    6.3339  -14.0667   -6.4557 H   0  0  0  0  0  0  0  0  0  0  0  0
  1  2  1  0
  2  3  2  0
  2  4  1  0
  4  5  2  0
  5  6  1  0
  6  7  1  0
  7  8  2  0
  8  9  1  0
  9 10  2  0
 10 11  1  0
 11 12  2  0
  6 13  1  0
 13 14  2  0
 14 15  1  0
 15 16  2  0
 15 17  1  0
 17 18  2  0
 18 19  1  0
 19 20  1  0
 20 21  2  0
 21 22  1  0
 22 23  2  0
 23 24  1  0
 24 25  2  0
 19 26  1  0
 26 27  2  0
 27 28  1  0
 28 29  2  0
 28 30  1  0
 30 31  2  0
 31 32  1  0
 32 33  1  0
 33 34  2  0
 34 35  1  0
 35 36  2  0
 36 37  1  0
 37 38  2  0
 32 39  1  0
 39 40  2  0
 40 41  1  0
 41 42  2  0
 41 43  1  0
 43 44  2  0
 44 45  1  0
 45 46  2  0
 46 47  1  0
 47 48  2  0
 14  4  1  0
 27 17  1  0
 40 30  1  0
 48 43  1  0
 12  7  1  0
 25 20  1  0
 38 33  1  0
  1 49  1  0
  1 50  1  0
  1 51  1  0
  8 52  1  0
  9 53  1  0
 10 54  1  0
 11 55  1  0
 12 56  1  0
 13 57  1  0
 21 58  1  0
 22 59  1  0
 23 60  1  0
 24 61  1  0
 25 62  1  0
 26 63  1  0
 34 64  1  0
 35 65  1  0
 36 66  1  0
 37 67  1  0
 38 68  1  0
 39 69  1  0
 44 70  1  0
 45 71  1  0
 46 72  1  0
 47 73  1  0
 48 74  1  0
M  END
>  <meeko>  (8) 
{"is_sidechain": [false], "free_energy": -9.39, "intermolecular_energy": -14.634, "internal_energy": -4.044}

$$$$
LIB_JFADHIAXFVRSJF__M_PUB_ALL__e8__s20260927
     RDKit          3D

 74 80  0  0  0  0  0  0  0  0999 V2000
   -0.3080  -14.0280    4.7390 C   0  0  0  0  0  0  0  0  0  0  0  0
    1.0470  -14.5660    4.3520 C   0  0  0  0  0  0  0  0  0  0  0  0
    1.9270  -14.7060    5.2010 O   0  0  0  0  0  0  0  0  0  0  0  0
    1.2550  -14.9560    2.9490 C   0  0  0  0  0  0  0  0  0  0  0  0
    1.4610  -14.0210    2.0040 N   0  0  0  0  0  0  0  0  0  0  0  0
    1.4840  -14.6930    0.8260 N   0  0  0  0  0  0  0  0  0  0  0  0
    1.6560  -14.0000   -0.4050 C   0  0  0  0  0  0  0  0  0  0  0  0
    1.7470  -14.7290   -1.6010 C   0  0  0  0  0  0  0  0  0  0  0  0
    1.9160  -14.0680   -2.8200 C   0  0  0  0  0  0  0  0  0  0  0  0
    1.9940  -12.6780   -2.8540 C   0  0  0  0  0  0  0  0  0  0  0  0
    1.9070  -11.9460   -1.6710 C   0  0  0  0  0  0  0  0  0  0  0  0
    1.7370  -12.6010   -0.4470 C   0  0  0  0  0  0  0  0  0  0  0  0
    1.3280  -16.0420    1.0220 C   0  0  0  0  0  0  0  0  0  0  0  0
    1.2240  -16.2590    2.3840 C   0  0  0  0  0  0  0  0  0  0  0  0
    1.0970  -17.5760    3.0000 C   0  0  0  0  0  0  0  0  0  0  0  0
    1.7490  -18.5330    2.5900 O   0  0  0  0  0  0  0  0  0  0  0  0
    0.2630  -17.6640    4.2090 C   0  0  0  0  0  0  0  0  0  0  0  0
    0.8090  -17.7740    5.4380 N   0  0  0  0  0  0  0  0  0  0  0  0
   -0.2430  -17.8760    6.2890 N   0  0  0  0  0  0  0  0  0  0  0  0
   -0.0300  -17.9740    7.6930 C   0  0  0  0  0  0  0  0  0  0  0  0
    1.2810  -17.9810    8.1950 C   0  0  0  0  0  0  0  0  0  0  0  0
    1.5110  -18.0750    9.5690 C   0  0  0  0  0  0  0  0  0  0  0  0
    0.4380  -18.1620   10.4510 C   0  0  0  0  0  0  0  0  0  0  0  0
   -0.8670  -18.1550    9.9630 C   0  0  0  0  0  0  0  0  0  0  0  0
   -1.1060  -18.0630    8.5880 C   0  0  0  0  0  0  0  0  0  0  0  0
   -1.4360  -17.8710    5.6110 C   0  0  0  0  0  0  0  0  0  0  0  0
   -1.1540  -17.7350    4.2650 C   0  0  0  0  0  0  0  0  0  0  0  0
   -2.0930  -17.6170    3.1570 C   0  0  0  0  0  0  0  0  0  0  0  0
   -2.3120  -18.5580    2.4000 O   0  0  0  0  0  0  0  0  0  0  0  0
   -2.7840  -16.3250    2.9960 C   0  0  0  0  0  0  0  0  0  0  0  0
   -2.3530  -15.3610    2.1600 N   0  0  0  0  0  0  0  0  0  0  0  0
   -3.1840  -14.3070    2.3500 N   0  0  0  0  0  0  0  0  0  0  0  0
   -3.0140  -13.1040    1.6080 C   0  0  0  0  0  0  0  0  0  0  0  0
   -1.9680  -12.2140    1.8920 C   0  0  0  0  0  0  0  0  0  0  0  0
   -1.8280  -11.0390    1.1460 C   0  0  0  0  0  0  0  0  0  0  0  0
   -2.7230  -10.7470    0.1190 C   0  0  0  0  0  0  0  0  0  0  0  0
   -3.7630  -11.6270   -0.1700 C   0  0  0  0  0  0  0  0  0  0  0  0
   -3.9120  -12.8020    0.5700 C   0  0  0  0  0  0  0  0  0  0  0  0
   -4.1350  -14.5870    3.3010 C   0  0  0  0  0  0  0  0  0  0  0  0
   -3.9140  -15.8800    3.7320 C   0  0  0  0  0  0  0  0  0  0  0  0
   -4.7190  -16.6360    4.6710 C   0  0  0  0  0  0  0  0  0  0  0  0
   -5.0340  -17.7980    4.4350 O   0  0  0  0  0  0  0  0  0  0  0  0
   -5.2200  -15.9650    5.9050 C   0  0  0  0  0  0  0  0  0  0  0  0
   -6.3410  -15.1250    5.8950 C   0  0  0  0  0  0  0  0  0  0  0  0
   -6.7710  -14.5170    7.0770 C   0  0  0  0  0  0  0  0  0  0  0  0
   -6.0820  -14.7390    8.2690 C   0  0  0  0  0  0  0  0  0  0  0  0
   -4.9570  -15.5610    8.2830 C   0  0  0  0  0  0  0  0  0  0  0  0
   -4.5230  -16.1700    7.1040 C   0  0  0  0  0  0  0  0  0  0  0  0
   -0.3901  -13.9954    5.8354 H   0  0  0  0  0  0  0  0  0  0  0  0
   -0.4296  -13.0134    4.3319 H   0  0  0  0  0  0  0  0  0  0  0  0
   -1.0925  -14.6829    4.3319 H   0  0  0  0  0  0  0  0  0  0  0  0
    1.6849  -15.8270   -1.5783 H   0  0  0  0  0  0  0  0  0  0  0  0
    1.9875  -14.6457   -3.7534 H   0  0  0  0  0  0  0  0  0  0  0  0
    2.1243  -12.1577   -3.8144 H   0  0  0  0  0  0  0  0  0  0  0  0
    1.9723  -10.8483   -1.7002 H   0  0  0  0  0  0  0  0  0  0  0  0
    1.6668  -12.0182    0.4832 H   0  0  0  0  0  0  0  0  0  0  0  0
    1.2921  -16.8121    0.2374 H   0  0  0  0  0  0  0  0  0  0  0  0
    2.1322  -17.9120    7.5017 H   0  0  0  0  0  0  0  0  0  0  0  0
    2.5412  -18.0803    9.9546 H   0  0  0  0  0  0  0  0  0  0  0  0
    0.6202  -18.2363   11.5333 H   0  0  0  0  0  0  0  0  0  0  0  0
   -1.7133  -18.2221   10.6624 H   0  0  0  0  0  0  0  0  0  0  0  0
   -2.1384  -18.0605    8.2084 H   0  0  0  0  0  0  0  0  0  0  0  0
   -2.4370  -17.9594    6.0585 H   0  0  0  0  0  0  0  0  0  0  0  0
   -1.2579  -12.4399    2.7011 H   0  0  0  0  0  0  0  0  0  0  0  0
   -1.0072  -10.3422    1.3713 H   0  0  0  0  0  0  0  0  0  0  0  0
   -2.6082   -9.8211   -0.4638 H   0  0  0  0  0  0  0  0  0  0  0  0
   -4.4680  -11.3963   -0.9822 H   0  0  0  0  0  0  0  0  0  0  0  0
   -4.7355  -13.4939    0.3395 H   0  0  0  0  0  0  0  0  0  0  0  0
   -4.9252  -13.9078    3.6534 H   0  0  0  0  0  0  0  0  0  0  0  0
   -6.8834  -14.9439    4.9553 H   0  0  0  0  0  0  0  0  0  0  0  0
   -7.6547  -13.8620    7.0675 H   0  0  0  0  0  0  0  0  0  0  0  0
   -6.4272  -14.2645    9.1995 H   0  0  0  0  0  0  0  0  0  0  0  0
   -4.4109  -15.7301    9.2228 H   0  0  0  0  0  0  0  0  0  0  0  0
   -3.6307  -16.8132    7.1159 H   0  0  0  0  0  0  0  0  0  0  0  0
  1  2  1  0
  2  3  2  0
  2  4  1  0
  4  5  2  0
  5  6  1  0
  6  7  1  0
  7  8  2  0
  8  9  1  0
  9 10  2  0
 10 11  1  0
 11 12  2  0
  6 13  1  0
 13 14  2  0
 14 15  1  0
 15 16  2  0
 15 17  1  0
 17 18  2  0
 18 19  1  0
 19 20  1  0
 20 21  2  0
 21 22  1  0
 22 23  2  0
 23 24  1  0
 24 25  2  0
 19 26  1  0
 26 27  2  0
 27 28  1  0
 28 29  2  0
 28 30  1  0
 30 31  2  0
 31 32  1  0
 32 33  1  0
 33 34  2  0
 34 35  1  0
 35 36  2  0
 36 37  1  0
 37 38  2  0
 32 39  1  0
 39 40  2  0
 40 41  1  0
 41 42  2  0
 41 43  1  0
 43 44  2  0
 44 45  1  0
 45 46  2  0
 46 47  1  0
 47 48  2  0
 14  4  1  0
 27 17  1  0
 40 30  1  0
 48 43  1  0
 12  7  1  0
 25 20  1  0
 38 33  1  0
  1 49  1  0
  1 50  1  0
  1 51  1  0
  8 52  1  0
  9 53  1  0
 10 54  1  0
 11 55  1  0
 12 56  1  0
 13 57  1  0
 21 58  1  0
 22 59  1  0
 23 60  1  0
 24 61  1  0
 25 62  1  0
 26 63  1  0
 34 64  1  0
 35 65  1  0
 36 66  1  0
 37 67  1  0
 38 68  1  0
 39 69  1  0
 44 70  1  0
 45 71  1  0
 46 72  1  0
 47 73  1  0
 48 74  1  0
M  END
>  <meeko>  (9) 
{"is_sidechain": [false], "free_energy": -9.352, "intermolecular_energy": -14.795, "internal_energy": -3.822}

$$$$
