LIB_FYPXVPUOPMHLDN__M_PUB_ALL__e8__s20260927
     RDKit          3D

 85 91  0  0  0  0  0  0  0  0999 V2000
    3.0080  -18.1370   -0.9110 N   0  0  0  0  0  0  0  0  0  0  0  0
    3.2170  -17.0310   -0.1110 C   0  0  0  0  0  0  0  0  0  0  0  0
    2.3060  -16.6850    0.8850 C   0  0  0  0  0  0  0  0  0  0  0  0
    2.5430  -15.5940    1.7230 C   0  0  0  0  0  0  0  0  0  0  0  0
    3.7060  -14.8390    1.5730 C   0  0  0  0  0  0  0  0  0  0  0  0
    4.6440  -15.1720    0.5840 C   0  0  0  0  0  0  0  0  0  0  0  0
    5.9210  -14.3840    0.4390 C   0  0  0  0  0  0  0  0  0  0  0  0
    6.3500  -13.8790   -0.9420 N   0  0  0  0  0  0  0  0  0  0  0  0
    7.7110  -14.3970   -1.1730 C   0  0  0  0  0  0  0  0  0  0  0  0
    8.3830  -14.7370   -0.2150 O   0  0  0  0  0  0  0  0  0  0  0  0
    8.4580  -14.4100   -2.4340 N   0  0  0  0  0  0  0  0  0  0  0  0
    9.4660  -15.5630   -2.6120 C   0  0  0  0  0  0  0  0  0  0  0  0
    9.0260  -16.6100   -3.6320 C   0  0  0  0  0  0  0  0  0  0  0  0
    8.4740  -17.7900   -3.0880 C   0  0  0  0  0  0  0  0  0  0  0  0
    7.1230  -18.0540   -3.3080 C   0  0  0  0  0  0  0  0  0  0  0  0
    6.4380  -17.0340   -3.9840 C   0  0  0  0  0  0  0  0  0  0  0  0
    5.2340  -16.5070   -3.6950 N   0  0  0  0  0  0  0  0  0  0  0  0
    5.1440  -15.3500   -4.3590 N   0  0  0  0  0  0  0  0  0  0  0  0
    6.1290  -15.3420   -5.2910 C   0  0  0  0  0  0  0  0  0  0  0  0
    6.1630  -14.2950   -6.4800 C   0  0  0  0  0  0  0  0  0  0  0  0
    5.4230  -13.1290   -6.4670 C   0  0  0  0  0  0  0  0  0  0  0  0
    5.6220  -12.3490   -7.6430 C   0  0  0  0  0  0  0  0  0  0  0  0
    6.5000  -12.9540   -8.5160 C   0  0  0  0  0  0  0  0  0  0  0  0
    7.0680  -14.4520   -7.9150 S   0  0  0  0  0  0  0  0  0  0  0  0
    7.1340  -16.1490   -4.8170 C   0  0  0  0  0  0  0  0  0  0  0  0
    8.5170  -16.0640   -4.8350 C   0  0  0  0  0  0  0  0  0  0  0  0
    9.0610  -13.0540   -2.7760 C   0  0  2  0  0  0  0  0  0  0  0  0
   10.1810  -12.6390   -1.7860 C   0  0  0  0  0  0  0  0  0  0  0  0
   11.5310  -12.4600   -2.4410 C   0  0  0  0  0  0  0  0  0  0  0  0
   12.5550  -11.7790   -1.7640 C   0  0  0  0  0  0  0  0  0  0  0  0
   13.7980  -11.5920   -2.3670 C   0  0  0  0  0  0  0  0  0  0  0  0
   14.0370  -12.0920   -3.6440 C   0  0  0  0  0  0  0  0  0  0  0  0
   13.0370  -12.7900   -4.3160 C   0  0  0  0  0  0  0  0  0  0  0  0
   11.7920  -12.9800   -3.7170 C   0  0  0  0  0  0  0  0  0  0  0  0
    7.9440  -11.9830   -2.9170 C   0  0  2  0  0  0  0  0  0  0  0  0
    8.4490  -10.8260   -3.5870 O   0  0  0  0  0  0  0  0  0  0  0  0
    7.3410  -11.5740   -1.5540 C   0  0  1  0  0  0  0  0  0  0  0  0
    7.0630  -10.1610   -1.5670 O   0  0  0  0  0  0  0  0  0  0  0  0
    6.0700  -12.3990   -1.1700 C   0  0  1  0  0  0  0  0  0  0  0  0
    4.9670  -12.1490   -2.2420 C   0  0  0  0  0  0  0  0  0  0  0  0
    3.5920  -12.6120   -1.7950 C   0  0  0  0  0  0  0  0  0  0  0  0
    2.9280  -11.9510   -0.7510 C   0  0  0  0  0  0  0  0  0  0  0  0
    1.6740  -12.3880   -0.3200 C   0  0  0  0  0  0  0  0  0  0  0  0
    1.0670  -13.4810   -0.9340 C   0  0  0  0  0  0  0  0  0  0  0  0
    1.7080  -14.1300   -1.9880 C   0  0  0  0  0  0  0  0  0  0  0  0
    2.9610  -13.6950   -2.4200 C   0  0  0  0  0  0  0  0  0  0  0  0
    4.3940  -16.2860   -0.2330 C   0  0  0  0  0  0  0  0  0  0  0  0
    3.2010  -19.0620   -0.5440 H   0  0  0  0  0  0  0  0  0  0  0  0
    2.9070  -18.0410   -1.9120 H   0  0  0  0  0  0  0  0  0  0  0  0
    1.3889  -17.2788    1.0125 H   0  0  0  0  0  0  0  0  0  0  0  0
    1.8124  -15.3298    2.5017 H   0  0  0  0  0  0  0  0  0  0  0  0
    3.8888  -13.9783    2.2332 H   0  0  0  0  0  0  0  0  0  0  0  0
    5.8250  -13.4997    1.0861 H   0  0  0  0  0  0  0  0  0  0  0  0
    6.7023  -15.1136    0.6983 H   0  0  0  0  0  0  0  0  0  0  0  0
    5.7150  -14.4560   -1.5940 H   0  0  0  0  0  0  0  0  0  0  0  0
    7.7020  -14.5580   -3.1240 H   0  0  0  0  0  0  0  0  0  0  0  0
   10.4253  -15.1379   -2.9423 H   0  0  0  0  0  0  0  0  0  0  0  0
    9.5456  -16.0735   -1.6409 H   0  0  0  0  0  0  0  0  0  0  0  0
    9.0955  -18.4849   -2.5041 H   0  0  0  0  0  0  0  0  0  0  0  0
    6.6355  -18.9837   -2.9792 H   0  0  0  0  0  0  0  0  0  0  0  0
    4.7560  -12.8358   -5.6429 H   0  0  0  0  0  0  0  0  0  0  0  0
    5.1339  -11.3813   -7.8311 H   0  0  0  0  0  0  0  0  0  0  0  0
    6.7999  -12.5252   -9.4836 H   0  0  0  0  0  0  0  0  0  0  0  0
    9.1211  -15.6411   -5.6512 H   0  0  0  0  0  0  0  0  0  0  0  0
    9.5584  -13.1380   -3.7535 H   0  0  0  0  0  0  0  0  0  0  0  0
    9.8939  -11.6872   -1.3151 H   0  0  0  0  0  0  0  0  0  0  0  0
   10.2829  -13.4537   -1.0540 H   0  0  0  0  0  0  0  0  0  0  0  0
   12.3754  -11.3903   -0.7508 H   0  0  0  0  0  0  0  0  0  0  0  0
   14.5912  -11.0484   -1.8328 H   0  0  0  0  0  0  0  0  0  0  0  0
   15.0153  -11.9358   -4.1219 H   0  0  0  0  0  0  0  0  0  0  0  0
   13.2294  -13.1924   -5.3215 H   0  0  0  0  0  0  0  0  0  0  0  0
   11.0097  -13.5414   -4.2488 H   0  0  0  0  0  0  0  0  0  0  0  0
    7.1384  -12.4377   -3.5121 H   0  0  0  0  0  0  0  0  0  0  0  0
    7.7950  -10.5670   -4.2730 H   0  0  0  0  0  0  0  0  0  0  0  0
    8.0841  -11.8017   -0.7756 H   0  0  0  0  0  0  0  0  0  0  0  0
    6.0850  -10.0410   -1.5530 H   0  0  0  0  0  0  0  0  0  0  0  0
    5.7096  -12.0458   -0.1926 H   0  0  0  0  0  0  0  0  0  0  0  0
    4.9222  -11.0706   -2.4544 H   0  0  0  0  0  0  0  0  0  0  0  0
    5.2370  -12.7317   -3.1351 H   0  0  0  0  0  0  0  0  0  0  0  0
    3.3988  -11.0819   -0.2683 H   0  0  0  0  0  0  0  0  0  0  0  0
    1.1649  -11.8686    0.5053 H   0  0  0  0  0  0  0  0  0  0  0  0
    0.0835  -13.8314   -0.5877 H   0  0  0  0  0  0  0  0  0  0  0  0
    1.2248  -14.9869   -2.4801 H   0  0  0  0  0  0  0  0  0  0  0  0
    3.4573  -14.2064   -3.2579 H   0  0  0  0  0  0  0  0  0  0  0  0
    5.1406  -16.5793   -0.9858 H   0  0  0  0  0  0  0  0  0  0  0  0
  1  2  1  0
  2  3  2  0
  3  4  1  0
  4  5  2  0
  5  6  1  0
  6  7  1  0
  7  8  1  0
  8  9  1  0
  9 10  2  0
  9 11  1  0
 11 12  1  0
 12 13  1  0
 13 14  2  0
 14 15  1  0
 15 16  2  0
 16 17  1  0
 17 18  1  0
 18 19  2  0
 19 20  1  0
 20 21  2  0
 21 22  1  0
 22 23  2  0
 23 24  1  0
 19 25  1  0
 25 26  2  0
 11 27  1  0
 27 28  1  0
 28 29  1  0
 29 30  2  0
 30 31  1  0
 31 32  2  0
 32 33  1  0
 33 34  2  0
 27 35  1  0
 35 36  1  0
 35 37  1  0
 37 38  1  0
 37 39  1  0
 39 40  1  0
 40 41  1  0
 41 42  2  0
 42 43  1  0
 43 44  2  0
 44 45  1  0
 45 46  2  0
  6 47  2  0
 47  2  1  0
 39  8  1  0
 46 41  1  0
 26 13  1  0
 34 29  1  0
 25 16  1  0
 24 20  1  0
  1 48  1  0
  1 49  1  0
  3 50  1  0
  4 51  1  0
  5 52  1  0
  7 53  1  0
  7 54  1  0
  8 55  1  0
 11 56  1  0
 12 57  1  0
 12 58  1  0
 14 59  1  0
 15 60  1  0
 21 61  1  0
 22 62  1  0
 23 63  1  0
 26 64  1  0
 27 65  1  6
 28 66  1  0
 28 67  1  0
 30 68  1  0
 31 69  1  0
 32 70  1  0
 33 71  1  0
 34 72  1  0
 35 73  1  6
 36 74  1  0
 37 75  1  1
 38 76  1  0
 39 77  1  1
 40 78  1  0
 40 79  1  0
 42 80  1  0
 43 81  1  0
 44 82  1  0
 45 83  1  0
 46 84  1  0
 47 85  1  0
M  CHG  3   8   1  11   1  17  -1
M  END
>  <meeko>  (1) 
{"is_sidechain": [false], "free_energy": -6.749, "intermolecular_energy": -13.258, "internal_energy": -4.33}

$$$$
LIB_FYPXVPUOPMHLDN__M_PUB_ALL__e8__s20260927
     RDKit          3D

 85 91  0  0  0  0  0  0  0  0999 V2000
    7.6530  -19.3120   -5.0850 N   0  0  0  0  0  0  0  0  0  0  0  0
    8.4610  -18.2550   -4.7160 C   0  0  0  0  0  0  0  0  0  0  0  0
    9.0090  -17.4040   -5.6740 C   0  0  0  0  0  0  0  0  0  0  0  0
    9.7870  -16.3090   -5.2950 C   0  0  0  0  0  0  0  0  0  0  0  0
   10.0180  -16.0510   -3.9440 C   0  0  0  0  0  0  0  0  0  0  0  0
    9.4700  -16.8870   -2.9590 C   0  0  0  0  0  0  0  0  0  0  0  0
    9.6850  -16.5940   -1.4970 C   0  0  0  0  0  0  0  0  0  0  0  0
    9.0600  -15.3420   -0.8720 N   0  0  0  0  0  0  0  0  0  0  0  0
    7.6010  -15.4800   -1.0270 C   0  0  0  0  0  0  0  0  0  0  0  0
    7.0740  -16.5380   -0.7280 O   0  0  0  0  0  0  0  0  0  0  0  0
    6.6790  -14.5380   -1.6670 N   0  0  0  0  0  0  0  0  0  0  0  0
    6.8960  -14.2940   -3.1730 C   0  0  0  0  0  0  0  0  0  0  0  0
    5.8950  -15.0270   -4.0640 C   0  0  0  0  0  0  0  0  0  0  0  0
    4.5360  -14.7790   -3.7770 C   0  0  0  0  0  0  0  0  0  0  0  0
    3.7730  -14.0890   -4.7190 C   0  0  0  0  0  0  0  0  0  0  0  0
    4.5010  -13.6300   -5.8260 C   0  0  0  0  0  0  0  0  0  0  0  0
    4.4510  -12.4190   -6.4090 N   0  0  0  0  0  0  0  0  0  0  0  0
    5.5430  -12.3060   -7.1730 N   0  0  0  0  0  0  0  0  0  0  0  0
    6.0680  -13.5500   -7.3110 C   0  0  0  0  0  0  0  0  0  0  0  0
    7.1760  -13.8870   -8.3910 C   0  0  0  0  0  0  0  0  0  0  0  0
    8.4990  -14.1050   -8.0580 C   0  0  0  0  0  0  0  0  0  0  0  0
    9.3030  -14.3940   -9.1990 C   0  0  0  0  0  0  0  0  0  0  0  0
    8.5660  -14.3760  -10.3630 C   0  0  0  0  0  0  0  0  0  0  0  0
    6.9210  -14.0080  -10.0710 S   0  0  0  0  0  0  0  0  0  0  0  0
    5.6890  -14.2680   -6.2040 C   0  0  0  0  0  0  0  0  0  0  0  0
    6.3310  -15.1970   -5.3990 C   0  0  0  0  0  0  0  0  0  0  0  0
    6.5270  -13.2400   -0.8850 C   0  0  2  0  0  0  0  0  0  0  0  0
    6.2590  -12.0220   -1.8100 C   0  0  0  0  0  0  0  0  0  0  0  0
    4.7910  -11.7440   -2.0330 C   0  0  0  0  0  0  0  0  0  0  0  0
    3.8380  -12.2330   -1.1260 C   0  0  0  0  0  0  0  0  0  0  0  0
    2.4790  -11.9980   -1.3340 C   0  0  0  0  0  0  0  0  0  0  0  0
    2.0580  -11.2640   -2.4390 C   0  0  0  0  0  0  0  0  0  0  0  0
    2.9960  -10.7540   -3.3330 C   0  0  0  0  0  0  0  0  0  0  0  0
    4.3560  -10.9860   -3.1300 C   0  0  0  0  0  0  0  0  0  0  0  0
    7.7410  -13.0290    0.0610 C   0  0  2  0  0  0  0  0  0  0  0  0
    7.4730  -11.9710    0.9830 O   0  0  0  0  0  0  0  0  0  0  0  0
    9.0480  -12.7310   -0.7090 C   0  0  1  0  0  0  0  0  0  0  0  0
    9.9470  -12.0070    0.1520 O   0  0  0  0  0  0  0  0  0  0  0  0
    9.7330  -14.0430   -1.2970 C   0  0  1  0  0  0  0  0  0  0  0  0
   11.2470  -13.9950   -0.9290 C   0  0  0  0  0  0  0  0  0  0  0  0
   12.1310  -13.6410   -2.1100 C   0  0  0  0  0  0  0  0  0  0  0  0
   12.3150  -12.3000   -2.4790 C   0  0  0  0  0  0  0  0  0  0  0  0
   13.1080  -11.9700   -3.5790 C   0  0  0  0  0  0  0  0  0  0  0  0
   13.7350  -12.9740   -4.3130 C   0  0  0  0  0  0  0  0  0  0  0  0
   13.5790  -14.3080   -3.9410 C   0  0  0  0  0  0  0  0  0  0  0  0
   12.7860  -14.6410   -2.8420 C   0  0  0  0  0  0  0  0  0  0  0  0
    8.6730  -17.9700   -3.3640 C   0  0  0  0  0  0  0  0  0  0  0  0
    6.6750  -19.1440   -5.2930 H   0  0  0  0  0  0  0  0  0  0  0  0
    7.9390  -20.2660   -4.9170 H   0  0  0  0  0  0  0  0  0  0  0  0
    8.8262  -17.5976   -6.7413 H   0  0  0  0  0  0  0  0  0  0  0  0
   10.2182  -15.6491   -6.0622 H   0  0  0  0  0  0  0  0  0  0  0  0
   10.6328  -15.1879   -3.6490 H   0  0  0  0  0  0  0  0  0  0  0  0
    9.2952  -17.4576   -0.9382 H   0  0  0  0  0  0  0  0  0  0  0  0
   10.7657  -16.3997   -1.4317 H   0  0  0  0  0  0  0  0  0  0  0  0
    9.2490  -15.5030    0.1770 H   0  0  0  0  0  0  0  0  0  0  0  0
    5.7740  -15.0270   -1.5650 H   0  0  0  0  0  0  0  0  0  0  0  0
    6.8077  -13.2147   -3.3663 H   0  0  0  0  0  0  0  0  0  0  0  0
    7.8939  -14.6845   -3.4215 H   0  0  0  0  0  0  0  0  0  0  0  0
    4.0886  -15.1218   -2.8324 H   0  0  0  0  0  0  0  0  0  0  0  0
    2.6923  -13.9194   -4.6033 H   0  0  0  0  0  0  0  0  0  0  0  0
    8.8875  -14.0606   -7.0299 H   0  0  0  0  0  0  0  0  0  0  0  0
   10.3815  -14.6058   -9.1555 H   0  0  0  0  0  0  0  0  0  0  0  0
    8.9851  -14.5745  -11.3605 H   0  0  0  0  0  0  0  0  0  0  0  0
    7.0608  -15.9448   -5.7428 H   0  0  0  0  0  0  0  0  0  0  0  0
    5.6311  -13.3259   -0.2526 H   0  0  0  0  0  0  0  0  0  0  0  0
    6.7163  -11.1316   -1.3539 H   0  0  0  0  0  0  0  0  0  0  0  0
    6.6952  -12.2598   -2.7914 H   0  0  0  0  0  0  0  0  0  0  0  0
    4.1650  -12.8053   -0.2454 H   0  0  0  0  0  0  0  0  0  0  0  0
    1.7385  -12.3936   -0.6233 H   0  0  0  0  0  0  0  0  0  0  0  0
    0.9853  -11.0869   -2.6060 H   0  0  0  0  0  0  0  0  0  0  0  0
    2.6633  -10.1666   -4.2015 H   0  0  0  0  0  0  0  0  0  0  0  0
    5.0922  -10.5719   -3.8346 H   0  0  0  0  0  0  0  0  0  0  0  0
    7.8873  -13.9725    0.6073 H   0  0  0  0  0  0  0  0  0  0  0  0
    8.3060  -11.7760    1.4670 H   0  0  0  0  0  0  0  0  0  0  0  0
    8.7966  -12.1128   -1.5834 H   0  0  0  0  0  0  0  0  0  0  0  0
   10.7780  -12.5280    0.2350 H   0  0  0  0  0  0  0  0  0  0  0  0
    9.6102  -14.0454   -2.3901 H   0  0  0  0  0  0  0  0  0  0  0  0
   11.3932  -13.2400   -0.1425 H   0  0  0  0  0  0  0  0  0  0  0  0
   11.5362  -15.0007   -0.5901 H   0  0  0  0  0  0  0  0  0  0  0  0
   11.8304  -11.5024   -1.8967 H   0  0  0  0  0  0  0  0  0  0  0  0
   13.2379  -10.9162   -3.8665 H   0  0  0  0  0  0  0  0  0  0  0  0
   14.3527  -12.7143   -5.1854 H   0  0  0  0  0  0  0  0  0  0  0  0
   14.0820  -15.1002   -4.5149 H   0  0  0  0  0  0  0  0  0  0  0  0
   12.6742  -15.6951   -2.5482 H   0  0  0  0  0  0  0  0  0  0  0  0
    8.2050  -18.6084   -2.6002 H   0  0  0  0  0  0  0  0  0  0  0  0
  1  2  1  0
  2  3  2  0
  3  4  1  0
  4  5  2  0
  5  6  1  0
  6  7  1  0
  7  8  1  0
  8  9  1  0
  9 10  2  0
  9 11  1  0
 11 12  1  0
 12 13  1  0
 13 14  2  0
 14 15  1  0
 15 16  2  0
 16 17  1  0
 17 18  1  0
 18 19  2  0
 19 20  1  0
 20 21  2  0
 21 22  1  0
 22 23  2  0
 23 24  1  0
 19 25  1  0
 25 26  2  0
 11 27  1  0
 27 28  1  0
 28 29  1  0
 29 30  2  0
 30 31  1  0
 31 32  2  0
 32 33  1  0
 33 34  2  0
 27 35  1  0
 35 36  1  0
 35 37  1  0
 37 38  1  0
 37 39  1  0
 39 40  1  0
 40 41  1  0
 41 42  2  0
 42 43  1  0
 43 44  2  0
 44 45  1  0
 45 46  2  0
  6 47  2  0
 47  2  1  0
 39  8  1  0
 46 41  1  0
 26 13  1  0
 34 29  1  0
 25 16  1  0
 24 20  1  0
  1 48  1  0
  1 49  1  0
  3 50  1  0
  4 51  1  0
  5 52  1  0
  7 53  1  0
  7 54  1  0
  8 55  1  0
 11 56  1  0
 12 57  1  0
 12 58  1  0
 14 59  1  0
 15 60  1  0
 21 61  1  0
 22 62  1  0
 23 63  1  0
 26 64  1  0
 27 65  1  1
 28 66  1  0
 28 67  1  0
 30 68  1  0
 31 69  1  0
 32 70  1  0
 33 71  1  0
 34 72  1  0
 35 73  1  1
 36 74  1  0
 37 75  1  6
 38 76  1  0
 39 77  1  6
 40 78  1  0
 40 79  1  0
 42 80  1  0
 43 81  1  0
 44 82  1  0
 45 83  1  0
 46 84  1  0
 47 85  1  0
M  CHG  3   8   1  11   1  17  -1
M  END
>  <meeko>  (2) 
{"is_sidechain": [false], "free_energy": -6.647, "intermolecular_energy": -13.033, "internal_energy": -4.356}

$$$$
LIB_FYPXVPUOPMHLDN__M_PUB_ALL__e8__s20260927
     RDKit          3D

 85 91  0  0  0  0  0  0  0  0999 V2000
   -1.1310   -8.8460    3.3900 N   0  0  0  0  0  0  0  0  0  0  0  0
   -1.3460   -9.3700    2.1300 C   0  0  0  0  0  0  0  0  0  0  0  0
   -2.6390   -9.5470    1.6410 C   0  0  0  0  0  0  0  0  0  0  0  0
   -2.8530  -10.0330    0.3500 C   0  0  0  0  0  0  0  0  0  0  0  0
   -1.7670  -10.3410   -0.4690 C   0  0  0  0  0  0  0  0  0  0  0  0
   -0.4560  -10.1620   -0.0030 C   0  0  0  0  0  0  0  0  0  0  0  0
    0.7230  -10.4580   -0.8950 C   0  0  0  0  0  0  0  0  0  0  0  0
    1.5550  -11.7230   -0.6610 N   0  0  0  0  0  0  0  0  0  0  0  0
    2.7370  -11.6150   -1.5360 C   0  0  0  0  0  0  0  0  0  0  0  0
    2.6470  -10.9800   -2.5720 O   0  0  0  0  0  0  0  0  0  0  0  0
    4.0100  -12.3270   -1.4050 N   0  0  0  0  0  0  0  0  0  0  0  0
    5.2480  -11.6160   -1.9870 C   0  0  0  0  0  0  0  0  0  0  0  0
    6.3120  -11.2840   -0.9430 C   0  0  0  0  0  0  0  0  0  0  0  0
    5.9080  -11.4320    0.4010 C   0  0  0  0  0  0  0  0  0  0  0  0
    6.5010  -12.4370    1.1660 C   0  0  0  0  0  0  0  0  0  0  0  0
    7.3830  -13.2600    0.4530 C   0  0  0  0  0  0  0  0  0  0  0  0
    7.4750  -14.6020    0.4820 N   0  0  0  0  0  0  0  0  0  0  0  0
    8.1790  -14.9700   -0.5940 N   0  0  0  0  0  0  0  0  0  0  0  0
    8.7850  -13.8570   -1.0780 C   0  0  0  0  0  0  0  0  0  0  0  0
    9.9510  -13.9240   -2.1490 C   0  0  0  0  0  0  0  0  0  0  0  0
   10.0140  -14.9040   -3.1200 C   0  0  0  0  0  0  0  0  0  0  0  0
   11.1500  -14.7530   -3.9670 C   0  0  0  0  0  0  0  0  0  0  0  0
   11.9190  -13.6690   -3.6050 C   0  0  0  0  0  0  0  0  0  0  0  0
   11.2700  -12.8500   -2.2500 S   0  0  0  0  0  0  0  0  0  0  0  0
    8.0110  -12.7860   -0.7060 C   0  0  0  0  0  0  0  0  0  0  0  0
    7.6300  -11.6140   -1.3400 C   0  0  0  0  0  0  0  0  0  0  0  0
    3.9200  -13.7830   -1.8430 C   0  0  2  0  0  0  0  0  0  0  0  0
    3.7940  -13.9290   -3.3830 C   0  0  0  0  0  0  0  0  0  0  0  0
    4.9790  -14.6140   -4.0250 C   0  0  0  0  0  0  0  0  0  0  0  0
    5.8050  -13.9040   -4.9100 C   0  0  0  0  0  0  0  0  0  0  0  0
    6.8900  -14.5320   -5.5220 C   0  0  0  0  0  0  0  0  0  0  0  0
    7.1680  -15.8690   -5.2480 C   0  0  0  0  0  0  0  0  0  0  0  0
    6.3690  -16.5760   -4.3530 C   0  0  0  0  0  0  0  0  0  0  0  0
    5.2830  -15.9530   -3.7390 C   0  0  0  0  0  0  0  0  0  0  0  0
    2.7890  -14.5150   -1.0680 C   0  0  2  0  0  0  0  0  0  0  0  0
    2.9590  -15.9300   -1.1640 O   0  0  0  0  0  0  0  0  0  0  0  0
    1.3790  -14.1240   -1.5680 C   0  0  1  0  0  0  0  0  0  0  0  0
    0.5600  -15.3060   -1.6390 O   0  0  0  0  0  0  0  0  0  0  0  0
    0.7360  -13.0080   -0.6730 C   0  0  1  0  0  0  0  0  0  0  0  0
    0.4730  -13.5730    0.7550 C   0  0  0  0  0  0  0  0  0  0  0  0
   -0.9900  -13.5140    1.1540 C   0  0  0  0  0  0  0  0  0  0  0  0
   -1.9870  -13.8920    0.2430 C   0  0  0  0  0  0  0  0  0  0  0  0
   -3.3360  -13.8170    0.5970 C   0  0  0  0  0  0  0  0  0  0  0  0
   -3.6990  -13.3750    1.8670 C   0  0  0  0  0  0  0  0  0  0  0  0
   -2.7160  -13.0190    2.7880 C   0  0  0  0  0  0  0  0  0  0  0  0
   -1.3680  -13.0930    2.4360 C   0  0  0  0  0  0  0  0  0  0  0  0
   -0.2650   -9.6520    1.2910 C   0  0  0  0  0  0  0  0  0  0  0  0
   -1.2640   -7.8530    3.5470 H   0  0  0  0  0  0  0  0  0  0  0  0
   -0.6150   -9.3650    4.0860 H   0  0  0  0  0  0  0  0  0  0  0  0
   -3.5004   -9.3010    2.2794 H   0  0  0  0  0  0  0  0  0  0  0  0
   -3.8788  -10.1731   -0.0216 H   0  0  0  0  0  0  0  0  0  0  0  0
   -1.9392  -10.7260   -1.4849 H   0  0  0  0  0  0  0  0  0  0  0  0
    0.3378  -10.5157   -1.9237 H   0  0  0  0  0  0  0  0  0  0  0  0
    1.4266   -9.6437   -0.6671 H   0  0  0  0  0  0  0  0  0  0  0  0
    1.9280  -11.5590    0.3370 H   0  0  0  0  0  0  0  0  0  0  0  0
    4.1310  -12.3560   -0.3790 H   0  0  0  0  0  0  0  0  0  0  0  0
    5.6994  -12.2708   -2.7469 H   0  0  0  0  0  0  0  0  0  0  0  0
    4.9018  -10.6608   -2.4085 H   0  0  0  0  0  0  0  0  0  0  0  0
    5.1437  -10.7707    0.8352 H   0  0  0  0  0  0  0  0  0  0  0  0
    6.2937  -12.5718    2.2378 H   0  0  0  0  0  0  0  0  0  0  0  0
    9.2721  -15.7091   -3.2273 H   0  0  0  0  0  0  0  0  0  0  0  0
   11.3845  -15.4215   -4.8085 H   0  0  0  0  0  0  0  0  0  0  0  0
   12.8400  -13.3661   -4.1247 H   0  0  0  0  0  0  0  0  0  0  0  0
    8.2512  -11.0342   -2.0385 H   0  0  0  0  0  0  0  0  0  0  0  0
    4.8677  -14.2771   -1.5826 H   0  0  0  0  0  0  0  0  0  0  0  0
    2.8909  -14.5169   -3.6038 H   0  0  0  0  0  0  0  0  0  0  0  0
    3.7440  -12.9125   -3.8004 H   0  0  0  0  0  0  0  0  0  0  0  0
    5.5955  -12.8453   -5.1225 H   0  0  0  0  0  0  0  0  0  0  0  0
    7.5266  -13.9707   -6.2217 H   0  0  0  0  0  0  0  0  0  0  0  0
    8.0181  -16.3661   -5.7382 H   0  0  0  0  0  0  0  0  0  0  0  0
    6.5952  -17.6291   -4.1297 H   0  0  0  0  0  0  0  0  0  0  0  0
    4.6613  -16.5148   -3.0264 H   0  0  0  0  0  0  0  0  0  0  0  0
    2.8660  -14.1997   -0.0170 H   0  0  0  0  0  0  0  0  0  0  0  0
    2.7550  -16.1950   -2.0880 H   0  0  0  0  0  0  0  0  0  0  0  0
    1.4589  -13.6916   -2.5763 H   0  0  0  0  0  0  0  0  0  0  0  0
    1.0410  -15.9810   -2.1720 H   0  0  0  0  0  0  0  0  0  0  0  0
   -0.2309  -12.7213   -1.1123 H   0  0  0  0  0  0  0  0  0  0  0  0
    0.8024  -14.6221    0.7834 H   0  0  0  0  0  0  0  0  0  0  0  0
    1.0340  -12.9481    1.4654 H   0  0  0  0  0  0  0  0  0  0  0  0
   -1.7044  -14.2503   -0.7579 H   0  0  0  0  0  0  0  0  0  0  0  0
   -4.1117  -14.1070   -0.1271 H   0  0  0  0  0  0  0  0  0  0  0  0
   -4.7617  -13.3070    2.1428 H   0  0  0  0  0  0  0  0  0  0  0  0
   -3.0031  -12.6791    3.7940 H   0  0  0  0  0  0  0  0  0  0  0  0
   -0.5962  -12.8188    3.1703 H   0  0  0  0  0  0  0  0  0  0  0  0
    0.7580   -9.4705    1.6522 H   0  0  0  0  0  0  0  0  0  0  0  0
  1  2  1  0
  2  3  2  0
  3  4  1  0
  4  5  2  0
  5  6  1  0
  6  7  1  0
  7  8  1  0
  8  9  1  0
  9 10  2  0
  9 11  1  0
 11 12  1  0
 12 13  1  0
 13 14  2  0
 14 15  1  0
 15 16  2  0
 16 17  1  0
 17 18  1  0
 18 19  2  0
 19 20  1  0
 20 21  2  0
 21 22  1  0
 22 23  2  0
 23 24  1  0
 19 25  1  0
 25 26  2  0
 11 27  1  0
 27 28  1  0
 28 29  1  0
 29 30  2  0
 30 31  1  0
 31 32  2  0
 32 33  1  0
 33 34  2  0
 27 35  1  0
 35 36  1  0
 35 37  1  0
 37 38  1  0
 37 39  1  0
 39 40  1  0
 40 41  1  0
 41 42  2  0
 42 43  1  0
 43 44  2  0
 44 45  1  0
 45 46  2  0
  6 47  2  0
 47  2  1  0
 39  8  1  0
 46 41  1  0
 26 13  1  0
 34 29  1  0
 25 16  1  0
 24 20  1  0
  1 48  1  0
  1 49  1  0
  3 50  1  0
  4 51  1  0
  5 52  1  0
  7 53  1  0
  7 54  1  0
  8 55  1  0
 11 56  1  0
 12 57  1  0
 12 58  1  0
 14 59  1  0
 15 60  1  0
 21 61  1  0
 22 62  1  0
 23 63  1  0
 26 64  1  0
 27 65  1  1
 28 66  1  0
 28 67  1  0
 30 68  1  0
 31 69  1  0
 32 70  1  0
 33 71  1  0
 34 72  1  0
 35 73  1  1
 36 74  1  0
 37 75  1  6
 38 76  1  0
 39 77  1  6
 40 78  1  0
 40 79  1  0
 42 80  1  0
 43 81  1  0
 44 82  1  0
 45 83  1  0
 46 84  1  0
 47 85  1  0
M  CHG  3   8   1  11   1  17  -1
M  END
>  <meeko>  (3) 
{"is_sidechain": [false], "free_energy": -6.585, "intermolecular_energy": -13.326, "internal_energy": -3.94}

$$$$
LIB_FYPXVPUOPMHLDN__M_PUB_ALL__e8__s20260927
     RDKit          3D

 85 91  0  0  0  0  0  0  0  0999 V2000
   -1.5150   -8.8270    3.7020 N   0  0  0  0  0  0  0  0  0  0  0  0
   -1.5610   -9.6810    2.6180 C   0  0  0  0  0  0  0  0  0  0  0  0
   -2.3200   -9.3670    1.4920 C   0  0  0  0  0  0  0  0  0  0  0  0
   -2.3280  -10.2100    0.3790 C   0  0  0  0  0  0  0  0  0  0  0  0
   -1.5660  -11.3780    0.3830 C   0  0  0  0  0  0  0  0  0  0  0  0
   -0.7860  -11.7120    1.5000 C   0  0  0  0  0  0  0  0  0  0  0  0
    0.0690  -12.9530    1.4980 C   0  0  0  0  0  0  0  0  0  0  0  0
    0.2080  -13.7780    0.2140 N   0  0  0  0  0  0  0  0  0  0  0  0
   -0.7090  -14.9240    0.3510 C   0  0  0  0  0  0  0  0  0  0  0  0
   -1.5720  -15.0930   -0.4930 O   0  0  0  0  0  0  0  0  0  0  0  0
   -0.8340  -15.8340    1.4930 N   0  0  0  0  0  0  0  0  0  0  0  0
   -1.7240  -15.3480    2.6530 C   0  0  0  0  0  0  0  0  0  0  0  0
   -3.0040  -16.1620    2.8280 C   0  0  0  0  0  0  0  0  0  0  0  0
   -3.0140  -17.4190    2.1860 C   0  0  0  0  0  0  0  0  0  0  0  0
   -3.0310  -18.5680    2.9760 C   0  0  0  0  0  0  0  0  0  0  0  0
   -2.9370  -18.3220    4.3540 C   0  0  0  0  0  0  0  0  0  0  0  0
   -2.1660  -18.9510    5.2590 N   0  0  0  0  0  0  0  0  0  0  0  0
   -2.1250  -18.1730    6.3460 N   0  0  0  0  0  0  0  0  0  0  0  0
   -3.1210  -17.2590    6.2250 C   0  0  0  0  0  0  0  0  0  0  0  0
   -3.6030  -16.3640    7.4390 C   0  0  0  0  0  0  0  0  0  0  0  0
   -2.7420  -15.9160    8.4220 C   0  0  0  0  0  0  0  0  0  0  0  0
   -3.4060  -15.1270    9.4050 C   0  0  0  0  0  0  0  0  0  0  0  0
   -4.7540  -15.0100    9.1430 C   0  0  0  0  0  0  0  0  0  0  0  0
   -5.2030  -15.8540    7.7230 S   0  0  0  0  0  0  0  0  0  0  0  0
   -3.3480  -17.0920    4.8810 C   0  0  0  0  0  0  0  0  0  0  0  0
   -3.6270  -15.9900    4.0870 C   0  0  0  0  0  0  0  0  0  0  0  0
    0.5100  -16.3620    1.9750 C   0  0  2  0  0  0  0  0  0  0  0  0
    1.0460  -15.5790    3.2030 C   0  0  0  0  0  0  0  0  0  0  0  0
    1.0800  -16.3960    4.4740 C   0  0  0  0  0  0  0  0  0  0  0  0
    0.6810  -15.8190    5.6900 C   0  0  0  0  0  0  0  0  0  0  0  0
    0.7270  -16.5590    6.8720 C   0  0  0  0  0  0  0  0  0  0  0  0
    1.1600  -17.8810    6.8510 C   0  0  0  0  0  0  0  0  0  0  0  0
    1.5370  -18.4710    5.6470 C   0  0  0  0  0  0  0  0  0  0  0  0
    1.4920  -17.7360    4.4620 C   0  0  0  0  0  0  0  0  0  0  0  0
    1.5250  -16.4200    0.8000 C   0  0  2  0  0  0  0  0  0  0  0  0
    2.3900  -17.5490    0.9480 O   0  0  0  0  0  0  0  0  0  0  0  0
    2.3680  -15.1300    0.6820 C   0  0  1  0  0  0  0  0  0  0  0  0
    3.6710  -15.4650    0.1680 O   0  0  0  0  0  0  0  0  0  0  0  0
    1.6520  -14.0270   -0.2040 C   0  0  1  0  0  0  0  0  0  0  0  0
    1.7910  -14.4080   -1.7080 C   0  0  0  0  0  0  0  0  0  0  0  0
    2.1910  -13.2330   -2.5810 C   0  0  0  0  0  0  0  0  0  0  0  0
    2.6160  -13.4460   -3.9010 C   0  0  0  0  0  0  0  0  0  0  0  0
    3.0090  -12.3710   -4.7010 C   0  0  0  0  0  0  0  0  0  0  0  0
    2.9700  -11.0750   -4.1950 C   0  0  0  0  0  0  0  0  0  0  0  0
    2.5270  -10.8490   -2.8930 C   0  0  0  0  0  0  0  0  0  0  0  0
    2.1350  -11.9220   -2.0910 C   0  0  0  0  0  0  0  0  0  0  0  0
   -0.7770  -10.8380    2.6000 C   0  0  0  0  0  0  0  0  0  0  0  0
   -1.7880   -7.8570    3.5850 H   0  0  0  0  0  0  0  0  0  0  0  0
   -0.9920   -9.0700    4.5310 H   0  0  0  0  0  0  0  0  0  0  0  0
   -2.9194   -8.4447    1.4800 H   0  0  0  0  0  0  0  0  0  0  0  0
   -2.9355   -9.9528   -0.5012 H   0  0  0  0  0  0  0  0  0  0  0  0
   -1.5767  -12.0410   -0.4947 H   0  0  0  0  0  0  0  0  0  0  0  0
    1.0833  -12.6418    1.7884 H   0  0  0  0  0  0  0  0  0  0  0  0
   -0.4629  -13.6312    2.1815 H   0  0  0  0  0  0  0  0  0  0  0  0
   -0.2570  -13.1320   -0.5130 H   0  0  0  0  0  0  0  0  0  0  0  0
   -1.3100  -16.6450    1.0640 H   0  0  0  0  0  0  0  0  0  0  0  0
   -1.1434  -15.4093    3.5853 H   0  0  0  0  0  0  0  0  0  0  0  0
   -2.0283  -14.3181    2.4147 H   0  0  0  0  0  0  0  0  0  0  0  0
   -3.0085  -17.4906    1.0883 H   0  0  0  0  0  0  0  0  0  0  0  0
   -3.1113  -19.5809    2.5546 H   0  0  0  0  0  0  0  0  0  0  0  0
   -1.6658  -16.1427    8.4433 H   0  0  0  0  0  0  0  0  0  0  0  0
   -2.9036  -14.6669   10.2686 H   0  0  0  0  0  0  0  0  0  0  0  0
   -5.4568  -14.4426    9.7708 H   0  0  0  0  0  0  0  0  0  0  0  0
   -4.2339  -15.1230    4.3870 H   0  0  0  0  0  0  0  0  0  0  0  0
    0.3635  -17.3923    2.3313 H   0  0  0  0  0  0  0  0  0  0  0  0
    2.0685  -15.2401    2.9800 H   0  0  0  0  0  0  0  0  0  0  0  0
    0.3558  -14.7404    3.3771 H   0  0  0  0  0  0  0  0  0  0  0  0
    0.3298  -14.7768    5.7111 H   0  0  0  0  0  0  0  0  0  0  0  0
    0.4205  -16.0965    7.8218 H   0  0  0  0  0  0  0  0  0  0  0  0
    1.2046  -18.4602    7.7851 H   0  0  0  0  0  0  0  0  0  0  0  0
    1.8710  -19.5189    5.6304 H   0  0  0  0  0  0  0  0  0  0  0  0
    1.7815  -18.2106    3.5128 H   0  0  0  0  0  0  0  0  0  0  0  0
    0.9379  -16.5174   -0.1251 H   0  0  0  0  0  0  0  0  0  0  0  0
    3.1250  -17.4500    0.3040 H   0  0  0  0  0  0  0  0  0  0  0  0
    2.4780  -14.6869    1.6828 H   0  0  0  0  0  0  0  0  0  0  0  0
    3.9080  -16.3630    0.4940 H   0  0  0  0  0  0  0  0  0  0  0  0
    2.1567  -13.0635   -0.0397 H   0  0  0  0  0  0  0  0  0  0  0  0
    2.5571  -15.1918   -1.8020 H   0  0  0  0  0  0  0  0  0  0  0  0
    0.8057  -14.7547   -2.0528 H   0  0  0  0  0  0  0  0  0  0  0  0
    2.6398  -14.4673   -4.3088 H   0  0  0  0  0  0  0  0  0  0  0  0
    3.3496  -12.5486   -5.7317 H   0  0  0  0  0  0  0  0  0  0  0  0
    3.2887  -10.2295   -4.8224 H   0  0  0  0  0  0  0  0  0  0  0  0
    2.4862   -9.8236   -2.4969 H   0  0  0  0  0  0  0  0  0  0  0  0
    1.7795  -11.7367   -1.0667 H   0  0  0  0  0  0  0  0  0  0  0  0
   -0.1391  -11.0693    3.4658 H   0  0  0  0  0  0  0  0  0  0  0  0
  1  2  1  0
  2  3  2  0
  3  4  1  0
  4  5  2  0
  5  6  1  0
  6  7  1  0
  7  8  1  0
  8  9  1  0
  9 10  2  0
  9 11  1  0
 11 12  1  0
 12 13  1  0
 13 14  2  0
 14 15  1  0
 15 16  2  0
 16 17  1  0
 17 18  1  0
 18 19  2  0
 19 20  1  0
 20 21  2  0
 21 22  1  0
 22 23  2  0
 23 24  1  0
 19 25  1  0
 25 26  2  0
 11 27  1  0
 27 28  1  0
 28 29  1  0
 29 30  2  0
 30 31  1  0
 31 32  2  0
 32 33  1  0
 33 34  2  0
 27 35  1  0
 35 36  1  0
 35 37  1  0
 37 38  1  0
 37 39  1  0
 39 40  1  0
 40 41  1  0
 41 42  2  0
 42 43  1  0
 43 44  2  0
 44 45  1  0
 45 46  2  0
  6 47  2  0
 47  2  1  0
 39  8  1  0
 46 41  1  0
 26 13  1  0
 34 29  1  0
 25 16  1  0
 24 20  1  0
  1 48  1  0
  1 49  1  0
  3 50  1  0
  4 51  1  0
  5 52  1  0
  7 53  1  0
  7 54  1  0
  8 55  1  0
 11 56  1  0
 12 57  1  0
 12 58  1  0
 14 59  1  0
 15 60  1  0
 21 61  1  0
 22 62  1  0
 23 63  1  0
 26 64  1  0
 27 65  1  1
 28 66  1  0
 28 67  1  0
 30 68  1  0
 31 69  1  0
 32 70  1  0
 33 71  1  0
 34 72  1  0
 35 73  1  6
 36 74  1  0
 37 75  1  1
 38 76  1  0
 39 77  1  6
 40 78  1  0
 40 79  1  0
 42 80  1  0
 43 81  1  0
 44 82  1  0
 45 83  1  0
 46 84  1  0
 47 85  1  0
M  CHG  3   8   1  11   1  17  -1
M  END
>  <meeko>  (4) 
{"is_sidechain": [false], "free_energy": -6.553, "intermolecular_energy": -14.823, "internal_energy": -2.381}

$$$$
LIB_FYPXVPUOPMHLDN__M_PUB_ALL__e8__s20260927
     RDKit          3D

 85 91  0  0  0  0  0  0  0  0999 V2000
   -5.0790  -17.0570    5.1570 N   0  0  0  0  0  0  0  0  0  0  0  0
   -3.7910  -16.6500    5.4450 C   0  0  0  0  0  0  0  0  0  0  0  0
   -3.2970  -16.7080    6.7470 C   0  0  0  0  0  0  0  0  0  0  0  0
   -1.9800  -16.3400    7.0270 C   0  0  0  0  0  0  0  0  0  0  0  0
   -1.1390  -15.9140    5.9980 C   0  0  0  0  0  0  0  0  0  0  0  0
   -1.6100  -15.8560    4.6780 C   0  0  0  0  0  0  0  0  0  0  0  0
   -0.6980  -15.4330    3.5550 C   0  0  0  0  0  0  0  0  0  0  0  0
   -1.1210  -15.6690    2.1010 N   0  0  0  0  0  0  0  0  0  0  0  0
   -0.1110  -16.5670    1.5110 C   0  0  0  0  0  0  0  0  0  0  0  0
   -0.0070  -17.7010    1.9440 O   0  0  0  0  0  0  0  0  0  0  0  0
    0.9340  -16.2200    0.5460 N   0  0  0  0  0  0  0  0  0  0  0  0
    2.1760  -15.5070    1.1180 C   0  0  0  0  0  0  0  0  0  0  0  0
    3.4720  -16.2940    0.9400 C   0  0  0  0  0  0  0  0  0  0  0  0
    3.4120  -17.3550    0.0120 C   0  0  0  0  0  0  0  0  0  0  0  0
    4.1570  -17.2540   -1.1630 C   0  0  0  0  0  0  0  0  0  0  0  0
    4.8190  -16.0280   -1.3220 C   0  0  0  0  0  0  0  0  0  0  0  0
    4.8880  -15.2590   -2.4240 N   0  0  0  0  0  0  0  0  0  0  0  0
    5.2960  -14.0480   -2.0310 N   0  0  0  0  0  0  0  0  0  0  0  0
    5.7840  -14.1760   -0.7710 C   0  0  0  0  0  0  0  0  0  0  0  0
    6.6450  -13.0430   -0.0760 C   0  0  0  0  0  0  0  0  0  0  0  0
    6.0920  -12.0990    0.7660 C   0  0  0  0  0  0  0  0  0  0  0  0
    7.0650  -11.1880    1.2710 C   0  0  0  0  0  0  0  0  0  0  0  0
    8.3250  -11.4650    0.7870 C   0  0  0  0  0  0  0  0  0  0  0  0
    8.3220  -12.8090   -0.2710 S   0  0  0  0  0  0  0  0  0  0  0  0
    5.1470  -15.2530   -0.2040 C   0  0  0  0  0  0  0  0  0  0  0  0
    4.6430  -15.5080    1.0620 C   0  0  0  0  0  0  0  0  0  0  0  0
    0.3860  -15.5240   -0.6930 C   0  0  2  0  0  0  0  0  0  0  0  0
    0.7760  -14.0230   -0.7480 C   0  0  0  0  0  0  0  0  0  0  0  0
    1.4550  -13.6210   -2.0370 C   0  0  0  0  0  0  0  0  0  0  0  0
    2.1310  -12.3940   -2.1220 C   0  0  0  0  0  0  0  0  0  0  0  0
    2.7440  -12.0060   -3.3130 C   0  0  0  0  0  0  0  0  0  0  0  0
    2.7000  -12.8410   -4.4260 C   0  0  0  0  0  0  0  0  0  0  0  0
    2.0530  -14.0720   -4.3460 C   0  0  0  0  0  0  0  0  0  0  0  0
    1.4380  -14.4650   -3.1570 C   0  0  0  0  0  0  0  0  0  0  0  0
   -1.1450  -15.7590   -0.8160 C   0  0  2  0  0  0  0  0  0  0  0  0
   -1.5210  -15.8600   -2.1910 O   0  0  0  0  0  0  0  0  0  0  0  0
   -1.9720  -14.6490   -0.1290 C   0  0  1  0  0  0  0  0  0  0  0  0
   -3.3690  -14.9930   -0.1960 O   0  0  0  0  0  0  0  0  0  0  0  0
   -1.5080  -14.3960    1.3600 C   0  0  1  0  0  0  0  0  0  0  0  0
   -2.6280  -13.5890    2.0830 C   0  0  0  0  0  0  0  0  0  0  0  0
   -2.3810  -12.0920    2.0690 C   0  0  0  0  0  0  0  0  0  0  0  0
   -2.7790  -11.3210    0.9660 C   0  0  0  0  0  0  0  0  0  0  0  0
   -2.5330   -9.9470    0.9370 C   0  0  0  0  0  0  0  0  0  0  0  0
   -1.8990   -9.3290    2.0120 C   0  0  0  0  0  0  0  0  0  0  0  0
   -1.5200  -10.0810    3.1220 C   0  0  0  0  0  0  0  0  0  0  0  0
   -1.7650  -11.4550    3.1540 C   0  0  0  0  0  0  0  0  0  0  0  0
   -2.9320  -16.2510    4.4160 C   0  0  0  0  0  0  0  0  0  0  0  0
   -5.2300  -17.9520    4.7050 H   0  0  0  0  0  0  0  0  0  0  0  0
   -5.8430  -16.3960    5.1560 H   0  0  0  0  0  0  0  0  0  0  0  0
   -3.9521  -17.0475    7.5628 H   0  0  0  0  0  0  0  0  0  0  0  0
   -1.6046  -16.3858    8.0599 H   0  0  0  0  0  0  0  0  0  0  0  0
   -0.1025  -15.6225    6.2230 H   0  0  0  0  0  0  0  0  0  0  0  0
   -0.5345  -14.3511    3.6677 H   0  0  0  0  0  0  0  0  0  0  0  0
    0.1769  -16.0887    3.6759 H   0  0  0  0  0  0  0  0  0  0  0  0
   -2.0010  -16.2790    2.2260 H   0  0  0  0  0  0  0  0  0  0  0  0
    1.2410  -17.1530    0.2240 H   0  0  0  0  0  0  0  0  0  0  0  0
    2.2854  -14.5381    0.6088 H   0  0  0  0  0  0  0  0  0  0  0  0
    2.0132  -15.3965    2.2003 H   0  0  0  0  0  0  0  0  0  0  0  0
    2.7919  -18.2416    0.2105 H   0  0  0  0  0  0  0  0  0  0  0  0
    4.2198  -18.0666   -1.9017 H   0  0  0  0  0  0  0  0  0  0  0  0
    5.0223  -12.0549    1.0184 H   0  0  0  0  0  0  0  0  0  0  0  0
    6.8376  -10.3638    1.9631 H   0  0  0  0  0  0  0  0  0  0  0  0
    9.2254  -10.8903    1.0497 H   0  0  0  0  0  0  0  0  0  0  0  0
    5.0817  -15.1567    2.0076 H   0  0  0  0  0  0  0  0  0  0  0  0
    0.8590  -15.9778   -1.5764 H   0  0  0  0  0  0  0  0  0  0  0  0
   -0.1381  -13.4218   -0.6343 H   0  0  0  0  0  0  0  0  0  0  0  0
    1.4963  -13.8469    0.0645 H   0  0  0  0  0  0  0  0  0  0  0  0
    2.1776  -11.7339   -1.2433 H   0  0  0  0  0  0  0  0  0  0  0  0
    3.2633  -11.0382   -3.3731 H   0  0  0  0  0  0  0  0  0  0  0  0
    3.1756  -12.5291   -5.3675 H   0  0  0  0  0  0  0  0  0  0  0  0
    2.0269  -14.7360   -5.2226 H   0  0  0  0  0  0  0  0  0  0  0  0
    0.9369  -15.4424   -3.0976 H   0  0  0  0  0  0  0  0  0  0  0  0
   -1.3662  -16.7036   -0.2976 H   0  0  0  0  0  0  0  0  0  0  0  0
   -0.7280  -16.1360   -2.7000 H   0  0  0  0  0  0  0  0  0  0  0  0
   -1.8045  -13.7030   -0.6647 H   0  0  0  0  0  0  0  0  0  0  0  0
   -3.8910  -14.1580   -0.1850 H   0  0  0  0  0  0  0  0  0  0  0  0
   -0.5776  -13.8093    1.3500 H   0  0  0  0  0  0  0  0  0  0  0  0
   -3.5858  -13.7913    1.5812 H   0  0  0  0  0  0  0  0  0  0  0  0
   -2.6402  -13.9114    3.1346 H   0  0  0  0  0  0  0  0  0  0  0  0
   -3.2884  -11.8026    0.1183 H   0  0  0  0  0  0  0  0  0  0  0  0
   -2.8402   -9.3520    0.0643 H   0  0  0  0  0  0  0  0  0  0  0  0
   -1.6976   -8.2479    1.9848 H   0  0  0  0  0  0  0  0  0  0  0  0
   -1.0269   -9.5912    3.9746 H   0  0  0  0  0  0  0  0  0  0  0  0
   -1.4723  -12.0415    4.0373 H   0  0  0  0  0  0  0  0  0  0  0  0
   -3.2997  -16.2465    3.3793 H   0  0  0  0  0  0  0  0  0  0  0  0
  1  2  1  0
  2  3  2  0
  3  4  1  0
  4  5  2  0
  5  6  1  0
  6  7  1  0
  7  8  1  0
  8  9  1  0
  9 10  2  0
  9 11  1  0
 11 12  1  0
 12 13  1  0
 13 14  2  0
 14 15  1  0
 15 16  2  0
 16 17  1  0
 17 18  1  0
 18 19  2  0
 19 20  1  0
 20 21  2  0
 21 22  1  0
 22 23  2  0
 23 24  1  0
 19 25  1  0
 25 26  2  0
 11 27  1  0
 27 28  1  0
 28 29  1  0
 29 30  2  0
 30 31  1  0
 31 32  2  0
 32 33  1  0
 33 34  2  0
 27 35  1  0
 35 36  1  0
 35 37  1  0
 37 38  1  0
 37 39  1  0
 39 40  1  0
 40 41  1  0
 41 42  2  0
 42 43  1  0
 43 44  2  0
 44 45  1  0
 45 46  2  0
  6 47  2  0
 47  2  1  0
 39  8  1  0
 46 41  1  0
 26 13  1  0
 34 29  1  0
 25 16  1  0
 24 20  1  0
  1 48  1  0
  1 49  1  0
  3 50  1  0
  4 51  1  0
  5 52  1  0
  7 53  1  0
  7 54  1  0
  8 55  1  0
 11 56  1  0
 12 57  1  0
 12 58  1  0
 14 59  1  0
 15 60  1  0
 21 61  1  0
 22 62  1  0
 23 63  1  0
 26 64  1  0
 27 65  1  6
 28 66  1  0
 28 67  1  0
 30 68  1  0
 31 69  1  0
 32 70  1  0
 33 71  1  0
 34 72  1  0
 35 73  1  1
 36 74  1  0
 37 75  1  6
 38 76  1  0
 39 77  1  6
 40 78  1  0
 40 79  1  0
 42 80  1  0
 43 81  1  0
 44 82  1  0
 45 83  1  0
 46 84  1  0
 47 85  1  0
M  CHG  3   8   1  11   1  17  -1
M  END
>  <meeko>  (5) 
{"is_sidechain": [false], "free_energy": -6.531, "intermolecular_energy": -14.687, "internal_energy": -2.474}

$$$$
LIB_FYPXVPUOPMHLDN__M_PUB_ALL__e8__s20260927
     RDKit          3D

 85 91  0  0  0  0  0  0  0  0999 V2000
    1.0610  -18.8230    4.3190 N   0  0  0  0  0  0  0  0  0  0  0  0
    1.0370  -17.4570    4.5240 C   0  0  0  0  0  0  0  0  0  0  0  0
    0.5810  -16.9230    5.7280 C   0  0  0  0  0  0  0  0  0  0  0  0
    0.6020  -15.5450    5.9500 C   0  0  0  0  0  0  0  0  0  0  0  0
    1.0890  -14.6860    4.9640 C   0  0  0  0  0  0  0  0  0  0  0  0
    1.5620  -15.2000    3.7470 C   0  0  0  0  0  0  0  0  0  0  0  0
    2.1240  -14.2820    2.6920 C   0  0  0  0  0  0  0  0  0  0  0  0
    1.8120  -14.5420    1.2150 N   0  0  0  0  0  0  0  0  0  0  0  0
    3.1100  -14.6340    0.5220 C   0  0  0  0  0  0  0  0  0  0  0  0
    3.9520  -15.4060    0.9480 O   0  0  0  0  0  0  0  0  0  0  0  0
    3.6090  -13.7760   -0.5560 N   0  0  0  0  0  0  0  0  0  0  0  0
    3.9510  -12.3250   -0.1640 C   0  0  0  0  0  0  0  0  0  0  0  0
    5.4020  -11.9410   -0.4400 C   0  0  0  0  0  0  0  0  0  0  0  0
    6.2190  -11.8030    0.7020 C   0  0  0  0  0  0  0  0  0  0  0  0
    7.2530  -12.7190    0.8940 C   0  0  0  0  0  0  0  0  0  0  0  0
    7.2920  -13.7520   -0.0540 C   0  0  0  0  0  0  0  0  0  0  0  0
    7.4630  -15.0690    0.1590 N   0  0  0  0  0  0  0  0  0  0  0  0
    7.0760  -15.6990   -0.9550 N   0  0  0  0  0  0  0  0  0  0  0  0
    6.9930  -14.7660   -1.9370 C   0  0  0  0  0  0  0  0  0  0  0  0
    6.8740  -15.1540   -3.4680 C   0  0  0  0  0  0  0  0  0  0  0  0
    5.8140  -15.8810   -3.9720 C   0  0  0  0  0  0  0  0  0  0  0  0
    5.9270  -16.1030   -5.3750 C   0  0  0  0  0  0  0  0  0  0  0  0
    7.0770  -15.5450   -5.8900 C   0  0  0  0  0  0  0  0  0  0  0  0
    8.0070  -14.7690   -4.6820 S   0  0  0  0  0  0  0  0  0  0  0  0
    6.7360  -13.5640   -1.3250 C   0  0  0  0  0  0  0  0  0  0  0  0
    5.9240  -12.4850   -1.6380 C   0  0  0  0  0  0  0  0  0  0  0  0
    2.7520  -13.8510   -1.8120 C   0  0  2  0  0  0  0  0  0  0  0  0
    2.3950  -12.4460   -2.3680 C   0  0  0  0  0  0  0  0  0  0  0  0
    3.0130  -12.1540   -3.7160 C   0  0  0  0  0  0  0  0  0  0  0  0
    3.6400  -13.1820   -4.4380 C   0  0  0  0  0  0  0  0  0  0  0  0
    4.2300  -12.9180   -5.6740 C   0  0  0  0  0  0  0  0  0  0  0  0
    4.1920  -11.6330   -6.2060 C   0  0  0  0  0  0  0  0  0  0  0  0
    3.5520  -10.6100   -5.5100 C   0  0  0  0  0  0  0  0  0  0  0  0
    2.9600  -10.8690   -4.2730 C   0  0  0  0  0  0  0  0  0  0  0  0
    1.5030  -14.7430   -1.5670 C   0  0  2  0  0  0  0  0  0  0  0  0
    1.0170  -15.2660   -2.8050 O   0  0  0  0  0  0  0  0  0  0  0  0
    0.3690  -13.9870   -0.8390 C   0  0  1  0  0  0  0  0  0  0  0  0
   -0.8410  -14.7640   -0.9180 O   0  0  0  0  0  0  0  0  0  0  0  0
    0.7290  -13.6330    0.6460 C   0  0  1  0  0  0  0  0  0  0  0  0
   -0.5740  -13.6360    1.5000 C   0  0  0  0  0  0  0  0  0  0  0  0
   -1.0480  -12.2400    1.8600 C   0  0  0  0  0  0  0  0  0  0  0  0
   -1.0870  -11.8310    3.2020 C   0  0  0  0  0  0  0  0  0  0  0  0
   -1.5440  -10.5560    3.5410 C   0  0  0  0  0  0  0  0  0  0  0  0
   -1.9540   -9.6740    2.5440 C   0  0  0  0  0  0  0  0  0  0  0  0
   -1.8970  -10.0610    1.2070 C   0  0  0  0  0  0  0  0  0  0  0  0
   -1.4410  -11.3350    0.8650 C   0  0  0  0  0  0  0  0  0  0  0  0
    1.5510  -16.5910    3.5550 C   0  0  0  0  0  0  0  0  0  0  0  0
    0.2070  -19.3030    4.0550 H   0  0  0  0  0  0  0  0  0  0  0  0
    1.8290  -19.3850    4.6580 H   0  0  0  0  0  0  0  0  0  0  0  0
    0.2005  -17.5946    6.5117 H   0  0  0  0  0  0  0  0  0  0  0  0
    0.2345  -15.1360    6.9027 H   0  0  0  0  0  0  0  0  0  0  0  0
    1.1022  -13.6005    5.1417 H   0  0  0  0  0  0  0  0  0  0  0  0
    1.7584  -13.2703    2.9219 H   0  0  0  0  0  0  0  0  0  0  0  0
    3.2091  -14.4502    2.7579 H   0  0  0  0  0  0  0  0  0  0  0  0
    1.4360  -15.5520    1.2440 H   0  0  0  0  0  0  0  0  0  0  0  0
    4.4980  -14.2420   -0.8020 H   0  0  0  0  0  0  0  0  0  0  0  0
    3.2980  -11.6480   -0.7344 H   0  0  0  0  0  0  0  0  0  0  0  0
    3.7969  -12.2404    0.9219 H   0  0  0  0  0  0  0  0  0  0  0  0
    6.0445  -10.9918    1.4241 H   0  0  0  0  0  0  0  0  0  0  0  0
    7.9764  -12.6382    1.7187 H   0  0  0  0  0  0  0  0  0  0  0  0
    4.9769  -16.2474   -3.3597 H   0  0  0  0  0  0  0  0  0  0  0  0
    5.1863  -16.6529   -5.9741 H   0  0  0  0  0  0  0  0  0  0  0  0
    7.3628  -15.5929   -6.9511 H   0  0  0  0  0  0  0  0  0  0  0  0
    5.7187  -12.1122   -2.6523 H   0  0  0  0  0  0  0  0  0  0  0  0
    3.3473  -14.3321   -2.6021 H   0  0  0  0  0  0  0  0  0  0  0  0
    1.3014  -12.3778   -2.4647 H   0  0  0  0  0  0  0  0  0  0  0  0
    2.7993  -11.7068   -1.6608 H   0  0  0  0  0  0  0  0  0  0  0  0
    3.6661  -14.2018   -4.0264 H   0  0  0  0  0  0  0  0  0  0  0  0
    4.7264  -13.7275   -6.2293 H   0  0  0  0  0  0  0  0  0  0  0  0
    4.6672  -11.4249   -7.1760 H   0  0  0  0  0  0  0  0  0  0  0  0
    3.5132   -9.5966   -5.9360 H   0  0  0  0  0  0  0  0  0  0  0  0
    2.4485  -10.0594   -3.7317 H   0  0  0  0  0  0  0  0  0  0  0  0
    1.8228  -15.5677   -0.9132 H   0  0  0  0  0  0  0  0  0  0  0  0
    0.9090  -16.2370   -2.6990 H   0  0  0  0  0  0  0  0  0  0  0  0
    0.2208  -13.0215   -1.3448 H   0  0  0  0  0  0  0  0  0  0  0  0
   -0.6170  -15.7020   -0.7190 H   0  0  0  0  0  0  0  0  0  0  0  0
    1.1644  -12.6233    0.6770 H   0  0  0  0  0  0  0  0  0  0  0  0
   -1.3673  -14.1393    0.9279 H   0  0  0  0  0  0  0  0  0  0  0  0
   -0.3509  -14.1613    2.4403 H   0  0  0  0  0  0  0  0  0  0  0  0
   -0.7551  -12.5201    3.9926 H   0  0  0  0  0  0  0  0  0  0  0  0
   -1.5803  -10.2478    4.5963 H   0  0  0  0  0  0  0  0  0  0  0  0
   -2.3225   -8.6728    2.8121 H   0  0  0  0  0  0  0  0  0  0  0  0
   -2.2121   -9.3610    0.4191 H   0  0  0  0  0  0  0  0  0  0  0  0
   -1.3898  -11.6308   -0.1932 H   0  0  0  0  0  0  0  0  0  0  0  0
    1.9559  -17.0082    2.6212 H   0  0  0  0  0  0  0  0  0  0  0  0
  1  2  1  0
  2  3  2  0
  3  4  1  0
  4  5  2  0
  5  6  1  0
  6  7  1  0
  7  8  1  0
  8  9  1  0
  9 10  2  0
  9 11  1  0
 11 12  1  0
 12 13  1  0
 13 14  2  0
 14 15  1  0
 15 16  2  0
 16 17  1  0
 17 18  1  0
 18 19  2  0
 19 20  1  0
 20 21  2  0
 21 22  1  0
 22 23  2  0
 23 24  1  0
 19 25  1  0
 25 26  2  0
 11 27  1  0
 27 28  1  0
 28 29  1  0
 29 30  2  0
 30 31  1  0
 31 32  2  0
 32 33  1  0
 33 34  2  0
 27 35  1  0
 35 36  1  0
 35 37  1  0
 37 38  1  0
 37 39  1  0
 39 40  1  0
 40 41  1  0
 41 42  2  0
 42 43  1  0
 43 44  2  0
 44 45  1  0
 45 46  2  0
  6 47  2  0
 47  2  1  0
 39  8  1  0
 46 41  1  0
 26 13  1  0
 34 29  1  0
 25 16  1  0
 24 20  1  0
  1 48  1  0
  1 49  1  0
  3 50  1  0
  4 51  1  0
  5 52  1  0
  7 53  1  0
  7 54  1  0
  8 55  1  0
 11 56  1  0
 12 57  1  0
 12 58  1  0
 14 59  1  0
 15 60  1  0
 21 61  1  0
 22 62  1  0
 23 63  1  0
 26 64  1  0
 27 65  1  6
 28 66  1  0
 28 67  1  0
 30 68  1  0
 31 69  1  0
 32 70  1  0
 33 71  1  0
 34 72  1  0
 35 73  1  1
 36 74  1  0
 37 75  1  6
 38 76  1  0
 39 77  1  6
 40 78  1  0
 40 79  1  0
 42 80  1  0
 43 81  1  0
 44 82  1  0
 45 83  1  0
 46 84  1  0
 47 85  1  0
M  CHG  3   8   1  11   1  17  -1
M  END
>  <meeko>  (6) 
{"is_sidechain": [false], "free_energy": -6.41, "intermolecular_energy": -13.581, "internal_energy": -3.341}

$$$$
LIB_FYPXVPUOPMHLDN__M_PUB_ALL__e8__s20260927
     RDKit          3D

 85 91  0  0  0  0  0  0  0  0999 V2000
   -0.4440   -9.1290    2.0200 N   0  0  0  0  0  0  0  0  0  0  0  0
   -0.7960  -10.4640    2.0660 C   0  0  0  0  0  0  0  0  0  0  0  0
   -1.9110  -10.8860    2.7870 C   0  0  0  0  0  0  0  0  0  0  0  0
   -2.2910  -12.2290    2.7930 C   0  0  0  0  0  0  0  0  0  0  0  0
   -1.5560  -13.1660    2.0670 C   0  0  0  0  0  0  0  0  0  0  0  0
   -0.4340  -12.7650    1.3250 C   0  0  0  0  0  0  0  0  0  0  0  0
    0.3440  -13.7650    0.5080 C   0  0  0  0  0  0  0  0  0  0  0  0
    0.9440  -15.0000    1.1880 N   0  0  0  0  0  0  0  0  0  0  0  0
    2.4090  -14.8570    1.1000 C   0  0  0  0  0  0  0  0  0  0  0  0
    3.0620  -14.8400    2.1280 O   0  0  0  0  0  0  0  0  0  0  0  0
    3.2050  -14.5600   -0.0930 N   0  0  0  0  0  0  0  0  0  0  0  0
    3.0780  -13.1300   -0.6550 C   0  0  0  0  0  0  0  0  0  0  0  0
    4.3100  -12.2610   -0.4080 C   0  0  0  0  0  0  0  0  0  0  0  0
    4.4570  -11.7830    0.9120 C   0  0  0  0  0  0  0  0  0  0  0  0
    5.5260  -12.2540    1.6740 C   0  0  0  0  0  0  0  0  0  0  0  0
    6.2890  -13.2480    1.0450 C   0  0  0  0  0  0  0  0  0  0  0  0
    6.7410  -14.4030    1.5660 N   0  0  0  0  0  0  0  0  0  0  0  0
    7.0950  -15.1830    0.5390 N   0  0  0  0  0  0  0  0  0  0  0  0
    7.1720  -14.3920   -0.5610 C   0  0  0  0  0  0  0  0  0  0  0  0
    7.8610  -14.8720   -1.9030 C   0  0  0  0  0  0  0  0  0  0  0  0
    7.8320  -16.1860   -2.3280 C   0  0  0  0  0  0  0  0  0  0  0  0
    8.5160  -16.3710   -3.5630 C   0  0  0  0  0  0  0  0  0  0  0  0
    9.0530  -15.1920   -4.0330 C   0  0  0  0  0  0  0  0  0  0  0  0
    8.7320  -13.8810   -2.9820 S   0  0  0  0  0  0  0  0  0  0  0  0
    6.3200  -13.3360   -0.3520 C   0  0  0  0  0  0  0  0  0  0  0  0
    5.4420  -12.6390   -1.1680 C   0  0  0  0  0  0  0  0  0  0  0  0
    3.0640  -15.6220   -1.1760 C   0  0  2  0  0  0  0  0  0  0  0  0
    2.3090  -15.0950   -2.4250 C   0  0  0  0  0  0  0  0  0  0  0  0
    3.2250  -14.6120   -3.5260 C   0  0  0  0  0  0  0  0  0  0  0  0
    2.8040  -13.5900   -4.3910 C   0  0  0  0  0  0  0  0  0  0  0  0
    3.6340  -13.1510   -5.4230 C   0  0  0  0  0  0  0  0  0  0  0  0
    4.8940  -13.7170   -5.5940 C   0  0  0  0  0  0  0  0  0  0  0  0
    5.3310  -14.7150   -4.7270 C   0  0  0  0  0  0  0  0  0  0  0  0
    4.5050  -15.1580   -3.6940 C   0  0  0  0  0  0  0  0  0  0  0  0
    2.4380  -16.9170   -0.5880 C   0  0  2  0  0  0  0  0  0  0  0  0
    2.8930  -18.0600   -1.3150 O   0  0  0  0  0  0  0  0  0  0  0  0
    0.8930  -16.8800   -0.5870 C   0  0  1  0  0  0  0  0  0  0  0  0
    0.3910  -18.1970   -0.8820 O   0  0  0  0  0  0  0  0  0  0  0  0
    0.2980  -16.3120    0.7600 C   0  0  1  0  0  0  0  0  0  0  0  0
    0.3670  -17.4100    1.8630 C   0  0  0  0  0  0  0  0  0  0  0  0
   -0.0440  -16.8990    3.2320 C   0  0  0  0  0  0  0  0  0  0  0  0
    0.9150  -16.7390    4.2440 C   0  0  0  0  0  0  0  0  0  0  0  0
    0.5390  -16.2920    5.5120 C   0  0  0  0  0  0  0  0  0  0  0  0
   -0.7940  -15.9900    5.7770 C   0  0  0  0  0  0  0  0  0  0  0  0
   -1.7510  -16.1220    4.7730 C   0  0  0  0  0  0  0  0  0  0  0  0
   -1.3780  -16.5690    3.5050 C   0  0  0  0  0  0  0  0  0  0  0  0
   -0.0830  -11.4060    1.3170 C   0  0  0  0  0  0  0  0  0  0  0  0
    0.2230   -8.7660    2.6920 H   0  0  0  0  0  0  0  0  0  0  0  0
   -1.0060   -8.4630    1.5090 H   0  0  0  0  0  0  0  0  0  0  0  0
   -2.4987  -10.1522    3.3582 H   0  0  0  0  0  0  0  0  0  0  0  0
   -3.1708  -12.5487    3.3707 H   0  0  0  0  0  0  0  0  0  0  0  0
   -1.8569  -14.2240    2.0759 H   0  0  0  0  0  0  0  0  0  0  0  0
   -0.3337  -14.1312   -0.2773 H   0  0  0  0  0  0  0  0  0  0  0  0
    1.2283  -13.1970    0.1834 H   0  0  0  0  0  0  0  0  0  0  0  0
    0.7050  -14.8180    2.2230 H   0  0  0  0  0  0  0  0  0  0  0  0
    4.1690  -14.6600    0.2660 H   0  0  0  0  0  0  0  0  0  0  0  0
    2.9123  -13.1970   -1.7404 H   0  0  0  0  0  0  0  0  0  0  0  0
    2.2374  -12.6522   -0.1306 H   0  0  0  0  0  0  0  0  0  0  0  0
    3.7451  -11.0560    1.3299 H   0  0  0  0  0  0  0  0  0  0  0  0
    5.7514  -11.8776    2.6827 H   0  0  0  0  0  0  0  0  0  0  0  0
    7.3366  -16.9976   -1.7749 H   0  0  0  0  0  0  0  0  0  0  0  0
    8.6051  -17.3381   -4.0795 H   0  0  0  0  0  0  0  0  0  0  0  0
    9.6201  -15.1045   -4.9715 H   0  0  0  0  0  0  0  0  0  0  0  0
    5.5999  -12.4161   -2.2335 H   0  0  0  0  0  0  0  0  0  0  0  0
    4.0713  -15.8791   -1.5355 H   0  0  0  0  0  0  0  0  0  0  0  0
    1.6852  -15.9087   -2.8234 H   0  0  0  0  0  0  0  0  0  0  0  0
    1.7112  -14.2307   -2.1000 H   0  0  0  0  0  0  0  0  0  0  0  0
    1.8132  -13.1321   -4.2544 H   0  0  0  0  0  0  0  0  0  0  0  0
    3.2921  -12.3564   -6.1025 H   0  0  0  0  0  0  0  0  0  0  0  0
    5.5440  -13.3762   -6.4134 H   0  0  0  0  0  0  0  0  0  0  0  0
    6.3306  -15.1554   -4.8571 H   0  0  0  0  0  0  0  0  0  0  0  0
    4.8602  -15.9404   -3.0072 H   0  0  0  0  0  0  0  0  0  0  0  0
    2.7670  -16.9849    0.4594 H   0  0  0  0  0  0  0  0  0  0  0  0
    3.2160  -18.7210   -0.6640 H   0  0  0  0  0  0  0  0  0  0  0  0
    0.5620  -16.1812   -1.3694 H   0  0  0  0  0  0  0  0  0  0  0  0
    0.9370  -18.8520   -0.3890 H   0  0  0  0  0  0  0  0  0  0  0  0
   -0.7586  -16.0574    0.5907 H   0  0  0  0  0  0  0  0  0  0  0  0
   -0.3041  -18.2343    1.5801 H   0  0  0  0  0  0  0  0  0  0  0  0
    1.4137  -17.7404    1.9347 H   0  0  0  0  0  0  0  0  0  0  0  0
    1.9708  -16.9675    4.0366 H   0  0  0  0  0  0  0  0  0  0  0  0
    1.2961  -16.1784    6.3019 H   0  0  0  0  0  0  0  0  0  0  0  0
   -1.0916  -15.6472    6.7790 H   0  0  0  0  0  0  0  0  0  0  0  0
   -2.8023  -15.8734    4.9803 H   0  0  0  0  0  0  0  0  0  0  0  0
   -2.1367  -16.6630    2.7141 H   0  0  0  0  0  0  0  0  0  0  0  0
    0.7713  -11.0745    0.7085 H   0  0  0  0  0  0  0  0  0  0  0  0
  1  2  1  0
  2  3  2  0
  3  4  1  0
  4  5  2  0
  5  6  1  0
  6  7  1  0
  7  8  1  0
  8  9  1  0
  9 10  2  0
  9 11  1  0
 11 12  1  0
 12 13  1  0
 13 14  2  0
 14 15  1  0
 15 16  2  0
 16 17  1  0
 17 18  1  0
 18 19  2  0
 19 20  1  0
 20 21  2  0
 21 22  1  0
 22 23  2  0
 23 24  1  0
 19 25  1  0
 25 26  2  0
 11 27  1  0
 27 28  1  0
 28 29  1  0
 29 30  2  0
 30 31  1  0
 31 32  2  0
 32 33  1  0
 33 34  2  0
 27 35  1  0
 35 36  1  0
 35 37  1  0
 37 38  1  0
 37 39  1  0
 39 40  1  0
 40 41  1  0
 41 42  2  0
 42 43  1  0
 43 44  2  0
 44 45  1  0
 45 46  2  0
  6 47  2  0
 47  2  1  0
 39  8  1  0
 46 41  1  0
 26 13  1  0
 34 29  1  0
 25 16  1  0
 24 20  1  0
  1 48  1  0
  1 49  1  0
  3 50  1  0
  4 51  1  0
  5 52  1  0
  7 53  1  0
  7 54  1  0
  8 55  1  0
 11 56  1  0
 12 57  1  0
 12 58  1  0
 14 59  1  0
 15 60  1  0
 21 61  1  0
 22 62  1  0
 23 63  1  0
 26 64  1  0
 27 65  1  6
 28 66  1  0
 28 67  1  0
 30 68  1  0
 31 69  1  0
 32 70  1  0
 33 71  1  0
 34 72  1  0
 35 73  1  1
 36 74  1  0
 37 75  1  6
 38 76  1  0
 39 77  1  6
 40 78  1  0
 40 79  1  0
 42 80  1  0
 43 81  1  0
 44 82  1  0
 45 83  1  0
 46 84  1  0
 47 85  1  0
M  CHG  3   8   1  11   1  17  -1
M  END
>  <meeko>  (7) 
{"is_sidechain": [false], "free_energy": -6.264, "intermolecular_energy": -12.97, "internal_energy": -3.665}

$$$$
LIB_FYPXVPUOPMHLDN__M_PUB_ALL__e8__s20260927
     RDKit          3D

 85 91  0  0  0  0  0  0  0  0999 V2000
    3.3430  -11.6920    0.9130 N   0  0  0  0  0  0  0  0  0  0  0  0
    4.5210  -12.4120    0.8680 C   0  0  0  0  0  0  0  0  0  0  0  0
    4.9250  -13.1890    1.9520 C   0  0  0  0  0  0  0  0  0  0  0  0
    6.0920  -13.9520    1.8860 C   0  0  0  0  0  0  0  0  0  0  0  0
    6.8650  -13.9480    0.7250 C   0  0  0  0  0  0  0  0  0  0  0  0
    6.4740  -13.1810   -0.3830 C   0  0  0  0  0  0  0  0  0  0  0  0
    7.2830  -13.2000   -1.6550 C   0  0  0  0  0  0  0  0  0  0  0  0
    7.3150  -14.4670   -2.5170 N   0  0  0  0  0  0  0  0  0  0  0  0
    8.0450  -14.1160   -3.7490 C   0  0  0  0  0  0  0  0  0  0  0  0
    8.1960  -12.9410   -4.0300 O   0  0  0  0  0  0  0  0  0  0  0  0
    8.4930  -15.0240   -4.8080 N   0  0  0  0  0  0  0  0  0  0  0  0
    9.7760  -14.6120   -5.5570 C   0  0  0  0  0  0  0  0  0  0  0  0
   11.0560  -15.1620   -4.9310 C   0  0  0  0  0  0  0  0  0  0  0  0
   12.1670  -15.2380   -5.7970 C   0  0  0  0  0  0  0  0  0  0  0  0
   13.2600  -14.4080   -5.5500 C   0  0  0  0  0  0  0  0  0  0  0  0
   13.0710  -13.5050   -4.4950 C   0  0  0  0  0  0  0  0  0  0  0  0
   13.3690  -12.1930   -4.4590 N   0  0  0  0  0  0  0  0  0  0  0  0
   12.7030  -11.6680   -3.4260 N   0  0  0  0  0  0  0  0  0  0  0  0
   12.2800  -12.7000   -2.6530 C   0  0  0  0  0  0  0  0  0  0  0  0
   11.7310  -12.4880   -1.1820 C   0  0  0  0  0  0  0  0  0  0  0  0
   10.3840  -12.3770   -0.8990 C   0  0  0  0  0  0  0  0  0  0  0  0
   10.1370  -12.1950    0.4930 C   0  0  0  0  0  0  0  0  0  0  0  0
   11.3070  -12.1630    1.2210 C   0  0  0  0  0  0  0  0  0  0  0  0
   12.6850  -12.3470    0.2230 S   0  0  0  0  0  0  0  0  0  0  0  0
   12.1520  -13.7900   -3.4780 C   0  0  0  0  0  0  0  0  0  0  0  0
   11.2250  -14.8170   -3.5690 C   0  0  0  0  0  0  0  0  0  0  0  0
    7.3710  -15.4230   -5.7570 C   0  0  2  0  0  0  0  0  0  0  0  0
    6.8460  -14.2220   -6.5880 C   0  0  0  0  0  0  0  0  0  0  0  0
    7.0890  -14.3620   -8.0730 C   0  0  0  0  0  0  0  0  0  0  0  0
    6.4600  -13.4870   -8.9720 C   0  0  0  0  0  0  0  0  0  0  0  0
    6.6630  -13.6190  -10.3460 C   0  0  0  0  0  0  0  0  0  0  0  0
    7.5030  -14.6160  -10.8350 C   0  0  0  0  0  0  0  0  0  0  0  0
    8.1510  -15.4750   -9.9510 C   0  0  0  0  0  0  0  0  0  0  0  0
    7.9510  -15.3460   -8.5760 C   0  0  0  0  0  0  0  0  0  0  0  0
    6.2460  -16.1680   -4.9870 C   0  0  2  0  0  0  0  0  0  0  0  0
    5.3830  -16.8450   -5.9020 O   0  0  0  0  0  0  0  0  0  0  0  0
    5.4160  -15.2220   -4.0900 C   0  0  1  0  0  0  0  0  0  0  0  0
    4.0340  -15.6250   -4.1320 O   0  0  0  0  0  0  0  0  0  0  0  0
    5.9680  -15.1700   -2.6250 C   0  0  1  0  0  0  0  0  0  0  0  0
    5.9910  -16.6170   -2.0480 C   0  0  0  0  0  0  0  0  0  0  0  0
    5.0890  -16.7870   -0.8400 C   0  0  0  0  0  0  0  0  0  0  0  0
    5.3410  -17.8030    0.0940 C   0  0  0  0  0  0  0  0  0  0  0  0
    4.5000  -17.9790    1.1950 C   0  0  0  0  0  0  0  0  0  0  0  0
    3.4090  -17.1340    1.3800 C   0  0  0  0  0  0  0  0  0  0  0  0
    3.1630  -16.1060    0.4720 C   0  0  0  0  0  0  0  0  0  0  0  0
    4.0010  -15.9290   -0.6300 C   0  0  0  0  0  0  0  0  0  0  0  0
    5.2850  -12.4380   -0.3020 C   0  0  0  0  0  0  0  0  0  0  0  0
    2.4560  -12.1830    0.8730 H   0  0  0  0  0  0  0  0  0  0  0  0
    3.3370  -10.6970    0.7370 H   0  0  0  0  0  0  0  0  0  0  0  0
    4.3179  -13.2012    2.8692 H   0  0  0  0  0  0  0  0  0  0  0  0
    6.4024  -14.5571    2.7506 H   0  0  0  0  0  0  0  0  0  0  0  0
    7.7852  -14.5488    0.6778 H   0  0  0  0  0  0  0  0  0  0  0  0
    6.8952  -12.3911   -2.2916 H   0  0  0  0  0  0  0  0  0  0  0  0
    8.3199  -13.1061   -1.2999 H   0  0  0  0  0  0  0  0  0  0  0  0
    7.9900  -15.0950   -1.9590 H   0  0  0  0  0  0  0  0  0  0  0  0
    8.7160  -15.8790   -4.2710 H   0  0  0  0  0  0  0  0  0  0  0  0
    9.7084  -14.9816   -6.5908 H   0  0  0  0  0  0  0  0  0  0  0  0
    9.8393  -13.5150   -5.5067 H   0  0  0  0  0  0  0  0  0  0  0  0
   12.1710  -15.9358   -6.6474 H   0  0  0  0  0  0  0  0  0  0  0  0
   14.1912  -14.4578   -6.1335 H   0  0  0  0  0  0  0  0  0  0  0  0
    9.5919  -12.4237   -1.6609 H   0  0  0  0  0  0  0  0  0  0  0  0
    9.1341  -12.0925    0.9330 H   0  0  0  0  0  0  0  0  0  0  0  0
   11.3498  -12.0346    2.3126 H   0  0  0  0  0  0  0  0  0  0  0  0
   10.7056  -15.2870   -2.7208 H   0  0  0  0  0  0  0  0  0  0  0  0
    7.7829  -16.1269   -6.4951 H   0  0  0  0  0  0  0  0  0  0  0  0
    5.7628  -14.1297   -6.4200 H   0  0  0  0  0  0  0  0  0  0  0  0
    7.3984  -13.3317   -6.2531 H   0  0  0  0  0  0  0  0  0  0  0  0
    5.8025  -12.6918   -8.5908 H   0  0  0  0  0  0  0  0  0  0  0  0
    6.1587  -12.9345  -11.0440 H   0  0  0  0  0  0  0  0  0  0  0  0
    7.6547  -14.7251  -11.9190 H   0  0  0  0  0  0  0  0  0  0  0  0
    8.8217  -16.2566  -10.3373 H   0  0  0  0  0  0  0  0  0  0  0  0
    8.4734  -16.0211   -7.8822 H   0  0  0  0  0  0  0  0  0  0  0  0
    6.7395  -16.8988   -4.3294 H   0  0  0  0  0  0  0  0  0  0  0  0
    5.6140  -17.8000   -5.8830 H   0  0  0  0  0  0  0  0  0  0  0  0
    5.4998  -14.1965   -4.4789 H   0  0  0  0  0  0  0  0  0  0  0  0
    3.5120  -14.9900   -3.5900 H   0  0  0  0  0  0  0  0  0  0  0  0
    5.2929  -14.5519   -2.0149 H   0  0  0  0  0  0  0  0  0  0  0  0
    5.6605  -17.3129   -2.8332 H   0  0  0  0  0  0  0  0  0  0  0  0
    7.0208  -16.8253   -1.7221 H   0  0  0  0  0  0  0  0  0  0  0  0
    6.2079  -18.4663   -0.0419 H   0  0  0  0  0  0  0  0  0  0  0  0
    4.6996  -18.7853    1.9161 H   0  0  0  0  0  0  0  0  0  0  0  0
    2.7416  -17.2778    2.2425 H   0  0  0  0  0  0  0  0  0  0  0  0
    2.3066  -15.4326    0.6241 H   0  0  0  0  0  0  0  0  0  0  0  0
    3.8061  -15.1105   -1.3385 H   0  0  0  0  0  0  0  0  0  0  0  0
    4.9479  -11.8644   -1.1780 H   0  0  0  0  0  0  0  0  0  0  0  0
  1  2  1  0
  2  3  2  0
  3  4  1  0
  4  5  2  0
  5  6  1  0
  6  7  1  0
  7  8  1  0
  8  9  1  0
  9 10  2  0
  9 11  1  0
 11 12  1  0
 12 13  1  0
 13 14  2  0
 14 15  1  0
 15 16  2  0
 16 17  1  0
 17 18  1  0
 18 19  2  0
 19 20  1  0
 20 21  2  0
 21 22  1  0
 22 23  2  0
 23 24  1  0
 19 25  1  0
 25 26  2  0
 11 27  1  0
 27 28  1  0
 28 29  1  0
 29 30  2  0
 30 31  1  0
 31 32  2  0
 32 33  1  0
 33 34  2  0
 27 35  1  0
 35 36  1  0
 35 37  1  0
 37 38  1  0
 37 39  1  0
 39 40  1  0
 40 41  1  0
 41 42  2  0
 42 43  1  0
 43 44  2  0
 44 45  1  0
 45 46  2  0
  6 47  2  0
 47  2  1  0
 39  8  1  0
 46 41  1  0
 26 13  1  0
 34 29  1  0
 25 16  1  0
 24 20  1  0
  1 48  1  0
  1 49  1  0
  3 50  1  0
  4 51  1  0
  5 52  1  0
  7 53  1  0
  7 54  1  0
  8 55  1  0
 11 56  1  0
 12 57  1  0
 12 58  1  0
 14 59  1  0
 15 60  1  0
 21 61  1  0
 22 62  1  0
 23 63  1  0
 26 64  1  0
 27 65  1  6
 28 66  1  0
 28 67  1  0
 30 68  1  0
 31 69  1  0
 32 70  1  0
 33 71  1  0
 34 72  1  0
 35 73  1  1
 36 74  1  0
 37 75  1  6
 38 76  1  0
 39 77  1  1
 40 78  1  0
 40 79  1  0
 42 80  1  0
 43 81  1  0
 44 82  1  0
 45 83  1  0
 46 84  1  0
 47 85  1  0
M  CHG  3   8   1  11   1  17  -1
M  END
>  <meeko>  (8) 
{"is_sidechain": [false], "free_energy": -6.162, "intermolecular_energy": -13.18, "internal_energy": -3.255}

$$$$
LIB_FYPXVPUOPMHLDN__M_PUB_ALL__e8__s20260927
     RDKit          3D

 85 91  0  0  0  0  0  0  0  0999 V2000
    0.2550  -11.1710    0.0430 N   0  0  0  0  0  0  0  0  0  0  0  0
    0.0310  -11.8140    1.2440 C   0  0  0  0  0  0  0  0  0  0  0  0
   -0.9080  -11.3270    2.1520 C   0  0  0  0  0  0  0  0  0  0  0  0
   -1.1670  -12.0050    3.3440 C   0  0  0  0  0  0  0  0  0  0  0  0
   -0.4880  -13.1880    3.6360 C   0  0  0  0  0  0  0  0  0  0  0  0
    0.4550  -13.7050    2.7340 C   0  0  0  0  0  0  0  0  0  0  0  0
    1.1660  -15.0020    3.0250 C   0  0  0  0  0  0  0  0  0  0  0  0
    1.6580  -15.8750    1.8660 N   0  0  0  0  0  0  0  0  0  0  0  0
    3.0210  -15.4150    1.5430 C   0  0  0  0  0  0  0  0  0  0  0  0
    3.7110  -14.9480    2.4320 O   0  0  0  0  0  0  0  0  0  0  0  0
    3.6280  -15.2900    0.2160 N   0  0  0  0  0  0  0  0  0  0  0  0
    3.0420  -14.1970   -0.6980 C   0  0  0  0  0  0  0  0  0  0  0  0
    3.9030  -12.9380   -0.7810 C   0  0  0  0  0  0  0  0  0  0  0  0
    3.9910  -12.1870    0.4100 C   0  0  0  0  0  0  0  0  0  0  0  0
    5.2220  -12.1150    1.0620 C   0  0  0  0  0  0  0  0  0  0  0  0
    6.2270  -12.9040    0.4830 C   0  0  0  0  0  0  0  0  0  0  0  0
    7.1040  -13.7160    1.1000 N   0  0  0  0  0  0  0  0  0  0  0  0
    7.6160  -14.5220    0.1650 N   0  0  0  0  0  0  0  0  0  0  0  0
    7.3070  -13.9850   -1.0430 C   0  0  0  0  0  0  0  0  0  0  0  0
    7.9960  -14.4650   -2.3850 C   0  0  0  0  0  0  0  0  0  0  0  0
    9.0070  -15.4060   -2.4090 C   0  0  0  0  0  0  0  0  0  0  0  0
    9.4640  -15.6770   -3.7320 C   0  0  0  0  0  0  0  0  0  0  0  0
    8.7910  -14.9240   -4.6700 C   0  0  0  0  0  0  0  0  0  0  0  0
    7.6260  -13.8990   -3.9490 S   0  0  0  0  0  0  0  0  0  0  0  0
    6.1590  -13.2520   -0.8710 C   0  0  0  0  0  0  0  0  0  0  0  0
    5.0210  -13.0620   -1.6390 C   0  0  0  0  0  0  0  0  0  0  0  0
    3.7670  -16.6290   -0.4970 C   0  0  2  0  0  0  0  0  0  0  0  0
    4.0390  -16.4630   -2.0160 C   0  0  0  0  0  0  0  0  0  0  0  0
    5.2410  -17.2380   -2.5030 C   0  0  0  0  0  0  0  0  0  0  0  0
    6.0270  -17.9610   -1.5920 C   0  0  0  0  0  0  0  0  0  0  0  0
    7.1500  -18.6640   -2.0290 C   0  0  0  0  0  0  0  0  0  0  0  0
    7.4930  -18.6620   -3.3780 C   0  0  0  0  0  0  0  0  0  0  0  0
    6.7080  -17.9670   -4.2950 C   0  0  0  0  0  0  0  0  0  0  0  0
    5.5840  -17.2630   -3.8630 C   0  0  0  0  0  0  0  0  0  0  0  0
    2.5430  -17.5360   -0.1940 C   0  0  2  0  0  0  0  0  0  0  0  0
    2.6340  -18.7550   -0.9350 O   0  0  0  0  0  0  0  0  0  0  0  0
    1.1980  -16.8390   -0.5000 C   0  0  1  0  0  0  0  0  0  0  0  0
    0.2520  -17.8220   -0.9600 O   0  0  0  0  0  0  0  0  0  0  0  0
    0.6410  -16.0350    0.7420 C   0  0  1  0  0  0  0  0  0  0  0  0
   -0.6770  -16.7220    1.2100 C   0  0  0  0  0  0  0  0  0  0  0  0
   -1.8360  -15.7520    1.3420 C   0  0  0  0  0  0  0  0  0  0  0  0
   -2.5760  -15.6920    2.5320 C   0  0  0  0  0  0  0  0  0  0  0  0
   -3.6580  -14.8170    2.6500 C   0  0  0  0  0  0  0  0  0  0  0  0
   -4.0030  -13.9880    1.5860 C   0  0  0  0  0  0  0  0  0  0  0  0
   -3.2600  -14.0220    0.4080 C   0  0  0  0  0  0  0  0  0  0  0  0
   -2.1790  -14.8960    0.2870 C   0  0  0  0  0  0  0  0  0  0  0  0
    0.6830  -13.0170    1.5320 C   0  0  0  0  0  0  0  0  0  0  0  0
   -0.2940  -11.4260   -0.7700 H   0  0  0  0  0  0  0  0  0  0  0  0
    1.1010  -10.6400   -0.1100 H   0  0  0  0  0  0  0  0  0  0  0  0
   -1.4511  -10.3975    1.9263 H   0  0  0  0  0  0  0  0  0  0  0  0
   -1.9069  -11.6063    4.0536 H   0  0  0  0  0  0  0  0  0  0  0  0
   -0.6926  -13.7183    4.5778 H   0  0  0  0  0  0  0  0  0  0  0  0
    2.0480  -14.7527    3.6332 H   0  0  0  0  0  0  0  0  0  0  0  0
    0.3885  -15.6195    3.4984 H   0  0  0  0  0  0  0  0  0  0  0  0
    1.7900  -16.8290    2.3510 H   0  0  0  0  0  0  0  0  0  0  0  0
    4.5930  -15.0040    0.4530 H   0  0  0  0  0  0  0  0  0  0  0  0
    2.9355  -14.6121   -1.7111 H   0  0  0  0  0  0  0  0  0  0  0  0
    2.0770  -13.8979   -0.2628 H   0  0  0  0  0  0  0  0  0  0  0  0
    3.1088  -11.6699    0.8153 H   0  0  0  0  0  0  0  0  0  0  0  0
    5.3902  -11.4930    1.9535 H   0  0  0  0  0  0  0  0  0  0  0  0
    9.4134  -15.8912   -1.5093 H   0  0  0  0  0  0  0  0  0  0  0  0
   10.2573  -16.3993   -3.9747 H   0  0  0  0  0  0  0  0  0  0  0  0
    8.9802  -14.9758   -5.7524 H   0  0  0  0  0  0  0  0  0  0  0  0
    4.9918  -13.0152   -2.7376 H   0  0  0  0  0  0  0  0  0  0  0  0
    4.6572  -17.1373   -0.0980 H   0  0  0  0  0  0  0  0  0  0  0  0
    3.1536  -16.8113   -2.5680 H   0  0  0  0  0  0  0  0  0  0  0  0
    4.2490  -15.3976   -2.1918 H   0  0  0  0  0  0  0  0  0  0  0  0
    5.7556  -17.9734   -0.5261 H   0  0  0  0  0  0  0  0  0  0  0  0
    7.7651  -19.2206   -1.3066 H   0  0  0  0  0  0  0  0  0  0  0  0
    8.3839  -19.2092   -3.7199 H   0  0  0  0  0  0  0  0  0  0  0  0
    6.9750  -17.9733   -5.3621 H   0  0  0  0  0  0  0  0  0  0  0  0
    4.9626  -16.7240   -4.5934 H   0  0  0  0  0  0  0  0  0  0  0  0
    2.5650  -17.7515    0.8845 H   0  0  0  0  0  0  0  0  0  0  0  0
    2.9330  -18.5320   -1.8440 H   0  0  0  0  0  0  0  0  0  0  0  0
    1.3639  -16.0936   -1.2918 H   0  0  0  0  0  0  0  0  0  0  0  0
   -0.4720  -17.3530   -1.4360 H   0  0  0  0  0  0  0  0  0  0  0  0
    0.4283  -15.0009    0.4332 H   0  0  0  0  0  0  0  0  0  0  0  0
   -0.9488  -17.4954    0.4765 H   0  0  0  0  0  0  0  0  0  0  0  0
   -0.4899  -17.1490    2.2063 H   0  0  0  0  0  0  0  0  0  0  0  0
   -2.3021  -16.3389    3.3785 H   0  0  0  0  0  0  0  0  0  0  0  0
   -4.2380  -14.7828    3.5841 H   0  0  0  0  0  0  0  0  0  0  0  0
   -4.8618  -13.3065    1.6754 H   0  0  0  0  0  0  0  0  0  0  0  0
   -3.5260  -13.3587   -0.4282 H   0  0  0  0  0  0  0  0  0  0  0  0
   -1.5920  -14.9131   -0.6431 H   0  0  0  0  0  0  0  0  0  0  0  0
    1.3906  -13.4336    0.8000 H   0  0  0  0  0  0  0  0  0  0  0  0
  1  2  1  0
  2  3  2  0
  3  4  1  0
  4  5  2  0
  5  6  1  0
  6  7  1  0
  7  8  1  0
  8  9  1  0
  9 10  2  0
  9 11  1  0
 11 12  1  0
 12 13  1  0
 13 14  2  0
 14 15  1  0
 15 16  2  0
 16 17  1  0
 17 18  1  0
 18 19  2  0
 19 20  1  0
 20 21  2  0
 21 22  1  0
 22 23  2  0
 23 24  1  0
 19 25  1  0
 25 26  2  0
 11 27  1  0
 27 28  1  0
 28 29  1  0
 29 30  2  0
 30 31  1  0
 31 32  2  0
 32 33  1  0
 33 34  2  0
 27 35  1  0
 35 36  1  0
 35 37  1  0
 37 38  1  0
 37 39  1  0
 39 40  1  0
 40 41  1  0
 41 42  2  0
 42 43  1  0
 43 44  2  0
 44 45  1  0
 45 46  2  0
  6 47  2  0
 47  2  1  0
 39  8  1  0
 46 41  1  0
 26 13  1  0
 34 29  1  0
 25 16  1  0
 24 20  1  0
  1 48  1  0
  1 49  1  0
  3 50  1  0
  4 51  1  0
  5 52  1  0
  7 53  1  0
  7 54  1  0
  8 55  1  0
 11 56  1  0
 12 57  1  0
 12 58  1  0
 14 59  1  0
 15 60  1  0
 21 61  1  0
 22 62  1  0
 23 63  1  0
 26 64  1  0
 27 65  1  1
 28 66  1  0
 28 67  1  0
 30 68  1  0
 31 69  1  0
 32 70  1  0
 33 71  1  0
 34 72  1  0
 35 73  1  1
 36 74  1  0
 37 75  1  6
 38 76  1  0
 39 77  1  6
 40 78  1  0
 40 79  1  0
 42 80  1  0
 43 81  1  0
 44 82  1  0
 45 83  1  0
 46 84  1  0
 47 85  1  0
M  CHG  3   8   1  11   1  17  -1
M  END
>  <meeko>  (9) 
{"is_sidechain": [false], "free_energy": -6.123, "intermolecular_energy": -12.23, "internal_energy": -4.128}

$$$$
