LIB_YQPHBBQBBMIYLO__M_PUB_ALL__e8__s20260927
     RDKit          3D

 75 80  0  0  0  0  0  0  0  0999 V2000
    6.7540  -12.5870   -4.6000 C   0  0  0  0  0  0  0  0  0  0  0  0
    5.6720  -12.4680   -3.5610 C   0  0  0  0  0  0  0  0  0  0  0  0
    4.5420  -11.6900   -3.8640 C   0  0  0  0  0  0  0  0  0  0  0  0
    3.5050  -11.5310   -2.9440 C   0  0  0  0  0  0  0  0  0  0  0  0
    3.5800  -12.1460   -1.7000 C   0  0  0  0  0  0  0  0  0  0  0  0
    2.5840  -12.0470   -0.7040 N   0  0  0  0  0  0  0  0  0  0  0  0
    1.5060  -12.8860   -0.5090 C   0  0  0  0  0  0  0  0  0  0  0  0
    1.1660  -13.8270   -1.2160 O   0  0  0  0  0  0  0  0  0  0  0  0
    0.6490  -12.5630    0.6700 C   0  0  0  0  0  0  0  0  0  0  0  0
    0.5600  -13.5210    1.6940 C   0  0  0  0  0  0  0  0  0  0  0  0
   -0.2080  -13.3140    2.8490 C   0  0  0  0  0  0  0  0  0  0  0  0
   -0.2660  -14.2810    3.8470 N   0  0  0  0  0  0  0  0  0  0  0  0
    0.0690  -13.9350    5.2370 C   0  0  0  0  0  0  0  0  0  0  0  0
    0.5890  -15.1670    6.0060 C   0  0  0  0  0  0  0  0  0  0  0  0
   -0.3470  -16.3640    5.8780 N   0  0  0  0  0  0  0  0  0  0  0  0
   -1.5960  -16.2410    6.6960 C   0  0  0  0  0  0  0  0  0  0  0  0
   -0.6080  -16.6810    4.4080 C   0  0  0  0  0  0  0  0  0  0  0  0
   -1.1340  -15.4550    3.6360 C   0  0  0  0  0  0  0  0  0  0  0  0
   -0.8790  -12.0860    2.9480 C   0  0  0  0  0  0  0  0  0  0  0  0
   -0.7880  -11.0950    1.9490 C   0  0  0  0  0  0  0  0  0  0  0  0
   -1.5400   -9.7950    2.1070 C   0  0  0  0  0  0  0  0  0  0  0  0
   -0.7330   -8.7060    1.9750 F   0  0  0  0  0  0  0  0  0  0  0  0
   -2.1160   -9.6880    3.3350 F   0  0  0  0  0  0  0  0  0  0  0  0
   -2.5390   -9.6370    1.2000 F   0  0  0  0  0  0  0  0  0  0  0  0
   -0.0190  -11.3450    0.8030 C   0  0  0  0  0  0  0  0  0  0  0  0
    4.7050  -12.9290   -1.3990 C   0  0  0  0  0  0  0  0  0  0  0  0
    5.7610  -13.1170   -2.3070 C   0  0  0  0  0  0  0  0  0  0  0  0
    6.8990  -13.8930   -1.9960 N   0  0  0  0  0  0  0  0  0  0  0  0
    8.1320  -13.5050   -1.5740 C   0  0  0  0  0  0  0  0  0  0  0  0
    9.2790  -13.5930   -2.2110 N   0  0  0  0  0  0  0  0  0  0  0  0
   10.2120  -13.0160   -1.4050 C   0  0  0  0  0  0  0  0  0  0  0  0
   11.5790  -12.8130   -1.6610 C   0  0  0  0  0  0  0  0  0  0  0  0
   12.3520  -12.1230   -0.7250 C   0  0  0  0  0  0  0  0  0  0  0  0
   11.7700  -11.6280    0.4390 C   0  0  0  0  0  0  0  0  0  0  0  0
   10.4130  -11.8310    0.7150 C   0  0  0  0  0  0  0  0  0  0  0  0
    9.6510  -12.5700   -0.2100 C   0  0  0  0  0  0  0  0  0  0  0  0
    8.3200  -12.9850   -0.2790 N   0  0  0  0  0  0  0  0  0  0  0  0
    7.3120  -12.9210    0.7420 C   0  0  0  0  0  0  0  0  0  0  0  0
    6.6970  -11.7240    1.0530 C   0  0  0  0  0  0  0  0  0  0  0  0
    5.7410  -11.7500    2.0460 C   0  0  0  0  0  0  0  0  0  0  0  0
    5.0520  -10.6080    2.3910 N   0  0  0  0  0  0  0  0  0  0  0  0
    5.3900  -12.8720    2.6800 N   0  0  0  0  0  0  0  0  0  0  0  0
    6.0570  -13.9780    2.3410 C   0  0  0  0  0  0  0  0  0  0  0  0
    7.0240  -14.0630    1.4170 N   0  0  0  0  0  0  0  0  0  0  0  0
    7.7294  -12.6943   -4.1030 H   0  0  0  0  0  0  0  0  0  0  0  0
    6.5636  -13.4696   -5.2283 H   0  0  0  0  0  0  0  0  0  0  0  0
    6.7599  -11.6841   -5.2283 H   0  0  0  0  0  0  0  0  0  0  0  0
    4.4735  -11.1970   -4.8449 H   0  0  0  0  0  0  0  0  0  0  0  0
    2.6285  -10.9191   -3.2033 H   0  0  0  0  0  0  0  0  0  0  0  0
    2.6740  -11.2360   -0.1050 H   0  0  0  0  0  0  0  0  0  0  0  0
    1.1120  -14.4663    1.5859 H   0  0  0  0  0  0  0  0  0  0  0  0
    0.8470  -13.1573    5.2362 H   0  0  0  0  0  0  0  0  0  0  0  0
   -0.8413  -13.5706    5.7355 H   0  0  0  0  0  0  0  0  0  0  0  0
    1.5752  -15.4442    5.6054 H   0  0  0  0  0  0  0  0  0  0  0  0
    0.6501  -14.8989    7.0711 H   0  0  0  0  0  0  0  0  0  0  0  0
    0.1680  -17.1700    6.2530 H   0  0  0  0  0  0  0  0  0  0  0  0
   -1.3381  -16.2664    7.7650 H   0  0  0  0  0  0  0  0  0  0  0  0
   -2.0955  -15.2893    6.4618 H   0  0  0  0  0  0  0  0  0  0  0  0
   -2.2715  -17.0770    6.4618 H   0  0  0  0  0  0  0  0  0  0  0  0
    0.3320  -17.0155    3.9448 H   0  0  0  0  0  0  0  0  0  0  0  0
   -1.3768  -17.4664    4.3617 H   0  0  0  0  0  0  0  0  0  0  0  0
   -1.1627  -15.6920    2.5622 H   0  0  0  0  0  0  0  0  0  0  0  0
   -2.1416  -15.2152    4.0065 H   0  0  0  0  0  0  0  0  0  0  0  0
   -1.4977  -11.8893    3.8360 H   0  0  0  0  0  0  0  0  0  0  0  0
    0.0573  -10.5841    0.0123 H   0  0  0  0  0  0  0  0  0  0  0  0
    4.7625  -13.4147   -0.4137 H   0  0  0  0  0  0  0  0  0  0  0  0
    6.7450  -14.8990   -2.0560 H   0  0  0  0  0  0  0  0  0  0  0  0
   12.0343  -13.1931   -2.5874 H   0  0  0  0  0  0  0  0  0  0  0  0
   13.4258  -11.9698   -0.9081 H   0  0  0  0  0  0  0  0  0  0  0  0
   12.3883  -11.0669    1.1551 H   0  0  0  0  0  0  0  0  0  0  0  0
    9.9548  -11.4247    1.6287 H   0  0  0  0  0  0  0  0  0  0  0  0
    6.9584  -10.7914    0.5315 H   0  0  0  0  0  0  0  0  0  0  0  0
    5.5320   -9.7200    2.3920 H   0  0  0  0  0  0  0  0  0  0  0  0
    4.3690  -10.7590    3.1250 H   0  0  0  0  0  0  0  0  0  0  0  0
    5.7879  -14.9048    2.8688 H   0  0  0  0  0  0  0  0  0  0  0  0
  1  2  1  0
  2  3  2  0
  3  4  1  0
  4  5  2  0
  5  6  1  0
  6  7  1  0
  7  8  2  0
  7  9  1  0
  9 10  2  0
 10 11  1  0
 11 12  1  0
 12 13  1  0
 13 14  1  0
 14 15  1  0
 15 16  1  0
 15 17  1  0
 17 18  1  0
 11 19  2  0
 19 20  1  0
 20 21  1  0
 21 22  1  0
 21 23  1  0
 21 24  1  0
 20 25  2  0
  5 26  1  0
 26 27  2  0
 27 28  1  0
 28 29  1  0
 29 30  2  0
 30 31  1  0
 31 32  2  0
 32 33  1  0
 33 34  2  0
 34 35  1  0
 35 36  2  0
 36 37  1  0
 37 38  1  0
 38 39  2  0
 39 40  1  0
 40 41  1  0
 40 42  2  0
 42 43  1  0
 43 44  2  0
 27  2  1  0
 37 29  1  0
 44 38  1  0
 25  9  1  0
 36 31  1  0
 18 12  1  0
  1 45  1  0
  1 46  1  0
  1 47  1  0
  3 48  1  0
  4 49  1  0
  6 50  1  0
 10 51  1  0
 13 52  1  0
 13 53  1  0
 14 54  1  0
 14 55  1  0
 15 56  1  0
 16 57  1  0
 16 58  1  0
 16 59  1  0
 17 60  1  0
 17 61  1  0
 18 62  1  0
 18 63  1  0
 19 64  1  0
 25 65  1  0
 26 66  1  0
 28 67  1  0
 32 68  1  0
 33 69  1  0
 34 70  1  0
 35 71  1  0
 39 72  1  0
 41 73  1  0
 41 74  1  0
 43 75  1  0
M  CHG  1  15   1
M  END
>  <meeko>  (1) 
{"is_sidechain": [false], "free_energy": -9.863, "intermolecular_energy": -14.188, "internal_energy": -1.988}

$$$$
LIB_YQPHBBQBBMIYLO__M_PUB_ALL__e8__s20260927
     RDKit          3D

 75 80  0  0  0  0  0  0  0  0999 V2000
    9.9460  -18.2990   -0.9650 C   0  0  0  0  0  0  0  0  0  0  0  0
    8.8120  -17.3220   -1.1230 C   0  0  0  0  0  0  0  0  0  0  0  0
    7.5000  -17.8260   -1.1570 C   0  0  0  0  0  0  0  0  0  0  0  0
    6.4030  -16.9770   -1.3090 C   0  0  0  0  0  0  0  0  0  0  0  0
    6.5980  -15.6070   -1.4330 C   0  0  0  0  0  0  0  0  0  0  0  0
    5.5550  -14.6690   -1.5890 N   0  0  0  0  0  0  0  0  0  0  0  0
    4.7520  -14.1340   -0.6020 C   0  0  0  0  0  0  0  0  0  0  0  0
    4.7410  -14.4370    0.5850 O   0  0  0  0  0  0  0  0  0  0  0  0
    3.7660  -13.1110   -1.0630 C   0  0  0  0  0  0  0  0  0  0  0  0
    2.7390  -12.7480   -0.1750 C   0  0  0  0  0  0  0  0  0  0  0  0
    1.7690  -11.7920   -0.5050 C   0  0  0  0  0  0  0  0  0  0  0  0
    0.7720  -11.4500    0.4030 N   0  0  0  0  0  0  0  0  0  0  0  0
    0.1120  -10.1370    0.3230 C   0  0  0  0  0  0  0  0  0  0  0  0
   -0.4140   -9.6950    1.7040 C   0  0  0  0  0  0  0  0  0  0  0  0
   -1.2650  -10.7720    2.3700 N   0  0  0  0  0  0  0  0  0  0  0  0
   -2.6300  -10.9150    1.7700 C   0  0  0  0  0  0  0  0  0  0  0  0
   -0.4920  -12.0860    2.4500 C   0  0  0  0  0  0  0  0  0  0  0  0
    0.0300  -12.5360    1.0720 C   0  0  0  0  0  0  0  0  0  0  0  0
    1.8780  -11.1920   -1.7670 C   0  0  0  0  0  0  0  0  0  0  0  0
    2.9120  -11.5160   -2.6690 C   0  0  0  0  0  0  0  0  0  0  0  0
    2.9730  -10.8420   -4.0190 C   0  0  0  0  0  0  0  0  0  0  0  0
    4.2450  -10.7420   -4.4960 F   0  0  0  0  0  0  0  0  0  0  0  0
    2.4880   -9.5720   -3.9750 F   0  0  0  0  0  0  0  0  0  0  0  0
    2.2600  -11.4910   -4.9770 F   0  0  0  0  0  0  0  0  0  0  0  0
    3.8560  -12.4870   -2.3080 C   0  0  0  0  0  0  0  0  0  0  0  0
    7.9070  -15.1020   -1.3930 C   0  0  0  0  0  0  0  0  0  0  0  0
    9.0310  -15.9290   -1.2300 C   0  0  0  0  0  0  0  0  0  0  0  0
   10.3480  -15.4200   -1.2050 N   0  0  0  0  0  0  0  0  0  0  0  0
   10.8020  -14.1860   -0.8600 C   0  0  0  0  0  0  0  0  0  0  0  0
   10.3330  -13.3710    0.0610 N   0  0  0  0  0  0  0  0  0  0  0  0
   11.1590  -12.2890    0.0730 C   0  0  0  0  0  0  0  0  0  0  0  0
   11.1140  -11.1680    0.9190 C   0  0  0  0  0  0  0  0  0  0  0  0
   12.1130  -10.1970    0.8170 C   0  0  0  0  0  0  0  0  0  0  0  0
   13.1490  -10.3490   -0.0990 C   0  0  0  0  0  0  0  0  0  0  0  0
   13.2040  -11.4540   -0.9570 C   0  0  0  0  0  0  0  0  0  0  0  0
   12.1660  -12.4030   -0.8830 C   0  0  0  0  0  0  0  0  0  0  0  0
   11.8680  -13.5880   -1.5580 N   0  0  0  0  0  0  0  0  0  0  0  0
   12.4900  -14.1240   -2.7360 C   0  0  0  0  0  0  0  0  0  0  0  0
   12.4340  -13.4430   -3.9370 C   0  0  0  0  0  0  0  0  0  0  0  0
   13.0570  -14.0280   -5.0180 C   0  0  0  0  0  0  0  0  0  0  0  0
   13.0820  -13.3970   -6.2440 N   0  0  0  0  0  0  0  0  0  0  0  0
   13.7110  -15.1890   -4.9330 N   0  0  0  0  0  0  0  0  0  0  0  0
   13.6890  -15.7960   -3.7440 C   0  0  0  0  0  0  0  0  0  0  0  0
   13.0890  -15.3380   -2.6360 N   0  0  0  0  0  0  0  0  0  0  0  0
   10.1398  -18.4659    0.1049 H   0  0  0  0  0  0  0  0  0  0  0  0
    9.6773  -19.2530   -1.4422 H   0  0  0  0  0  0  0  0  0  0  0  0
   10.8497  -17.8921   -1.4422 H   0  0  0  0  0  0  0  0  0  0  0  0
    7.3352  -18.9094   -1.0620 H   0  0  0  0  0  0  0  0  0  0  0  0
    5.3846  -17.3922   -1.3306 H   0  0  0  0  0  0  0  0  0  0  0  0
    5.3700  -14.4060   -2.5490 H   0  0  0  0  0  0  0  0  0  0  0  0
    2.6951  -13.2306    0.8125 H   0  0  0  0  0  0  0  0  0  0  0  0
    0.8356   -9.3927   -0.0409 H   0  0  0  0  0  0  0  0  0  0  0  0
   -0.7411  -10.2162   -0.3669 H   0  0  0  0  0  0  0  0  0  0  0  0
    0.4442   -9.4697    2.3541 H   0  0  0  0  0  0  0  0  0  0  0  0
   -1.0481   -8.8086    1.5552 H   0  0  0  0  0  0  0  0  0  0  0  0
   -1.4040  -10.4660    3.3410 H   0  0  0  0  0  0  0  0  0  0  0  0
   -3.3773  -10.9933    2.5734 H   0  0  0  0  0  0  0  0  0  0  0  0
   -2.8511  -10.0351    1.1480 H   0  0  0  0  0  0  0  0  0  0  0  0
   -2.6640  -11.8216    1.1480 H   0  0  0  0  0  0  0  0  0  0  0  0
    0.3643  -11.9531    3.1276 H   0  0  0  0  0  0  0  0  0  0  0  0
   -1.1786  -12.8609    2.8218 H   0  0  0  0  0  0  0  0  0  0  0  0
    0.6993  -13.3987    1.2058 H   0  0  0  0  0  0  0  0  0  0  0  0
   -0.8315  -12.8079    0.4444 H   0  0  0  0  0  0  0  0  0  0  0  0
    1.1304  -10.4418   -2.0642 H   0  0  0  0  0  0  0  0  0  0  0  0
    4.6647  -12.7562   -3.0033 H   0  0  0  0  0  0  0  0  0  0  0  0
    8.0586  -14.0171   -1.4931 H   0  0  0  0  0  0  0  0  0  0  0  0
   11.0640  -16.1090   -1.4380 H   0  0  0  0  0  0  0  0  0  0  0  0
   10.3020  -11.0564    1.6526 H   0  0  0  0  0  0  0  0  0  0  0  0
   12.0804   -9.3080    1.4640 H   0  0  0  0  0  0  0  0  0  0  0  0
   13.9401   -9.5864   -0.1501 H   0  0  0  0  0  0  0  0  0  0  0  0
   14.0339  -11.5774   -1.6683 H   0  0  0  0  0  0  0  0  0  0  0  0
   11.9153  -12.4771   -4.0262 H   0  0  0  0  0  0  0  0  0  0  0  0
   13.4160  -13.8990   -7.0530 H   0  0  0  0  0  0  0  0  0  0  0  0
   13.3240  -12.4140   -6.1840 H   0  0  0  0  0  0  0  0  0  0  0  0
   14.2114  -16.7609   -3.6663 H   0  0  0  0  0  0  0  0  0  0  0  0
  1  2  1  0
  2  3  2  0
  3  4  1  0
  4  5  2  0
  5  6  1  0
  6  7  1  0
  7  8  2  0
  7  9  1  0
  9 10  2  0
 10 11  1  0
 11 12  1  0
 12 13  1  0
 13 14  1  0
 14 15  1  0
 15 16  1  0
 15 17  1  0
 17 18  1  0
 11 19  2  0
 19 20  1  0
 20 21  1  0
 21 22  1  0
 21 23  1  0
 21 24  1  0
 20 25  2  0
  5 26  1  0
 26 27  2  0
 27 28  1  0
 28 29  1  0
 29 30  2  0
 30 31  1  0
 31 32  2  0
 32 33  1  0
 33 34  2  0
 34 35  1  0
 35 36  2  0
 36 37  1  0
 37 38  1  0
 38 39  2  0
 39 40  1  0
 40 41  1  0
 40 42  2  0
 42 43  1  0
 43 44  2  0
 27  2  1  0
 37 29  1  0
 44 38  1  0
 25  9  1  0
 36 31  1  0
 18 12  1  0
  1 45  1  0
  1 46  1  0
  1 47  1  0
  3 48  1  0
  4 49  1  0
  6 50  1  0
 10 51  1  0
 13 52  1  0
 13 53  1  0
 14 54  1  0
 14 55  1  0
 15 56  1  0
 16 57  1  0
 16 58  1  0
 16 59  1  0
 17 60  1  0
 17 61  1  0
 18 62  1  0
 18 63  1  0
 19 64  1  0
 25 65  1  0
 26 66  1  0
 28 67  1  0
 32 68  1  0
 33 69  1  0
 34 70  1  0
 35 71  1  0
 39 72  1  0
 41 73  1  0
 41 74  1  0
 43 75  1  0
M  CHG  1  15   1
M  END
>  <meeko>  (2) 
{"is_sidechain": [false], "free_energy": -9.752, "intermolecular_energy": -14.212, "internal_energy": -1.804}

$$$$
LIB_YQPHBBQBBMIYLO__M_PUB_ALL__e8__s20260927
     RDKit          3D

 75 80  0  0  0  0  0  0  0  0999 V2000
   14.7710  -16.1710   -9.3310 C   0  0  0  0  0  0  0  0  0  0  0  0
   14.0340  -15.6480   -8.1270 C   0  0  0  0  0  0  0  0  0  0  0  0
   14.7770  -15.3480   -6.9720 C   0  0  0  0  0  0  0  0  0  0  0  0
   14.1570  -14.8670   -5.8190 C   0  0  0  0  0  0  0  0  0  0  0  0
   12.7800  -14.6800   -5.7970 C   0  0  0  0  0  0  0  0  0  0  0  0
   12.0620  -14.1980   -4.6810 N   0  0  0  0  0  0  0  0  0  0  0  0
   12.2140  -12.9820   -4.0470 C   0  0  0  0  0  0  0  0  0  0  0  0
   13.0590  -12.1260   -4.2840 O   0  0  0  0  0  0  0  0  0  0  0  0
   11.2660  -12.7230   -2.9230 C   0  0  0  0  0  0  0  0  0  0  0  0
    9.8900  -12.7560   -3.2090 C   0  0  0  0  0  0  0  0  0  0  0  0
    8.9160  -12.5370   -2.2240 C   0  0  0  0  0  0  0  0  0  0  0  0
    7.5630  -12.5860   -2.5410 N   0  0  0  0  0  0  0  0  0  0  0  0
    6.5740  -11.9150   -1.6840 C   0  0  0  0  0  0  0  0  0  0  0  0
    5.1960  -12.6030   -1.7810 C   0  0  0  0  0  0  0  0  0  0  0  0
    4.7400  -12.7800   -3.2260 N   0  0  0  0  0  0  0  0  0  0  0  0
    4.2760  -11.5080   -3.8690 C   0  0  0  0  0  0  0  0  0  0  0  0
    5.8030  -13.5200   -4.0330 C   0  0  0  0  0  0  0  0  0  0  0  0
    7.1800  -12.8320   -3.9450 C   0  0  0  0  0  0  0  0  0  0  0  0
    9.3780  -12.2970   -0.9230 C   0  0  0  0  0  0  0  0  0  0  0  0
   10.7510  -12.2840   -0.6000 C   0  0  0  0  0  0  0  0  0  0  0  0
   11.1880  -12.0120    0.8190 C   0  0  0  0  0  0  0  0  0  0  0  0
   11.9180  -10.8670    0.9310 F   0  0  0  0  0  0  0  0  0  0  0  0
   11.9760  -13.0080    1.3080 F   0  0  0  0  0  0  0  0  0  0  0  0
   10.1500  -11.8840    1.6870 F   0  0  0  0  0  0  0  0  0  0  0  0
   11.6950  -12.4950   -1.6140 C   0  0  0  0  0  0  0  0  0  0  0  0
   12.0380  -14.9730   -6.9520 C   0  0  0  0  0  0  0  0  0  0  0  0
   12.6340  -15.4490   -8.1320 C   0  0  0  0  0  0  0  0  0  0  0  0
   11.8840  -15.7580   -9.2880 N   0  0  0  0  0  0  0  0  0  0  0  0
   10.7980  -15.1340   -9.8180 C   0  0  0  0  0  0  0  0  0  0  0  0
    9.5580  -15.5700   -9.8860 N   0  0  0  0  0  0  0  0  0  0  0  0
    8.8280  -14.5650  -10.4430 C   0  0  0  0  0  0  0  0  0  0  0  0
    7.4430  -14.5200  -10.6760 C   0  0  0  0  0  0  0  0  0  0  0  0
    6.8760  -13.3520  -11.1890 C   0  0  0  0  0  0  0  0  0  0  0  0
    7.6720  -12.2400  -11.4490 C   0  0  0  0  0  0  0  0  0  0  0  0
    9.0550  -12.2700  -11.2320 C   0  0  0  0  0  0  0  0  0  0  0  0
    9.6260  -13.4680  -10.7620 C   0  0  0  0  0  0  0  0  0  0  0  0
   10.9220  -13.8840  -10.4520 N   0  0  0  0  0  0  0  0  0  0  0  0
   12.1620  -13.2080  -10.7140 C   0  0  0  0  0  0  0  0  0  0  0  0
   12.5250  -12.0910   -9.9870 C   0  0  0  0  0  0  0  0  0  0  0  0
   13.7310  -11.5030  -10.3030 C   0  0  0  0  0  0  0  0  0  0  0  0
   14.1870  -10.4080   -9.6000 N   0  0  0  0  0  0  0  0  0  0  0  0
   14.5410  -11.9820  -11.2500 N   0  0  0  0  0  0  0  0  0  0  0  0
   14.0990  -13.0450  -11.9270 C   0  0  0  0  0  0  0  0  0  0  0  0
   12.9330  -13.6770  -11.7280 N   0  0  0  0  0  0  0  0  0  0  0  0
   15.6269  -16.7784   -9.0017 H   0  0  0  0  0  0  0  0  0  0  0  0
   14.0925  -16.7908   -9.9355 H   0  0  0  0  0  0  0  0  0  0  0  0
   15.1321  -15.3259   -9.9355 H   0  0  0  0  0  0  0  0  0  0  0  0
   15.8671  -15.4953   -6.9777 H   0  0  0  0  0  0  0  0  0  0  0  0
   14.7578  -14.6357   -4.9271 H   0  0  0  0  0  0  0  0  0  0  0  0
   11.3950  -14.8560   -4.2990 H   0  0  0  0  0  0  0  0  0  0  0  0
    9.5663  -12.9605   -4.2402 H   0  0  0  0  0  0  0  0  0  0  0  0
    6.9203  -11.9502   -0.6405 H   0  0  0  0  0  0  0  0  0  0  0  0
    6.4687  -10.8735   -2.0219 H   0  0  0  0  0  0  0  0  0  0  0  0
    5.2603  -13.5931   -1.3062 H   0  0  0  0  0  0  0  0  0  0  0  0
    4.4619  -11.9613   -1.2717 H   0  0  0  0  0  0  0  0  0  0  0  0
    3.9240  -13.4040   -3.1930 H   0  0  0  0  0  0  0  0  0  0  0  0
    4.0100  -10.7789   -3.0895 H   0  0  0  0  0  0  0  0  0  0  0  0
    5.0825  -11.0980   -4.4947 H   0  0  0  0  0  0  0  0  0  0  0  0
    3.3950  -11.7136   -4.4947 H   0  0  0  0  0  0  0  0  0  0  0  0
    5.8932  -14.5454   -3.6451 H   0  0  0  0  0  0  0  0  0  0  0  0
    5.4901  -13.5189   -5.0876 H   0  0  0  0  0  0  0  0  0  0  0  0
    7.9353  -13.4788   -4.4153 H   0  0  0  0  0  0  0  0  0  0  0  0
    7.1208  -11.8647   -4.4653 H   0  0  0  0  0  0  0  0  0  0  0  0
    8.6437  -12.1121   -0.1251 H   0  0  0  0  0  0  0  0  0  0  0  0
   12.7696  -12.4811   -1.3796 H   0  0  0  0  0  0  0  0  0  0  0  0
   10.9483  -14.8243   -6.9325 H   0  0  0  0  0  0  0  0  0  0  0  0
   12.2530  -16.5430   -9.8250 H   0  0  0  0  0  0  0  0  0  0  0  0
    6.8131  -15.3947  -10.4568 H   0  0  0  0  0  0  0  0  0  0  0  0
    5.7951  -13.3102  -11.3887 H   0  0  0  0  0  0  0  0  0  0  0  0
    7.2057  -11.3203  -11.8322 H   0  0  0  0  0  0  0  0  0  0  0  0
    9.6773  -11.3833  -11.4232 H   0  0  0  0  0  0  0  0  0  0  0  0
   11.8805  -11.6887   -9.1915 H   0  0  0  0  0  0  0  0  0  0  0  0
   13.8370  -10.2350   -8.6700 H   0  0  0  0  0  0  0  0  0  0  0  0
   14.3510   -9.5970  -10.1850 H   0  0  0  0  0  0  0  0  0  0  0  0
   14.7512  -13.4383  -12.7207 H   0  0  0  0  0  0  0  0  0  0  0  0
  1  2  1  0
  2  3  2  0
  3  4  1  0
  4  5  2  0
  5  6  1  0
  6  7  1  0
  7  8  2  0
  7  9  1  0
  9 10  2  0
 10 11  1  0
 11 12  1  0
 12 13  1  0
 13 14  1  0
 14 15  1  0
 15 16  1  0
 15 17  1  0
 17 18  1  0
 11 19  2  0
 19 20  1  0
 20 21  1  0
 21 22  1  0
 21 23  1  0
 21 24  1  0
 20 25  2  0
  5 26  1  0
 26 27  2  0
 27 28  1  0
 28 29  1  0
 29 30  2  0
 30 31  1  0
 31 32  2  0
 32 33  1  0
 33 34  2  0
 34 35  1  0
 35 36  2  0
 36 37  1  0
 37 38  1  0
 38 39  2  0
 39 40  1  0
 40 41  1  0
 40 42  2  0
 42 43  1  0
 43 44  2  0
 27  2  1  0
 37 29  1  0
 44 38  1  0
 25  9  1  0
 36 31  1  0
 18 12  1  0
  1 45  1  0
  1 46  1  0
  1 47  1  0
  3 48  1  0
  4 49  1  0
  6 50  1  0
 10 51  1  0
 13 52  1  0
 13 53  1  0
 14 54  1  0
 14 55  1  0
 15 56  1  0
 16 57  1  0
 16 58  1  0
 16 59  1  0
 17 60  1  0
 17 61  1  0
 18 62  1  0
 18 63  1  0
 19 64  1  0
 25 65  1  0
 26 66  1  0
 28 67  1  0
 32 68  1  0
 33 69  1  0
 34 70  1  0
 35 71  1  0
 39 72  1  0
 41 73  1  0
 41 74  1  0
 43 75  1  0
M  CHG  1  15   1
M  END
>  <meeko>  (3) 
{"is_sidechain": [false], "free_energy": -9.744, "intermolecular_energy": -13.784, "internal_energy": -2.221}

$$$$
LIB_YQPHBBQBBMIYLO__M_PUB_ALL__e8__s20260927
     RDKit          3D

 75 80  0  0  0  0  0  0  0  0999 V2000
    6.2440  -12.7250   -5.3910 C   0  0  0  0  0  0  0  0  0  0  0  0
    5.2610  -12.5960   -4.2590 C   0  0  0  0  0  0  0  0  0  0  0  0
    3.9870  -13.1690   -4.4150 C   0  0  0  0  0  0  0  0  0  0  0  0
    3.0250  -13.0800   -3.4080 C   0  0  0  0  0  0  0  0  0  0  0  0
    3.3190  -12.4120   -2.2260 C   0  0  0  0  0  0  0  0  0  0  0  0
    2.4150  -12.2700   -1.1500 N   0  0  0  0  0  0  0  0  0  0  0  0
    1.4480  -11.2980   -0.9890 C   0  0  0  0  0  0  0  0  0  0  0  0
    1.2480  -10.3290   -1.7120 O   0  0  0  0  0  0  0  0  0  0  0  0
    0.5960  -11.4390    0.2290 C   0  0  0  0  0  0  0  0  0  0  0  0
    0.6500  -12.6580    0.9260 C   0  0  0  0  0  0  0  0  0  0  0  0
   -0.1020  -12.8890    2.0870 C   0  0  0  0  0  0  0  0  0  0  0  0
   -0.0170  -14.1050    2.7570 N   0  0  0  0  0  0  0  0  0  0  0  0
    0.2220  -15.3500    2.0100 C   0  0  0  0  0  0  0  0  0  0  0  0
   -0.3640  -16.5660    2.7570 C   0  0  0  0  0  0  0  0  0  0  0  0
    0.0890  -16.6240    4.2120 N   0  0  0  0  0  0  0  0  0  0  0  0
    1.5110  -17.0640    4.3810 C   0  0  0  0  0  0  0  0  0  0  0  0
   -0.2330  -15.3120    4.9220 C   0  0  0  0  0  0  0  0  0  0  0  0
    0.3560  -14.0940    4.1840 C   0  0  0  0  0  0  0  0  0  0  0  0
   -0.9060  -11.8330    2.5390 C   0  0  0  0  0  0  0  0  0  0  0  0
   -0.9610  -10.5900    1.8750 C   0  0  0  0  0  0  0  0  0  0  0  0
   -1.8520   -9.4920    2.4050 C   0  0  0  0  0  0  0  0  0  0  0  0
   -1.1580   -8.5420    3.0920 F   0  0  0  0  0  0  0  0  0  0  0  0
   -2.7890   -9.9710    3.2680 F   0  0  0  0  0  0  0  0  0  0  0  0
   -2.5310   -8.8330    1.4300 F   0  0  0  0  0  0  0  0  0  0  0  0
   -0.2040  -10.4010    0.7100 C   0  0  0  0  0  0  0  0  0  0  0  0
    4.5930  -11.8460   -2.0650 C   0  0  0  0  0  0  0  0  0  0  0  0
    5.5860  -11.9270   -3.0560 C   0  0  0  0  0  0  0  0  0  0  0  0
    6.8620  -11.3430   -2.8990 N   0  0  0  0  0  0  0  0  0  0  0  0
    8.0500  -11.9160   -2.5680 C   0  0  0  0  0  0  0  0  0  0  0  0
    8.9890  -12.3720   -3.3690 N   0  0  0  0  0  0  0  0  0  0  0  0
   10.0080  -12.7890   -2.5680 C   0  0  0  0  0  0  0  0  0  0  0  0
   11.2590  -13.3050   -2.9480 C   0  0  0  0  0  0  0  0  0  0  0  0
   12.2010  -13.6010   -1.9620 C   0  0  0  0  0  0  0  0  0  0  0  0
   11.9100  -13.3710   -0.6200 C   0  0  0  0  0  0  0  0  0  0  0  0
   10.6650  -12.8680   -0.2230 C   0  0  0  0  0  0  0  0  0  0  0  0
    9.7030  -12.6190   -1.2200 C   0  0  0  0  0  0  0  0  0  0  0  0
    8.3870  -12.1500   -1.2210 N   0  0  0  0  0  0  0  0  0  0  0  0
    7.5150  -11.9400   -0.1010 C   0  0  0  0  0  0  0  0  0  0  0  0
    7.0020  -13.0120    0.6060 C   0  0  0  0  0  0  0  0  0  0  0  0
    6.1720  -12.7220    1.6670 C   0  0  0  0  0  0  0  0  0  0  0  0
    5.6490  -13.7310    2.4480 N   0  0  0  0  0  0  0  0  0  0  0  0
    5.8760  -11.4720    2.0320 N   0  0  0  0  0  0  0  0  0  0  0  0
    6.3870  -10.4970    1.2760 C   0  0  0  0  0  0  0  0  0  0  0  0
    7.1770  -10.6620    0.2050 N   0  0  0  0  0  0  0  0  0  0  0  0
    7.2571  -12.8579   -4.9835 H   0  0  0  0  0  0  0  0  0  0  0  0
    5.9799  -13.5962   -6.0085 H   0  0  0  0  0  0  0  0  0  0  0  0
    6.2136  -11.8152   -6.0085 H   0  0  0  0  0  0  0  0  0  0  0  0
    3.7437  -13.6976   -5.3485 H   0  0  0  0  0  0  0  0  0  0  0  0
    2.0351  -13.5382   -3.5500 H   0  0  0  0  0  0  0  0  0  0  0  0
    2.5400  -12.9460   -0.4080 H   0  0  0  0  0  0  0  0  0  0  0  0
    1.3040  -13.4578    0.5483 H   0  0  0  0  0  0  0  0  0  0  0  0
   -0.2532  -15.2726    1.0209 H   0  0  0  0  0  0  0  0  0  0  0  0
    1.3078  -15.4930    1.9067 H   0  0  0  0  0  0  0  0  0  0  0  0
   -1.4618  -16.5022    2.7305 H   0  0  0  0  0  0  0  0  0  0  0  0
   -0.0025  -17.4757    2.2552 H   0  0  0  0  0  0  0  0  0  0  0  0
   -0.4930  -17.3410    4.6630 H   0  0  0  0  0  0  0  0  0  0  0  0
    1.7473  -17.1371    5.4528 H   0  0  0  0  0  0  0  0  0  0  0  0
    1.6494  -18.0470    3.9071 H   0  0  0  0  0  0  0  0  0  0  0  0
    2.1804  -16.3310    3.9071 H   0  0  0  0  0  0  0  0  0  0  0  0
   -1.3256  -15.1982    4.9786 H   0  0  0  0  0  0  0  0  0  0  0  0
    0.2167  -15.3504    5.9252 H   0  0  0  0  0  0  0  0  0  0  0  0
   -0.0271  -13.1732    4.6482 H   0  0  0  0  0  0  0  0  0  0  0  0
    1.4526  -14.1378    4.2583 H   0  0  0  0  0  0  0  0  0  0  0  0
   -1.5152  -11.9791    3.4432 H   0  0  0  0  0  0  0  0  0  0  0  0
   -0.2403   -9.4392    0.1775 H   0  0  0  0  0  0  0  0  0  0  0  0
    4.8231  -11.3189   -1.1273 H   0  0  0  0  0  0  0  0  0  0  0  0
    6.8930  -10.3470   -3.1160 H   0  0  0  0  0  0  0  0  0  0  0  0
   11.4926  -13.4734   -4.0096 H   0  0  0  0  0  0  0  0  0  0  0  0
   13.1783  -14.0181   -2.2464 H   0  0  0  0  0  0  0  0  0  0  0  0
   12.6723  -13.5885    0.1426 H   0  0  0  0  0  0  0  0  0  0  0  0
   10.4451  -12.6731    0.8370 H   0  0  0  0  0  0  0  0  0  0  0  0
    7.2455  -14.0496    0.3337 H   0  0  0  0  0  0  0  0  0  0  0  0
    6.1890  -14.5690    2.6030 H   0  0  0  0  0  0  0  0  0  0  0  0
    4.6480  -13.8450    2.3370 H   0  0  0  0  0  0  0  0  0  0  0  0
    6.1369   -9.4635    1.5577 H   0  0  0  0  0  0  0  0  0  0  0  0
  1  2  1  0
  2  3  2  0
  3  4  1  0
  4  5  2  0
  5  6  1  0
  6  7  1  0
  7  8  2  0
  7  9  1  0
  9 10  2  0
 10 11  1  0
 11 12  1  0
 12 13  1  0
 13 14  1  0
 14 15  1  0
 15 16  1  0
 15 17  1  0
 17 18  1  0
 11 19  2  0
 19 20  1  0
 20 21  1  0
 21 22  1  0
 21 23  1  0
 21 24  1  0
 20 25  2  0
  5 26  1  0
 26 27  2  0
 27 28  1  0
 28 29  1  0
 29 30  2  0
 30 31  1  0
 31 32  2  0
 32 33  1  0
 33 34  2  0
 34 35  1  0
 35 36  2  0
 36 37  1  0
 37 38  1  0
 38 39  2  0
 39 40  1  0
 40 41  1  0
 40 42  2  0
 42 43  1  0
 43 44  2  0
 27  2  1  0
 37 29  1  0
 44 38  1  0
 25  9  1  0
 36 31  1  0
 18 12  1  0
  1 45  1  0
  1 46  1  0
  1 47  1  0
  3 48  1  0
  4 49  1  0
  6 50  1  0
 10 51  1  0
 13 52  1  0
 13 53  1  0
 14 54  1  0
 14 55  1  0
 15 56  1  0
 16 57  1  0
 16 58  1  0
 16 59  1  0
 17 60  1  0
 17 61  1  0
 18 62  1  0
 18 63  1  0
 19 64  1  0
 25 65  1  0
 26 66  1  0
 28 67  1  0
 32 68  1  0
 33 69  1  0
 34 70  1  0
 35 71  1  0
 39 72  1  0
 41 73  1  0
 41 74  1  0
 43 75  1  0
M  CHG  1  15   1
M  END
>  <meeko>  (4) 
{"is_sidechain": [false], "free_energy": -9.697, "intermolecular_energy": -13.675, "internal_energy": -2.263}

$$$$
LIB_YQPHBBQBBMIYLO__M_PUB_ALL__e8__s20260927
     RDKit          3D

 75 80  0  0  0  0  0  0  0  0999 V2000
   13.6560  -15.9020  -10.7450 C   0  0  0  0  0  0  0  0  0  0  0  0
   13.1960  -15.4140   -9.3970 C   0  0  0  0  0  0  0  0  0  0  0  0
   13.9650  -15.7510   -8.2700 C   0  0  0  0  0  0  0  0  0  0  0  0
   13.5920  -15.3390   -6.9900 C   0  0  0  0  0  0  0  0  0  0  0  0
   12.4390  -14.5840   -6.8130 C   0  0  0  0  0  0  0  0  0  0  0  0
   11.9800  -14.1190   -5.5610 N   0  0  0  0  0  0  0  0  0  0  0  0
   12.5530  -13.1490   -4.7640 C   0  0  0  0  0  0  0  0  0  0  0  0
   13.6150  -12.5680   -4.9560 O   0  0  0  0  0  0  0  0  0  0  0  0
   11.8040  -12.8230   -3.5140 C   0  0  0  0  0  0  0  0  0  0  0  0
   10.4070  -12.6980   -3.6040 C   0  0  0  0  0  0  0  0  0  0  0  0
    9.6090  -12.4040   -2.4890 C   0  0  0  0  0  0  0  0  0  0  0  0
    8.2280  -12.2980   -2.6130 N   0  0  0  0  0  0  0  0  0  0  0  0
    7.5290  -12.9520   -3.7300 C   0  0  0  0  0  0  0  0  0  0  0  0
    6.2210  -12.2110   -4.0760 C   0  0  0  0  0  0  0  0  0  0  0  0
    5.3440  -11.9850   -2.8490 N   0  0  0  0  0  0  0  0  0  0  0  0
    4.6480  -13.2240   -2.3710 C   0  0  0  0  0  0  0  0  0  0  0  0
    6.1310  -11.2660   -1.7570 C   0  0  0  0  0  0  0  0  0  0  0  0
    7.4360  -12.0060   -1.4030 C   0  0  0  0  0  0  0  0  0  0  0  0
   10.2710  -12.2550   -1.2620 C   0  0  0  0  0  0  0  0  0  0  0  0
   11.6680  -12.4000   -1.1360 C   0  0  0  0  0  0  0  0  0  0  0  0
   12.3250  -12.2200    0.2120 C   0  0  0  0  0  0  0  0  0  0  0  0
   13.4780  -11.4990    0.1380 F   0  0  0  0  0  0  0  0  0  0  0  0
   12.6630  -13.4110    0.7750 F   0  0  0  0  0  0  0  0  0  0  0  0
   11.5360  -11.5800    1.1140 F   0  0  0  0  0  0  0  0  0  0  0  0
   12.4330  -12.6820   -2.2760 C   0  0  0  0  0  0  0  0  0  0  0  0
   11.6740  -14.2410   -7.9390 C   0  0  0  0  0  0  0  0  0  0  0  0
   12.0280  -14.6320   -9.2410 C   0  0  0  0  0  0  0  0  0  0  0  0
   11.2480  -14.2990  -10.3700 N   0  0  0  0  0  0  0  0  0  0  0  0
   10.4150  -13.2450  -10.5770 C   0  0  0  0  0  0  0  0  0  0  0  0
   10.7090  -12.0510  -11.0450 N   0  0  0  0  0  0  0  0  0  0  0  0
    9.5320  -11.3700  -11.1270 C   0  0  0  0  0  0  0  0  0  0  0  0
    9.3080  -10.0740  -11.6200 C   0  0  0  0  0  0  0  0  0  0  0  0
    8.0010   -9.5880  -11.6900 C   0  0  0  0  0  0  0  0  0  0  0  0
    6.9320  -10.3870  -11.2930 C   0  0  0  0  0  0  0  0  0  0  0  0
    7.1380  -11.6770  -10.7900 C   0  0  0  0  0  0  0  0  0  0  0  0
    8.4620  -12.1410  -10.6750 C   0  0  0  0  0  0  0  0  0  0  0  0
    9.0550  -13.3200  -10.2190 N   0  0  0  0  0  0  0  0  0  0  0  0
    8.4430  -14.4120   -9.5170 C   0  0  0  0  0  0  0  0  0  0  0  0
    7.8490  -14.2150   -8.2850 C   0  0  0  0  0  0  0  0  0  0  0  0
    7.2850  -15.3170   -7.6790 C   0  0  0  0  0  0  0  0  0  0  0  0
    6.6390  -15.2010   -6.4660 N   0  0  0  0  0  0  0  0  0  0  0  0
    7.2780  -16.5270   -8.2440 N   0  0  0  0  0  0  0  0  0  0  0  0
    7.9010  -16.6360   -9.4190 C   0  0  0  0  0  0  0  0  0  0  0  0
    8.5110  -15.6430  -10.0830 N   0  0  0  0  0  0  0  0  0  0  0  0
   14.4049  -16.6965  -10.6113 H   0  0  0  0  0  0  0  0  0  0  0  0
   12.7960  -16.2991  -11.3043 H   0  0  0  0  0  0  0  0  0  0  0  0
   14.1031  -15.0670  -11.3043 H   0  0  0  0  0  0  0  0  0  0  0  0
   14.8780  -16.3508   -8.3993 H   0  0  0  0  0  0  0  0  0  0  0  0
   14.2102  -15.6117   -6.1219 H   0  0  0  0  0  0  0  0  0  0  0  0
   11.1580  -14.5970   -5.2150 H   0  0  0  0  0  0  0  0  0  0  0  0
    9.9232  -12.8355   -4.5823 H   0  0  0  0  0  0  0  0  0  0  0  0
    8.1852  -12.9539   -4.6128 H   0  0  0  0  0  0  0  0  0  0  0  0
    7.2795  -13.9810   -3.4318 H   0  0  0  0  0  0  0  0  0  0  0  0
    6.4728  -11.2347   -4.5159 H   0  0  0  0  0  0  0  0  0  0  0  0
    5.6564  -12.8358   -4.7837 H   0  0  0  0  0  0  0  0  0  0  0  0
    4.6060  -11.3320   -3.1420 H   0  0  0  0  0  0  0  0  0  0  0  0
    4.6397  -13.2387   -1.2711 H   0  0  0  0  0  0  0  0  0  0  0  0
    3.6138  -13.2313   -2.7456 H   0  0  0  0  0  0  0  0  0  0  0  0
    5.1799  -14.1110   -2.7456 H   0  0  0  0  0  0  0  0  0  0  0  0
    6.3807  -10.2536   -2.1073 H   0  0  0  0  0  0  0  0  0  0  0  0
    5.5044  -11.2313   -0.8536 H   0  0  0  0  0  0  0  0  0  0  0  0
    8.0331  -11.3770   -0.7263 H   0  0  0  0  0  0  0  0  0  0  0  0
    7.1761  -12.9586   -0.9182 H   0  0  0  0  0  0  0  0  0  0  0  0
    9.6795  -12.0165   -0.3657 H   0  0  0  0  0  0  0  0  0  0  0  0
   13.5245  -12.7917   -2.1954 H   0  0  0  0  0  0  0  0  0  0  0  0
   10.7620  -13.6428   -7.7962 H   0  0  0  0  0  0  0  0  0  0  0  0
   11.3750  -14.9290  -11.1620 H   0  0  0  0  0  0  0  0  0  0  0  0
   10.1523   -9.4493  -11.9471 H   0  0  0  0  0  0  0  0  0  0  0  0
    7.8149   -8.5691  -12.0605 H   0  0  0  0  0  0  0  0  0  0  0  0
    5.9067   -9.9973  -11.3762 H   0  0  0  0  0  0  0  0  0  0  0  0
    6.2891  -12.3103  -10.4929 H   0  0  0  0  0  0  0  0  0  0  0  0
    7.8272  -13.2234   -7.8094 H   0  0  0  0  0  0  0  0  0  0  0  0
    7.1790  -15.0310   -5.6310 H   0  0  0  0  0  0  0  0  0  0  0  0
    5.8410  -15.8200   -6.3770 H   0  0  0  0  0  0  0  0  0  0  0  0
    7.9156  -17.6318   -9.8860 H   0  0  0  0  0  0  0  0  0  0  0  0
  1  2  1  0
  2  3  2  0
  3  4  1  0
  4  5  2  0
  5  6  1  0
  6  7  1  0
  7  8  2  0
  7  9  1  0
  9 10  2  0
 10 11  1  0
 11 12  1  0
 12 13  1  0
 13 14  1  0
 14 15  1  0
 15 16  1  0
 15 17  1  0
 17 18  1  0
 11 19  2  0
 19 20  1  0
 20 21  1  0
 21 22  1  0
 21 23  1  0
 21 24  1  0
 20 25  2  0
  5 26  1  0
 26 27  2  0
 27 28  1  0
 28 29  1  0
 29 30  2  0
 30 31  1  0
 31 32  2  0
 32 33  1  0
 33 34  2  0
 34 35  1  0
 35 36  2  0
 36 37  1  0
 37 38  1  0
 38 39  2  0
 39 40  1  0
 40 41  1  0
 40 42  2  0
 42 43  1  0
 43 44  2  0
 27  2  1  0
 37 29  1  0
 44 38  1  0
 25  9  1  0
 36 31  1  0
 18 12  1  0
  1 45  1  0
  1 46  1  0
  1 47  1  0
  3 48  1  0
  4 49  1  0
  6 50  1  0
 10 51  1  0
 13 52  1  0
 13 53  1  0
 14 54  1  0
 14 55  1  0
 15 56  1  0
 16 57  1  0
 16 58  1  0
 16 59  1  0
 17 60  1  0
 17 61  1  0
 18 62  1  0
 18 63  1  0
 19 64  1  0
 25 65  1  0
 26 66  1  0
 28 67  1  0
 32 68  1  0
 33 69  1  0
 34 70  1  0
 35 71  1  0
 39 72  1  0
 41 73  1  0
 41 74  1  0
 43 75  1  0
M  CHG  1  15   1
M  END
>  <meeko>  (5) 
{"is_sidechain": [false], "free_energy": -9.377, "intermolecular_energy": -13.01, "internal_energy": -2.467}

$$$$
LIB_YQPHBBQBBMIYLO__M_PUB_ALL__e8__s20260927
     RDKit          3D

 75 80  0  0  0  0  0  0  0  0999 V2000
   -1.8300   -9.8530    1.5840 C   0  0  0  0  0  0  0  0  0  0  0  0
   -0.6800  -10.2810    0.7120 C   0  0  0  0  0  0  0  0  0  0  0  0
   -0.4590   -9.5830   -0.4880 C   0  0  0  0  0  0  0  0  0  0  0  0
    0.5850   -9.9310   -1.3460 C   0  0  0  0  0  0  0  0  0  0  0  0
    1.4250  -10.9890   -1.0220 C   0  0  0  0  0  0  0  0  0  0  0  0
    2.5070  -11.4170   -1.8230 N   0  0  0  0  0  0  0  0  0  0  0  0
    2.9930  -10.8170   -2.9660 C   0  0  0  0  0  0  0  0  0  0  0  0
    2.5240   -9.8450   -3.5470 O   0  0  0  0  0  0  0  0  0  0  0  0
    4.1940  -11.4680   -3.5700 C   0  0  0  0  0  0  0  0  0  0  0  0
    5.2560  -11.8010   -2.7120 C   0  0  0  0  0  0  0  0  0  0  0  0
    6.4240  -12.4240   -3.1740 C   0  0  0  0  0  0  0  0  0  0  0  0
    7.4510  -12.7480   -2.2950 N   0  0  0  0  0  0  0  0  0  0  0  0
    8.5620  -13.6090   -2.7340 C   0  0  0  0  0  0  0  0  0  0  0  0
    9.1790  -14.3690   -1.5420 C   0  0  0  0  0  0  0  0  0  0  0  0
    9.5400  -13.4400   -0.3880 N   0  0  0  0  0  0  0  0  0  0  0  0
   10.7650  -12.6150   -0.6420 C   0  0  0  0  0  0  0  0  0  0  0  0
    8.3250  -12.6160    0.0320 C   0  0  0  0  0  0  0  0  0  0  0  0
    7.7090  -11.8480   -1.1540 C   0  0  0  0  0  0  0  0  0  0  0  0
    6.4810  -12.7200   -4.5440 C   0  0  0  0  0  0  0  0  0  0  0  0
    5.4210  -12.4210   -5.4240 C   0  0  0  0  0  0  0  0  0  0  0  0
    5.5440  -12.7570   -6.8910 C   0  0  0  0  0  0  0  0  0  0  0  0
    6.4680  -13.7290   -7.1290 F   0  0  0  0  0  0  0  0  0  0  0  0
    5.9330  -11.6810   -7.6280 F   0  0  0  0  0  0  0  0  0  0  0  0
    4.3820  -13.1970   -7.4420 F   0  0  0  0  0  0  0  0  0  0  0  0
    4.2750  -11.7870   -4.9260 C   0  0  0  0  0  0  0  0  0  0  0  0
    1.2100  -11.6830    0.1790 C   0  0  0  0  0  0  0  0  0  0  0  0
    0.1750  -11.3500    1.0690 C   0  0  0  0  0  0  0  0  0  0  0  0
   -0.0500  -12.0590    2.2690 N   0  0  0  0  0  0  0  0  0  0  0  0
   -0.0170  -13.3960    2.5130 C   0  0  0  0  0  0  0  0  0  0  0  0
    1.0180  -14.1430    2.8340 N   0  0  0  0  0  0  0  0  0  0  0  0
    0.5360  -15.4010    3.0370 C   0  0  0  0  0  0  0  0  0  0  0  0
    1.2370  -16.5460    3.4510 C   0  0  0  0  0  0  0  0  0  0  0  0
    0.5330  -17.7300    3.6780 C   0  0  0  0  0  0  0  0  0  0  0  0
   -0.8480  -17.7690    3.5130 C   0  0  0  0  0  0  0  0  0  0  0  0
   -1.5610  -16.6400    3.0910 C   0  0  0  0  0  0  0  0  0  0  0  0
   -0.8380  -15.4640    2.8150 C   0  0  0  0  0  0  0  0  0  0  0  0
   -1.1750  -14.1840    2.3720 N   0  0  0  0  0  0  0  0  0  0  0  0
   -2.4340  -13.7200    1.8610 C   0  0  0  0  0  0  0  0  0  0  0  0
   -3.5410  -13.6310    2.6830 C   0  0  0  0  0  0  0  0  0  0  0  0
   -4.7100  -13.1760    2.1120 C   0  0  0  0  0  0  0  0  0  0  0  0
   -5.8510  -13.0210    2.8700 N   0  0  0  0  0  0  0  0  0  0  0  0
   -4.7930  -12.8120    0.8300 N   0  0  0  0  0  0  0  0  0  0  0  0
   -3.6860  -12.9600    0.0980 C   0  0  0  0  0  0  0  0  0  0  0  0
   -2.5060  -13.4210    0.5390 N   0  0  0  0  0  0  0  0  0  0  0  0
   -1.5471   -9.9583    2.6418 H   0  0  0  0  0  0  0  0  0  0  0  0
   -2.0784   -8.8022    1.3737 H   0  0  0  0  0  0  0  0  0  0  0  0
   -2.7049  -10.4857    1.3737 H   0  0  0  0  0  0  0  0  0  0  0  0
   -1.1215   -8.7467   -0.7557 H   0  0  0  0  0  0  0  0  0  0  0  0
    0.7427   -9.3682   -2.2779 H   0  0  0  0  0  0  0  0  0  0  0  0
    2.9290  -12.2860   -1.5230 H   0  0  0  0  0  0  0  0  0  0  0  0
    5.1679  -11.5648   -1.6413 H   0  0  0  0  0  0  0  0  0  0  0  0
    8.1846  -14.3366   -3.4676 H   0  0  0  0  0  0  0  0  0  0  0  0
    9.3394  -12.9743   -3.1843 H   0  0  0  0  0  0  0  0  0  0  0  0
    8.4531  -15.1134   -1.1831 H   0  0  0  0  0  0  0  0  0  0  0  0
   10.1057  -14.8477   -1.8913 H   0  0  0  0  0  0  0  0  0  0  0  0
    9.7580  -14.0480    0.4110 H   0  0  0  0  0  0  0  0  0  0  0  0
   11.2105  -12.3150    0.3179 H   0  0  0  0  0  0  0  0  0  0  0  0
   11.4935  -13.2072   -1.2152 H   0  0  0  0  0  0  0  0  0  0  0  0
   10.4901  -11.7173   -1.2152 H   0  0  0  0  0  0  0  0  0  0  0  0
    7.5649  -13.2922    0.4502 H   0  0  0  0  0  0  0  0  0  0  0  0
    8.6564  -11.8789    0.7782 H   0  0  0  0  0  0  0  0  0  0  0  0
    6.7599  -11.3936   -0.8334 H   0  0  0  0  0  0  0  0  0  0  0  0
    8.4205  -11.0729   -1.4750 H   0  0  0  0  0  0  0  0  0  0  0  0
    7.3844  -13.2023   -4.9457 H   0  0  0  0  0  0  0  0  0  0  0  0
    3.4422  -11.5417   -5.6015 H   0  0  0  0  0  0  0  0  0  0  0  0
    1.8774  -12.5197    0.4332 H   0  0  0  0  0  0  0  0  0  0  0  0
   -0.2140  -11.4620    3.0800 H   0  0  0  0  0  0  0  0  0  0  0  0
    2.3270  -16.5100    3.5945 H   0  0  0  0  0  0  0  0  0  0  0  0
    1.0728  -18.6366    3.9889 H   0  0  0  0  0  0  0  0  0  0  0  0
   -1.3899  -18.7041    3.7179 H   0  0  0  0  0  0  0  0  0  0  0  0
   -2.6548  -16.6712    2.9784 H   0  0  0  0  0  0  0  0  0  0  0  0
   -3.4915  -13.9108    3.7457 H   0  0  0  0  0  0  0  0  0  0  0  0
   -6.3590  -13.8380    3.1750 H   0  0  0  0  0  0  0  0  0  0  0  0
   -6.4010  -12.2130    2.6040 H   0  0  0  0  0  0  0  0  0  0  0  0
   -3.7473  -12.6782   -0.9635 H   0  0  0  0  0  0  0  0  0  0  0  0
  1  2  1  0
  2  3  2  0
  3  4  1  0
  4  5  2  0
  5  6  1  0
  6  7  1  0
  7  8  2  0
  7  9  1  0
  9 10  2  0
 10 11  1  0
 11 12  1  0
 12 13  1  0
 13 14  1  0
 14 15  1  0
 15 16  1  0
 15 17  1  0
 17 18  1  0
 11 19  2  0
 19 20  1  0
 20 21  1  0
 21 22  1  0
 21 23  1  0
 21 24  1  0
 20 25  2  0
  5 26  1  0
 26 27  2  0
 27 28  1  0
 28 29  1  0
 29 30  2  0
 30 31  1  0
 31 32  2  0
 32 33  1  0
 33 34  2  0
 34 35  1  0
 35 36  2  0
 36 37  1  0
 37 38  1  0
 38 39  2  0
 39 40  1  0
 40 41  1  0
 40 42  2  0
 42 43  1  0
 43 44  2  0
 27  2  1  0
 37 29  1  0
 44 38  1  0
 25  9  1  0
 36 31  1  0
 18 12  1  0
  1 45  1  0
  1 46  1  0
  1 47  1  0
  3 48  1  0
  4 49  1  0
  6 50  1  0
 10 51  1  0
 13 52  1  0
 13 53  1  0
 14 54  1  0
 14 55  1  0
 15 56  1  0
 16 57  1  0
 16 58  1  0
 16 59  1  0
 17 60  1  0
 17 61  1  0
 18 62  1  0
 18 63  1  0
 19 64  1  0
 25 65  1  0
 26 66  1  0
 28 67  1  0
 32 68  1  0
 33 69  1  0
 34 70  1  0
 35 71  1  0
 39 72  1  0
 41 73  1  0
 41 74  1  0
 43 75  1  0
M  CHG  1  15   1
M  END
>  <meeko>  (6) 
{"is_sidechain": [false], "free_energy": -9.344, "intermolecular_energy": -13.729, "internal_energy": -1.7}

$$$$
LIB_YQPHBBQBBMIYLO__M_PUB_ALL__e8__s20260927
     RDKit          3D

 75 80  0  0  0  0  0  0  0  0999 V2000
   14.4300  -15.2440   -7.2700 C   0  0  0  0  0  0  0  0  0  0  0  0
   13.2920  -14.8740   -6.3560 C   0  0  0  0  0  0  0  0  0  0  0  0
   13.5970  -14.4670   -5.0460 C   0  0  0  0  0  0  0  0  0  0  0  0
   12.5910  -14.1170   -4.1440 C   0  0  0  0  0  0  0  0  0  0  0  0
   11.2600  -14.1720   -4.5350 C   0  0  0  0  0  0  0  0  0  0  0  0
   10.1720  -13.8380   -3.6990 N   0  0  0  0  0  0  0  0  0  0  0  0
    9.7710  -12.5770   -3.3070 C   0  0  0  0  0  0  0  0  0  0  0  0
   10.3340  -11.5150   -3.5470 O   0  0  0  0  0  0  0  0  0  0  0  0
    8.5410  -12.5310   -2.4620 C   0  0  0  0  0  0  0  0  0  0  0  0
    7.3420  -12.9970   -3.0270 C   0  0  0  0  0  0  0  0  0  0  0  0
    6.1330  -13.0060   -2.3160 C   0  0  0  0  0  0  0  0  0  0  0  0
    4.9670  -13.4840   -2.9040 N   0  0  0  0  0  0  0  0  0  0  0  0
    3.8000  -13.8200   -2.0750 C   0  0  0  0  0  0  0  0  0  0  0  0
    2.9290  -14.8990   -2.7520 C   0  0  0  0  0  0  0  0  0  0  0  0
    2.5770  -14.5370   -4.1910 N   0  0  0  0  0  0  0  0  0  0  0  0
    1.5360  -13.4650   -4.3040 C   0  0  0  0  0  0  0  0  0  0  0  0
    3.8440  -14.2450   -4.9910 C   0  0  0  0  0  0  0  0  0  0  0  0
    4.7140  -13.1630   -4.3220 C   0  0  0  0  0  0  0  0  0  0  0  0
    6.1760  -12.5410   -0.9940 C   0  0  0  0  0  0  0  0  0  0  0  0
    7.3690  -12.0910   -0.3910 C   0  0  0  0  0  0  0  0  0  0  0  0
    7.3510  -11.5940    1.0340 C   0  0  0  0  0  0  0  0  0  0  0  0
    8.3270  -12.1600    1.7970 F   0  0  0  0  0  0  0  0  0  0  0  0
    6.1750  -11.8790    1.6570 F   0  0  0  0  0  0  0  0  0  0  0  0
    7.5220  -10.2500    1.1370 F   0  0  0  0  0  0  0  0  0  0  0  0
    8.5540  -12.0850   -1.1390 C   0  0  0  0  0  0  0  0  0  0  0  0
   10.9540  -14.5730   -5.8460 C   0  0  0  0  0  0  0  0  0  0  0  0
   11.9440  -14.9200   -6.7800 C   0  0  0  0  0  0  0  0  0  0  0  0
   11.6340  -15.3380   -8.0930 N   0  0  0  0  0  0  0  0  0  0  0  0
   10.6250  -14.9490   -8.9180 C   0  0  0  0  0  0  0  0  0  0  0  0
    9.3970  -15.4170   -8.9840 N   0  0  0  0  0  0  0  0  0  0  0  0
    8.7500  -14.6660   -9.9180 C   0  0  0  0  0  0  0  0  0  0  0  0
    7.4030  -14.7370  -10.3120 C   0  0  0  0  0  0  0  0  0  0  0  0
    6.9150  -13.8130  -11.2380 C   0  0  0  0  0  0  0  0  0  0  0  0
    7.7490  -12.8240  -11.7510 C   0  0  0  0  0  0  0  0  0  0  0  0
    9.0960  -12.7450  -11.3770 C   0  0  0  0  0  0  0  0  0  0  0  0
    9.5940  -13.7110  -10.4810 C   0  0  0  0  0  0  0  0  0  0  0  0
   10.8390  -13.9680   -9.9050 N   0  0  0  0  0  0  0  0  0  0  0  0
   12.1090  -13.3810  -10.2270 C   0  0  0  0  0  0  0  0  0  0  0  0
   12.4480  -12.1280   -9.7530 C   0  0  0  0  0  0  0  0  0  0  0  0
   13.6860  -11.6380  -10.1100 C   0  0  0  0  0  0  0  0  0  0  0  0
   14.1190  -10.4130   -9.6490 N   0  0  0  0  0  0  0  0  0  0  0  0
   14.5470  -12.3300  -10.8610 N   0  0  0  0  0  0  0  0  0  0  0  0
   14.1270  -13.5180  -11.3030 C   0  0  0  0  0  0  0  0  0  0  0  0
   12.9360  -14.0780  -11.0470 N   0  0  0  0  0  0  0  0  0  0  0  0
   15.3058  -15.5287   -6.6684 H   0  0  0  0  0  0  0  0  0  0  0  0
   14.1301  -16.0909   -7.9047 H   0  0  0  0  0  0  0  0  0  0  0  0
   14.6855  -14.3826   -7.9047 H   0  0  0  0  0  0  0  0  0  0  0  0
   14.6483  -14.4234   -4.7254 H   0  0  0  0  0  0  0  0  0  0  0  0
   12.8525  -13.7979   -3.1243 H   0  0  0  0  0  0  0  0  0  0  0  0
    9.6730  -14.6360   -3.3260 H   0  0  0  0  0  0  0  0  0  0  0  0
    7.3518  -13.3676   -4.0627 H   0  0  0  0  0  0  0  0  0  0  0  0
    4.1474  -14.1974   -1.1019 H   0  0  0  0  0  0  0  0  0  0  0  0
    3.1923  -12.9126   -1.9436 H   0  0  0  0  0  0  0  0  0  0  0  0
    3.4802  -15.8509   -2.7510 H   0  0  0  0  0  0  0  0  0  0  0  0
    1.9898  -14.9791   -2.1849 H   0  0  0  0  0  0  0  0  0  0  0  0
    2.1700  -15.3840   -4.6060 H   0  0  0  0  0  0  0  0  0  0  0  0
    1.2268  -13.1466   -3.2975 H   0  0  0  0  0  0  0  0  0  0  0  0
    1.9529  -12.6051   -4.8487 H   0  0  0  0  0  0  0  0  0  0  0  0
    0.6642  -13.8565   -4.8487 H   0  0  0  0  0  0  0  0  0  0  0  0
    4.4318  -15.1710   -5.0754 H   0  0  0  0  0  0  0  0  0  0  0  0
    3.5419  -13.8731   -5.9812 H   0  0  0  0  0  0  0  0  0  0  0  0
    5.6755  -13.0971   -4.8522 H   0  0  0  0  0  0  0  0  0  0  0  0
    4.1774  -12.2041   -4.3720 H   0  0  0  0  0  0  0  0  0  0  0  0
    5.2463  -12.5266   -0.4062 H   0  0  0  0  0  0  0  0  0  0  0  0
    9.4912  -11.7301   -0.6854 H   0  0  0  0  0  0  0  0  0  0  0  0
    9.8986  -14.6170   -6.1529 H   0  0  0  0  0  0  0  0  0  0  0  0
   12.3040  -15.9970   -8.4880 H   0  0  0  0  0  0  0  0  0  0  0  0
    6.7412  -15.5110   -9.8960 H   0  0  0  0  0  0  0  0  0  0  0  0
    5.8657  -13.8670  -11.5638 H   0  0  0  0  0  0  0  0  0  0  0  0
    7.3425  -12.0909  -12.4633 H   0  0  0  0  0  0  0  0  0  0  0  0
    9.7469  -11.9510  -11.7718 H   0  0  0  0  0  0  0  0  0  0  0  0
   11.7610  -11.5478   -9.1194 H   0  0  0  0  0  0  0  0  0  0  0  0
   13.5180   -9.8690   -9.0480 H   0  0  0  0  0  0  0  0  0  0  0  0
   14.6710   -9.9020  -10.3280 H   0  0  0  0  0  0  0  0  0  0  0  0
   14.8221  -14.0898  -11.9353 H   0  0  0  0  0  0  0  0  0  0  0  0
  1  2  1  0
  2  3  2  0
  3  4  1  0
  4  5  2  0
  5  6  1  0
  6  7  1  0
  7  8  2  0
  7  9  1  0
  9 10  2  0
 10 11  1  0
 11 12  1  0
 12 13  1  0
 13 14  1  0
 14 15  1  0
 15 16  1  0
 15 17  1  0
 17 18  1  0
 11 19  2  0
 19 20  1  0
 20 21  1  0
 21 22  1  0
 21 23  1  0
 21 24  1  0
 20 25  2  0
  5 26  1  0
 26 27  2  0
 27 28  1  0
 28 29  1  0
 29 30  2  0
 30 31  1  0
 31 32  2  0
 32 33  1  0
 33 34  2  0
 34 35  1  0
 35 36  2  0
 36 37  1  0
 37 38  1  0
 38 39  2  0
 39 40  1  0
 40 41  1  0
 40 42  2  0
 42 43  1  0
 43 44  2  0
 27  2  1  0
 37 29  1  0
 44 38  1  0
 25  9  1  0
 36 31  1  0
 18 12  1  0
  1 45  1  0
  1 46  1  0
  1 47  1  0
  3 48  1  0
  4 49  1  0
  6 50  1  0
 10 51  1  0
 13 52  1  0
 13 53  1  0
 14 54  1  0
 14 55  1  0
 15 56  1  0
 16 57  1  0
 16 58  1  0
 16 59  1  0
 17 60  1  0
 17 61  1  0
 18 62  1  0
 18 63  1  0
 19 64  1  0
 25 65  1  0
 26 66  1  0
 28 67  1  0
 32 68  1  0
 33 69  1  0
 34 70  1  0
 35 71  1  0
 39 72  1  0
 41 73  1  0
 41 74  1  0
 43 75  1  0
M  CHG  1  15   1
M  END
>  <meeko>  (7) 
{"is_sidechain": [false], "free_energy": -9.277, "intermolecular_energy": -13.193, "internal_energy": -2.14}

$$$$
LIB_YQPHBBQBBMIYLO__M_PUB_ALL__e8__s20260927
     RDKit          3D

 75 80  0  0  0  0  0  0  0  0999 V2000
    2.9500  -11.8390   -1.4520 C   0  0  0  0  0  0  0  0  0  0  0  0
    3.8330  -12.0970   -2.6440 C   0  0  0  0  0  0  0  0  0  0  0  0
    3.2310  -12.1830   -3.9110 C   0  0  0  0  0  0  0  0  0  0  0  0
    3.9890  -12.4270   -5.0560 C   0  0  0  0  0  0  0  0  0  0  0  0
    5.3650  -12.5940   -4.9550 C   0  0  0  0  0  0  0  0  0  0  0  0
    6.2160  -12.8430   -6.0540 N   0  0  0  0  0  0  0  0  0  0  0  0
    6.6610  -14.0680   -6.5100 C   0  0  0  0  0  0  0  0  0  0  0  0
    6.4660  -15.1630   -5.9960 O   0  0  0  0  0  0  0  0  0  0  0  0
    7.5100  -14.0230   -7.7380 C   0  0  0  0  0  0  0  0  0  0  0  0
    8.8310  -14.4930   -7.6350 C   0  0  0  0  0  0  0  0  0  0  0  0
    9.7070  -14.5040   -8.7300 C   0  0  0  0  0  0  0  0  0  0  0  0
   11.0050  -14.9850   -8.5950 N   0  0  0  0  0  0  0  0  0  0  0  0
   11.2520  -16.2900   -7.9620 C   0  0  0  0  0  0  0  0  0  0  0  0
   12.6540  -16.3380   -7.3180 C   0  0  0  0  0  0  0  0  0  0  0  0
   13.7490  -15.9070   -8.2880 N   0  0  0  0  0  0  0  0  0  0  0  0
   14.0690  -16.9360   -9.3290 C   0  0  0  0  0  0  0  0  0  0  0  0
   13.4370  -14.5290   -8.8650 C   0  0  0  0  0  0  0  0  0  0  0  0
   12.0400  -14.4780   -9.5160 C   0  0  0  0  0  0  0  0  0  0  0  0
    9.1980  -14.0390   -9.9500 C   0  0  0  0  0  0  0  0  0  0  0  0
    7.8700  -13.5860  -10.0900 C   0  0  0  0  0  0  0  0  0  0  0  0
    7.3810  -13.0870  -11.4290 C   0  0  0  0  0  0  0  0  0  0  0  0
    7.1110  -11.7520  -11.4220 F   0  0  0  0  0  0  0  0  0  0  0  0
    6.2280  -13.7020  -11.8090 F   0  0  0  0  0  0  0  0  0  0  0  0
    8.2720  -13.2880  -12.4350 F   0  0  0  0  0  0  0  0  0  0  0  0
    7.0280  -13.5780   -8.9700 C   0  0  0  0  0  0  0  0  0  0  0  0
    5.9680  -12.5020   -3.6910 C   0  0  0  0  0  0  0  0  0  0  0  0
    5.2340  -12.2460   -2.5210 C   0  0  0  0  0  0  0  0  0  0  0  0
    5.8410  -12.1690   -1.2480 N   0  0  0  0  0  0  0  0  0  0  0  0
    7.1160  -12.4520   -0.8690 C   0  0  0  0  0  0  0  0  0  0  0  0
    7.9000  -13.4170   -1.2980 N   0  0  0  0  0  0  0  0  0  0  0  0
    9.0960  -13.2480   -0.6680 C   0  0  0  0  0  0  0  0  0  0  0  0
   10.2790  -13.9900   -0.8310 C   0  0  0  0  0  0  0  0  0  0  0  0
   11.4280  -13.5980   -0.1420 C   0  0  0  0  0  0  0  0  0  0  0  0
   11.4060  -12.4760    0.6810 C   0  0  0  0  0  0  0  0  0  0  0  0
   10.2340  -11.7310    0.8620 C   0  0  0  0  0  0  0  0  0  0  0  0
    9.0670  -12.1620    0.2040 C   0  0  0  0  0  0  0  0  0  0  0  0
    7.7460  -11.7130    0.1500 N   0  0  0  0  0  0  0  0  0  0  0  0
    7.1130  -10.7070    0.9560 C   0  0  0  0  0  0  0  0  0  0  0  0
    7.6070   -9.4170    0.9930 C   0  0  0  0  0  0  0  0  0  0  0  0
    6.9390   -8.5140    1.7920 C   0  0  0  0  0  0  0  0  0  0  0  0
    7.3430   -7.1970    1.8560 N   0  0  0  0  0  0  0  0  0  0  0  0
    5.8500   -8.8380    2.4930 N   0  0  0  0  0  0  0  0  0  0  0  0
    5.4590  -10.1130    2.4260 C   0  0  0  0  0  0  0  0  0  0  0  0
    6.0480  -11.0810    1.7100 N   0  0  0  0  0  0  0  0  0  0  0  0
    3.5230  -12.0064   -0.5281 H   0  0  0  0  0  0  0  0  0  0  0  0
    2.5928  -10.7989   -1.4785 H   0  0  0  0  0  0  0  0  0  0  0  0
    2.0890  -12.5231   -1.4785 H   0  0  0  0  0  0  0  0  0  0  0  0
    2.1421  -12.0555   -4.0013 H   0  0  0  0  0  0  0  0  0  0  0  0
    3.4980  -12.4872   -6.0385 H   0  0  0  0  0  0  0  0  0  0  0  0
    6.5560  -12.0100   -6.5160 H   0  0  0  0  0  0  0  0  0  0  0  0
    9.1892  -14.8643   -6.6635 H   0  0  0  0  0  0  0  0  0  0  0  0
   10.4932  -16.4616   -7.1843 H   0  0  0  0  0  0  0  0  0  0  0  0
   11.1956  -17.0701   -8.7355 H   0  0  0  0  0  0  0  0  0  0  0  0
   12.6671  -15.6656   -6.4476 H   0  0  0  0  0  0  0  0  0  0  0  0
   12.8546  -17.3786   -7.0233 H   0  0  0  0  0  0  0  0  0  0  0  0
   14.6000  -15.7900   -7.7230 H   0  0  0  0  0  0  0  0  0  0  0  0
   14.3613  -17.8759   -8.8379 H   0  0  0  0  0  0  0  0  0  0  0  0
   13.1827  -17.1105   -9.9567 H   0  0  0  0  0  0  0  0  0  0  0  0
   14.8980  -16.5771   -9.9567 H   0  0  0  0  0  0  0  0  0  0  0  0
   13.4782  -13.7868   -8.0541 H   0  0  0  0  0  0  0  0  0  0  0  0
   14.1827  -14.3098   -9.6434 H   0  0  0  0  0  0  0  0  0  0  0  0
   11.8054  -13.4366   -9.7816 H   0  0  0  0  0  0  0  0  0  0  0  0
   12.0499  -15.1136  -10.4137 H   0  0  0  0  0  0  0  0  0  0  0  0
    9.8580  -14.0269  -10.8299 H   0  0  0  0  0  0  0  0  0  0  0  0
    5.9911  -13.2224   -9.0614 H   0  0  0  0  0  0  0  0  0  0  0  0
    7.0571  -12.6355   -3.6136 H   0  0  0  0  0  0  0  0  0  0  0  0
    5.2310  -11.7980   -0.5190 H   0  0  0  0  0  0  0  0  0  0  0  0
   10.2989  -14.8682   -1.4930 H   0  0  0  0  0  0  0  0  0  0  0  0
   12.3557  -14.1790   -0.2502 H   0  0  0  0  0  0  0  0  0  0  0  0
   12.3264  -12.1685    1.1991 H   0  0  0  0  0  0  0  0  0  0  0  0
   10.2258  -10.8349    1.5000 H   0  0  0  0  0  0  0  0  0  0  0  0
    8.4933   -9.1240    0.4111 H   0  0  0  0  0  0  0  0  0  0  0  0
    6.6770   -6.4650    1.6610 H   0  0  0  0  0  0  0  0  0  0  0  0
    8.2910   -7.0530    1.5290 H   0  0  0  0  0  0  0  0  0  0  0  0
    4.5720  -10.3948    3.0123 H   0  0  0  0  0  0  0  0  0  0  0  0
  1  2  1  0
  2  3  2  0
  3  4  1  0
  4  5  2  0
  5  6  1  0
  6  7  1  0
  7  8  2  0
  7  9  1  0
  9 10  2  0
 10 11  1  0
 11 12  1  0
 12 13  1  0
 13 14  1  0
 14 15  1  0
 15 16  1  0
 15 17  1  0
 17 18  1  0
 11 19  2  0
 19 20  1  0
 20 21  1  0
 21 22  1  0
 21 23  1  0
 21 24  1  0
 20 25  2  0
  5 26  1  0
 26 27  2  0
 27 28  1  0
 28 29  1  0
 29 30  2  0
 30 31  1  0
 31 32  2  0
 32 33  1  0
 33 34  2  0
 34 35  1  0
 35 36  2  0
 36 37  1  0
 37 38  1  0
 38 39  2  0
 39 40  1  0
 40 41  1  0
 40 42  2  0
 42 43  1  0
 43 44  2  0
 27  2  1  0
 37 29  1  0
 44 38  1  0
 25  9  1  0
 36 31  1  0
 18 12  1  0
  1 45  1  0
  1 46  1  0
  1 47  1  0
  3 48  1  0
  4 49  1  0
  6 50  1  0
 10 51  1  0
 13 52  1  0
 13 53  1  0
 14 54  1  0
 14 55  1  0
 15 56  1  0
 16 57  1  0
 16 58  1  0
 16 59  1  0
 17 60  1  0
 17 61  1  0
 18 62  1  0
 18 63  1  0
 19 64  1  0
 25 65  1  0
 26 66  1  0
 28 67  1  0
 32 68  1  0
 33 69  1  0
 34 70  1  0
 35 71  1  0
 39 72  1  0
 41 73  1  0
 41 74  1  0
 43 75  1  0
M  CHG  1  15   1
M  END
>  <meeko>  (8) 
{"is_sidechain": [false], "free_energy": -9.205, "intermolecular_energy": -13.565, "internal_energy": -1.664}

$$$$
LIB_YQPHBBQBBMIYLO__M_PUB_ALL__e8__s20260927
     RDKit          3D

 75 80  0  0  0  0  0  0  0  0999 V2000
   10.6190  -18.4000   -1.1950 C   0  0  0  0  0  0  0  0  0  0  0  0
   10.4380  -17.6980   -2.5150 C   0  0  0  0  0  0  0  0  0  0  0  0
   10.4190  -18.4760   -3.6850 C   0  0  0  0  0  0  0  0  0  0  0  0
   10.2630  -17.8900   -4.9410 C   0  0  0  0  0  0  0  0  0  0  0  0
   10.1260  -16.5120   -5.0510 C   0  0  0  0  0  0  0  0  0  0  0  0
    9.9620  -15.8260   -6.2750 N   0  0  0  0  0  0  0  0  0  0  0  0
    8.8850  -15.0590   -6.6690 C   0  0  0  0  0  0  0  0  0  0  0  0
    7.8310  -14.8980   -6.0630 O   0  0  0  0  0  0  0  0  0  0  0  0
    9.0200  -14.4030   -8.0030 C   0  0  0  0  0  0  0  0  0  0  0  0
   10.3180  -14.1250   -8.4650 C   0  0  0  0  0  0  0  0  0  0  0  0
   10.5570  -13.5210   -9.7080 C   0  0  0  0  0  0  0  0  0  0  0  0
   11.8550  -13.2700  -10.1380 N   0  0  0  0  0  0  0  0  0  0  0  0
   12.6620  -14.3460  -10.7350 C   0  0  0  0  0  0  0  0  0  0  0  0
   14.1690  -14.0930  -10.5220 C   0  0  0  0  0  0  0  0  0  0  0  0
   14.5880  -12.6940  -10.9610 N   0  0  0  0  0  0  0  0  0  0  0  0
   14.6550  -12.5260  -12.4490 C   0  0  0  0  0  0  0  0  0  0  0  0
   13.7320  -11.6400  -10.2650 C   0  0  0  0  0  0  0  0  0  0  0  0
   12.2250  -11.8830  -10.4800 C   0  0  0  0  0  0  0  0  0  0  0  0
    9.4320  -13.2170  -10.4870 C   0  0  0  0  0  0  0  0  0  0  0  0
    8.1190  -13.5060  -10.0620 C   0  0  0  0  0  0  0  0  0  0  0  0
    6.9460  -13.1470  -10.9420 C   0  0  0  0  0  0  0  0  0  0  0  0
    6.7110  -11.8060  -10.9780 F   0  0  0  0  0  0  0  0  0  0  0  0
    5.7900  -13.7190  -10.5070 F   0  0  0  0  0  0  0  0  0  0  0  0
    7.1030  -13.5380  -12.2340 F   0  0  0  0  0  0  0  0  0  0  0  0
    7.9200  -14.1000   -8.8080 C   0  0  0  0  0  0  0  0  0  0  0  0
   10.1380  -15.7340   -3.8830 C   0  0  0  0  0  0  0  0  0  0  0  0
   10.2820  -16.2950   -2.6030 C   0  0  0  0  0  0  0  0  0  0  0  0
   10.3090  -15.5100   -1.4300 N   0  0  0  0  0  0  0  0  0  0  0  0
    9.3860  -14.6410   -0.9380 C   0  0  0  0  0  0  0  0  0  0  0  0
    8.1470  -14.8890   -0.5680 N   0  0  0  0  0  0  0  0  0  0  0  0
    7.6480  -13.7150   -0.0890 C   0  0  0  0  0  0  0  0  0  0  0  0
    6.3850  -13.4730    0.4770 C   0  0  0  0  0  0  0  0  0  0  0  0
    6.0990  -12.2040    0.9840 C   0  0  0  0  0  0  0  0  0  0  0  0
    7.0600  -11.1980    0.9450 C   0  0  0  0  0  0  0  0  0  0  0  0
    8.3190  -11.4200    0.3750 C   0  0  0  0  0  0  0  0  0  0  0  0
    8.5830  -12.6870   -0.1790 C   0  0  0  0  0  0  0  0  0  0  0  0
    9.6740  -13.2680   -0.8290 N   0  0  0  0  0  0  0  0  0  0  0  0
   10.8660  -12.6310   -1.3130 C   0  0  0  0  0  0  0  0  0  0  0  0
   11.7840  -12.0890   -0.4340 C   0  0  0  0  0  0  0  0  0  0  0  0
   12.9010  -11.4960   -0.9820 C   0  0  0  0  0  0  0  0  0  0  0  0
   13.8850  -10.9650   -0.1750 N   0  0  0  0  0  0  0  0  0  0  0  0
   13.1220  -11.4510   -2.2990 N   0  0  0  0  0  0  0  0  0  0  0  0
   12.1690  -11.9690   -3.0780 C   0  0  0  0  0  0  0  0  0  0  0  0
   11.0310  -12.5390   -2.6570 N   0  0  0  0  0  0  0  0  0  0  0  0
   10.4361  -17.6907   -0.3744 H   0  0  0  0  0  0  0  0  0  0  0  0
    9.9068  -19.2353   -1.1232 H   0  0  0  0  0  0  0  0  0  0  0  0
   11.6462  -18.7868   -1.1232 H   0  0  0  0  0  0  0  0  0  0  0  0
   10.5292  -19.5678   -3.6089 H   0  0  0  0  0  0  0  0  0  0  0  0
   10.2485  -18.5184   -5.8437 H   0  0  0  0  0  0  0  0  0  0  0  0
   10.7180  -15.9620   -6.9340 H   0  0  0  0  0  0  0  0  0  0  0  0
   11.1760  -14.3903   -7.8298 H   0  0  0  0  0  0  0  0  0  0  0  0
   12.3885  -15.3027  -10.2661 H   0  0  0  0  0  0  0  0  0  0  0  0
   12.4617  -14.3744  -11.8162 H   0  0  0  0  0  0  0  0  0  0  0  0
   14.4003  -14.2126   -9.4533 H   0  0  0  0  0  0  0  0  0  0  0  0
   14.7224  -14.8186  -11.1362 H   0  0  0  0  0  0  0  0  0  0  0  0
   15.5440  -12.5590  -10.6100 H   0  0  0  0  0  0  0  0  0  0  0  0
   15.0528  -11.5286  -12.6878 H   0  0  0  0  0  0  0  0  0  0  0  0
   15.3150  -13.2957  -12.8756 H   0  0  0  0  0  0  0  0  0  0  0  0
   13.6465  -12.6303  -12.8756 H   0  0  0  0  0  0  0  0  0  0  0  0
   13.9451  -11.6658   -9.1862 H   0  0  0  0  0  0  0  0  0  0  0  0
   13.9824  -10.6602  -10.6978 H   0  0  0  0  0  0  0  0  0  0  0  0
   11.6552  -11.1917   -9.8417 H   0  0  0  0  0  0  0  0  0  0  0  0
   11.9920  -11.7115  -11.5413 H   0  0  0  0  0  0  0  0  0  0  0  0
    9.5788  -12.7356  -11.4651 H   0  0  0  0  0  0  0  0  0  0  0  0
    6.9015  -14.3265   -8.4595 H   0  0  0  0  0  0  0  0  0  0  0  0
   10.0305  -14.6430   -3.9732 H   0  0  0  0  0  0  0  0  0  0  0  0
   11.1320  -15.6620   -0.8470 H   0  0  0  0  0  0  0  0  0  0  0  0
    5.6313  -14.2730    0.5201 H   0  0  0  0  0  0  0  0  0  0  0  0
    5.1088  -11.9982    1.4166 H   0  0  0  0  0  0  0  0  0  0  0  0
    6.8259  -10.2107    1.3698 H   0  0  0  0  0  0  0  0  0  0  0  0
    9.0808  -10.6267    0.3603 H   0  0  0  0  0  0  0  0  0  0  0  0
   11.6302  -12.1290    0.6545 H   0  0  0  0  0  0  0  0  0  0  0  0
   13.6760  -10.7600    0.7900 H   0  0  0  0  0  0  0  0  0  0  0  0
   14.4920  -10.3140   -0.6610 H   0  0  0  0  0  0  0  0  0  0  0  0
   12.3328  -11.9238   -4.1648 H   0  0  0  0  0  0  0  0  0  0  0  0
  1  2  1  0
  2  3  2  0
  3  4  1  0
  4  5  2  0
  5  6  1  0
  6  7  1  0
  7  8  2  0
  7  9  1  0
  9 10  2  0
 10 11  1  0
 11 12  1  0
 12 13  1  0
 13 14  1  0
 14 15  1  0
 15 16  1  0
 15 17  1  0
 17 18  1  0
 11 19  2  0
 19 20  1  0
 20 21  1  0
 21 22  1  0
 21 23  1  0
 21 24  1  0
 20 25  2  0
  5 26  1  0
 26 27  2  0
 27 28  1  0
 28 29  1  0
 29 30  2  0
 30 31  1  0
 31 32  2  0
 32 33  1  0
 33 34  2  0
 34 35  1  0
 35 36  2  0
 36 37  1  0
 37 38  1  0
 38 39  2  0
 39 40  1  0
 40 41  1  0
 40 42  2  0
 42 43  1  0
 43 44  2  0
 27  2  1  0
 37 29  1  0
 44 38  1  0
 25  9  1  0
 36 31  1  0
 18 12  1  0
  1 45  1  0
  1 46  1  0
  1 47  1  0
  3 48  1  0
  4 49  1  0
  6 50  1  0
 10 51  1  0
 13 52  1  0
 13 53  1  0
 14 54  1  0
 14 55  1  0
 15 56  1  0
 16 57  1  0
 16 58  1  0
 16 59  1  0
 17 60  1  0
 17 61  1  0
 18 62  1  0
 18 63  1  0
 19 64  1  0
 25 65  1  0
 26 66  1  0
 28 67  1  0
 32 68  1  0
 33 69  1  0
 34 70  1  0
 35 71  1  0
 39 72  1  0
 41 73  1  0
 41 74  1  0
 43 75  1  0
M  CHG  1  15   1
M  END
>  <meeko>  (9) 
{"is_sidechain": [false], "free_energy": -9.165, "intermolecular_energy": -13.086, "internal_energy": -2.086}

$$$$
