LIB_NRUFFLBVZNYLIC__M_PUB_ALL__e8__s20260927
     RDKit          3D

 52 54  0  0  0  0  0  0  0  0999 V2000
    6.5720  -10.5420    1.2990 C   0  0  0  0  0  0  0  0  0  0  0  0
    7.2640  -11.3660    0.2170 C   0  0  0  0  0  0  0  0  0  0  0  0
    8.6470  -11.8180    0.6840 C   0  0  0  0  0  0  0  0  0  0  0  0
    7.4510  -10.5460   -0.9440 O   0  0  0  0  0  0  0  0  0  0  0  0
    6.4230  -12.6130   -0.1540 C   0  0  0  0  0  0  0  0  0  0  0  0
    6.3800  -13.6340    0.5240 O   0  0  0  0  0  0  0  0  0  0  0  0
    5.7480  -12.4700   -1.3500 N   0  0  0  0  0  0  0  0  0  0  0  0
    4.9210  -13.5220   -1.9080 C   0  0  0  0  0  0  0  0  0  0  0  0
    3.6550  -12.9880   -2.6250 C   0  0  2  0  0  0  0  0  0  0  0  0
    4.0820  -11.9670   -3.7040 C   0  0  0  0  0  0  0  0  0  0  0  0
    2.8970  -11.1740   -4.2290 C   0  0  0  0  0  0  0  0  0  0  0  0
    2.2960  -10.3490   -3.1010 C   0  0  0  0  0  0  0  0  0  0  0  0
    1.9780  -11.1890   -1.8880 C   0  0  0  0  0  0  0  0  0  0  0  0
    1.0370  -10.6990   -0.9680 C   0  0  0  0  0  0  0  0  0  0  0  0
    0.6910  -11.4580    0.1510 C   0  0  0  0  0  0  0  0  0  0  0  0
   -0.5110  -10.8210    1.2930 S   0  0  0  0  0  0  0  0  0  0  0  0
   -0.3570   -9.3780    1.3080 O   0  0  0  0  0  0  0  0  0  0  0  0
   -0.4090  -11.5830    2.5250 O   0  0  0  0  0  0  0  0  0  0  0  0
   -2.1030  -11.1900    0.5960 C   0  0  0  0  0  0  0  0  0  0  0  0
   -2.8200  -10.1970   -0.0810 C   0  0  0  0  0  0  0  0  0  0  0  0
   -4.0730  -10.4980   -0.6180 C   0  0  0  0  0  0  0  0  0  0  0  0
   -4.6010  -11.7810   -0.4720 C   0  0  0  0  0  0  0  0  0  0  0  0
   -3.8780  -12.7530    0.2160 C   0  0  0  0  0  0  0  0  0  0  0  0
   -4.3970  -13.9790    0.3580 F   0  0  0  0  0  0  0  0  0  0  0  0
   -2.6320  -12.4720    0.7580 C   0  0  0  0  0  0  0  0  0  0  0  0
    1.2830  -12.6960    0.3780 C   0  0  0  0  0  0  0  0  0  0  0  0
    2.2290  -13.1780   -0.5270 C   0  0  0  0  0  0  0  0  0  0  0  0
    2.6180  -12.4240   -1.6510 C   0  0  0  0  0  0  0  0  0  0  0  0
    6.8786  -10.9071    2.2903 H   0  0  0  0  0  0  0  0  0  0  0  0
    6.8570   -9.4848    1.1933 H   0  0  0  0  0  0  0  0  0  0  0  0
    5.4815  -10.6400    1.1933 H   0  0  0  0  0  0  0  0  0  0  0  0
    8.6776  -11.8280    1.7835 H   0  0  0  0  0  0  0  0  0  0  0  0
    8.8505  -12.8294    0.3023 H   0  0  0  0  0  0  0  0  0  0  0  0
    9.4085  -11.1220    0.3023 H   0  0  0  0  0  0  0  0  0  0  0  0
    6.6940   -9.9340   -0.9820 H   0  0  0  0  0  0  0  0  0  0  0  0
    5.8090  -11.5680   -1.8140 H   0  0  0  0  0  0  0  0  0  0  0  0
    5.5208  -14.0900   -2.6344 H   0  0  0  0  0  0  0  0  0  0  0  0
    4.5821  -14.1501   -1.0709 H   0  0  0  0  0  0  0  0  0  0  0  0
    3.1446  -13.8288   -3.1175 H   0  0  0  0  0  0  0  0  0  0  0  0
    4.8114  -11.2698   -3.2660 H   0  0  0  0  0  0  0  0  0  0  0  0
    4.5225  -12.5220   -4.5454 H   0  0  0  0  0  0  0  0  0  0  0  0
    3.2326  -10.5039   -5.0342 H   0  0  0  0  0  0  0  0  0  0  0  0
    2.1375  -11.8671   -4.6198 H   0  0  0  0  0  0  0  0  0  0  0  0
    3.0140   -9.5672   -2.8123 H   0  0  0  0  0  0  0  0  0  0  0  0
    1.3546   -9.9125   -3.4660 H   0  0  0  0  0  0  0  0  0  0  0  0
    0.5718   -9.7154   -1.1295 H   0  0  0  0  0  0  0  0  0  0  0  0
   -2.3993   -9.1864   -0.1893 H   0  0  0  0  0  0  0  0  0  0  0  0
   -4.6427   -9.7253   -1.1550 H   0  0  0  0  0  0  0  0  0  0  0  0
   -5.5852  -12.0244   -0.8988 H   0  0  0  0  0  0  0  0  0  0  0  0
   -2.0716  -13.2445    1.3049 H   0  0  0  0  0  0  0  0  0  0  0  0
    1.0079  -13.2893    1.2625 H   0  0  0  0  0  0  0  0  0  0  0  0
    2.6802  -14.1671   -0.3592 H   0  0  0  0  0  0  0  0  0  0  0  0
  1  2  1  0
  2  3  1  0
  2  4  1  0
  2  5  1  0
  5  6  2  0
  5  7  1  0
  7  8  1  0
  8  9  1  0
  9 10  1  0
 10 11  1  0
 11 12  1  0
 12 13  1  0
 13 14  2  0
 14 15  1  0
 15 16  1  0
 16 17  2  0
 16 18  2  0
 16 19  1  0
 19 20  2  0
 20 21  1  0
 21 22  2  0
 22 23  1  0
 23 24  1  0
 23 25  2  0
 15 26  2  0
 26 27  1  0
 27 28  2  0
 28  9  1  0
 28 13  1  0
 25 19  1  0
  1 29  1  0
  1 30  1  0
  1 31  1  0
  3 32  1  0
  3 33  1  0
  3 34  1  0
  4 35  1  0
  7 36  1  0
  8 37  1  0
  8 38  1  0
  9 39  1  6
 10 40  1  0
 10 41  1  0
 11 42  1  0
 11 43  1  0
 12 44  1  0
 12 45  1  0
 14 46  1  0
 20 47  1  0
 21 48  1  0
 22 49  1  0
 25 50  1  0
 26 51  1  0
 27 52  1  0
M  END
>  <meeko>  (1) 
{"is_sidechain": [false], "free_energy": -7.886, "intermolecular_energy": -10.422, "internal_energy": -0.972}

$$$$
LIB_NRUFFLBVZNYLIC__M_PUB_ALL__e8__s20260927
     RDKit          3D

 52 54  0  0  0  0  0  0  0  0999 V2000
    9.9890  -12.5090   -2.2850 C   0  0  0  0  0  0  0  0  0  0  0  0
    8.6480  -12.2100   -2.9490 C   0  0  0  0  0  0  0  0  0  0  0  0
    8.3390  -13.2440   -4.0310 C   0  0  0  0  0  0  0  0  0  0  0  0
    8.7210  -10.9300   -3.5900 O   0  0  0  0  0  0  0  0  0  0  0  0
    7.5000  -12.2080   -1.9090 C   0  0  0  0  0  0  0  0  0  0  0  0
    7.5860  -11.6930   -0.8000 O   0  0  0  0  0  0  0  0  0  0  0  0
    6.3750  -12.8760   -2.3490 N   0  0  0  0  0  0  0  0  0  0  0  0
    5.1870  -13.0240   -1.5300 C   0  0  0  0  0  0  0  0  0  0  0  0
    3.8740  -12.7360   -2.3000 C   0  0  2  0  0  0  0  0  0  0  0  0
    4.1890  -11.8170   -3.5030 C   0  0  0  0  0  0  0  0  0  0  0  0
    2.9240  -11.2400   -4.1170 C   0  0  0  0  0  0  0  0  0  0  0  0
    2.2220  -10.3540   -3.0980 C   0  0  0  0  0  0  0  0  0  0  0  0
    1.9940  -11.0660   -1.7870 C   0  0  0  0  0  0  0  0  0  0  0  0
    0.9940  -10.5760   -0.9300 C   0  0  0  0  0  0  0  0  0  0  0  0
    0.7290  -11.2220    0.2780 C   0  0  0  0  0  0  0  0  0  0  0  0
   -0.5480  -10.5910    1.3380 S   0  0  0  0  0  0  0  0  0  0  0  0
   -0.4640   -9.1420    1.2850 O   0  0  0  0  0  0  0  0  0  0  0  0
   -0.4620  -11.2850    2.6110 O   0  0  0  0  0  0  0  0  0  0  0  0
   -2.0910  -11.0720    0.5990 C   0  0  0  0  0  0  0  0  0  0  0  0
   -2.9080  -10.1110   -0.0060 C   0  0  0  0  0  0  0  0  0  0  0  0
   -4.1210  -10.5000   -0.5780 C   0  0  0  0  0  0  0  0  0  0  0  0
   -4.5090  -11.8400   -0.5360 C   0  0  0  0  0  0  0  0  0  0  0  0
   -3.6880  -12.7800    0.0810 C   0  0  0  0  0  0  0  0  0  0  0  0
   -4.0720  -14.0620    0.1220 F   0  0  0  0  0  0  0  0  0  0  0  0
   -2.4790  -12.4110    0.6560 C   0  0  0  0  0  0  0  0  0  0  0  0
    1.4590  -12.3450    0.6560 C   0  0  0  0  0  0  0  0  0  0  0  0
    2.4620  -12.8240   -0.1870 C   0  0  0  0  0  0  0  0  0  0  0  0
    2.7700  -12.1780   -1.4000 C   0  0  0  0  0  0  0  0  0  0  0  0
    9.8708  -12.4826   -1.1917 H   0  0  0  0  0  0  0  0  0  0  0  0
   10.3360  -13.5066   -2.5923 H   0  0  0  0  0  0  0  0  0  0  0  0
   10.7269  -11.7533   -2.5923 H   0  0  0  0  0  0  0  0  0  0  0  0
    8.0546  -14.1956   -3.5582 H   0  0  0  0  0  0  0  0  0  0  0  0
    7.5094  -12.8832   -4.6568 H   0  0  0  0  0  0  0  0  0  0  0  0
    9.2305  -13.3975   -4.6568 H   0  0  0  0  0  0  0  0  0  0  0  0
    9.4800  -10.9630   -4.2010 H   0  0  0  0  0  0  0  0  0  0  0  0
    6.3840  -13.2260   -3.3030 H   0  0  0  0  0  0  0  0  0  0  0  0
    5.1504  -14.0559   -1.1506 H   0  0  0  0  0  0  0  0  0  0  0  0
    5.2571  -12.2865   -0.7169 H   0  0  0  0  0  0  0  0  0  0  0  0
    3.4689  -13.6863   -2.6778 H   0  0  0  0  0  0  0  0  0  0  0  0
    4.8287  -10.9898   -3.1616 H   0  0  0  0  0  0  0  0  0  0  0  0
    4.6982  -12.4191   -4.2699 H   0  0  0  0  0  0  0  0  0  0  0  0
    3.1861  -10.6428   -5.0028 H   0  0  0  0  0  0  0  0  0  0  0  0
    2.2534  -12.0604   -4.4122 H   0  0  0  0  0  0  0  0  0  0  0  0
    2.8421   -9.4641   -2.9150 H   0  0  0  0  0  0  0  0  0  0  0  0
    1.2395  -10.0786   -3.5089 H   0  0  0  0  0  0  0  0  0  0  0  0
    0.4191   -9.6816   -1.2120 H   0  0  0  0  0  0  0  0  0  0  0  0
   -2.5970   -9.0562   -0.0310 H   0  0  0  0  0  0  0  0  0  0  0  0
   -4.7686   -9.7528   -1.0601 H   0  0  0  0  0  0  0  0  0  0  0  0
   -5.4612  -12.1527   -0.9893 H   0  0  0  0  0  0  0  0  0  0  0  0
   -1.8398  -13.1597    1.1468 H   0  0  0  0  0  0  0  0  0  0  0  0
    1.2472  -12.8499    1.6100 H   0  0  0  0  0  0  0  0  0  0  0  0
    3.0238  -13.7246    0.1016 H   0  0  0  0  0  0  0  0  0  0  0  0
  1  2  1  0
  2  3  1  0
  2  4  1  0
  2  5  1  0
  5  6  2  0
  5  7  1  0
  7  8  1  0
  8  9  1  0
  9 10  1  0
 10 11  1  0
 11 12  1  0
 12 13  1  0
 13 14  2  0
 14 15  1  0
 15 16  1  0
 16 17  2  0
 16 18  2  0
 16 19  1  0
 19 20  2  0
 20 21  1  0
 21 22  2  0
 22 23  1  0
 23 24  1  0
 23 25  2  0
 15 26  2  0
 26 27  1  0
 27 28  2  0
 28  9  1  0
 28 13  1  0
 25 19  1  0
  1 29  1  0
  1 30  1  0
  1 31  1  0
  3 32  1  0
  3 33  1  0
  3 34  1  0
  4 35  1  0
  7 36  1  0
  8 37  1  0
  8 38  1  0
  9 39  1  6
 10 40  1  0
 10 41  1  0
 11 42  1  0
 11 43  1  0
 12 44  1  0
 12 45  1  0
 14 46  1  0
 20 47  1  0
 21 48  1  0
 22 49  1  0
 25 50  1  0
 26 51  1  0
 27 52  1  0
M  END
>  <meeko>  (2) 
{"is_sidechain": [false], "free_energy": -7.848, "intermolecular_energy": -10.46, "internal_energy": -0.884}

$$$$
LIB_NRUFFLBVZNYLIC__M_PUB_ALL__e8__s20260927
     RDKit          3D

 52 54  0  0  0  0  0  0  0  0999 V2000
   18.6980   -5.3920   11.8670 C   0  0  0  0  0  0  0  0  0  0  0  0
   18.0680   -6.4650   10.9810 C   0  0  0  0  0  0  0  0  0  0  0  0
   19.0630   -6.9460    9.9260 C   0  0  0  0  0  0  0  0  0  0  0  0
   16.9490   -5.8960   10.2870 O   0  0  0  0  0  0  0  0  0  0  0  0
   17.5990   -7.6760   11.8240 C   0  0  0  0  0  0  0  0  0  0  0  0
   18.3350   -8.5930   12.1700 O   0  0  0  0  0  0  0  0  0  0  0  0
   16.2510   -7.6350   12.1220 N   0  0  0  0  0  0  0  0  0  0  0  0
   15.5880   -8.6790   12.8780 C   0  0  0  0  0  0  0  0  0  0  0  0
   14.0650   -8.7590   12.6030 C   0  0  2  0  0  0  0  0  0  0  0  0
   13.3220   -7.8770   13.6310 C   0  0  0  0  0  0  0  0  0  0  0  0
   11.8270   -8.1460   13.6280 C   0  0  0  0  0  0  0  0  0  0  0  0
   11.5670   -9.5820   14.0590 C   0  0  0  0  0  0  0  0  0  0  0  0
   12.3670  -10.5720   13.2480 C   0  0  0  0  0  0  0  0  0  0  0  0
   11.9240  -11.9040   13.2030 C   0  0  0  0  0  0  0  0  0  0  0  0
   12.6160  -12.8460   12.4400 C   0  0  0  0  0  0  0  0  0  0  0  0
   12.0290  -14.5220   12.3880 S   0  0  0  0  0  0  0  0  0  0  0  0
   12.2530  -15.0070   11.0380 O   0  0  0  0  0  0  0  0  0  0  0  0
   10.6980  -14.5520   12.9670 O   0  0  0  0  0  0  0  0  0  0  0  0
   13.0810  -15.4500   13.4790 C   0  0  0  0  0  0  0  0  0  0  0  0
   12.7380  -15.5960   14.8280 C   0  0  0  0  0  0  0  0  0  0  0  0
   13.5760  -16.3220   15.6760 C   0  0  0  0  0  0  0  0  0  0  0  0
   14.7480  -16.8900   15.1750 C   0  0  0  0  0  0  0  0  0  0  0  0
   15.0790  -16.7230   13.8330 C   0  0  0  0  0  0  0  0  0  0  0  0
   16.2090  -17.2660   13.3630 F   0  0  0  0  0  0  0  0  0  0  0  0
   14.2580  -16.0030   12.9750 C   0  0  0  0  0  0  0  0  0  0  0  0
   13.7580  -12.4840   11.7320 C   0  0  0  0  0  0  0  0  0  0  0  0
   14.2080  -11.1640   11.7880 C   0  0  0  0  0  0  0  0  0  0  0  0
   13.5450  -10.1980   12.5700 C   0  0  0  0  0  0  0  0  0  0  0  0
   18.5447   -5.6532   12.9245 H   0  0  0  0  0  0  0  0  0  0  0  0
   19.7760   -5.3298   11.6573 H   0  0  0  0  0  0  0  0  0  0  0  0
   18.2270   -4.4203   11.6573 H   0  0  0  0  0  0  0  0  0  0  0  0
   19.9465   -7.3731   10.4230 H   0  0  0  0  0  0  0  0  0  0  0  0
   18.5885   -7.7142    9.2977 H   0  0  0  0  0  0  0  0  0  0  0  0
   19.3703   -6.0970    9.2977 H   0  0  0  0  0  0  0  0  0  0  0  0
   16.4190   -5.4190   10.9510 H   0  0  0  0  0  0  0  0  0  0  0  0
   15.7350   -6.8090   11.8320 H   0  0  0  0  0  0  0  0  0  0  0  0
   16.0423   -9.6450   12.6126 H   0  0  0  0  0  0  0  0  0  0  0  0
   15.7154   -8.4413   13.9444 H   0  0  0  0  0  0  0  0  0  0  0  0
   13.8659   -8.3687   11.5940 H   0  0  0  0  0  0  0  0  0  0  0  0
   13.7198   -8.0878   14.6347 H   0  0  0  0  0  0  0  0  0  0  0  0
   13.4807   -6.8237   13.3563 H   0  0  0  0  0  0  0  0  0  0  0  0
   11.3296   -7.4579   14.3274 H   0  0  0  0  0  0  0  0  0  0  0  0
   11.4294   -7.9907   12.6142 H   0  0  0  0  0  0  0  0  0  0  0  0
   11.8401   -9.6891   15.1192 H   0  0  0  0  0  0  0  0  0  0  0  0
   10.5001   -9.7960   13.8981 H   0  0  0  0  0  0  0  0  0  0  0  0
   11.0306  -12.2053   13.7697 H   0  0  0  0  0  0  0  0  0  0  0  0
   11.8148  -15.1419   15.2172 H   0  0  0  0  0  0  0  0  0  0  0  0
   13.3131  -16.4461   16.7369 H   0  0  0  0  0  0  0  0  0  0  0  0
   15.4083  -17.4679   15.8383 H   0  0  0  0  0  0  0  0  0  0  0  0
   14.5309  -15.8713   11.9176 H   0  0  0  0  0  0  0  0  0  0  0  0
   14.3008  -13.2309   11.1340 H   0  0  0  0  0  0  0  0  0  0  0  0
   15.0975  -10.8724   11.2103 H   0  0  0  0  0  0  0  0  0  0  0  0
  1  2  1  0
  2  3  1  0
  2  4  1  0
  2  5  1  0
  5  6  2  0
  5  7  1  0
  7  8  1  0
  8  9  1  0
  9 10  1  0
 10 11  1  0
 11 12  1  0
 12 13  1  0
 13 14  2  0
 14 15  1  0
 15 16  1  0
 16 17  2  0
 16 18  2  0
 16 19  1  0
 19 20  2  0
 20 21  1  0
 21 22  2  0
 22 23  1  0
 23 24  1  0
 23 25  2  0
 15 26  2  0
 26 27  1  0
 27 28  2  0
 28  9  1  0
 28 13  1  0
 25 19  1  0
  1 29  1  0
  1 30  1  0
  1 31  1  0
  3 32  1  0
  3 33  1  0
  3 34  1  0
  4 35  1  0
  7 36  1  0
  8 37  1  0
  8 38  1  0
  9 39  1  6
 10 40  1  0
 10 41  1  0
 11 42  1  0
 11 43  1  0
 12 44  1  0
 12 45  1  0
 14 46  1  0
 20 47  1  0
 21 48  1  0
 22 49  1  0
 25 50  1  0
 26 51  1  0
 27 52  1  0
M  END
>  <meeko>  (3) 
{"is_sidechain": [false], "free_energy": -7.623, "intermolecular_energy": -10.289, "internal_energy": -0.757}

$$$$
LIB_NRUFFLBVZNYLIC__M_PUB_ALL__e8__s20260927
     RDKit          3D

 52 54  0  0  0  0  0  0  0  0999 V2000
    6.9140  -12.2740   -4.0260 C   0  0  0  0  0  0  0  0  0  0  0  0
    7.9710  -11.7370   -3.0630 C   0  0  0  0  0  0  0  0  0  0  0  0
    7.3120  -11.0450   -1.8710 C   0  0  0  0  0  0  0  0  0  0  0  0
    8.7630  -10.7550   -3.7440 O   0  0  0  0  0  0  0  0  0  0  0  0
    8.8820  -12.8780   -2.5470 C   0  0  0  0  0  0  0  0  0  0  0  0
    8.8870  -14.0120   -3.0120 O   0  0  0  0  0  0  0  0  0  0  0  0
    9.6720  -12.4940   -1.4820 N   0  0  0  0  0  0  0  0  0  0  0  0
   10.5840  -13.4060   -0.8200 C   0  0  0  0  0  0  0  0  0  0  0  0
   12.0720  -13.1280   -1.1470 C   0  0  2  0  0  0  0  0  0  0  0  0
   12.3340  -11.6090   -1.0360 C   0  0  0  0  0  0  0  0  0  0  0  0
   13.6740  -11.2230   -1.6400 C   0  0  0  0  0  0  0  0  0  0  0  0
   13.6680  -11.5280   -3.1310 C   0  0  0  0  0  0  0  0  0  0  0  0
   13.2570  -12.9520   -3.4170 C   0  0  0  0  0  0  0  0  0  0  0  0
   13.6250  -13.5140   -4.6510 C   0  0  0  0  0  0  0  0  0  0  0  0
   13.2920  -14.8380   -4.9440 C   0  0  0  0  0  0  0  0  0  0  0  0
   13.7780  -15.5300   -6.5060 S   0  0  0  0  0  0  0  0  0  0  0  0
   13.2710  -16.8890   -6.5430 O   0  0  0  0  0  0  0  0  0  0  0  0
   15.1950  -15.2690   -6.6930 O   0  0  0  0  0  0  0  0  0  0  0  0
   12.9200  -14.5960   -7.7510 C   0  0  0  0  0  0  0  0  0  0  0  0
   13.6350  -13.9910   -8.7910 C   0  0  0  0  0  0  0  0  0  0  0  0
   12.9500  -13.2550   -9.7590 C   0  0  0  0  0  0  0  0  0  0  0  0
   11.5630  -13.1240   -9.6800 C   0  0  0  0  0  0  0  0  0  0  0  0
   10.8700  -13.7240   -8.6310 C   0  0  0  0  0  0  0  0  0  0  0  0
    9.5400  -13.5880   -8.5590 F   0  0  0  0  0  0  0  0  0  0  0  0
   11.5350  -14.4580   -7.6580 C   0  0  0  0  0  0  0  0  0  0  0  0
   12.5800  -15.6090   -4.0300 C   0  0  0  0  0  0  0  0  0  0  0  0
   12.2010  -15.0470   -2.8100 C   0  0  0  0  0  0  0  0  0  0  0  0
   12.5000  -13.7070   -2.4970 C   0  0  0  0  0  0  0  0  0  0  0  0
    6.0773  -12.6991   -3.4522 H   0  0  0  0  0  0  0  0  0  0  0  0
    6.5449  -11.4541   -4.6597 H   0  0  0  0  0  0  0  0  0  0  0  0
    7.3585  -13.0556   -4.6597 H   0  0  0  0  0  0  0  0  0  0  0  0
    7.7119  -11.4649   -0.9362 H   0  0  0  0  0  0  0  0  0  0  0  0
    7.5252   -9.9665   -1.9093 H   0  0  0  0  0  0  0  0  0  0  0  0
    6.2244  -11.2053   -1.9093 H   0  0  0  0  0  0  0  0  0  0  0  0
    9.3690  -11.2410   -4.3320 H   0  0  0  0  0  0  0  0  0  0  0  0
    9.6320  -11.5190   -1.2000 H   0  0  0  0  0  0  0  0  0  0  0  0
   10.4422  -13.3141    0.2669 H   0  0  0  0  0  0  0  0  0  0  0  0
   10.3539  -14.4184   -1.1835 H   0  0  0  0  0  0  0  0  0  0  0  0
   12.7005  -13.6501   -0.4106 H   0  0  0  0  0  0  0  0  0  0  0  0
   11.5354  -11.0700   -1.5668 H   0  0  0  0  0  0  0  0  0  0  0  0
   12.3494  -11.3412    0.0308 H   0  0  0  0  0  0  0  0  0  0  0  0
   13.8486  -10.1478   -1.4869 H   0  0  0  0  0  0  0  0  0  0  0  0
   14.4743  -11.7988   -1.1523 H   0  0  0  0  0  0  0  0  0  0  0  0
   12.9616  -10.8479   -3.6294 H   0  0  0  0  0  0  0  0  0  0  0  0
   14.6912  -11.3879   -3.5098 H   0  0  0  0  0  0  0  0  0  0  0  0
   14.1761  -12.9103   -5.3871 H   0  0  0  0  0  0  0  0  0  0  0  0
   14.7288  -14.0948   -8.8451 H   0  0  0  0  0  0  0  0  0  0  0  0
   13.5024  -12.7791  -10.5826 H   0  0  0  0  0  0  0  0  0  0  0  0
   11.0187  -12.5489  -10.4435 H   0  0  0  0  0  0  0  0  0  0  0  0
   10.9801  -14.9220   -6.8293 H   0  0  0  0  0  0  0  0  0  0  0  0
   12.3186  -16.6509   -4.2667 H   0  0  0  0  0  0  0  0  0  0  0  0
   11.6579  -15.6631   -2.0783 H   0  0  0  0  0  0  0  0  0  0  0  0
  1  2  1  0
  2  3  1  0
  2  4  1  0
  2  5  1  0
  5  6  2  0
  5  7  1  0
  7  8  1  0
  8  9  1  0
  9 10  1  0
 10 11  1  0
 11 12  1  0
 12 13  1  0
 13 14  2  0
 14 15  1  0
 15 16  1  0
 16 17  2  0
 16 18  2  0
 16 19  1  0
 19 20  2  0
 20 21  1  0
 21 22  2  0
 22 23  1  0
 23 24  1  0
 23 25  2  0
 15 26  2  0
 26 27  1  0
 27 28  2  0
 28  9  1  0
 28 13  1  0
 25 19  1  0
  1 29  1  0
  1 30  1  0
  1 31  1  0
  3 32  1  0
  3 33  1  0
  3 34  1  0
  4 35  1  0
  7 36  1  0
  8 37  1  0
  8 38  1  0
  9 39  1  1
 10 40  1  0
 10 41  1  0
 11 42  1  0
 11 43  1  0
 12 44  1  0
 12 45  1  0
 14 46  1  0
 20 47  1  0
 21 48  1  0
 22 49  1  0
 25 50  1  0
 26 51  1  0
 27 52  1  0
M  END
>  <meeko>  (4) 
{"is_sidechain": [false], "free_energy": -7.484, "intermolecular_energy": -9.568, "internal_energy": -1.294}

$$$$
LIB_NRUFFLBVZNYLIC__M_PUB_ALL__e8__s20260927
     RDKit          3D

 52 54  0  0  0  0  0  0  0  0999 V2000
    7.5110  -16.1000   -7.5860 C   0  0  0  0  0  0  0  0  0  0  0  0
    7.2180  -14.8000   -6.8410 C   0  0  0  0  0  0  0  0  0  0  0  0
    6.5750  -13.7760   -7.7750 C   0  0  0  0  0  0  0  0  0  0  0  0
    8.4550  -14.2410   -6.3790 O   0  0  0  0  0  0  0  0  0  0  0  0
    6.2760  -15.0490   -5.6370 C   0  0  0  0  0  0  0  0  0  0  0  0
    6.4770  -15.8990   -4.7770 O   0  0  0  0  0  0  0  0  0  0  0  0
    5.1630  -14.2330   -5.6480 N   0  0  0  0  0  0  0  0  0  0  0  0
    4.1300  -14.3100   -4.6330 C   0  0  0  0  0  0  0  0  0  0  0  0
    3.1410  -13.1190   -4.6760 C   0  0  2  0  0  0  0  0  0  0  0  0
    3.8660  -11.8850   -5.2600 C   0  0  0  0  0  0  0  0  0  0  0  0
    3.0690  -10.6090   -5.0460 C   0  0  0  0  0  0  0  0  0  0  0  0
    2.9350  -10.3370   -3.5540 C   0  0  0  0  0  0  0  0  0  0  0  0
    2.3910  -11.5290   -2.8050 C   0  0  0  0  0  0  0  0  0  0  0  0
    1.7970  -11.3110   -1.5520 C   0  0  0  0  0  0  0  0  0  0  0  0
    1.2540  -12.3810   -0.8390 C   0  0  0  0  0  0  0  0  0  0  0  0
    0.4960  -12.0780    0.7390 S   0  0  0  0  0  0  0  0  0  0  0  0
    1.0020  -10.8030    1.2130 O   0  0  0  0  0  0  0  0  0  0  0  0
    0.6450  -13.2750    1.5480 O   0  0  0  0  0  0  0  0  0  0  0  0
   -1.2430  -11.8890    0.4260 C   0  0  0  0  0  0  0  0  0  0  0  0
   -1.7770  -10.6190    0.1770 C   0  0  0  0  0  0  0  0  0  0  0  0
   -3.1460  -10.4830   -0.0600 C   0  0  0  0  0  0  0  0  0  0  0  0
   -3.9700  -11.6090   -0.0410 C   0  0  0  0  0  0  0  0  0  0  0  0
   -3.4220  -12.8630    0.2210 C   0  0  0  0  0  0  0  0  0  0  0  0
   -4.2210  -13.9370    0.2440 F   0  0  0  0  0  0  0  0  0  0  0  0
   -2.0630  -13.0180    0.4610 C   0  0  0  0  0  0  0  0  0  0  0  0
    1.3090  -13.6740   -1.3510 C   0  0  0  0  0  0  0  0  0  0  0  0
    1.9120  -13.8950   -2.5890 C   0  0  0  0  0  0  0  0  0  0  0  0
    2.4920  -12.8390   -3.3190 C   0  0  0  0  0  0  0  0  0  0  0  0
    7.6926  -16.9059   -6.8597 H   0  0  0  0  0  0  0  0  0  0  0  0
    6.6496  -16.3628   -8.2175 H   0  0  0  0  0  0  0  0  0  0  0  0
    8.4019  -15.9679   -8.2175 H   0  0  0  0  0  0  0  0  0  0  0  0
    6.0835  -12.9933   -7.1784 H   0  0  0  0  0  0  0  0  0  0  0  0
    7.3499  -13.3211   -8.4095 H   0  0  0  0  0  0  0  0  0  0  0  0
    5.8286  -14.2763   -8.4095 H   0  0  0  0  0  0  0  0  0  0  0  0
    8.2330  -13.6220   -5.6600 H   0  0  0  0  0  0  0  0  0  0  0  0
    5.1100  -13.5270   -6.3770 H   0  0  0  0  0  0  0  0  0  0  0  0
    3.5628  -15.2407   -4.7816 H   0  0  0  0  0  0  0  0  0  0  0  0
    4.6314  -14.2828   -3.6543 H   0  0  0  0  0  0  0  0  0  0  0  0
    2.3007  -13.3800   -5.3361 H   0  0  0  0  0  0  0  0  0  0  0  0
    4.8442  -11.7807   -4.7678 H   0  0  0  0  0  0  0  0  0  0  0  0
    3.9829  -12.0377   -6.3431 H   0  0  0  0  0  0  0  0  0  0  0  0
    3.5890   -9.7672   -5.5267 H   0  0  0  0  0  0  0  0  0  0  0  0
    2.0685  -10.7237   -5.4886 H   0  0  0  0  0  0  0  0  0  0  0  0
    3.9265  -10.0862   -3.1490 H   0  0  0  0  0  0  0  0  0  0  0  0
    2.2279   -9.5045   -3.4242 H   0  0  0  0  0  0  0  0  0  0  0  0
    1.7594  -10.2953   -1.1314 H   0  0  0  0  0  0  0  0  0  0  0  0
   -1.1227   -9.7348    0.1682 H   0  0  0  0  0  0  0  0  0  0  0  0
   -3.5744   -9.4901   -0.2614 H   0  0  0  0  0  0  0  0  0  0  0  0
   -5.0484  -11.5070   -0.2322 H   0  0  0  0  0  0  0  0  0  0  0  0
   -1.6410  -14.0111    0.6745 H   0  0  0  0  0  0  0  0  0  0  0  0
    0.8808  -14.5140   -0.7844 H   0  0  0  0  0  0  0  0  0  0  0  0
    1.9351  -14.9137   -3.0035 H   0  0  0  0  0  0  0  0  0  0  0  0
  1  2  1  0
  2  3  1  0
  2  4  1  0
  2  5  1  0
  5  6  2  0
  5  7  1  0
  7  8  1  0
  8  9  1  0
  9 10  1  0
 10 11  1  0
 11 12  1  0
 12 13  1  0
 13 14  2  0
 14 15  1  0
 15 16  1  0
 16 17  2  0
 16 18  2  0
 16 19  1  0
 19 20  2  0
 20 21  1  0
 21 22  2  0
 22 23  1  0
 23 24  1  0
 23 25  2  0
 15 26  2  0
 26 27  1  0
 27 28  2  0
 28  9  1  0
 28 13  1  0
 25 19  1  0
  1 29  1  0
  1 30  1  0
  1 31  1  0
  3 32  1  0
  3 33  1  0
  3 34  1  0
  4 35  1  0
  7 36  1  0
  8 37  1  0
  8 38  1  0
  9 39  1  6
 10 40  1  0
 10 41  1  0
 11 42  1  0
 11 43  1  0
 12 44  1  0
 12 45  1  0
 14 46  1  0
 20 47  1  0
 21 48  1  0
 22 49  1  0
 25 50  1  0
 26 51  1  0
 27 52  1  0
M  END
>  <meeko>  (5) 
{"is_sidechain": [false], "free_energy": -7.458, "intermolecular_energy": -9.957, "internal_energy": -0.872}

$$$$
LIB_NRUFFLBVZNYLIC__M_PUB_ALL__e8__s20260927
     RDKit          3D

 52 54  0  0  0  0  0  0  0  0999 V2000
  -15.4120   -6.1500   -3.8340 C   0  0  0  0  0  0  0  0  0  0  0  0
  -14.2100   -6.5680   -2.9910 C   0  0  0  0  0  0  0  0  0  0  0  0
  -14.6500   -7.4450   -1.8200 C   0  0  0  0  0  0  0  0  0  0  0  0
  -13.5980   -5.3940   -2.4400 O   0  0  0  0  0  0  0  0  0  0  0  0
  -13.1760   -7.3440   -3.8440 C   0  0  0  0  0  0  0  0  0  0  0  0
  -11.9750   -7.3780   -3.5970 O   0  0  0  0  0  0  0  0  0  0  0  0
  -13.7420   -7.9740   -4.9340 N   0  0  0  0  0  0  0  0  0  0  0  0
  -12.9600   -8.7360   -5.8870 C   0  0  0  0  0  0  0  0  0  0  0  0
  -13.7400   -9.0840   -7.1790 C   0  0  2  0  0  0  0  0  0  0  0  0
  -15.2320   -8.7390   -6.9730 C   0  0  0  0  0  0  0  0  0  0  0  0
  -16.1050   -9.3350   -8.0650 C   0  0  0  0  0  0  0  0  0  0  0  0
  -16.0250  -10.8540   -8.0070 C   0  0  0  0  0  0  0  0  0  0  0  0
  -14.6000  -11.3500   -8.0260 C   0  0  0  0  0  0  0  0  0  0  0  0
  -14.3630  -12.6750   -8.4270 C   0  0  0  0  0  0  0  0  0  0  0  0
  -13.0580  -13.1650   -8.4880 C   0  0  0  0  0  0  0  0  0  0  0  0
  -12.7830  -14.8410   -9.0090 S   0  0  0  0  0  0  0  0  0  0  0  0
  -12.6040  -14.8120  -10.4490 O   0  0  0  0  0  0  0  0  0  0  0  0
  -13.8140  -15.6720   -8.4140 O   0  0  0  0  0  0  0  0  0  0  0  0
  -11.2410  -15.3410   -8.2810 C   0  0  0  0  0  0  0  0  0  0  0  0
  -11.2250  -15.9510   -7.0220 C   0  0  0  0  0  0  0  0  0  0  0  0
  -10.0060  -16.3330   -6.4580 C   0  0  0  0  0  0  0  0  0  0  0  0
   -8.8170  -16.0990   -7.1500 C   0  0  0  0  0  0  0  0  0  0  0  0
   -8.8530  -15.4790   -8.3970 C   0  0  0  0  0  0  0  0  0  0  0  0
   -7.7060  -15.2520   -9.0500 F   0  0  0  0  0  0  0  0  0  0  0  0
  -10.0550  -15.0910   -8.9720 C   0  0  0  0  0  0  0  0  0  0  0  0
  -11.9800  -12.3560   -8.1400 C   0  0  0  0  0  0  0  0  0  0  0  0
  -12.2150  -11.0440   -7.7270 C   0  0  0  0  0  0  0  0  0  0  0  0
  -13.5230  -10.5300   -7.6300 C   0  0  0  0  0  0  0  0  0  0  0  0
  -16.2417   -5.8615   -3.1719 H   0  0  0  0  0  0  0  0  0  0  0  0
  -15.1352   -5.2953   -4.4688 H   0  0  0  0  0  0  0  0  0  0  0  0
  -15.7253   -6.9920   -4.4688 H   0  0  0  0  0  0  0  0  0  0  0  0
  -14.3991   -6.9450   -0.8729 H   0  0  0  0  0  0  0  0  0  0  0  0
  -15.7366   -7.6080   -1.8720 H   0  0  0  0  0  0  0  0  0  0  0  0
  -14.1311   -8.4135   -1.8720 H   0  0  0  0  0  0  0  0  0  0  0  0
  -14.0100   -5.2430   -1.5700 H   0  0  0  0  0  0  0  0  0  0  0  0
  -14.7530   -7.9270   -5.0260 H   0  0  0  0  0  0  0  0  0  0  0  0
  -12.0734   -8.1460   -6.1624 H   0  0  0  0  0  0  0  0  0  0  0  0
  -12.6909   -9.6862   -5.4025 H   0  0  0  0  0  0  0  0  0  0  0  0
  -13.3468   -8.4736   -8.0053 H   0  0  0  0  0  0  0  0  0  0  0  0
  -15.5582   -9.1356   -6.0002 H   0  0  0  0  0  0  0  0  0  0  0  0
  -15.3381   -7.6447   -7.0095 H   0  0  0  0  0  0  0  0  0  0  0  0
  -17.1473   -9.0169   -7.9155 H   0  0  0  0  0  0  0  0  0  0  0  0
  -15.7523   -8.9868   -9.0470 H   0  0  0  0  0  0  0  0  0  0  0  0
  -16.5081  -11.1992   -7.0810 H   0  0  0  0  0  0  0  0  0  0  0  0
  -16.5339  -11.2536   -8.8966 H   0  0  0  0  0  0  0  0  0  0  0  0
  -15.2076  -13.3275   -8.6934 H   0  0  0  0  0  0  0  0  0  0  0  0
  -12.1658  -16.1284   -6.4804 H   0  0  0  0  0  0  0  0  0  0  0  0
   -9.9831  -16.8172   -5.4706 H   0  0  0  0  0  0  0  0  0  0  0  0
   -7.8547  -16.4030   -6.7124 H   0  0  0  0  0  0  0  0  0  0  0  0
  -10.0723  -14.5957   -9.9540 H   0  0  0  0  0  0  0  0  0  0  0  0
  -10.9531  -12.7471   -8.1901 H   0  0  0  0  0  0  0  0  0  0  0  0
  -11.3618  -10.3982   -7.4721 H   0  0  0  0  0  0  0  0  0  0  0  0
  1  2  1  0
  2  3  1  0
  2  4  1  0
  2  5  1  0
  5  6  2  0
  5  7  1  0
  7  8  1  0
  8  9  1  0
  9 10  1  0
 10 11  1  0
 11 12  1  0
 12 13  1  0
 13 14  2  0
 14 15  1  0
 15 16  1  0
 16 17  2  0
 16 18  2  0
 16 19  1  0
 19 20  2  0
 20 21  1  0
 21 22  2  0
 22 23  1  0
 23 24  1  0
 23 25  2  0
 15 26  2  0
 26 27  1  0
 27 28  2  0
 28  9  1  0
 28 13  1  0
 25 19  1  0
  1 29  1  0
  1 30  1  0
  1 31  1  0
  3 32  1  0
  3 33  1  0
  3 34  1  0
  4 35  1  0
  7 36  1  0
  8 37  1  0
  8 38  1  0
  9 39  1  6
 10 40  1  0
 10 41  1  0
 11 42  1  0
 11 43  1  0
 12 44  1  0
 12 45  1  0
 14 46  1  0
 20 47  1  0
 21 48  1  0
 22 49  1  0
 25 50  1  0
 26 51  1  0
 27 52  1  0
M  END
>  <meeko>  (6) 
{"is_sidechain": [false], "free_energy": -7.343, "intermolecular_energy": -9.902, "internal_energy": -0.775}

$$$$
LIB_NRUFFLBVZNYLIC__M_PUB_ALL__e8__s20260927
     RDKit          3D

 52 54  0  0  0  0  0  0  0  0999 V2000
    7.1610   -7.5710   14.1270 C   0  0  0  0  0  0  0  0  0  0  0  0
    8.5340   -7.0400   13.7230 C   0  0  0  0  0  0  0  0  0  0  0  0
    8.8780   -5.7770   14.5110 C   0  0  0  0  0  0  0  0  0  0  0  0
    8.5030   -6.6830   12.3340 O   0  0  0  0  0  0  0  0  0  0  0  0
    9.6330   -8.1030   13.9650 C   0  0  0  0  0  0  0  0  0  0  0  0
    9.4170   -9.3090   14.0220 O   0  0  0  0  0  0  0  0  0  0  0  0
   10.8860   -7.5500   14.1420 N   0  0  0  0  0  0  0  0  0  0  0  0
   12.0620   -8.3550   14.4100 C   0  0  0  0  0  0  0  0  0  0  0  0
   12.8990   -8.6550   13.1420 C   0  0  2  0  0  0  0  0  0  0  0  0
   12.7840  -10.1590   12.8090 C   0  0  0  0  0  0  0  0  0  0  0  0
   13.8150  -10.5890   11.7780 C   0  0  0  0  0  0  0  0  0  0  0  0
   15.2140  -10.4020   12.3480 C   0  0  0  0  0  0  0  0  0  0  0  0
   15.4290   -9.0070   12.8810 C   0  0  0  0  0  0  0  0  0  0  0  0
   16.7480   -8.5430   13.0160 C   0  0  0  0  0  0  0  0  0  0  0  0
   16.9910   -7.2480   13.4760 C   0  0  0  0  0  0  0  0  0  0  0  0
   18.6670   -6.6810   13.6270 S   0  0  0  0  0  0  0  0  0  0  0  0
   19.4310   -7.7690   14.2110 O   0  0  0  0  0  0  0  0  0  0  0  0
   18.6460   -5.3750   14.2620 O   0  0  0  0  0  0  0  0  0  0  0  0
   19.2580   -6.4310   11.9700 C   0  0  0  0  0  0  0  0  0  0  0  0
   19.3230   -7.5080   11.0780 C   0  0  0  0  0  0  0  0  0  0  0  0
   19.7950   -7.3000    9.7820 C   0  0  0  0  0  0  0  0  0  0  0  0
   20.2040   -6.0250    9.3870 C   0  0  0  0  0  0  0  0  0  0  0  0
   20.1440   -4.9690   10.2930 C   0  0  0  0  0  0  0  0  0  0  0  0
   20.5440   -3.7510    9.9070 F   0  0  0  0  0  0  0  0  0  0  0  0
   19.6780   -5.1570   11.5870 C   0  0  0  0  0  0  0  0  0  0  0  0
   15.9360   -6.4090   13.8210 C   0  0  0  0  0  0  0  0  0  0  0  0
   14.6260   -6.8730   13.7020 C   0  0  0  0  0  0  0  0  0  0  0  0
   14.3500   -8.1830   13.2650 C   0  0  0  0  0  0  0  0  0  0  0  0
    7.0872   -7.5995   15.2242 H   0  0  0  0  0  0  0  0  0  0  0  0
    6.3792   -6.9104   13.7240 H   0  0  0  0  0  0  0  0  0  0  0  0
    7.0272   -8.5857   13.7240 H   0  0  0  0  0  0  0  0  0  0  0  0
    8.8200   -5.9900   15.5886 H   0  0  0  0  0  0  0  0  0  0  0  0
    9.8974   -5.4519   14.2558 H   0  0  0  0  0  0  0  0  0  0  0  0
    8.1643   -4.9798   14.2558 H   0  0  0  0  0  0  0  0  0  0  0  0
    7.6890   -6.1660   12.1940 H   0  0  0  0  0  0  0  0  0  0  0  0
   10.9710   -6.5440   14.0280 H   0  0  0  0  0  0  0  0  0  0  0  0
   12.6974   -7.8169   15.1289 H   0  0  0  0  0  0  0  0  0  0  0  0
   11.7136   -9.3199   14.8071 H   0  0  0  0  0  0  0  0  0  0  0  0
   12.4896   -8.0752   12.3016 H   0  0  0  0  0  0  0  0  0  0  0  0
   12.9375  -10.7404   13.7301 H   0  0  0  0  0  0  0  0  0  0  0  0
   11.7838  -10.3408   12.3889 H   0  0  0  0  0  0  0  0  0  0  0  0
   13.6609  -11.6485   11.5257 H   0  0  0  0  0  0  0  0  0  0  0  0
   13.7041   -9.9754   10.8718 H   0  0  0  0  0  0  0  0  0  0  0  0
   15.3621  -11.1212   13.1670 H   0  0  0  0  0  0  0  0  0  0  0  0
   15.9357  -10.5683   11.5347 H   0  0  0  0  0  0  0  0  0  0  0  0
   17.5907   -9.2015   12.7587 H   0  0  0  0  0  0  0  0  0  0  0  0
   19.0041   -8.5113   11.3969 H   0  0  0  0  0  0  0  0  0  0  0  0
   19.8449   -8.1391    9.0725 H   0  0  0  0  0  0  0  0  0  0  0  0
   20.5721   -5.8552    8.3644 H   0  0  0  0  0  0  0  0  0  0  0  0
   19.6406   -4.3175   12.2968 H   0  0  0  0  0  0  0  0  0  0  0  0
   16.1332   -5.3896   14.1841 H   0  0  0  0  0  0  0  0  0  0  0  0
   13.7916   -6.2021   13.9546 H   0  0  0  0  0  0  0  0  0  0  0  0
  1  2  1  0
  2  3  1  0
  2  4  1  0
  2  5  1  0
  5  6  2  0
  5  7  1  0
  7  8  1  0
  8  9  1  0
  9 10  1  0
 10 11  1  0
 11 12  1  0
 12 13  1  0
 13 14  2  0
 14 15  1  0
 15 16  1  0
 16 17  2  0
 16 18  2  0
 16 19  1  0
 19 20  2  0
 20 21  1  0
 21 22  2  0
 22 23  1  0
 23 24  1  0
 23 25  2  0
 15 26  2  0
 26 27  1  0
 27 28  2  0
 28  9  1  0
 28 13  1  0
 25 19  1  0
  1 29  1  0
  1 30  1  0
  1 31  1  0
  3 32  1  0
  3 33  1  0
  3 34  1  0
  4 35  1  0
  7 36  1  0
  8 37  1  0
  8 38  1  0
  9 39  1  6
 10 40  1  0
 10 41  1  0
 11 42  1  0
 11 43  1  0
 12 44  1  0
 12 45  1  0
 14 46  1  0
 20 47  1  0
 21 48  1  0
 22 49  1  0
 25 50  1  0
 26 51  1  0
 27 52  1  0
M  END
>  <meeko>  (7) 
{"is_sidechain": [false], "free_energy": -7.296, "intermolecular_energy": -9.868, "internal_energy": -0.746}

$$$$
LIB_NRUFFLBVZNYLIC__M_PUB_ALL__e8__s20260927
     RDKit          3D

 52 54  0  0  0  0  0  0  0  0999 V2000
    7.8540  -14.8160   -1.3080 C   0  0  0  0  0  0  0  0  0  0  0  0
    6.4730  -14.3650   -0.8380 C   0  0  0  0  0  0  0  0  0  0  0  0
    6.3990  -12.8400   -0.7690 C   0  0  0  0  0  0  0  0  0  0  0  0
    6.2470  -14.8650    0.4860 O   0  0  0  0  0  0  0  0  0  0  0  0
    5.3660  -14.8830   -1.7890 C   0  0  0  0  0  0  0  0  0  0  0  0
    4.7600  -15.9360   -1.6210 O   0  0  0  0  0  0  0  0  0  0  0  0
    5.1490  -14.0490   -2.8670 N   0  0  0  0  0  0  0  0  0  0  0  0
    4.1770  -14.3480   -3.9010 C   0  0  0  0  0  0  0  0  0  0  0  0
    3.1520  -13.2080   -4.1250 C   0  0  2  0  0  0  0  0  0  0  0  0
    3.8760  -12.0000   -4.7620 C   0  0  0  0  0  0  0  0  0  0  0  0
    3.0200  -10.7460   -4.7230 C   0  0  0  0  0  0  0  0  0  0  0  0
    2.7610  -10.3500   -3.2760 C   0  0  0  0  0  0  0  0  0  0  0  0
    2.2040  -11.4940   -2.4650 C   0  0  0  0  0  0  0  0  0  0  0  0
    1.5060  -11.1930   -1.2840 C   0  0  0  0  0  0  0  0  0  0  0  0
    0.9480  -12.2190   -0.5200 C   0  0  0  0  0  0  0  0  0  0  0  0
    0.0600  -11.8120    0.9640 S   0  0  0  0  0  0  0  0  0  0  0  0
    0.3830  -10.4340    1.2850 O   0  0  0  0  0  0  0  0  0  0  0  0
    0.2940  -12.8670    1.9330 O   0  0  0  0  0  0  0  0  0  0  0  0
   -1.6660  -11.8800    0.5440 C   0  0  0  0  0  0  0  0  0  0  0  0
   -2.3480  -13.1010    0.5770 C   0  0  0  0  0  0  0  0  0  0  0  0
   -3.7020  -13.1420    0.2380 C   0  0  0  0  0  0  0  0  0  0  0  0
   -4.3600  -11.9700   -0.1350 C   0  0  0  0  0  0  0  0  0  0  0  0
   -3.6610  -10.7660   -0.1740 C   0  0  0  0  0  0  0  0  0  0  0  0
   -4.2990   -9.6470   -0.5400 F   0  0  0  0  0  0  0  0  0  0  0  0
   -2.3140  -10.7060    0.1580 C   0  0  0  0  0  0  0  0  0  0  0  0
    1.0890  -13.5490   -0.9070 C   0  0  0  0  0  0  0  0  0  0  0  0
    1.7940  -13.8500   -2.0720 C   0  0  0  0  0  0  0  0  0  0  0  0
    2.3910  -12.8390   -2.8500 C   0  0  0  0  0  0  0  0  0  0  0  0
    8.4891  -15.0234   -0.4341 H   0  0  0  0  0  0  0  0  0  0  0  0
    7.7551  -15.7285   -1.9142 H   0  0  0  0  0  0  0  0  0  0  0  0
    8.3127  -14.0210   -1.9142 H   0  0  0  0  0  0  0  0  0  0  0  0
    6.3835  -12.5209    0.2836 H   0  0  0  0  0  0  0  0  0  0  0  0
    7.2772  -12.4072   -1.2705 H   0  0  0  0  0  0  0  0  0  0  0  0
    5.4830  -12.4943   -1.2705 H   0  0  0  0  0  0  0  0  0  0  0  0
    5.4420  -15.4130    0.4470 H   0  0  0  0  0  0  0  0  0  0  0  0
    5.6670  -13.1750   -2.8920 H   0  0  0  0  0  0  0  0  0  0  0  0
    4.7140  -14.5254   -4.8445 H   0  0  0  0  0  0  0  0  0  0  0  0
    3.6134  -15.2338   -3.5727 H   0  0  0  0  0  0  0  0  0  0  0  0
    2.3753  -13.5603   -4.8197 H   0  0  0  0  0  0  0  0  0  0  0  0
    4.8087  -11.8120   -4.2099 H   0  0  0  0  0  0  0  0  0  0  0  0
    4.0824  -12.2410   -5.8152 H   0  0  0  0  0  0  0  0  0  0  0  0
    3.5450   -9.9281   -5.2381 H   0  0  0  0  0  0  0  0  0  0  0  0
    2.0613  -10.9420   -5.2256 H   0  0  0  0  0  0  0  0  0  0  0  0
    3.7083  -10.0224   -2.8230 H   0  0  0  0  0  0  0  0  0  0  0  0
    2.0166   -9.5401   -3.2747 H   0  0  0  0  0  0  0  0  0  0  0  0
    1.3990  -10.1470   -0.9607 H   0  0  0  0  0  0  0  0  0  0  0  0
   -1.8215  -14.0220    0.8679 H   0  0  0  0  0  0  0  0  0  0  0  0
   -4.2484  -14.0963    0.2650 H   0  0  0  0  0  0  0  0  0  0  0  0
   -5.4279  -11.9966   -0.3976 H   0  0  0  0  0  0  0  0  0  0  0  0
   -1.7684   -9.7517    0.1175 H   0  0  0  0  0  0  0  0  0  0  0  0
    0.6489  -14.3540   -0.3001 H   0  0  0  0  0  0  0  0  0  0  0  0
    1.8858  -14.8990   -2.3900 H   0  0  0  0  0  0  0  0  0  0  0  0
  1  2  1  0
  2  3  1  0
  2  4  1  0
  2  5  1  0
  5  6  2  0
  5  7  1  0
  7  8  1  0
  8  9  1  0
  9 10  1  0
 10 11  1  0
 11 12  1  0
 12 13  1  0
 13 14  2  0
 14 15  1  0
 15 16  1  0
 16 17  2  0
 16 18  2  0
 16 19  1  0
 19 20  2  0
 20 21  1  0
 21 22  2  0
 22 23  1  0
 23 24  1  0
 23 25  2  0
 15 26  2  0
 26 27  1  0
 27 28  2  0
 28  9  1  0
 28 13  1  0
 25 19  1  0
  1 29  1  0
  1 30  1  0
  1 31  1  0
  3 32  1  0
  3 33  1  0
  3 34  1  0
  4 35  1  0
  7 36  1  0
  8 37  1  0
  8 38  1  0
  9 39  1  6
 10 40  1  0
 10 41  1  0
 11 42  1  0
 11 43  1  0
 12 44  1  0
 12 45  1  0
 14 46  1  0
 20 47  1  0
 21 48  1  0
 22 49  1  0
 25 50  1  0
 26 51  1  0
 27 52  1  0
M  END
>  <meeko>  (8) 
{"is_sidechain": [false], "free_energy": -7.128, "intermolecular_energy": -9.258, "internal_energy": -1.134}

$$$$
LIB_NRUFFLBVZNYLIC__M_PUB_ALL__e8__s20260927
     RDKit          3D

 52 54  0  0  0  0  0  0  0  0999 V2000
   10.1700  -14.1660   -1.5320 C   0  0  0  0  0  0  0  0  0  0  0  0
    9.6990  -12.7140   -1.5310 C   0  0  0  0  0  0  0  0  0  0  0  0
    9.3500  -12.2600   -2.9480 C   0  0  0  0  0  0  0  0  0  0  0  0
   10.7680  -11.8800   -1.0650 O   0  0  0  0  0  0  0  0  0  0  0  0
    8.4600  -12.5330   -0.6210 C   0  0  0  0  0  0  0  0  0  0  0  0
    8.4920  -12.6170    0.6020 O   0  0  0  0  0  0  0  0  0  0  0  0
    7.3000  -12.2950   -1.3320 N   0  0  0  0  0  0  0  0  0  0  0  0
    6.0130  -12.1210   -0.6880 C   0  0  0  0  0  0  0  0  0  0  0  0
    4.8170  -12.4590   -1.6130 C   0  0  2  0  0  0  0  0  0  0  0  0
    4.7430  -11.4080   -2.7440 C   0  0  0  0  0  0  0  0  0  0  0  0
    3.4280  -11.4860   -3.5000 C   0  0  0  0  0  0  0  0  0  0  0  0
    2.2790  -11.1540   -2.5590 C   0  0  0  0  0  0  0  0  0  0  0  0
    2.3110  -11.9930   -1.3050 C   0  0  0  0  0  0  0  0  0  0  0  0
    1.1220  -12.1370   -0.5720 C   0  0  0  0  0  0  0  0  0  0  0  0
    1.1000  -12.9290    0.5780 C   0  0  0  0  0  0  0  0  0  0  0  0
   -0.4190  -13.1060    1.4810 S   0  0  0  0  0  0  0  0  0  0  0  0
   -0.0640  -13.2530    2.8810 O   0  0  0  0  0  0  0  0  0  0  0  0
   -1.2230  -14.1170    0.8170 O   0  0  0  0  0  0  0  0  0  0  0  0
   -1.2860  -11.5660    1.3010 C   0  0  0  0  0  0  0  0  0  0  0  0
   -0.9170  -10.4580    2.0720 C   0  0  0  0  0  0  0  0  0  0  0  0
   -1.6110   -9.2560    1.9260 C   0  0  0  0  0  0  0  0  0  0  0  0
   -2.6680   -9.1690    1.0190 C   0  0  0  0  0  0  0  0  0  0  0  0
   -3.0290  -10.2860    0.2690 C   0  0  0  0  0  0  0  0  0  0  0  0
   -4.0480  -10.1960   -0.5940 F   0  0  0  0  0  0  0  0  0  0  0  0
   -2.3510  -11.4910    0.4020 C   0  0  0  0  0  0  0  0  0  0  0  0
    2.2540  -13.5690    1.0200 C   0  0  0  0  0  0  0  0  0  0  0  0
    3.4400  -13.4140    0.3010 C   0  0  0  0  0  0  0  0  0  0  0  0
    3.4990  -12.6010   -0.8480 C   0  0  0  0  0  0  0  0  0  0  0  0
   10.2833  -14.5154   -0.4951 H   0  0  0  0  0  0  0  0  0  0  0  0
    9.4287  -14.7916   -2.0508 H   0  0  0  0  0  0  0  0  0  0  0  0
   11.1374  -14.2373   -2.0508 H   0  0  0  0  0  0  0  0  0  0  0  0
    8.6803  -11.3888   -2.8994 H   0  0  0  0  0  0  0  0  0  0  0  0
   10.2713  -11.9849   -3.4822 H   0  0  0  0  0  0  0  0  0  0  0  0
    8.8472  -13.0796   -3.4822 H   0  0  0  0  0  0  0  0  0  0  0  0
   10.3590  -11.1610   -0.5490 H   0  0  0  0  0  0  0  0  0  0  0  0
    7.3840  -12.1940   -2.3400 H   0  0  0  0  0  0  0  0  0  0  0  0
    5.9708  -12.7790    0.1925 H   0  0  0  0  0  0  0  0  0  0  0  0
    5.9251  -11.0591   -0.4148 H   0  0  0  0  0  0  0  0  0  0  0  0
    4.9855  -13.4490   -2.0619 H   0  0  0  0  0  0  0  0  0  0  0  0
    4.8424  -10.4044   -2.3048 H   0  0  0  0  0  0  0  0  0  0  0  0
    5.5585  -11.6109   -3.4538 H   0  0  0  0  0  0  0  0  0  0  0  0
    3.4402  -10.7659   -4.3315 H   0  0  0  0  0  0  0  0  0  0  0  0
    3.2938  -12.5032   -3.8965 H   0  0  0  0  0  0  0  0  0  0  0  0
    2.3466  -10.0928   -2.2774 H   0  0  0  0  0  0  0  0  0  0  0  0
    1.3374  -11.3683   -3.0857 H   0  0  0  0  0  0  0  0  0  0  0  0
    0.2067  -11.6253   -0.9041 H   0  0  0  0  0  0  0  0  0  0  0  0
   -0.0856  -10.5339    2.7883 H   0  0  0  0  0  0  0  0  0  0  0  0
   -1.3253   -8.3786    2.5249 H   0  0  0  0  0  0  0  0  0  0  0  0
   -3.2140   -8.2220    0.8968 H   0  0  0  0  0  0  0  0  0  0  0  0
   -2.6478  -12.3694   -0.1899 H   0  0  0  0  0  0  0  0  0  0  0  0
    2.2316  -14.1909    1.9271 H   0  0  0  0  0  0  0  0  0  0  0  0
    4.3470  -13.9371    0.6382 H   0  0  0  0  0  0  0  0  0  0  0  0
  1  2  1  0
  2  3  1  0
  2  4  1  0
  2  5  1  0
  5  6  2  0
  5  7  1  0
  7  8  1  0
  8  9  1  0
  9 10  1  0
 10 11  1  0
 11 12  1  0
 12 13  1  0
 13 14  2  0
 14 15  1  0
 15 16  1  0
 16 17  2  0
 16 18  2  0
 16 19  1  0
 19 20  2  0
 20 21  1  0
 21 22  2  0
 22 23  1  0
 23 24  1  0
 23 25  2  0
 15 26  2  0
 26 27  1  0
 27 28  2  0
 28  9  1  0
 28 13  1  0
 25 19  1  0
  1 29  1  0
  1 30  1  0
  1 31  1  0
  3 32  1  0
  3 33  1  0
  3 34  1  0
  4 35  1  0
  7 36  1  0
  8 37  1  0
  8 38  1  0
  9 39  1  6
 10 40  1  0
 10 41  1  0
 11 42  1  0
 11 43  1  0
 12 44  1  0
 12 45  1  0
 14 46  1  0
 20 47  1  0
 21 48  1  0
 22 49  1  0
 25 50  1  0
 26 51  1  0
 27 52  1  0
M  END
>  <meeko>  (9) 
{"is_sidechain": [false], "free_energy": -7.065, "intermolecular_energy": -9.47, "internal_energy": -0.838}

$$$$
