LIB_QZHQGKPLHXJZRJ__M_PUB_ALL__e8__s20260927
     RDKit          3D

 45 47  0  0  0  0  0  0  0  0999 V2000
   13.1160  -10.3870   15.1820 O   0  0  0  0  0  0  0  0  0  0  0  0
   12.3460  -10.6410   14.2630 C   0  0  0  0  0  0  0  0  0  0  0  0
   11.1450   -9.9750   14.1140 N   0  0  0  0  0  0  0  0  0  0  0  0
   10.6610   -9.0400   15.1140 C   0  0  0  0  0  0  0  0  0  0  0  0
   10.0520   -7.7440   14.5400 C   0  0  0  0  0  0  0  0  0  0  0  0
   10.8540   -7.3140   13.5160 F   0  0  0  0  0  0  0  0  0  0  0  0
    8.6790   -8.0400   13.9280 C   0  0  0  0  0  0  0  0  0  0  0  0
    8.0700   -6.7870   13.3240 C   0  0  0  0  0  0  0  0  0  0  0  0
    8.0010   -5.7170   14.3590 N   0  0  0  0  0  0  0  0  0  0  0  0
    9.3320   -5.3650   14.9350 C   0  0  0  0  0  0  0  0  0  0  0  0
    9.9590   -6.6000   15.5500 C   0  0  0  0  0  0  0  0  0  0  0  0
   12.6730  -11.6630   13.2340 C   0  0  0  0  0  0  0  0  0  0  0  0
   12.0060  -12.8940   13.2730 C   0  0  0  0  0  0  0  0  0  0  0  0
   11.0510  -13.1280   14.1860 F   0  0  0  0  0  0  0  0  0  0  0  0
   12.3090  -13.9090   12.3710 C   0  0  0  0  0  0  0  0  0  0  0  0
   13.2940  -13.7040   11.4120 C   0  0  0  0  0  0  0  0  0  0  0  0
   13.9640  -12.4790   11.3550 C   0  0  0  0  0  0  0  0  0  0  0  0
   13.6680  -11.4360   12.2580 C   0  0  0  0  0  0  0  0  0  0  0  0
   14.3740  -10.1550   12.1050 C   0  0  0  0  0  0  0  0  0  0  0  0
   13.7440   -9.0510   11.5070 C   0  0  0  0  0  0  0  0  0  0  0  0
   14.4170   -7.8350   11.3570 C   0  0  0  0  0  0  0  0  0  0  0  0
   15.7330   -7.7080   11.7980 C   0  0  0  0  0  0  0  0  0  0  0  0
   16.3660   -8.7960   12.3930 C   0  0  0  0  0  0  0  0  0  0  0  0
   18.0070   -8.6630   12.8980 Cl  0  0  0  0  0  0  0  0  0  0  0  0
   15.6920  -10.0040   12.5620 C   0  0  0  0  0  0  0  0  0  0  0  0
   10.5240  -10.2330   13.3520 H   0  0  0  0  0  0  0  0  0  0  0  0
    9.8890   -9.5464   15.7120 H   0  0  0  0  0  0  0  0  0  0  0  0
   11.5364   -8.7370   15.7071 H   0  0  0  0  0  0  0  0  0  0  0  0
    8.7924   -8.8000   13.1409 H   0  0  0  0  0  0  0  0  0  0  0  0
    8.0125   -8.4048   14.7234 H   0  0  0  0  0  0  0  0  0  0  0  0
    8.6931   -6.4449   12.4845 H   0  0  0  0  0  0  0  0  0  0  0  0
    7.0559   -7.0113   12.9617 H   0  0  0  0  0  0  0  0  0  0  0  0
    7.5930   -4.8700   13.9390 H   0  0  0  0  0  0  0  0  0  0  0  0
    7.3550   -5.9870   15.1160 H   0  0  0  0  0  0  0  0  0  0  0  0
    9.9858   -4.9797   14.1387 H   0  0  0  0  0  0  0  0  0  0  0  0
    9.2041   -4.5944   15.7095 H   0  0  0  0  0  0  0  0  0  0  0  0
   10.9711   -6.3499   15.9008 H   0  0  0  0  0  0  0  0  0  0  0  0
    9.3245   -6.9289   16.3862 H   0  0  0  0  0  0  0  0  0  0  0  0
   11.7722  -14.8681   12.4165 H   0  0  0  0  0  0  0  0  0  0  0  0
   13.5454  -14.5038   10.6999 H   0  0  0  0  0  0  0  0  0  0  0  0
   14.7389  -12.3245   10.5897 H   0  0  0  0  0  0  0  0  0  0  0  0
   12.7071   -9.1446   11.1520 H   0  0  0  0  0  0  0  0  0  0  0  0
   13.9080   -6.9784   10.8909 H   0  0  0  0  0  0  0  0  0  0  0  0
   16.2680   -6.7545   11.6768 H   0  0  0  0  0  0  0  0  0  0  0  0
   16.1974  -10.8460   13.0577 H   0  0  0  0  0  0  0  0  0  0  0  0
  1  2  2  0
  2  3  1  0
  3  4  1  0
  4  5  1  0
  5  6  1  0
  5  7  1  0
  7  8  1  0
  8  9  1  0
  9 10  1  0
 10 11  1  0
  2 12  1  0
 12 13  2  0
 13 14  1  0
 13 15  1  0
 15 16  2  0
 16 17  1  0
 17 18  2  0
 18 19  1  0
 19 20  2  0
 20 21  1  0
 21 22  2  0
 22 23  1  0
 23 24  1  0
 23 25  2  0
 11  5  1  0
 18 12  1  0
 25 19  1  0
  3 26  1  0
  4 27  1  0
  4 28  1  0
  7 29  1  0
  7 30  1  0
  8 31  1  0
  8 32  1  0
  9 33  1  0
  9 34  1  0
 10 35  1  0
 10 36  1  0
 11 37  1  0
 11 38  1  0
 15 39  1  0
 16 40  1  0
 17 41  1  0
 20 42  1  0
 21 43  1  0
 22 44  1  0
 25 45  1  0
M  CHG  1   9   1
M  END
>  <meeko>  (1) 
{"is_sidechain": [false], "free_energy": -7.977, "intermolecular_energy": -9.842, "internal_energy": -0.938}

$$$$
LIB_QZHQGKPLHXJZRJ__M_PUB_ALL__e8__s20260927
     RDKit          3D

 45 47  0  0  0  0  0  0  0  0999 V2000
   11.6350  -12.9910    1.2010 O   0  0  0  0  0  0  0  0  0  0  0  0
   11.2620  -12.5010    0.1400 C   0  0  0  0  0  0  0  0  0  0  0  0
   10.0510  -11.8470    0.0260 N   0  0  0  0  0  0  0  0  0  0  0  0
    9.0890  -11.8260    1.1130 C   0  0  0  0  0  0  0  0  0  0  0  0
    7.6330  -11.5590    0.6780 C   0  0  0  0  0  0  0  0  0  0  0  0
    7.3740  -10.2260    0.8550 F   0  0  0  0  0  0  0  0  0  0  0  0
    7.4770  -11.8420   -0.8210 C   0  0  0  0  0  0  0  0  0  0  0  0
    6.0600  -11.5540   -1.2840 C   0  0  0  0  0  0  0  0  0  0  0  0
    5.0970  -12.3410   -0.4630 N   0  0  0  0  0  0  0  0  0  0  0  0
    5.1850  -12.0460    0.9960 C   0  0  0  0  0  0  0  0  0  0  0  0
    6.5900  -12.3310    1.4860 C   0  0  0  0  0  0  0  0  0  0  0  0
   12.1080  -12.5560   -1.0810 C   0  0  0  0  0  0  0  0  0  0  0  0
   12.9860  -11.4960   -1.3400 C   0  0  0  0  0  0  0  0  0  0  0  0
   13.1030  -10.4770   -0.4750 F   0  0  0  0  0  0  0  0  0  0  0  0
   13.7620  -11.4660   -2.4930 C   0  0  0  0  0  0  0  0  0  0  0  0
   13.6670  -12.5040   -3.4120 C   0  0  0  0  0  0  0  0  0  0  0  0
   12.8000  -13.5720   -3.1660 C   0  0  0  0  0  0  0  0  0  0  0  0
   12.0080  -13.6230   -2.0000 C   0  0  0  0  0  0  0  0  0  0  0  0
   11.1600  -14.8040   -1.7800 C   0  0  0  0  0  0  0  0  0  0  0  0
    9.8010  -14.7930   -2.1360 C   0  0  0  0  0  0  0  0  0  0  0  0
    8.9940  -15.9140   -1.9210 C   0  0  0  0  0  0  0  0  0  0  0  0
    9.5330  -17.0600   -1.3390 C   0  0  0  0  0  0  0  0  0  0  0  0
   10.8790  -17.0820   -0.9840 C   0  0  0  0  0  0  0  0  0  0  0  0
   11.5420  -18.4760   -0.2230 Cl  0  0  0  0  0  0  0  0  0  0  0  0
   11.6920  -15.9730   -1.2150 C   0  0  0  0  0  0  0  0  0  0  0  0
    9.7690  -11.4760   -0.8770 H   0  0  0  0  0  0  0  0  0  0  0  0
    9.1222  -12.8020    1.6193 H   0  0  0  0  0  0  0  0  0  0  0  0
    9.3768  -10.9900    1.7675 H   0  0  0  0  0  0  0  0  0  0  0  0
    8.1756  -11.2040   -1.3822 H   0  0  0  0  0  0  0  0  0  0  0  0
    7.6958  -12.9047   -1.0019 H   0  0  0  0  0  0  0  0  0  0  0  0
    5.8480  -10.4808   -1.1686 H   0  0  0  0  0  0  0  0  0  0  0  0
    5.9561  -11.8379   -2.3417 H   0  0  0  0  0  0  0  0  0  0  0  0
    4.1390  -12.1350   -0.7820 H   0  0  0  0  0  0  0  0  0  0  0  0
    5.2270  -13.3520   -0.6230 H   0  0  0  0  0  0  0  0  0  0  0  0
    4.9435  -10.9872    1.1710 H   0  0  0  0  0  0  0  0  0  0  0  0
    4.4711  -12.6805    1.5417 H   0  0  0  0  0  0  0  0  0  0  0  0
    6.6666  -12.0359    2.5429 H   0  0  0  0  0  0  0  0  0  0  0  0
    6.7862  -13.4065    1.3643 H   0  0  0  0  0  0  0  0  0  0  0  0
   14.4473  -10.6254   -2.6768 H   0  0  0  0  0  0  0  0  0  0  0  0
   14.2724  -12.4850   -4.3302 H   0  0  0  0  0  0  0  0  0  0  0  0
   12.7338  -14.3907   -3.8976 H   0  0  0  0  0  0  0  0  0  0  0  0
    9.3662  -13.8903   -2.5899 H   0  0  0  0  0  0  0  0  0  0  0  0
    7.9332  -15.8916   -2.2112 H   0  0  0  0  0  0  0  0  0  0  0  0
    8.8991  -17.9412   -1.1613 H   0  0  0  0  0  0  0  0  0  0  0  0
   12.7593  -16.0149   -0.9521 H   0  0  0  0  0  0  0  0  0  0  0  0
  1  2  2  0
  2  3  1  0
  3  4  1  0
  4  5  1  0
  5  6  1  0
  5  7  1  0
  7  8  1  0
  8  9  1  0
  9 10  1  0
 10 11  1  0
  2 12  1  0
 12 13  2  0
 13 14  1  0
 13 15  1  0
 15 16  2  0
 16 17  1  0
 17 18  2  0
 18 19  1  0
 19 20  2  0
 20 21  1  0
 21 22  2  0
 22 23  1  0
 23 24  1  0
 23 25  2  0
 11  5  1  0
 18 12  1  0
 25 19  1  0
  3 26  1  0
  4 27  1  0
  4 28  1  0
  7 29  1  0
  7 30  1  0
  8 31  1  0
  8 32  1  0
  9 33  1  0
  9 34  1  0
 10 35  1  0
 10 36  1  0
 11 37  1  0
 11 38  1  0
 15 39  1  0
 16 40  1  0
 17 41  1  0
 20 42  1  0
 21 43  1  0
 22 44  1  0
 25 45  1  0
M  CHG  1   9   1
M  END
>  <meeko>  (2) 
{"is_sidechain": [false], "free_energy": -7.66, "intermolecular_energy": -9.224, "internal_energy": -1.165}

$$$$
LIB_QZHQGKPLHXJZRJ__M_PUB_ALL__e8__s20260927
     RDKit          3D

 45 47  0  0  0  0  0  0  0  0999 V2000
  -12.3940  -15.9060   -9.1750 O   0  0  0  0  0  0  0  0  0  0  0  0
  -11.6880  -15.2150   -8.4490 C   0  0  0  0  0  0  0  0  0  0  0  0
  -12.1720  -14.0820   -7.8250 N   0  0  0  0  0  0  0  0  0  0  0  0
  -13.5000  -13.5650   -8.1040 C   0  0  0  0  0  0  0  0  0  0  0  0
  -13.5800  -12.0290   -8.2240 C   0  0  0  0  0  0  0  0  0  0  0  0
  -14.7840  -11.6240   -7.7100 F   0  0  0  0  0  0  0  0  0  0  0  0
  -12.4940  -11.3820   -7.3580 C   0  0  0  0  0  0  0  0  0  0  0  0
  -12.5710   -9.8670   -7.4300 C   0  0  0  0  0  0  0  0  0  0  0  0
  -12.4880   -9.4290   -8.8520 N   0  0  0  0  0  0  0  0  0  0  0  0
  -13.5670   -9.9980   -9.7100 C   0  0  0  0  0  0  0  0  0  0  0  0
  -13.5080  -11.5120   -9.6610 C   0  0  0  0  0  0  0  0  0  0  0  0
  -10.2720  -15.5730   -8.1730 C   0  0  0  0  0  0  0  0  0  0  0  0
   -9.9750  -16.2960   -7.0110 C   0  0  0  0  0  0  0  0  0  0  0  0
  -10.9540  -16.7060   -6.1910 F   0  0  0  0  0  0  0  0  0  0  0  0
   -8.6630  -16.6130   -6.6730 C   0  0  0  0  0  0  0  0  0  0  0  0
   -7.6230  -16.2050   -7.4990 C   0  0  0  0  0  0  0  0  0  0  0  0
   -7.9030  -15.4880   -8.6650 C   0  0  0  0  0  0  0  0  0  0  0  0
   -9.2260  -15.1610   -9.0280 C   0  0  0  0  0  0  0  0  0  0  0  0
   -9.4500  -14.4520  -10.2970 C   0  0  0  0  0  0  0  0  0  0  0  0
   -9.5480  -15.1560  -11.5090 C   0  0  0  0  0  0  0  0  0  0  0  0
   -9.7560  -14.4820  -12.7150 C   0  0  0  0  0  0  0  0  0  0  0  0
   -9.8610  -13.0930  -12.7280 C   0  0  0  0  0  0  0  0  0  0  0  0
   -9.7670  -12.3860  -11.5330 C   0  0  0  0  0  0  0  0  0  0  0  0
   -9.8490  -10.6660  -11.5450 Cl  0  0  0  0  0  0  0  0  0  0  0  0
   -9.5790  -13.0550  -10.3250 C   0  0  0  0  0  0  0  0  0  0  0  0
  -11.5470  -13.5240   -7.2510 H   0  0  0  0  0  0  0  0  0  0  0  0
  -13.8456  -14.0016   -9.0527 H   0  0  0  0  0  0  0  0  0  0  0  0
  -14.1292  -13.8435   -7.2458 H   0  0  0  0  0  0  0  0  0  0  0  0
  -12.6299  -11.6998   -6.3137 H   0  0  0  0  0  0  0  0  0  0  0  0
  -11.5104  -11.7011   -7.7332 H   0  0  0  0  0  0  0  0  0  0  0  0
  -13.5239   -9.5280   -6.9976 H   0  0  0  0  0  0  0  0  0  0  0  0
  -11.7342   -9.4315   -6.8643 H   0  0  0  0  0  0  0  0  0  0  0  0
  -12.5470   -8.4020   -8.8900 H   0  0  0  0  0  0  0  0  0  0  0  0
  -11.5660   -9.6660   -9.2490 H   0  0  0  0  0  0  0  0  0  0  0  0
  -14.5459   -9.6574   -9.3417 H   0  0  0  0  0  0  0  0  0  0  0  0
  -13.4267   -9.6596  -10.7472 H   0  0  0  0  0  0  0  0  0  0  0  0
  -14.3550  -11.9214  -10.2311 H   0  0  0  0  0  0  0  0  0  0  0  0
  -12.5507  -11.8345  -10.0964 H   0  0  0  0  0  0  0  0  0  0  0  0
   -8.4504  -17.1835   -5.7569 H   0  0  0  0  0  0  0  0  0  0  0  0
   -6.5824  -16.4457   -7.2358 H   0  0  0  0  0  0  0  0  0  0  0  0
   -7.0733  -15.1716   -9.3142 H   0  0  0  0  0  0  0  0  0  0  0  0
   -9.4598  -16.2525  -11.5083 H   0  0  0  0  0  0  0  0  0  0  0  0
   -9.8369  -15.0483  -13.6545 H   0  0  0  0  0  0  0  0  0  0  0  0
  -10.0172  -12.5585  -13.6766 H   0  0  0  0  0  0  0  0  0  0  0  0
   -9.5314  -12.4836   -9.3863 H   0  0  0  0  0  0  0  0  0  0  0  0
  1  2  2  0
  2  3  1  0
  3  4  1  0
  4  5  1  0
  5  6  1  0
  5  7  1  0
  7  8  1  0
  8  9  1  0
  9 10  1  0
 10 11  1  0
  2 12  1  0
 12 13  2  0
 13 14  1  0
 13 15  1  0
 15 16  2  0
 16 17  1  0
 17 18  2  0
 18 19  1  0
 19 20  2  0
 20 21  1  0
 21 22  2  0
 22 23  1  0
 23 24  1  0
 23 25  2  0
 11  5  1  0
 18 12  1  0
 25 19  1  0
  3 26  1  0
  4 27  1  0
  4 28  1  0
  7 29  1  0
  7 30  1  0
  8 31  1  0
  8 32  1  0
  9 33  1  0
  9 34  1  0
 10 35  1  0
 10 36  1  0
 11 37  1  0
 11 38  1  0
 15 39  1  0
 16 40  1  0
 17 41  1  0
 20 42  1  0
 21 43  1  0
 22 44  1  0
 25 45  1  0
M  CHG  1   9   1
M  END
>  <meeko>  (3) 
{"is_sidechain": [false], "free_energy": -7.552, "intermolecular_energy": -8.995, "internal_energy": -1.261}

$$$$
LIB_QZHQGKPLHXJZRJ__M_PUB_ALL__e8__s20260927
     RDKit          3D

 45 47  0  0  0  0  0  0  0  0999 V2000
  -12.3640  -15.7370   -8.9090 O   0  0  0  0  0  0  0  0  0  0  0  0
  -11.4440  -14.9950   -8.5800 C   0  0  0  0  0  0  0  0  0  0  0  0
  -11.6420  -13.6470   -8.3540 N   0  0  0  0  0  0  0  0  0  0  0  0
  -12.9150  -13.0050   -8.6300 C   0  0  0  0  0  0  0  0  0  0  0  0
  -12.8670  -11.9350   -9.7410 C   0  0  0  0  0  0  0  0  0  0  0  0
  -14.0180  -11.1950   -9.6690 F   0  0  0  0  0  0  0  0  0  0  0  0
  -11.7070  -10.9680   -9.4820 C   0  0  0  0  0  0  0  0  0  0  0  0
  -11.6570   -9.8820  -10.5430 C   0  0  0  0  0  0  0  0  0  0  0  0
  -11.5750  -10.5060  -11.8940 N   0  0  0  0  0  0  0  0  0  0  0  0
  -12.7210  -11.4100  -12.1980 C   0  0  0  0  0  0  0  0  0  0  0  0
  -12.7900  -12.5090  -11.1560 C   0  0  0  0  0  0  0  0  0  0  0  0
  -10.0650  -15.5100   -8.3760 C   0  0  0  0  0  0  0  0  0  0  0  0
   -9.7470  -16.1160   -7.1540 C   0  0  0  0  0  0  0  0  0  0  0  0
  -10.6830  -16.2790   -6.2070 F   0  0  0  0  0  0  0  0  0  0  0  0
   -8.4600  -16.5670   -6.8850 C   0  0  0  0  0  0  0  0  0  0  0  0
   -7.4640  -16.4140   -7.8420 C   0  0  0  0  0  0  0  0  0  0  0  0
   -7.7660  -15.8170   -9.0690 C   0  0  0  0  0  0  0  0  0  0  0  0
   -9.0660  -15.3570   -9.3630 C   0  0  0  0  0  0  0  0  0  0  0  0
   -9.3250  -14.7890  -10.6940 C   0  0  0  0  0  0  0  0  0  0  0  0
   -8.9620  -13.4660  -10.9980 C   0  0  0  0  0  0  0  0  0  0  0  0
   -9.2130  -12.9250  -12.2620 C   0  0  0  0  0  0  0  0  0  0  0  0
   -9.8390  -13.6970  -13.2390 C   0  0  0  0  0  0  0  0  0  0  0  0
  -10.2020  -15.0100  -12.9490 C   0  0  0  0  0  0  0  0  0  0  0  0
  -11.0170  -15.9560  -14.1340 Cl  0  0  0  0  0  0  0  0  0  0  0  0
   -9.9360  -15.5600  -11.6960 C   0  0  0  0  0  0  0  0  0  0  0  0
  -10.8490  -13.0620   -8.1070 H   0  0  0  0  0  0  0  0  0  0  0  0
  -13.6326  -13.7818   -8.9325 H   0  0  0  0  0  0  0  0  0  0  0  0
  -13.2078  -12.4833   -7.7069 H   0  0  0  0  0  0  0  0  0  0  0  0
  -11.8414  -10.5010   -8.4952 H   0  0  0  0  0  0  0  0  0  0  0  0
  -10.7645  -11.5342   -9.5150 H   0  0  0  0  0  0  0  0  0  0  0  0
  -12.5659   -9.2656  -10.4790 H   0  0  0  0  0  0  0  0  0  0  0  0
  -10.7714   -9.2507  -10.3780 H   0  0  0  0  0  0  0  0  0  0  0  0
  -11.5470   -9.7620  -12.6050 H   0  0  0  0  0  0  0  0  0  0  0  0
  -10.6870  -11.0210  -12.0010 H   0  0  0  0  0  0  0  0  0  0  0  0
  -13.6570  -10.8324  -12.1838 H   0  0  0  0  0  0  0  0  0  0  0  0
  -12.5803  -11.8574  -13.1930 H   0  0  0  0  0  0  0  0  0  0  0  0
  -13.6839  -13.1225  -11.3421 H   0  0  0  0  0  0  0  0  0  0  0  0
  -11.8758  -13.1159  -11.2332 H   0  0  0  0  0  0  0  0  0  0  0  0
   -8.2311  -17.0424   -5.9198 H   0  0  0  0  0  0  0  0  0  0  0  0
   -6.4412  -16.7617   -7.6344 H   0  0  0  0  0  0  0  0  0  0  0  0
   -6.9721  -15.7035   -9.8219 H   0  0  0  0  0  0  0  0  0  0  0  0
   -8.4735  -12.8476  -10.2306 H   0  0  0  0  0  0  0  0  0  0  0  0
   -8.9164  -11.8896  -12.4858 H   0  0  0  0  0  0  0  0  0  0  0  0
  -10.0450  -13.2722  -14.2325 H   0  0  0  0  0  0  0  0  0  0  0  0
  -10.2069  -16.6062  -11.4906 H   0  0  0  0  0  0  0  0  0  0  0  0
  1  2  2  0
  2  3  1  0
  3  4  1  0
  4  5  1  0
  5  6  1  0
  5  7  1  0
  7  8  1  0
  8  9  1  0
  9 10  1  0
 10 11  1  0
  2 12  1  0
 12 13  2  0
 13 14  1  0
 13 15  1  0
 15 16  2  0
 16 17  1  0
 17 18  2  0
 18 19  1  0
 19 20  2  0
 20 21  1  0
 21 22  2  0
 22 23  1  0
 23 24  1  0
 23 25  2  0
 11  5  1  0
 18 12  1  0
 25 19  1  0
  3 26  1  0
  4 27  1  0
  4 28  1  0
  7 29  1  0
  7 30  1  0
  8 31  1  0
  8 32  1  0
  9 33  1  0
  9 34  1  0
 10 35  1  0
 10 36  1  0
 11 37  1  0
 11 38  1  0
 15 39  1  0
 16 40  1  0
 17 41  1  0
 20 42  1  0
 21 43  1  0
 22 44  1  0
 25 45  1  0
M  CHG  1   9   1
M  END
>  <meeko>  (4) 
{"is_sidechain": [false], "free_energy": -7.402, "intermolecular_energy": -8.425, "internal_energy": -1.646}

$$$$
LIB_QZHQGKPLHXJZRJ__M_PUB_ALL__e8__s20260927
     RDKit          3D

 45 47  0  0  0  0  0  0  0  0999 V2000
   -2.2850  -14.8520   -1.0670 O   0  0  0  0  0  0  0  0  0  0  0  0
   -1.5660  -14.7000   -0.0850 C   0  0  0  0  0  0  0  0  0  0  0  0
   -1.6690  -13.5870    0.7280 N   0  0  0  0  0  0  0  0  0  0  0  0
   -2.5310  -12.4700    0.3870 C   0  0  0  0  0  0  0  0  0  0  0  0
   -1.9090  -11.0800    0.6330 C   0  0  0  0  0  0  0  0  0  0  0  0
   -2.4390  -10.2080   -0.2810 F   0  0  0  0  0  0  0  0  0  0  0  0
   -2.3170  -10.5650    2.0180 C   0  0  0  0  0  0  0  0  0  0  0  0
   -1.7460   -9.1810    2.2750 C   0  0  0  0  0  0  0  0  0  0  0  0
   -0.2660   -9.2120    2.1030 N   0  0  0  0  0  0  0  0  0  0  0  0
    0.1630   -9.6550    0.7440 C   0  0  0  0  0  0  0  0  0  0  0  0
   -0.3890  -11.0380    0.4660 C   0  0  0  0  0  0  0  0  0  0  0  0
   -0.5600  -15.7210    0.3070 C   0  0  0  0  0  0  0  0  0  0  0  0
   -0.9350  -16.7230    1.2100 C   0  0  0  0  0  0  0  0  0  0  0  0
   -2.1940  -16.7950    1.6690 F   0  0  0  0  0  0  0  0  0  0  0  0
   -0.0220  -17.6740    1.6550 C   0  0  0  0  0  0  0  0  0  0  0  0
    1.2910  -17.6300    1.2010 C   0  0  0  0  0  0  0  0  0  0  0  0
    1.6800  -16.6400    0.2950 C   0  0  0  0  0  0  0  0  0  0  0  0
    0.7680  -15.6710   -0.1720 C   0  0  0  0  0  0  0  0  0  0  0  0
    1.2330  -14.6920   -1.1660 C   0  0  0  0  0  0  0  0  0  0  0  0
    1.9140  -13.5280   -0.7700 C   0  0  0  0  0  0  0  0  0  0  0  0
    2.3500  -12.5960   -1.7150 C   0  0  0  0  0  0  0  0  0  0  0  0
    2.1050  -12.8100   -3.0700 C   0  0  0  0  0  0  0  0  0  0  0  0
    1.4330  -13.9600   -3.4740 C   0  0  0  0  0  0  0  0  0  0  0  0
    1.0850  -14.2100   -5.1410 Cl  0  0  0  0  0  0  0  0  0  0  0  0
    1.0130  -14.9030   -2.5360 C   0  0  0  0  0  0  0  0  0  0  0  0
   -1.0380  -13.4880    1.5170 H   0  0  0  0  0  0  0  0  0  0  0  0
   -2.7868  -12.5474   -0.6800 H   0  0  0  0  0  0  0  0  0  0  0  0
   -3.4080  -12.5402    1.0473 H   0  0  0  0  0  0  0  0  0  0  0  0
   -3.4145  -10.5174    2.0750 H   0  0  0  0  0  0  0  0  0  0  0  0
   -1.9207  -11.2540    2.7784 H   0  0  0  0  0  0  0  0  0  0  0  0
   -2.1827   -8.4664    1.5618 H   0  0  0  0  0  0  0  0  0  0  0  0
   -1.9884   -8.8703    3.3020 H   0  0  0  0  0  0  0  0  0  0  0  0
    0.1110   -8.2690    2.2730 H   0  0  0  0  0  0  0  0  0  0  0  0
    0.1690   -9.8140    2.8190 H   0  0  0  0  0  0  0  0  0  0  0  0
   -0.2186   -8.9497   -0.0090 H   0  0  0  0  0  0  0  0  0  0  0  0
    1.2617   -9.6825    0.6972 H   0  0  0  0  0  0  0  0  0  0  0  0
   -0.1349  -11.3234   -0.5655 H   0  0  0  0  0  0  0  0  0  0  0  0
    0.0566  -11.7385    1.1877 H   0  0  0  0  0  0  0  0  0  0  0  0
   -0.3373  -18.4558    2.3617 H   0  0  0  0  0  0  0  0  0  0  0  0
    2.0218  -18.3725    1.5540 H   0  0  0  0  0  0  0  0  0  0  0  0
    2.7203  -16.6159   -0.0618 H   0  0  0  0  0  0  0  0  0  0  0  0
    2.1062  -13.3485    0.2981 H   0  0  0  0  0  0  0  0  0  0  0  0
    2.8869  -11.6929   -1.3893 H   0  0  0  0  0  0  0  0  0  0  0  0
    2.4407  -12.0745   -3.8159 H   0  0  0  0  0  0  0  0  0  0  0  0
    0.5055  -15.8190   -2.8726 H   0  0  0  0  0  0  0  0  0  0  0  0
  1  2  2  0
  2  3  1  0
  3  4  1  0
  4  5  1  0
  5  6  1  0
  5  7  1  0
  7  8  1  0
  8  9  1  0
  9 10  1  0
 10 11  1  0
  2 12  1  0
 12 13  2  0
 13 14  1  0
 13 15  1  0
 15 16  2  0
 16 17  1  0
 17 18  2  0
 18 19  1  0
 19 20  2  0
 20 21  1  0
 21 22  2  0
 22 23  1  0
 23 24  1  0
 23 25  2  0
 11  5  1  0
 18 12  1  0
 25 19  1  0
  3 26  1  0
  4 27  1  0
  4 28  1  0
  7 29  1  0
  7 30  1  0
  8 31  1  0
  8 32  1  0
  9 33  1  0
  9 34  1  0
 10 35  1  0
 10 36  1  0
 11 37  1  0
 11 38  1  0
 15 39  1  0
 16 40  1  0
 17 41  1  0
 20 42  1  0
 21 43  1  0
 22 44  1  0
 25 45  1  0
M  CHG  1   9   1
M  END
>  <meeko>  (5) 
{"is_sidechain": [false], "free_energy": -7.319, "intermolecular_energy": -8.708, "internal_energy": -1.261}

$$$$
LIB_QZHQGKPLHXJZRJ__M_PUB_ALL__e8__s20260927
     RDKit          3D

 45 47  0  0  0  0  0  0  0  0999 V2000
   -0.0280  -13.1540   -0.2480 O   0  0  0  0  0  0  0  0  0  0  0  0
    0.4230  -12.6850    0.7920 C   0  0  0  0  0  0  0  0  0  0  0  0
    1.6100  -13.1320    1.3380 N   0  0  0  0  0  0  0  0  0  0  0  0
    2.3170  -14.2780    0.7950 C   0  0  0  0  0  0  0  0  0  0  0  0
    2.1100  -15.5920    1.5770 C   0  0  0  0  0  0  0  0  0  0  0  0
    2.1290  -15.2970    2.9160 F   0  0  0  0  0  0  0  0  0  0  0  0
    0.7220  -16.1660    1.2740 C   0  0  0  0  0  0  0  0  0  0  0  0
    0.4770  -17.4430    2.0590 C   0  0  0  0  0  0  0  0  0  0  0  0
    1.5630  -18.4220    1.7700 N   0  0  0  0  0  0  0  0  0  0  0  0
    2.9240  -17.9130    2.1090 C   0  0  0  0  0  0  0  0  0  0  0  0
    3.1960  -16.6400    1.3320 C   0  0  0  0  0  0  0  0  0  0  0  0
   -0.2680  -11.5820    1.5110 C   0  0  0  0  0  0  0  0  0  0  0  0
   -0.2070  -10.2890    0.9770 C   0  0  0  0  0  0  0  0  0  0  0  0
    0.4150  -10.0580   -0.1900 F   0  0  0  0  0  0  0  0  0  0  0  0
   -0.7880   -9.2090    1.6320 C   0  0  0  0  0  0  0  0  0  0  0  0
   -1.4390   -9.4090    2.8430 C   0  0  0  0  0  0  0  0  0  0  0  0
   -1.5140  -10.6950    3.3860 C   0  0  0  0  0  0  0  0  0  0  0  0
   -0.9360  -11.8040    2.7350 C   0  0  0  0  0  0  0  0  0  0  0  0
   -1.1010  -13.1350    3.3370 C   0  0  0  0  0  0  0  0  0  0  0  0
   -2.1190  -14.0020    2.9040 C   0  0  0  0  0  0  0  0  0  0  0  0
   -2.2790  -15.2650    3.4800 C   0  0  0  0  0  0  0  0  0  0  0  0
   -1.4270  -15.6770    4.5030 C   0  0  0  0  0  0  0  0  0  0  0  0
   -0.4140  -14.8270    4.9380 C   0  0  0  0  0  0  0  0  0  0  0  0
    0.6130  -15.3090    6.2340 Cl  0  0  0  0  0  0  0  0  0  0  0  0
   -0.2390  -13.5740    4.3530 C   0  0  0  0  0  0  0  0  0  0  0  0
    1.9360  -12.7340    2.2140 H   0  0  0  0  0  0  0  0  0  0  0  0
    1.9723  -14.4357   -0.2376 H   0  0  0  0  0  0  0  0  0  0  0  0
    3.3893  -14.0421    0.8615 H   0  0  0  0  0  0  0  0  0  0  0  0
   -0.0419  -15.4234    1.5479 H   0  0  0  0  0  0  0  0  0  0  0  0
    0.6661  -16.3988    0.2004 H   0  0  0  0  0  0  0  0  0  0  0  0
    0.4660  -17.2151    3.1351 H   0  0  0  0  0  0  0  0  0  0  0  0
   -0.4915  -17.8734    1.7646 H   0  0  0  0  0  0  0  0  0  0  0  0
    1.3920  -19.2810    2.3110 H   0  0  0  0  0  0  0  0  0  0  0  0
    1.5360  -18.7110    0.7800 H   0  0  0  0  0  0  0  0  0  0  0  0
    2.9788  -17.7030    3.1874 H   0  0  0  0  0  0  0  0  0  0  0  0
    3.6754  -18.6715    1.8443 H   0  0  0  0  0  0  0  0  0  0  0  0
    4.1667  -16.2294    1.6469 H   0  0  0  0  0  0  0  0  0  0  0  0
    3.2041  -16.8849    0.2596 H   0  0  0  0  0  0  0  0  0  0  0  0
   -0.7326   -8.2016    1.1938 H   0  0  0  0  0  0  0  0  0  0  0  0
   -1.8936   -8.5587    3.3725 H   0  0  0  0  0  0  0  0  0  0  0  0
   -2.0357  -10.8450    4.3427 H   0  0  0  0  0  0  0  0  0  0  0  0
   -2.7990  -13.6819    2.1008 H   0  0  0  0  0  0  0  0  0  0  0  0
   -3.0773  -15.9339    3.1260 H   0  0  0  0  0  0  0  0  0  0  0  0
   -1.5542  -16.6677    4.9639 H   0  0  0  0  0  0  0  0  0  0  0  0
    0.5817  -12.9241    4.6907 H   0  0  0  0  0  0  0  0  0  0  0  0
  1  2  2  0
  2  3  1  0
  3  4  1  0
  4  5  1  0
  5  6  1  0
  5  7  1  0
  7  8  1  0
  8  9  1  0
  9 10  1  0
 10 11  1  0
  2 12  1  0
 12 13  2  0
 13 14  1  0
 13 15  1  0
 15 16  2  0
 16 17  1  0
 17 18  2  0
 18 19  1  0
 19 20  2  0
 20 21  1  0
 21 22  2  0
 22 23  1  0
 23 24  1  0
 23 25  2  0
 11  5  1  0
 18 12  1  0
 25 19  1  0
  3 26  1  0
  4 27  1  0
  4 28  1  0
  7 29  1  0
  7 30  1  0
  8 31  1  0
  8 32  1  0
  9 33  1  0
  9 34  1  0
 10 35  1  0
 10 36  1  0
 11 37  1  0
 11 38  1  0
 15 39  1  0
 16 40  1  0
 17 41  1  0
 20 42  1  0
 21 43  1  0
 22 44  1  0
 25 45  1  0
M  CHG  1   9   1
M  END
>  <meeko>  (6) 
{"is_sidechain": [false], "free_energy": -7.241, "intermolecular_energy": -8.286, "internal_energy": -1.587}

$$$$
LIB_QZHQGKPLHXJZRJ__M_PUB_ALL__e8__s20260927
     RDKit          3D

 45 47  0  0  0  0  0  0  0  0999 V2000
    2.5390  -11.5820    0.1730 O   0  0  0  0  0  0  0  0  0  0  0  0
    1.7580  -11.4560   -0.7640 C   0  0  0  0  0  0  0  0  0  0  0  0
    0.7340  -10.5300   -0.7400 N   0  0  0  0  0  0  0  0  0  0  0  0
    0.4350   -9.7540    0.4500 C   0  0  0  0  0  0  0  0  0  0  0  0
   -0.8290  -10.2040    1.2110 C   0  0  0  0  0  0  0  0  0  0  0  0
   -1.2790   -9.1440    1.9540 F   0  0  0  0  0  0  0  0  0  0  0  0
   -1.9430  -10.5440    0.2140 C   0  0  0  0  0  0  0  0  0  0  0  0
   -3.2120  -10.9580    0.9370 C   0  0  0  0  0  0  0  0  0  0  0  0
   -2.9170  -12.0940    1.8550 N   0  0  0  0  0  0  0  0  0  0  0  0
   -1.8760  -11.7750    2.8750 C   0  0  0  0  0  0  0  0  0  0  0  0
   -0.5940  -11.3640    2.1780 C   0  0  0  0  0  0  0  0  0  0  0  0
    1.8860  -12.2760   -1.9980 C   0  0  0  0  0  0  0  0  0  0  0  0
    2.4270  -11.6830   -3.1460 C   0  0  0  0  0  0  0  0  0  0  0  0
    2.8720  -10.4170   -3.1180 F   0  0  0  0  0  0  0  0  0  0  0  0
    2.5220  -12.3830   -4.3440 C   0  0  0  0  0  0  0  0  0  0  0  0
    2.0700  -13.6950   -4.4110 C   0  0  0  0  0  0  0  0  0  0  0  0
    1.5340  -14.3030   -3.2730 C   0  0  0  0  0  0  0  0  0  0  0  0
    1.4330  -13.6120   -2.0470 C   0  0  0  0  0  0  0  0  0  0  0  0
    0.9090  -14.3320   -0.8770 C   0  0  0  0  0  0  0  0  0  0  0  0
   -0.4510  -14.2570   -0.5320 C   0  0  0  0  0  0  0  0  0  0  0  0
   -0.9470  -14.9360    0.5830 C   0  0  0  0  0  0  0  0  0  0  0  0
   -0.0880  -15.6960    1.3750 C   0  0  0  0  0  0  0  0  0  0  0  0
    1.2600  -15.7790    1.0420 C   0  0  0  0  0  0  0  0  0  0  0  0
    2.3380  -16.6770    2.0410 Cl  0  0  0  0  0  0  0  0  0  0  0  0
    1.7560  -15.1180   -0.0810 C   0  0  0  0  0  0  0  0  0  0  0  0
    0.0940  -10.4750   -1.5260 H   0  0  0  0  0  0  0  0  0  0  0  0
    1.2928   -9.8313    1.1342 H   0  0  0  0  0  0  0  0  0  0  0  0
    0.2441   -8.7252    0.1107 H   0  0  0  0  0  0  0  0  0  0  0  0
   -2.1539   -9.6596   -0.4052 H   0  0  0  0  0  0  0  0  0  0  0  0
   -1.6077  -11.3827   -0.4138 H   0  0  0  0  0  0  0  0  0  0  0  0
   -3.5957  -10.1072    1.5191 H   0  0  0  0  0  0  0  0  0  0  0  0
   -3.9665  -11.2706    0.2001 H   0  0  0  0  0  0  0  0  0  0  0  0
   -3.7820  -12.3630    2.3440 H   0  0  0  0  0  0  0  0  0  0  0  0
   -2.6350  -12.9280    1.3180 H   0  0  0  0  0  0  0  0  0  0  0  0
   -2.2276  -10.9500    3.5120 H   0  0  0  0  0  0  0  0  0  0  0  0
   -1.6870  -12.6631    3.4959 H   0  0  0  0  0  0  0  0  0  0  0  0
    0.1412  -11.0545    2.9354 H   0  0  0  0  0  0  0  0  0  0  0  0
   -0.2237  -12.2244    1.6012 H   0  0  0  0  0  0  0  0  0  0  0  0
    2.9527  -11.9004   -5.2337 H   0  0  0  0  0  0  0  0  0  0  0  0
    2.1339  -14.2532   -5.3567 H   0  0  0  0  0  0  0  0  0  0  0  0
    1.1829  -15.3437   -3.3342 H   0  0  0  0  0  0  0  0  0  0  0  0
   -1.1346  -13.6551   -1.1488 H   0  0  0  0  0  0  0  0  0  0  0  0
   -2.0155  -14.8710    0.8362 H   0  0  0  0  0  0  0  0  0  0  0  0
   -0.4737  -16.2268    2.2579 H   0  0  0  0  0  0  0  0  0  0  0  0
    2.8196  -15.2134   -0.3450 H   0  0  0  0  0  0  0  0  0  0  0  0
  1  2  2  0
  2  3  1  0
  3  4  1  0
  4  5  1  0
  5  6  1  0
  5  7  1  0
  7  8  1  0
  8  9  1  0
  9 10  1  0
 10 11  1  0
  2 12  1  0
 12 13  2  0
 13 14  1  0
 13 15  1  0
 15 16  2  0
 16 17  1  0
 17 18  2  0
 18 19  1  0
 19 20  2  0
 20 21  1  0
 21 22  2  0
 22 23  1  0
 23 24  1  0
 23 25  2  0
 11  5  1  0
 18 12  1  0
 25 19  1  0
  3 26  1  0
  4 27  1  0
  4 28  1  0
  7 29  1  0
  7 30  1  0
  8 31  1  0
  8 32  1  0
  9 33  1  0
  9 34  1  0
 10 35  1  0
 10 36  1  0
 11 37  1  0
 11 38  1  0
 15 39  1  0
 16 40  1  0
 17 41  1  0
 20 42  1  0
 21 43  1  0
 22 44  1  0
 25 45  1  0
M  CHG  1   9   1
M  END
>  <meeko>  (7) 
{"is_sidechain": [false], "free_energy": -7.171, "intermolecular_energy": -8.274, "internal_energy": -1.511}

$$$$
LIB_QZHQGKPLHXJZRJ__M_PUB_ALL__e8__s20260927
     RDKit          3D

 45 47  0  0  0  0  0  0  0  0999 V2000
    9.7210  -14.1090   -0.2790 O   0  0  0  0  0  0  0  0  0  0  0  0
    9.8000  -12.9380   -0.6340 C   0  0  0  0  0  0  0  0  0  0  0  0
    8.7020  -12.2430   -1.1030 N   0  0  0  0  0  0  0  0  0  0  0  0
    7.4280  -12.8980   -1.3390 C   0  0  0  0  0  0  0  0  0  0  0  0
    6.3420  -12.5890   -0.2870 C   0  0  0  0  0  0  0  0  0  0  0  0
    5.1770  -12.3060   -0.9490 F   0  0  0  0  0  0  0  0  0  0  0  0
    6.0720  -13.8350    0.5640 C   0  0  0  0  0  0  0  0  0  0  0  0
    4.9820  -13.5700    1.5860 C   0  0  0  0  0  0  0  0  0  0  0  0
    5.3550  -12.3930    2.4210 N   0  0  0  0  0  0  0  0  0  0  0  0
    5.5690  -11.1490    1.6260 C   0  0  0  0  0  0  0  0  0  0  0  0
    6.6600  -11.3850    0.6010 C   0  0  0  0  0  0  0  0  0  0  0  0
   11.0790  -12.1860   -0.5500 C   0  0  0  0  0  0  0  0  0  0  0  0
   11.2800  -11.3180    0.5300 C   0  0  0  0  0  0  0  0  0  0  0  0
   10.3610  -11.2090    1.5020 F   0  0  0  0  0  0  0  0  0  0  0  0
   12.4340  -10.5470    0.6330 C   0  0  0  0  0  0  0  0  0  0  0  0
   13.4080  -10.6330   -0.3540 C   0  0  0  0  0  0  0  0  0  0  0  0
   13.2250  -11.4990   -1.4360 C   0  0  0  0  0  0  0  0  0  0  0  0
   12.0650  -12.2920   -1.5560 C   0  0  0  0  0  0  0  0  0  0  0  0
   11.9650  -13.2210   -2.6920 C   0  0  0  0  0  0  0  0  0  0  0  0
   11.1250  -12.9400   -3.7820 C   0  0  0  0  0  0  0  0  0  0  0  0
   11.0260  -13.8260   -4.8590 C   0  0  0  0  0  0  0  0  0  0  0  0
   11.7600  -15.0100   -4.8570 C   0  0  0  0  0  0  0  0  0  0  0  0
   12.5970  -15.2980   -3.7820 C   0  0  0  0  0  0  0  0  0  0  0  0
   13.4720  -16.7800   -3.7480 Cl  0  0  0  0  0  0  0  0  0  0  0  0
   12.7130  -14.4080   -2.7150 C   0  0  0  0  0  0  0  0  0  0  0  0
    8.8160  -11.2820   -1.4100 H   0  0  0  0  0  0  0  0  0  0  0  0
    7.0542  -12.5770   -2.3225 H   0  0  0  0  0  0  0  0  0  0  0  0
    7.6184  -13.9799   -1.2819 H   0  0  0  0  0  0  0  0  0  0  0  0
    5.7560  -14.6582   -0.0937 H   0  0  0  0  0  0  0  0  0  0  0  0
    6.9959  -14.1014    1.0982 H   0  0  0  0  0  0  0  0  0  0  0  0
    4.0347  -13.3645    1.0660 H   0  0  0  0  0  0  0  0  0  0  0  0
    4.8638  -14.4530    2.2313 H   0  0  0  0  0  0  0  0  0  0  0  0
    4.6070  -12.2180    3.1070 H   0  0  0  0  0  0  0  0  0  0  0  0
    6.1970  -12.5990    2.9800 H   0  0  0  0  0  0  0  0  0  0  0  0
    4.6353  -10.8776    1.1116 H   0  0  0  0  0  0  0  0  0  0  0  0
    5.8686  -10.3316    2.2983 H   0  0  0  0  0  0  0  0  0  0  0  0
    6.7566  -10.4899   -0.0311 H   0  0  0  0  0  0  0  0  0  0  0  0
    7.5991  -11.5887    1.1363 H   0  0  0  0  0  0  0  0  0  0  0  0
   12.5742   -9.8732    1.4911 H   0  0  0  0  0  0  0  0  0  0  0  0
   14.3199  -10.0218   -0.2843 H   0  0  0  0  0  0  0  0  0  0  0  0
   14.0030  -11.5633   -2.2110 H   0  0  0  0  0  0  0  0  0  0  0  0
   10.5371  -12.0103   -3.7884 H   0  0  0  0  0  0  0  0  0  0  0  0
   10.3684  -13.5881   -5.7081 H   0  0  0  0  0  0  0  0  0  0  0  0
   11.6789  -15.7129   -5.6992 H   0  0  0  0  0  0  0  0  0  0  0  0
   13.3965  -14.6382   -1.8844 H   0  0  0  0  0  0  0  0  0  0  0  0
  1  2  2  0
  2  3  1  0
  3  4  1  0
  4  5  1  0
  5  6  1  0
  5  7  1  0
  7  8  1  0
  8  9  1  0
  9 10  1  0
 10 11  1  0
  2 12  1  0
 12 13  2  0
 13 14  1  0
 13 15  1  0
 15 16  2  0
 16 17  1  0
 17 18  2  0
 18 19  1  0
 19 20  2  0
 20 21  1  0
 21 22  2  0
 22 23  1  0
 23 24  1  0
 23 25  2  0
 11  5  1  0
 18 12  1  0
 25 19  1  0
  3 26  1  0
  4 27  1  0
  4 28  1  0
  7 29  1  0
  7 30  1  0
  8 31  1  0
  8 32  1  0
  9 33  1  0
  9 34  1  0
 10 35  1  0
 10 36  1  0
 11 37  1  0
 11 38  1  0
 15 39  1  0
 16 40  1  0
 17 41  1  0
 20 42  1  0
 21 43  1  0
 22 44  1  0
 25 45  1  0
M  CHG  1   9   1
M  END
>  <meeko>  (8) 
{"is_sidechain": [false], "free_energy": -7.149, "intermolecular_energy": -8.763, "internal_energy": -0.996}

$$$$
LIB_QZHQGKPLHXJZRJ__M_PUB_ALL__e8__s20260927
     RDKit          3D

 45 47  0  0  0  0  0  0  0  0999 V2000
   -1.9830  -15.3220   -1.3310 O   0  0  0  0  0  0  0  0  0  0  0  0
   -1.3850  -15.2520   -0.2620 C   0  0  0  0  0  0  0  0  0  0  0  0
   -0.0280  -15.0030   -0.2020 N   0  0  0  0  0  0  0  0  0  0  0  0
    0.7930  -14.9530   -1.3990 C   0  0  0  0  0  0  0  0  0  0  0  0
    1.6350  -13.6690   -1.5480 C   0  0  0  0  0  0  0  0  0  0  0  0
    2.8900  -13.9240   -1.0610 F   0  0  0  0  0  0  0  0  0  0  0  0
    1.8010  -13.3240   -3.0320 C   0  0  0  0  0  0  0  0  0  0  0  0
    2.6560  -12.0820   -3.2100 C   0  0  0  0  0  0  0  0  0  0  0  0
    2.0650  -10.9540   -2.4360 N   0  0  0  0  0  0  0  0  0  0  0  0
    1.9430  -11.2370   -0.9770 C   0  0  0  0  0  0  0  0  0  0  0  0
    1.0870  -12.4710   -0.7710 C   0  0  0  0  0  0  0  0  0  0  0  0
   -2.0940  -15.4010    1.0360 C   0  0  0  0  0  0  0  0  0  0  0  0
   -2.0800  -16.6490    1.6710 C   0  0  0  0  0  0  0  0  0  0  0  0
   -1.3940  -17.6770    1.1460 F   0  0  0  0  0  0  0  0  0  0  0  0
   -2.7690  -16.8640    2.8590 C   0  0  0  0  0  0  0  0  0  0  0  0
   -3.4910  -15.8230    3.4320 C   0  0  0  0  0  0  0  0  0  0  0  0
   -3.5100  -14.5700    2.8150 C   0  0  0  0  0  0  0  0  0  0  0  0
   -2.8140  -14.3310    1.6120 C   0  0  0  0  0  0  0  0  0  0  0  0
   -2.8330  -12.9730    1.0470 C   0  0  0  0  0  0  0  0  0  0  0  0
   -3.8400  -12.5780    0.1500 C   0  0  0  0  0  0  0  0  0  0  0  0
   -3.8540  -11.2890   -0.3900 C   0  0  0  0  0  0  0  0  0  0  0  0
   -2.8570  -10.3780   -0.0460 C   0  0  0  0  0  0  0  0  0  0  0  0
   -1.8560  -10.7590    0.8430 C   0  0  0  0  0  0  0  0  0  0  0  0
   -0.5940   -9.6560    1.2370 Cl  0  0  0  0  0  0  0  0  0  0  0  0
   -1.8480  -12.0370    1.3990 C   0  0  0  0  0  0  0  0  0  0  0  0
    0.4330  -14.9770    0.7020 H   0  0  0  0  0  0  0  0  0  0  0  0
    1.4790  -15.8127   -1.3805 H   0  0  0  0  0  0  0  0  0  0  0  0
    0.0999  -14.9717   -2.2530 H   0  0  0  0  0  0  0  0  0  0  0  0
    2.2827  -14.1689   -3.5460 H   0  0  0  0  0  0  0  0  0  0  0  0
    0.8065  -13.1288   -3.4596 H   0  0  0  0  0  0  0  0  0  0  0  0
    3.6741  -12.2828   -2.8450 H   0  0  0  0  0  0  0  0  0  0  0  0
    2.6936  -11.8138   -4.2761 H   0  0  0  0  0  0  0  0  0  0  0  0
    2.6550  -10.1190   -2.5590 H   0  0  0  0  0  0  0  0  0  0  0  0
    1.1430  -10.6970   -2.8200 H   0  0  0  0  0  0  0  0  0  0  0  0
    2.9429  -11.4094   -0.5522 H   0  0  0  0  0  0  0  0  0  0  0  0
    1.4742  -10.3778   -0.4750 H   0  0  0  0  0  0  0  0  0  0  0  0
    1.0682  -12.7182    0.3007 H   0  0  0  0  0  0  0  0  0  0  0  0
    0.0739  -12.2540   -1.1404 H   0  0  0  0  0  0  0  0  0  0  0  0
   -2.7432  -17.8516    3.3428 H   0  0  0  0  0  0  0  0  0  0  0  0
   -4.0454  -15.9856    4.3681 H   0  0  0  0  0  0  0  0  0  0  0  0
   -4.0806  -13.7513    3.2778 H   0  0  0  0  0  0  0  0  0  0  0  0
   -4.6276  -13.2927   -0.1308 H   0  0  0  0  0  0  0  0  0  0  0  0
   -4.6522  -10.9934   -1.0868 H   0  0  0  0  0  0  0  0  0  0  0  0
   -2.8611   -9.3647   -0.4741 H   0  0  0  0  0  0  0  0  0  0  0  0
   -1.0640  -12.3142    2.1190 H   0  0  0  0  0  0  0  0  0  0  0  0
  1  2  2  0
  2  3  1  0
  3  4  1  0
  4  5  1  0
  5  6  1  0
  5  7  1  0
  7  8  1  0
  8  9  1  0
  9 10  1  0
 10 11  1  0
  2 12  1  0
 12 13  2  0
 13 14  1  0
 13 15  1  0
 15 16  2  0
 16 17  1  0
 17 18  2  0
 18 19  1  0
 19 20  2  0
 20 21  1  0
 21 22  2  0
 22 23  1  0
 23 24  1  0
 23 25  2  0
 11  5  1  0
 18 12  1  0
 25 19  1  0
  3 26  1  0
  4 27  1  0
  4 28  1  0
  7 29  1  0
  7 30  1  0
  8 31  1  0
  8 32  1  0
  9 33  1  0
  9 34  1  0
 10 35  1  0
 10 36  1  0
 11 37  1  0
 11 38  1  0
 15 39  1  0
 16 40  1  0
 17 41  1  0
 20 42  1  0
 21 43  1  0
 22 44  1  0
 25 45  1  0
M  CHG  1   9   1
M  END
>  <meeko>  (9) 
{"is_sidechain": [false], "free_energy": -7.076, "intermolecular_energy": -8.31, "internal_energy": -1.359}

$$$$
