LIB_INKAJKATDMQGKQ__M_PUB_ALL__e8__s20260927
     RDKit          3D

 51 53  0  0  0  0  0  0  0  0999 V2000
   -1.6480   -8.6840    4.0090 C   0  0  0  0  0  0  0  0  0  0  0  0
   -1.3610   -9.8340    3.0870 C   0  0  0  0  0  0  0  0  0  0  0  0
   -1.0530   -9.6090    1.7450 C   0  0  0  0  0  0  0  0  0  0  0  0
   -0.7550  -10.6790    0.8920 C   0  0  0  0  0  0  0  0  0  0  0  0
   -0.7460  -12.0010    1.3610 C   0  0  0  0  0  0  0  0  0  0  0  0
   -0.4440  -13.0750    0.4840 N   0  0  0  0  0  0  0  0  0  0  0  0
    0.8470  -13.2450   -0.1370 C   0  0  0  0  0  0  0  0  0  0  0  0
    0.8120  -14.6560   -0.7120 C   0  0  0  0  0  0  0  0  0  0  0  0
   -0.6740  -14.9480   -0.9130 N   0  0  0  0  0  0  0  0  0  0  0  0
   -1.0330  -16.4050   -0.7630 C   0  0  0  0  0  0  0  0  0  0  0  0
   -0.0300  -17.2450    0.0970 C   0  0  0  0  0  0  0  0  0  0  0  0
   -0.5520  -17.6890    1.4610 N   0  0  0  0  0  0  0  0  0  0  0  0
    0.2760  -17.1000    2.6000 C   0  0  0  0  0  0  0  0  0  0  0  0
   -0.3200  -15.7960    3.1090 C   0  0  0  0  0  0  0  0  0  0  0  0
   -1.5910  -15.8800    3.9990 C   0  0  0  0  0  0  0  0  0  0  0  0
   -2.1440  -17.2800    4.2400 C   0  0  0  0  0  0  0  0  0  0  0  0
   -2.5710  -17.9770    2.9500 C   0  0  0  0  0  0  0  0  0  0  0  0
   -2.0270  -17.3790    1.6610 C   0  0  0  0  0  0  0  0  0  0  0  0
   -1.3080  -14.0350    0.0390 C   0  0  0  0  0  0  0  0  0  0  0  0
   -2.4800  -14.2690    0.2390 O   0  0  0  0  0  0  0  0  0  0  0  0
   -1.0430  -12.2140    2.7150 C   0  0  0  0  0  0  0  0  0  0  0  0
   -1.3400  -11.1440    3.5670 C   0  0  0  0  0  0  0  0  0  0  0  0
   -1.5639   -9.0210    5.0527 H   0  0  0  0  0  0  0  0  0  0  0  0
   -0.9238   -7.8768    3.8248 H   0  0  0  0  0  0  0  0  0  0  0  0
   -2.6666   -8.3118    3.8248 H   0  0  0  0  0  0  0  0  0  0  0  0
   -1.0441   -8.5812    1.3531 H   0  0  0  0  0  0  0  0  0  0  0  0
   -0.5238  -10.4792   -0.1647 H   0  0  0  0  0  0  0  0  0  0  0  0
    0.9947  -12.5033   -0.9358 H   0  0  0  0  0  0  0  0  0  0  0  0
    1.6745  -13.1038    0.5738 H   0  0  0  0  0  0  0  0  0  0  0  0
    1.3502  -14.6992   -1.6704 H   0  0  0  0  0  0  0  0  0  0  0  0
    1.2978  -15.3897   -0.0520 H   0  0  0  0  0  0  0  0  0  0  0  0
   -0.9520  -14.5750   -1.8300 H   0  0  0  0  0  0  0  0  0  0  0  0
   -2.0239  -16.4659   -0.2892 H   0  0  0  0  0  0  0  0  0  0  0  0
   -1.0076  -16.8352   -1.7751 H   0  0  0  0  0  0  0  0  0  0  0  0
    0.2357  -18.1463   -0.4749 H   0  0  0  0  0  0  0  0  0  0  0  0
    0.8249  -16.5831    0.2996 H   0  0  0  0  0  0  0  0  0  0  0  0
   -0.4370  -18.7210    1.5200 H   0  0  0  0  0  0  0  0  0  0  0  0
    0.3106  -17.8238    3.4276 H   0  0  0  0  0  0  0  0  0  0  0  0
    1.2864  -16.8909    2.2187 H   0  0  0  0  0  0  0  0  0  0  0  0
    0.4584  -15.2862    3.6957 H   0  0  0  0  0  0  0  0  0  0  0  0
   -0.6510  -15.2695    2.2017 H   0  0  0  0  0  0  0  0  0  0  0  0
   -1.3467  -15.4411    4.9776 H   0  0  0  0  0  0  0  0  0  0  0  0
   -2.3759  -15.3407    3.4485 H   0  0  0  0  0  0  0  0  0  0  0  0
   -1.3658  -17.8865    4.7263 H   0  0  0  0  0  0  0  0  0  0  0  0
   -3.0375  -17.1790    4.8736 H   0  0  0  0  0  0  0  0  0  0  0  0
   -2.2348  -19.0229    3.0047 H   0  0  0  0  0  0  0  0  0  0  0  0
   -3.6633  -17.8595    2.8953 H   0  0  0  0  0  0  0  0  0  0  0  0
   -2.5936  -17.7908    0.8128 H   0  0  0  0  0  0  0  0  0  0  0  0
   -2.1367  -16.2863    1.7234 H   0  0  0  0  0  0  0  0  0  0  0  0
   -1.0425  -13.2391    3.1140 H   0  0  0  0  0  0  0  0  0  0  0  0
   -1.5594  -11.3381    4.6273 H   0  0  0  0  0  0  0  0  0  0  0  0
  1  2  1  0
  2  3  2  0
  3  4  1  0
  4  5  2  0
  5  6  1  0
  6  7  1  0
  7  8  1  0
  8  9  1  0
  9 10  1  0
 10 11  1  0
 11 12  1  0
 12 13  1  0
 13 14  1  0
 14 15  1  0
 15 16  1  0
 16 17  1  0
 17 18  1  0
  9 19  1  0
 19 20  2  0
  5 21  1  0
 21 22  2  0
 22  2  1  0
 19  6  1  0
 18 12  1  0
  1 23  1  0
  1 24  1  0
  1 25  1  0
  3 26  1  0
  4 27  1  0
  7 28  1  0
  7 29  1  0
  8 30  1  0
  8 31  1  0
  9 32  1  0
 10 33  1  0
 10 34  1  0
 11 35  1  0
 11 36  1  0
 12 37  1  0
 13 38  1  0
 13 39  1  0
 14 40  1  0
 14 41  1  0
 15 42  1  0
 15 43  1  0
 16 44  1  0
 16 45  1  0
 17 46  1  0
 17 47  1  0
 18 48  1  0
 18 49  1  0
 21 50  1  0
 22 51  1  0
M  CHG  2   9   1  12   1
M  END
>  <meeko>  (1) 
{"is_sidechain": [false], "free_energy": -4.524, "intermolecular_energy": -7.169, "internal_energy": -0.491}

$$$$
LIB_INKAJKATDMQGKQ__M_PUB_ALL__e8__s20260927
     RDKit          3D

 51 53  0  0  0  0  0  0  0  0999 V2000
   -5.9960  -14.0330    4.1390 C   0  0  0  0  0  0  0  0  0  0  0  0
   -6.7420  -14.6690    5.2770 C   0  0  0  0  0  0  0  0  0  0  0  0
   -7.6130  -15.7350    5.0460 C   0  0  0  0  0  0  0  0  0  0  0  0
   -8.2850  -16.3480    6.1100 C   0  0  0  0  0  0  0  0  0  0  0  0
   -8.0980  -15.9190    7.4330 C   0  0  0  0  0  0  0  0  0  0  0  0
   -8.7890  -16.5490    8.5010 N   0  0  0  0  0  0  0  0  0  0  0  0
  -10.2030  -16.3780    8.7330 C   0  0  0  0  0  0  0  0  0  0  0  0
  -10.5560  -17.4590    9.7480 C   0  0  0  0  0  0  0  0  0  0  0  0
   -9.2400  -17.7500   10.4660 N   0  0  0  0  0  0  0  0  0  0  0  0
   -9.1140  -19.1740   10.9490 C   0  0  0  0  0  0  0  0  0  0  0  0
  -10.4200  -20.0280   10.8270 C   0  0  0  0  0  0  0  0  0  0  0  0
  -10.4050  -21.0950    9.7350 N   0  0  0  0  0  0  0  0  0  0  0  0
  -11.6960  -21.0860    8.9210 C   0  0  0  0  0  0  0  0  0  0  0  0
  -11.5750  -20.2020    7.6880 C   0  0  0  0  0  0  0  0  0  0  0  0
  -10.7860  -20.7450    6.4990 C   0  0  0  0  0  0  0  0  0  0  0  0
  -10.1630  -22.1210    6.7060 C   0  0  0  0  0  0  0  0  0  0  0  0
   -9.1230  -22.1360    7.8240 C   0  0  0  0  0  0  0  0  0  0  0  0
   -9.1980  -20.9850    8.8160 C   0  0  0  0  0  0  0  0  0  0  0  0
   -8.2420  -17.3200    9.4860 C   0  0  0  0  0  0  0  0  0  0  0  0
   -7.1160  -17.6920    9.7350 O   0  0  0  0  0  0  0  0  0  0  0  0
   -7.2110  -14.8560    7.6530 C   0  0  0  0  0  0  0  0  0  0  0  0
   -6.5380  -14.2430    6.5890 C   0  0  0  0  0  0  0  0  0  0  0  0
   -5.2159  -13.3680    4.5381 H   0  0  0  0  0  0  0  0  0  0  0  0
   -5.5302  -14.8161    3.5228 H   0  0  0  0  0  0  0  0  0  0  0  0
   -6.6956  -13.4492    3.5228 H   0  0  0  0  0  0  0  0  0  0  0  0
   -7.7726  -16.0963    4.0194 H   0  0  0  0  0  0  0  0  0  0  0  0
   -8.9727  -17.1818    5.9052 H   0  0  0  0  0  0  0  0  0  0  0  0
  -10.4120  -15.3781    9.1411 H   0  0  0  0  0  0  0  0  0  0  0  0
  -10.7923  -16.4638    7.8081 H   0  0  0  0  0  0  0  0  0  0  0  0
  -11.3140  -17.0946   10.4570 H   0  0  0  0  0  0  0  0  0  0  0  0
  -10.9825  -18.3556    9.2745 H   0  0  0  0  0  0  0  0  0  0  0  0
   -9.1360  -17.0740   11.2330 H   0  0  0  0  0  0  0  0  0  0  0  0
   -8.3269  -19.6667   10.3593 H   0  0  0  0  0  0  0  0  0  0  0  0
   -8.8814  -19.1167   12.0226 H   0  0  0  0  0  0  0  0  0  0  0  0
  -10.5878  -20.5310   11.7907 H   0  0  0  0  0  0  0  0  0  0  0  0
  -11.2184  -19.3233   10.5513 H   0  0  0  0  0  0  0  0  0  0  0  0
  -10.3600  -22.0220   10.2010 H   0  0  0  0  0  0  0  0  0  0  0  0
  -11.9242  -22.1138    8.6023 H   0  0  0  0  0  0  0  0  0  0  0  0
  -12.4997  -20.6836    9.5552 H   0  0  0  0  0  0  0  0  0  0  0  0
  -12.5949  -19.9888    7.3355 H   0  0  0  0  0  0  0  0  0  0  0  0
  -10.9989  -19.3288    8.0279 H   0  0  0  0  0  0  0  0  0  0  0  0
  -11.4677  -20.8064    5.6379 H   0  0  0  0  0  0  0  0  0  0  0  0
   -9.9468  -20.0502    6.3471 H   0  0  0  0  0  0  0  0  0  0  0  0
  -10.9614  -22.8342    6.9588 H   0  0  0  0  0  0  0  0  0  0  0  0
   -9.6507  -22.3971    5.7726 H   0  0  0  0  0  0  0  0  0  0  0  0
   -9.2454  -23.0738    8.3858 H   0  0  0  0  0  0  0  0  0  0  0  0
   -8.1478  -22.0362    7.3250 H   0  0  0  0  0  0  0  0  0  0  0  0
   -8.2848  -20.9860    9.4292 H   0  0  0  0  0  0  0  0  0  0  0  0
   -9.2947  -20.0513    8.2426 H   0  0  0  0  0  0  0  0  0  0  0  0
   -7.0408  -14.4973    8.6789 H   0  0  0  0  0  0  0  0  0  0  0  0
   -5.8408  -13.4164    6.7903 H   0  0  0  0  0  0  0  0  0  0  0  0
  1  2  1  0
  2  3  2  0
  3  4  1  0
  4  5  2  0
  5  6  1  0
  6  7  1  0
  7  8  1  0
  8  9  1  0
  9 10  1  0
 10 11  1  0
 11 12  1  0
 12 13  1  0
 13 14  1  0
 14 15  1  0
 15 16  1  0
 16 17  1  0
 17 18  1  0
  9 19  1  0
 19 20  2  0
  5 21  1  0
 21 22  2  0
 22  2  1  0
 19  6  1  0
 18 12  1  0
  1 23  1  0
  1 24  1  0
  1 25  1  0
  3 26  1  0
  4 27  1  0
  7 28  1  0
  7 29  1  0
  8 30  1  0
  8 31  1  0
  9 32  1  0
 10 33  1  0
 10 34  1  0
 11 35  1  0
 11 36  1  0
 12 37  1  0
 13 38  1  0
 13 39  1  0
 14 40  1  0
 14 41  1  0
 15 42  1  0
 15 43  1  0
 16 44  1  0
 16 45  1  0
 17 46  1  0
 17 47  1  0
 18 48  1  0
 18 49  1  0
 21 50  1  0
 22 51  1  0
M  CHG  2   9   1  12   1
M  END
>  <meeko>  (2) 
{"is_sidechain": [false], "free_energy": -4.519, "intermolecular_energy": -7.428, "internal_energy": -0.223}

$$$$
LIB_INKAJKATDMQGKQ__M_PUB_ALL__e8__s20260927
     RDKit          3D

 51 53  0  0  0  0  0  0  0  0999 V2000
   13.8590  -10.2220    0.1510 C   0  0  0  0  0  0  0  0  0  0  0  0
   12.7770  -11.1560   -0.3110 C   0  0  0  0  0  0  0  0  0  0  0  0
   12.8630  -11.7810   -1.5560 C   0  0  0  0  0  0  0  0  0  0  0  0
   11.8690  -12.6750   -1.9740 C   0  0  0  0  0  0  0  0  0  0  0  0
   10.7690  -12.9740   -1.1560 C   0  0  0  0  0  0  0  0  0  0  0  0
    9.7690  -13.8810   -1.5950 N   0  0  0  0  0  0  0  0  0  0  0  0
    9.8510  -15.3050   -1.3840 C   0  0  0  0  0  0  0  0  0  0  0  0
    8.4560  -15.8210   -1.7190 C   0  0  0  0  0  0  0  0  0  0  0  0
    7.8790  -14.7710   -2.6660 N   0  0  0  0  0  0  0  0  0  0  0  0
    6.3800  -14.6260   -2.5710 C   0  0  0  0  0  0  0  0  0  0  0  0
    5.8220  -14.4930   -1.1150 C   0  0  0  0  0  0  0  0  0  0  0  0
    5.7460  -13.0680   -0.5720 N   0  0  0  0  0  0  0  0  0  0  0  0
    4.3330  -12.7130   -0.1170 C   0  0  0  0  0  0  0  0  0  0  0  0
    3.6580  -13.8860    0.5790 C   0  0  0  0  0  0  0  0  0  0  0  0
    4.0200  -14.1380    2.0600 C   0  0  0  0  0  0  0  0  0  0  0  0
    5.2470  -13.3870    2.5660 C   0  0  0  0  0  0  0  0  0  0  0  0
    6.5040  -13.6940    1.7550 C   0  0  0  0  0  0  0  0  0  0  0  0
    6.7460  -12.8040    0.5440 C   0  0  0  0  0  0  0  0  0  0  0  0
    8.6560  -13.5780   -2.3270 C   0  0  0  0  0  0  0  0  0  0  0  0
    8.2000  -12.5490   -2.7770 O   0  0  0  0  0  0  0  0  0  0  0  0
   10.7010  -12.3500    0.0970 C   0  0  0  0  0  0  0  0  0  0  0  0
   11.6950  -11.4570    0.5160 C   0  0  0  0  0  0  0  0  0  0  0  0
   13.8817  -10.2024    1.2506 H   0  0  0  0  0  0  0  0  0  0  0  0
   14.8307  -10.5697   -0.2296 H   0  0  0  0  0  0  0  0  0  0  0  0
   13.6569   -9.2099   -0.2296 H   0  0  0  0  0  0  0  0  0  0  0  0
   13.7185  -11.5697   -2.2144 H   0  0  0  0  0  0  0  0  0  0  0  0
   11.9524  -13.1515   -2.9619 H   0  0  0  0  0  0  0  0  0  0  0  0
   10.6022  -15.7542   -2.0502 H   0  0  0  0  0  0  0  0  0  0  0  0
   10.1560  -15.5592   -0.3582 H   0  0  0  0  0  0  0  0  0  0  0  0
    8.5123  -16.8020   -2.2135 H   0  0  0  0  0  0  0  0  0  0  0  0
    7.8351  -15.9626   -0.8221 H   0  0  0  0  0  0  0  0  0  0  0  0
    8.1850  -14.9980   -3.6200 H   0  0  0  0  0  0  0  0  0  0  0  0
    6.0874  -13.7265   -3.1326 H   0  0  0  0  0  0  0  0  0  0  0  0
    5.9537  -15.5533   -2.9813 H   0  0  0  0  0  0  0  0  0  0  0  0
    4.8070  -14.9167   -1.1002 H   0  0  0  0  0  0  0  0  0  0  0  0
    6.5327  -15.0273   -0.4674 H   0  0  0  0  0  0  0  0  0  0  0  0
    5.9720  -12.4210   -1.3540 H   0  0  0  0  0  0  0  0  0  0  0  0
    4.3853  -11.8651    0.5819 H   0  0  0  0  0  0  0  0  0  0  0  0
    3.7401  -12.4527   -1.0062 H   0  0  0  0  0  0  0  0  0  0  0  0
    2.5719  -13.7190    0.5286 H   0  0  0  0  0  0  0  0  0  0  0  0
    4.0210  -14.7766    0.0452 H   0  0  0  0  0  0  0  0  0  0  0  0
    3.1596  -13.8382    2.6763 H   0  0  0  0  0  0  0  0  0  0  0  0
    4.2642  -15.2078    2.1365 H   0  0  0  0  0  0  0  0  0  0  0  0
    5.0466  -12.3069    2.5085 H   0  0  0  0  0  0  0  0  0  0  0  0
    5.4320  -13.7129    3.6002 H   0  0  0  0  0  0  0  0  0  0  0  0
    7.3705  -13.5945    2.4253 H   0  0  0  0  0  0  0  0  0  0  0  0
    6.3608  -14.7089    1.3555 H   0  0  0  0  0  0  0  0  0  0  0  0
    6.6608  -11.7522    0.8546 H   0  0  0  0  0  0  0  0  0  0  0  0
    7.7511  -13.0267    0.1566 H   0  0  0  0  0  0  0  0  0  0  0  0
    9.8523  -12.5654    0.7628 H   0  0  0  0  0  0  0  0  0  0  0  0
   11.6216  -10.9878    1.5082 H   0  0  0  0  0  0  0  0  0  0  0  0
  1  2  1  0
  2  3  2  0
  3  4  1  0
  4  5  2  0
  5  6  1  0
  6  7  1  0
  7  8  1  0
  8  9  1  0
  9 10  1  0
 10 11  1  0
 11 12  1  0
 12 13  1  0
 13 14  1  0
 14 15  1  0
 15 16  1  0
 16 17  1  0
 17 18  1  0
  9 19  1  0
 19 20  2  0
  5 21  1  0
 21 22  2  0
 22  2  1  0
 19  6  1  0
 18 12  1  0
  1 23  1  0
  1 24  1  0
  1 25  1  0
  3 26  1  0
  4 27  1  0
  7 28  1  0
  7 29  1  0
  8 30  1  0
  8 31  1  0
  9 32  1  0
 10 33  1  0
 10 34  1  0
 11 35  1  0
 11 36  1  0
 12 37  1  0
 13 38  1  0
 13 39  1  0
 14 40  1  0
 14 41  1  0
 15 42  1  0
 15 43  1  0
 16 44  1  0
 16 45  1  0
 17 46  1  0
 17 47  1  0
 18 48  1  0
 18 49  1  0
 21 50  1  0
 22 51  1  0
M  CHG  2   9   1  12   1
M  END
>  <meeko>  (3) 
{"is_sidechain": [false], "free_energy": -4.19, "intermolecular_energy": -6.742, "internal_energy": -0.389}

$$$$
LIB_INKAJKATDMQGKQ__M_PUB_ALL__e8__s20260927
     RDKit          3D

 51 53  0  0  0  0  0  0  0  0999 V2000
   13.8990  -11.9480   -3.2090 C   0  0  0  0  0  0  0  0  0  0  0  0
   12.6260  -12.1620   -2.4420 C   0  0  0  0  0  0  0  0  0  0  0  0
   12.6050  -12.0420   -1.0520 C   0  0  0  0  0  0  0  0  0  0  0  0
   11.4120  -12.2120   -0.3400 C   0  0  0  0  0  0  0  0  0  0  0  0
   10.2060  -12.4970   -0.9990 C   0  0  0  0  0  0  0  0  0  0  0  0
    9.0050  -12.6690   -0.2620 N   0  0  0  0  0  0  0  0  0  0  0  0
    8.6620  -11.8610    0.8830 C   0  0  0  0  0  0  0  0  0  0  0  0
    7.1920  -12.1710    1.1420 C   0  0  0  0  0  0  0  0  0  0  0  0
    6.9830  -13.5570    0.5340 N   0  0  0  0  0  0  0  0  0  0  0  0
    5.5880  -13.7850    0.0060 C   0  0  0  0  0  0  0  0  0  0  0  0
    4.8900  -12.5120   -0.5790 C   0  0  0  0  0  0  0  0  0  0  0  0
    4.7170  -12.5010   -2.0970 N   0  0  0  0  0  0  0  0  0  0  0  0
    5.8250  -11.7070   -2.7840 C   0  0  0  0  0  0  0  0  0  0  0  0
    6.3650  -12.4390   -4.0030 C   0  0  0  0  0  0  0  0  0  0  0  0
    5.4440  -12.5270   -5.2470 C   0  0  0  0  0  0  0  0  0  0  0  0
    3.9740  -12.7680   -4.9250 C   0  0  0  0  0  0  0  0  0  0  0  0
    3.7630  -13.9250   -3.9510 C   0  0  0  0  0  0  0  0  0  0  0  0
    4.6170  -13.8970   -2.6920 C   0  0  0  0  0  0  0  0  0  0  0  0
    8.0580  -13.6340   -0.4560 C   0  0  0  0  0  0  0  0  0  0  0  0
    7.9380  -14.5480   -1.2430 O   0  0  0  0  0  0  0  0  0  0  0  0
   10.2370  -12.6020   -2.3960 C   0  0  0  0  0  0  0  0  0  0  0  0
   11.4300  -12.4310   -3.1090 C   0  0  0  0  0  0  0  0  0  0  0  0
   14.7323  -11.8079   -2.5047 H   0  0  0  0  0  0  0  0  0  0  0  0
   14.0975  -12.8254   -3.8421 H   0  0  0  0  0  0  0  0  0  0  0  0
   13.7998  -11.0539   -3.8421 H   0  0  0  0  0  0  0  0  0  0  0  0
   13.5345  -11.8117   -0.5108 H   0  0  0  0  0  0  0  0  0  0  0  0
   11.4197  -12.1206    0.7562 H   0  0  0  0  0  0  0  0  0  0  0  0
    9.2767  -12.1375    1.7523 H   0  0  0  0  0  0  0  0  0  0  0  0
    8.8390  -10.7897    0.7072 H   0  0  0  0  0  0  0  0  0  0  0  0
    6.9812  -12.1837    2.2215 H   0  0  0  0  0  0  0  0  0  0  0  0
    6.5212  -11.4163    0.7057 H   0  0  0  0  0  0  0  0  0  0  0  0
    7.2480  -14.2580    1.2370 H   0  0  0  0  0  0  0  0  0  0  0  0
    5.6433  -14.5413   -0.7908 H   0  0  0  0  0  0  0  0  0  0  0  0
    4.9802  -14.1032    0.8659 H   0  0  0  0  0  0  0  0  0  0  0  0
    3.8923  -12.4317   -0.1228 H   0  0  0  0  0  0  0  0  0  0  0  0
    5.5525  -11.6663   -0.3425 H   0  0  0  0  0  0  0  0  0  0  0  0
    3.8290  -12.0050   -2.3080 H   0  0  0  0  0  0  0  0  0  0  0  0
    5.4226  -10.7337   -3.1013 H   0  0  0  0  0  0  0  0  0  0  0  0
    6.6496  -11.5765   -2.0678 H   0  0  0  0  0  0  0  0  0  0  0  0
    7.2892  -11.9288   -4.3119 H   0  0  0  0  0  0  0  0  0  0  0  0
    6.4926  -13.4804   -3.6727 H   0  0  0  0  0  0  0  0  0  0  0  0
    5.5241  -11.5808   -5.8022 H   0  0  0  0  0  0  0  0  0  0  0  0
    5.7847  -13.3956   -5.8296 H   0  0  0  0  0  0  0  0  0  0  0  0
    3.5574  -11.8528   -4.4790 H   0  0  0  0  0  0  0  0  0  0  0  0
    3.4679  -13.0308   -5.8657 H   0  0  0  0  0  0  0  0  0  0  0  0
    2.7072  -13.9177   -3.6425 H   0  0  0  0  0  0  0  0  0  0  0  0
    4.0647  -14.8318   -4.4956 H   0  0  0  0  0  0  0  0  0  0  0  0
    4.1693  -14.5692   -1.9452 H   0  0  0  0  0  0  0  0  0  0  0  0
    5.6320  -14.2214   -2.9650 H   0  0  0  0  0  0  0  0  0  0  0  0
    9.3080  -12.8226   -2.9421 H   0  0  0  0  0  0  0  0  0  0  0  0
   11.4244  -12.5095   -4.2062 H   0  0  0  0  0  0  0  0  0  0  0  0
  1  2  1  0
  2  3  2  0
  3  4  1  0
  4  5  2  0
  5  6  1  0
  6  7  1  0
  7  8  1  0
  8  9  1  0
  9 10  1  0
 10 11  1  0
 11 12  1  0
 12 13  1  0
 13 14  1  0
 14 15  1  0
 15 16  1  0
 16 17  1  0
 17 18  1  0
  9 19  1  0
 19 20  2  0
  5 21  1  0
 21 22  2  0
 22  2  1  0
 19  6  1  0
 18 12  1  0
  1 23  1  0
  1 24  1  0
  1 25  1  0
  3 26  1  0
  4 27  1  0
  7 28  1  0
  7 29  1  0
  8 30  1  0
  8 31  1  0
  9 32  1  0
 10 33  1  0
 10 34  1  0
 11 35  1  0
 11 36  1  0
 12 37  1  0
 13 38  1  0
 13 39  1  0
 14 40  1  0
 14 41  1  0
 15 42  1  0
 15 43  1  0
 16 44  1  0
 16 45  1  0
 17 46  1  0
 17 47  1  0
 18 48  1  0
 18 49  1  0
 21 50  1  0
 22 51  1  0
M  CHG  2   9   1  12   1
M  END
>  <meeko>  (4) 
{"is_sidechain": [false], "free_energy": -4.158, "intermolecular_energy": -6.998, "internal_energy": -0.081}

$$$$
LIB_INKAJKATDMQGKQ__M_PUB_ALL__e8__s20260927
     RDKit          3D

 51 53  0  0  0  0  0  0  0  0999 V2000
   19.4360   -6.1820    9.9320 C   0  0  0  0  0  0  0  0  0  0  0  0
   18.3970   -6.8320   10.7990 C   0  0  0  0  0  0  0  0  0  0  0  0
   17.0990   -6.3220   10.8570 C   0  0  0  0  0  0  0  0  0  0  0  0
   16.1220   -6.9450   11.6420 C   0  0  0  0  0  0  0  0  0  0  0  0
   16.4130   -8.1010   12.3830 C   0  0  0  0  0  0  0  0  0  0  0  0
   15.4120   -8.7200   13.1760 N   0  0  0  0  0  0  0  0  0  0  0  0
   15.5640   -8.9560   14.5910 C   0  0  0  0  0  0  0  0  0  0  0  0
   14.1650   -9.3290   15.0670 C   0  0  0  0  0  0  0  0  0  0  0  0
   13.4700   -9.8700   13.8200 N   0  0  0  0  0  0  0  0  0  0  0  0
   11.9810   -9.6290   13.8010 C   0  0  0  0  0  0  0  0  0  0  0  0
   11.3610   -9.2280   15.1810 C   0  0  0  0  0  0  0  0  0  0  0  0
   10.1970   -8.2420   15.1140 N   0  0  0  0  0  0  0  0  0  0  0  0
   10.6800   -6.8170   14.8560 C   0  0  0  0  0  0  0  0  0  0  0  0
    9.8660   -5.7990   15.6420 C   0  0  0  0  0  0  0  0  0  0  0  0
    8.4060   -5.5550   15.2100 C   0  0  0  0  0  0  0  0  0  0  0  0
    7.9540   -6.3470   13.9880 C   0  0  0  0  0  0  0  0  0  0  0  0
    7.8540   -7.8460   14.2580 C   0  0  0  0  0  0  0  0  0  0  0  0
    9.1430   -8.6380   14.0920 C   0  0  0  0  0  0  0  0  0  0  0  0
   14.2300   -9.2440   12.7370 C   0  0  0  0  0  0  0  0  0  0  0  0
   13.6990   -9.3280   11.6510 O   0  0  0  0  0  0  0  0  0  0  0  0
   17.7160   -8.6120   12.3060 C   0  0  0  0  0  0  0  0  0  0  0  0
   18.6930   -7.9890   11.5210 C   0  0  0  0  0  0  0  0  0  0  0  0
   20.1975   -5.7056   10.5669 H   0  0  0  0  0  0  0  0  0  0  0  0
   19.9122   -6.9435    9.2969 H   0  0  0  0  0  0  0  0  0  0  0  0
   18.9595   -5.4207    9.2969 H   0  0  0  0  0  0  0  0  0  0  0  0
   16.8414   -5.4216   10.2801 H   0  0  0  0  0  0  0  0  0  0  0  0
   15.1077   -6.5210   11.6789 H   0  0  0  0  0  0  0  0  0  0  0  0
   16.2698   -9.7796   14.7744 H   0  0  0  0  0  0  0  0  0  0  0  0
   15.9669   -8.0801   15.1207 H   0  0  0  0  0  0  0  0  0  0  0  0
   14.2132  -10.0994   15.8507 H   0  0  0  0  0  0  0  0  0  0  0  0
   13.6304   -8.4741   15.5068 H   0  0  0  0  0  0  0  0  0  0  0  0
   13.6990  -10.8680   13.7320 H   0  0  0  0  0  0  0  0  0  0  0  0
   11.7750   -8.8193   13.0855 H   0  0  0  0  0  0  0  0  0  0  0  0
   11.5170  -10.5861   13.5206 H   0  0  0  0  0  0  0  0  0  0  0  0
   11.0014  -10.1449   15.6708 H   0  0  0  0  0  0  0  0  0  0  0  0
   12.1610   -8.7155   15.7354 H   0  0  0  0  0  0  0  0  0  0  0  0
    9.7400   -8.2310   16.0470 H   0  0  0  0  0  0  0  0  0  0  0  0
   11.7355   -6.7380   15.1554 H   0  0  0  0  0  0  0  0  0  0  0  0
   10.5587   -6.6012   13.7842 H   0  0  0  0  0  0  0  0  0  0  0  0
    9.8462   -6.1338   16.6896 H   0  0  0  0  0  0  0  0  0  0  0  0
   10.3722   -4.8398   15.4586 H   0  0  0  0  0  0  0  0  0  0  0  0
    7.7516   -5.8242   16.0522 H   0  0  0  0  0  0  0  0  0  0  0  0
    8.3422   -4.4935   14.9288 H   0  0  0  0  0  0  0  0  0  0  0  0
    6.9650   -5.9792   13.6770 H   0  0  0  0  0  0  0  0  0  0  0  0
    8.7093   -6.2020   13.2016 H   0  0  0  0  0  0  0  0  0  0  0  0
    7.5070   -7.9797   15.2932 H   0  0  0  0  0  0  0  0  0  0  0  0
    7.1623   -8.2400   13.4989 H   0  0  0  0  0  0  0  0  0  0  0  0
    8.9188   -9.7083   14.2111 H   0  0  0  0  0  0  0  0  0  0  0  0
    9.5453   -8.4218   13.0913 H   0  0  0  0  0  0  0  0  0  0  0  0
   17.9752   -9.5186   12.8725 H   0  0  0  0  0  0  0  0  0  0  0  0
   19.7055   -8.4161   11.4726 H   0  0  0  0  0  0  0  0  0  0  0  0
  1  2  1  0
  2  3  2  0
  3  4  1  0
  4  5  2  0
  5  6  1  0
  6  7  1  0
  7  8  1  0
  8  9  1  0
  9 10  1  0
 10 11  1  0
 11 12  1  0
 12 13  1  0
 13 14  1  0
 14 15  1  0
 15 16  1  0
 16 17  1  0
 17 18  1  0
  9 19  1  0
 19 20  2  0
  5 21  1  0
 21 22  2  0
 22  2  1  0
 19  6  1  0
 18 12  1  0
  1 23  1  0
  1 24  1  0
  1 25  1  0
  3 26  1  0
  4 27  1  0
  7 28  1  0
  7 29  1  0
  8 30  1  0
  8 31  1  0
  9 32  1  0
 10 33  1  0
 10 34  1  0
 11 35  1  0
 11 36  1  0
 12 37  1  0
 13 38  1  0
 13 39  1  0
 14 40  1  0
 14 41  1  0
 15 42  1  0
 15 43  1  0
 16 44  1  0
 16 45  1  0
 17 46  1  0
 17 47  1  0
 18 48  1  0
 18 49  1  0
 21 50  1  0
 22 51  1  0
M  CHG  2   9   1  12   1
M  END
>  <meeko>  (5) 
{"is_sidechain": [false], "free_energy": -3.972, "intermolecular_energy": -6.831, "internal_energy": 0.046}

$$$$
LIB_INKAJKATDMQGKQ__M_PUB_ALL__e8__s20260927
     RDKit          3D

 51 53  0  0  0  0  0  0  0  0999 V2000
   13.8860  -15.9550   -5.0150 C   0  0  0  0  0  0  0  0  0  0  0  0
   13.2290  -15.2580   -3.8580 C   0  0  0  0  0  0  0  0  0  0  0  0
   12.9040  -13.9030   -3.9380 C   0  0  0  0  0  0  0  0  0  0  0  0
   12.2650  -13.2600   -2.8710 C   0  0  0  0  0  0  0  0  0  0  0  0
   11.9240  -13.9560   -1.7020 C   0  0  0  0  0  0  0  0  0  0  0  0
   11.2770  -13.2880   -0.6280 N   0  0  0  0  0  0  0  0  0  0  0  0
   11.9920  -12.5480    0.3830 C   0  0  0  0  0  0  0  0  0  0  0  0
   10.9120  -11.7610    1.1150 C   0  0  0  0  0  0  0  0  0  0  0  0
    9.6330  -12.5640    0.8830 N   0  0  0  0  0  0  0  0  0  0  0  0
    8.3840  -11.7190    0.8410 C   0  0  0  0  0  0  0  0  0  0  0  0
    7.0810  -12.4470    1.3110 C   0  0  0  0  0  0  0  0  0  0  0  0
    6.2260  -13.0430    0.1950 N   0  0  0  0  0  0  0  0  0  0  0  0
    5.2020  -14.0360    0.7380 C   0  0  0  0  0  0  0  0  0  0  0  0
    5.0480  -15.2400   -0.1800 C   0  0  0  0  0  0  0  0  0  0  0  0
    4.4580  -15.0030   -1.5810 C   0  0  0  0  0  0  0  0  0  0  0  0
    3.9110  -13.6030   -1.8390 C   0  0  0  0  0  0  0  0  0  0  0  0
    5.0120  -12.5520   -1.9650 C   0  0  0  0  0  0  0  0  0  0  0  0
    5.5400  -11.9850   -0.6550 C   0  0  0  0  0  0  0  0  0  0  0  0
    9.9420  -13.3040   -0.3410 C   0  0  0  0  0  0  0  0  0  0  0  0
    8.9770  -13.8210   -0.8610 O   0  0  0  0  0  0  0  0  0  0  0  0
   12.2430  -15.3190   -1.6390 C   0  0  0  0  0  0  0  0  0  0  0  0
   12.8820  -15.9630   -2.7050 C   0  0  0  0  0  0  0  0  0  0  0  0
   14.5943  -16.7065   -4.6361 H   0  0  0  0  0  0  0  0  0  0  0  0
   13.1188  -16.4505   -5.6281 H   0  0  0  0  0  0  0  0  0  0  0  0
   14.4260  -15.2184   -5.6281 H   0  0  0  0  0  0  0  0  0  0  0  0
   13.1520  -13.3355   -4.8471 H   0  0  0  0  0  0  0  0  0  0  0  0
   12.0260  -12.1893   -2.9510 H   0  0  0  0  0  0  0  0  0  0  0  0
   12.5095  -13.2316    1.0721 H   0  0  0  0  0  0  0  0  0  0  0  0
   12.7670  -11.8956   -0.0457 H   0  0  0  0  0  0  0  0  0  0  0  0
   11.1399  -11.6938    2.1890 H   0  0  0  0  0  0  0  0  0  0  0  0
   10.8288  -10.7260    0.7519 H   0  0  0  0  0  0  0  0  0  0  0  0
    9.5790  -13.2960    1.6020 H   0  0  0  0  0  0  0  0  0  0  0  0
    8.5405  -10.8450    1.4904 H   0  0  0  0  0  0  0  0  0  0  0  0
    8.2259  -11.4537   -0.2147 H   0  0  0  0  0  0  0  0  0  0  0  0
    7.3735  -13.2635    1.9876 H   0  0  0  0  0  0  0  0  0  0  0  0
    6.4594  -11.6769    1.7912 H   0  0  0  0  0  0  0  0  0  0  0  0
    6.8560  -13.5850   -0.4280 H   0  0  0  0  0  0  0  0  0  0  0  0
    5.5311  -14.3823    1.7288 H   0  0  0  0  0  0  0  0  0  0  0  0
    4.2294  -13.5263    0.8032 H   0  0  0  0  0  0  0  0  0  0  0  0
    6.0472  -15.6797   -0.3149 H   0  0  0  0  0  0  0  0  0  0  0  0
    4.3115  -15.8816    0.3258 H   0  0  0  0  0  0  0  0  0  0  0  0
    5.2502  -15.1978   -2.3189 H   0  0  0  0  0  0  0  0  0  0  0  0
    3.5963  -15.6818   -1.6627 H   0  0  0  0  0  0  0  0  0  0  0  0
    3.3314  -13.6188   -2.7738 H   0  0  0  0  0  0  0  0  0  0  0  0
    3.2865  -13.3270   -0.9766 H   0  0  0  0  0  0  0  0  0  0  0  0
    5.8571  -13.0110   -2.4990 H   0  0  0  0  0  0  0  0  0  0  0  0
    4.5553  -11.7033   -2.4952 H   0  0  0  0  0  0  0  0  0  0  0  0
    6.2638  -11.1879   -0.8804 H   0  0  0  0  0  0  0  0  0  0  0  0
    4.6824  -11.5983   -0.0849 H   0  0  0  0  0  0  0  0  0  0  0  0
   11.9868  -15.8929   -0.7362 H   0  0  0  0  0  0  0  0  0  0  0  0
   13.1130  -17.0361   -2.6330 H   0  0  0  0  0  0  0  0  0  0  0  0
  1  2  1  0
  2  3  2  0
  3  4  1  0
  4  5  2  0
  5  6  1  0
  6  7  1  0
  7  8  1  0
  8  9  1  0
  9 10  1  0
 10 11  1  0
 11 12  1  0
 12 13  1  0
 13 14  1  0
 14 15  1  0
 15 16  1  0
 16 17  1  0
 17 18  1  0
  9 19  1  0
 19 20  2  0
  5 21  1  0
 21 22  2  0
 22  2  1  0
 19  6  1  0
 18 12  1  0
  1 23  1  0
  1 24  1  0
  1 25  1  0
  3 26  1  0
  4 27  1  0
  7 28  1  0
  7 29  1  0
  8 30  1  0
  8 31  1  0
  9 32  1  0
 10 33  1  0
 10 34  1  0
 11 35  1  0
 11 36  1  0
 12 37  1  0
 13 38  1  0
 13 39  1  0
 14 40  1  0
 14 41  1  0
 15 42  1  0
 15 43  1  0
 16 44  1  0
 16 45  1  0
 17 46  1  0
 17 47  1  0
 18 48  1  0
 18 49  1  0
 21 50  1  0
 22 51  1  0
M  CHG  2   9   1  12   1
M  END
>  <meeko>  (6) 
{"is_sidechain": [false], "free_energy": -3.96, "intermolecular_energy": -6.606, "internal_energy": -0.16}

$$$$
LIB_INKAJKATDMQGKQ__M_PUB_ALL__e8__s20260927
     RDKit          3D

 51 53  0  0  0  0  0  0  0  0999 V2000
   12.4860  -15.3040   11.7500 C   0  0  0  0  0  0  0  0  0  0  0  0
   12.5810  -13.8750   12.2010 C   0  0  0  0  0  0  0  0  0  0  0  0
   13.4950  -13.0040   11.6070 C   0  0  0  0  0  0  0  0  0  0  0  0
   13.5640  -11.6630   12.0070 C   0  0  0  0  0  0  0  0  0  0  0  0
   12.7150  -11.1570   13.0020 C   0  0  0  0  0  0  0  0  0  0  0  0
   12.7980   -9.7960   13.3970 N   0  0  0  0  0  0  0  0  0  0  0  0
   11.6380   -8.9810   13.6640 C   0  0  0  0  0  0  0  0  0  0  0  0
   12.1940   -7.7370   14.3460 C   0  0  0  0  0  0  0  0  0  0  0  0
   13.6430   -7.6570   13.8690 N   0  0  0  0  0  0  0  0  0  0  0  0
   14.5790   -7.0320   14.8730 C   0  0  0  0  0  0  0  0  0  0  0  0
   15.5470   -5.9500   14.2860 C   0  0  0  0  0  0  0  0  0  0  0  0
   16.5570   -6.4640   13.2620 N   0  0  0  0  0  0  0  0  0  0  0  0
   16.8030   -5.4430   12.1540 C   0  0  0  0  0  0  0  0  0  0  0  0
   16.9850   -6.1180   10.8020 C   0  0  0  0  0  0  0  0  0  0  0  0
   18.3240   -6.8120   10.5470 C   0  0  0  0  0  0  0  0  0  0  0  0
   19.2860   -6.8220   11.7300 C   0  0  0  0  0  0  0  0  0  0  0  0
   18.7640   -7.6390   12.9090 C   0  0  0  0  0  0  0  0  0  0  0  0
   17.8730   -6.8920   13.8920 C   0  0  0  0  0  0  0  0  0  0  0  0
   13.9340   -9.0450   13.5060 C   0  0  0  0  0  0  0  0  0  0  0  0
   15.1120   -9.2730   13.3370 O   0  0  0  0  0  0  0  0  0  0  0  0
   11.7910  -12.0380   13.5810 C   0  0  0  0  0  0  0  0  0  0  0  0
   11.7220  -13.3780   13.1810 C   0  0  0  0  0  0  0  0  0  0  0  0
   12.4421  -15.9638   12.6291 H   0  0  0  0  0  0  0  0  0  0  0  0
   11.5770  -15.4380   11.1453 H   0  0  0  0  0  0  0  0  0  0  0  0
   13.3693  -15.5571   11.1453 H   0  0  0  0  0  0  0  0  0  0  0  0
   14.1669  -13.3732   10.8182 H   0  0  0  0  0  0  0  0  0  0  0  0
   14.2974  -10.9949   11.5320 H   0  0  0  0  0  0  0  0  0  0  0  0
   11.1260   -8.7149   12.7275 H   0  0  0  0  0  0  0  0  0  0  0  0
   10.8951   -9.5020   14.2858 H   0  0  0  0  0  0  0  0  0  0  0  0
   11.6334   -6.8417   14.0393 H   0  0  0  0  0  0  0  0  0  0  0  0
   12.1159   -7.7897   15.4420 H   0  0  0  0  0  0  0  0  0  0  0  0
   13.6570   -7.1620   12.9690 H   0  0  0  0  0  0  0  0  0  0  0  0
   13.9714   -6.5575   15.6577 H   0  0  0  0  0  0  0  0  0  0  0  0
   15.2167   -7.8456   15.2491 H   0  0  0  0  0  0  0  0  0  0  0  0
   14.9358   -5.1747   13.8008 H   0  0  0  0  0  0  0  0  0  0  0  0
   16.1381   -5.5778   15.1357 H   0  0  0  0  0  0  0  0  0  0  0  0
   16.1420   -7.2980   12.8030 H   0  0  0  0  0  0  0  0  0  0  0  0
   15.9420   -4.7606   12.0995 H   0  0  0  0  0  0  0  0  0  0  0  0
   17.7254   -4.8926   12.3913 H   0  0  0  0  0  0  0  0  0  0  0  0
   16.1939   -6.8755   10.7001 H   0  0  0  0  0  0  0  0  0  0  0  0
   16.9421   -5.3010   10.0667 H   0  0  0  0  0  0  0  0  0  0  0  0
   18.1184   -7.8557   10.2668 H   0  0  0  0  0  0  0  0  0  0  0  0
   18.8212   -6.2339    9.7542 H   0  0  0  0  0  0  0  0  0  0  0  0
   20.2436   -7.2518   11.4009 H   0  0  0  0  0  0  0  0  0  0  0  0
   19.4017   -5.7829   12.0720 H   0  0  0  0  0  0  0  0  0  0  0  0
   18.1863   -8.4833   12.5047 H   0  0  0  0  0  0  0  0  0  0  0  0
   19.6542   -7.9383   13.4817 H   0  0  0  0  0  0  0  0  0  0  0  0
   17.6591   -7.5500   14.7471 H   0  0  0  0  0  0  0  0  0  0  0  0
   18.4068   -5.9842   14.2097 H   0  0  0  0  0  0  0  0  0  0  0  0
   11.1092  -11.6706   14.3621 H   0  0  0  0  0  0  0  0  0  0  0  0
   10.9818  -14.0465   13.6450 H   0  0  0  0  0  0  0  0  0  0  0  0
  1  2  1  0
  2  3  2  0
  3  4  1  0
  4  5  2  0
  5  6  1  0
  6  7  1  0
  7  8  1  0
  8  9  1  0
  9 10  1  0
 10 11  1  0
 11 12  1  0
 12 13  1  0
 13 14  1  0
 14 15  1  0
 15 16  1  0
 16 17  1  0
 17 18  1  0
  9 19  1  0
 19 20  2  0
  5 21  1  0
 21 22  2  0
 22  2  1  0
 19  6  1  0
 18 12  1  0
  1 23  1  0
  1 24  1  0
  1 25  1  0
  3 26  1  0
  4 27  1  0
  7 28  1  0
  7 29  1  0
  8 30  1  0
  8 31  1  0
  9 32  1  0
 10 33  1  0
 10 34  1  0
 11 35  1  0
 11 36  1  0
 12 37  1  0
 13 38  1  0
 13 39  1  0
 14 40  1  0
 14 41  1  0
 15 42  1  0
 15 43  1  0
 16 44  1  0
 16 45  1  0
 17 46  1  0
 17 47  1  0
 18 48  1  0
 18 49  1  0
 21 50  1  0
 22 51  1  0
M  CHG  2   9   1  12   1
M  END
>  <meeko>  (7) 
{"is_sidechain": [false], "free_energy": -3.943, "intermolecular_energy": -6.636, "internal_energy": -0.102}

$$$$
LIB_INKAJKATDMQGKQ__M_PUB_ALL__e8__s20260927
     RDKit          3D

 51 53  0  0  0  0  0  0  0  0999 V2000
    1.4990  -11.2510   -1.9400 C   0  0  0  0  0  0  0  0  0  0  0  0
    2.4760  -11.7220   -2.9780 C   0  0  0  0  0  0  0  0  0  0  0  0
    3.7220  -11.1090   -3.1100 C   0  0  0  0  0  0  0  0  0  0  0  0
    4.6450  -11.5680   -4.0580 C   0  0  0  0  0  0  0  0  0  0  0  0
    4.3510  -12.6580   -4.8900 C   0  0  0  0  0  0  0  0  0  0  0  0
    5.2970  -13.1100   -5.8480 N   0  0  0  0  0  0  0  0  0  0  0  0
    6.0840  -14.3070   -5.6720 C   0  0  0  0  0  0  0  0  0  0  0  0
    6.6980  -14.5640   -7.0430 C   0  0  0  0  0  0  0  0  0  0  0  0
    6.7180  -13.1930   -7.7140 N   0  0  0  0  0  0  0  0  0  0  0  0
    6.5740  -13.2490   -9.2150 C   0  0  0  0  0  0  0  0  0  0  0  0
    7.7610  -12.6140  -10.0140 C   0  0  0  0  0  0  0  0  0  0  0  0
    8.7980  -13.6040  -10.5410 N   0  0  0  0  0  0  0  0  0  0  0  0
    9.6850  -12.9750  -11.6120 C   0  0  0  0  0  0  0  0  0  0  0  0
   10.6870  -12.0020  -11.0080 C   0  0  0  0  0  0  0  0  0  0  0  0
   11.8000  -12.5890  -10.1270 C   0  0  0  0  0  0  0  0  0  0  0  0
   12.0670  -14.0750  -10.3390 C   0  0  0  0  0  0  0  0  0  0  0  0
   10.8630  -14.9480   -9.9880 C   0  0  0  0  0  0  0  0  0  0  0  0
    9.6490  -14.2140   -9.4380 C   0  0  0  0  0  0  0  0  0  0  0  0
    5.6610  -12.4750   -7.0000 C   0  0  0  0  0  0  0  0  0  0  0  0
    5.3210  -11.4410   -7.5340 O   0  0  0  0  0  0  0  0  0  0  0  0
    3.1020  -13.2750   -4.7380 C   0  0  0  0  0  0  0  0  0  0  0  0
    2.1790  -12.8160   -3.7910 C   0  0  0  0  0  0  0  0  0  0  0  0
    1.9063  -11.4474   -0.9372 H   0  0  0  0  0  0  0  0  0  0  0  0
    1.3274  -10.1712   -2.0611 H   0  0  0  0  0  0  0  0  0  0  0  0
    0.5474  -11.7893   -2.0611 H   0  0  0  0  0  0  0  0  0  0  0  0
    3.9819  -10.2576   -2.4638 H   0  0  0  0  0  0  0  0  0  0  0  0
    5.6184  -11.0643   -4.1517 H   0  0  0  0  0  0  0  0  0  0  0  0
    6.8689  -14.1490   -4.9177 H   0  0  0  0  0  0  0  0  0  0  0  0
    5.4811  -15.1560   -5.3175 H   0  0  0  0  0  0  0  0  0  0  0  0
    7.7180  -14.9636   -6.9438 H   0  0  0  0  0  0  0  0  0  0  0  0
    6.1308  -15.3064   -7.6236 H   0  0  0  0  0  0  0  0  0  0  0  0
    7.5770  -12.7080   -7.4280 H   0  0  0  0  0  0  0  0  0  0  0  0
    6.4886  -14.3049   -9.5111 H   0  0  0  0  0  0  0  0  0  0  0  0
    5.6821  -12.6546   -9.4622 H   0  0  0  0  0  0  0  0  0  0  0  0
    7.3403  -12.0727  -10.8742 H   0  0  0  0  0  0  0  0  0  0  0  0
    8.2938  -11.9660   -9.3025 H   0  0  0  0  0  0  0  0  0  0  0  0
    8.2840  -14.3790  -11.0050 H   0  0  0  0  0  0  0  0  0  0  0  0
   10.2327  -13.7724  -12.1356 H   0  0  0  0  0  0  0  0  0  0  0  0
    9.0413  -12.4181  -12.3088 H   0  0  0  0  0  0  0  0  0  0  0  0
   11.1711  -11.4686  -11.8393 H   0  0  0  0  0  0  0  0  0  0  0  0
   10.0933  -11.3726  -10.3288 H   0  0  0  0  0  0  0  0  0  0  0  0
   12.7296  -12.0406  -10.3395 H   0  0  0  0  0  0  0  0  0  0  0  0
   11.4604  -12.4810   -9.0863 H   0  0  0  0  0  0  0  0  0  0  0  0
   12.3239  -14.2388  -11.3960 H   0  0  0  0  0  0  0  0  0  0  0  0
   12.8914  -14.3625   -9.6699 H   0  0  0  0  0  0  0  0  0  0  0  0
   10.5522  -15.4768  -10.9011 H   0  0  0  0  0  0  0  0  0  0  0  0
   11.2018  -15.6118   -9.1790 H   0  0  0  0  0  0  0  0  0  0  0  0
    9.0333  -14.9253   -8.8679 H   0  0  0  0  0  0  0  0  0  0  0  0
   10.0105  -13.3952   -8.7986 H   0  0  0  0  0  0  0  0  0  0  0  0
    2.8425  -14.1345   -5.3736 H   0  0  0  0  0  0  0  0  0  0  0  0
    1.2087  -13.3236   -3.6867 H   0  0  0  0  0  0  0  0  0  0  0  0
  1  2  1  0
  2  3  2  0
  3  4  1  0
  4  5  2  0
  5  6  1  0
  6  7  1  0
  7  8  1  0
  8  9  1  0
  9 10  1  0
 10 11  1  0
 11 12  1  0
 12 13  1  0
 13 14  1  0
 14 15  1  0
 15 16  1  0
 16 17  1  0
 17 18  1  0
  9 19  1  0
 19 20  2  0
  5 21  1  0
 21 22  2  0
 22  2  1  0
 19  6  1  0
 18 12  1  0
  1 23  1  0
  1 24  1  0
  1 25  1  0
  3 26  1  0
  4 27  1  0
  7 28  1  0
  7 29  1  0
  8 30  1  0
  8 31  1  0
  9 32  1  0
 10 33  1  0
 10 34  1  0
 11 35  1  0
 11 36  1  0
 12 37  1  0
 13 38  1  0
 13 39  1  0
 14 40  1  0
 14 41  1  0
 15 42  1  0
 15 43  1  0
 16 44  1  0
 16 45  1  0
 17 46  1  0
 17 47  1  0
 18 48  1  0
 18 49  1  0
 21 50  1  0
 22 51  1  0
M  CHG  2   9   1  12   1
M  END
>  <meeko>  (8) 
{"is_sidechain": [false], "free_energy": -3.937, "intermolecular_energy": -6.805, "internal_energy": 0.076}

$$$$
LIB_INKAJKATDMQGKQ__M_PUB_ALL__e8__s20260927
     RDKit          3D

 51 53  0  0  0  0  0  0  0  0999 V2000
   17.5690   -9.9410   12.7170 C   0  0  0  0  0  0  0  0  0  0  0  0
   16.0880   -9.9510   12.9650 C   0  0  0  0  0  0  0  0  0  0  0  0
   15.5310   -9.1540   13.9660 C   0  0  0  0  0  0  0  0  0  0  0  0
   14.1470   -9.1410   14.1790 C   0  0  0  0  0  0  0  0  0  0  0  0
   13.2830   -9.9150   13.3890 C   0  0  0  0  0  0  0  0  0  0  0  0
   11.8820   -9.8920   13.6180 N   0  0  0  0  0  0  0  0  0  0  0  0
   11.0830  -11.0870   13.7280 C   0  0  0  0  0  0  0  0  0  0  0  0
    9.7470  -10.6040   14.2780 C   0  0  0  0  0  0  0  0  0  0  0  0
    9.6740   -9.1360   13.8640 N   0  0  0  0  0  0  0  0  0  0  0  0
    8.8990   -8.2700   14.8270 C   0  0  0  0  0  0  0  0  0  0  0  0
    7.9420   -7.2300   14.1530 C   0  0  0  0  0  0  0  0  0  0  0  0
    6.5880   -7.0510   14.8350 N   0  0  0  0  0  0  0  0  0  0  0  0
    5.8500   -5.8230   14.3080 C   0  0  0  0  0  0  0  0  0  0  0  0
    5.0700   -5.1220   15.4100 C   0  0  0  0  0  0  0  0  0  0  0  0
    3.7750   -5.7730   15.9010 C   0  0  0  0  0  0  0  0  0  0  0  0
    3.4600   -7.1310   15.2850 C   0  0  0  0  0  0  0  0  0  0  0  0
    4.4900   -8.1990   15.6470 C   0  0  0  0  0  0  0  0  0  0  0  0
    5.7050   -8.2850   14.7340 C   0  0  0  0  0  0  0  0  0  0  0  0
   11.0840   -8.7860   13.6880 C   0  0  0  0  0  0  0  0  0  0  0  0
   11.2890   -7.5940   13.6040 O   0  0  0  0  0  0  0  0  0  0  0  0
   13.8530  -10.7000   12.3780 C   0  0  0  0  0  0  0  0  0  0  0  0
   15.2370  -10.7140   12.1660 C   0  0  0  0  0  0  0  0  0  0  0  0
   18.1019   -9.9374   13.6793 H   0  0  0  0  0  0  0  0  0  0  0  0
   17.8511  -10.8373   12.1450 H   0  0  0  0  0  0  0  0  0  0  0  0
   17.8389   -9.0410   12.1450 H   0  0  0  0  0  0  0  0  0  0  0  0
   16.1849   -8.5304   14.5933 H   0  0  0  0  0  0  0  0  0  0  0  0
   13.7296   -8.5129   14.9798 H   0  0  0  0  0  0  0  0  0  0  0  0
   10.9504  -11.5580   12.7428 H   0  0  0  0  0  0  0  0  0  0  0  0
   11.5512  -11.8450   14.3731 H   0  0  0  0  0  0  0  0  0  0  0  0
    8.9158  -11.1743   13.8378 H   0  0  0  0  0  0  0  0  0  0  0  0
    9.6694  -10.7367   15.3672 H   0  0  0  0  0  0  0  0  0  0  0  0
    9.2910   -9.0900   12.9110 H   0  0  0  0  0  0  0  0  0  0  0  0
    8.2927   -8.9281   15.4667 H   0  0  0  0  0  0  0  0  0  0  0  0
    9.6448   -7.6863   15.3866 H   0  0  0  0  0  0  0  0  0  0  0  0
    8.4507   -6.2547   14.1464 H   0  0  0  0  0  0  0  0  0  0  0  0
    7.7267   -7.6219   13.1480 H   0  0  0  0  0  0  0  0  0  0  0  0
    6.7650   -6.8740   15.8440 H   0  0  0  0  0  0  0  0  0  0  0  0
    6.5832   -5.1195   13.8868 H   0  0  0  0  0  0  0  0  0  0  0  0
    5.1365   -6.1543   13.5391 H   0  0  0  0  0  0  0  0  0  0  0  0
    5.7399   -5.0316   16.2778 H   0  0  0  0  0  0  0  0  0  0  0  0
    4.7453   -4.1743   14.9557 H   0  0  0  0  0  0  0  0  0  0  0  0
    3.8506   -5.9024   16.9907 H   0  0  0  0  0  0  0  0  0  0  0  0
    2.9594   -5.1013   15.5951 H   0  0  0  0  0  0  0  0  0  0  0  0
    2.4731   -7.4589   15.6433 H   0  0  0  0  0  0  0  0  0  0  0  0
    3.4782   -7.0107   14.1917 H   0  0  0  0  0  0  0  0  0  0  0  0
    4.8479   -7.9909   16.6661 H   0  0  0  0  0  0  0  0  0  0  0  0
    3.9698   -9.1627   15.5431 H   0  0  0  0  0  0  0  0  0  0  0  0
    6.2973   -9.1684   15.0148 H   0  0  0  0  0  0  0  0  0  0  0  0
    5.3440   -8.3580   13.6975 H   0  0  0  0  0  0  0  0  0  0  0  0
   13.2021  -11.3158   11.7399 H   0  0  0  0  0  0  0  0  0  0  0  0
   15.6576  -11.3337   11.3603 H   0  0  0  0  0  0  0  0  0  0  0  0
  1  2  1  0
  2  3  2  0
  3  4  1  0
  4  5  2  0
  5  6  1  0
  6  7  1  0
  7  8  1  0
  8  9  1  0
  9 10  1  0
 10 11  1  0
 11 12  1  0
 12 13  1  0
 13 14  1  0
 14 15  1  0
 15 16  1  0
 16 17  1  0
 17 18  1  0
  9 19  1  0
 19 20  2  0
  5 21  1  0
 21 22  2  0
 22  2  1  0
 19  6  1  0
 18 12  1  0
  1 23  1  0
  1 24  1  0
  1 25  1  0
  3 26  1  0
  4 27  1  0
  7 28  1  0
  7 29  1  0
  8 30  1  0
  8 31  1  0
  9 32  1  0
 10 33  1  0
 10 34  1  0
 11 35  1  0
 11 36  1  0
 12 37  1  0
 13 38  1  0
 13 39  1  0
 14 40  1  0
 14 41  1  0
 15 42  1  0
 15 43  1  0
 16 44  1  0
 16 45  1  0
 17 46  1  0
 17 47  1  0
 18 48  1  0
 18 49  1  0
 21 50  1  0
 22 51  1  0
M  CHG  2   9   1  12   1
M  END
>  <meeko>  (9) 
{"is_sidechain": [false], "free_energy": -3.893, "intermolecular_energy": -6.876, "internal_energy": 0.216}

$$$$
