LIB_BSMKGOSXJLCJOB__M_PUB_ALL__e8__s20260927
     RDKit          3D

 48 51  0  0  0  0  0  0  0  0999 V2000
   12.2940  -10.5760   15.4710 C   0  0  0  0  0  0  0  0  0  0  0  0
   13.0240  -10.6860   14.2180 N   0  0  0  0  0  0  0  0  0  0  0  0
   13.8970   -9.6550   13.8730 C   0  0  0  0  0  0  0  0  0  0  0  0
   14.0820   -8.6580   14.5710 O   0  0  0  0  0  0  0  0  0  0  0  0
   14.6390   -9.7890   12.5770 C   0  0  0  0  0  0  0  0  0  0  0  0
   15.5760   -8.7230   12.1640 C   0  0  0  0  0  0  0  0  0  0  0  0
   16.9440   -8.8000   12.4840 C   0  0  0  0  0  0  0  0  0  0  0  0
   17.6080  -10.1480   13.3470 Cl  0  0  0  0  0  0  0  0  0  0  0  0
   17.8280   -7.7840   12.1040 C   0  0  0  0  0  0  0  0  0  0  0  0
   17.3610   -6.6760   11.4020 C   0  0  0  0  0  0  0  0  0  0  0  0
   16.0100   -6.5820   11.0770 C   0  0  0  0  0  0  0  0  0  0  0  0
   15.1220   -7.5970   11.4550 C   0  0  0  0  0  0  0  0  0  0  0  0
   13.4610   -7.4060   11.0040 Cl  0  0  0  0  0  0  0  0  0  0  0  0
   14.4650  -10.8600   11.7890 C   0  0  0  0  0  0  0  0  0  0  0  0
   13.5450  -11.9160   12.1850 C   0  0  0  0  0  0  0  0  0  0  0  0
   13.3430  -13.0360   11.3940 C   0  0  0  0  0  0  0  0  0  0  0  0
   12.5010  -14.0470   11.7110 N   0  0  0  0  0  0  0  0  0  0  0  0
   11.8160  -13.9600   12.8640 C   0  0  0  0  0  0  0  0  0  0  0  0
   10.9970  -15.0280   13.1090 N   0  0  0  0  0  0  0  0  0  0  0  0
   10.7870  -15.6580   14.3890 C   0  0  0  0  0  0  0  0  0  0  0  0
   11.7650  -16.8130   14.5860 C   0  0  0  0  0  0  0  0  0  0  0  0
   13.0260  -16.3730   15.3260 C   0  0  0  0  0  0  0  0  0  0  0  0
   14.2300  -16.7870   14.6350 N   0  0  0  0  0  0  0  0  0  0  0  0
   14.5290  -16.5560   13.3210 C   0  0  0  0  0  0  0  0  0  0  0  0
   15.7630  -17.1360   13.1340 C   0  0  0  0  0  0  0  0  0  0  0  0
   16.2100  -17.7120   14.2950 N   0  0  0  0  0  0  0  0  0  0  0  0
   15.2640  -17.4910   15.1800 C   0  0  0  0  0  0  0  0  0  0  0  0
   11.9620  -12.8730   13.7170 C   0  0  0  0  0  0  0  0  0  0  0  0
   12.8350  -11.8300   13.3820 C   0  0  0  0  0  0  0  0  0  0  0  0
   12.9935  -10.6814   16.3134 H   0  0  0  0  0  0  0  0  0  0  0  0
   11.8020   -9.5936   15.5237 H   0  0  0  0  0  0  0  0  0  0  0  0
   11.5343  -11.3698   15.5237 H   0  0  0  0  0  0  0  0  0  0  0  0
   18.8949   -7.8609   12.3606 H   0  0  0  0  0  0  0  0  0  0  0  0
   18.0568   -5.8775   11.1050 H   0  0  0  0  0  0  0  0  0  0  0  0
   15.6392   -5.7078   10.5217 H   0  0  0  0  0  0  0  0  0  0  0  0
   15.0185  -10.9406   10.8418 H   0  0  0  0  0  0  0  0  0  0  0  0
   13.9021  -13.1077   10.4494 H   0  0  0  0  0  0  0  0  0  0  0  0
   10.3790  -15.2160   12.3270 H   0  0  0  0  0  0  0  0  0  0  0  0
   10.9388  -14.9157   15.1865 H   0  0  0  0  0  0  0  0  0  0  0  0
    9.7607  -16.0520   14.4263 H   0  0  0  0  0  0  0  0  0  0  0  0
   11.2688  -17.6035   15.1682 H   0  0  0  0  0  0  0  0  0  0  0  0
   12.0636  -17.1793   13.5927 H   0  0  0  0  0  0  0  0  0  0  0  0
   13.0240  -15.2763   15.4110 H   0  0  0  0  0  0  0  0  0  0  0  0
   13.0221  -16.8477   16.3183 H   0  0  0  0  0  0  0  0  0  0  0  0
   13.9179  -16.0238   12.5772 H   0  0  0  0  0  0  0  0  0  0  0  0
   16.3153  -17.1372   12.1827 H   0  0  0  0  0  0  0  0  0  0  0  0
   15.3010  -17.8300   16.2258 H   0  0  0  0  0  0  0  0  0  0  0  0
   11.3914  -12.8314   14.6565 H   0  0  0  0  0  0  0  0  0  0  0  0
  1  2  1  0
  2  3  1  0
  3  4  2  0
  3  5  1  0
  5  6  1  0
  6  7  2  0
  7  8  1  0
  7  9  1  0
  9 10  2  0
 10 11  1  0
 11 12  2  0
 12 13  1  0
  5 14  2  0
 14 15  1  0
 15 16  2  0
 16 17  1  0
 17 18  2  0
 18 19  1  0
 19 20  1  0
 20 21  1  0
 21 22  1  0
 22 23  1  0
 23 24  1  0
 24 25  2  0
 25 26  1  0
 26 27  2  0
 18 28  1  0
 28 29  2  0
 29  2  1  0
 12  6  1  0
 29 15  1  0
 27 23  1  0
  1 30  1  0
  1 31  1  0
  1 32  1  0
  9 33  1  0
 10 34  1  0
 11 35  1  0
 14 36  1  0
 16 37  1  0
 19 38  1  0
 20 39  1  0
 20 40  1  0
 21 41  1  0
 21 42  1  0
 22 43  1  0
 22 44  1  0
 24 45  1  0
 25 46  1  0
 27 47  1  0
 28 48  1  0
M  END
>  <meeko>  (1) 
{"is_sidechain": [false], "free_energy": -7.016, "intermolecular_energy": -9.477, "internal_energy": -1.318}

$$$$
LIB_BSMKGOSXJLCJOB__M_PUB_ALL__e8__s20260927
     RDKit          3D

 48 51  0  0  0  0  0  0  0  0999 V2000
    3.2530  -14.9360    1.4560 C   0  0  0  0  0  0  0  0  0  0  0  0
    2.4570  -14.6720    0.2690 N   0  0  0  0  0  0  0  0  0  0  0  0
    2.9550  -13.7690   -0.6690 C   0  0  0  0  0  0  0  0  0  0  0  0
    4.0300  -13.1830   -0.5450 O   0  0  0  0  0  0  0  0  0  0  0  0
    2.1170  -13.5120   -1.8860 C   0  0  0  0  0  0  0  0  0  0  0  0
    2.5980  -12.5620   -2.9110 C   0  0  0  0  0  0  0  0  0  0  0  0
    3.4000  -13.0000   -3.9820 C   0  0  0  0  0  0  0  0  0  0  0  0
    3.8410  -14.6640   -4.1750 Cl  0  0  0  0  0  0  0  0  0  0  0  0
    3.8660  -12.0970   -4.9440 C   0  0  0  0  0  0  0  0  0  0  0  0
    3.5430  -10.7450   -4.8520 C   0  0  0  0  0  0  0  0  0  0  0  0
    2.7510  -10.2940   -3.7990 C   0  0  0  0  0  0  0  0  0  0  0  0
    2.2820  -11.1940   -2.8340 C   0  0  0  0  0  0  0  0  0  0  0  0
    1.2970  -10.5520   -1.5630 Cl  0  0  0  0  0  0  0  0  0  0  0  0
    0.9390  -14.1300   -2.0570 C   0  0  0  0  0  0  0  0  0  0  0  0
    0.4550  -15.0680   -1.0550 C   0  0  0  0  0  0  0  0  0  0  0  0
   -0.7570  -15.7250   -1.2020 C   0  0  0  0  0  0  0  0  0  0  0  0
   -1.2570  -16.6040   -0.3040 N   0  0  0  0  0  0  0  0  0  0  0  0
   -0.5360  -16.8580    0.8010 C   0  0  0  0  0  0  0  0  0  0  0  0
   -1.1100  -17.7640    1.6480 N   0  0  0  0  0  0  0  0  0  0  0  0
   -2.3320  -17.5750    2.3900 C   0  0  0  0  0  0  0  0  0  0  0  0
   -2.2140  -16.3720    3.3210 C   0  0  0  0  0  0  0  0  0  0  0  0
   -3.3210  -15.3490    3.0750 C   0  0  0  0  0  0  0  0  0  0  0  0
   -2.9650  -14.4100    2.0300 N   0  0  0  0  0  0  0  0  0  0  0  0
   -3.6910  -14.1360    0.9050 C   0  0  0  0  0  0  0  0  0  0  0  0
   -2.9520  -13.1940    0.2290 C   0  0  0  0  0  0  0  0  0  0  0  0
   -1.8010  -12.8970    0.9130 N   0  0  0  0  0  0  0  0  0  0  0  0
   -1.8330  -13.6480    1.9910 C   0  0  0  0  0  0  0  0  0  0  0  0
    0.6910  -16.2450    1.0250 C   0  0  0  0  0  0  0  0  0  0  0  0
    1.2020  -15.3350    0.0910 C   0  0  0  0  0  0  0  0  0  0  0  0
    2.6499  -14.7360    2.3539 H   0  0  0  0  0  0  0  0  0  0  0  0
    3.5731  -15.9884    1.4563 H   0  0  0  0  0  0  0  0  0  0  0  0
    4.1385  -14.2834    1.4563 H   0  0  0  0  0  0  0  0  0  0  0  0
    4.4897  -12.4560   -5.7759 H   0  0  0  0  0  0  0  0  0  0  0  0
    3.9121  -10.0364   -5.6081 H   0  0  0  0  0  0  0  0  0  0  0  0
    2.4930   -9.2273   -3.7250 H   0  0  0  0  0  0  0  0  0  0  0  0
    0.3379  -13.9276   -2.9557 H   0  0  0  0  0  0  0  0  0  0  0  0
   -1.3491  -15.5184   -2.1057 H   0  0  0  0  0  0  0  0  0  0  0  0
   -0.6960  -18.6850    1.5510 H   0  0  0  0  0  0  0  0  0  0  0  0
   -3.1603  -17.4074    1.6859 H   0  0  0  0  0  0  0  0  0  0  0  0
   -2.5227  -18.4740    2.9945 H   0  0  0  0  0  0  0  0  0  0  0  0
   -2.2775  -16.7209    4.3623 H   0  0  0  0  0  0  0  0  0  0  0  0
   -1.2486  -15.8828    3.1242 H   0  0  0  0  0  0  0  0  0  0  0  0
   -4.2373  -15.8806    2.7787 H   0  0  0  0  0  0  0  0  0  0  0  0
   -3.4752  -14.7824    4.0052 H   0  0  0  0  0  0  0  0  0  0  0  0
   -4.6551  -14.5732    0.6059 H   0  0  0  0  0  0  0  0  0  0  0  0
   -3.2441  -12.7405   -0.7296 H   0  0  0  0  0  0  0  0  0  0  0  0
   -1.0488  -13.6609    2.7623 H   0  0  0  0  0  0  0  0  0  0  0  0
    1.2615  -16.4748    1.9370 H   0  0  0  0  0  0  0  0  0  0  0  0
  1  2  1  0
  2  3  1  0
  3  4  2  0
  3  5  1  0
  5  6  1  0
  6  7  2  0
  7  8  1  0
  7  9  1  0
  9 10  2  0
 10 11  1  0
 11 12  2  0
 12 13  1  0
  5 14  2  0
 14 15  1  0
 15 16  2  0
 16 17  1  0
 17 18  2  0
 18 19  1  0
 19 20  1  0
 20 21  1  0
 21 22  1  0
 22 23  1  0
 23 24  1  0
 24 25  2  0
 25 26  1  0
 26 27  2  0
 18 28  1  0
 28 29  2  0
 29  2  1  0
 12  6  1  0
 29 15  1  0
 27 23  1  0
  1 30  1  0
  1 31  1  0
  1 32  1  0
  9 33  1  0
 10 34  1  0
 11 35  1  0
 14 36  1  0
 16 37  1  0
 19 38  1  0
 20 39  1  0
 20 40  1  0
 21 41  1  0
 21 42  1  0
 22 43  1  0
 22 44  1  0
 24 45  1  0
 25 46  1  0
 27 47  1  0
 28 48  1  0
M  END
>  <meeko>  (2) 
{"is_sidechain": [false], "free_energy": -7.001, "intermolecular_energy": -8.903, "internal_energy": -1.871}

$$$$
LIB_BSMKGOSXJLCJOB__M_PUB_ALL__e8__s20260927
     RDKit          3D

 48 51  0  0  0  0  0  0  0  0999 V2000
    2.4790  -14.3310    0.9480 C   0  0  0  0  0  0  0  0  0  0  0  0
    2.3940  -13.3170   -0.0910 N   0  0  0  0  0  0  0  0  0  0  0  0
    3.1650  -13.4890   -1.2410 C   0  0  0  0  0  0  0  0  0  0  0  0
    3.9110  -14.4500   -1.4220 O   0  0  0  0  0  0  0  0  0  0  0  0
    3.0630  -12.4310   -2.2990 C   0  0  0  0  0  0  0  0  0  0  0  0
    3.8590  -12.5630   -3.5370 C   0  0  0  0  0  0  0  0  0  0  0  0
    5.1750  -12.0710   -3.6050 C   0  0  0  0  0  0  0  0  0  0  0  0
    5.9420  -11.3150   -2.2480 Cl  0  0  0  0  0  0  0  0  0  0  0  0
    5.9230  -12.1860   -4.7820 C   0  0  0  0  0  0  0  0  0  0  0  0
    5.3700  -12.7890   -5.9090 C   0  0  0  0  0  0  0  0  0  0  0  0
    4.0680  -13.2820   -5.8600 C   0  0  0  0  0  0  0  0  0  0  0  0
    3.3160  -13.1700   -4.6840 C   0  0  0  0  0  0  0  0  0  0  0  0
    1.7100  -13.8160   -4.7050 Cl  0  0  0  0  0  0  0  0  0  0  0  0
    2.2610  -11.3680   -2.1380 C   0  0  0  0  0  0  0  0  0  0  0  0
    1.4720  -11.2260   -0.9230 C   0  0  0  0  0  0  0  0  0  0  0  0
    0.6320  -10.1410   -0.7260 C   0  0  0  0  0  0  0  0  0  0  0  0
   -0.1230   -9.9570    0.3810 N   0  0  0  0  0  0  0  0  0  0  0  0
   -0.0560  -10.8820    1.3520 C   0  0  0  0  0  0  0  0  0  0  0  0
   -0.8570  -10.6230    2.4290 N   0  0  0  0  0  0  0  0  0  0  0  0
   -2.2880  -10.4470    2.3990 C   0  0  0  0  0  0  0  0  0  0  0  0
   -2.9890  -11.7860    2.1860 C   0  0  0  0  0  0  0  0  0  0  0  0
   -3.2410  -12.0690    0.7060 C   0  0  0  0  0  0  0  0  0  0  0  0
   -2.9260  -13.4400    0.3580 N   0  0  0  0  0  0  0  0  0  0  0  0
   -1.7430  -13.8930   -0.1550 C   0  0  0  0  0  0  0  0  0  0  0  0
   -1.9270  -15.2470   -0.3200 C   0  0  0  0  0  0  0  0  0  0  0  0
   -3.1860  -15.6180    0.0750 N   0  0  0  0  0  0  0  0  0  0  0  0
   -3.7670  -14.5090    0.4740 C   0  0  0  0  0  0  0  0  0  0  0  0
    0.7580  -12.0030    1.2350 C   0  0  0  0  0  0  0  0  0  0  0  0
    1.5370  -12.1860    0.0850 C   0  0  0  0  0  0  0  0  0  0  0  0
    2.4385  -13.8483    1.9356 H   0  0  0  0  0  0  0  0  0  0  0  0
    1.6364  -15.0309    0.8471 H   0  0  0  0  0  0  0  0  0  0  0  0
    3.4264  -14.8808    0.8471 H   0  0  0  0  0  0  0  0  0  0  0  0
    6.9519  -11.7986   -4.8172 H   0  0  0  0  0  0  0  0  0  0  0  0
    5.9589  -12.8756   -6.8340 H   0  0  0  0  0  0  0  0  0  0  0  0
    3.6292  -13.7608   -6.7479 H   0  0  0  0  0  0  0  0  0  0  0  0
    2.1994  -10.6023   -2.9254 H   0  0  0  0  0  0  0  0  0  0  0  0
    0.5759   -9.3818   -1.5200 H   0  0  0  0  0  0  0  0  0  0  0  0
   -0.3690  -10.7680    3.3070 H   0  0  0  0  0  0  0  0  0  0  0  0
   -2.6191  -10.0134    3.3542 H   0  0  0  0  0  0  0  0  0  0  0  0
   -2.5456   -9.7753    1.5669 H   0  0  0  0  0  0  0  0  0  0  0  0
   -2.3582  -12.5871    2.5987 H   0  0  0  0  0  0  0  0  0  0  0  0
   -3.9630  -11.7453    2.6956 H   0  0  0  0  0  0  0  0  0  0  0  0
   -4.3014  -11.8799    0.4831 H   0  0  0  0  0  0  0  0  0  0  0  0
   -2.5885  -11.4084    0.1161 H   0  0  0  0  0  0  0  0  0  0  0  0
   -0.8423  -13.3050   -0.3853 H   0  0  0  0  0  0  0  0  0  0  0  0
   -1.1672  -15.9374   -0.7151 H   0  0  0  0  0  0  0  0  0  0  0  0
   -4.7981  -14.4497    0.8527 H   0  0  0  0  0  0  0  0  0  0  0  0
    0.7904  -12.7462    2.0453 H   0  0  0  0  0  0  0  0  0  0  0  0
  1  2  1  0
  2  3  1  0
  3  4  2  0
  3  5  1  0
  5  6  1  0
  6  7  2  0
  7  8  1  0
  7  9  1  0
  9 10  2  0
 10 11  1  0
 11 12  2  0
 12 13  1  0
  5 14  2  0
 14 15  1  0
 15 16  2  0
 16 17  1  0
 17 18  2  0
 18 19  1  0
 19 20  1  0
 20 21  1  0
 21 22  1  0
 22 23  1  0
 23 24  1  0
 24 25  2  0
 25 26  1  0
 26 27  2  0
 18 28  1  0
 28 29  2  0
 29  2  1  0
 12  6  1  0
 29 15  1  0
 27 23  1  0
  1 30  1  0
  1 31  1  0
  1 32  1  0
  9 33  1  0
 10 34  1  0
 11 35  1  0
 14 36  1  0
 16 37  1  0
 19 38  1  0
 20 39  1  0
 20 40  1  0
 21 41  1  0
 21 42  1  0
 22 43  1  0
 22 44  1  0
 24 45  1  0
 25 46  1  0
 27 47  1  0
 28 48  1  0
M  END
>  <meeko>  (3) 
{"is_sidechain": [false], "free_energy": -6.937, "intermolecular_energy": -9.442, "internal_energy": -1.247}

$$$$
LIB_BSMKGOSXJLCJOB__M_PUB_ALL__e8__s20260927
     RDKit          3D

 48 51  0  0  0  0  0  0  0  0999 V2000
    2.7050  -17.9270   -0.7720 C   0  0  0  0  0  0  0  0  0  0  0  0
    1.9940  -16.6610   -0.8580 N   0  0  0  0  0  0  0  0  0  0  0  0
    2.5330  -15.6590   -1.6640 C   0  0  0  0  0  0  0  0  0  0  0  0
    3.5750  -15.7880   -2.3050 O   0  0  0  0  0  0  0  0  0  0  0  0
    1.7840  -14.3610   -1.7370 C   0  0  0  0  0  0  0  0  0  0  0  0
    2.3110  -13.2660   -2.5770 C   0  0  0  0  0  0  0  0  0  0  0  0
    3.1930  -12.3070   -2.0430 C   0  0  0  0  0  0  0  0  0  0  0  0
    3.7290  -12.3720   -0.3970 Cl  0  0  0  0  0  0  0  0  0  0  0  0
    3.6820  -11.2630   -2.8360 C   0  0  0  0  0  0  0  0  0  0  0  0
    3.2960  -11.1560   -4.1700 C   0  0  0  0  0  0  0  0  0  0  0  0
    2.4230  -12.0950   -4.7150 C   0  0  0  0  0  0  0  0  0  0  0  0
    1.9330  -13.1420   -3.9250 C   0  0  0  0  0  0  0  0  0  0  0  0
    0.8600  -14.2710   -4.6830 Cl  0  0  0  0  0  0  0  0  0  0  0  0
    0.6440  -14.1820   -1.0530 C   0  0  0  0  0  0  0  0  0  0  0  0
    0.1150  -15.2540   -0.2230 C   0  0  0  0  0  0  0  0  0  0  0  0
   -1.0610  -15.1010    0.4960 C   0  0  0  0  0  0  0  0  0  0  0  0
   -1.5990  -16.0610    1.2830 N   0  0  0  0  0  0  0  0  0  0  0  0
   -0.9550  -17.2360    1.3760 C   0  0  0  0  0  0  0  0  0  0  0  0
   -1.5720  -18.1510    2.1830 N   0  0  0  0  0  0  0  0  0  0  0  0
   -2.6010  -17.8670    3.1540 C   0  0  0  0  0  0  0  0  0  0  0  0
   -2.0360  -17.9380    4.5700 C   0  0  0  0  0  0  0  0  0  0  0  0
   -2.1350  -16.5960    5.2920 C   0  0  0  0  0  0  0  0  0  0  0  0
   -0.8570  -15.9160    5.3460 N   0  0  0  0  0  0  0  0  0  0  0  0
   -0.4240  -14.9380    4.4960 C   0  0  0  0  0  0  0  0  0  0  0  0
    0.8360  -14.6140    4.9450 C   0  0  0  0  0  0  0  0  0  0  0  0
    1.1730  -15.3720    6.0360 N   0  0  0  0  0  0  0  0  0  0  0  0
    0.1370  -16.1510    6.2520 C   0  0  0  0  0  0  0  0  0  0  0  0
    0.2280  -17.4740    0.6860 C   0  0  0  0  0  0  0  0  0  0  0  0
    0.7800  -16.4750   -0.1270 C   0  0  0  0  0  0  0  0  0  0  0  0
    2.8542  -18.1927    0.2850 H   0  0  0  0  0  0  0  0  0  0  0  0
    2.1161  -18.7127   -1.2680 H   0  0  0  0  0  0  0  0  0  0  0  0
    3.6823  -17.8331   -1.2680 H   0  0  0  0  0  0  0  0  0  0  0  0
    4.3735  -10.5244   -2.4045 H   0  0  0  0  0  0  0  0  0  0  0  0
    3.6791  -10.3329   -4.7911 H   0  0  0  0  0  0  0  0  0  0  0  0
    2.1179  -12.0136   -5.7687 H   0  0  0  0  0  0  0  0  0  0  0  0
    0.1083  -13.2236   -1.1196 H   0  0  0  0  0  0  0  0  0  0  0  0
   -1.5893  -14.1390    0.4218 H   0  0  0  0  0  0  0  0  0  0  0  0
   -1.3810  -19.1030    1.8890 H   0  0  0  0  0  0  0  0  0  0  0  0
   -2.9998  -16.8578    2.9738 H   0  0  0  0  0  0  0  0  0  0  0  0
   -3.4010  -18.6152    3.0529 H   0  0  0  0  0  0  0  0  0  0  0  0
   -2.5999  -18.6908    5.1403 H   0  0  0  0  0  0  0  0  0  0  0  0
   -0.9721  -18.2085    4.4988 H   0  0  0  0  0  0  0  0  0  0  0  0
   -2.8552  -15.9578    4.7591 H   0  0  0  0  0  0  0  0  0  0  0  0
   -2.4630  -16.7877    6.3243 H   0  0  0  0  0  0  0  0  0  0  0  0
   -0.9637  -14.5048    3.6409 H   0  0  0  0  0  0  0  0  0  0  0  0
    1.4843  -13.8506    4.4901 H   0  0  0  0  0  0  0  0  0  0  0  0
    0.0782  -16.8964    7.0588 H   0  0  0  0  0  0  0  0  0  0  0  0
    0.7314  -18.4477    0.7783 H   0  0  0  0  0  0  0  0  0  0  0  0
  1  2  1  0
  2  3  1  0
  3  4  2  0
  3  5  1  0
  5  6  1  0
  6  7  2  0
  7  8  1  0
  7  9  1  0
  9 10  2  0
 10 11  1  0
 11 12  2  0
 12 13  1  0
  5 14  2  0
 14 15  1  0
 15 16  2  0
 16 17  1  0
 17 18  2  0
 18 19  1  0
 19 20  1  0
 20 21  1  0
 21 22  1  0
 22 23  1  0
 23 24  1  0
 24 25  2  0
 25 26  1  0
 26 27  2  0
 18 28  1  0
 28 29  2  0
 29  2  1  0
 12  6  1  0
 29 15  1  0
 27 23  1  0
  1 30  1  0
  1 31  1  0
  1 32  1  0
  9 33  1  0
 10 34  1  0
 11 35  1  0
 14 36  1  0
 16 37  1  0
 19 38  1  0
 20 39  1  0
 20 40  1  0
 21 41  1  0
 21 42  1  0
 22 43  1  0
 22 44  1  0
 24 45  1  0
 25 46  1  0
 27 47  1  0
 28 48  1  0
M  END
>  <meeko>  (4) 
{"is_sidechain": [false], "free_energy": -6.849, "intermolecular_energy": -9.252, "internal_energy": -1.318}

$$$$
LIB_BSMKGOSXJLCJOB__M_PUB_ALL__e8__s20260927
     RDKit          3D

 48 51  0  0  0  0  0  0  0  0999 V2000
    0.6440   -9.9710   -1.0420 C   0  0  0  0  0  0  0  0  0  0  0  0
    1.4670  -11.1570   -1.2170 N   0  0  0  0  0  0  0  0  0  0  0  0
    2.2720  -11.2380   -2.3530 C   0  0  0  0  0  0  0  0  0  0  0  0
    2.3230  -10.3600   -3.2140 O   0  0  0  0  0  0  0  0  0  0  0  0
    3.1120  -12.4700   -2.5130 C   0  0  0  0  0  0  0  0  0  0  0  0
    3.9830  -12.6060   -3.6980 C   0  0  0  0  0  0  0  0  0  0  0  0
    3.5150  -13.2270   -4.8710 C   0  0  0  0  0  0  0  0  0  0  0  0
    1.8990  -13.8370   -5.0020 Cl  0  0  0  0  0  0  0  0  0  0  0  0
    4.3450  -13.3670   -5.9890 C   0  0  0  0  0  0  0  0  0  0  0  0
    5.6540  -12.8920   -5.9530 C   0  0  0  0  0  0  0  0  0  0  0  0
    6.1350  -12.2750   -4.8010 C   0  0  0  0  0  0  0  0  0  0  0  0
    5.3070  -12.1330   -3.6800 C   0  0  0  0  0  0  0  0  0  0  0  0
    5.9800  -11.3460   -2.2920 Cl  0  0  0  0  0  0  0  0  0  0  0  0
    3.0830  -13.4490   -1.5960 C   0  0  0  0  0  0  0  0  0  0  0  0
    2.2300  -13.3270   -0.4230 C   0  0  0  0  0  0  0  0  0  0  0  0
    2.1780  -14.3190    0.5430 C   0  0  0  0  0  0  0  0  0  0  0  0
    1.4040  -14.2600    1.6510 N   0  0  0  0  0  0  0  0  0  0  0  0
    0.6360  -13.1720    1.8270 C   0  0  0  0  0  0  0  0  0  0  0  0
   -0.1060  -13.1910    2.9760 N   0  0  0  0  0  0  0  0  0  0  0  0
   -1.1530  -14.1300    3.2940 C   0  0  0  0  0  0  0  0  0  0  0  0
   -2.3290  -13.9670    2.3350 C   0  0  0  0  0  0  0  0  0  0  0  0
   -3.2200  -12.7870    2.7190 C   0  0  0  0  0  0  0  0  0  0  0  0
   -2.9290  -11.6110    1.9240 N   0  0  0  0  0  0  0  0  0  0  0  0
   -2.4090  -10.4330    2.3820 C   0  0  0  0  0  0  0  0  0  0  0  0
   -2.3180   -9.6320    1.2670 C   0  0  0  0  0  0  0  0  0  0  0  0
   -2.7720  -10.2930    0.1540 N   0  0  0  0  0  0  0  0  0  0  0  0
   -3.1380  -11.4810    0.5810 C   0  0  0  0  0  0  0  0  0  0  0  0
    0.6300  -12.1290    0.9090 C   0  0  0  0  0  0  0  0  0  0  0  0
    1.4340  -12.1980   -0.2370 C   0  0  0  0  0  0  0  0  0  0  0  0
    0.5076   -9.7745    0.0317 H   0  0  0  0  0  0  0  0  0  0  0  0
    1.1388   -9.1086   -1.5127 H   0  0  0  0  0  0  0  0  0  0  0  0
   -0.3370  -10.1327   -1.5127 H   0  0  0  0  0  0  0  0  0  0  0  0
    3.9627  -13.8534   -6.8986 H   0  0  0  0  0  0  0  0  0  0  0  0
    6.3058  -13.0040   -6.8320 H   0  0  0  0  0  0  0  0  0  0  0  0
    7.1680  -11.8981   -4.7712 H   0  0  0  0  0  0  0  0  0  0  0  0
    3.7053  -14.3459   -1.7310 H   0  0  0  0  0  0  0  0  0  0  0  0
    2.8057  -15.2109    0.3999 H   0  0  0  0  0  0  0  0  0  0  0  0
    0.2930  -12.5930    3.6910 H   0  0  0  0  0  0  0  0  0  0  0  0
   -0.7583  -15.1534    3.2116 H   0  0  0  0  0  0  0  0  0  0  0  0
   -1.5020  -13.9387    4.3195 H   0  0  0  0  0  0  0  0  0  0  0  0
   -1.9393  -13.8023    1.3196 H   0  0  0  0  0  0  0  0  0  0  0  0
   -2.9370  -14.8824    2.3837 H   0  0  0  0  0  0  0  0  0  0  0  0
   -4.2717  -13.0699    2.5642 H   0  0  0  0  0  0  0  0  0  0  0  0
   -3.0271  -12.5424    3.7740 H   0  0  0  0  0  0  0  0  0  0  0  0
   -2.1257  -10.1808    3.4145 H   0  0  0  0  0  0  0  0  0  0  0  0
   -1.9334   -8.6014    1.2679 H   0  0  0  0  0  0  0  0  0  0  0  0
   -3.5585  -12.2690   -0.0610 H   0  0  0  0  0  0  0  0  0  0  0  0
   -0.0062  -11.2485    1.0818 H   0  0  0  0  0  0  0  0  0  0  0  0
  1  2  1  0
  2  3  1  0
  3  4  2  0
  3  5  1  0
  5  6  1  0
  6  7  2  0
  7  8  1  0
  7  9  1  0
  9 10  2  0
 10 11  1  0
 11 12  2  0
 12 13  1  0
  5 14  2  0
 14 15  1  0
 15 16  2  0
 16 17  1  0
 17 18  2  0
 18 19  1  0
 19 20  1  0
 20 21  1  0
 21 22  1  0
 22 23  1  0
 23 24  1  0
 24 25  2  0
 25 26  1  0
 26 27  2  0
 18 28  1  0
 28 29  2  0
 29  2  1  0
 12  6  1  0
 29 15  1  0
 27 23  1  0
  1 30  1  0
  1 31  1  0
  1 32  1  0
  9 33  1  0
 10 34  1  0
 11 35  1  0
 14 36  1  0
 16 37  1  0
 19 38  1  0
 20 39  1  0
 20 40  1  0
 21 41  1  0
 21 42  1  0
 22 43  1  0
 22 44  1  0
 24 45  1  0
 25 46  1  0
 27 47  1  0
 28 48  1  0
M  END
>  <meeko>  (5) 
{"is_sidechain": [false], "free_energy": -6.846, "intermolecular_energy": -9.029, "internal_energy": -1.536}

$$$$
LIB_BSMKGOSXJLCJOB__M_PUB_ALL__e8__s20260927
     RDKit          3D

 48 51  0  0  0  0  0  0  0  0999 V2000
    5.9640  -11.7520   -3.2270 C   0  0  0  0  0  0  0  0  0  0  0  0
    5.4810  -12.3440   -1.9900 N   0  0  0  0  0  0  0  0  0  0  0  0
    4.1750  -12.8320   -1.9610 C   0  0  0  0  0  0  0  0  0  0  0  0
    3.4110  -12.7880   -2.9250 O   0  0  0  0  0  0  0  0  0  0  0  0
    3.6970  -13.4390   -0.6750 C   0  0  0  0  0  0  0  0  0  0  0  0
    2.3220  -13.9700   -0.5900 C   0  0  0  0  0  0  0  0  0  0  0  0
    2.0290  -15.2850   -0.9990 C   0  0  0  0  0  0  0  0  0  0  0  0
    3.2560  -16.3550   -1.5900 Cl  0  0  0  0  0  0  0  0  0  0  0  0
    0.7230  -15.7830   -0.9300 C   0  0  0  0  0  0  0  0  0  0  0  0
   -0.3110  -14.9770   -0.4570 C   0  0  0  0  0  0  0  0  0  0  0  0
   -0.0400  -13.6730   -0.0490 C   0  0  0  0  0  0  0  0  0  0  0  0
    1.2660  -13.1710   -0.1160 C   0  0  0  0  0  0  0  0  0  0  0  0
    1.5180  -11.5440    0.4190 Cl  0  0  0  0  0  0  0  0  0  0  0  0
    4.5010  -13.5040    0.3970 C   0  0  0  0  0  0  0  0  0  0  0  0
    5.8580  -12.9840    0.3260 C   0  0  0  0  0  0  0  0  0  0  0  0
    6.7140  -13.0380    1.4150 C   0  0  0  0  0  0  0  0  0  0  0  0
    7.9830  -12.5700    1.4070 N   0  0  0  0  0  0  0  0  0  0  0  0
    8.4450  -12.0170    0.2730 C   0  0  0  0  0  0  0  0  0  0  0  0
    9.7380  -11.5800    0.3500 N   0  0  0  0  0  0  0  0  0  0  0  0
   10.7470  -12.0730    1.2550 C   0  0  0  0  0  0  0  0  0  0  0  0
   11.9310  -12.6440    0.4790 C   0  0  0  0  0  0  0  0  0  0  0  0
   12.6720  -11.5640   -0.3070 C   0  0  0  0  0  0  0  0  0  0  0  0
   12.7030  -11.8560   -1.7260 N   0  0  0  0  0  0  0  0  0  0  0  0
   11.7430  -12.5170   -2.4380 C   0  0  0  0  0  0  0  0  0  0  0  0
   12.2200  -12.5490   -3.7280 C   0  0  0  0  0  0  0  0  0  0  0  0
   13.4410  -11.9310   -3.8100 N   0  0  0  0  0  0  0  0  0  0  0  0
   13.7090  -11.5280   -2.5880 C   0  0  0  0  0  0  0  0  0  0  0  0
    7.6550  -11.9260   -0.8670 C   0  0  0  0  0  0  0  0  0  0  0  0
    6.3410  -12.4130   -0.8500 C   0  0  0  0  0  0  0  0  0  0  0  0
    6.6436  -10.9190   -2.9940 H   0  0  0  0  0  0  0  0  0  0  0  0
    6.5028  -12.5123   -3.8115 H   0  0  0  0  0  0  0  0  0  0  0  0
    5.1110  -11.3768   -3.8115 H   0  0  0  0  0  0  0  0  0  0  0  0
    0.5118  -16.8140   -1.2501 H   0  0  0  0  0  0  0  0  0  0  0  0
   -1.3374  -15.3692   -0.4061 H   0  0  0  0  0  0  0  0  0  0  0  0
   -0.8539  -13.0356    0.3269 H   0  0  0  0  0  0  0  0  0  0  0  0
    4.1333  -13.9516    1.3321 H   0  0  0  0  0  0  0  0  0  0  0  0
    6.3374  -13.4900    2.3444 H   0  0  0  0  0  0  0  0  0  0  0  0
    9.9890  -11.0020   -0.4450 H   0  0  0  0  0  0  0  0  0  0  0  0
   11.0965  -11.2469    1.8917 H   0  0  0  0  0  0  0  0  0  0  0  0
   10.3099  -12.8709    1.8733 H   0  0  0  0  0  0  0  0  0  0  0  0
   12.6302  -13.1097    1.1892 H   0  0  0  0  0  0  0  0  0  0  0  0
   11.5437  -13.3823   -0.2386 H   0  0  0  0  0  0  0  0  0  0  0  0
   12.1646  -10.6003   -0.1529 H   0  0  0  0  0  0  0  0  0  0  0  0
   13.7094  -11.5276    0.0570 H   0  0  0  0  0  0  0  0  0  0  0  0
   10.7963  -12.9325   -2.0624 H   0  0  0  0  0  0  0  0  0  0  0  0
   11.6935  -13.0079   -4.5778 H   0  0  0  0  0  0  0  0  0  0  0  0
   14.6262  -10.9949   -2.2974 H   0  0  0  0  0  0  0  0  0  0  0  0
    8.0612  -11.4716   -1.7827 H   0  0  0  0  0  0  0  0  0  0  0  0
  1  2  1  0
  2  3  1  0
  3  4  2  0
  3  5  1  0
  5  6  1  0
  6  7  2  0
  7  8  1  0
  7  9  1  0
  9 10  2  0
 10 11  1  0
 11 12  2  0
 12 13  1  0
  5 14  2  0
 14 15  1  0
 15 16  2  0
 16 17  1  0
 17 18  2  0
 18 19  1  0
 19 20  1  0
 20 21  1  0
 21 22  1  0
 22 23  1  0
 23 24  1  0
 24 25  2  0
 25 26  1  0
 26 27  2  0
 18 28  1  0
 28 29  2  0
 29  2  1  0
 12  6  1  0
 29 15  1  0
 27 23  1  0
  1 30  1  0
  1 31  1  0
  1 32  1  0
  9 33  1  0
 10 34  1  0
 11 35  1  0
 14 36  1  0
 16 37  1  0
 19 38  1  0
 20 39  1  0
 20 40  1  0
 21 41  1  0
 21 42  1  0
 22 43  1  0
 22 44  1  0
 24 45  1  0
 25 46  1  0
 27 47  1  0
 28 48  1  0
M  END
>  <meeko>  (6) 
{"is_sidechain": [false], "free_energy": -6.835, "intermolecular_energy": -9.462, "internal_energy": -1.089}

$$$$
LIB_BSMKGOSXJLCJOB__M_PUB_ALL__e8__s20260927
     RDKit          3D

 48 51  0  0  0  0  0  0  0  0999 V2000
    3.3120  -14.7990    1.6390 C   0  0  0  0  0  0  0  0  0  0  0  0
    2.4720  -14.5730    0.4730 N   0  0  0  0  0  0  0  0  0  0  0  0
    2.9000  -13.6450   -0.4760 C   0  0  0  0  0  0  0  0  0  0  0  0
    3.9490  -13.0080   -0.3790 O   0  0  0  0  0  0  0  0  0  0  0  0
    2.0180  -13.4280   -1.6690 C   0  0  0  0  0  0  0  0  0  0  0  0
    2.4250  -12.4560   -2.7040 C   0  0  0  0  0  0  0  0  0  0  0  0
    3.1820  -12.8610   -3.8190 C   0  0  0  0  0  0  0  0  0  0  0  0
    3.6520  -14.5120   -4.0560 Cl  0  0  0  0  0  0  0  0  0  0  0  0
    3.5770  -11.9360   -4.7920 C   0  0  0  0  0  0  0  0  0  0  0  0
    3.2270  -10.5940   -4.6660 C   0  0  0  0  0  0  0  0  0  0  0  0
    2.4790  -10.1740   -3.5690 C   0  0  0  0  0  0  0  0  0  0  0  0
    2.0810  -11.0960   -2.5940 C   0  0  0  0  0  0  0  0  0  0  0  0
    1.1450  -10.4930   -1.2670 Cl  0  0  0  0  0  0  0  0  0  0  0  0
    0.8680  -14.1040   -1.8100 C   0  0  0  0  0  0  0  0  0  0  0  0
    0.4570  -15.0640   -0.7970 C   0  0  0  0  0  0  0  0  0  0  0  0
   -0.7250  -15.7800   -0.9130 C   0  0  0  0  0  0  0  0  0  0  0  0
   -1.1570  -16.6830   -0.0040 N   0  0  0  0  0  0  0  0  0  0  0  0
   -0.3950  -16.9020    1.0810 C   0  0  0  0  0  0  0  0  0  0  0  0
   -0.9020  -17.8370    1.9410 N   0  0  0  0  0  0  0  0  0  0  0  0
   -2.2410  -17.8600    2.4750 C   0  0  0  0  0  0  0  0  0  0  0  0
   -2.2230  -17.6180    3.9810 C   0  0  0  0  0  0  0  0  0  0  0  0
   -0.8220  -17.7760    4.5680 C   0  0  0  0  0  0  0  0  0  0  0  0
   -0.2890  -16.5150    5.0420 N   0  0  0  0  0  0  0  0  0  0  0  0
   -0.6930  -15.2690    4.6540 C   0  0  0  0  0  0  0  0  0  0  0  0
    0.1000  -14.4030    5.3700 C   0  0  0  0  0  0  0  0  0  0  0  0
    0.9710  -15.0920    6.1740 N   0  0  0  0  0  0  0  0  0  0  0  0
    0.7170  -16.3630    5.9510 C   0  0  0  0  0  0  0  0  0  0  0  0
    0.8070  -16.2310    1.2730 C   0  0  0  0  0  0  0  0  0  0  0  0
    1.2470  -15.2960    0.3270 C   0  0  0  0  0  0  0  0  0  0  0  0
    2.7210  -14.6400    2.5530 H   0  0  0  0  0  0  0  0  0  0  0  0
    3.6917  -15.8313    1.6228 H   0  0  0  0  0  0  0  0  0  0  0  0
    4.1584  -14.0966    1.6228 H   0  0  0  0  0  0  0  0  0  0  0  0
    4.1658  -12.2700   -5.6591 H   0  0  0  0  0  0  0  0  0  0  0  0
    3.5404   -9.8680   -5.4306 H   0  0  0  0  0  0  0  0  0  0  0  0
    2.2002   -9.1147   -3.4685 H   0  0  0  0  0  0  0  0  0  0  0  0
    0.2347  -13.9323   -2.6929 H   0  0  0  0  0  0  0  0  0  0  0  0
   -1.3504  -15.6021   -1.8003 H   0  0  0  0  0  0  0  0  0  0  0  0
   -0.2960  -18.6470    2.0160 H   0  0  0  0  0  0  0  0  0  0  0  0
   -2.8373  -17.0733    1.9896 H   0  0  0  0  0  0  0  0  0  0  0  0
   -2.6835  -18.8480    2.2800 H   0  0  0  0  0  0  0  0  0  0  0  0
   -2.5790  -16.5966    4.1811 H   0  0  0  0  0  0  0  0  0  0  0  0
   -2.8763  -18.3662    4.4537 H   0  0  0  0  0  0  0  0  0  0  0  0
   -0.8670  -18.4821    5.4103 H   0  0  0  0  0  0  0  0  0  0  0  0
   -0.1595  -18.1486    3.7729 H   0  0  0  0  0  0  0  0  0  0  0  0
   -1.4796  -15.0144    3.9284 H   0  0  0  0  0  0  0  0  0  0  0  0
    0.0432  -13.3063    5.3063 H   0  0  0  0  0  0  0  0  0  0  0  0
    1.2474  -17.1963    6.4351 H   0  0  0  0  0  0  0  0  0  0  0  0
    1.4131  -16.4342    2.1682 H   0  0  0  0  0  0  0  0  0  0  0  0
  1  2  1  0
  2  3  1  0
  3  4  2  0
  3  5  1  0
  5  6  1  0
  6  7  2  0
  7  8  1  0
  7  9  1  0
  9 10  2  0
 10 11  1  0
 11 12  2  0
 12 13  1  0
  5 14  2  0
 14 15  1  0
 15 16  2  0
 16 17  1  0
 17 18  2  0
 18 19  1  0
 19 20  1  0
 20 21  1  0
 21 22  1  0
 22 23  1  0
 23 24  1  0
 24 25  2  0
 25 26  1  0
 26 27  2  0
 18 28  1  0
 28 29  2  0
 29  2  1  0
 12  6  1  0
 29 15  1  0
 27 23  1  0
  1 30  1  0
  1 31  1  0
  1 32  1  0
  9 33  1  0
 10 34  1  0
 11 35  1  0
 14 36  1  0
 16 37  1  0
 19 38  1  0
 20 39  1  0
 20 40  1  0
 21 41  1  0
 21 42  1  0
 22 43  1  0
 22 44  1  0
 24 45  1  0
 25 46  1  0
 27 47  1  0
 28 48  1  0
M  END
>  <meeko>  (7) 
{"is_sidechain": [false], "free_energy": -6.768, "intermolecular_energy": -9.175, "internal_energy": -1.285}

$$$$
LIB_BSMKGOSXJLCJOB__M_PUB_ALL__e8__s20260927
     RDKit          3D

 48 51  0  0  0  0  0  0  0  0999 V2000
    7.7940  -16.4610   -0.9630 C   0  0  0  0  0  0  0  0  0  0  0  0
    7.9910  -15.0300   -1.1310 N   0  0  0  0  0  0  0  0  0  0  0  0
    9.2960  -14.5560   -1.2570 C   0  0  0  0  0  0  0  0  0  0  0  0
   10.2890  -15.2820   -1.2340 O   0  0  0  0  0  0  0  0  0  0  0  0
    9.4750  -13.0760   -1.4290 C   0  0  0  0  0  0  0  0  0  0  0  0
   10.8370  -12.5220   -1.5670 C   0  0  0  0  0  0  0  0  0  0  0  0
   11.5000  -12.5340   -2.8080 C   0  0  0  0  0  0  0  0  0  0  0  0
   10.7550  -13.1660   -4.2380 Cl  0  0  0  0  0  0  0  0  0  0  0  0
   12.7950  -12.0200   -2.9340 C   0  0  0  0  0  0  0  0  0  0  0  0
   13.4500  -11.4900   -1.8250 C   0  0  0  0  0  0  0  0  0  0  0  0
   12.8100  -11.4700   -0.5880 C   0  0  0  0  0  0  0  0  0  0  0  0
   11.5140  -11.9830   -0.4570 C   0  0  0  0  0  0  0  0  0  0  0  0
   10.7870  -11.9120    1.1130 Cl  0  0  0  0  0  0  0  0  0  0  0  0
    8.4170  -12.2520   -1.4590 C   0  0  0  0  0  0  0  0  0  0  0  0
    7.0700  -12.7860   -1.3240 C   0  0  0  0  0  0  0  0  0  0  0  0
    5.9570  -11.9620   -1.3520 C   0  0  0  0  0  0  0  0  0  0  0  0
    4.6830  -12.4020   -1.2320 N   0  0  0  0  0  0  0  0  0  0  0  0
    4.4840  -13.7210   -1.0730 C   0  0  0  0  0  0  0  0  0  0  0  0
    3.1680  -14.0790   -0.9690 N   0  0  0  0  0  0  0  0  0  0  0  0
    2.0670  -13.4810   -1.6840 C   0  0  0  0  0  0  0  0  0  0  0  0
    1.7110  -14.3120   -2.9130 C   0  0  0  0  0  0  0  0  0  0  0  0
    1.9140  -13.5300   -4.2090 C   0  0  0  0  0  0  0  0  0  0  0  0
    3.3190  -13.3300   -4.5030 N   0  0  0  0  0  0  0  0  0  0  0  0
    4.2620  -14.3080   -4.6510 C   0  0  0  0  0  0  0  0  0  0  0  0
    5.4310  -13.6320   -4.9160 C   0  0  0  0  0  0  0  0  0  0  0  0
    5.2180  -12.2770   -4.9270 N   0  0  0  0  0  0  0  0  0  0  0  0
    3.9380  -12.1250   -4.6700 C   0  0  0  0  0  0  0  0  0  0  0  0
    5.5440  -14.6190   -1.0380 C   0  0  0  0  0  0  0  0  0  0  0  0
    6.8600  -14.1550   -1.1630 C   0  0  0  0  0  0  0  0  0  0  0  0
    7.7607  -16.7031    0.1095 H   0  0  0  0  0  0  0  0  0  0  0  0
    6.8464  -16.7587   -1.4357 H   0  0  0  0  0  0  0  0  0  0  0  0
    8.6259  -17.0036   -1.4357 H   0  0  0  0  0  0  0  0  0  0  0  0
   13.2977  -12.0345   -3.9123 H   0  0  0  0  0  0  0  0  0  0  0  0
   14.4692  -11.0886   -1.9257 H   0  0  0  0  0  0  0  0  0  0  0  0
   13.3245  -11.0498    0.2888 H   0  0  0  0  0  0  0  0  0  0  0  0
    8.5679  -11.1698   -1.5860 H   0  0  0  0  0  0  0  0  0  0  0  0
    6.1190  -10.8815   -1.4799 H   0  0  0  0  0  0  0  0  0  0  0  0
    3.0550  -14.9620   -0.4820 H   0  0  0  0  0  0  0  0  0  0  0  0
    1.1921  -13.4249   -1.0196 H   0  0  0  0  0  0  0  0  0  0  0  0
    2.3617  -12.4728   -2.0105 H   0  0  0  0  0  0  0  0  0  0  0  0
    2.3501  -15.2070   -2.9341 H   0  0  0  0  0  0  0  0  0  0  0  0
    0.6477  -14.5848   -2.8431 H   0  0  0  0  0  0  0  0  0  0  0  0
    1.4529  -14.0879   -5.0373 H   0  0  0  0  0  0  0  0  0  0  0  0
    1.4460  -12.5418   -4.0887 H   0  0  0  0  0  0  0  0  0  0  0  0
    4.1183  -15.3959   -4.5750 H   0  0  0  0  0  0  0  0  0  0  0  0
    6.4040  -14.1129   -5.0947 H   0  0  0  0  0  0  0  0  0  0  0  0
    3.4307  -11.1516   -4.5987 H   0  0  0  0  0  0  0  0  0  0  0  0
    5.3497  -15.6944   -0.9121 H   0  0  0  0  0  0  0  0  0  0  0  0
  1  2  1  0
  2  3  1  0
  3  4  2  0
  3  5  1  0
  5  6  1  0
  6  7  2  0
  7  8  1  0
  7  9  1  0
  9 10  2  0
 10 11  1  0
 11 12  2  0
 12 13  1  0
  5 14  2  0
 14 15  1  0
 15 16  2  0
 16 17  1  0
 17 18  2  0
 18 19  1  0
 19 20  1  0
 20 21  1  0
 21 22  1  0
 22 23  1  0
 23 24  1  0
 24 25  2  0
 25 26  1  0
 26 27  2  0
 18 28  1  0
 28 29  2  0
 29  2  1  0
 12  6  1  0
 29 15  1  0
 27 23  1  0
  1 30  1  0
  1 31  1  0
  1 32  1  0
  9 33  1  0
 10 34  1  0
 11 35  1  0
 14 36  1  0
 16 37  1  0
 19 38  1  0
 20 39  1  0
 20 40  1  0
 21 41  1  0
 21 42  1  0
 22 43  1  0
 22 44  1  0
 24 45  1  0
 25 46  1  0
 27 47  1  0
 28 48  1  0
M  END
>  <meeko>  (8) 
{"is_sidechain": [false], "free_energy": -6.74, "intermolecular_energy": -8.675, "internal_energy": -1.748}

$$$$
LIB_BSMKGOSXJLCJOB__M_PUB_ALL__e8__s20260927
     RDKit          3D

 48 51  0  0  0  0  0  0  0  0999 V2000
    4.7410  -11.4610   -2.9710 C   0  0  0  0  0  0  0  0  0  0  0  0
    4.2660  -11.9900   -1.7030 N   0  0  0  0  0  0  0  0  0  0  0  0
    2.9650  -12.4880   -1.6440 C   0  0  0  0  0  0  0  0  0  0  0  0
    2.1980  -12.5030   -2.6060 O   0  0  0  0  0  0  0  0  0  0  0  0
    2.4960  -13.0280   -0.3250 C   0  0  0  0  0  0  0  0  0  0  0  0
    1.1250  -13.5670   -0.2080 C   0  0  0  0  0  0  0  0  0  0  0  0
    0.0850  -12.7860    0.3280 C   0  0  0  0  0  0  0  0  0  0  0  0
    0.3410  -11.1540    0.8490 Cl  0  0  0  0  0  0  0  0  0  0  0  0
   -1.2100  -13.3020    0.4500 C   0  0  0  0  0  0  0  0  0  0  0  0
   -1.4860  -14.6050    0.0430 C   0  0  0  0  0  0  0  0  0  0  0  0
   -0.4690  -15.3940   -0.4890 C   0  0  0  0  0  0  0  0  0  0  0  0
    0.8280  -14.8810   -0.6140 C   0  0  0  0  0  0  0  0  0  0  0  0
    2.0310  -15.9240   -1.2930 Cl  0  0  0  0  0  0  0  0  0  0  0  0
    3.3020  -13.0290    0.7460 C   0  0  0  0  0  0  0  0  0  0  0  0
    4.6540  -12.5010    0.6440 C   0  0  0  0  0  0  0  0  0  0  0  0
    5.5130  -12.4880    1.7320 C   0  0  0  0  0  0  0  0  0  0  0  0
    6.7780  -12.0100    1.6950 N   0  0  0  0  0  0  0  0  0  0  0  0
    7.2320  -11.5150    0.5320 C   0  0  0  0  0  0  0  0  0  0  0  0
    8.5210  -11.0630    0.5810 N   0  0  0  0  0  0  0  0  0  0  0  0
    9.6800  -11.8430    0.9390 C   0  0  0  0  0  0  0  0  0  0  0  0
   10.1350  -12.6990   -0.2390 C   0  0  0  0  0  0  0  0  0  0  0  0
   11.6570  -12.8160   -0.3060 C   0  0  0  0  0  0  0  0  0  0  0  0
   12.1700  -12.4440   -1.6090 N   0  0  0  0  0  0  0  0  0  0  0  0
   11.8200  -13.0020   -2.8060 C   0  0  0  0  0  0  0  0  0  0  0  0
   12.5670  -12.3240   -3.7420 C   0  0  0  0  0  0  0  0  0  0  0  0
   13.3570  -11.3780   -3.1410 N   0  0  0  0  0  0  0  0  0  0  0  0
   13.1010  -11.4770   -1.8560 C   0  0  0  0  0  0  0  0  0  0  0  0
    6.4390  -11.4930   -0.6090 C   0  0  0  0  0  0  0  0  0  0  0  0
    5.1290  -11.9890   -0.5630 C   0  0  0  0  0  0  0  0  0  0  0  0
    5.4652  -10.6545   -2.7836 H   0  0  0  0  0  0  0  0  0  0  0  0
    5.2269  -12.2642   -3.5444 H   0  0  0  0  0  0  0  0  0  0  0  0
    3.8903  -11.0641   -3.5444 H   0  0  0  0  0  0  0  0  0  0  0  0
   -2.0123  -12.6766    0.8686 H   0  0  0  0  0  0  0  0  0  0  0  0
   -2.5041  -15.0098    0.1414 H   0  0  0  0  0  0  0  0  0  0  0  0
   -0.6852  -16.4231   -0.8119 H   0  0  0  0  0  0  0  0  0  0  0  0
    2.9404  -13.4300    1.7044 H   0  0  0  0  0  0  0  0  0  0  0  0
    5.1426  -12.8919    2.6857 H   0  0  0  0  0  0  0  0  0  0  0  0
    8.6200  -10.1560    0.1370 H   0  0  0  0  0  0  0  0  0  0  0  0
   10.4961  -11.1654    1.2302 H   0  0  0  0  0  0  0  0  0  0  0  0
    9.4175  -12.5044    1.7779 H   0  0  0  0  0  0  0  0  0  0  0  0
    9.7055  -13.7061   -0.1332 H   0  0  0  0  0  0  0  0  0  0  0  0
    9.7899  -12.2151   -1.1646 H   0  0  0  0  0  0  0  0  0  0  0  0
   12.0985  -12.1531    0.4527 H   0  0  0  0  0  0  0  0  0  0  0  0
   11.9270  -13.8660   -0.1201 H   0  0  0  0  0  0  0  0  0  0  0  0
   11.0997  -13.8144   -2.9827 H   0  0  0  0  0  0  0  0  0  0  0  0
   12.5347  -12.5149   -4.8248 H   0  0  0  0  0  0  0  0  0  0  0  0
   13.5760  -10.8598   -1.0792 H   0  0  0  0  0  0  0  0  0  0  0  0
    6.8398  -11.0860   -1.5490 H   0  0  0  0  0  0  0  0  0  0  0  0
  1  2  1  0
  2  3  1  0
  3  4  2  0
  3  5  1  0
  5  6  1  0
  6  7  2  0
  7  8  1  0
  7  9  1  0
  9 10  2  0
 10 11  1  0
 11 12  2  0
 12 13  1  0
  5 14  2  0
 14 15  1  0
 15 16  2  0
 16 17  1  0
 17 18  2  0
 18 19  1  0
 19 20  1  0
 20 21  1  0
 21 22  1  0
 22 23  1  0
 23 24  1  0
 24 25  2  0
 25 26  1  0
 26 27  2  0
 18 28  1  0
 28 29  2  0
 29  2  1  0
 12  6  1  0
 29 15  1  0
 27 23  1  0
  1 30  1  0
  1 31  1  0
  1 32  1  0
  9 33  1  0
 10 34  1  0
 11 35  1  0
 14 36  1  0
 16 37  1  0
 19 38  1  0
 20 39  1  0
 20 40  1  0
 21 41  1  0
 21 42  1  0
 22 43  1  0
 22 44  1  0
 24 45  1  0
 25 46  1  0
 27 47  1  0
 28 48  1  0
M  END
>  <meeko>  (9) 
{"is_sidechain": [false], "free_energy": -6.732, "intermolecular_energy": -9.467, "internal_energy": -0.945}

$$$$
