LIB_XWAXDNIZFDHSSU__M_PUB_ALL__e8__s20260927
     RDKit          3D

 77 81  0  0  0  0  0  0  0  0999 V2000
   -3.1870  -15.5600    0.2590 C   0  0  0  0  0  0  0  0  0  0  0  0
   -1.9460  -15.4130    1.0720 C   0  0  0  0  0  0  0  0  0  0  0  0
   -1.8620  -15.8600    2.4050 C   0  0  0  0  0  0  0  0  0  0  0  0
   -0.7030  -15.7170    3.2030 C   0  0  0  0  0  0  0  0  0  0  0  0
   -0.7150  -16.1950    4.5270 N   0  0  0  0  0  0  0  0  0  0  0  0
    0.2950  -17.2080    4.8430 C   0  0  0  0  0  0  0  0  0  0  0  0
    0.5250  -17.2500    6.3500 C   0  0  0  0  0  0  0  0  0  0  0  0
   -0.7930  -17.4380    7.1040 C   0  0  0  0  0  0  0  0  0  0  0  0
   -0.5670  -17.4050    8.5420 N   0  0  0  0  0  0  0  0  0  0  0  0
   -1.3620  -18.0360    9.4470 C   0  0  0  0  0  0  0  0  0  0  0  0
   -2.3730  -18.6650    9.1820 O   0  0  0  0  0  0  0  0  0  0  0  0
   -0.8380  -17.8540   10.6810 O   0  0  0  0  0  0  0  0  0  0  0  0
    0.2590  -18.6800   11.1450 C   0  0  0  0  0  0  0  0  0  0  0  0
    0.3720  -19.9720   10.3260 C   0  0  0  0  0  0  0  0  0  0  0  0
   -0.1170  -19.0490   12.5890 C   0  0  0  0  0  0  0  0  0  0  0  0
    1.5770  -17.8990   11.1680 C   0  0  0  0  0  0  0  0  0  0  0  0
   -1.8030  -16.3600    6.7060 C   0  0  0  0  0  0  0  0  0  0  0  0
   -2.0090  -16.3330    5.1950 C   0  0  0  0  0  0  0  0  0  0  0  0
    0.4280  -15.1060    2.6420 C   0  0  0  0  0  0  0  0  0  0  0  0
    0.3610  -14.6460    1.3220 C   0  0  0  0  0  0  0  0  0  0  0  0
    1.2910  -14.0200    0.5540 N   0  0  0  0  0  0  0  0  0  0  0  0
    0.7020  -13.7030   -0.6560 C   0  0  0  0  0  0  0  0  0  0  0  0
    1.5200  -13.0070   -1.8820 C   0  0  0  0  0  0  0  0  0  0  0  0
    1.9840  -11.7360   -1.7290 C   0  0  0  0  0  0  0  0  0  0  0  0
    1.8110  -10.9670   -0.5680 N   0  0  0  0  0  0  0  0  0  0  0  0
    0.6610  -10.0990   -0.3540 C   0  0  0  0  0  0  0  0  0  0  0  0
    0.2560  -10.0630    1.1410 C   0  0  1  0  0  0  0  0  0  0  0  0
    0.1350   -8.7080    1.5930 O   0  0  0  0  0  0  0  0  0  0  0  0
   -1.0670  -10.7780    1.3560 C   0  0  0  0  0  0  0  0  0  0  0  0
   -1.2940  -11.4610    2.5620 C   0  0  0  0  0  0  0  0  0  0  0  0
   -2.4870  -12.1510    2.7790 C   0  0  0  0  0  0  0  0  0  0  0  0
   -3.4690  -12.1680    1.7890 C   0  0  0  0  0  0  0  0  0  0  0  0
   -3.2520  -11.4970    0.5860 C   0  0  0  0  0  0  0  0  0  0  0  0
   -4.4670  -11.5270   -0.6340 Cl  0  0  0  0  0  0  0  0  0  0  0  0
   -2.0610  -10.8080    0.3650 C   0  0  0  0  0  0  0  0  0  0  0  0
    2.6960  -11.1210   -2.8260 C   0  0  0  0  0  0  0  0  0  0  0  0
    2.8330  -11.8220   -3.9580 C   0  0  0  0  0  0  0  0  0  0  0  0
    2.3760  -13.0640   -4.2290 N   0  0  0  0  0  0  0  0  0  0  0  0
    1.6860  -13.7020   -3.2500 C   0  0  0  0  0  0  0  0  0  0  0  0
    1.1640  -14.7980   -3.4620 O   0  0  0  0  0  0  0  0  0  0  0  0
   -0.5430  -14.2410   -0.6630 N   0  0  0  0  0  0  0  0  0  0  0  0
   -0.8050  -14.7880    0.5460 C   0  0  0  0  0  0  0  0  0  0  0  0
   -4.0538  -15.6627    0.9284 H   0  0  0  0  0  0  0  0  0  0  0  0
   -3.3171  -14.6710   -0.3756 H   0  0  0  0  0  0  0  0  0  0  0  0
   -3.1058  -16.4548   -0.3756 H   0  0  0  0  0  0  0  0  0  0  0  0
   -2.7437  -16.3456    2.8486 H   0  0  0  0  0  0  0  0  0  0  0  0
   -0.0541  -18.1926    4.4986 H   0  0  0  0  0  0  0  0  0  0  0  0
    1.2379  -16.9533    4.3370 H   0  0  0  0  0  0  0  0  0  0  0  0
    1.1973  -18.0877    6.5875 H   0  0  0  0  0  0  0  0  0  0  0  0
    0.9722  -16.2946    6.6616 H   0  0  0  0  0  0  0  0  0  0  0  0
   -1.2052  -18.4211    6.8326 H   0  0  0  0  0  0  0  0  0  0  0  0
    0.2680  -16.9720    8.9110 H   0  0  0  0  0  0  0  0  0  0  0  0
    0.4473  -20.8325   11.0071 H   0  0  0  0  0  0  0  0  0  0  0  0
   -0.5198  -20.0833    9.6918 H   0  0  0  0  0  0  0  0  0  0  0  0
    1.2696  -19.9268    9.6918 H   0  0  0  0  0  0  0  0  0  0  0  0
    0.4887  -18.4546   13.2889 H   0  0  0  0  0  0  0  0  0  0  0  0
   -1.1835  -18.8372   12.7557 H   0  0  0  0  0  0  0  0  0  0  0  0
    0.0747  -20.1193   12.7557 H   0  0  0  0  0  0  0  0  0  0  0  0
    1.8790  -17.7200   12.2105 H   0  0  0  0  0  0  0  0  0  0  0  0
    2.3570  -18.4808   10.6550 H   0  0  0  0  0  0  0  0  0  0  0  0
    1.4412  -16.9355   10.6550 H   0  0  0  0  0  0  0  0  0  0  0  0
   -2.7650  -16.5702    7.1962 H   0  0  0  0  0  0  0  0  0  0  0  0
   -1.4135  -15.3815    7.0235 H   0  0  0  0  0  0  0  0  0  0  0  0
   -2.4890  -17.2692    4.8739 H   0  0  0  0  0  0  0  0  0  0  0  0
   -2.6511  -15.4805    4.9285 H   0  0  0  0  0  0  0  0  0  0  0  0
    1.3511  -14.9905    3.2290 H   0  0  0  0  0  0  0  0  0  0  0  0
    1.9570  -11.6000    0.2430 H   0  0  0  0  0  0  0  0  0  0  0  0
    0.9148   -9.0800   -0.6815 H   0  0  0  0  0  0  0  0  0  0  0  0
   -0.1858  -10.4937   -0.9346 H   0  0  0  0  0  0  0  0  0  0  0  0
    1.0419  -10.5741    1.7165 H   0  0  0  0  0  0  0  0  0  0  0  0
   -0.4070   -8.2700    0.8710 H   0  0  0  0  0  0  0  0  0  0  0  0
   -0.5216  -11.4518    3.3452 H   0  0  0  0  0  0  0  0  0  0  0  0
   -2.6526  -12.6804    3.7289 H   0  0  0  0  0  0  0  0  0  0  0  0
   -4.4119  -12.7091    1.9566 H   0  0  0  0  0  0  0  0  0  0  0  0
   -1.8991  -10.2857   -0.5895 H   0  0  0  0  0  0  0  0  0  0  0  0
    3.1128  -10.1072   -2.7335 H   0  0  0  0  0  0  0  0  0  0  0  0
    3.3865  -11.3250   -4.7683 H   0  0  0  0  0  0  0  0  0  0  0  0
  1  2  1  0
  2  3  2  0
  3  4  1  0
  4  5  1  0
  5  6  1  0
  6  7  1  0
  7  8  1  0
  8  9  1  0
  9 10  1  0
 10 11  2  0
 10 12  1  0
 12 13  1  0
 13 14  1  0
 13 15  1  0
 13 16  1  0
  8 17  1  0
 17 18  1  0
  4 19  2  0
 19 20  1  0
 20 21  1  0
 21 22  1  0
 22 23  1  0
 23 24  2  0
 24 25  1  0
 25 26  1  0
 26 27  1  0
 27 28  1  0
 27 29  1  0
 29 30  2  0
 30 31  1  0
 31 32  2  0
 32 33  1  0
 33 34  1  0
 33 35  2  0
 24 36  1  0
 36 37  2  0
 37 38  1  0
 38 39  1  0
 39 40  2  0
 22 41  2  0
 41 42  1  0
 42  2  1  0
 18  5  1  0
 42 20  2  0
 39 23  1  0
 35 29  1  0
  1 43  1  0
  1 44  1  0
  1 45  1  0
  3 46  1  0
  6 47  1  0
  6 48  1  0
  7 49  1  0
  7 50  1  0
  8 51  1  0
  9 52  1  0
 14 53  1  0
 14 54  1  0
 14 55  1  0
 15 56  1  0
 15 57  1  0
 15 58  1  0
 16 59  1  0
 16 60  1  0
 16 61  1  0
 17 62  1  0
 17 63  1  0
 18 64  1  0
 18 65  1  0
 19 66  1  0
 25 67  1  0
 26 68  1  0
 26 69  1  0
 27 70  1  1
 28 71  1  0
 30 72  1  0
 31 73  1  0
 32 74  1  0
 35 75  1  0
 36 76  1  0
 37 77  1  0
M  CHG  2  21  -1  38  -1
M  END
>  <meeko>  (1) 
{"is_sidechain": [false], "free_energy": -8.522, "intermolecular_energy": -13.255, "internal_energy": -2.862}

$$$$
LIB_XWAXDNIZFDHSSU__M_PUB_ALL__e8__s20260927
     RDKit          3D

 77 81  0  0  0  0  0  0  0  0999 V2000
    0.8610  -11.2960   -0.3810 C   0  0  0  0  0  0  0  0  0  0  0  0
    1.9780  -12.1570    0.1030 C   0  0  0  0  0  0  0  0  0  0  0  0
    3.2760  -12.0830   -0.4390 C   0  0  0  0  0  0  0  0  0  0  0  0
    4.3470  -12.9000   -0.0100 C   0  0  0  0  0  0  0  0  0  0  0  0
    5.6100  -12.7530   -0.6140 N   0  0  0  0  0  0  0  0  0  0  0  0
    5.6280  -11.9850   -1.8620 C   0  0  0  0  0  0  0  0  0  0  0  0
    7.0380  -11.4610   -2.1210 C   0  0  0  0  0  0  0  0  0  0  0  0
    8.0630  -12.5970   -2.0810 C   0  0  0  0  0  0  0  0  0  0  0  0
    9.4100  -12.0730   -2.2600 N   0  0  0  0  0  0  0  0  0  0  0  0
   10.2080  -12.3840   -3.3160 C   0  0  0  0  0  0  0  0  0  0  0  0
    9.9230  -13.1600   -4.2130 O   0  0  0  0  0  0  0  0  0  0  0  0
   11.3600  -11.6840   -3.2050 O   0  0  0  0  0  0  0  0  0  0  0  0
   12.5440  -12.2990   -2.6380 C   0  0  0  0  0  0  0  0  0  0  0  0
   13.1620  -11.4200   -1.5440 C   0  0  0  0  0  0  0  0  0  0  0  0
   13.5340  -12.3880   -3.8100 C   0  0  0  0  0  0  0  0  0  0  0  0
   12.2530  -13.7170   -2.1360 C   0  0  0  0  0  0  0  0  0  0  0  0
    7.9680  -13.3650   -0.7620 C   0  0  0  0  0  0  0  0  0  0  0  0
    6.5490  -13.8710   -0.5230 C   0  0  0  0  0  0  0  0  0  0  0  0
    4.1150  -13.8280    1.0150 C   0  0  0  0  0  0  0  0  0  0  0  0
    2.8300  -13.9250    1.5600 C   0  0  0  0  0  0  0  0  0  0  0  0
    2.3410  -14.7320    2.5370 N   0  0  0  0  0  0  0  0  0  0  0  0
    0.9850  -14.4900    2.6530 C   0  0  0  0  0  0  0  0  0  0  0  0
    0.0490  -15.2130    3.7740 C   0  0  0  0  0  0  0  0  0  0  0  0
   -1.1870  -15.6590    3.4140 C   0  0  0  0  0  0  0  0  0  0  0  0
   -1.7220  -15.5440    2.1230 N   0  0  0  0  0  0  0  0  0  0  0  0
   -2.0950  -16.6940    1.3110 C   0  0  0  0  0  0  0  0  0  0  0  0
   -2.0520  -16.3520   -0.1990 C   0  0  1  0  0  0  0  0  0  0  0  0
   -2.7790  -15.1430   -0.4570 O   0  0  0  0  0  0  0  0  0  0  0  0
   -0.6180  -16.1790   -0.6700 C   0  0  0  0  0  0  0  0  0  0  0  0
    0.3870  -17.0030   -0.1370 C   0  0  0  0  0  0  0  0  0  0  0  0
    1.7180  -16.8500   -0.5280 C   0  0  0  0  0  0  0  0  0  0  0  0
    2.0610  -15.8680   -1.4560 C   0  0  0  0  0  0  0  0  0  0  0  0
    1.0710  -15.0420   -1.9880 C   0  0  0  0  0  0  0  0  0  0  0  0
    1.5030  -13.8270   -3.1300 Cl  0  0  0  0  0  0  0  0  0  0  0  0
   -0.2590  -15.1900   -1.5990 C   0  0  0  0  0  0  0  0  0  0  0  0
   -2.0160  -16.2860    4.4180 C   0  0  0  0  0  0  0  0  0  0  0  0
   -1.5410  -16.3650    5.6670 C   0  0  0  0  0  0  0  0  0  0  0  0
   -0.3560  -15.9180    6.1370 N   0  0  0  0  0  0  0  0  0  0  0  0
    0.4740  -15.3050    5.2550 C   0  0  0  0  0  0  0  0  0  0  0  0
    1.5280  -14.7940    5.6350 O   0  0  0  0  0  0  0  0  0  0  0  0
    0.6790  -13.4550    1.8300 N   0  0  0  0  0  0  0  0  0  0  0  0
    1.7730  -13.1100    1.1120 C   0  0  0  0  0  0  0  0  0  0  0  0
    0.3197  -10.8788    0.4809 H   0  0  0  0  0  0  0  0  0  0  0  0
    1.2679  -10.4757   -0.9905 H   0  0  0  0  0  0  0  0  0  0  0  0
    0.1713  -11.8984   -0.9905 H   0  0  0  0  0  0  0  0  0  0  0  0
    3.4663  -11.3512   -1.2379 H   0  0  0  0  0  0  0  0  0  0  0  0
    5.3197  -12.6335   -2.6953 H   0  0  0  0  0  0  0  0  0  0  0  0
    4.9328  -11.1366   -1.7787 H   0  0  0  0  0  0  0  0  0  0  0  0
    7.0680  -10.9846   -3.1120 H   0  0  0  0  0  0  0  0  0  0  0  0
    7.2908  -10.7340   -1.3352 H   0  0  0  0  0  0  0  0  0  0  0  0
    7.8398  -13.2901   -2.9055 H   0  0  0  0  0  0  0  0  0  0  0  0
    9.7650  -11.3700   -1.6280 H   0  0  0  0  0  0  0  0  0  0  0  0
   12.8842  -11.8151   -0.5557 H   0  0  0  0  0  0  0  0  0  0  0  0
   14.2573  -11.4237   -1.6458 H   0  0  0  0  0  0  0  0  0  0  0  0
   12.7878  -10.3906   -1.6458 H   0  0  0  0  0  0  0  0  0  0  0  0
   14.5580  -12.4801   -3.4188 H   0  0  0  0  0  0  0  0  0  0  0  0
   13.2959  -13.2684   -4.4250 H   0  0  0  0  0  0  0  0  0  0  0  0
   13.4568  -11.4793   -4.4250 H   0  0  0  0  0  0  0  0  0  0  0  0
   12.2517  -13.7235   -1.0360 H   0  0  0  0  0  0  0  0  0  0  0  0
   11.2694  -14.0422   -2.5058 H   0  0  0  0  0  0  0  0  0  0  0  0
   13.0290  -14.4033   -2.5058 H   0  0  0  0  0  0  0  0  0  0  0  0
    8.6548  -14.2236   -0.7958 H   0  0  0  0  0  0  0  0  0  0  0  0
    8.2397  -12.6851    0.0589 H   0  0  0  0  0  0  0  0  0  0  0  0
    6.2959  -14.6250   -1.2829 H   0  0  0  0  0  0  0  0  0  0  0  0
    6.4849  -14.3227    0.4779 H   0  0  0  0  0  0  0  0  0  0  0  0
    4.9292  -14.4688    1.3844 H   0  0  0  0  0  0  0  0  0  0  0  0
   -2.4980  -14.8550    2.1730 H   0  0  0  0  0  0  0  0  0  0  0  0
   -1.3942  -17.5176    1.5123 H   0  0  0  0  0  0  0  0  0  0  0  0
   -3.1228  -16.9860    1.5725 H   0  0  0  0  0  0  0  0  0  0  0  0
   -2.5152  -17.1851   -0.7480 H   0  0  0  0  0  0  0  0  0  0  0  0
   -2.0560  -14.4730   -0.6430 H   0  0  0  0  0  0  0  0  0  0  0  0
    0.1219  -17.7780    0.5972 H   0  0  0  0  0  0  0  0  0  0  0  0
    2.4951  -17.5033   -0.1046 H   0  0  0  0  0  0  0  0  0  0  0  0
    3.1087  -15.7450   -1.7676 H   0  0  0  0  0  0  0  0  0  0  0  0
   -1.0303  -14.5293   -2.0216 H   0  0  0  0  0  0  0  0  0  0  0  0
   -3.0083  -16.6866    4.1633 H   0  0  0  0  0  0  0  0  0  0  0  0
   -2.1970  -16.8546    6.4018 H   0  0  0  0  0  0  0  0  0  0  0  0
  1  2  1  0
  2  3  2  0
  3  4  1  0
  4  5  1  0
  5  6  1  0
  6  7  1  0
  7  8  1  0
  8  9  1  0
  9 10  1  0
 10 11  2  0
 10 12  1  0
 12 13  1  0
 13 14  1  0
 13 15  1  0
 13 16  1  0
  8 17  1  0
 17 18  1  0
  4 19  2  0
 19 20  1  0
 20 21  1  0
 21 22  1  0
 22 23  1  0
 23 24  2  0
 24 25  1  0
 25 26  1  0
 26 27  1  0
 27 28  1  0
 27 29  1  0
 29 30  2  0
 30 31  1  0
 31 32  2  0
 32 33  1  0
 33 34  1  0
 33 35  2  0
 24 36  1  0
 36 37  2  0
 37 38  1  0
 38 39  1  0
 39 40  2  0
 22 41  2  0
 41 42  1  0
 42  2  1  0
 18  5  1  0
 42 20  2  0
 39 23  1  0
 35 29  1  0
  1 43  1  0
  1 44  1  0
  1 45  1  0
  3 46  1  0
  6 47  1  0
  6 48  1  0
  7 49  1  0
  7 50  1  0
  8 51  1  0
  9 52  1  0
 14 53  1  0
 14 54  1  0
 14 55  1  0
 15 56  1  0
 15 57  1  0
 15 58  1  0
 16 59  1  0
 16 60  1  0
 16 61  1  0
 17 62  1  0
 17 63  1  0
 18 64  1  0
 18 65  1  0
 19 66  1  0
 25 67  1  0
 26 68  1  0
 26 69  1  0
 27 70  1  6
 28 71  1  0
 30 72  1  0
 31 73  1  0
 32 74  1  0
 35 75  1  0
 36 76  1  0
 37 77  1  0
M  CHG  2  21  -1  38  -1
M  END
>  <meeko>  (2) 
{"is_sidechain": [false], "free_energy": -8.337, "intermolecular_energy": -12.838, "internal_energy": -2.991}

$$$$
LIB_XWAXDNIZFDHSSU__M_PUB_ALL__e8__s20260927
     RDKit          3D

 77 81  0  0  0  0  0  0  0  0999 V2000
    2.7480  -10.4180   -3.8490 C   0  0  0  0  0  0  0  0  0  0  0  0
    3.4440  -11.0880   -2.7140 C   0  0  0  0  0  0  0  0  0  0  0  0
    4.8190  -11.3900   -2.7470 C   0  0  0  0  0  0  0  0  0  0  0  0
    5.4980  -12.0400   -1.6910 C   0  0  0  0  0  0  0  0  0  0  0  0
    6.8760  -12.3020   -1.8160 N   0  0  0  0  0  0  0  0  0  0  0  0
    7.6320  -12.3270   -0.5620 C   0  0  0  0  0  0  0  0  0  0  0  0
    8.9270  -13.1080   -0.7590 C   0  0  0  0  0  0  0  0  0  0  0  0
    9.7240  -12.5640   -1.9470 C   0  0  0  0  0  0  0  0  0  0  0  0
   10.9210  -13.3630   -2.1670 N   0  0  0  0  0  0  0  0  0  0  0  0
   12.0340  -12.8990   -2.7960 C   0  0  0  0  0  0  0  0  0  0  0  0
   12.1590  -11.7900   -3.2860 O   0  0  0  0  0  0  0  0  0  0  0  0
   12.9740  -13.8720   -2.7760 O   0  0  0  0  0  0  0  0  0  0  0  0
   13.0880  -14.8100   -3.8760 C   0  0  0  0  0  0  0  0  0  0  0  0
   11.7100  -15.2870   -4.3490 C   0  0  0  0  0  0  0  0  0  0  0  0
   13.8440  -16.0110   -3.2860 C   0  0  0  0  0  0  0  0  0  0  0  0
   13.9180  -14.2270   -5.0250 C   0  0  0  0  0  0  0  0  0  0  0  0
    8.8640  -12.5470   -3.2120 C   0  0  0  0  0  0  0  0  0  0  0  0
    7.5720  -11.7670   -2.9860 C   0  0  0  0  0  0  0  0  0  0  0  0
    4.7740  -12.3980   -0.5450 C   0  0  0  0  0  0  0  0  0  0  0  0
    3.4050  -12.1160   -0.4970 C   0  0  0  0  0  0  0  0  0  0  0  0
    2.4830  -12.3610    0.4710 N   0  0  0  0  0  0  0  0  0  0  0  0
    1.2490  -11.9560   -0.0020 C   0  0  0  0  0  0  0  0  0  0  0  0
   -0.1080  -12.0170    0.9000 C   0  0  0  0  0  0  0  0  0  0  0  0
   -0.6230  -13.2320    1.2360 C   0  0  0  0  0  0  0  0  0  0  0  0
   -0.0580  -14.4600    0.8610 N   0  0  0  0  0  0  0  0  0  0  0  0
   -0.0620  -14.9500   -0.5110 C   0  0  0  0  0  0  0  0  0  0  0  0
    1.2950  -15.6040   -0.8760 C   0  0  1  0  0  0  0  0  0  0  0  0
    1.1490  -17.0260   -0.9890 O   0  0  0  0  0  0  0  0  0  0  0  0
    1.8190  -15.0530   -2.1910 C   0  0  0  0  0  0  0  0  0  0  0  0
    0.9180  -14.4940   -3.1130 C   0  0  0  0  0  0  0  0  0  0  0  0
    1.3650  -14.0050   -4.3420 C   0  0  0  0  0  0  0  0  0  0  0  0
    2.7200  -14.0730   -4.6650 C   0  0  0  0  0  0  0  0  0  0  0  0
    3.6210  -14.6300   -3.7590 C   0  0  0  0  0  0  0  0  0  0  0  0
    5.2920  -14.7150   -4.1680 Cl  0  0  0  0  0  0  0  0  0  0  0  0
    3.1790  -15.1200   -2.5310 C   0  0  0  0  0  0  0  0  0  0  0  0
   -1.8330  -13.2770    2.0240 C   0  0  0  0  0  0  0  0  0  0  0  0
   -2.4120  -12.1160    2.3540 C   0  0  0  0  0  0  0  0  0  0  0  0
   -2.0120  -10.8660    2.0360 N   0  0  0  0  0  0  0  0  0  0  0  0
   -0.8870  -10.7420    1.2860 C   0  0  0  0  0  0  0  0  0  0  0  0
   -0.5180   -9.6380    0.8860 O   0  0  0  0  0  0  0  0  0  0  0  0
    1.4430  -11.3600   -1.2050 N   0  0  0  0  0  0  0  0  0  0  0  0
    2.7420  -11.4780   -1.5630 C   0  0  0  0  0  0  0  0  0  0  0  0
    2.0078   -9.7055   -3.4560 H   0  0  0  0  0  0  0  0  0  0  0  0
    3.4841   -9.8800   -4.4643 H   0  0  0  0  0  0  0  0  0  0  0  0
    2.2384  -11.1741   -4.4643 H   0  0  0  0  0  0  0  0  0  0  0  0
    5.3944  -11.1055   -3.6403 H   0  0  0  0  0  0  0  0  0  0  0  0
    7.8688  -11.2970   -0.2570 H   0  0  0  0  0  0  0  0  0  0  0  0
    7.0280  -12.8132    0.2183 H   0  0  0  0  0  0  0  0  0  0  0  0
    9.5384  -13.0253    0.1517 H   0  0  0  0  0  0  0  0  0  0  0  0
    8.6735  -14.1592   -0.9607 H   0  0  0  0  0  0  0  0  0  0  0  0
   10.0253  -11.5321   -1.7138 H   0  0  0  0  0  0  0  0  0  0  0  0
   10.9910  -14.2860   -1.7630 H   0  0  0  0  0  0  0  0  0  0  0  0
   11.0780  -15.5058   -3.4756 H   0  0  0  0  0  0  0  0  0  0  0  0
   11.2378  -14.5000   -4.9554 H   0  0  0  0  0  0  0  0  0  0  0  0
   11.8254  -16.1975   -4.9554 H   0  0  0  0  0  0  0  0  0  0  0  0
   13.8123  -15.9606   -2.1876 H   0  0  0  0  0  0  0  0  0  0  0  0
   13.3703  -16.9445   -3.6241 H   0  0  0  0  0  0  0  0  0  0  0  0
   14.8905  -15.9875   -3.6241 H   0  0  0  0  0  0  0  0  0  0  0  0
   14.7528  -13.6406   -4.6135 H   0  0  0  0  0  0  0  0  0  0  0  0
   14.3147  -15.0459   -5.6431 H   0  0  0  0  0  0  0  0  0  0  0  0
   13.2822  -13.5760   -5.6431 H   0  0  0  0  0  0  0  0  0  0  0  0
    9.4319  -12.0736   -4.0265 H   0  0  0  0  0  0  0  0  0  0  0  0
    8.6056  -13.5838   -3.4734 H   0  0  0  0  0  0  0  0  0  0  0  0
    7.8091  -10.7061   -2.8179 H   0  0  0  0  0  0  0  0  0  0  0  0
    6.9266  -11.8634   -3.8716 H   0  0  0  0  0  0  0  0  0  0  0  0
    5.2738  -12.8919    0.3013 H   0  0  0  0  0  0  0  0  0  0  0  0
    0.8980  -14.4940    1.2670 H   0  0  0  0  0  0  0  0  0  0  0  0
   -0.8619  -15.6967   -0.6231 H   0  0  0  0  0  0  0  0  0  0  0  0
   -0.2305  -14.0973   -1.1852 H   0  0  0  0  0  0  0  0  0  0  0  0
    2.0104  -15.3698   -0.0739 H   0  0  0  0  0  0  0  0  0  0  0  0
    1.2220  -17.3430   -0.0400 H   0  0  0  0  0  0  0  0  0  0  0  0
   -0.1520  -14.4410   -2.8636 H   0  0  0  0  0  0  0  0  0  0  0  0
    0.6500  -13.5670   -5.0540 H   0  0  0  0  0  0  0  0  0  0  0  0
    3.0766  -13.6882   -5.6318 H   0  0  0  0  0  0  0  0  0  0  0  0
    3.8990  -15.5609   -1.8258 H   0  0  0  0  0  0  0  0  0  0  0  0
   -2.2656  -14.2366    2.3433 H   0  0  0  0  0  0  0  0  0  0  0  0
   -3.3274  -12.1893    2.9595 H   0  0  0  0  0  0  0  0  0  0  0  0
  1  2  1  0
  2  3  2  0
  3  4  1  0
  4  5  1  0
  5  6  1  0
  6  7  1  0
  7  8  1  0
  8  9  1  0
  9 10  1  0
 10 11  2  0
 10 12  1  0
 12 13  1  0
 13 14  1  0
 13 15  1  0
 13 16  1  0
  8 17  1  0
 17 18  1  0
  4 19  2  0
 19 20  1  0
 20 21  1  0
 21 22  1  0
 22 23  1  0
 23 24  2  0
 24 25  1  0
 25 26  1  0
 26 27  1  0
 27 28  1  0
 27 29  1  0
 29 30  2  0
 30 31  1  0
 31 32  2  0
 32 33  1  0
 33 34  1  0
 33 35  2  0
 24 36  1  0
 36 37  2  0
 37 38  1  0
 38 39  1  0
 39 40  2  0
 22 41  2  0
 41 42  1  0
 42  2  1  0
 18  5  1  0
 42 20  2  0
 39 23  1  0
 35 29  1  0
  1 43  1  0
  1 44  1  0
  1 45  1  0
  3 46  1  0
  6 47  1  0
  6 48  1  0
  7 49  1  0
  7 50  1  0
  8 51  1  0
  9 52  1  0
 14 53  1  0
 14 54  1  0
 14 55  1  0
 15 56  1  0
 15 57  1  0
 15 58  1  0
 16 59  1  0
 16 60  1  0
 16 61  1  0
 17 62  1  0
 17 63  1  0
 18 64  1  0
 18 65  1  0
 19 66  1  0
 25 67  1  0
 26 68  1  0
 26 69  1  0
 27 70  1  1
 28 71  1  0
 30 72  1  0
 31 73  1  0
 32 74  1  0
 35 75  1  0
 36 76  1  0
 37 77  1  0
M  CHG  2  21  -1  38  -1
M  END
>  <meeko>  (3) 
{"is_sidechain": [false], "free_energy": -8.307, "intermolecular_energy": -12.607, "internal_energy": -3.176}

$$$$
LIB_XWAXDNIZFDHSSU__M_PUB_ALL__e8__s20260927
     RDKit          3D

 77 81  0  0  0  0  0  0  0  0999 V2000
    3.6090  -15.1490    0.3690 C   0  0  0  0  0  0  0  0  0  0  0  0
    3.3550  -14.0840   -0.6420 C   0  0  0  0  0  0  0  0  0  0  0  0
    4.0320  -14.0400   -1.8760 C   0  0  0  0  0  0  0  0  0  0  0  0
    3.8220  -13.0310   -2.8440 C   0  0  0  0  0  0  0  0  0  0  0  0
    4.5490  -13.0700   -4.0490 N   0  0  0  0  0  0  0  0  0  0  0  0
    3.7490  -12.9810   -5.2730 C   0  0  0  0  0  0  0  0  0  0  0  0
    4.6290  -12.5150   -6.4280 C   0  0  0  0  0  0  0  0  0  0  0  0
    5.8710  -13.3980   -6.5670 C   0  0  0  0  0  0  0  0  0  0  0  0
    6.7360  -12.8990   -7.6260 N   0  0  0  0  0  0  0  0  0  0  0  0
    7.3250  -13.6950   -8.5580 C   0  0  0  0  0  0  0  0  0  0  0  0
    7.2430  -14.9100   -8.6040 O   0  0  0  0  0  0  0  0  0  0  0  0
    8.0070  -12.9090   -9.4240 O   0  0  0  0  0  0  0  0  0  0  0  0
    7.5280  -12.7160  -10.7790 C   0  0  0  0  0  0  0  0  0  0  0  0
    8.6470  -12.9320  -11.8040 C   0  0  0  0  0  0  0  0  0  0  0  0
    7.0950  -11.2430  -10.8320 C   0  0  0  0  0  0  0  0  0  0  0  0
    6.3060  -13.5950  -11.0700 C   0  0  0  0  0  0  0  0  0  0  0  0
    6.6400  -13.4610   -5.2460 C   0  0  0  0  0  0  0  0  0  0  0  0
    5.7360  -13.9220   -4.1060 C   0  0  0  0  0  0  0  0  0  0  0  0
    2.8850  -12.0230   -2.5720 C   0  0  0  0  0  0  0  0  0  0  0  0
    2.2090  -12.0440   -1.3480 C   0  0  0  0  0  0  0  0  0  0  0  0
    1.2760  -11.1980   -0.8360 N   0  0  0  0  0  0  0  0  0  0  0  0
    0.9790  -11.6150    0.4470 C   0  0  0  0  0  0  0  0  0  0  0  0
   -0.1570  -10.8980    1.3700 C   0  0  0  0  0  0  0  0  0  0  0  0
   -1.0430  -11.6780    2.0510 C   0  0  0  0  0  0  0  0  0  0  0  0
   -1.0480  -13.0800    2.0180 N   0  0  0  0  0  0  0  0  0  0  0  0
   -2.2280  -13.8790    2.3180 C   0  0  0  0  0  0  0  0  0  0  0  0
   -2.7530  -14.6010    1.0520 C   0  0  1  0  0  0  0  0  0  0  0  0
   -3.3630  -13.6600    0.1580 O   0  0  0  0  0  0  0  0  0  0  0  0
   -1.6180  -15.3070    0.3290 C   0  0  0  0  0  0  0  0  0  0  0  0
   -1.0630  -16.4710    0.8870 C   0  0  0  0  0  0  0  0  0  0  0  0
   -0.0020  -17.1270    0.2620 C   0  0  0  0  0  0  0  0  0  0  0  0
    0.5200  -16.6250   -0.9300 C   0  0  0  0  0  0  0  0  0  0  0  0
   -0.0210  -15.4680   -1.4900 C   0  0  0  0  0  0  0  0  0  0  0  0
    0.6330  -14.8510   -2.9590 Cl  0  0  0  0  0  0  0  0  0  0  0  0
   -1.0800  -14.8090   -0.8680 C   0  0  0  0  0  0  0  0  0  0  0  0
   -2.0560  -11.0340    2.8550 C   0  0  0  0  0  0  0  0  0  0  0  0
   -2.0960   -9.6960    2.8640 C   0  0  0  0  0  0  0  0  0  0  0  0
   -1.2990   -8.8350    2.1950 N   0  0  0  0  0  0  0  0  0  0  0  0
   -0.3300   -9.3650    1.4070 C   0  0  0  0  0  0  0  0  0  0  0  0
    0.3730   -8.6400    0.7010 O   0  0  0  0  0  0  0  0  0  0  0  0
    1.6420  -12.7790    0.6670 N   0  0  0  0  0  0  0  0  0  0  0  0
    2.4400  -13.0500   -0.3910 C   0  0  0  0  0  0  0  0  0  0  0  0
    3.5083  -14.7267    1.3797 H   0  0  0  0  0  0  0  0  0  0  0  0
    2.8795  -15.9616    0.2368 H   0  0  0  0  0  0  0  0  0  0  0  0
    4.6267  -15.5449    0.2368 H   0  0  0  0  0  0  0  0  0  0  0  0
    4.7623  -14.8319   -2.0985 H   0  0  0  0  0  0  0  0  0  0  0  0
    3.3295  -13.9702   -5.5086 H   0  0  0  0  0  0  0  0  0  0  0  0
    2.9318  -12.2601   -5.1231 H   0  0  0  0  0  0  0  0  0  0  0  0
    4.0496  -12.5607   -7.3619 H   0  0  0  0  0  0  0  0  0  0  0  0
    4.9548  -11.4843   -6.2245 H   0  0  0  0  0  0  0  0  0  0  0  0
    5.5411  -14.4141   -6.8292 H   0  0  0  0  0  0  0  0  0  0  0  0
    6.8520  -11.9040   -7.7550 H   0  0  0  0  0  0  0  0  0  0  0  0
    9.5956  -13.1151  -11.2781 H   0  0  0  0  0  0  0  0  0  0  0  0
    8.4040  -13.7998  -12.4347 H   0  0  0  0  0  0  0  0  0  0  0  0
    8.7444  -12.0361  -12.4347 H   0  0  0  0  0  0  0  0  0  0  0  0
    6.9816  -10.8571   -9.8082 H   0  0  0  0  0  0  0  0  0  0  0  0
    7.8584  -10.6553  -11.3629 H   0  0  0  0  0  0  0  0  0  0  0  0
    6.1350  -11.1619  -11.3629 H   0  0  0  0  0  0  0  0  0  0  0  0
    5.8540  -13.9202  -10.1214 H   0  0  0  0  0  0  0  0  0  0  0  0
    5.5692  -13.0186  -11.6487 H   0  0  0  0  0  0  0  0  0  0  0  0
    6.6181  -14.4769  -11.6487 H   0  0  0  0  0  0  0  0  0  0  0  0
    7.4760  -14.1683   -5.3502 H   0  0  0  0  0  0  0  0  0  0  0  0
    7.0134  -12.4535   -5.0105 H   0  0  0  0  0  0  0  0  0  0  0  0
    5.4308  -14.9646   -4.2789 H   0  0  0  0  0  0  0  0  0  0  0  0
    6.2827  -13.8526   -3.1540 H   0  0  0  0  0  0  0  0  0  0  0  0
    2.6856  -11.2304   -3.3082 H   0  0  0  0  0  0  0  0  0  0  0  0
   -0.6220  -13.3670    1.1140 H   0  0  0  0  0  0  0  0  0  0  0  0
   -1.9685  -14.6307    3.0780 H   0  0  0  0  0  0  0  0  0  0  0  0
   -3.0173  -13.2086    2.6889 H   0  0  0  0  0  0  0  0  0  0  0  0
   -3.4991  -15.3439    1.3704 H   0  0  0  0  0  0  0  0  0  0  0  0
   -4.0200  -13.1770    0.7420 H   0  0  0  0  0  0  0  0  0  0  0  0
   -1.4699  -16.8699    1.8279 H   0  0  0  0  0  0  0  0  0  0  0  0
    0.4220  -18.0385    0.7085 H   0  0  0  0  0  0  0  0  0  0  0  0
    1.3556  -17.1399   -1.4267 H   0  0  0  0  0  0  0  0  0  0  0  0
   -1.4958  -13.8949   -1.3170 H   0  0  0  0  0  0  0  0  0  0  0  0
   -2.7734  -11.6258    3.4425 H   0  0  0  0  0  0  0  0  0  0  0  0
   -2.8745   -9.2414    3.4944 H   0  0  0  0  0  0  0  0  0  0  0  0
  1  2  1  0
  2  3  2  0
  3  4  1  0
  4  5  1  0
  5  6  1  0
  6  7  1  0
  7  8  1  0
  8  9  1  0
  9 10  1  0
 10 11  2  0
 10 12  1  0
 12 13  1  0
 13 14  1  0
 13 15  1  0
 13 16  1  0
  8 17  1  0
 17 18  1  0
  4 19  2  0
 19 20  1  0
 20 21  1  0
 21 22  1  0
 22 23  1  0
 23 24  2  0
 24 25  1  0
 25 26  1  0
 26 27  1  0
 27 28  1  0
 27 29  1  0
 29 30  2  0
 30 31  1  0
 31 32  2  0
 32 33  1  0
 33 34  1  0
 33 35  2  0
 24 36  1  0
 36 37  2  0
 37 38  1  0
 38 39  1  0
 39 40  2  0
 22 41  2  0
 41 42  1  0
 42  2  1  0
 18  5  1  0
 42 20  2  0
 39 23  1  0
 35 29  1  0
  1 43  1  0
  1 44  1  0
  1 45  1  0
  3 46  1  0
  6 47  1  0
  6 48  1  0
  7 49  1  0
  7 50  1  0
  8 51  1  0
  9 52  1  0
 14 53  1  0
 14 54  1  0
 14 55  1  0
 15 56  1  0
 15 57  1  0
 15 58  1  0
 16 59  1  0
 16 60  1  0
 16 61  1  0
 17 62  1  0
 17 63  1  0
 18 64  1  0
 18 65  1  0
 19 66  1  0
 25 67  1  0
 26 68  1  0
 26 69  1  0
 27 70  1  1
 28 71  1  0
 30 72  1  0
 31 73  1  0
 32 74  1  0
 35 75  1  0
 36 76  1  0
 37 77  1  0
M  CHG  2  21  -1  38  -1
M  END
>  <meeko>  (4) 
{"is_sidechain": [false], "free_energy": -8.29, "intermolecular_energy": -13.356, "internal_energy": -2.4}

$$$$
LIB_XWAXDNIZFDHSSU__M_PUB_ALL__e8__s20260927
     RDKit          3D

 77 81  0  0  0  0  0  0  0  0999 V2000
    0.7040  -14.3500   -4.5450 C   0  0  0  0  0  0  0  0  0  0  0  0
    1.6230  -14.3390   -3.3710 C   0  0  0  0  0  0  0  0  0  0  0  0
    2.9500  -13.8740   -3.4580 C   0  0  0  0  0  0  0  0  0  0  0  0
    3.8460  -13.8700   -2.3650 C   0  0  0  0  0  0  0  0  0  0  0  0
    5.1550  -13.3860   -2.5500 N   0  0  0  0  0  0  0  0  0  0  0  0
    5.2630  -11.9610   -2.8710 C   0  0  0  0  0  0  0  0  0  0  0  0
    6.6650  -11.4640   -2.5330 C   0  0  0  0  0  0  0  0  0  0  0  0
    7.7340  -12.3290   -3.2050 C   0  0  0  0  0  0  0  0  0  0  0  0
    9.0660  -11.8870   -2.8170 N   0  0  0  0  0  0  0  0  0  0  0  0
   10.2090  -12.3230   -3.4110 C   0  0  0  0  0  0  0  0  0  0  0  0
   10.2710  -13.1550   -4.3000 O   0  0  0  0  0  0  0  0  0  0  0  0
   11.2560  -11.6720   -2.8540 O   0  0  0  0  0  0  0  0  0  0  0  0
   12.3550  -12.4110   -2.2640 C   0  0  0  0  0  0  0  0  0  0  0  0
   11.8510  -13.6110   -1.4550 C   0  0  0  0  0  0  0  0  0  0  0  0
   13.0190  -11.4160   -1.2990 C   0  0  0  0  0  0  0  0  0  0  0  0
   13.3830  -12.8240   -3.3220 C   0  0  0  0  0  0  0  0  0  0  0  0
    7.5430  -13.8030   -2.8430 C   0  0  0  0  0  0  0  0  0  0  0  0
    6.1310  -14.2730   -3.1820 C   0  0  0  0  0  0  0  0  0  0  0  0
    3.3960  -14.3420   -1.1240 C   0  0  0  0  0  0  0  0  0  0  0  0
    2.0840  -14.8180   -1.0190 C   0  0  0  0  0  0  0  0  0  0  0  0
    1.4100  -15.3320    0.0430 N   0  0  0  0  0  0  0  0  0  0  0  0
    0.1600  -15.7280   -0.3950 C   0  0  0  0  0  0  0  0  0  0  0  0
   -0.9780  -16.3300    0.6040 C   0  0  0  0  0  0  0  0  0  0  0  0
   -2.1790  -15.6930    0.6960 C   0  0  0  0  0  0  0  0  0  0  0  0
   -2.5160  -14.5370   -0.0250 N   0  0  0  0  0  0  0  0  0  0  0  0
   -3.7570  -13.8030    0.1860 C   0  0  0  0  0  0  0  0  0  0  0  0
   -3.6380  -12.3460   -0.3260 C   0  0  1  0  0  0  0  0  0  0  0  0
   -4.9380  -11.8040   -0.5940 O   0  0  0  0  0  0  0  0  0  0  0  0
   -2.9390  -11.4720    0.7020 C   0  0  0  0  0  0  0  0  0  0  0  0
   -2.8670  -10.0840    0.4930 C   0  0  0  0  0  0  0  0  0  0  0  0
   -2.2070   -9.2580    1.4040 C   0  0  0  0  0  0  0  0  0  0  0  0
   -1.6090   -9.8110    2.5360 C   0  0  0  0  0  0  0  0  0  0  0  0
   -1.6710  -11.1870    2.7500 C   0  0  0  0  0  0  0  0  0  0  0  0
   -0.9240  -11.8630    4.1470 Cl  0  0  0  0  0  0  0  0  0  0  0  0
   -2.3270  -12.0160    1.8420 C   0  0  0  0  0  0  0  0  0  0  0  0
   -3.1780  -16.2240    1.5940 C   0  0  0  0  0  0  0  0  0  0  0  0
   -2.8590  -17.3010    2.3230 C   0  0  0  0  0  0  0  0  0  0  0  0
   -1.6900  -17.9780    2.3420 N   0  0  0  0  0  0  0  0  0  0  0  0
   -0.6970  -17.5300    1.5320 C   0  0  0  0  0  0  0  0  0  0  0  0
    0.4210  -18.0450    1.5670 O   0  0  0  0  0  0  0  0  0  0  0  0
    0.0370  -15.3460   -1.6910 N   0  0  0  0  0  0  0  0  0  0  0  0
    1.2080  -14.8250   -2.1220 C   0  0  0  0  0  0  0  0  0  0  0  0
   -0.3386  -14.3625   -4.1944 H   0  0  0  0  0  0  0  0  0  0  0  0
    0.8755  -13.4497   -5.1534 H   0  0  0  0  0  0  0  0  0  0  0  0
    0.8970  -15.2459   -5.1534 H   0  0  0  0  0  0  0  0  0  0  0  0
    3.3072  -13.4944   -4.4267 H   0  0  0  0  0  0  0  0  0  0  0  0
    5.0707  -11.8120   -3.9438 H   0  0  0  0  0  0  0  0  0  0  0  0
    4.5243  -11.3974   -2.2822 H   0  0  0  0  0  0  0  0  0  0  0  0
    6.7718  -10.4261   -2.8813 H   0  0  0  0  0  0  0  0  0  0  0  0
    6.8028  -11.5227   -1.4432 H   0  0  0  0  0  0  0  0  0  0  0  0
    7.6282  -12.2194   -4.2944 H   0  0  0  0  0  0  0  0  0  0  0  0
    9.1730  -11.1510   -2.1340 H   0  0  0  0  0  0  0  0  0  0  0  0
   11.9424  -13.3933   -0.3806 H   0  0  0  0  0  0  0  0  0  0  0  0
   10.7963  -13.8027   -1.7018 H   0  0  0  0  0  0  0  0  0  0  0  0
   12.4525  -14.4983   -1.7018 H   0  0  0  0  0  0  0  0  0  0  0  0
   12.8160  -11.7203   -0.2616 H   0  0  0  0  0  0  0  0  0  0  0  0
   14.1052  -11.4064   -1.4724 H   0  0  0  0  0  0  0  0  0  0  0  0
   12.6111  -10.4093   -1.4724 H   0  0  0  0  0  0  0  0  0  0  0  0
   14.2937  -13.1899   -2.8252 H   0  0  0  0  0  0  0  0  0  0  0  0
   12.9619  -13.6227   -3.9502 H   0  0  0  0  0  0  0  0  0  0  0  0
   13.6316  -11.9559   -3.9502 H   0  0  0  0  0  0  0  0  0  0  0  0
    8.2682  -14.4083   -3.4066 H   0  0  0  0  0  0  0  0  0  0  0  0
    7.7001  -13.9204   -1.7606 H   0  0  0  0  0  0  0  0  0  0  0  0
    5.9907  -14.2541   -4.2728 H   0  0  0  0  0  0  0  0  0  0  0  0
    5.9877  -15.2984   -2.8106 H   0  0  0  0  0  0  0  0  0  0  0  0
    4.0620  -14.3383   -0.2486 H   0  0  0  0  0  0  0  0  0  0  0  0
   -1.6950  -13.9020    0.0140 H   0  0  0  0  0  0  0  0  0  0  0  0
   -4.5699  -14.3087   -0.3557 H   0  0  0  0  0  0  0  0  0  0  0  0
   -3.9683  -13.7776    1.2652 H   0  0  0  0  0  0  0  0  0  0  0  0
   -3.0461  -12.3602   -1.2531 H   0  0  0  0  0  0  0  0  0  0  0  0
   -4.8110  -10.8180   -0.4610 H   0  0  0  0  0  0  0  0  0  0  0  0
   -3.3363   -9.6436   -0.3990 H   0  0  0  0  0  0  0  0  0  0  0  0
   -2.1586   -8.1730    1.2295 H   0  0  0  0  0  0  0  0  0  0  0  0
   -1.0900   -9.1633    3.2578 H   0  0  0  0  0  0  0  0  0  0  0  0
   -2.3653  -13.1009    2.0194 H   0  0  0  0  0  0  0  0  0  0  0  0
   -4.1709  -15.7577    1.6765 H   0  0  0  0  0  0  0  0  0  0  0  0
   -3.6469  -17.6820    2.9894 H   0  0  0  0  0  0  0  0  0  0  0  0
  1  2  1  0
  2  3  2  0
  3  4  1  0
  4  5  1  0
  5  6  1  0
  6  7  1  0
  7  8  1  0
  8  9  1  0
  9 10  1  0
 10 11  2  0
 10 12  1  0
 12 13  1  0
 13 14  1  0
 13 15  1  0
 13 16  1  0
  8 17  1  0
 17 18  1  0
  4 19  2  0
 19 20  1  0
 20 21  1  0
 21 22  1  0
 22 23  1  0
 23 24  2  0
 24 25  1  0
 25 26  1  0
 26 27  1  0
 27 28  1  0
 27 29  1  0
 29 30  2  0
 30 31  1  0
 31 32  2  0
 32 33  1  0
 33 34  1  0
 33 35  2  0
 24 36  1  0
 36 37  2  0
 37 38  1  0
 38 39  1  0
 39 40  2  0
 22 41  2  0
 41 42  1  0
 42  2  1  0
 18  5  1  0
 42 20  2  0
 39 23  1  0
 35 29  1  0
  1 43  1  0
  1 44  1  0
  1 45  1  0
  3 46  1  0
  6 47  1  0
  6 48  1  0
  7 49  1  0
  7 50  1  0
  8 51  1  0
  9 52  1  0
 14 53  1  0
 14 54  1  0
 14 55  1  0
 15 56  1  0
 15 57  1  0
 15 58  1  0
 16 59  1  0
 16 60  1  0
 16 61  1  0
 17 62  1  0
 17 63  1  0
 18 64  1  0
 18 65  1  0
 19 66  1  0
 25 67  1  0
 26 68  1  0
 26 69  1  0
 27 70  1  6
 28 71  1  0
 30 72  1  0
 31 73  1  0
 32 74  1  0
 35 75  1  0
 36 76  1  0
 37 77  1  0
M  CHG  2  21  -1  38  -1
M  END
>  <meeko>  (5) 
{"is_sidechain": [false], "free_energy": -8.218, "intermolecular_energy": -14.37, "internal_energy": -1.274}

$$$$
LIB_XWAXDNIZFDHSSU__M_PUB_ALL__e8__s20260927
     RDKit          3D

 77 81  0  0  0  0  0  0  0  0999 V2000
    1.4520  -14.4480   -3.1450 C   0  0  0  0  0  0  0  0  0  0  0  0
    2.4160  -13.5880   -2.4000 C   0  0  0  0  0  0  0  0  0  0  0  0
    3.7900  -13.5580   -2.7070 C   0  0  0  0  0  0  0  0  0  0  0  0
    4.7270  -12.7640   -2.0050 C   0  0  0  0  0  0  0  0  0  0  0  0
    6.0820  -12.8020   -2.3840 N   0  0  0  0  0  0  0  0  0  0  0  0
    6.8160  -14.0070   -1.9890 C   0  0  0  0  0  0  0  0  0  0  0  0
    8.0500  -14.1680   -2.8710 C   0  0  0  0  0  0  0  0  0  0  0  0
    8.9030  -12.8970   -2.8630 C   0  0  0  0  0  0  0  0  0  0  0  0
   10.0380  -13.0400   -3.7630 N   0  0  0  0  0  0  0  0  0  0  0  0
   11.2640  -12.5030   -3.5230 C   0  0  0  0  0  0  0  0  0  0  0  0
   11.5580  -11.8110   -2.5630 O   0  0  0  0  0  0  0  0  0  0  0  0
   12.0980  -12.8750   -4.5230 O   0  0  0  0  0  0  0  0  0  0  0  0
   13.2700  -13.6810   -4.2430 C   0  0  0  0  0  0  0  0  0  0  0  0
   13.0460  -14.5920   -3.0310 C   0  0  0  0  0  0  0  0  0  0  0  0
   14.3680  -12.6640   -3.8940 C   0  0  0  0  0  0  0  0  0  0  0  0
   13.7130  -14.4710   -5.4800 C   0  0  0  0  0  0  0  0  0  0  0  0
    8.0650  -11.6810   -3.2620 C   0  0  0  0  0  0  0  0  0  0  0  0
    6.8340  -11.5480   -2.3710 C   0  0  0  0  0  0  0  0  0  0  0  0
    4.2700  -11.9560   -0.9540 C   0  0  0  0  0  0  0  0  0  0  0  0
    2.9100  -11.9800   -0.6270 C   0  0  0  0  0  0  0  0  0  0  0  0
    2.2180  -11.3150    0.3350 N   0  0  0  0  0  0  0  0  0  0  0  0
    0.9050  -11.7470    0.2930 C   0  0  0  0  0  0  0  0  0  0  0  0
   -0.2610  -11.1270    1.2480 C   0  0  0  0  0  0  0  0  0  0  0  0
   -1.1900  -11.9660    1.7850 C   0  0  0  0  0  0  0  0  0  0  0  0
   -1.2140  -13.3530    1.5770 N   0  0  0  0  0  0  0  0  0  0  0  0
   -0.3870  -14.2850    2.3310 C   0  0  0  0  0  0  0  0  0  0  0  0
    0.1340  -15.4300    1.4270 C   0  0  1  0  0  0  0  0  0  0  0  0
   -0.4640  -15.3500    0.1260 O   0  0  0  0  0  0  0  0  0  0  0  0
    1.6450  -15.3550    1.2830 C   0  0  0  0  0  0  0  0  0  0  0  0
    2.3790  -14.5240    2.1450 C   0  0  0  0  0  0  0  0  0  0  0  0
    3.7650  -14.4120    2.0210 C   0  0  0  0  0  0  0  0  0  0  0  0
    4.4330  -15.1290    1.0290 C   0  0  0  0  0  0  0  0  0  0  0  0
    3.7130  -15.9540    0.1660 C   0  0  0  0  0  0  0  0  0  0  0  0
    4.5450  -16.8320   -1.0610 Cl  0  0  0  0  0  0  0  0  0  0  0  0
    2.3290  -16.0670    0.2860 C   0  0  0  0  0  0  0  0  0  0  0  0
   -2.2290  -11.4070    2.6190 C   0  0  0  0  0  0  0  0  0  0  0  0
   -2.2490  -10.0800    2.7930 C   0  0  0  0  0  0  0  0  0  0  0  0
   -1.4080   -9.1590    2.2740 N   0  0  0  0  0  0  0  0  0  0  0  0
   -0.4110   -9.6070    1.4690 C   0  0  0  0  0  0  0  0  0  0  0  0
    0.3340   -8.8150    0.8910 O   0  0  0  0  0  0  0  0  0  0  0  0
    0.7790  -12.5820   -0.7690 N   0  0  0  0  0  0  0  0  0  0  0  0
    1.9930  -12.7850   -1.3310 C   0  0  0  0  0  0  0  0  0  0  0  0
    0.8284  -15.0044   -2.4298 H   0  0  0  0  0  0  0  0  0  0  0  0
    0.8104  -13.8168   -3.7774 H   0  0  0  0  0  0  0  0  0  0  0  0
    2.0062  -15.1572   -3.7774 H   0  0  0  0  0  0  0  0  0  0  0  0
    4.1534  -14.1841   -3.5352 H   0  0  0  0  0  0  0  0  0  0  0  0
    7.1269  -13.9179   -0.9376 H   0  0  0  0  0  0  0  0  0  0  0  0
    6.1654  -14.8859   -2.1080 H   0  0  0  0  0  0  0  0  0  0  0  0
    8.6531  -15.0077   -2.4952 H   0  0  0  0  0  0  0  0  0  0  0  0
    7.7195  -14.3603   -3.9024 H   0  0  0  0  0  0  0  0  0  0  0  0
    9.2790  -12.7425   -1.8409 H   0  0  0  0  0  0  0  0  0  0  0  0
    9.9660  -13.6390   -4.5740 H   0  0  0  0  0  0  0  0  0  0  0  0
   13.1882  -14.0135   -2.1062 H   0  0  0  0  0  0  0  0  0  0  0  0
   12.0223  -14.9937   -3.0584 H   0  0  0  0  0  0  0  0  0  0  0  0
   13.7667  -15.4226   -3.0584 H   0  0  0  0  0  0  0  0  0  0  0  0
   14.4572  -12.5814   -2.8007 H   0  0  0  0  0  0  0  0  0  0  0  0
   15.3267  -13.0002   -4.3157 H   0  0  0  0  0  0  0  0  0  0  0  0
   14.1061  -11.6824   -4.3157 H   0  0  0  0  0  0  0  0  0  0  0  0
   14.2282  -15.3898   -5.1632 H   0  0  0  0  0  0  0  0  0  0  0  0
   12.8309  -14.7343   -6.0822 H   0  0  0  0  0  0  0  0  0  0  0  0
   14.3977  -13.8557   -6.0822 H   0  0  0  0  0  0  0  0  0  0  0  0
    8.6791  -10.7736   -3.1646 H   0  0  0  0  0  0  0  0  0  0  0  0
    7.7318  -11.8116   -4.3021 H   0  0  0  0  0  0  0  0  0  0  0  0
    7.1496  -11.3209   -1.3420 H   0  0  0  0  0  0  0  0  0  0  0  0
    6.1959  -10.7352   -2.7480 H   0  0  0  0  0  0  0  0  0  0  0  0
    4.9685  -11.3147   -0.3965 H   0  0  0  0  0  0  0  0  0  0  0  0
   -2.2110  -13.6470    1.5850 H   0  0  0  0  0  0  0  0  0  0  0  0
    0.4716  -13.7422    2.7531 H   0  0  0  0  0  0  0  0  0  0  0  0
   -0.9997  -14.7249    3.1317 H   0  0  0  0  0  0  0  0  0  0  0  0
   -0.1385  -16.3849    1.9002 H   0  0  0  0  0  0  0  0  0  0  0  0
   -1.4010  -15.6720    0.2810 H   0  0  0  0  0  0  0  0  0  0  0  0
    1.8556  -13.9546    2.9272 H   0  0  0  0  0  0  0  0  0  0  0  0
    4.3288  -13.7597    2.7042 H   0  0  0  0  0  0  0  0  0  0  0  0
    5.5250  -15.0439    0.9276 H   0  0  0  0  0  0  0  0  0  0  0  0
    1.7707  -16.7170   -0.4037 H   0  0  0  0  0  0  0  0  0  0  0  0
   -2.9809  -12.0525    3.0965 H   0  0  0  0  0  0  0  0  0  0  0  0
   -3.0499   -9.6910    3.4390 H   0  0  0  0  0  0  0  0  0  0  0  0
  1  2  1  0
  2  3  2  0
  3  4  1  0
  4  5  1  0
  5  6  1  0
  6  7  1  0
  7  8  1  0
  8  9  1  0
  9 10  1  0
 10 11  2  0
 10 12  1  0
 12 13  1  0
 13 14  1  0
 13 15  1  0
 13 16  1  0
  8 17  1  0
 17 18  1  0
  4 19  2  0
 19 20  1  0
 20 21  1  0
 21 22  1  0
 22 23  1  0
 23 24  2  0
 24 25  1  0
 25 26  1  0
 26 27  1  0
 27 28  1  0
 27 29  1  0
 29 30  2  0
 30 31  1  0
 31 32  2  0
 32 33  1  0
 33 34  1  0
 33 35  2  0
 24 36  1  0
 36 37  2  0
 37 38  1  0
 38 39  1  0
 39 40  2  0
 22 41  2  0
 41 42  1  0
 42  2  1  0
 18  5  1  0
 42 20  2  0
 39 23  1  0
 35 29  1  0
  1 43  1  0
  1 44  1  0
  1 45  1  0
  3 46  1  0
  6 47  1  0
  6 48  1  0
  7 49  1  0
  7 50  1  0
  8 51  1  0
  9 52  1  0
 14 53  1  0
 14 54  1  0
 14 55  1  0
 15 56  1  0
 15 57  1  0
 15 58  1  0
 16 59  1  0
 16 60  1  0
 16 61  1  0
 17 62  1  0
 17 63  1  0
 18 64  1  0
 18 65  1  0
 19 66  1  0
 25 67  1  0
 26 68  1  0
 26 69  1  0
 27 70  1  1
 28 71  1  0
 30 72  1  0
 31 73  1  0
 32 74  1  0
 35 75  1  0
 36 76  1  0
 37 77  1  0
M  CHG  2  21  -1  38  -1
M  END
>  <meeko>  (6) 
{"is_sidechain": [false], "free_energy": -8.079, "intermolecular_energy": -11.89, "internal_energy": -3.537}

$$$$
LIB_XWAXDNIZFDHSSU__M_PUB_ALL__e8__s20260927
     RDKit          3D

 77 81  0  0  0  0  0  0  0  0999 V2000
    6.9670  -11.7290    1.3200 C   0  0  0  0  0  0  0  0  0  0  0  0
    6.3380  -12.8190    0.5200 C   0  0  0  0  0  0  0  0  0  0  0  0
    4.9420  -12.9820    0.4360 C   0  0  0  0  0  0  0  0  0  0  0  0
    4.3220  -14.0180   -0.3010 C   0  0  0  0  0  0  0  0  0  0  0  0
    2.9170  -14.1000   -0.3230 N   0  0  0  0  0  0  0  0  0  0  0  0
    2.2500  -13.8840    0.9640 C   0  0  0  0  0  0  0  0  0  0  0  0
    0.7980  -13.4830    0.7280 C   0  0  0  0  0  0  0  0  0  0  0  0
    0.0850  -14.4940   -0.1730 C   0  0  0  0  0  0  0  0  0  0  0  0
   -1.2780  -14.0610   -0.4470 N   0  0  0  0  0  0  0  0  0  0  0  0
   -2.3470  -14.4030    0.3210 C   0  0  0  0  0  0  0  0  0  0  0  0
   -2.3130  -15.1350    1.2950 O   0  0  0  0  0  0  0  0  0  0  0  0
   -3.4450  -13.7870   -0.1750 O   0  0  0  0  0  0  0  0  0  0  0  0
   -3.9380  -12.5630    0.4250 C   0  0  0  0  0  0  0  0  0  0  0  0
   -2.9660  -12.0270    1.4830 C   0  0  0  0  0  0  0  0  0  0  0  0
   -5.2440  -12.9720    1.1240 C   0  0  0  0  0  0  0  0  0  0  0  0
   -4.2640  -11.5100   -0.6400 C   0  0  0  0  0  0  0  0  0  0  0  0
    0.8500  -14.6830   -1.4840 C   0  0  0  0  0  0  0  0  0  0  0  0
    2.3010  -15.0760   -1.2210 C   0  0  0  0  0  0  0  0  0  0  0  0
    5.1320  -14.9270   -0.9940 C   0  0  0  0  0  0  0  0  0  0  0  0
    6.5220  -14.7880   -0.9160 C   0  0  0  0  0  0  0  0  0  0  0  0
    7.5200  -15.5250   -1.4720 N   0  0  0  0  0  0  0  0  0  0  0  0
    8.7250  -15.0200   -1.0240 C   0  0  0  0  0  0  0  0  0  0  0  0
   10.1670  -15.5910   -1.5280 C   0  0  0  0  0  0  0  0  0  0  0  0
   11.0130  -14.7540   -2.1900 C   0  0  0  0  0  0  0  0  0  0  0  0
   10.7320  -13.4090   -2.4720 N   0  0  0  0  0  0  0  0  0  0  0  0
    9.9460  -12.9850   -3.6230 C   0  0  0  0  0  0  0  0  0  0  0  0
    8.8640  -11.9550   -3.2140 C   0  0  1  0  0  0  0  0  0  0  0  0
    9.1000  -10.6990   -3.8640 O   0  0  0  0  0  0  0  0  0  0  0  0
    7.4790  -12.4550   -3.5870 C   0  0  0  0  0  0  0  0  0  0  0  0
    7.3530  -13.5720   -4.4300 C   0  0  0  0  0  0  0  0  0  0  0  0
    6.0950  -14.0380   -4.8140 C   0  0  0  0  0  0  0  0  0  0  0  0
    4.9460  -13.3900   -4.3610 C   0  0  0  0  0  0  0  0  0  0  0  0
    5.0610  -12.2780   -3.5280 C   0  0  0  0  0  0  0  0  0  0  0  0
    3.6370  -11.4800   -2.9780 Cl  0  0  0  0  0  0  0  0  0  0  0  0
    6.3150  -11.8080   -3.1430 C   0  0  0  0  0  0  0  0  0  0  0  0
   12.2830  -15.2720   -2.6460 C   0  0  0  0  0  0  0  0  0  0  0  0
   12.5500  -16.5650   -2.4260 C   0  0  0  0  0  0  0  0  0  0  0  0
   11.7670  -17.4860   -1.8230 N   0  0  0  0  0  0  0  0  0  0  0  0
   10.5520  -17.0780   -1.3780 C   0  0  0  0  0  0  0  0  0  0  0  0
    9.7540  -17.8860   -0.9010 O   0  0  0  0  0  0  0  0  0  0  0  0
    8.4610  -13.9070   -0.2940 N   0  0  0  0  0  0  0  0  0  0  0  0
    7.1230  -13.7570   -0.1680 C   0  0  0  0  0  0  0  0  0  0  0  0
    6.8436  -11.9429    2.3919 H   0  0  0  0  0  0  0  0  0  0  0  0
    8.0386  -11.6689    1.0791 H   0  0  0  0  0  0  0  0  0  0  0  0
    6.4828  -10.7711    1.0791 H   0  0  0  0  0  0  0  0  0  0  0  0
    4.3003  -12.2667    0.9712 H   0  0  0  0  0  0  0  0  0  0  0  0
    2.2820  -14.8124    1.5531 H   0  0  0  0  0  0  0  0  0  0  0  0
    2.7656  -13.0816    1.5120 H   0  0  0  0  0  0  0  0  0  0  0  0
    0.2771  -13.4346    1.6957 H   0  0  0  0  0  0  0  0  0  0  0  0
    0.7836  -12.5019    0.2308 H   0  0  0  0  0  0  0  0  0  0  0  0
    0.0504  -15.4585    0.3547 H   0  0  0  0  0  0  0  0  0  0  0  0
   -1.4570  -13.3990   -1.1880 H   0  0  0  0  0  0  0  0  0  0  0  0
   -3.3602  -12.2444    2.4867 H   0  0  0  0  0  0  0  0  0  0  0  0
   -1.9866  -12.5126    1.3606 H   0  0  0  0  0  0  0  0  0  0  0  0
   -2.8540  -10.9396    1.3606 H   0  0  0  0  0  0  0  0  0  0  0  0
   -5.1054  -12.9286    2.2144 H   0  0  0  0  0  0  0  0  0  0  0  0
   -6.0491  -12.2830    0.8290 H   0  0  0  0  0  0  0  0  0  0  0  0
   -5.5123  -13.9972    0.8290 H   0  0  0  0  0  0  0  0  0  0  0  0
   -4.5551  -10.5697   -0.1489 H   0  0  0  0  0  0  0  0  0  0  0  0
   -3.3775  -11.3367   -1.2677 H   0  0  0  0  0  0  0  0  0  0  0  0
   -5.0934  -11.8679   -1.2677 H   0  0  0  0  0  0  0  0  0  0  0  0
    0.3642  -15.4752   -2.0726 H   0  0  0  0  0  0  0  0  0  0  0  0
    0.8400  -13.7310   -2.0350 H   0  0  0  0  0  0  0  0  0  0  0  0
    2.3322  -16.0724   -0.7560 H   0  0  0  0  0  0  0  0  0  0  0  0
    2.8526  -15.0970   -2.1724 H   0  0  0  0  0  0  0  0  0  0  0  0
    4.6830  -15.7359   -1.5891 H   0  0  0  0  0  0  0  0  0  0  0  0
   10.3730  -12.9810   -1.5960 H   0  0  0  0  0  0  0  0  0  0  0  0
   10.6156  -12.5262   -4.3654 H   0  0  0  0  0  0  0  0  0  0  0  0
    9.4442  -13.8677   -4.0462 H   0  0  0  0  0  0  0  0  0  0  0  0
    8.9190  -11.8212   -2.1236 H   0  0  0  0  0  0  0  0  0  0  0  0
    8.2220  -10.2220   -3.7720 H   0  0  0  0  0  0  0  0  0  0  0  0
    8.2564  -14.0850   -4.7914 H   0  0  0  0  0  0  0  0  0  0  0  0
    6.0097  -14.9148   -5.4728 H   0  0  0  0  0  0  0  0  0  0  0  0
    3.9524  -13.7551   -4.6600 H   0  0  0  0  0  0  0  0  0  0  0  0
    6.3931  -10.9270   -2.4890 H   0  0  0  0  0  0  0  0  0  0  0  0
   13.0084  -14.6230   -3.1585 H   0  0  0  0  0  0  0  0  0  0  0  0
   13.5284  -16.9220   -2.7801 H   0  0  0  0  0  0  0  0  0  0  0  0
  1  2  1  0
  2  3  2  0
  3  4  1  0
  4  5  1  0
  5  6  1  0
  6  7  1  0
  7  8  1  0
  8  9  1  0
  9 10  1  0
 10 11  2  0
 10 12  1  0
 12 13  1  0
 13 14  1  0
 13 15  1  0
 13 16  1  0
  8 17  1  0
 17 18  1  0
  4 19  2  0
 19 20  1  0
 20 21  1  0
 21 22  1  0
 22 23  1  0
 23 24  2  0
 24 25  1  0
 25 26  1  0
 26 27  1  0
 27 28  1  0
 27 29  1  0
 29 30  2  0
 30 31  1  0
 31 32  2  0
 32 33  1  0
 33 34  1  0
 33 35  2  0
 24 36  1  0
 36 37  2  0
 37 38  1  0
 38 39  1  0
 39 40  2  0
 22 41  2  0
 41 42  1  0
 42  2  1  0
 18  5  1  0
 42 20  2  0
 39 23  1  0
 35 29  1  0
  1 43  1  0
  1 44  1  0
  1 45  1  0
  3 46  1  0
  6 47  1  0
  6 48  1  0
  7 49  1  0
  7 50  1  0
  8 51  1  0
  9 52  1  0
 14 53  1  0
 14 54  1  0
 14 55  1  0
 15 56  1  0
 15 57  1  0
 15 58  1  0
 16 59  1  0
 16 60  1  0
 16 61  1  0
 17 62  1  0
 17 63  1  0
 18 64  1  0
 18 65  1  0
 19 66  1  0
 25 67  1  0
 26 68  1  0
 26 69  1  0
 27 70  1  1
 28 71  1  0
 30 72  1  0
 31 73  1  0
 32 74  1  0
 35 75  1  0
 36 76  1  0
 37 77  1  0
M  CHG  2  21  -1  38  -1
M  END
>  <meeko>  (7) 
{"is_sidechain": [false], "free_energy": -7.994, "intermolecular_energy": -12.058, "internal_energy": -3.238}

$$$$
LIB_XWAXDNIZFDHSSU__M_PUB_ALL__e8__s20260927
     RDKit          3D

 77 81  0  0  0  0  0  0  0  0999 V2000
    2.3260  -17.8420   -0.3610 C   0  0  0  0  0  0  0  0  0  0  0  0
    2.7600  -16.6570    0.4350 C   0  0  0  0  0  0  0  0  0  0  0  0
    3.8360  -15.8390    0.0400 C   0  0  0  0  0  0  0  0  0  0  0  0
    4.2770  -14.7210    0.7860 C   0  0  0  0  0  0  0  0  0  0  0  0
    5.3650  -13.9640    0.3110 N   0  0  0  0  0  0  0  0  0  0  0  0
    5.7130  -12.7870    1.1110 C   0  0  0  0  0  0  0  0  0  0  0  0
    7.1540  -12.3790    0.8230 C   0  0  0  0  0  0  0  0  0  0  0  0
    7.3860  -12.1940   -0.6790 C   0  0  0  0  0  0  0  0  0  0  0  0
    8.7810  -11.8740   -0.9430 N   0  0  0  0  0  0  0  0  0  0  0  0
    9.8100  -12.7330   -0.7110 C   0  0  0  0  0  0  0  0  0  0  0  0
    9.7060  -13.8450   -0.2220 O   0  0  0  0  0  0  0  0  0  0  0  0
   10.9590  -12.1480   -1.1210 O   0  0  0  0  0  0  0  0  0  0  0  0
   12.0010  -11.8210   -0.1680 C   0  0  0  0  0  0  0  0  0  0  0  0
   11.4830  -10.8820    0.9280 C   0  0  0  0  0  0  0  0  0  0  0  0
   13.0600  -11.0720   -0.9920 C   0  0  0  0  0  0  0  0  0  0  0  0
   12.6410  -13.0850    0.4160 C   0  0  0  0  0  0  0  0  0  0  0  0
    6.9790  -13.4520   -1.4470 C   0  0  0  0  0  0  0  0  0  0  0  0
    5.5380  -13.8430   -1.1370 C   0  0  0  0  0  0  0  0  0  0  0  0
    3.6080  -14.3990    1.9740 C   0  0  0  0  0  0  0  0  0  0  0  0
    2.5430  -15.2060    2.3890 C   0  0  0  0  0  0  0  0  0  0  0  0
    1.7440  -15.1250    3.4850 N   0  0  0  0  0  0  0  0  0  0  0  0
    0.8890  -16.2100    3.4720 C   0  0  0  0  0  0  0  0  0  0  0  0
   -0.2790  -16.4310    4.5880 C   0  0  0  0  0  0  0  0  0  0  0  0
   -1.5300  -16.7740    4.1750 C   0  0  0  0  0  0  0  0  0  0  0  0
   -1.8950  -16.9590    2.8330 N   0  0  0  0  0  0  0  0  0  0  0  0
   -2.5930  -15.9470    2.0520 C   0  0  0  0  0  0  0  0  0  0  0  0
   -2.2900  -16.0990    0.5400 C   0  0  1  0  0  0  0  0  0  0  0  0
   -3.4530  -15.7780   -0.2360 O   0  0  0  0  0  0  0  0  0  0  0  0
   -1.1500  -15.1850    0.1270 C   0  0  0  0  0  0  0  0  0  0  0  0
   -0.8300  -14.0750    0.9270 C   0  0  0  0  0  0  0  0  0  0  0  0
    0.1930  -13.2010    0.5590 C   0  0  0  0  0  0  0  0  0  0  0  0
    0.9100  -13.4240   -0.6160 C   0  0  0  0  0  0  0  0  0  0  0  0
    0.5970  -14.5200   -1.4200 C   0  0  0  0  0  0  0  0  0  0  0  0
    1.4820  -14.7860   -2.8730 Cl  0  0  0  0  0  0  0  0  0  0  0  0
   -0.4250  -15.3950   -1.0570 C   0  0  0  0  0  0  0  0  0  0  0  0
   -2.5630  -16.9540    5.1690 C   0  0  0  0  0  0  0  0  0  0  0  0
   -2.2460  -16.7390    6.4520 C   0  0  0  0  0  0  0  0  0  0  0  0
   -1.0550  -16.3550    6.9620 N   0  0  0  0  0  0  0  0  0  0  0  0
   -0.0370  -16.1530    6.0870 C   0  0  0  0  0  0  0  0  0  0  0  0
    1.0470  -15.7160    6.4740 O   0  0  0  0  0  0  0  0  0  0  0  0
    1.0890  -16.8800    2.3090 N   0  0  0  0  0  0  0  0  0  0  0  0
    2.1240  -16.3220    1.6390 C   0  0  0  0  0  0  0  0  0  0  0  0
    2.0291  -18.6527    0.3206 H   0  0  0  0  0  0  0  0  0  0  0  0
    1.4711  -17.5646   -0.9952 H   0  0  0  0  0  0  0  0  0  0  0  0
    3.1578  -18.1823   -0.9952 H   0  0  0  0  0  0  0  0  0  0  0  0
    4.3602  -16.0817   -0.8961 H   0  0  0  0  0  0  0  0  0  0  0  0
    5.0391  -11.9568    0.8528 H   0  0  0  0  0  0  0  0  0  0  0  0
    5.6087  -13.0281    2.1792 H   0  0  0  0  0  0  0  0  0  0  0  0
    7.3688  -11.4315    1.3389 H   0  0  0  0  0  0  0  0  0  0  0  0
    7.8210  -13.1760    1.1835 H   0  0  0  0  0  0  0  0  0  0  0  0
    6.7605  -11.3570   -1.0229 H   0  0  0  0  0  0  0  0  0  0  0  0
    9.0210  -11.0100   -1.4070 H   0  0  0  0  0  0  0  0  0  0  0  0
   11.7172  -11.3065    1.9154 H   0  0  0  0  0  0  0  0  0  0  0  0
   11.9665   -9.8991    0.8274 H   0  0  0  0  0  0  0  0  0  0  0  0
   10.3937  -10.7668    0.8274 H   0  0  0  0  0  0  0  0  0  0  0  0
   13.7667  -10.5722   -0.3132 H   0  0  0  0  0  0  0  0  0  0  0  0
   13.6043  -11.7871   -1.6263 H   0  0  0  0  0  0  0  0  0  0  0  0
   12.5671  -10.3206   -1.6263 H   0  0  0  0  0  0  0  0  0  0  0  0
   12.6156  -13.0348    1.5146 H   0  0  0  0  0  0  0  0  0  0  0  0
   12.0821  -13.9695    0.0763 H   0  0  0  0  0  0  0  0  0  0  0  0
   13.6847  -13.1580    0.0763 H   0  0  0  0  0  0  0  0  0  0  0  0
    7.0751  -13.2609   -2.5260 H   0  0  0  0  0  0  0  0  0  0  0  0
    7.6384  -14.2772   -1.1400 H   0  0  0  0  0  0  0  0  0  0  0  0
    4.8573  -13.0705   -1.5241 H   0  0  0  0  0  0  0  0  0  0  0  0
    5.3092  -14.8070   -1.6149 H   0  0  0  0  0  0  0  0  0  0  0  0
    3.9146  -13.5269    2.5702 H   0  0  0  0  0  0  0  0  0  0  0  0
   -1.0530  -17.3040    2.3310 H   0  0  0  0  0  0  0  0  0  0  0  0
   -3.6759  -16.0529    2.2134 H   0  0  0  0  0  0  0  0  0  0  0  0
   -2.2475  -14.9551    2.3787 H   0  0  0  0  0  0  0  0  0  0  0  0
   -2.0009  -17.1442    0.3558 H   0  0  0  0  0  0  0  0  0  0  0  0
   -3.1010  -15.1410   -0.9270 H   0  0  0  0  0  0  0  0  0  0  0  0
   -1.3929  -13.8931    1.8544 H   0  0  0  0  0  0  0  0  0  0  0  0
    0.4339  -12.3366    1.1952 H   0  0  0  0  0  0  0  0  0  0  0  0
    1.7192  -12.7383   -0.9077 H   0  0  0  0  0  0  0  0  0  0  0  0
   -0.6648  -16.2540   -1.7009 H   0  0  0  0  0  0  0  0  0  0  0  0
   -3.5798  -17.2586    4.8803 H   0  0  0  0  0  0  0  0  0  0  0  0
   -3.0551  -16.8941    7.1810 H   0  0  0  0  0  0  0  0  0  0  0  0
  1  2  1  0
  2  3  2  0
  3  4  1  0
  4  5  1  0
  5  6  1  0
  6  7  1  0
  7  8  1  0
  8  9  1  0
  9 10  1  0
 10 11  2  0
 10 12  1  0
 12 13  1  0
 13 14  1  0
 13 15  1  0
 13 16  1  0
  8 17  1  0
 17 18  1  0
  4 19  2  0
 19 20  1  0
 20 21  1  0
 21 22  1  0
 22 23  1  0
 23 24  2  0
 24 25  1  0
 25 26  1  0
 26 27  1  0
 27 28  1  0
 27 29  1  0
 29 30  2  0
 30 31  1  0
 31 32  2  0
 32 33  1  0
 33 34  1  0
 33 35  2  0
 24 36  1  0
 36 37  2  0
 37 38  1  0
 38 39  1  0
 39 40  2  0
 22 41  2  0
 41 42  1  0
 42  2  1  0
 18  5  1  0
 42 20  2  0
 39 23  1  0
 35 29  1  0
  1 43  1  0
  1 44  1  0
  1 45  1  0
  3 46  1  0
  6 47  1  0
  6 48  1  0
  7 49  1  0
  7 50  1  0
  8 51  1  0
  9 52  1  0
 14 53  1  0
 14 54  1  0
 14 55  1  0
 15 56  1  0
 15 57  1  0
 15 58  1  0
 16 59  1  0
 16 60  1  0
 16 61  1  0
 17 62  1  0
 17 63  1  0
 18 64  1  0
 18 65  1  0
 19 66  1  0
 25 67  1  0
 26 68  1  0
 26 69  1  0
 27 70  1  1
 28 71  1  0
 30 72  1  0
 31 73  1  0
 32 74  1  0
 35 75  1  0
 36 76  1  0
 37 77  1  0
M  CHG  2  21  -1  38  -1
M  END
>  <meeko>  (8) 
{"is_sidechain": [false], "free_energy": -7.974, "intermolecular_energy": -12.496, "internal_energy": -2.769}

$$$$
LIB_XWAXDNIZFDHSSU__M_PUB_ALL__e8__s20260927
     RDKit          3D

 77 81  0  0  0  0  0  0  0  0999 V2000
    9.1570  -18.2350   -1.6010 C   0  0  0  0  0  0  0  0  0  0  0  0
    8.2530  -17.1360   -1.1570 C   0  0  0  0  0  0  0  0  0  0  0  0
    6.8830  -17.3430   -0.9030 C   0  0  0  0  0  0  0  0  0  0  0  0
    6.0030  -16.3140   -0.4980 C   0  0  0  0  0  0  0  0  0  0  0  0
    4.6470  -16.6190   -0.2700 N   0  0  0  0  0  0  0  0  0  0  0  0
    4.1600  -16.3590    1.0870 C   0  0  0  0  0  0  0  0  0  0  0  0
    2.6410  -16.2210    1.0700 C   0  0  0  0  0  0  0  0  0  0  0  0
    1.9860  -17.4330    0.4020 C   0  0  0  0  0  0  0  0  0  0  0  0
    0.5420  -17.2550    0.3290 N   0  0  0  0  0  0  0  0  0  0  0  0
   -0.3110  -17.5880    1.3340 C   0  0  0  0  0  0  0  0  0  0  0  0
    0.0080  -18.1060    2.3900 O   0  0  0  0  0  0  0  0  0  0  0  0
   -1.5650  -17.2380    0.9650 O   0  0  0  0  0  0  0  0  0  0  0  0
   -2.2290  -16.1090    1.5860 C   0  0  0  0  0  0  0  0  0  0  0  0
   -3.1390  -16.5580    2.7350 C   0  0  0  0  0  0  0  0  0  0  0  0
   -3.1060  -15.5140    0.4730 C   0  0  0  0  0  0  0  0  0  0  0  0
   -1.2210  -15.0460    2.0350 C   0  0  0  0  0  0  0  0  0  0  0  0
    2.5600  -17.6540   -0.9990 C   0  0  0  0  0  0  0  0  0  0  0  0
    4.0800  -17.7800   -0.9550 C   0  0  0  0  0  0  0  0  0  0  0  0
    6.5130  -15.0200   -0.3280 C   0  0  0  0  0  0  0  0  0  0  0  0
    7.8700  -14.7910   -0.5850 C   0  0  0  0  0  0  0  0  0  0  0  0
    8.6060  -13.6510   -0.5100 N   0  0  0  0  0  0  0  0  0  0  0  0
    9.8860  -13.9400   -0.9420 C   0  0  0  0  0  0  0  0  0  0  0  0
   11.0930  -12.8440   -0.9310 C   0  0  0  0  0  0  0  0  0  0  0  0
   11.8760  -12.7130   -2.0370 C   0  0  0  0  0  0  0  0  0  0  0  0
   11.7150  -13.4640   -3.2110 N   0  0  0  0  0  0  0  0  0  0  0  0
   10.6930  -13.1710   -4.2080 C   0  0  0  0  0  0  0  0  0  0  0  0
   10.0140  -14.4700   -4.7100 C   0  0  1  0  0  0  0  0  0  0  0  0
   10.6080  -15.6170   -4.0890 O   0  0  0  0  0  0  0  0  0  0  0  0
    8.5270  -14.4520   -4.3990 C   0  0  0  0  0  0  0  0  0  0  0  0
    7.7790  -15.6330   -4.5390 C   0  0  0  0  0  0  0  0  0  0  0  0
    6.4060  -15.6430   -4.2870 C   0  0  0  0  0  0  0  0  0  0  0  0
    5.7630  -14.4690   -3.8960 C   0  0  0  0  0  0  0  0  0  0  0  0
    6.4960  -13.2910   -3.7590 C   0  0  0  0  0  0  0  0  0  0  0  0
    5.6930  -11.8440   -3.2800 Cl  0  0  0  0  0  0  0  0  0  0  0  0
    7.8660  -13.2760   -4.0100 C   0  0  0  0  0  0  0  0  0  0  0  0
   12.9530  -11.7490   -2.0140 C   0  0  0  0  0  0  0  0  0  0  0  0
   13.1500  -11.0550   -0.8870 C   0  0  0  0  0  0  0  0  0  0  0  0
   12.4640  -11.1390    0.2750 N   0  0  0  0  0  0  0  0  0  0  0  0
   11.4450  -12.0320    0.3340 C   0  0  0  0  0  0  0  0  0  0  0  0
   10.8380  -12.2240    1.3880 O   0  0  0  0  0  0  0  0  0  0  0  0
    9.9550  -15.2770   -1.1640 N   0  0  0  0  0  0  0  0  0  0  0  0
    8.7300  -15.8260   -0.9990 C   0  0  0  0  0  0  0  0  0  0  0  0
    9.5756  -18.7439   -0.7202 H   0  0  0  0  0  0  0  0  0  0  0  0
    8.5876  -18.9566   -2.2052 H   0  0  0  0  0  0  0  0  0  0  0  0
    9.9749  -17.8155   -2.2052 H   0  0  0  0  0  0  0  0  0  0  0  0
    6.4772  -18.3579   -1.0262 H   0  0  0  0  0  0  0  0  0  0  0  0
    4.4440  -17.1944    1.7438 H   0  0  0  0  0  0  0  0  0  0  0  0
    4.6065  -15.4263    1.4620 H   0  0  0  0  0  0  0  0  0  0  0  0
    2.2758  -16.1397    2.1044 H   0  0  0  0  0  0  0  0  0  0  0  0
    2.3779  -15.3204    0.4958 H   0  0  0  0  0  0  0  0  0  0  0  0
    2.2034  -18.3213    1.0133 H   0  0  0  0  0  0  0  0  0  0  0  0
    0.1330  -16.7800   -0.4630 H   0  0  0  0  0  0  0  0  0  0  0  0
   -2.6596  -16.3214    3.6963 H   0  0  0  0  0  0  0  0  0  0  0  0
   -4.1026  -16.0319    2.6666 H   0  0  0  0  0  0  0  0  0  0  0  0
   -3.3078  -17.6428    2.6666 H   0  0  0  0  0  0  0  0  0  0  0  0
   -3.9368  -14.9504    0.9226 H   0  0  0  0  0  0  0  0  0  0  0  0
   -2.5002  -14.8396   -0.1501 H   0  0  0  0  0  0  0  0  0  0  0  0
   -3.5087  -16.3261   -0.1501 H   0  0  0  0  0  0  0  0  0  0  0  0
   -1.1889  -15.0121    3.1340 H   0  0  0  0  0  0  0  0  0  0  0  0
   -0.2235  -15.2994    1.6467 H   0  0  0  0  0  0  0  0  0  0  0  0
   -1.5269  -14.0633    1.6467 H   0  0  0  0  0  0  0  0  0  0  0  0
    2.1348  -18.5769   -1.4202 H   0  0  0  0  0  0  0  0  0  0  0  0
    2.2987  -16.7879   -1.6248 H   0  0  0  0  0  0  0  0  0  0  0  0
    4.3562  -18.6964   -0.4128 H   0  0  0  0  0  0  0  0  0  0  0  0
    4.4733  -17.8278   -1.9812 H   0  0  0  0  0  0  0  0  0  0  0  0
    5.8591  -14.1991    0.0014 H   0  0  0  0  0  0  0  0  0  0  0  0
   12.6520  -13.5500   -3.6510 H   0  0  0  0  0  0  0  0  0  0  0  0
    9.9304  -12.5174   -3.7593 H   0  0  0  0  0  0  0  0  0  0  0  0
   11.1728  -12.6745   -5.0643 H   0  0  0  0  0  0  0  0  0  0  0  0
   10.1567  -14.5266   -5.7992 H   0  0  0  0  0  0  0  0  0  0  0  0
    9.9030  -15.9240   -3.4460 H   0  0  0  0  0  0  0  0  0  0  0  0
    8.2812  -16.5607   -4.8508 H   0  0  0  0  0  0  0  0  0  0  0  0
    5.8324  -16.5752   -4.3966 H   0  0  0  0  0  0  0  0  0  0  0  0
    4.6813  -14.4723   -3.6964 H   0  0  0  0  0  0  0  0  0  0  0  0
    8.4323  -12.3391   -3.9030 H   0  0  0  0  0  0  0  0  0  0  0  0
   13.5911  -11.5908   -2.8960 H   0  0  0  0  0  0  0  0  0  0  0  0
   13.9727  -10.3251   -0.9087 H   0  0  0  0  0  0  0  0  0  0  0  0
  1  2  1  0
  2  3  2  0
  3  4  1  0
  4  5  1  0
  5  6  1  0
  6  7  1  0
  7  8  1  0
  8  9  1  0
  9 10  1  0
 10 11  2  0
 10 12  1  0
 12 13  1  0
 13 14  1  0
 13 15  1  0
 13 16  1  0
  8 17  1  0
 17 18  1  0
  4 19  2  0
 19 20  1  0
 20 21  1  0
 21 22  1  0
 22 23  1  0
 23 24  2  0
 24 25  1  0
 25 26  1  0
 26 27  1  0
 27 28  1  0
 27 29  1  0
 29 30  2  0
 30 31  1  0
 31 32  2  0
 32 33  1  0
 33 34  1  0
 33 35  2  0
 24 36  1  0
 36 37  2  0
 37 38  1  0
 38 39  1  0
 39 40  2  0
 22 41  2  0
 41 42  1  0
 42  2  1  0
 18  5  1  0
 42 20  2  0
 39 23  1  0
 35 29  1  0
  1 43  1  0
  1 44  1  0
  1 45  1  0
  3 46  1  0
  6 47  1  0
  6 48  1  0
  7 49  1  0
  7 50  1  0
  8 51  1  0
  9 52  1  0
 14 53  1  0
 14 54  1  0
 14 55  1  0
 15 56  1  0
 15 57  1  0
 15 58  1  0
 16 59  1  0
 16 60  1  0
 16 61  1  0
 17 62  1  0
 17 63  1  0
 18 64  1  0
 18 65  1  0
 19 66  1  0
 25 67  1  0
 26 68  1  0
 26 69  1  0
 27 70  1  6
 28 71  1  0
 30 72  1  0
 31 73  1  0
 32 74  1  0
 35 75  1  0
 36 76  1  0
 37 77  1  0
M  CHG  2  21  -1  38  -1
M  END
>  <meeko>  (9) 
{"is_sidechain": [false], "free_energy": -7.958, "intermolecular_energy": -11.609, "internal_energy": -3.631}

$$$$
