LIB_MNJJBVNCZHNWCS__M_PUB_ALL__e8__s20260927
     RDKit          3D

 69 74  0  0  0  0  0  0  0  0999 V2000
   14.9000  -13.7020  -10.7570 C   0  0  0  0  0  0  0  0  0  0  0  0
   14.2460  -12.4670  -11.3010 N   0  0  0  0  0  0  0  0  0  0  0  0
   13.4860  -12.7000  -12.6030 C   0  0  0  0  0  0  0  0  0  0  0  0
   12.1630  -13.4560  -12.3730 C   0  0  0  0  0  0  0  0  0  0  0  0
   11.3550  -12.8070  -11.3290 N   0  0  0  0  0  0  0  0  0  0  0  0
    9.9840  -13.0740  -11.2650 C   0  0  0  0  0  0  0  0  0  0  0  0
    9.1090  -12.7800  -12.3200 C   0  0  0  0  0  0  0  0  0  0  0  0
    7.7450  -13.0710  -12.2360 C   0  0  0  0  0  0  0  0  0  0  0  0
    7.2210  -13.6580  -11.0870 C   0  0  0  0  0  0  0  0  0  0  0  0
    8.0570  -13.9530  -10.0080 C   0  0  0  0  0  0  0  0  0  0  0  0
    7.5310  -14.5380   -8.7860 C   0  0  0  0  0  0  0  0  0  0  0  0
    7.7520  -15.8130   -8.2290 C   0  0  0  0  0  0  0  0  0  0  0  0
    7.0830  -16.0210   -7.0970 N   0  0  0  0  0  0  0  0  0  0  0  0
    6.4090  -14.8480   -6.8850 N   0  0  0  0  0  0  0  0  0  0  0  0
    5.5530  -14.5490   -5.7890 C   0  0  0  0  0  0  0  0  0  0  0  0
    5.4070  -15.5340   -4.8340 N   0  0  0  0  0  0  0  0  0  0  0  0
    4.9640  -13.3320   -5.7560 C   0  0  0  0  0  0  0  0  0  0  0  0
    4.0590  -12.8760   -4.6920 C   0  0  0  0  0  0  0  0  0  0  0  0
    2.7440  -13.3500   -4.6340 C   0  0  0  0  0  0  0  0  0  0  0  0
    1.8830  -12.9260   -3.6170 C   0  0  0  0  0  0  0  0  0  0  0  0
    2.3240  -12.0190   -2.6560 C   0  0  0  0  0  0  0  0  0  0  0  0
    1.4760  -11.5630   -1.6090 N   0  0  0  0  0  0  0  0  0  0  0  0
    1.5400  -12.2700   -0.0770 S   0  0  0  0  0  0  0  0  0  0  0  0
    1.6800  -13.7030   -0.2460 O   0  0  0  0  0  0  0  0  0  0  0  0
    2.5030  -11.5280    0.7030 O   0  0  0  0  0  0  0  0  0  0  0  0
   -0.0690  -11.9610    0.6110 C   0  0  0  0  0  0  0  0  0  0  0  0
   -0.9290  -13.0610    0.7770 C   0  0  0  0  0  0  0  0  0  0  0  0
   -2.2010  -12.8810    1.3120 C   0  0  0  0  0  0  0  0  0  0  0  0
   -2.6190  -11.6080    1.6830 C   0  0  0  0  0  0  0  0  0  0  0  0
   -1.7650  -10.5100    1.5210 C   0  0  0  0  0  0  0  0  0  0  0  0
   -2.3870   -8.9640    1.9950 Cl  0  0  0  0  0  0  0  0  0  0  0  0
   -0.4740  -10.6740    0.9880 C   0  0  0  0  0  0  0  0  0  0  0  0
    0.5500   -9.2870    0.7900 Cl  0  0  0  0  0  0  0  0  0  0  0  0
    3.6410  -11.5600   -2.6940 C   0  0  0  0  0  0  0  0  0  0  0  0
    4.5040  -11.9810   -3.7100 C   0  0  0  0  0  0  0  0  0  0  0  0
    5.2910  -12.4260   -6.9040 C   0  0  0  0  0  0  0  0  0  0  0  0
    6.0710  -12.6840   -7.9080 N   0  0  0  0  0  0  0  0  0  0  0  0
    6.6570  -13.9210   -7.9070 C   0  0  0  0  0  0  0  0  0  0  0  0
    9.4270  -13.6510  -10.1100 C   0  0  0  0  0  0  0  0  0  0  0  0
   12.0270  -12.4980  -10.0530 C   0  0  0  0  0  0  0  0  0  0  0  0
   13.3560  -11.7520  -10.2890 C   0  0  0  0  0  0  0  0  0  0  0  0
   14.8838  -13.6715   -9.6575 H   0  0  0  0  0  0  0  0  0  0  0  0
   14.3542  -14.5905  -11.1072 H   0  0  0  0  0  0  0  0  0  0  0  0
   15.9417  -13.7499  -11.1072 H   0  0  0  0  0  0  0  0  0  0  0  0
   15.0050  -11.8120  -11.5260 H   0  0  0  0  0  0  0  0  0  0  0  0
   13.2629  -11.7260  -13.0630 H   0  0  0  0  0  0  0  0  0  0  0  0
   14.1186  -13.3152  -13.2598 H   0  0  0  0  0  0  0  0  0  0  0  0
   11.5905  -13.4716  -13.3122 H   0  0  0  0  0  0  0  0  0  0  0  0
   12.3985  -14.4795  -12.0458 H   0  0  0  0  0  0  0  0  0  0  0  0
    9.5044  -12.3105  -13.2328 H   0  0  0  0  0  0  0  0  0  0  0  0
    7.0819  -12.8353  -13.0814 H   0  0  0  0  0  0  0  0  0  0  0  0
    6.1472  -13.8896  -11.0293 H   0  0  0  0  0  0  0  0  0  0  0  0
    8.4135  -16.5641   -8.6854 H   0  0  0  0  0  0  0  0  0  0  0  0
    6.1740  -15.8170   -4.2390 H   0  0  0  0  0  0  0  0  0  0  0  0
    4.5220  -16.0410   -4.8180 H   0  0  0  0  0  0  0  0  0  0  0  0
    2.3851  -14.0606   -5.3931 H   0  0  0  0  0  0  0  0  0  0  0  0
    0.8531  -13.3103   -3.5756 H   0  0  0  0  0  0  0  0  0  0  0  0
    0.5250  -11.2740   -1.8460 H   0  0  0  0  0  0  0  0  0  0  0  0
   -0.5952  -14.0671    0.4830 H   0  0  0  0  0  0  0  0  0  0  0  0
   -2.8729  -13.7423    1.4408 H   0  0  0  0  0  0  0  0  0  0  0  0
   -3.6242  -11.4627    2.1053 H   0  0  0  0  0  0  0  0  0  0  0  0
    4.0015  -10.8644   -1.9218 H   0  0  0  0  0  0  0  0  0  0  0  0
    5.5383  -11.6075   -3.7387 H   0  0  0  0  0  0  0  0  0  0  0  0
    4.8176  -11.4331   -6.8943 H   0  0  0  0  0  0  0  0  0  0  0  0
   10.0851  -13.8738   -9.2572 H   0  0  0  0  0  0  0  0  0  0  0  0
   11.3647  -11.8667   -9.4423 H   0  0  0  0  0  0  0  0  0  0  0  0
   12.2456  -13.4442   -9.5364 H   0  0  0  0  0  0  0  0  0  0  0  0
   13.1337  -10.7421  -10.6640 H   0  0  0  0  0  0  0  0  0  0  0  0
   13.8964  -11.7135   -9.3317 H   0  0  0  0  0  0  0  0  0  0  0  0
  1  2  1  0
  2  3  1  0
  3  4  1  0
  4  5  1  0
  5  6  1  0
  6  7  2  0
  7  8  1  0
  8  9  2  0
  9 10  1  0
 10 11  1  0
 11 12  1  0
 12 13  2  0
 13 14  1  0
 14 15  1  0
 15 16  1  0
 15 17  2  0
 17 18  1  0
 18 19  2  0
 19 20  1  0
 20 21  2  0
 21 22  1  0
 22 23  1  0
 23 24  2  0
 23 25  2  0
 23 26  1  0
 26 27  2  0
 27 28  1  0
 28 29  2  0
 29 30  1  0
 30 31  1  0
 30 32  2  0
 32 33  1  0
 21 34  1  0
 34 35  2  0
 17 36  1  0
 36 37  2  0
 37 38  1  0
 10 39  2  0
  5 40  1  0
 40 41  1  0
 41  2  1  0
 39  6  1  0
 38 11  2  0
 38 14  1  0
 35 18  1  0
 32 26  1  0
  1 42  1  0
  1 43  1  0
  1 44  1  0
  2 45  1  0
  3 46  1  0
  3 47  1  0
  4 48  1  0
  4 49  1  0
  7 50  1  0
  8 51  1  0
  9 52  1  0
 12 53  1  0
 16 54  1  0
 16 55  1  0
 19 56  1  0
 20 57  1  0
 22 58  1  0
 27 59  1  0
 28 60  1  0
 29 61  1  0
 34 62  1  0
 35 63  1  0
 36 64  1  0
 39 65  1  0
 40 66  1  0
 40 67  1  0
 41 68  1  0
 41 69  1  0
M  CHG  1   2   1
M  END
>  <meeko>  (1) 
{"is_sidechain": [false], "free_energy": -9.395, "intermolecular_energy": -12.965, "internal_energy": -0.775}

$$$$
LIB_MNJJBVNCZHNWCS__M_PUB_ALL__e8__s20260927
     RDKit          3D

 69 74  0  0  0  0  0  0  0  0999 V2000
   11.3960  -16.6120   -7.5410 C   0  0  0  0  0  0  0  0  0  0  0  0
   12.7030  -16.8170   -6.8340 N   0  0  0  0  0  0  0  0  0  0  0  0
   13.7070  -15.6920   -7.0680 C   0  0  0  0  0  0  0  0  0  0  0  0
   13.3370  -14.4150   -6.2880 C   0  0  0  0  0  0  0  0  0  0  0  0
   13.1050  -14.7090   -4.8660 N   0  0  0  0  0  0  0  0  0  0  0  0
   13.1720  -13.6680   -3.9360 C   0  0  0  0  0  0  0  0  0  0  0  0
   14.1830  -12.6970   -3.9620 C   0  0  0  0  0  0  0  0  0  0  0  0
   14.2180  -11.6570   -3.0290 C   0  0  0  0  0  0  0  0  0  0  0  0
   13.2420  -11.5690   -2.0390 C   0  0  0  0  0  0  0  0  0  0  0  0
   12.2270  -12.5240   -1.9700 C   0  0  0  0  0  0  0  0  0  0  0  0
   11.2140  -12.4720   -0.9280 C   0  0  0  0  0  0  0  0  0  0  0  0
   11.3480  -12.1890    0.4460 C   0  0  0  0  0  0  0  0  0  0  0  0
   10.1990  -12.2510    1.1140 N   0  0  0  0  0  0  0  0  0  0  0  0
    9.2710  -12.5710    0.1600 N   0  0  0  0  0  0  0  0  0  0  0  0
    7.8740  -12.7440    0.3600 C   0  0  0  0  0  0  0  0  0  0  0  0
    7.4050  -12.5470    1.6430 N   0  0  0  0  0  0  0  0  0  0  0  0
    7.1130  -13.0710   -0.7090 C   0  0  0  0  0  0  0  0  0  0  0  0
    5.6600  -13.2800   -0.6630 C   0  0  0  0  0  0  0  0  0  0  0  0
    4.7860  -12.2130   -0.9030 C   0  0  0  0  0  0  0  0  0  0  0  0
    3.4020  -12.4100   -0.8710 C   0  0  0  0  0  0  0  0  0  0  0  0
    2.8790  -13.6710   -0.5890 C   0  0  0  0  0  0  0  0  0  0  0  0
    1.4770  -13.9090   -0.5430 N   0  0  0  0  0  0  0  0  0  0  0  0
    0.6330  -13.8100    0.9160 S   0  0  0  0  0  0  0  0  0  0  0  0
   -0.5610  -14.6230    0.8040 O   0  0  0  0  0  0  0  0  0  0  0  0
    1.5820  -14.0450    1.9810 O   0  0  0  0  0  0  0  0  0  0  0  0
    0.1240  -12.1100    1.0080 C   0  0  0  0  0  0  0  0  0  0  0  0
    0.3940  -11.2880   -0.1000 C   0  0  0  0  0  0  0  0  0  0  0  0
    0.0190   -9.9480   -0.0870 C   0  0  0  0  0  0  0  0  0  0  0  0
   -0.6250   -9.4240    1.0290 C   0  0  0  0  0  0  0  0  0  0  0  0
   -0.8980  -10.2400    2.1340 C   0  0  0  0  0  0  0  0  0  0  0  0
   -1.6860   -9.4870    3.4810 Cl  0  0  0  0  0  0  0  0  0  0  0  0
   -0.5320  -11.5980    2.1350 C   0  0  0  0  0  0  0  0  0  0  0  0
   -0.8740  -12.5720    3.5300 Cl  0  0  0  0  0  0  0  0  0  0  0  0
    3.7440  -14.7440   -0.3710 C   0  0  0  0  0  0  0  0  0  0  0  0
    5.1280  -14.5500   -0.4020 C   0  0  0  0  0  0  0  0  0  0  0  0
    7.8510  -13.2150   -2.0050 C   0  0  0  0  0  0  0  0  0  0  0  0
    9.1240  -13.0580   -2.2040 N   0  0  0  0  0  0  0  0  0  0  0  0
    9.8630  -12.7210   -1.1020 C   0  0  0  0  0  0  0  0  0  0  0  0
   12.2080  -13.5650   -2.9160 C   0  0  0  0  0  0  0  0  0  0  0  0
   12.1860  -15.8180   -4.5500 C   0  0  0  0  0  0  0  0  0  0  0  0
   12.5520  -17.0900   -5.3410 C   0  0  0  0  0  0  0  0  0  0  0  0
   10.5936  -16.4861   -6.7991 H   0  0  0  0  0  0  0  0  0  0  0  0
   11.4571  -15.7125   -8.1712 H   0  0  0  0  0  0  0  0  0  0  0  0
   11.1788  -17.4871   -8.1712 H   0  0  0  0  0  0  0  0  0  0  0  0
   13.1220  -17.6630   -7.2390 H   0  0  0  0  0  0  0  0  0  0  0  0
   14.7018  -16.0307   -6.7430 H   0  0  0  0  0  0  0  0  0  0  0  0
   13.6999  -15.4485   -8.1407 H   0  0  0  0  0  0  0  0  0  0  0  0
   14.1600  -13.6903   -6.3750 H   0  0  0  0  0  0  0  0  0  0  0  0
   12.4105  -14.0027   -6.7141 H   0  0  0  0  0  0  0  0  0  0  0  0
   14.9653  -12.7549   -4.7331 H   0  0  0  0  0  0  0  0  0  0  0  0
   15.0194  -10.9050   -3.0766 H   0  0  0  0  0  0  0  0  0  0  0  0
   13.2715  -10.7454   -1.3105 H   0  0  0  0  0  0  0  0  0  0  0  0
   12.3091  -11.9410    0.9201 H   0  0  0  0  0  0  0  0  0  0  0  0
    6.4610  -12.7950    1.9090 H   0  0  0  0  0  0  0  0  0  0  0  0
    8.0120  -12.0440    2.2900 H   0  0  0  0  0  0  0  0  0  0  0  0
    5.1907  -11.2130   -1.1182 H   0  0  0  0  0  0  0  0  0  0  0  0
    2.7236  -11.5670   -1.0690 H   0  0  0  0  0  0  0  0  0  0  0  0
    1.0890  -14.6340   -1.1500 H   0  0  0  0  0  0  0  0  0  0  0  0
    0.9037  -11.7057   -0.9807 H   0  0  0  0  0  0  0  0  0  0  0  0
    0.2308   -9.3063   -0.9550 H   0  0  0  0  0  0  0  0  0  0  0  0
   -0.9210   -8.3647    1.0437 H   0  0  0  0  0  0  0  0  0  0  0  0
    3.3354  -15.7461   -0.1740 H   0  0  0  0  0  0  0  0  0  0  0  0
    5.8034  -15.3991   -0.2205 H   0  0  0  0  0  0  0  0  0  0  0  0
    7.2475  -13.4833   -2.8847 H   0  0  0  0  0  0  0  0  0  0  0  0
   11.4135  -14.3234   -2.8564 H   0  0  0  0  0  0  0  0  0  0  0  0
   12.2441  -16.0361   -3.4734 H   0  0  0  0  0  0  0  0  0  0  0  0
   11.1664  -15.5154   -4.8307 H   0  0  0  0  0  0  0  0  0  0  0  0
   13.5032  -17.4855   -4.9553 H   0  0  0  0  0  0  0  0  0  0  0  0
   11.7349  -17.8149   -5.2114 H   0  0  0  0  0  0  0  0  0  0  0  0
  1  2  1  0
  2  3  1  0
  3  4  1  0
  4  5  1  0
  5  6  1  0
  6  7  2  0
  7  8  1  0
  8  9  2  0
  9 10  1  0
 10 11  1  0
 11 12  1  0
 12 13  2  0
 13 14  1  0
 14 15  1  0
 15 16  1  0
 15 17  2  0
 17 18  1  0
 18 19  2  0
 19 20  1  0
 20 21  2  0
 21 22  1  0
 22 23  1  0
 23 24  2  0
 23 25  2  0
 23 26  1  0
 26 27  2  0
 27 28  1  0
 28 29  2  0
 29 30  1  0
 30 31  1  0
 30 32  2  0
 32 33  1  0
 21 34  1  0
 34 35  2  0
 17 36  1  0
 36 37  2  0
 37 38  1  0
 10 39  2  0
  5 40  1  0
 40 41  1  0
 41  2  1  0
 39  6  1  0
 38 11  2  0
 38 14  1  0
 35 18  1  0
 32 26  1  0
  1 42  1  0
  1 43  1  0
  1 44  1  0
  2 45  1  0
  3 46  1  0
  3 47  1  0
  4 48  1  0
  4 49  1  0
  7 50  1  0
  8 51  1  0
  9 52  1  0
 12 53  1  0
 16 54  1  0
 16 55  1  0
 19 56  1  0
 20 57  1  0
 22 58  1  0
 27 59  1  0
 28 60  1  0
 29 61  1  0
 34 62  1  0
 35 63  1  0
 36 64  1  0
 39 65  1  0
 40 66  1  0
 40 67  1  0
 41 68  1  0
 41 69  1  0
M  CHG  1   2   1
M  END
>  <meeko>  (2) 
{"is_sidechain": [false], "free_energy": -9.27, "intermolecular_energy": -12.807, "internal_energy": -0.76}

$$$$
LIB_MNJJBVNCZHNWCS__M_PUB_ALL__e8__s20260927
     RDKit          3D

 69 74  0  0  0  0  0  0  0  0999 V2000
   13.0470  -13.9140   -5.5900 C   0  0  0  0  0  0  0  0  0  0  0  0
   13.8710  -13.9800   -4.3390 N   0  0  0  0  0  0  0  0  0  0  0  0
   14.1000  -12.6210   -3.6850 C   0  0  0  0  0  0  0  0  0  0  0  0
   12.8330  -12.0980   -2.9790 C   0  0  0  0  0  0  0  0  0  0  0  0
   12.2820  -13.1070   -2.0600 N   0  0  0  0  0  0  0  0  0  0  0  0
   11.4140  -12.6990   -1.0430 C   0  0  0  0  0  0  0  0  0  0  0  0
   11.8730  -12.2390    0.1990 C   0  0  0  0  0  0  0  0  0  0  0  0
   10.9840  -11.8230    1.1940 C   0  0  0  0  0  0  0  0  0  0  0  0
    9.6100  -11.8650    0.9700 C   0  0  0  0  0  0  0  0  0  0  0  0
    9.1130  -12.3300   -0.2480 C   0  0  0  0  0  0  0  0  0  0  0  0
    7.6820  -12.4130   -0.4960 C   0  0  0  0  0  0  0  0  0  0  0  0
    6.8670  -11.6310   -1.3380 C   0  0  0  0  0  0  0  0  0  0  0  0
    5.5820  -11.9760   -1.3010 N   0  0  0  0  0  0  0  0  0  0  0  0
    5.5410  -13.0240   -0.4220 N   0  0  0  0  0  0  0  0  0  0  0  0
    4.3890  -13.7660   -0.0400 C   0  0  0  0  0  0  0  0  0  0  0  0
    3.1970  -13.4040   -0.6360 N   0  0  0  0  0  0  0  0  0  0  0  0
    4.5430  -14.7670    0.8550 C   0  0  0  0  0  0  0  0  0  0  0  0
    3.4530  -15.6210    1.3440 C   0  0  0  0  0  0  0  0  0  0  0  0
    3.1210  -16.7980    0.6640 C   0  0  0  0  0  0  0  0  0  0  0  0
    2.0900  -17.6200    1.1320 C   0  0  0  0  0  0  0  0  0  0  0  0
    1.3770  -17.2690    2.2760 C   0  0  0  0  0  0  0  0  0  0  0  0
    0.3200  -18.0770    2.7800 N   0  0  0  0  0  0  0  0  0  0  0  0
   -1.2610  -17.4880    2.8420 S   0  0  0  0  0  0  0  0  0  0  0  0
   -1.2820  -16.1810    2.2190 O   0  0  0  0  0  0  0  0  0  0  0  0
   -2.1330  -18.5390    2.3690 O   0  0  0  0  0  0  0  0  0  0  0  0
   -1.5730  -17.2660    4.5770 C   0  0  0  0  0  0  0  0  0  0  0  0
   -0.5210  -17.5410    5.4690 C   0  0  0  0  0  0  0  0  0  0  0  0
   -0.7050  -17.3840    6.8400 C   0  0  0  0  0  0  0  0  0  0  0  0
   -1.9360  -16.9540    7.3250 C   0  0  0  0  0  0  0  0  0  0  0  0
   -2.9850  -16.6770    6.4400 C   0  0  0  0  0  0  0  0  0  0  0  0
   -4.4830  -16.1670    7.1460 Cl  0  0  0  0  0  0  0  0  0  0  0  0
   -2.8140  -16.8230    5.0520 C   0  0  0  0  0  0  0  0  0  0  0  0
   -4.1440  -16.4850    3.9890 Cl  0  0  0  0  0  0  0  0  0  0  0  0
    1.7180  -16.1090    2.9730 C   0  0  0  0  0  0  0  0  0  0  0  0
    2.7470  -15.2850    2.5070 C   0  0  0  0  0  0  0  0  0  0  0  0
    5.9420  -14.9790    1.3490 C   0  0  0  0  0  0  0  0  0  0  0  0
    7.0020  -14.3130    1.0090 N   0  0  0  0  0  0  0  0  0  0  0  0
    6.8120  -13.3110    0.0960 C   0  0  0  0  0  0  0  0  0  0  0  0
   10.0220  -12.7470   -1.2370 C   0  0  0  0  0  0  0  0  0  0  0  0
   12.0770  -14.4650   -2.5970 C   0  0  0  0  0  0  0  0  0  0  0  0
   13.3420  -14.9790   -3.3130 C   0  0  0  0  0  0  0  0  0  0  0  0
   11.9830  -13.8288   -5.3242 H   0  0  0  0  0  0  0  0  0  0  0  0
   13.3485  -13.0371   -6.1818 H   0  0  0  0  0  0  0  0  0  0  0  0
   13.2050  -14.8277   -6.1818 H   0  0  0  0  0  0  0  0  0  0  0  0
   14.7980  -14.3220   -4.6190 H   0  0  0  0  0  0  0  0  0  0  0  0
   14.9065  -12.7155   -2.9429 H   0  0  0  0  0  0  0  0  0  0  0  0
   14.3682  -11.9047   -4.4756 H   0  0  0  0  0  0  0  0  0  0  0  0
   13.0880  -11.1932   -2.4077 H   0  0  0  0  0  0  0  0  0  0  0  0
   12.0755  -11.8724   -3.7440 H   0  0  0  0  0  0  0  0  0  0  0  0
   12.9549  -12.2047    0.3945 H   0  0  0  0  0  0  0  0  0  0  0  0
   11.3711  -11.4610    2.1579 H   0  0  0  0  0  0  0  0  0  0  0  0
    8.9154  -11.5310    1.7548 H   0  0  0  0  0  0  0  0  0  0  0  0
    7.2549  -10.8147   -1.9650 H   0  0  0  0  0  0  0  0  0  0  0  0
    3.1720  -12.8570   -1.4860 H   0  0  0  0  0  0  0  0  0  0  0  0
    2.3380  -13.6200   -0.1310 H   0  0  0  0  0  0  0  0  0  0  0  0
    3.6741  -17.0788   -0.2444 H   0  0  0  0  0  0  0  0  0  0  0  0
    1.8415  -18.5470    0.5945 H   0  0  0  0  0  0  0  0  0  0  0  0
    0.5180  -18.6970    3.5680 H   0  0  0  0  0  0  0  0  0  0  0  0
    0.4508  -17.8814    5.0820 H   0  0  0  0  0  0  0  0  0  0  0  0
    0.1189  -17.5989    7.5364 H   0  0  0  0  0  0  0  0  0  0  0  0
   -2.0857  -16.8312    8.4078 H   0  0  0  0  0  0  0  0  0  0  0  0
    1.1755  -15.8421    3.8919 H   0  0  0  0  0  0  0  0  0  0  0  0
    3.0039  -14.3674    3.0566 H   0  0  0  0  0  0  0  0  0  0  0  0
    6.0857  -15.7882    2.0801 H   0  0  0  0  0  0  0  0  0  0  0  0
    9.6311  -13.1231   -2.1939 H   0  0  0  0  0  0  0  0  0  0  0  0
   11.8326  -15.1454   -1.7680 H   0  0  0  0  0  0  0  0  0  0  0  0
   11.2542  -14.4304   -3.3262 H   0  0  0  0  0  0  0  0  0  0  0  0
   14.1242  -15.1627   -2.5617 H   0  0  0  0  0  0  0  0  0  0  0  0
   13.0752  -15.9025   -3.8478 H   0  0  0  0  0  0  0  0  0  0  0  0
  1  2  1  0
  2  3  1  0
  3  4  1  0
  4  5  1  0
  5  6  1  0
  6  7  2  0
  7  8  1  0
  8  9  2  0
  9 10  1  0
 10 11  1  0
 11 12  1  0
 12 13  2  0
 13 14  1  0
 14 15  1  0
 15 16  1  0
 15 17  2  0
 17 18  1  0
 18 19  2  0
 19 20  1  0
 20 21  2  0
 21 22  1  0
 22 23  1  0
 23 24  2  0
 23 25  2  0
 23 26  1  0
 26 27  2  0
 27 28  1  0
 28 29  2  0
 29 30  1  0
 30 31  1  0
 30 32  2  0
 32 33  1  0
 21 34  1  0
 34 35  2  0
 17 36  1  0
 36 37  2  0
 37 38  1  0
 10 39  2  0
  5 40  1  0
 40 41  1  0
 41  2  1  0
 39  6  1  0
 38 11  2  0
 38 14  1  0
 35 18  1  0
 32 26  1  0
  1 42  1  0
  1 43  1  0
  1 44  1  0
  2 45  1  0
  3 46  1  0
  3 47  1  0
  4 48  1  0
  4 49  1  0
  7 50  1  0
  8 51  1  0
  9 52  1  0
 12 53  1  0
 16 54  1  0
 16 55  1  0
 19 56  1  0
 20 57  1  0
 22 58  1  0
 27 59  1  0
 28 60  1  0
 29 61  1  0
 34 62  1  0
 35 63  1  0
 36 64  1  0
 39 65  1  0
 40 66  1  0
 40 67  1  0
 41 68  1  0
 41 69  1  0
M  CHG  1   2   1
M  END
>  <meeko>  (3) 
{"is_sidechain": [false], "free_energy": -9.117, "intermolecular_energy": -12.368, "internal_energy": -0.989}

$$$$
LIB_MNJJBVNCZHNWCS__M_PUB_ALL__e8__s20260927
     RDKit          3D

 69 74  0  0  0  0  0  0  0  0999 V2000
   -6.4980  -14.0970    7.7230 C   0  0  0  0  0  0  0  0  0  0  0  0
   -6.9240  -15.4160    7.1530 N   0  0  0  0  0  0  0  0  0  0  0  0
   -7.2540  -15.3610    5.6640 C   0  0  0  0  0  0  0  0  0  0  0  0
   -5.9850  -15.2470    4.7950 C   0  0  0  0  0  0  0  0  0  0  0  0
   -5.0080  -16.2910    5.1420 N   0  0  0  0  0  0  0  0  0  0  0  0
   -4.0080  -16.6190    4.2230 C   0  0  0  0  0  0  0  0  0  0  0  0
   -3.7460  -17.9400    3.8330 C   0  0  0  0  0  0  0  0  0  0  0  0
   -2.7490  -18.2400    2.9010 C   0  0  0  0  0  0  0  0  0  0  0  0
   -1.9830  -17.2210    2.3400 C   0  0  0  0  0  0  0  0  0  0  0  0
   -2.2030  -15.8940    2.7120 C   0  0  0  0  0  0  0  0  0  0  0  0
   -1.3970  -14.8150    2.1650 C   0  0  0  0  0  0  0  0  0  0  0  0
   -1.7940  -13.5630    1.6540 C   0  0  0  0  0  0  0  0  0  0  0  0
   -0.7790  -12.8250    1.2110 N   0  0  0  0  0  0  0  0  0  0  0  0
    0.3260  -13.5970    1.4460 N   0  0  0  0  0  0  0  0  0  0  0  0
    1.6770  -13.2540    1.1620 C   0  0  0  0  0  0  0  0  0  0  0  0
    1.8940  -12.0050    0.6160 N   0  0  0  0  0  0  0  0  0  0  0  0
    2.6390  -14.1570    1.4570 C   0  0  0  0  0  0  0  0  0  0  0  0
    4.0750  -13.9470    1.2260 C   0  0  0  0  0  0  0  0  0  0  0  0
    4.6340  -14.2210   -0.0260 C   0  0  0  0  0  0  0  0  0  0  0  0
    5.9980  -14.0130   -0.2540 C   0  0  0  0  0  0  0  0  0  0  0  0
    6.8160  -13.5390    0.7700 C   0  0  0  0  0  0  0  0  0  0  0  0
    8.2090  -13.3180    0.5780 N   0  0  0  0  0  0  0  0  0  0  0  0
    8.9000  -13.4580   -0.9560 S   0  0  0  0  0  0  0  0  0  0  0  0
    9.1650  -14.8600   -1.2080 O   0  0  0  0  0  0  0  0  0  0  0  0
    8.0830  -12.6930   -1.8700 O   0  0  0  0  0  0  0  0  0  0  0  0
   10.4640  -12.6300   -0.8040 C   0  0  0  0  0  0  0  0  0  0  0  0
   10.7740  -12.0450    0.4360 C   0  0  0  0  0  0  0  0  0  0  0  0
   11.9850  -11.3830    0.6170 C   0  0  0  0  0  0  0  0  0  0  0  0
   12.8890  -11.3020   -0.4370 C   0  0  0  0  0  0  0  0  0  0  0  0
   12.5850  -11.8840   -1.6740 C   0  0  0  0  0  0  0  0  0  0  0  0
   13.7690  -11.7090   -2.9270 Cl  0  0  0  0  0  0  0  0  0  0  0  0
   11.3690  -12.5620   -1.8710 C   0  0  0  0  0  0  0  0  0  0  0  0
   11.0230  -13.2570   -3.4230 Cl  0  0  0  0  0  0  0  0  0  0  0  0
    6.2610  -13.2410    2.0150 C   0  0  0  0  0  0  0  0  0  0  0  0
    4.8970  -13.4500    2.2450 C   0  0  0  0  0  0  0  0  0  0  0  0
    2.1550  -15.4400    2.0610 C   0  0  0  0  0  0  0  0  0  0  0  0
    0.9280  -15.7670    2.3280 N   0  0  0  0  0  0  0  0  0  0  0  0
   -0.0200  -14.8270    2.0230 C   0  0  0  0  0  0  0  0  0  0  0  0
   -3.2090  -15.6110    3.6540 C   0  0  0  0  0  0  0  0  0  0  0  0
   -4.6700  -16.4480    6.5690 C   0  0  0  0  0  0  0  0  0  0  0  0
   -5.9420  -16.5490    7.4360 C   0  0  0  0  0  0  0  0  0  0  0  0
   -6.5150  -14.1496    8.8216 H   0  0  0  0  0  0  0  0  0  0  0  0
   -5.4785  -13.8627    7.3829 H   0  0  0  0  0  0  0  0  0  0  0  0
   -7.1878  -13.3106    7.3829 H   0  0  0  0  0  0  0  0  0  0  0  0
   -7.7980  -15.6700    7.6290 H   0  0  0  0  0  0  0  0  0  0  0  0
   -7.7938  -16.2782    5.3857 H   0  0  0  0  0  0  0  0  0  0  0  0
   -7.8698  -14.4672    5.4852 H   0  0  0  0  0  0  0  0  0  0  0  0
   -6.2640  -15.3541    3.7364 H   0  0  0  0  0  0  0  0  0  0  0  0
   -5.5249  -14.2645    4.9769 H   0  0  0  0  0  0  0  0  0  0  0  0
   -4.3379  -18.7577    4.2700 H   0  0  0  0  0  0  0  0  0  0  0  0
   -2.5684  -19.2851    2.6092 H   0  0  0  0  0  0  0  0  0  0  0  0
   -1.2034  -17.4625    1.6025 H   0  0  0  0  0  0  0  0  0  0  0  0
   -2.8414  -13.2282    1.6242 H   0  0  0  0  0  0  0  0  0  0  0  0
    1.1400  -11.3450    0.4800 H   0  0  0  0  0  0  0  0  0  0  0  0
    2.8280  -11.8090    0.2560 H   0  0  0  0  0  0  0  0  0  0  0  0
    3.9966  -14.6028   -0.8371 H   0  0  0  0  0  0  0  0  0  0  0  0
    6.4267  -14.2242   -1.2448 H   0  0  0  0  0  0  0  0  0  0  0  0
    8.8540  -13.6290    1.3070 H   0  0  0  0  0  0  0  0  0  0  0  0
   10.0563  -12.1107    1.2671 H   0  0  0  0  0  0  0  0  0  0  0  0
   12.2258  -10.9264    1.5883 H   0  0  0  0  0  0  0  0  0  0  0  0
   13.8466  -10.7787   -0.2984 H   0  0  0  0  0  0  0  0  0  0  0  0
    6.8976  -12.8407    2.8178 H   0  0  0  0  0  0  0  0  0  0  0  0
    4.4677  -13.2226    3.2319 H   0  0  0  0  0  0  0  0  0  0  0  0
    2.9247  -16.1870    2.3050 H   0  0  0  0  0  0  0  0  0  0  0  0
   -3.3762  -14.5664    3.9556 H   0  0  0  0  0  0  0  0  0  0  0  0
   -4.0743  -17.3637    6.6979 H   0  0  0  0  0  0  0  0  0  0  0  0
   -4.0985  -15.5649    6.8907 H   0  0  0  0  0  0  0  0  0  0  0  0
   -6.4381  -17.5082    7.2268 H   0  0  0  0  0  0  0  0  0  0  0  0
   -5.6383  -16.4770    8.4908 H   0  0  0  0  0  0  0  0  0  0  0  0
  1  2  1  0
  2  3  1  0
  3  4  1  0
  4  5  1  0
  5  6  1  0
  6  7  2  0
  7  8  1  0
  8  9  2  0
  9 10  1  0
 10 11  1  0
 11 12  1  0
 12 13  2  0
 13 14  1  0
 14 15  1  0
 15 16  1  0
 15 17  2  0
 17 18  1  0
 18 19  2  0
 19 20  1  0
 20 21  2  0
 21 22  1  0
 22 23  1  0
 23 24  2  0
 23 25  2  0
 23 26  1  0
 26 27  2  0
 27 28  1  0
 28 29  2  0
 29 30  1  0
 30 31  1  0
 30 32  2  0
 32 33  1  0
 21 34  1  0
 34 35  2  0
 17 36  1  0
 36 37  2  0
 37 38  1  0
 10 39  2  0
  5 40  1  0
 40 41  1  0
 41  2  1  0
 39  6  1  0
 38 11  2  0
 38 14  1  0
 35 18  1  0
 32 26  1  0
  1 42  1  0
  1 43  1  0
  1 44  1  0
  2 45  1  0
  3 46  1  0
  3 47  1  0
  4 48  1  0
  4 49  1  0
  7 50  1  0
  8 51  1  0
  9 52  1  0
 12 53  1  0
 16 54  1  0
 16 55  1  0
 19 56  1  0
 20 57  1  0
 22 58  1  0
 27 59  1  0
 28 60  1  0
 29 61  1  0
 34 62  1  0
 35 63  1  0
 36 64  1  0
 39 65  1  0
 40 66  1  0
 40 67  1  0
 41 68  1  0
 41 69  1  0
M  CHG  1   2   1
M  END
>  <meeko>  (4) 
{"is_sidechain": [false], "free_energy": -9.09, "intermolecular_energy": -12.837, "internal_energy": -0.483}

$$$$
LIB_MNJJBVNCZHNWCS__M_PUB_ALL__e8__s20260927
     RDKit          3D

 69 74  0  0  0  0  0  0  0  0999 V2000
   13.0930  -13.9080   -5.7480 C   0  0  0  0  0  0  0  0  0  0  0  0
   13.9650  -13.9920   -4.5310 N   0  0  0  0  0  0  0  0  0  0  0  0
   14.2310  -12.6410   -3.8740 C   0  0  0  0  0  0  0  0  0  0  0  0
   12.9960  -12.1150   -3.1140 C   0  0  0  0  0  0  0  0  0  0  0  0
   12.4740  -13.1280   -2.1840 N   0  0  0  0  0  0  0  0  0  0  0  0
   11.6500  -12.7230   -1.1300 C   0  0  0  0  0  0  0  0  0  0  0  0
   12.1540  -12.3870    0.1350 C   0  0  0  0  0  0  0  0  0  0  0  0
   11.3100  -11.9710    1.1680 C   0  0  0  0  0  0  0  0  0  0  0  0
    9.9350  -11.8890    0.9600 C   0  0  0  0  0  0  0  0  0  0  0  0
    9.3920  -12.2290   -0.2800 C   0  0  0  0  0  0  0  0  0  0  0  0
    7.9570  -12.1800   -0.5130 C   0  0  0  0  0  0  0  0  0  0  0  0
    7.2060  -11.3150   -1.3330 C   0  0  0  0  0  0  0  0  0  0  0  0
    5.8970  -11.5460   -1.2880 N   0  0  0  0  0  0  0  0  0  0  0  0
    5.7710  -12.6020   -0.4260 N   0  0  0  0  0  0  0  0  0  0  0  0
    4.5620  -13.2460   -0.0450 C   0  0  0  0  0  0  0  0  0  0  0  0
    3.4010  -12.7700   -0.6210 N   0  0  0  0  0  0  0  0  0  0  0  0
    4.6360  -14.2730    0.8320 C   0  0  0  0  0  0  0  0  0  0  0  0
    3.4790  -15.0370    1.3170 C   0  0  0  0  0  0  0  0  0  0  0  0
    3.2250  -16.3210    0.8250 C   0  0  0  0  0  0  0  0  0  0  0  0
    2.1310  -17.0560    1.2930 C   0  0  0  0  0  0  0  0  0  0  0  0
    1.2760  -16.5110    2.2480 C   0  0  0  0  0  0  0  0  0  0  0  0
    0.1510  -17.2260    2.7460 N   0  0  0  0  0  0  0  0  0  0  0  0
   -1.2250  -17.4380    1.7910 S   0  0  0  0  0  0  0  0  0  0  0  0
   -0.8110  -17.4890    0.4040 O   0  0  0  0  0  0  0  0  0  0  0  0
   -1.9890  -18.5220    2.3670 O   0  0  0  0  0  0  0  0  0  0  0  0
   -2.1510  -15.9400    2.0260 C   0  0  0  0  0  0  0  0  0  0  0  0
   -3.1290  -15.9300    3.0370 C   0  0  0  0  0  0  0  0  0  0  0  0
   -3.8850  -14.7840    3.2690 C   0  0  0  0  0  0  0  0  0  0  0  0
   -3.6700  -13.6490    2.4960 C   0  0  0  0  0  0  0  0  0  0  0  0
   -2.6960  -13.6540    1.4900 C   0  0  0  0  0  0  0  0  0  0  0  0
   -2.5200  -12.1960    0.5700 Cl  0  0  0  0  0  0  0  0  0  0  0  0
   -1.9190  -14.8000    1.2460 C   0  0  0  0  0  0  0  0  0  0  0  0
   -0.7320  -14.7720   -0.0200 Cl  0  0  0  0  0  0  0  0  0  0  0  0
    1.5360  -15.2400    2.7620 C   0  0  0  0  0  0  0  0  0  0  0  0
    2.6290  -14.5020    2.2950 C   0  0  0  0  0  0  0  0  0  0  0  0
    6.0150  -14.6160    1.3060 C   0  0  0  0  0  0  0  0  0  0  0  0
    7.1270  -14.0400    0.9660 N   0  0  0  0  0  0  0  0  0  0  0  0
    7.0160  -13.0090    0.0720 C   0  0  0  0  0  0  0  0  0  0  0  0
   10.2570  -12.6470   -1.3070 C   0  0  0  0  0  0  0  0  0  0  0  0
   12.2370  -14.4790   -2.7250 C   0  0  0  0  0  0  0  0  0  0  0  0
   13.4690  -14.9960   -3.4950 C   0  0  0  0  0  0  0  0  0  0  0  0
   12.0420  -13.8068   -5.4397 H   0  0  0  0  0  0  0  0  0  0  0  0
   13.3848  -13.0338   -6.3485 H   0  0  0  0  0  0  0  0  0  0  0  0
   13.2126  -14.8218   -6.3485 H   0  0  0  0  0  0  0  0  0  0  0  0
   14.8780  -14.3390   -4.8500 H   0  0  0  0  0  0  0  0  0  0  0  0
   15.0650  -12.7490   -3.1649 H   0  0  0  0  0  0  0  0  0  0  0  0
   14.4745  -11.9193   -4.6676 H   0  0  0  0  0  0  0  0  0  0  0  0
   13.2800  -11.2175   -2.5449 H   0  0  0  0  0  0  0  0  0  0  0  0
   12.2109  -11.8765   -3.8467 H   0  0  0  0  0  0  0  0  0  0  0  0
   13.2367  -12.4524    0.3178 H   0  0  0  0  0  0  0  0  0  0  0  0
   11.7327  -11.7074    2.1487 H   0  0  0  0  0  0  0  0  0  0  0  0
    9.2757  -11.5555    1.7749 H   0  0  0  0  0  0  0  0  0  0  0  0
    7.6584  -10.5251   -1.9506 H   0  0  0  0  0  0  0  0  0  0  0  0
    2.9410  -11.9360   -0.2800 H   0  0  0  0  0  0  0  0  0  0  0  0
    2.9640  -13.3480   -1.3380 H   0  0  0  0  0  0  0  0  0  0  0  0
    3.8902  -16.7560    0.0646 H   0  0  0  0  0  0  0  0  0  0  0  0
    1.9451  -18.0685    0.9053 H   0  0  0  0  0  0  0  0  0  0  0  0
   -0.0920  -17.1220    3.7320 H   0  0  0  0  0  0  0  0  0  0  0  0
   -3.2971  -16.8303    3.6462 H   0  0  0  0  0  0  0  0  0  0  0  0
   -4.6489  -14.7769    4.0604 H   0  0  0  0  0  0  0  0  0  0  0  0
   -4.2675  -12.7430    2.6753 H   0  0  0  0  0  0  0  0  0  0  0  0
    0.8796  -14.8170    3.5367 H   0  0  0  0  0  0  0  0  0  0  0  0
    2.8224  -13.4967    2.6974 H   0  0  0  0  0  0  0  0  0  0  0  0
    6.0937  -15.4480    2.0213 H   0  0  0  0  0  0  0  0  0  0  0  0
    9.8294  -12.9239   -2.2819 H   0  0  0  0  0  0  0  0  0  0  0  0
   12.0198  -15.1654   -1.8933 H   0  0  0  0  0  0  0  0  0  0  0  0
   11.3865  -14.4310   -3.4209 H   0  0  0  0  0  0  0  0  0  0  0  0
   14.2785  -15.1929   -2.7767 H   0  0  0  0  0  0  0  0  0  0  0  0
   13.1741  -15.9123   -4.0274 H   0  0  0  0  0  0  0  0  0  0  0  0
  1  2  1  0
  2  3  1  0
  3  4  1  0
  4  5  1  0
  5  6  1  0
  6  7  2  0
  7  8  1  0
  8  9  2  0
  9 10  1  0
 10 11  1  0
 11 12  1  0
 12 13  2  0
 13 14  1  0
 14 15  1  0
 15 16  1  0
 15 17  2  0
 17 18  1  0
 18 19  2  0
 19 20  1  0
 20 21  2  0
 21 22  1  0
 22 23  1  0
 23 24  2  0
 23 25  2  0
 23 26  1  0
 26 27  2  0
 27 28  1  0
 28 29  2  0
 29 30  1  0
 30 31  1  0
 30 32  2  0
 32 33  1  0
 21 34  1  0
 34 35  2  0
 17 36  1  0
 36 37  2  0
 37 38  1  0
 10 39  2  0
  5 40  1  0
 40 41  1  0
 41  2  1  0
 39  6  1  0
 38 11  2  0
 38 14  1  0
 35 18  1  0
 32 26  1  0
  1 42  1  0
  1 43  1  0
  1 44  1  0
  2 45  1  0
  3 46  1  0
  3 47  1  0
  4 48  1  0
  4 49  1  0
  7 50  1  0
  8 51  1  0
  9 52  1  0
 12 53  1  0
 16 54  1  0
 16 55  1  0
 19 56  1  0
 20 57  1  0
 22 58  1  0
 27 59  1  0
 28 60  1  0
 29 61  1  0
 34 62  1  0
 35 63  1  0
 36 64  1  0
 39 65  1  0
 40 66  1  0
 40 67  1  0
 41 68  1  0
 41 69  1  0
M  CHG  1   2   1
M  END
>  <meeko>  (5) 
{"is_sidechain": [false], "free_energy": -9.063, "intermolecular_energy": -12.495, "internal_energy": -0.787}

$$$$
LIB_MNJJBVNCZHNWCS__M_PUB_ALL__e8__s20260927
     RDKit          3D

 69 74  0  0  0  0  0  0  0  0999 V2000
   13.7430  -15.5000   -4.8330 C   0  0  0  0  0  0  0  0  0  0  0  0
   12.6760  -14.4800   -5.1000 N   0  0  0  0  0  0  0  0  0  0  0  0
   11.3140  -14.8540   -4.5240 C   0  0  0  0  0  0  0  0  0  0  0  0
   11.2710  -14.6910   -2.9910 C   0  0  0  0  0  0  0  0  0  0  0  0
   11.7330  -13.3540   -2.5860 N   0  0  0  0  0  0  0  0  0  0  0  0
   11.3840  -12.8670   -1.3230 C   0  0  0  0  0  0  0  0  0  0  0  0
   12.3380  -12.5860   -0.3350 C   0  0  0  0  0  0  0  0  0  0  0  0
   11.9640  -12.0860    0.9150 C   0  0  0  0  0  0  0  0  0  0  0  0
   10.6210  -11.8620    1.2090 C   0  0  0  0  0  0  0  0  0  0  0  0
    9.6400  -12.1430    0.2570 C   0  0  0  0  0  0  0  0  0  0  0  0
    8.2290  -11.9460    0.5490 C   0  0  0  0  0  0  0  0  0  0  0  0
    7.5400  -10.7740    0.9200 C   0  0  0  0  0  0  0  0  0  0  0  0
    6.2410  -10.9680    1.1330 N   0  0  0  0  0  0  0  0  0  0  0  0
    6.0550  -12.3010    0.8850 N   0  0  0  0  0  0  0  0  0  0  0  0
    4.8270  -13.0140    0.9590 C   0  0  0  0  0  0  0  0  0  0  0  0
    3.7060  -12.2800    1.2950 N   0  0  0  0  0  0  0  0  0  0  0  0
    4.8410  -14.3380    0.6870 C   0  0  0  0  0  0  0  0  0  0  0  0
    3.6570  -15.2070    0.7190 C   0  0  0  0  0  0  0  0  0  0  0  0
    2.6620  -15.0790   -0.2570 C   0  0  0  0  0  0  0  0  0  0  0  0
    1.5390  -15.9120   -0.2360 C   0  0  0  0  0  0  0  0  0  0  0  0
    1.3940  -16.8710    0.7640 C   0  0  0  0  0  0  0  0  0  0  0  0
    0.2630  -17.7330    0.8200 N   0  0  0  0  0  0  0  0  0  0  0  0
   -1.2330  -17.1580    1.3500 S   0  0  0  0  0  0  0  0  0  0  0  0
   -1.9060  -16.5410    0.2250 O   0  0  0  0  0  0  0  0  0  0  0  0
   -1.8700  -18.2250    2.0890 O   0  0  0  0  0  0  0  0  0  0  0  0
   -0.8190  -15.8720    2.5050 C   0  0  0  0  0  0  0  0  0  0  0  0
   -1.0270  -14.5420    2.1010 C   0  0  0  0  0  0  0  0  0  0  0  0
   -0.7230  -13.4910    2.9620 C   0  0  0  0  0  0  0  0  0  0  0  0
   -0.2110  -13.7640    4.2250 C   0  0  0  0  0  0  0  0  0  0  0  0
   -0.0040  -15.0870    4.6330 C   0  0  0  0  0  0  0  0  0  0  0  0
    0.6560  -15.3180    6.2180 Cl  0  0  0  0  0  0  0  0  0  0  0  0
   -0.3120  -16.1600    3.7780 C   0  0  0  0  0  0  0  0  0  0  0  0
   -0.0270  -17.7860    4.3140 Cl  0  0  0  0  0  0  0  0  0  0  0  0
    2.3930  -17.0200    1.7270 C   0  0  0  0  0  0  0  0  0  0  0  0
    3.5170  -16.1880    1.7090 C   0  0  0  0  0  0  0  0  0  0  0  0
    6.1810  -14.9080    0.3320 C   0  0  0  0  0  0  0  0  0  0  0  0
    7.3080  -14.2710    0.2570 N   0  0  0  0  0  0  0  0  0  0  0  0
    7.2570  -12.9310    0.5320 C   0  0  0  0  0  0  0  0  0  0  0  0
   10.0350  -12.6480   -0.9950 C   0  0  0  0  0  0  0  0  0  0  0  0
   13.0180  -12.8910   -3.1400 C   0  0  0  0  0  0  0  0  0  0  0  0
   13.0630  -13.0680   -4.6720 C   0  0  0  0  0  0  0  0  0  0  0  0
   13.8704  -15.6218   -3.7472 H   0  0  0  0  0  0  0  0  0  0  0  0
   13.4499  -16.4623   -5.2780 H   0  0  0  0  0  0  0  0  0  0  0  0
   14.6912  -15.1639   -5.2780 H   0  0  0  0  0  0  0  0  0  0  0  0
   12.5550  -14.4460   -6.1200 H   0  0  0  0  0  0  0  0  0  0  0  0
   10.5482  -14.2037   -4.9720 H   0  0  0  0  0  0  0  0  0  0  0  0
   11.1244  -15.9118   -4.7588 H   0  0  0  0  0  0  0  0  0  0  0  0
   10.2372  -14.8341   -2.6436 H   0  0  0  0  0  0  0  0  0  0  0  0
   11.9379  -15.4415   -2.5416 H   0  0  0  0  0  0  0  0  0  0  0  0
   13.4026  -12.7627   -0.5481 H   0  0  0  0  0  0  0  0  0  0  0  0
   12.7336  -11.8683    1.6702 H   0  0  0  0  0  0  0  0  0  0  0  0
   10.3333  -11.4631    2.1929 H   0  0  0  0  0  0  0  0  0  0  0  0
    8.0287   -9.7939    1.0235 H   0  0  0  0  0  0  0  0  0  0  0  0
    3.7350  -11.2720    1.3730 H   0  0  0  0  0  0  0  0  0  0  0  0
    2.8710  -12.7990    1.5630 H   0  0  0  0  0  0  0  0  0  0  0  0
    2.7640  -14.3186   -1.0453 H   0  0  0  0  0  0  0  0  0  0  0  0
    0.7667  -15.8096   -1.0125 H   0  0  0  0  0  0  0  0  0  0  0  0
    0.4090  -18.7050    1.0980 H   0  0  0  0  0  0  0  0  0  0  0  0
   -1.4317  -14.3306    1.1003 H   0  0  0  0  0  0  0  0  0  0  0  0
   -0.8871  -12.4507    2.6446 H   0  0  0  0  0  0  0  0  0  0  0  0
    0.0328  -12.9364    4.9073 H   0  0  0  0  0  0  0  0  0  0  0  0
    2.2961  -17.7941    2.5025 H   0  0  0  0  0  0  0  0  0  0  0  0
    4.2959  -16.3047    2.4770 H   0  0  0  0  0  0  0  0  0  0  0  0
    6.2118  -15.9851    0.1108 H   0  0  0  0  0  0  0  0  0  0  0  0
    9.2620  -12.8793   -1.7426 H   0  0  0  0  0  0  0  0  0  0  0  0
   13.1498  -11.8261   -2.8981 H   0  0  0  0  0  0  0  0  0  0  0  0
   13.8249  -13.4930   -2.6966 H   0  0  0  0  0  0  0  0  0  0  0  0
   12.3637  -12.3542   -5.1319 H   0  0  0  0  0  0  0  0  0  0  0  0
   14.0961  -12.8858   -5.0030 H   0  0  0  0  0  0  0  0  0  0  0  0
  1  2  1  0
  2  3  1  0
  3  4  1  0
  4  5  1  0
  5  6  1  0
  6  7  2  0
  7  8  1  0
  8  9  2  0
  9 10  1  0
 10 11  1  0
 11 12  1  0
 12 13  2  0
 13 14  1  0
 14 15  1  0
 15 16  1  0
 15 17  2  0
 17 18  1  0
 18 19  2  0
 19 20  1  0
 20 21  2  0
 21 22  1  0
 22 23  1  0
 23 24  2  0
 23 25  2  0
 23 26  1  0
 26 27  2  0
 27 28  1  0
 28 29  2  0
 29 30  1  0
 30 31  1  0
 30 32  2  0
 32 33  1  0
 21 34  1  0
 34 35  2  0
 17 36  1  0
 36 37  2  0
 37 38  1  0
 10 39  2  0
  5 40  1  0
 40 41  1  0
 41  2  1  0
 39  6  1  0
 38 11  2  0
 38 14  1  0
 35 18  1  0
 32 26  1  0
  1 42  1  0
  1 43  1  0
  1 44  1  0
  2 45  1  0
  3 46  1  0
  3 47  1  0
  4 48  1  0
  4 49  1  0
  7 50  1  0
  8 51  1  0
  9 52  1  0
 12 53  1  0
 16 54  1  0
 16 55  1  0
 19 56  1  0
 20 57  1  0
 22 58  1  0
 27 59  1  0
 28 60  1  0
 29 61  1  0
 34 62  1  0
 35 63  1  0
 36 64  1  0
 39 65  1  0
 40 66  1  0
 40 67  1  0
 41 68  1  0
 41 69  1  0
M  CHG  1   2   1
M  END
>  <meeko>  (6) 
{"is_sidechain": [false], "free_energy": -9.024, "intermolecular_energy": -12.165, "internal_energy": -1.064}

$$$$
LIB_MNJJBVNCZHNWCS__M_PUB_ALL__e8__s20260927
     RDKit          3D

 69 74  0  0  0  0  0  0  0  0999 V2000
   13.5950  -11.7980   -3.1990 C   0  0  0  0  0  0  0  0  0  0  0  0
   12.8610  -12.8520   -2.4250 N   0  0  0  0  0  0  0  0  0  0  0  0
   11.3930  -12.5180   -2.1770 C   0  0  0  0  0  0  0  0  0  0  0  0
   10.5420  -12.6760   -3.4530 C   0  0  0  0  0  0  0  0  0  0  0  0
   10.7480  -13.9960   -4.0690 N   0  0  0  0  0  0  0  0  0  0  0  0
    9.7900  -14.4870   -4.9610 C   0  0  0  0  0  0  0  0  0  0  0  0
   10.1000  -15.4190   -5.9620 C   0  0  0  0  0  0  0  0  0  0  0  0
    9.1210  -15.9060   -6.8320 C   0  0  0  0  0  0  0  0  0  0  0  0
    7.8040  -15.4640   -6.7240 C   0  0  0  0  0  0  0  0  0  0  0  0
    7.4580  -14.5260   -5.7500 C   0  0  0  0  0  0  0  0  0  0  0  0
    6.0970  -14.0260   -5.6370 C   0  0  0  0  0  0  0  0  0  0  0  0
    5.3430  -13.2530   -6.5420 C   0  0  0  0  0  0  0  0  0  0  0  0
    4.1250  -12.9540   -6.0970 N   0  0  0  0  0  0  0  0  0  0  0  0
    4.0580  -13.5550   -4.8690 N   0  0  0  0  0  0  0  0  0  0  0  0
    2.9490  -13.5480   -3.9800 C   0  0  0  0  0  0  0  0  0  0  0  0
    1.8170  -12.8850   -4.4110 N   0  0  0  0  0  0  0  0  0  0  0  0
    3.0750  -14.1930   -2.7980 C   0  0  0  0  0  0  0  0  0  0  0  0
    2.0200  -14.2760   -1.7790 C   0  0  0  0  0  0  0  0  0  0  0  0
    1.3570  -15.4870   -1.5480 C   0  0  0  0  0  0  0  0  0  0  0  0
    0.3600  -15.5730   -0.5710 C   0  0  0  0  0  0  0  0  0  0  0  0
    0.0090  -14.4490    0.1750 C   0  0  0  0  0  0  0  0  0  0  0  0
   -1.0030  -14.4970    1.1740 N   0  0  0  0  0  0  0  0  0  0  0  0
   -2.6090  -14.1440    0.7910 S   0  0  0  0  0  0  0  0  0  0  0  0
   -2.8540  -14.5710   -0.5720 O   0  0  0  0  0  0  0  0  0  0  0  0
   -3.4310  -14.6400    1.8720 O   0  0  0  0  0  0  0  0  0  0  0  0
   -2.6830  -12.3690    0.8240 C   0  0  0  0  0  0  0  0  0  0  0  0
   -3.3180  -11.7240   -0.2510 C   0  0  0  0  0  0  0  0  0  0  0  0
   -3.4090  -10.3350   -0.2810 C   0  0  0  0  0  0  0  0  0  0  0  0
   -2.8670   -9.5880    0.7590 C   0  0  0  0  0  0  0  0  0  0  0  0
   -2.2360  -10.2260    1.8330 C   0  0  0  0  0  0  0  0  0  0  0  0
   -1.5770   -9.2050    3.0670 Cl  0  0  0  0  0  0  0  0  0  0  0  0
   -2.1420  -11.6290    1.8820 C   0  0  0  0  0  0  0  0  0  0  0  0
   -1.3380  -12.3830    3.2230 Cl  0  0  0  0  0  0  0  0  0  0  0  0
    0.6810  -13.2450   -0.0340 C   0  0  0  0  0  0  0  0  0  0  0  0
    1.6780  -13.1550   -1.0110 C   0  0  0  0  0  0  0  0  0  0  0  0
    4.3990  -14.8530   -2.5630 C   0  0  0  0  0  0  0  0  0  0  0  0
    5.4190  -14.8710   -3.3650 N   0  0  0  0  0  0  0  0  0  0  0  0
    5.2550  -14.2140   -4.5550 C   0  0  0  0  0  0  0  0  0  0  0  0
    8.4570  -14.0460   -4.8850 C   0  0  0  0  0  0  0  0  0  0  0  0
   12.1410  -14.4210   -4.2970 C   0  0  0  0  0  0  0  0  0  0  0  0
   12.9930  -14.2500   -3.0230 C   0  0  0  0  0  0  0  0  0  0  0  0
   14.0804  -11.1010   -2.5000 H   0  0  0  0  0  0  0  0  0  0  0  0
   14.3586  -12.2732   -3.8324 H   0  0  0  0  0  0  0  0  0  0  0  0
   12.8845  -11.2466   -3.8324 H   0  0  0  0  0  0  0  0  0  0  0  0
   13.3050  -12.8940   -1.4990 H   0  0  0  0  0  0  0  0  0  0  0  0
   11.0009  -13.1936   -1.4025 H   0  0  0  0  0  0  0  0  0  0  0  0
   11.3327  -11.4676   -1.8559 H   0  0  0  0  0  0  0  0  0  0  0  0
    9.4794  -12.5636   -3.1919 H   0  0  0  0  0  0  0  0  0  0  0  0
   10.8477  -11.9034   -4.1738 H   0  0  0  0  0  0  0  0  0  0  0  0
   11.1360  -15.7743   -6.0645 H   0  0  0  0  0  0  0  0  0  0  0  0
    9.3909  -16.6408   -7.6048 H   0  0  0  0  0  0  0  0  0  0  0  0
    7.0358  -15.8549   -7.4074 H   0  0  0  0  0  0  0  0  0  0  0  0
    5.7241  -12.9282   -7.5214 H   0  0  0  0  0  0  0  0  0  0  0  0
    0.9010  -13.0980   -4.0380 H   0  0  0  0  0  0  0  0  0  0  0  0
    1.9230  -12.2430   -5.1960 H   0  0  0  0  0  0  0  0  0  0  0  0
    1.6218  -16.3765   -2.1385 H   0  0  0  0  0  0  0  0  0  0  0  0
   -0.1491  -16.5312   -0.3906 H   0  0  0  0  0  0  0  0  0  0  0  0
   -0.7680  -14.1840    2.1170 H   0  0  0  0  0  0  0  0  0  0  0  0
   -3.7448  -12.3188   -1.0720 H   0  0  0  0  0  0  0  0  0  0  0  0
   -3.9069   -9.8314   -1.1227 H   0  0  0  0  0  0  0  0  0  0  0  0
   -2.9345   -8.4903    0.7375 H   0  0  0  0  0  0  0  0  0  0  0  0
    0.4261  -12.3629    0.5717 H   0  0  0  0  0  0  0  0  0  0  0  0
    2.1963  -12.1991   -1.1773 H   0  0  0  0  0  0  0  0  0  0  0  0
    4.5199  -15.3804   -1.6053 H   0  0  0  0  0  0  0  0  0  0  0  0
    8.1867  -13.3002   -4.1230 H   0  0  0  0  0  0  0  0  0  0  0  0
   12.1487  -15.4801   -4.5941 H   0  0  0  0  0  0  0  0  0  0  0  0
   12.5712  -13.7919   -5.0902 H   0  0  0  0  0  0  0  0  0  0  0  0
   12.6649  -14.9875   -2.2757 H   0  0  0  0  0  0  0  0  0  0  0  0
   14.0471  -14.4014   -3.2986 H   0  0  0  0  0  0  0  0  0  0  0  0
  1  2  1  0
  2  3  1  0
  3  4  1  0
  4  5  1  0
  5  6  1  0
  6  7  2  0
  7  8  1  0
  8  9  2  0
  9 10  1  0
 10 11  1  0
 11 12  1  0
 12 13  2  0
 13 14  1  0
 14 15  1  0
 15 16  1  0
 15 17  2  0
 17 18  1  0
 18 19  2  0
 19 20  1  0
 20 21  2  0
 21 22  1  0
 22 23  1  0
 23 24  2  0
 23 25  2  0
 23 26  1  0
 26 27  2  0
 27 28  1  0
 28 29  2  0
 29 30  1  0
 30 31  1  0
 30 32  2  0
 32 33  1  0
 21 34  1  0
 34 35  2  0
 17 36  1  0
 36 37  2  0
 37 38  1  0
 10 39  2  0
  5 40  1  0
 40 41  1  0
 41  2  1  0
 39  6  1  0
 38 11  2  0
 38 14  1  0
 35 18  1  0
 32 26  1  0
  1 42  1  0
  1 43  1  0
  1 44  1  0
  2 45  1  0
  3 46  1  0
  3 47  1  0
  4 48  1  0
  4 49  1  0
  7 50  1  0
  8 51  1  0
  9 52  1  0
 12 53  1  0
 16 54  1  0
 16 55  1  0
 19 56  1  0
 20 57  1  0
 22 58  1  0
 27 59  1  0
 28 60  1  0
 29 61  1  0
 34 62  1  0
 35 63  1  0
 36 64  1  0
 39 65  1  0
 40 66  1  0
 40 67  1  0
 41 68  1  0
 41 69  1  0
M  CHG  1   2   1
M  END
>  <meeko>  (7) 
{"is_sidechain": [false], "free_energy": -8.932, "intermolecular_energy": -12.197, "internal_energy": -0.903}

$$$$
LIB_MNJJBVNCZHNWCS__M_PUB_ALL__e8__s20260927
     RDKit          3D

 69 74  0  0  0  0  0  0  0  0999 V2000
   11.2180  -20.0040   -3.1730 C   0  0  0  0  0  0  0  0  0  0  0  0
   12.1870  -19.2750   -2.2900 N   0  0  0  0  0  0  0  0  0  0  0  0
   13.0620  -18.2740   -3.0380 C   0  0  0  0  0  0  0  0  0  0  0  0
   12.2770  -17.0100   -3.4440 C   0  0  0  0  0  0  0  0  0  0  0  0
   11.5740  -16.4280   -2.2890 N   0  0  0  0  0  0  0  0  0  0  0  0
   11.1660  -15.0930   -2.3440 C   0  0  0  0  0  0  0  0  0  0  0  0
   11.6510  -14.1950   -3.3050 C   0  0  0  0  0  0  0  0  0  0  0  0
   11.2150  -12.8680   -3.3470 C   0  0  0  0  0  0  0  0  0  0  0  0
   10.2840  -12.4050   -2.4190 C   0  0  0  0  0  0  0  0  0  0  0  0
    9.7880  -13.2640   -1.4370 C   0  0  0  0  0  0  0  0  0  0  0  0
    8.8390  -12.7980   -0.4380 C   0  0  0  0  0  0  0  0  0  0  0  0
    9.0260  -11.9000    0.6320 C   0  0  0  0  0  0  0  0  0  0  0  0
    7.9320  -11.7180    1.3670 N   0  0  0  0  0  0  0  0  0  0  0  0
    6.9860  -12.5020    0.7640 N   0  0  0  0  0  0  0  0  0  0  0  0
    5.6290  -12.6510    1.1600 C   0  0  0  0  0  0  0  0  0  0  0  0
    5.2200  -11.9100    2.2510 N   0  0  0  0  0  0  0  0  0  0  0  0
    4.8430  -13.4840    0.4420 C   0  0  0  0  0  0  0  0  0  0  0  0
    3.4240  -13.7390    0.7260 C   0  0  0  0  0  0  0  0  0  0  0  0
    3.0500  -14.8120    1.5420 C   0  0  0  0  0  0  0  0  0  0  0  0
    1.7010  -15.0510    1.8230 C   0  0  0  0  0  0  0  0  0  0  0  0
    0.7140  -14.2280    1.2840 C   0  0  0  0  0  0  0  0  0  0  0  0
   -0.6680  -14.4430    1.5440 N   0  0  0  0  0  0  0  0  0  0  0  0
   -1.4480  -13.6180    2.7940 S   0  0  0  0  0  0  0  0  0  0  0  0
   -2.6620  -14.3370    3.1220 O   0  0  0  0  0  0  0  0  0  0  0  0
   -0.4610  -13.3450    3.8140 O   0  0  0  0  0  0  0  0  0  0  0  0
   -1.9160  -12.0670    2.0650 C   0  0  0  0  0  0  0  0  0  0  0  0
   -1.4370  -10.8920    2.6700 C   0  0  0  0  0  0  0  0  0  0  0  0
   -1.7690   -9.6470    2.1430 C   0  0  0  0  0  0  0  0  0  0  0  0
   -2.5780   -9.5700    1.0150 C   0  0  0  0  0  0  0  0  0  0  0  0
   -3.0550  -10.7380    0.4080 C   0  0  0  0  0  0  0  0  0  0  0  0
   -4.0720  -10.5330   -0.9800 Cl  0  0  0  0  0  0  0  0  0  0  0  0
   -2.7240  -12.0040    0.9230 C   0  0  0  0  0  0  0  0  0  0  0  0
   -3.3480  -13.4280    0.1510 Cl  0  0  0  0  0  0  0  0  0  0  0  0
    1.0810  -13.1430    0.4870 C   0  0  0  0  0  0  0  0  0  0  0  0
    2.4290  -12.9010    0.2040 C   0  0  0  0  0  0  0  0  0  0  0  0
    5.5130  -14.1670   -0.7110 C   0  0  0  0  0  0  0  0  0  0  0  0
    6.7480  -14.0400   -1.0860 N   0  0  0  0  0  0  0  0  0  0  0  0
    7.5140  -13.1840   -0.3420 C   0  0  0  0  0  0  0  0  0  0  0  0
   10.2400  -14.5950   -1.4090 C   0  0  0  0  0  0  0  0  0  0  0  0
   10.7450  -17.3390   -1.4780 C   0  0  0  0  0  0  0  0  0  0  0  0
   11.5300  -18.6080   -1.0860 C   0  0  0  0  0  0  0  0  0  0  0  0
   10.4933  -20.5492   -2.5505 H   0  0  0  0  0  0  0  0  0  0  0  0
   10.6851  -19.2810   -3.8080 H   0  0  0  0  0  0  0  0  0  0  0  0
   11.7650  -20.7164   -3.8080 H   0  0  0  0  0  0  0  0  0  0  0  0
   12.8250  -19.9850   -1.9110 H   0  0  0  0  0  0  0  0  0  0  0  0
   13.8989  -17.9787   -2.3880 H   0  0  0  0  0  0  0  0  0  0  0  0
   13.4234  -18.7590   -3.9568 H   0  0  0  0  0  0  0  0  0  0  0  0
   12.9788  -16.2662   -3.8494 H   0  0  0  0  0  0  0  0  0  0  0  0
   11.5306  -17.2910   -4.2016 H   0  0  0  0  0  0  0  0  0  0  0  0
   12.3904  -14.5423   -4.0416 H   0  0  0  0  0  0  0  0  0  0  0  0
   11.6082  -12.1862   -4.1155 H   0  0  0  0  0  0  0  0  0  0  0  0
    9.9396  -11.3611   -2.4605 H   0  0  0  0  0  0  0  0  0  0  0  0
    9.9829  -11.3986    0.8392 H   0  0  0  0  0  0  0  0  0  0  0  0
    5.8010  -11.8090    3.0730 H   0  0  0  0  0  0  0  0  0  0  0  0
    4.2650  -11.5520    2.2420 H   0  0  0  0  0  0  0  0  0  0  0  0
    3.8217  -15.4718    1.9652 H   0  0  0  0  0  0  0  0  0  0  0  0
    1.4178  -15.8924    2.4724 H   0  0  0  0  0  0  0  0  0  0  0  0
   -1.0410  -15.3870    1.4300 H   0  0  0  0  0  0  0  0  0  0  0  0
   -0.7977  -10.9565    3.5628 H   0  0  0  0  0  0  0  0  0  0  0  0
   -1.3929   -8.7283    2.6169 H   0  0  0  0  0  0  0  0  0  0  0  0
   -2.8444   -8.5877    0.5978 H   0  0  0  0  0  0  0  0  0  0  0  0
    0.3072  -12.4756    0.0798 H   0  0  0  0  0  0  0  0  0  0  0  0
    2.7100  -12.0484   -0.4317 H   0  0  0  0  0  0  0  0  0  0  0  0
    4.8889  -14.8512   -1.3046 H   0  0  0  0  0  0  0  0  0  0  0  0
    9.8567  -15.2700   -0.6296 H   0  0  0  0  0  0  0  0  0  0  0  0
   10.4275  -16.8167   -0.5634 H   0  0  0  0  0  0  0  0  0  0  0  0
    9.8720  -17.6403   -2.0756 H   0  0  0  0  0  0  0  0  0  0  0  0
   12.3123  -18.3315   -0.3638 H   0  0  0  0  0  0  0  0  0  0  0  0
   10.8177  -19.3243   -0.6506 H   0  0  0  0  0  0  0  0  0  0  0  0
  1  2  1  0
  2  3  1  0
  3  4  1  0
  4  5  1  0
  5  6  1  0
  6  7  2  0
  7  8  1  0
  8  9  2  0
  9 10  1  0
 10 11  1  0
 11 12  1  0
 12 13  2  0
 13 14  1  0
 14 15  1  0
 15 16  1  0
 15 17  2  0
 17 18  1  0
 18 19  2  0
 19 20  1  0
 20 21  2  0
 21 22  1  0
 22 23  1  0
 23 24  2  0
 23 25  2  0
 23 26  1  0
 26 27  2  0
 27 28  1  0
 28 29  2  0
 29 30  1  0
 30 31  1  0
 30 32  2  0
 32 33  1  0
 21 34  1  0
 34 35  2  0
 17 36  1  0
 36 37  2  0
 37 38  1  0
 10 39  2  0
  5 40  1  0
 40 41  1  0
 41  2  1  0
 39  6  1  0
 38 11  2  0
 38 14  1  0
 35 18  1  0
 32 26  1  0
  1 42  1  0
  1 43  1  0
  1 44  1  0
  2 45  1  0
  3 46  1  0
  3 47  1  0
  4 48  1  0
  4 49  1  0
  7 50  1  0
  8 51  1  0
  9 52  1  0
 12 53  1  0
 16 54  1  0
 16 55  1  0
 19 56  1  0
 20 57  1  0
 22 58  1  0
 27 59  1  0
 28 60  1  0
 29 61  1  0
 34 62  1  0
 35 63  1  0
 36 64  1  0
 39 65  1  0
 40 66  1  0
 40 67  1  0
 41 68  1  0
 41 69  1  0
M  CHG  1   2   1
M  END
>  <meeko>  (8) 
{"is_sidechain": [false], "free_energy": -8.886, "intermolecular_energy": -11.953, "internal_energy": -1.085}

$$$$
LIB_MNJJBVNCZHNWCS__M_PUB_ALL__e8__s20260927
     RDKit          3D

 69 74  0  0  0  0  0  0  0  0999 V2000
   12.5880  -14.0860   -6.4230 C   0  0  0  0  0  0  0  0  0  0  0  0
   11.5520  -14.9200   -5.7290 N   0  0  0  0  0  0  0  0  0  0  0  0
   12.1060  -15.7450   -4.5720 C   0  0  0  0  0  0  0  0  0  0  0  0
   12.4190  -14.8730   -3.3390 C   0  0  0  0  0  0  0  0  0  0  0  0
   11.2630  -14.0430   -2.9680 N   0  0  0  0  0  0  0  0  0  0  0  0
   11.1900  -13.5150   -1.6760 C   0  0  0  0  0  0  0  0  0  0  0  0
   12.2790  -13.5330   -0.7920 C   0  0  0  0  0  0  0  0  0  0  0  0
   12.1850  -12.9840    0.4900 C   0  0  0  0  0  0  0  0  0  0  0  0
   10.9910  -12.4100    0.9210 C   0  0  0  0  0  0  0  0  0  0  0  0
    9.8800  -12.3860    0.0770 C   0  0  0  0  0  0  0  0  0  0  0  0
    8.6140  -11.8200    0.5150 C   0  0  0  0  0  0  0  0  0  0  0  0
    8.3200  -10.5220    0.9780 C   0  0  0  0  0  0  0  0  0  0  0  0
    7.0430  -10.3580    1.3170 N   0  0  0  0  0  0  0  0  0  0  0  0
    6.4680  -11.5730    1.0620 N   0  0  0  0  0  0  0  0  0  0  0  0
    5.1010  -11.9190    1.2450 C   0  0  0  0  0  0  0  0  0  0  0  0
    4.2680  -10.9200    1.7070 N   0  0  0  0  0  0  0  0  0  0  0  0
    4.7180  -13.1810    0.9450 C   0  0  0  0  0  0  0  0  0  0  0  0
    3.3450  -13.6870    1.0790 C   0  0  0  0  0  0  0  0  0  0  0  0
    3.0700  -14.7600    1.9330 C   0  0  0  0  0  0  0  0  0  0  0  0
    1.7630  -15.2380    2.0710 C   0  0  0  0  0  0  0  0  0  0  0  0
    0.7220  -14.6540    1.3510 C   0  0  0  0  0  0  0  0  0  0  0  0
   -0.6200  -15.1150    1.4630 N   0  0  0  0  0  0  0  0  0  0  0  0
   -1.6200  -14.5620    2.7050 S   0  0  0  0  0  0  0  0  0  0  0  0
   -2.9030  -15.2250    2.5840 O   0  0  0  0  0  0  0  0  0  0  0  0
   -0.8680  -14.6440    3.9360 O   0  0  0  0  0  0  0  0  0  0  0  0
   -1.8640  -12.8410    2.3330 C   0  0  0  0  0  0  0  0  0  0  0  0
   -1.3590  -11.8990    3.2460 C   0  0  0  0  0  0  0  0  0  0  0  0
   -1.5170  -10.5370    3.0080 C   0  0  0  0  0  0  0  0  0  0  0  0
   -2.1790  -10.1110    1.8620 C   0  0  0  0  0  0  0  0  0  0  0  0
   -2.6820  -11.0450    0.9480 C   0  0  0  0  0  0  0  0  0  0  0  0
   -3.5070  -10.4130   -0.4370 Cl  0  0  0  0  0  0  0  0  0  0  0  0
   -2.5240  -12.4250    1.1700 C   0  0  0  0  0  0  0  0  0  0  0  0
   -3.1750  -13.5530    0.0220 Cl  0  0  0  0  0  0  0  0  0  0  0  0
    0.9850  -13.5690    0.5150 C   0  0  0  0  0  0  0  0  0  0  0  0
    2.2910  -13.0890    0.3740 C   0  0  0  0  0  0  0  0  0  0  0  0
    5.8050  -14.0820    0.4440 C   0  0  0  0  0  0  0  0  0  0  0  0
    7.0540  -13.7800    0.2690 N   0  0  0  0  0  0  0  0  0  0  0  0
    7.4070  -12.4940    0.5760 C   0  0  0  0  0  0  0  0  0  0  0  0
    9.9930  -12.9440   -1.2080 C   0  0  0  0  0  0  0  0  0  0  0  0
   10.6320  -13.2510   -4.0400 C   0  0  0  0  0  0  0  0  0  0  0  0
   10.3320  -14.1240   -5.2760 C   0  0  0  0  0  0  0  0  0  0  0  0
   13.2149  -13.5813   -5.6732 H   0  0  0  0  0  0  0  0  0  0  0  0
   13.2176  -14.7322   -7.0523 H   0  0  0  0  0  0  0  0  0  0  0  0
   12.0912  -13.3330   -7.0523 H   0  0  0  0  0  0  0  0  0  0  0  0
   11.2110  -15.5950   -6.4240 H   0  0  0  0  0  0  0  0  0  0  0  0
   11.3627  -16.5053   -4.2900 H   0  0  0  0  0  0  0  0  0  0  0  0
   13.0447  -16.2112   -4.9058 H   0  0  0  0  0  0  0  0  0  0  0  0
   12.6775  -15.5270   -2.4932 H   0  0  0  0  0  0  0  0  0  0  0  0
   13.2601  -14.2086   -3.5864 H   0  0  0  0  0  0  0  0  0  0  0  0
   13.2268  -13.9887   -1.1144 H   0  0  0  0  0  0  0  0  0  0  0  0
   13.0566  -13.0052    1.1607 H   0  0  0  0  0  0  0  0  0  0  0  0
   10.9239  -11.9747    1.9290 H   0  0  0  0  0  0  0  0  0  0  0  0
    9.0719   -9.7225    1.0521 H   0  0  0  0  0  0  0  0  0  0  0  0
    4.5630  -10.2710    2.4250 H   0  0  0  0  0  0  0  0  0  0  0  0
    3.3050  -10.9230    1.3730 H   0  0  0  0  0  0  0  0  0  0  0  0
    3.8869  -15.2308    2.4996 H   0  0  0  0  0  0  0  0  0  0  0  0
    1.5556  -16.0780    2.7503 H   0  0  0  0  0  0  0  0  0  0  0  0
   -0.8180  -16.0900    1.2310 H   0  0  0  0  0  0  0  0  0  0  0  0
   -0.8368  -12.2398    4.1522 H   0  0  0  0  0  0  0  0  0  0  0  0
   -1.1201   -9.8012    3.7229 H   0  0  0  0  0  0  0  0  0  0  0  0
   -2.3082   -9.0352    1.6724 H   0  0  0  0  0  0  0  0  0  0  0  0
    0.1623  -13.0891   -0.0354 H   0  0  0  0  0  0  0  0  0  0  0  0
    2.4922  -12.2380   -0.2934 H   0  0  0  0  0  0  0  0  0  0  0  0
    5.5115  -15.1130    0.1975 H   0  0  0  0  0  0  0  0  0  0  0  0
    9.1149  -12.9338   -1.8705 H   0  0  0  0  0  0  0  0  0  0  0  0
    9.6899  -12.8251   -3.6644 H   0  0  0  0  0  0  0  0  0  0  0  0
   11.3271  -12.4523   -4.3382 H   0  0  0  0  0  0  0  0  0  0  0  0
    9.5235  -14.8266   -5.0256 H   0  0  0  0  0  0  0  0  0  0  0  0
   10.0404  -13.4551   -6.0992 H   0  0  0  0  0  0  0  0  0  0  0  0
  1  2  1  0
  2  3  1  0
  3  4  1  0
  4  5  1  0
  5  6  1  0
  6  7  2  0
  7  8  1  0
  8  9  2  0
  9 10  1  0
 10 11  1  0
 11 12  1  0
 12 13  2  0
 13 14  1  0
 14 15  1  0
 15 16  1  0
 15 17  2  0
 17 18  1  0
 18 19  2  0
 19 20  1  0
 20 21  2  0
 21 22  1  0
 22 23  1  0
 23 24  2  0
 23 25  2  0
 23 26  1  0
 26 27  2  0
 27 28  1  0
 28 29  2  0
 29 30  1  0
 30 31  1  0
 30 32  2  0
 32 33  1  0
 21 34  1  0
 34 35  2  0
 17 36  1  0
 36 37  2  0
 37 38  1  0
 10 39  2  0
  5 40  1  0
 40 41  1  0
 41  2  1  0
 39  6  1  0
 38 11  2  0
 38 14  1  0
 35 18  1  0
 32 26  1  0
  1 42  1  0
  1 43  1  0
  1 44  1  0
  2 45  1  0
  3 46  1  0
  3 47  1  0
  4 48  1  0
  4 49  1  0
  7 50  1  0
  8 51  1  0
  9 52  1  0
 12 53  1  0
 16 54  1  0
 16 55  1  0
 19 56  1  0
 20 57  1  0
 22 58  1  0
 27 59  1  0
 28 60  1  0
 29 61  1  0
 34 62  1  0
 35 63  1  0
 36 64  1  0
 39 65  1  0
 40 66  1  0
 40 67  1  0
 41 68  1  0
 41 69  1  0
M  CHG  1   2   1
M  END
>  <meeko>  (9) 
{"is_sidechain": [false], "free_energy": -8.781, "intermolecular_energy": -12.05, "internal_energy": -0.843}

$$$$
