LIB_AIWJVLQNYNCDSL__M_PUB_ALL__e8__s20260927
     RDKit          3D

 63 67  0  0  0  0  0  0  0  0999 V2000
  -12.3860  -15.2570    9.7050 C   0  0  0  0  0  0  0  0  0  0  0  0
  -11.2640  -16.0830    9.1390 N   0  0  0  0  0  0  0  0  0  0  0  0
  -11.1590  -17.4150    9.8210 C   0  0  0  0  0  0  0  0  0  0  0  0
  -11.3380  -16.2310    7.6340 C   0  0  0  0  0  0  0  0  0  0  0  0
   -9.9850  -16.2550    6.9800 C   0  0  0  0  0  0  0  0  0  0  0  0
   -8.8430  -15.8500    7.6870 C   0  0  0  0  0  0  0  0  0  0  0  0
   -7.5940  -15.8170    7.0590 C   0  0  0  0  0  0  0  0  0  0  0  0
   -7.4610  -16.1820    5.7130 C   0  0  0  0  0  0  0  0  0  0  0  0
   -6.1600  -16.1270    5.0680 C   0  0  0  0  0  0  0  0  0  0  0  0
   -5.0950  -17.0460    5.1040 C   0  0  0  0  0  0  0  0  0  0  0  0
   -4.0330  -16.6500    4.4060 N   0  0  0  0  0  0  0  0  0  0  0  0
   -4.3830  -15.4340    3.9010 N   0  0  0  0  0  0  0  0  0  0  0  0
   -3.6130  -14.5660    3.1000 C   0  0  0  0  0  0  0  0  0  0  0  0
   -2.2370  -14.8960    2.6720 C   0  0  0  0  0  0  0  0  0  0  0  0
   -1.3680  -15.5860    3.5260 C   0  0  0  0  0  0  0  0  0  0  0  0
   -0.0750  -15.9020    3.1100 C   0  0  0  0  0  0  0  0  0  0  0  0
    0.3610  -15.5360    1.8360 C   0  0  0  0  0  0  0  0  0  0  0  0
   -0.4900  -14.8490    0.9630 C   0  0  0  0  0  0  0  0  0  0  0  0
    0.0200  -14.5140   -0.3090 N   0  0  0  0  0  0  0  0  0  0  0  0
    0.8870  -13.4820   -0.6180 C   0  0  0  0  0  0  0  0  0  0  0  0
    1.2920  -12.6120    0.1440 O   0  0  0  0  0  0  0  0  0  0  0  0
    1.3130  -13.4210   -2.0450 C   0  0  0  0  0  0  0  0  0  0  0  0
    1.0090  -14.4450   -2.9510 C   0  0  0  0  0  0  0  0  0  0  0  0
    1.4300  -14.3480   -4.2790 C   0  0  0  0  0  0  0  0  0  0  0  0
    2.1640  -13.2390   -4.7030 C   0  0  0  0  0  0  0  0  0  0  0  0
    2.5010  -12.2170   -3.8030 C   0  0  0  0  0  0  0  0  0  0  0  0
    3.2880  -11.0120   -4.2560 C   0  0  0  0  0  0  0  0  0  0  0  0
    2.7810   -9.8390   -3.7870 F   0  0  0  0  0  0  0  0  0  0  0  0
    4.5910  -11.0400   -3.8600 F   0  0  0  0  0  0  0  0  0  0  0  0
    3.3110  -10.8960   -5.6120 F   0  0  0  0  0  0  0  0  0  0  0  0
    2.0670  -12.3180   -2.4710 C   0  0  0  0  0  0  0  0  0  0  0  0
   -1.7800  -14.5260    1.3930 C   0  0  0  0  0  0  0  0  0  0  0  0
   -4.1520  -13.3980    2.7040 C   0  0  0  0  0  0  0  0  0  0  0  0
   -5.5320  -13.1220    3.1690 C   0  0  0  0  0  0  0  0  0  0  0  0
   -6.2660  -13.8970    3.9070 N   0  0  0  0  0  0  0  0  0  0  0  0
   -5.6920  -15.0840    4.2870 C   0  0  0  0  0  0  0  0  0  0  0  0
   -8.5980  -16.6040    5.0160 C   0  0  0  0  0  0  0  0  0  0  0  0
   -9.8480  -16.6410    5.6400 C   0  0  0  0  0  0  0  0  0  0  0  0
  -12.3452  -15.2870   10.8038 H   0  0  0  0  0  0  0  0  0  0  0  0
  -12.2843  -14.2166    9.3626 H   0  0  0  0  0  0  0  0  0  0  0  0
  -13.3492  -15.6632    9.3626 H   0  0  0  0  0  0  0  0  0  0  0  0
  -10.3980  -15.5690    9.3360 H   0  0  0  0  0  0  0  0  0  0  0  0
  -11.1704  -17.2705   10.9114 H   0  0  0  0  0  0  0  0  0  0  0  0
  -12.0102  -18.0462    9.5258 H   0  0  0  0  0  0  0  0  0  0  0  0
  -10.2194  -17.9050    9.5258 H   0  0  0  0  0  0  0  0  0  0  0  0
  -11.8577  -17.1716    7.3992 H   0  0  0  0  0  0  0  0  0  0  0  0
  -11.8774  -15.3557    7.2430 H   0  0  0  0  0  0  0  0  0  0  0  0
   -8.9307  -15.5562    8.7434 H   0  0  0  0  0  0  0  0  0  0  0  0
   -6.7069  -15.5012    7.6277 H   0  0  0  0  0  0  0  0  0  0  0  0
   -5.1360  -17.9975    5.6545 H   0  0  0  0  0  0  0  0  0  0  0  0
   -1.7070  -15.8803    4.5302 H   0  0  0  0  0  0  0  0  0  0  0  0
    0.6030  -16.4412    3.7879 H   0  0  0  0  0  0  0  0  0  0  0  0
    1.3822  -15.7896    1.5152 H   0  0  0  0  0  0  0  0  0  0  0  0
   -0.3350  -15.0660   -1.0810 H   0  0  0  0  0  0  0  0  0  0  0  0
    0.4393  -15.3246   -2.6169 H   0  0  0  0  0  0  0  0  0  0  0  0
    1.1826  -15.1476   -4.9927 H   0  0  0  0  0  0  0  0  0  0  0  0
    2.4815  -13.1657   -5.7536 H   0  0  0  0  0  0  0  0  0  0  0  0
    2.3213  -11.5233   -1.7542 H   0  0  0  0  0  0  0  0  0  0  0  0
   -2.4507  -13.9723    0.7195 H   0  0  0  0  0  0  0  0  0  0  0  0
   -3.5994  -12.6882    2.0709 H   0  0  0  0  0  0  0  0  0  0  0  0
   -5.9780  -12.1658    2.8578 H   0  0  0  0  0  0  0  0  0  0  0  0
   -8.5071  -16.9106    3.9635 H   0  0  0  0  0  0  0  0  0  0  0  0
  -10.7306  -16.9755    5.0751 H   0  0  0  0  0  0  0  0  0  0  0  0
  1  2  1  0
  2  3  1  0
  2  4  1  0
  4  5  1  0
  5  6  2  0
  6  7  1  0
  7  8  2  0
  8  9  1  0
  9 10  1  0
 10 11  2  0
 11 12  1  0
 12 13  1  0
 13 14  1  0
 14 15  2  0
 15 16  1  0
 16 17  2  0
 17 18  1  0
 18 19  1  0
 19 20  1  0
 20 21  2  0
 20 22  1  0
 22 23  2  0
 23 24  1  0
 24 25  2  0
 25 26  1  0
 26 27  1  0
 27 28  1  0
 27 29  1  0
 27 30  1  0
 26 31  2  0
 18 32  2  0
 13 33  2  0
 33 34  1  0
 34 35  2  0
 35 36  1  0
  8 37  1  0
 37 38  2  0
 38  5  1  0
 36  9  2  0
 36 12  1  0
 32 14  1  0
 31 22  1  0
  1 39  1  0
  1 40  1  0
  1 41  1  0
  2 42  1  0
  3 43  1  0
  3 44  1  0
  3 45  1  0
  4 46  1  0
  4 47  1  0
  6 48  1  0
  7 49  1  0
 10 50  1  0
 15 51  1  0
 16 52  1  0
 17 53  1  0
 19 54  1  0
 23 55  1  0
 24 56  1  0
 25 57  1  0
 31 58  1  0
 32 59  1  0
 33 60  1  0
 34 61  1  0
 37 62  1  0
 38 63  1  0
M  CHG  1   2   1
M  END
>  <meeko>  (1) 
{"is_sidechain": [false], "free_energy": -9.113, "intermolecular_energy": -12.842, "internal_energy": -0.718}

$$$$
LIB_AIWJVLQNYNCDSL__M_PUB_ALL__e8__s20260927
     RDKit          3D

 63 67  0  0  0  0  0  0  0  0999 V2000
   -1.6540  -13.0340    0.7270 C   0  0  0  0  0  0  0  0  0  0  0  0
   -2.4200  -12.9010    2.0150 N   0  0  0  0  0  0  0  0  0  0  0  0
   -2.0260  -11.6650    2.7680 C   0  0  0  0  0  0  0  0  0  0  0  0
   -3.9190  -12.9850    1.8240 C   0  0  0  0  0  0  0  0  0  0  0  0
   -4.5980  -13.8180    2.8750 C   0  0  0  0  0  0  0  0  0  0  0  0
   -5.7820  -13.3750    3.4830 C   0  0  0  0  0  0  0  0  0  0  0  0
   -6.3800  -14.1230    4.5010 C   0  0  0  0  0  0  0  0  0  0  0  0
   -5.8060  -15.3240    4.9380 C   0  0  0  0  0  0  0  0  0  0  0  0
   -6.4280  -16.0830    6.0080 C   0  0  0  0  0  0  0  0  0  0  0  0
   -5.8760  -16.5800    7.2040 C   0  0  0  0  0  0  0  0  0  0  0  0
   -6.7470  -17.2610    7.9440 N   0  0  0  0  0  0  0  0  0  0  0  0
   -7.9070  -17.2340    7.2300 N   0  0  0  0  0  0  0  0  0  0  0  0
   -9.1460  -17.8230    7.5520 C   0  0  0  0  0  0  0  0  0  0  0  0
   -9.3580  -18.5880    8.7990 C   0  0  0  0  0  0  0  0  0  0  0  0
   -8.9690  -18.0620   10.0370 C   0  0  0  0  0  0  0  0  0  0  0  0
   -9.1830  -18.7860   11.2100 C   0  0  0  0  0  0  0  0  0  0  0  0
   -9.7900  -20.0420   11.1570 C   0  0  0  0  0  0  0  0  0  0  0  0
  -10.1900  -20.5870    9.9330 C   0  0  0  0  0  0  0  0  0  0  0  0
  -10.7990  -21.8600    9.9590 N   0  0  0  0  0  0  0  0  0  0  0  0
  -11.0990  -22.6670    8.8760 C   0  0  0  0  0  0  0  0  0  0  0  0
  -10.9770  -22.3780    7.6910 O   0  0  0  0  0  0  0  0  0  0  0  0
  -11.6750  -23.9980    9.2210 C   0  0  0  0  0  0  0  0  0  0  0  0
  -11.9790  -24.9480    8.2370 C   0  0  0  0  0  0  0  0  0  0  0  0
  -12.5180  -26.1820    8.6040 C   0  0  0  0  0  0  0  0  0  0  0  0
  -12.7660  -26.4680    9.9480 C   0  0  0  0  0  0  0  0  0  0  0  0
  -12.4930  -25.5180   10.9430 C   0  0  0  0  0  0  0  0  0  0  0  0
  -12.7520  -25.8230   12.3990 C   0  0  0  0  0  0  0  0  0  0  0  0
  -13.7210  -25.0360   12.9420 F   0  0  0  0  0  0  0  0  0  0  0  0
  -13.1490  -27.1070   12.6170 F   0  0  0  0  0  0  0  0  0  0  0  0
  -11.6430  -25.6370   13.1660 F   0  0  0  0  0  0  0  0  0  0  0  0
  -11.9430  -24.2820   10.5670 C   0  0  0  0  0  0  0  0  0  0  0  0
   -9.9610  -19.8590    8.7620 C   0  0  0  0  0  0  0  0  0  0  0  0
  -10.1780  -17.6770    6.6990 C   0  0  0  0  0  0  0  0  0  0  0  0
   -9.9020  -16.9040    5.4650 C   0  0  0  0  0  0  0  0  0  0  0  0
   -8.7740  -16.3530    5.1370 N   0  0  0  0  0  0  0  0  0  0  0  0
   -7.7450  -16.5110    6.0310 C   0  0  0  0  0  0  0  0  0  0  0  0
   -4.6360  -15.7730    4.3170 C   0  0  0  0  0  0  0  0  0  0  0  0
   -4.0360  -15.0300    3.2960 C   0  0  0  0  0  0  0  0  0  0  0  0
   -0.5925  -13.2183    0.9490 H   0  0  0  0  0  0  0  0  0  0  0  0
   -2.0583  -13.8754    0.1451 H   0  0  0  0  0  0  0  0  0  0  0  0
   -1.7511  -12.1056    0.1451 H   0  0  0  0  0  0  0  0  0  0  0  0
   -2.1570  -13.7080    2.5920 H   0  0  0  0  0  0  0  0  0  0  0  0
   -2.0878  -11.8589    3.8490 H   0  0  0  0  0  0  0  0  0  0  0  0
   -0.9949  -11.3876    2.5036 H   0  0  0  0  0  0  0  0  0  0  0  0
   -2.7063  -10.8421    2.5036 H   0  0  0  0  0  0  0  0  0  0  0  0
   -4.3348  -11.9673    1.8603 H   0  0  0  0  0  0  0  0  0  0  0  0
   -4.1009  -13.4678    0.8525 H   0  0  0  0  0  0  0  0  0  0  0  0
   -6.2434  -12.4315    3.1560 H   0  0  0  0  0  0  0  0  0  0  0  0
   -7.3113  -13.7649    4.9641 H   0  0  0  0  0  0  0  0  0  0  0  0
   -4.8279  -16.4209    7.4977 H   0  0  0  0  0  0  0  0  0  0  0  0
   -8.4918  -17.0720   10.0849 H   0  0  0  0  0  0  0  0  0  0  0  0
   -8.8729  -18.3665   12.1784 H   0  0  0  0  0  0  0  0  0  0  0  0
   -9.9550  -20.6077   12.0859 H   0  0  0  0  0  0  0  0  0  0  0  0
  -11.0910  -22.1860   10.8720 H   0  0  0  0  0  0  0  0  0  0  0  0
  -11.7931  -24.7216    7.1767 H   0  0  0  0  0  0  0  0  0  0  0  0
  -12.7481  -26.9313    7.8323 H   0  0  0  0  0  0  0  0  0  0  0  0
  -13.1795  -27.4478   10.2291 H   0  0  0  0  0  0  0  0  0  0  0  0
  -11.7201  -23.5287   11.3370 H   0  0  0  0  0  0  0  0  0  0  0  0
  -10.2577  -20.2876    7.7933 H   0  0  0  0  0  0  0  0  0  0  0  0
  -11.1690  -18.1069    6.9064 H   0  0  0  0  0  0  0  0  0  0  0  0
  -10.7358  -16.7857    4.7573 H   0  0  0  0  0  0  0  0  0  0  0  0
   -4.1821  -16.7229    4.6360 H   0  0  0  0  0  0  0  0  0  0  0  0
   -3.1159  -15.3998    2.8198 H   0  0  0  0  0  0  0  0  0  0  0  0
  1  2  1  0
  2  3  1  0
  2  4  1  0
  4  5  1  0
  5  6  2  0
  6  7  1  0
  7  8  2  0
  8  9  1  0
  9 10  1  0
 10 11  2  0
 11 12  1  0
 12 13  1  0
 13 14  1  0
 14 15  2  0
 15 16  1  0
 16 17  2  0
 17 18  1  0
 18 19  1  0
 19 20  1  0
 20 21  2  0
 20 22  1  0
 22 23  2  0
 23 24  1  0
 24 25  2  0
 25 26  1  0
 26 27  1  0
 27 28  1  0
 27 29  1  0
 27 30  1  0
 26 31  2  0
 18 32  2  0
 13 33  2  0
 33 34  1  0
 34 35  2  0
 35 36  1  0
  8 37  1  0
 37 38  2  0
 38  5  1  0
 36  9  2  0
 36 12  1  0
 32 14  1  0
 31 22  1  0
  1 39  1  0
  1 40  1  0
  1 41  1  0
  2 42  1  0
  3 43  1  0
  3 44  1  0
  3 45  1  0
  4 46  1  0
  4 47  1  0
  6 48  1  0
  7 49  1  0
 10 50  1  0
 15 51  1  0
 16 52  1  0
 17 53  1  0
 19 54  1  0
 23 55  1  0
 24 56  1  0
 25 57  1  0
 31 58  1  0
 32 59  1  0
 33 60  1  0
 34 61  1  0
 37 62  1  0
 38 63  1  0
M  CHG  1   2   1
M  END
>  <meeko>  (2) 
{"is_sidechain": [false], "free_energy": -9.036, "intermolecular_energy": -12.97, "internal_energy": -0.482}

$$$$
LIB_AIWJVLQNYNCDSL__M_PUB_ALL__e8__s20260927
     RDKit          3D

 63 67  0  0  0  0  0  0  0  0999 V2000
   -4.1880  -12.2980    0.0970 C   0  0  0  0  0  0  0  0  0  0  0  0
   -3.3980  -12.9800    1.1800 N   0  0  0  0  0  0  0  0  0  0  0  0
   -4.1100  -12.9290    2.5000 C   0  0  0  0  0  0  0  0  0  0  0  0
   -2.9940  -14.3930    0.8180 C   0  0  0  0  0  0  0  0  0  0  0  0
   -1.7100  -14.4550    0.0380 C   0  0  0  0  0  0  0  0  0  0  0  0
   -1.5280  -15.4210   -0.9610 C   0  0  0  0  0  0  0  0  0  0  0  0
   -0.3110  -15.5140   -1.6460 C   0  0  0  0  0  0  0  0  0  0  0  0
    0.7480  -14.6480   -1.3420 C   0  0  0  0  0  0  0  0  0  0  0  0
    2.0110  -14.7650   -2.0490 C   0  0  0  0  0  0  0  0  0  0  0  0
    3.0810  -15.6570   -1.8450 C   0  0  0  0  0  0  0  0  0  0  0  0
    4.1010  -15.4540   -2.6740 N   0  0  0  0  0  0  0  0  0  0  0  0
    3.7190  -14.3980   -3.4450 N   0  0  0  0  0  0  0  0  0  0  0  0
    4.4400  -13.7610   -4.4750 C   0  0  0  0  0  0  0  0  0  0  0  0
    5.7930  -14.1990   -4.8820 C   0  0  0  0  0  0  0  0  0  0  0  0
    5.9610  -15.2220   -5.8230 C   0  0  0  0  0  0  0  0  0  0  0  0
    7.2400  -15.6210   -6.2080 C   0  0  0  0  0  0  0  0  0  0  0  0
    8.3630  -14.9990   -5.6610 C   0  0  0  0  0  0  0  0  0  0  0  0
    8.2210  -13.9720   -4.7220 C   0  0  0  0  0  0  0  0  0  0  0  0
    9.4020  -13.3890   -4.2150 N   0  0  0  0  0  0  0  0  0  0  0  0
   10.3720  -14.0020   -3.4420 C   0  0  0  0  0  0  0  0  0  0  0  0
   10.3310  -15.1350   -2.9770 O   0  0  0  0  0  0  0  0  0  0  0  0
   11.5520  -13.1500   -3.1180 C   0  0  0  0  0  0  0  0  0  0  0  0
   12.5970  -12.9580   -4.0320 C   0  0  0  0  0  0  0  0  0  0  0  0
   13.6850  -12.1540   -3.6860 C   0  0  0  0  0  0  0  0  0  0  0  0
   13.7390  -11.5500   -2.4290 C   0  0  0  0  0  0  0  0  0  0  0  0
   12.7150  -11.7530   -1.4930 C   0  0  0  0  0  0  0  0  0  0  0  0
   12.7640  -11.0970   -0.1340 C   0  0  0  0  0  0  0  0  0  0  0  0
   13.9130  -11.3660    0.5450 F   0  0  0  0  0  0  0  0  0  0  0  0
   12.6730   -9.7390   -0.1890 F   0  0  0  0  0  0  0  0  0  0  0  0
   11.7460  -11.5100    0.6710 F   0  0  0  0  0  0  0  0  0  0  0  0
   11.6200  -12.5570   -1.8500 C   0  0  0  0  0  0  0  0  0  0  0  0
    6.9350  -13.5870   -4.3320 C   0  0  0  0  0  0  0  0  0  0  0  0
    3.8750  -12.7220   -5.1180 C   0  0  0  0  0  0  0  0  0  0  0  0
    2.5210  -12.3270   -4.6620 C   0  0  0  0  0  0  0  0  0  0  0  0
    1.8320  -12.8890   -3.7170 N   0  0  0  0  0  0  0  0  0  0  0  0
    2.4310  -13.9510   -3.0870 C   0  0  0  0  0  0  0  0  0  0  0  0
    0.5550  -13.6720   -0.3580 C   0  0  0  0  0  0  0  0  0  0  0  0
   -0.6600  -13.5740    0.3260 C   0  0  0  0  0  0  0  0  0  0  0  0
   -4.9459  -11.6437    0.5526 H   0  0  0  0  0  0  0  0  0  0  0  0
   -3.5110  -11.6959   -0.5268 H   0  0  0  0  0  0  0  0  0  0  0  0
   -4.6849  -13.0556   -0.5268 H   0  0  0  0  0  0  0  0  0  0  0  0
   -2.5260  -12.4480    1.2820 H   0  0  0  0  0  0  0  0  0  0  0  0
   -3.3741  -12.9817    3.3158 H   0  0  0  0  0  0  0  0  0  0  0  0
   -4.6748  -11.9881    2.5759 H   0  0  0  0  0  0  0  0  0  0  0  0
   -4.8031  -13.7798    2.5759 H   0  0  0  0  0  0  0  0  0  0  0  0
   -2.8688  -14.9705    1.7458 H   0  0  0  0  0  0  0  0  0  0  0  0
   -3.7874  -14.8089    0.1796 H   0  0  0  0  0  0  0  0  0  0  0  0
   -2.3478  -16.1113   -1.2086 H   0  0  0  0  0  0  0  0  0  0  0  0
   -0.1845  -16.2744   -2.4307 H   0  0  0  0  0  0  0  0  0  0  0  0
    3.0741  -16.4437   -1.0762 H   0  0  0  0  0  0  0  0  0  0  0  0
    5.0795  -15.7133   -6.2606 H   0  0  0  0  0  0  0  0  0  0  0  0
    7.3643  -16.4282   -6.9449 H   0  0  0  0  0  0  0  0  0  0  0  0
    9.3687  -15.3191   -5.9709 H   0  0  0  0  0  0  0  0  0  0  0  0
    9.5160  -12.4010   -4.4020 H   0  0  0  0  0  0  0  0  0  0  0  0
   12.5602  -13.4398   -5.0202 H   0  0  0  0  0  0  0  0  0  0  0  0
   14.5016  -11.9963   -4.4060 H   0  0  0  0  0  0  0  0  0  0  0  0
   14.5938  -10.9080   -2.1699 H   0  0  0  0  0  0  0  0  0  0  0  0
   10.8077  -12.7229   -1.1271 H   0  0  0  0  0  0  0  0  0  0  0  0
    6.8134  -12.7916   -3.5819 H   0  0  0  0  0  0  0  0  0  0  0  0
    4.3891  -12.1958   -5.9358 H   0  0  0  0  0  0  0  0  0  0  0  0
    2.0544  -11.4733   -5.1753 H   0  0  0  0  0  0  0  0  0  0  0  0
    1.3701  -12.9728   -0.1197 H   0  0  0  0  0  0  0  0  0  0  0  0
   -0.7924  -12.7995    1.0959 H   0  0  0  0  0  0  0  0  0  0  0  0
  1  2  1  0
  2  3  1  0
  2  4  1  0
  4  5  1  0
  5  6  2  0
  6  7  1  0
  7  8  2  0
  8  9  1  0
  9 10  1  0
 10 11  2  0
 11 12  1  0
 12 13  1  0
 13 14  1  0
 14 15  2  0
 15 16  1  0
 16 17  2  0
 17 18  1  0
 18 19  1  0
 19 20  1  0
 20 21  2  0
 20 22  1  0
 22 23  2  0
 23 24  1  0
 24 25  2  0
 25 26  1  0
 26 27  1  0
 27 28  1  0
 27 29  1  0
 27 30  1  0
 26 31  2  0
 18 32  2  0
 13 33  2  0
 33 34  1  0
 34 35  2  0
 35 36  1  0
  8 37  1  0
 37 38  2  0
 38  5  1  0
 36  9  2  0
 36 12  1  0
 32 14  1  0
 31 22  1  0
  1 39  1  0
  1 40  1  0
  1 41  1  0
  2 42  1  0
  3 43  1  0
  3 44  1  0
  3 45  1  0
  4 46  1  0
  4 47  1  0
  6 48  1  0
  7 49  1  0
 10 50  1  0
 15 51  1  0
 16 52  1  0
 17 53  1  0
 19 54  1  0
 23 55  1  0
 24 56  1  0
 25 57  1  0
 31 58  1  0
 32 59  1  0
 33 60  1  0
 34 61  1  0
 37 62  1  0
 38 63  1  0
M  CHG  1   2   1
M  END
>  <meeko>  (3) 
{"is_sidechain": [false], "free_energy": -8.929, "intermolecular_energy": -12.145, "internal_energy": -1.156}

$$$$
LIB_AIWJVLQNYNCDSL__M_PUB_ALL__e8__s20260927
     RDKit          3D

 63 67  0  0  0  0  0  0  0  0999 V2000
    9.8040  -12.2580  -11.2220 C   0  0  0  0  0  0  0  0  0  0  0  0
    8.5360  -11.6360  -10.7040 N   0  0  0  0  0  0  0  0  0  0  0  0
    8.1900  -10.3810  -11.4500 C   0  0  0  0  0  0  0  0  0  0  0  0
    7.3730  -12.6040  -10.6690 C   0  0  0  0  0  0  0  0  0  0  0  0
    6.8890  -12.8880   -9.2740 C   0  0  0  0  0  0  0  0  0  0  0  0
    6.0640  -11.9740   -8.6040 C   0  0  0  0  0  0  0  0  0  0  0  0
    5.6630  -12.2130   -7.2850 C   0  0  0  0  0  0  0  0  0  0  0  0
    6.0820  -13.3660   -6.6090 C   0  0  0  0  0  0  0  0  0  0  0  0
    5.6720  -13.5940   -5.2350 C   0  0  0  0  0  0  0  0  0  0  0  0
    4.6610  -14.4280   -4.7190 C   0  0  0  0  0  0  0  0  0  0  0  0
    4.5490  -14.3630   -3.3950 N   0  0  0  0  0  0  0  0  0  0  0  0
    5.4930  -13.4600   -3.0090 N   0  0  0  0  0  0  0  0  0  0  0  0
    5.7870  -13.0060   -1.7080 C   0  0  0  0  0  0  0  0  0  0  0  0
    5.0640  -13.4960   -0.5150 C   0  0  0  0  0  0  0  0  0  0  0  0
    5.6460  -14.4410    0.3370 C   0  0  0  0  0  0  0  0  0  0  0  0
    4.9610  -14.8900    1.4660 C   0  0  0  0  0  0  0  0  0  0  0  0
    3.6880  -14.3950    1.7550 C   0  0  0  0  0  0  0  0  0  0  0  0
    3.0860  -13.4480    0.9200 C   0  0  0  0  0  0  0  0  0  0  0  0
    1.7990  -12.9930    1.2790 N   0  0  0  0  0  0  0  0  0  0  0  0
    0.5850  -13.5410    0.9080 C   0  0  0  0  0  0  0  0  0  0  0  0
    0.4070  -14.4620    0.1200 O   0  0  0  0  0  0  0  0  0  0  0  0
   -0.6130  -12.8860    1.5070 C   0  0  0  0  0  0  0  0  0  0  0  0
   -1.7490  -13.6180    1.8750 C   0  0  0  0  0  0  0  0  0  0  0  0
   -2.8490  -12.9640    2.4310 C   0  0  0  0  0  0  0  0  0  0  0  0
   -2.8260  -11.5800    2.6110 C   0  0  0  0  0  0  0  0  0  0  0  0
   -1.7070  -10.8270    2.2230 C   0  0  0  0  0  0  0  0  0  0  0  0
   -1.6720   -9.3310    2.4210 C   0  0  0  0  0  0  0  0  0  0  0  0
   -2.6340   -8.6780    1.7140 F   0  0  0  0  0  0  0  0  0  0  0  0
   -1.8450   -8.9560    3.7190 F   0  0  0  0  0  0  0  0  0  0  0  0
   -0.4850   -8.7910    2.0290 F   0  0  0  0  0  0  0  0  0  0  0  0
   -0.6000  -11.4930    1.6710 C   0  0  0  0  0  0  0  0  0  0  0  0
    3.7760  -13.0130   -0.2150 C   0  0  0  0  0  0  0  0  0  0  0  0
    6.7690  -12.0980   -1.5420 C   0  0  0  0  0  0  0  0  0  0  0  0
    7.4530  -11.6420   -2.7750 C   0  0  0  0  0  0  0  0  0  0  0  0
    7.2050  -12.0380   -3.9860 N   0  0  0  0  0  0  0  0  0  0  0  0
    6.2070  -12.9690   -4.1210 C   0  0  0  0  0  0  0  0  0  0  0  0
    6.8890  -14.2860   -7.2870 C   0  0  0  0  0  0  0  0  0  0  0  0
    7.2890  -14.0520   -8.6050 C   0  0  0  0  0  0  0  0  0  0  0  0
   10.4337  -12.5669  -10.3746 H   0  0  0  0  0  0  0  0  0  0  0  0
    9.5572  -13.1373  -11.8351 H   0  0  0  0  0  0  0  0  0  0  0  0
   10.3483  -11.5246  -11.8351 H   0  0  0  0  0  0  0  0  0  0  0  0
    8.7210  -11.3720   -9.7290 H   0  0  0  0  0  0  0  0  0  0  0  0
    7.9684   -9.5772  -10.7325 H   0  0  0  0  0  0  0  0  0  0  0  0
    9.0398  -10.0841  -12.0822 H   0  0  0  0  0  0  0  0  0  0  0  0
    7.3081  -10.5616  -12.0822 H   0  0  0  0  0  0  0  0  0  0  0  0
    6.5420  -12.1751  -11.2482 H   0  0  0  0  0  0  0  0  0  0  0  0
    7.7226  -13.5552  -11.0968 H   0  0  0  0  0  0  0  0  0  0  0  0
    5.7292  -11.0616   -9.1193 H   0  0  0  0  0  0  0  0  0  0  0  0
    5.0123  -11.4883   -6.7739 H   0  0  0  0  0  0  0  0  0  0  0  0
    4.0268  -15.0696   -5.3485 H   0  0  0  0  0  0  0  0  0  0  0  0
    6.6499  -14.8322    0.1151 H   0  0  0  0  0  0  0  0  0  0  0  0
    5.4244  -15.6350    2.1295 H   0  0  0  0  0  0  0  0  0  0  0  0
    3.1536  -14.7529    2.6474 H   0  0  0  0  0  0  0  0  0  0  0  0
    1.7740  -12.1420    1.8270 H   0  0  0  0  0  0  0  0  0  0  0  0
   -1.7740  -14.7076    1.7258 H   0  0  0  0  0  0  0  0  0  0  0  0
   -3.7371  -13.5409    2.7284 H   0  0  0  0  0  0  0  0  0  0  0  0
   -3.6932  -11.0747    3.0612 H   0  0  0  0  0  0  0  0  0  0  0  0
    0.2853  -10.9166    1.3645 H   0  0  0  0  0  0  0  0  0  0  0  0
    3.3042  -12.2801   -0.8860 H   0  0  0  0  0  0  0  0  0  0  0  0
    7.0469  -11.7172   -0.5481 H   0  0  0  0  0  0  0  0  0  0  0  0
    8.2499  -10.8938   -2.6518 H   0  0  0  0  0  0  0  0  0  0  0  0
    7.2125  -15.2049   -6.7761 H   0  0  0  0  0  0  0  0  0  0  0  0
    7.9231  -14.7876   -9.1215 H   0  0  0  0  0  0  0  0  0  0  0  0
  1  2  1  0
  2  3  1  0
  2  4  1  0
  4  5  1  0
  5  6  2  0
  6  7  1  0
  7  8  2  0
  8  9  1  0
  9 10  1  0
 10 11  2  0
 11 12  1  0
 12 13  1  0
 13 14  1  0
 14 15  2  0
 15 16  1  0
 16 17  2  0
 17 18  1  0
 18 19  1  0
 19 20  1  0
 20 21  2  0
 20 22  1  0
 22 23  2  0
 23 24  1  0
 24 25  2  0
 25 26  1  0
 26 27  1  0
 27 28  1  0
 27 29  1  0
 27 30  1  0
 26 31  2  0
 18 32  2  0
 13 33  2  0
 33 34  1  0
 34 35  2  0
 35 36  1  0
  8 37  1  0
 37 38  2  0
 38  5  1  0
 36  9  2  0
 36 12  1  0
 32 14  1  0
 31 22  1  0
  1 39  1  0
  1 40  1  0
  1 41  1  0
  2 42  1  0
  3 43  1  0
  3 44  1  0
  3 45  1  0
  4 46  1  0
  4 47  1  0
  6 48  1  0
  7 49  1  0
 10 50  1  0
 15 51  1  0
 16 52  1  0
 17 53  1  0
 19 54  1  0
 23 55  1  0
 24 56  1  0
 25 57  1  0
 31 58  1  0
 32 59  1  0
 33 60  1  0
 34 61  1  0
 37 62  1  0
 38 63  1  0
M  CHG  1   2   1
M  END
>  <meeko>  (4) 
{"is_sidechain": [false], "free_energy": -8.925, "intermolecular_energy": -12.033, "internal_energy": -1.262}

$$$$
LIB_AIWJVLQNYNCDSL__M_PUB_ALL__e8__s20260927
     RDKit          3D

 63 67  0  0  0  0  0  0  0  0999 V2000
   18.2080  -16.9470  -11.0140 C   0  0  0  0  0  0  0  0  0  0  0  0
   16.8440  -16.3140  -11.0590 N   0  0  0  0  0  0  0  0  0  0  0  0
   16.5140  -15.8070  -12.4320 C   0  0  0  0  0  0  0  0  0  0  0  0
   15.7540  -17.2150  -10.5200 C   0  0  0  0  0  0  0  0  0  0  0  0
   15.1130  -16.6770   -9.2700 C   0  0  0  0  0  0  0  0  0  0  0  0
   13.8220  -17.0790   -8.9010 C   0  0  0  0  0  0  0  0  0  0  0  0
   13.2050  -16.5340   -7.7700 C   0  0  0  0  0  0  0  0  0  0  0  0
   13.8630  -15.5730   -6.9900 C   0  0  0  0  0  0  0  0  0  0  0  0
   13.2040  -15.0030   -5.8290 C   0  0  0  0  0  0  0  0  0  0  0  0
   12.5470  -13.7670   -5.6780 C   0  0  0  0  0  0  0  0  0  0  0  0
   12.0800  -13.5650   -4.4490 N   0  0  0  0  0  0  0  0  0  0  0  0
   12.4390  -14.6790   -3.7520 N   0  0  0  0  0  0  0  0  0  0  0  0
   12.2060  -14.9740   -2.3940 C   0  0  0  0  0  0  0  0  0  0  0  0
   11.4830  -14.0480   -1.4950 C   0  0  0  0  0  0  0  0  0  0  0  0
   12.1620  -13.3560   -0.4840 C   0  0  0  0  0  0  0  0  0  0  0  0
   11.4750  -12.4770    0.3520 C   0  0  0  0  0  0  0  0  0  0  0  0
   10.1040  -12.2770    0.1830 C   0  0  0  0  0  0  0  0  0  0  0  0
    9.4040  -12.9530   -0.8220 C   0  0  0  0  0  0  0  0  0  0  0  0
    8.0210  -12.6980   -0.9330 N   0  0  0  0  0  0  0  0  0  0  0  0
    7.3820  -11.9610   -1.9140 C   0  0  0  0  0  0  0  0  0  0  0  0
    7.9150  -11.3160   -2.8090 O   0  0  0  0  0  0  0  0  0  0  0  0
    5.8950  -11.9280   -1.8120 C   0  0  0  0  0  0  0  0  0  0  0  0
    5.2240  -12.3630   -0.6620 C   0  0  0  0  0  0  0  0  0  0  0  0
    3.8300  -12.3170   -0.6100 C   0  0  0  0  0  0  0  0  0  0  0  0
    3.1020  -11.8500   -1.7060 C   0  0  0  0  0  0  0  0  0  0  0  0
    3.7570  -11.4360   -2.8750 C   0  0  0  0  0  0  0  0  0  0  0  0
    2.9760  -10.9220   -4.0610 C   0  0  0  0  0  0  0  0  0  0  0  0
    2.4060   -9.7070   -3.8360 F   0  0  0  0  0  0  0  0  0  0  0  0
    3.7360  -10.7750   -5.1820 F   0  0  0  0  0  0  0  0  0  0  0  0
    1.9580  -11.7580   -4.4040 F   0  0  0  0  0  0  0  0  0  0  0  0
    5.1600  -11.4770   -2.9170 C   0  0  0  0  0  0  0  0  0  0  0  0
   10.0990  -13.8420   -1.6470 C   0  0  0  0  0  0  0  0  0  0  0  0
   12.6490  -16.1440   -1.8960 C   0  0  0  0  0  0  0  0  0  0  0  0
   13.3700  -17.0270   -2.8440 C   0  0  0  0  0  0  0  0  0  0  0  0
   13.6030  -16.7850   -4.0970 N   0  0  0  0  0  0  0  0  0  0  0  0
   13.1310  -15.5890   -4.5760 C   0  0  0  0  0  0  0  0  0  0  0  0
   15.1590  -15.1890   -7.3500 C   0  0  0  0  0  0  0  0  0  0  0  0
   15.7800  -15.7340   -8.4780 C   0  0  0  0  0  0  0  0  0  0  0  0
   18.5123  -17.0882   -9.9664 H   0  0  0  0  0  0  0  0  0  0  0  0
   18.1764  -17.9225  -11.5213 H   0  0  0  0  0  0  0  0  0  0  0  0
   18.9326  -16.2931  -11.5213 H   0  0  0  0  0  0  0  0  0  0  0  0
   16.8820  -15.5010  -10.4330 H   0  0  0  0  0  0  0  0  0  0  0  0
   15.9156  -14.8877  -12.3494 H   0  0  0  0  0  0  0  0  0  0  0  0
   17.4450  -15.5909  -12.9766 H   0  0  0  0  0  0  0  0  0  0  0  0
   15.9395  -16.5707  -12.9766 H   0  0  0  0  0  0  0  0  0  0  0  0
   14.9782  -17.3272  -11.2917 H   0  0  0  0  0  0  0  0  0  0  0  0
   16.2194  -18.1781  -10.2634 H   0  0  0  0  0  0  0  0  0  0  0  0
   13.2900  -17.8286   -9.5052 H   0  0  0  0  0  0  0  0  0  0  0  0
   12.1934  -16.8629   -7.4899 H   0  0  0  0  0  0  0  0  0  0  0  0
   12.4313  -13.0402   -6.4955 H   0  0  0  0  0  0  0  0  0  0  0  0
   13.2432  -13.5070   -0.3490 H   0  0  0  0  0  0  0  0  0  0  0  0
   12.0144  -11.9401    1.1462 H   0  0  0  0  0  0  0  0  0  0  0  0
    9.5690  -11.5814    0.8462 H   0  0  0  0  0  0  0  0  0  0  0  0
    7.4490  -13.0560   -0.1780 H   0  0  0  0  0  0  0  0  0  0  0  0
    5.7950  -12.7404    0.1991 H   0  0  0  0  0  0  0  0  0  0  0  0
    3.3036  -12.6495    0.2968 H   0  0  0  0  0  0  0  0  0  0  0  0
    2.0042  -11.8064   -1.6521 H   0  0  0  0  0  0  0  0  0  0  0  0
    5.6874  -11.1520   -3.8260 H   0  0  0  0  0  0  0  0  0  0  0  0
    9.5542  -14.3907   -2.4294 H   0  0  0  0  0  0  0  0  0  0  0  0
   12.4854  -16.4284   -0.8461 H   0  0  0  0  0  0  0  0  0  0  0  0
   13.7443  -17.9815   -2.4455 H   0  0  0  0  0  0  0  0  0  0  0  0
   15.6962  -14.4493   -6.7382 H   0  0  0  0  0  0  0  0  0  0  0  0
   16.7997  -15.4198   -8.7453 H   0  0  0  0  0  0  0  0  0  0  0  0
  1  2  1  0
  2  3  1  0
  2  4  1  0
  4  5  1  0
  5  6  2  0
  6  7  1  0
  7  8  2  0
  8  9  1  0
  9 10  1  0
 10 11  2  0
 11 12  1  0
 12 13  1  0
 13 14  1  0
 14 15  2  0
 15 16  1  0
 16 17  2  0
 17 18  1  0
 18 19  1  0
 19 20  1  0
 20 21  2  0
 20 22  1  0
 22 23  2  0
 23 24  1  0
 24 25  2  0
 25 26  1  0
 26 27  1  0
 27 28  1  0
 27 29  1  0
 27 30  1  0
 26 31  2  0
 18 32  2  0
 13 33  2  0
 33 34  1  0
 34 35  2  0
 35 36  1  0
  8 37  1  0
 37 38  2  0
 38  5  1  0
 36  9  2  0
 36 12  1  0
 32 14  1  0
 31 22  1  0
  1 39  1  0
  1 40  1  0
  1 41  1  0
  2 42  1  0
  3 43  1  0
  3 44  1  0
  3 45  1  0
  4 46  1  0
  4 47  1  0
  6 48  1  0
  7 49  1  0
 10 50  1  0
 15 51  1  0
 16 52  1  0
 17 53  1  0
 19 54  1  0
 23 55  1  0
 24 56  1  0
 25 57  1  0
 31 58  1  0
 32 59  1  0
 33 60  1  0
 34 61  1  0
 37 62  1  0
 38 63  1  0
M  CHG  1   2   1
M  END
>  <meeko>  (5) 
{"is_sidechain": [false], "free_energy": -8.874, "intermolecular_energy": -12.026, "internal_energy": -1.198}

$$$$
LIB_AIWJVLQNYNCDSL__M_PUB_ALL__e8__s20260927
     RDKit          3D

 63 67  0  0  0  0  0  0  0  0999 V2000
   15.7400  -17.8650  -10.9800 C   0  0  0  0  0  0  0  0  0  0  0  0
   16.1630  -16.7120  -10.1120 N   0  0  0  0  0  0  0  0  0  0  0  0
   17.6140  -16.3790  -10.3010 C   0  0  0  0  0  0  0  0  0  0  0  0
   15.2840  -15.4910  -10.2790 C   0  0  0  0  0  0  0  0  0  0  0  0
   14.6070  -15.0760   -9.0020 C   0  0  0  0  0  0  0  0  0  0  0  0
   15.1000  -15.5040   -7.7610 C   0  0  0  0  0  0  0  0  0  0  0  0
   14.4350  -15.1650   -6.5780 C   0  0  0  0  0  0  0  0  0  0  0  0
   13.2620  -14.4000   -6.6110 C   0  0  0  0  0  0  0  0  0  0  0  0
   12.5730  -14.0700   -5.3770 C   0  0  0  0  0  0  0  0  0  0  0  0
   11.3150  -14.4900   -4.9040 C   0  0  0  0  0  0  0  0  0  0  0  0
   10.9890  -13.9590   -3.7280 N   0  0  0  0  0  0  0  0  0  0  0  0
   12.0410  -13.1550   -3.4060 N   0  0  0  0  0  0  0  0  0  0  0  0
   12.2030  -12.3410   -2.2670 C   0  0  0  0  0  0  0  0  0  0  0  0
   11.1820  -12.2610   -1.2000 C   0  0  0  0  0  0  0  0  0  0  0  0
   11.5550  -12.0480    0.1330 C   0  0  0  0  0  0  0  0  0  0  0  0
   10.5860  -11.9640    1.1320 C   0  0  0  0  0  0  0  0  0  0  0  0
    9.2340  -12.0870    0.8080 C   0  0  0  0  0  0  0  0  0  0  0  0
    8.8360  -12.2970   -0.5170 C   0  0  0  0  0  0  0  0  0  0  0  0
    7.4520  -12.4090   -0.7670 N   0  0  0  0  0  0  0  0  0  0  0  0
    6.5900  -11.4050   -1.1720 C   0  0  0  0  0  0  0  0  0  0  0  0
    6.8570  -10.2150   -1.2910 O   0  0  0  0  0  0  0  0  0  0  0  0
    5.1890  -11.8420   -1.4320 C   0  0  0  0  0  0  0  0  0  0  0  0
    4.3560  -12.3020   -0.4050 C   0  0  0  0  0  0  0  0  0  0  0  0
    3.0500  -12.7040   -0.6940 C   0  0  0  0  0  0  0  0  0  0  0  0
    2.5770  -12.6590   -2.0070 C   0  0  0  0  0  0  0  0  0  0  0  0
    3.4070  -12.2260   -3.0520 C   0  0  0  0  0  0  0  0  0  0  0  0
    2.8990  -12.1680   -4.4720 C   0  0  0  0  0  0  0  0  0  0  0  0
    1.6600  -12.7140   -4.6170 F   0  0  0  0  0  0  0  0  0  0  0  0
    2.8060  -10.8990   -4.9580 F   0  0  0  0  0  0  0  0  0  0  0  0
    3.7100  -12.8420   -5.3330 F   0  0  0  0  0  0  0  0  0  0  0  0
    4.7160  -11.8170   -2.7520 C   0  0  0  0  0  0  0  0  0  0  0  0
    9.8150  -12.3920   -1.5090 C   0  0  0  0  0  0  0  0  0  0  0  0
   13.3300  -11.6150   -2.1400 C   0  0  0  0  0  0  0  0  0  0  0  0
   14.3120  -11.7330   -3.2440 C   0  0  0  0  0  0  0  0  0  0  0  0
   14.1930  -12.4690   -4.3060 N   0  0  0  0  0  0  0  0  0  0  0  0
   13.0380  -13.2040   -4.4010 C   0  0  0  0  0  0  0  0  0  0  0  0
   12.7840  -13.9590   -7.8490 C   0  0  0  0  0  0  0  0  0  0  0  0
   13.4470  -14.2920   -9.0340 C   0  0  0  0  0  0  0  0  0  0  0  0
   15.4307  -18.7081  -10.3447 H   0  0  0  0  0  0  0  0  0  0  0  0
   14.8968  -17.5558  -11.6151 H   0  0  0  0  0  0  0  0  0  0  0  0
   16.5831  -18.1745  -11.6151 H   0  0  0  0  0  0  0  0  0  0  0  0
   16.0440  -17.0220   -9.1400 H   0  0  0  0  0  0  0  0  0  0  0  0
   18.0958  -16.2684   -9.3183 H   0  0  0  0  0  0  0  0  0  0  0  0
   18.1058  -17.1876  -10.8616 H   0  0  0  0  0  0  0  0  0  0  0  0
   17.7040  -15.4369  -10.8616 H   0  0  0  0  0  0  0  0  0  0  0  0
   15.9069  -14.6563  -10.6329 H   0  0  0  0  0  0  0  0  0  0  0  0
   14.4953  -15.7493  -11.0010 H   0  0  0  0  0  0  0  0  0  0  0  0
   16.0165  -16.1108   -7.7175 H   0  0  0  0  0  0  0  0  0  0  0  0
   14.8374  -15.5027   -5.6116 H   0  0  0  0  0  0  0  0  0  0  0  0
   10.6656  -15.1882   -5.4525 H   0  0  0  0  0  0  0  0  0  0  0  0
   12.6189  -11.9464    0.3934 H   0  0  0  0  0  0  0  0  0  0  0  0
   10.8875  -11.8005    2.1772 H   0  0  0  0  0  0  0  0  0  0  0  0
    8.4748  -12.0183    1.6010 H   0  0  0  0  0  0  0  0  0  0  0  0
    7.0460  -13.3180   -0.5780 H   0  0  0  0  0  0  0  0  0  0  0  0
    4.7298  -12.3468    0.6286 H   0  0  0  0  0  0  0  0  0  0  0  0
    2.3927  -13.0568    0.1144 H   0  0  0  0  0  0  0  0  0  0  0  0
    1.5433  -12.9661   -2.2242 H   0  0  0  0  0  0  0  0  0  0  0  0
    5.3776  -11.4733   -3.5608 H   0  0  0  0  0  0  0  0  0  0  0  0
    9.5120  -12.5725   -2.5509 H   0  0  0  0  0  0  0  0  0  0  0  0
   13.5115  -10.9711   -1.2668 H   0  0  0  0  0  0  0  0  0  0  0  0
   15.2327  -11.1378   -3.1541 H   0  0  0  0  0  0  0  0  0  0  0  0
   11.8743  -13.3420   -7.8910 H   0  0  0  0  0  0  0  0  0  0  0  0
   13.0548  -13.9358   -9.9980 H   0  0  0  0  0  0  0  0  0  0  0  0
  1  2  1  0
  2  3  1  0
  2  4  1  0
  4  5  1  0
  5  6  2  0
  6  7  1  0
  7  8  2  0
  8  9  1  0
  9 10  1  0
 10 11  2  0
 11 12  1  0
 12 13  1  0
 13 14  1  0
 14 15  2  0
 15 16  1  0
 16 17  2  0
 17 18  1  0
 18 19  1  0
 19 20  1  0
 20 21  2  0
 20 22  1  0
 22 23  2  0
 23 24  1  0
 24 25  2  0
 25 26  1  0
 26 27  1  0
 27 28  1  0
 27 29  1  0
 27 30  1  0
 26 31  2  0
 18 32  2  0
 13 33  2  0
 33 34  1  0
 34 35  2  0
 35 36  1  0
  8 37  1  0
 37 38  2  0
 38  5  1  0
 36  9  2  0
 36 12  1  0
 32 14  1  0
 31 22  1  0
  1 39  1  0
  1 40  1  0
  1 41  1  0
  2 42  1  0
  3 43  1  0
  3 44  1  0
  3 45  1  0
  4 46  1  0
  4 47  1  0
  6 48  1  0
  7 49  1  0
 10 50  1  0
 15 51  1  0
 16 52  1  0
 17 53  1  0
 19 54  1  0
 23 55  1  0
 24 56  1  0
 25 57  1  0
 31 58  1  0
 32 59  1  0
 33 60  1  0
 34 61  1  0
 37 62  1  0
 38 63  1  0
M  CHG  1   2   1
M  END
>  <meeko>  (6) 
{"is_sidechain": [false], "free_energy": -8.867, "intermolecular_energy": -12.444, "internal_energy": -0.768}

$$$$
LIB_AIWJVLQNYNCDSL__M_PUB_ALL__e8__s20260927
     RDKit          3D

 63 67  0  0  0  0  0  0  0  0999 V2000
   -0.1340  -20.1870    6.2140 C   0  0  0  0  0  0  0  0  0  0  0  0
   -0.1380  -19.0390    5.2420 N   0  0  0  0  0  0  0  0  0  0  0  0
   -1.4970  -18.4140    5.1290 C   0  0  0  0  0  0  0  0  0  0  0  0
    0.9290  -18.0070    5.5400 C   0  0  0  0  0  0  0  0  0  0  0  0
    1.3740  -17.2550    4.3170 C   0  0  0  0  0  0  0  0  0  0  0  0
    1.2620  -15.8580    4.2580 C   0  0  0  0  0  0  0  0  0  0  0  0
    1.6230  -15.1660    3.0970 C   0  0  0  0  0  0  0  0  0  0  0  0
    2.0960  -15.8540    1.9720 C   0  0  0  0  0  0  0  0  0  0  0  0
    2.4510  -15.1240    0.7680 C   0  0  0  0  0  0  0  0  0  0  0  0
    3.5780  -14.3260    0.4930 C   0  0  0  0  0  0  0  0  0  0  0  0
    3.5570  -13.7840   -0.7210 N   0  0  0  0  0  0  0  0  0  0  0  0
    2.3890  -14.2140   -1.2750 N   0  0  0  0  0  0  0  0  0  0  0  0
    1.8630  -13.9170   -2.5480 C   0  0  0  0  0  0  0  0  0  0  0  0
    2.5710  -13.0500   -3.5140 C   0  0  0  0  0  0  0  0  0  0  0  0
    2.4810  -11.6550   -3.4230 C   0  0  0  0  0  0  0  0  0  0  0  0
    3.1600  -10.8440   -4.3320 C   0  0  0  0  0  0  0  0  0  0  0  0
    3.9380  -11.4180   -5.3370 C   0  0  0  0  0  0  0  0  0  0  0  0
    4.0460  -12.8090   -5.4470 C   0  0  0  0  0  0  0  0  0  0  0  0
    4.8540  -13.3160   -6.4880 N   0  0  0  0  0  0  0  0  0  0  0  0
    6.1050  -13.8940   -6.3700 C   0  0  0  0  0  0  0  0  0  0  0  0
    6.7790  -13.9810   -5.3510 O   0  0  0  0  0  0  0  0  0  0  0  0
    6.6850  -14.4090   -7.6440 C   0  0  0  0  0  0  0  0  0  0  0  0
    7.3720  -15.6280   -7.7020 C   0  0  0  0  0  0  0  0  0  0  0  0
    7.9010  -16.0710   -8.9160 C   0  0  0  0  0  0  0  0  0  0  0  0
    7.7570  -15.2970  -10.0690 C   0  0  0  0  0  0  0  0  0  0  0  0
    7.0950  -14.0610  -10.0220 C   0  0  0  0  0  0  0  0  0  0  0  0
    6.9300  -13.2220  -11.2660 C   0  0  0  0  0  0  0  0  0  0  0  0
    5.7430  -13.4360  -11.8980 F   0  0  0  0  0  0  0  0  0  0  0  0
    6.9860  -11.8830  -11.0230 F   0  0  0  0  0  0  0  0  0  0  0  0
    7.8980  -13.4780  -12.1880 F   0  0  0  0  0  0  0  0  0  0  0  0
    6.5590  -13.6250   -8.7990 C   0  0  0  0  0  0  0  0  0  0  0  0
    3.3530  -13.6140   -4.5390 C   0  0  0  0  0  0  0  0  0  0  0  0
    0.6780  -14.4490   -2.9030 C   0  0  0  0  0  0  0  0  0  0  0  0
    0.0150  -15.3050   -1.8910 C   0  0  0  0  0  0  0  0  0  0  0  0
    0.4700  -15.5960   -0.7110 N   0  0  0  0  0  0  0  0  0  0  0  0
    1.6840  -15.0470   -0.3820 C   0  0  0  0  0  0  0  0  0  0  0  0
    2.2250  -17.2450    2.0410 C   0  0  0  0  0  0  0  0  0  0  0  0
    1.8690  -17.9400    3.2000 C   0  0  0  0  0  0  0  0  0  0  0  0
   -0.1354  -19.7967    7.2424 H   0  0  0  0  0  0  0  0  0  0  0  0
   -1.0300  -20.8050    6.0552 H   0  0  0  0  0  0  0  0  0  0  0  0
    0.7663  -20.7988    6.0552 H   0  0  0  0  0  0  0  0  0  0  0  0
    0.0940  -19.4370    4.3240 H   0  0  0  0  0  0  0  0  0  0  0  0
   -1.9002  -18.2286    6.1355 H   0  0  0  0  0  0  0  0  0  0  0  0
   -1.4184  -17.4616    4.5843 H   0  0  0  0  0  0  0  0  0  0  0  0
   -2.1690  -19.0935    4.5843 H   0  0  0  0  0  0  0  0  0  0  0  0
    0.5270  -17.2868    6.2678 H   0  0  0  0  0  0  0  0  0  0  0  0
    1.8049  -18.5427    5.9347 H   0  0  0  0  0  0  0  0  0  0  0  0
    0.8877  -15.3027    5.1307 H   0  0  0  0  0  0  0  0  0  0  0  0
    1.5345  -14.0700    3.0671 H   0  0  0  0  0  0  0  0  0  0  0  0
    4.3953  -14.1667    1.2117 H   0  0  0  0  0  0  0  0  0  0  0  0
    1.8714  -11.1968   -2.6303 H   0  0  0  0  0  0  0  0  0  0  0  0
    3.0817   -9.7494   -4.2561 H   0  0  0  0  0  0  0  0  0  0  0  0
    4.4715  -10.7717   -6.0496 H   0  0  0  0  0  0  0  0  0  0  0  0
    4.4880  -13.1910   -7.4240 H   0  0  0  0  0  0  0  0  0  0  0  0
    7.4946  -16.2353   -6.7931 H   0  0  0  0  0  0  0  0  0  0  0  0
    8.4328  -17.0327   -8.9640 H   0  0  0  0  0  0  0  0  0  0  0  0
    8.1665  -15.6597  -11.0233 H   0  0  0  0  0  0  0  0  0  0  0  0
    6.0354  -12.6590   -8.7472 H   0  0  0  0  0  0  0  0  0  0  0  0
    3.4200  -14.7084   -4.6271 H   0  0  0  0  0  0  0  0  0  0  0  0
    0.2276  -14.2590   -3.8884 H   0  0  0  0  0  0  0  0  0  0  0  0
   -0.9586  -15.7361   -2.1673 H   0  0  0  0  0  0  0  0  0  0  0  0
    2.6113  -17.7986    1.1725 H   0  0  0  0  0  0  0  0  0  0  0  0
    1.9784  -19.0340    3.2353 H   0  0  0  0  0  0  0  0  0  0  0  0
  1  2  1  0
  2  3  1  0
  2  4  1  0
  4  5  1  0
  5  6  2  0
  6  7  1  0
  7  8  2  0
  8  9  1  0
  9 10  1  0
 10 11  2  0
 11 12  1  0
 12 13  1  0
 13 14  1  0
 14 15  2  0
 15 16  1  0
 16 17  2  0
 17 18  1  0
 18 19  1  0
 19 20  1  0
 20 21  2  0
 20 22  1  0
 22 23  2  0
 23 24  1  0
 24 25  2  0
 25 26  1  0
 26 27  1  0
 27 28  1  0
 27 29  1  0
 27 30  1  0
 26 31  2  0
 18 32  2  0
 13 33  2  0
 33 34  1  0
 34 35  2  0
 35 36  1  0
  8 37  1  0
 37 38  2  0
 38  5  1  0
 36  9  2  0
 36 12  1  0
 32 14  1  0
 31 22  1  0
  1 39  1  0
  1 40  1  0
  1 41  1  0
  2 42  1  0
  3 43  1  0
  3 44  1  0
  3 45  1  0
  4 46  1  0
  4 47  1  0
  6 48  1  0
  7 49  1  0
 10 50  1  0
 15 51  1  0
 16 52  1  0
 17 53  1  0
 19 54  1  0
 23 55  1  0
 24 56  1  0
 25 57  1  0
 31 58  1  0
 32 59  1  0
 33 60  1  0
 34 61  1  0
 37 62  1  0
 38 63  1  0
M  CHG  1   2   1
M  END
>  <meeko>  (7) 
{"is_sidechain": [false], "free_energy": -8.8, "intermolecular_energy": -11.821, "internal_energy": -1.297}

$$$$
LIB_AIWJVLQNYNCDSL__M_PUB_ALL__e8__s20260927
     RDKit          3D

 63 67  0  0  0  0  0  0  0  0999 V2000
    9.7400  -13.5630   -9.2050 C   0  0  0  0  0  0  0  0  0  0  0  0
    8.3220  -13.0620   -9.1660 N   0  0  0  0  0  0  0  0  0  0  0  0
    7.9820  -12.2700  -10.3950 C   0  0  0  0  0  0  0  0  0  0  0  0
    7.3120  -14.1600   -8.9120 C   0  0  0  0  0  0  0  0  0  0  0  0
    6.4190  -13.8750   -7.7360 C   0  0  0  0  0  0  0  0  0  0  0  0
    6.3540  -14.7680   -6.6570 C   0  0  0  0  0  0  0  0  0  0  0  0
    5.4800  -14.5300   -5.5910 C   0  0  0  0  0  0  0  0  0  0  0  0
    4.6510  -13.4010   -5.5850 C   0  0  0  0  0  0  0  0  0  0  0  0
    3.7360  -13.1750   -4.4800 C   0  0  0  0  0  0  0  0  0  0  0  0
    2.3280  -13.1620   -4.4600 C   0  0  0  0  0  0  0  0  0  0  0  0
    1.8210  -12.8920   -3.2600 N   0  0  0  0  0  0  0  0  0  0  0  0
    2.9050  -12.7070   -2.4570 N   0  0  0  0  0  0  0  0  0  0  0  0
    2.9320  -12.3780   -1.0870 C   0  0  0  0  0  0  0  0  0  0  0  0
    1.6990  -12.1900   -0.2930 C   0  0  0  0  0  0  0  0  0  0  0  0
    1.1320  -10.9190   -0.1420 C   0  0  0  0  0  0  0  0  0  0  0  0
   -0.0380  -10.7520    0.5990 C   0  0  0  0  0  0  0  0  0  0  0  0
   -0.6540  -11.8540    1.1930 C   0  0  0  0  0  0  0  0  0  0  0  0
   -0.1080  -13.1350    1.0540 C   0  0  0  0  0  0  0  0  0  0  0  0
   -0.7890  -14.2000    1.6810 N   0  0  0  0  0  0  0  0  0  0  0  0
   -2.0210  -14.7250    1.3360 C   0  0  0  0  0  0  0  0  0  0  0  0
   -2.7880  -14.2940    0.4820 O   0  0  0  0  0  0  0  0  0  0  0  0
   -2.4520  -15.9050    2.1370 C   0  0  0  0  0  0  0  0  0  0  0  0
   -1.9310  -17.1850    1.9070 C   0  0  0  0  0  0  0  0  0  0  0  0
   -2.3640  -18.2630    2.6810 C   0  0  0  0  0  0  0  0  0  0  0  0
   -3.3250  -18.0720    3.6750 C   0  0  0  0  0  0  0  0  0  0  0  0
   -3.8780  -16.8020    3.9010 C   0  0  0  0  0  0  0  0  0  0  0  0
   -4.9120  -16.5870    4.9800 C   0  0  0  0  0  0  0  0  0  0  0  0
   -5.5280  -15.3760    4.8910 F   0  0  0  0  0  0  0  0  0  0  0  0
   -5.9090  -17.5140    4.9610 F   0  0  0  0  0  0  0  0  0  0  0  0
   -4.3700  -16.6430    6.2270 F   0  0  0  0  0  0  0  0  0  0  0  0
   -3.4310  -15.7210    3.1240 C   0  0  0  0  0  0  0  0  0  0  0  0
    1.0700  -13.2900    0.3190 C   0  0  0  0  0  0  0  0  0  0  0  0
    4.1230  -12.2380   -0.4740 C   0  0  0  0  0  0  0  0  0  0  0  0
    5.3230  -12.4330   -1.3230 C   0  0  0  0  0  0  0  0  0  0  0  0
    5.3330  -12.7330   -2.5850 N   0  0  0  0  0  0  0  0  0  0  0  0
    4.1040  -12.8790   -3.1780 C   0  0  0  0  0  0  0  0  0  0  0  0
    4.7320  -12.5030   -6.6540 C   0  0  0  0  0  0  0  0  0  0  0  0
    5.6060  -12.7340   -7.7190 C   0  0  0  0  0  0  0  0  0  0  0  0
   10.1110  -13.6941   -8.1778 H   0  0  0  0  0  0  0  0  0  0  0  0
    9.7737  -14.5275   -9.7329 H   0  0  0  0  0  0  0  0  0  0  0  0
   10.3721  -12.8338   -9.7329 H   0  0  0  0  0  0  0  0  0  0  0  0
    8.2620  -12.4240   -8.3640 H   0  0  0  0  0  0  0  0  0  0  0  0
    7.5640  -11.2963  -10.0997 H   0  0  0  0  0  0  0  0  0  0  0  0
    8.8917  -12.1124  -10.9929 H   0  0  0  0  0  0  0  0  0  0  0  0
    7.2411  -12.8210  -10.9929 H   0  0  0  0  0  0  0  0  0  0  0  0
    6.6853  -14.2743   -9.8087 H   0  0  0  0  0  0  0  0  0  0  0  0
    7.8736  -15.0781   -8.6844 H   0  0  0  0  0  0  0  0  0  0  0  0
    6.9948  -15.6620   -6.6487 H   0  0  0  0  0  0  0  0  0  0  0  0
    5.4434  -15.2367   -4.7489 H   0  0  0  0  0  0  0  0  0  0  0  0
    1.7089  -13.3558   -5.3483 H   0  0  0  0  0  0  0  0  0  0  0  0
    1.6118  -10.0470   -0.6104 H   0  0  0  0  0  0  0  0  0  0  0  0
   -0.4758   -9.7496    0.7152 H   0  0  0  0  0  0  0  0  0  0  0  0
   -1.5767  -11.7147    1.7755 H   0  0  0  0  0  0  0  0  0  0  0  0
   -0.3390  -14.5820    2.5040 H   0  0  0  0  0  0  0  0  0  0  0  0
   -1.1813  -17.3404    1.1172 H   0  0  0  0  0  0  0  0  0  0  0  0
   -1.9467  -19.2658    2.5070 H   0  0  0  0  0  0  0  0  0  0  0  0
   -3.6522  -18.9253    4.2873 H   0  0  0  0  0  0  0  0  0  0  0  0
   -3.8533  -14.7192    3.2914 H   0  0  0  0  0  0  0  0  0  0  0  0
    1.5143  -14.2911    0.2168 H   0  0  0  0  0  0  0  0  0  0  0  0
    4.2011  -11.9930    0.5955 H   0  0  0  0  0  0  0  0  0  0  0  0
    6.3011  -12.3113   -0.8345 H   0  0  0  0  0  0  0  0  0  0  0  0
    4.0993  -11.6032   -6.6563 H   0  0  0  0  0  0  0  0  0  0  0  0
    5.6563  -12.0151   -8.5501 H   0  0  0  0  0  0  0  0  0  0  0  0
  1  2  1  0
  2  3  1  0
  2  4  1  0
  4  5  1  0
  5  6  2  0
  6  7  1  0
  7  8  2  0
  8  9  1  0
  9 10  1  0
 10 11  2  0
 11 12  1  0
 12 13  1  0
 13 14  1  0
 14 15  2  0
 15 16  1  0
 16 17  2  0
 17 18  1  0
 18 19  1  0
 19 20  1  0
 20 21  2  0
 20 22  1  0
 22 23  2  0
 23 24  1  0
 24 25  2  0
 25 26  1  0
 26 27  1  0
 27 28  1  0
 27 29  1  0
 27 30  1  0
 26 31  2  0
 18 32  2  0
 13 33  2  0
 33 34  1  0
 34 35  2  0
 35 36  1  0
  8 37  1  0
 37 38  2  0
 38  5  1  0
 36  9  2  0
 36 12  1  0
 32 14  1  0
 31 22  1  0
  1 39  1  0
  1 40  1  0
  1 41  1  0
  2 42  1  0
  3 43  1  0
  3 44  1  0
  3 45  1  0
  4 46  1  0
  4 47  1  0
  6 48  1  0
  7 49  1  0
 10 50  1  0
 15 51  1  0
 16 52  1  0
 17 53  1  0
 19 54  1  0
 23 55  1  0
 24 56  1  0
 25 57  1  0
 31 58  1  0
 32 59  1  0
 33 60  1  0
 34 61  1  0
 37 62  1  0
 38 63  1  0
M  CHG  1   2   1
M  END
>  <meeko>  (8) 
{"is_sidechain": [false], "free_energy": -8.581, "intermolecular_energy": -11.76, "internal_energy": -1.051}

$$$$
LIB_AIWJVLQNYNCDSL__M_PUB_ALL__e8__s20260927
     RDKit          3D

 63 67  0  0  0  0  0  0  0  0999 V2000
    9.0020  -12.8870  -10.1940 C   0  0  0  0  0  0  0  0  0  0  0  0
    7.5930  -13.3010   -9.8660 N   0  0  0  0  0  0  0  0  0  0  0  0
    6.8300  -13.6920  -11.0980 C   0  0  0  0  0  0  0  0  0  0  0  0
    7.5230  -14.3760   -8.8020 C   0  0  0  0  0  0  0  0  0  0  0  0
    6.6040  -14.0180   -7.6680 C   0  0  0  0  0  0  0  0  0  0  0  0
    6.4510  -14.8820   -6.5740 C   0  0  0  0  0  0  0  0  0  0  0  0
    5.5510  -14.5750   -5.5470 C   0  0  0  0  0  0  0  0  0  0  0  0
    4.7830  -13.4050   -5.5970 C   0  0  0  0  0  0  0  0  0  0  0  0
    3.8400  -13.1070   -4.5330 C   0  0  0  0  0  0  0  0  0  0  0  0
    2.4400  -12.9750   -4.5770 C   0  0  0  0  0  0  0  0  0  0  0  0
    1.9020  -12.6680   -3.3990 N   0  0  0  0  0  0  0  0  0  0  0  0
    2.9600  -12.5780   -2.5460 N   0  0  0  0  0  0  0  0  0  0  0  0
    2.9510  -12.2580   -1.1730 C   0  0  0  0  0  0  0  0  0  0  0  0
    1.7030  -11.9700   -0.4360 C   0  0  0  0  0  0  0  0  0  0  0  0
    1.0380  -10.7480   -0.6020 C   0  0  0  0  0  0  0  0  0  0  0  0
   -0.1440  -10.4880    0.0900 C   0  0  0  0  0  0  0  0  0  0  0  0
   -0.6770  -11.4480    0.9520 C   0  0  0  0  0  0  0  0  0  0  0  0
   -0.0340  -12.6770    1.1330 C   0  0  0  0  0  0  0  0  0  0  0  0
   -0.6330  -13.5980    2.0180 N   0  0  0  0  0  0  0  0  0  0  0  0
   -1.5440  -14.5900    1.7030 C   0  0  0  0  0  0  0  0  0  0  0  0
   -2.0680  -14.7840    0.6120 O   0  0  0  0  0  0  0  0  0  0  0  0
   -1.9460  -15.4640    2.8430 C   0  0  0  0  0  0  0  0  0  0  0  0
   -2.9380  -16.4430    2.7080 C   0  0  0  0  0  0  0  0  0  0  0  0
   -3.2850  -17.2380    3.8020 C   0  0  0  0  0  0  0  0  0  0  0  0
   -2.6530  -17.0520    5.0330 C   0  0  0  0  0  0  0  0  0  0  0  0
   -1.6760  -16.0570    5.1920 C   0  0  0  0  0  0  0  0  0  0  0  0
   -0.9840  -15.8550    6.5190 C   0  0  0  0  0  0  0  0  0  0  0  0
   -0.2390  -16.9290    6.8990 F   0  0  0  0  0  0  0  0  0  0  0  0
   -0.1350  -14.7910    6.5250 F   0  0  0  0  0  0  0  0  0  0  0  0
   -1.8690  -15.6350    7.5290 F   0  0  0  0  0  0  0  0  0  0  0  0
   -1.3280  -15.2660    4.0850 C   0  0  0  0  0  0  0  0  0  0  0  0
    1.1580  -12.9240    0.4440 C   0  0  0  0  0  0  0  0  0  0  0  0
    4.1200  -12.2210   -0.5060 C   0  0  0  0  0  0  0  0  0  0  0  0
    5.3370  -12.5140   -1.3010 C   0  0  0  0  0  0  0  0  0  0  0  0
    5.3790  -12.8090   -2.5640 N   0  0  0  0  0  0  0  0  0  0  0  0
    4.1710  -12.8480   -3.2130 C   0  0  0  0  0  0  0  0  0  0  0  0
    4.9520  -12.5360   -6.6790 C   0  0  0  0  0  0  0  0  0  0  0  0
    5.8520  -12.8370   -7.7050 C   0  0  0  0  0  0  0  0  0  0  0  0
    9.5622  -12.7224   -9.2618 H   0  0  0  0  0  0  0  0  0  0  0  0
    9.4901  -13.6797  -10.7800 H   0  0  0  0  0  0  0  0  0  0  0  0
    8.9837  -11.9563  -10.7800 H   0  0  0  0  0  0  0  0  0  0  0  0
    7.1330  -12.4730   -9.4710 H   0  0  0  0  0  0  0  0  0  0  0  0
    5.8860  -14.1757  -10.8066 H   0  0  0  0  0  0  0  0  0  0  0  0
    6.6128  -12.7941  -11.6952 H   0  0  0  0  0  0  0  0  0  0  0  0
    7.4320  -14.3927  -11.6952 H   0  0  0  0  0  0  0  0  0  0  0  0
    7.1623  -15.3059   -9.2659 H   0  0  0  0  0  0  0  0  0  0  0  0
    8.5336  -14.4923   -8.3835 H   0  0  0  0  0  0  0  0  0  0  0  0
    7.0427  -15.8079   -6.5227 H   0  0  0  0  0  0  0  0  0  0  0  0
    5.4459  -15.2594   -4.6923 H   0  0  0  0  0  0  0  0  0  0  0  0
    1.8485  -13.1120   -5.4943 H   0  0  0  0  0  0  0  0  0  0  0  0
    1.4511   -9.9890   -1.2826 H   0  0  0  0  0  0  0  0  0  0  0  0
   -0.6576   -9.5245   -0.0435 H   0  0  0  0  0  0  0  0  0  0  0  0
   -1.6107  -11.2362    1.4936 H   0  0  0  0  0  0  0  0  0  0  0  0
   -0.4020  -13.4770    2.9970 H   0  0  0  0  0  0  0  0  0  0  0  0
   -3.4432  -16.5855    1.7413 H   0  0  0  0  0  0  0  0  0  0  0  0
   -4.0583  -18.0128    3.6938 H   0  0  0  0  0  0  0  0  0  0  0  0
   -2.9234  -17.6913    5.8863 H   0  0  0  0  0  0  0  0  0  0  0  0
   -0.5628  -14.4833    4.1939 H   0  0  0  0  0  0  0  0  0  0  0  0
    1.6791  -13.8813    0.5926 H   0  0  0  0  0  0  0  0  0  0  0  0
    4.1695  -11.9867    0.5676 H   0  0  0  0  0  0  0  0  0  0  0  0
    6.2985  -12.4777   -0.7678 H   0  0  0  0  0  0  0  0  0  0  0  0
    4.3695  -11.6039   -6.7234 H   0  0  0  0  0  0  0  0  0  0  0  0
    5.9707  -12.1408   -8.5483 H   0  0  0  0  0  0  0  0  0  0  0  0
  1  2  1  0
  2  3  1  0
  2  4  1  0
  4  5  1  0
  5  6  2  0
  6  7  1  0
  7  8  2  0
  8  9  1  0
  9 10  1  0
 10 11  2  0
 11 12  1  0
 12 13  1  0
 13 14  1  0
 14 15  2  0
 15 16  1  0
 16 17  2  0
 17 18  1  0
 18 19  1  0
 19 20  1  0
 20 21  2  0
 20 22  1  0
 22 23  2  0
 23 24  1  0
 24 25  2  0
 25 26  1  0
 26 27  1  0
 27 28  1  0
 27 29  1  0
 27 30  1  0
 26 31  2  0
 18 32  2  0
 13 33  2  0
 33 34  1  0
 34 35  2  0
 35 36  1  0
  8 37  1  0
 37 38  2  0
 38  5  1  0
 36  9  2  0
 36 12  1  0
 32 14  1  0
 31 22  1  0
  1 39  1  0
  1 40  1  0
  1 41  1  0
  2 42  1  0
  3 43  1  0
  3 44  1  0
  3 45  1  0
  4 46  1  0
  4 47  1  0
  6 48  1  0
  7 49  1  0
 10 50  1  0
 15 51  1  0
 16 52  1  0
 17 53  1  0
 19 54  1  0
 23 55  1  0
 24 56  1  0
 25 57  1  0
 31 58  1  0
 32 59  1  0
 33 60  1  0
 34 61  1  0
 37 62  1  0
 38 63  1  0
M  CHG  1   2   1
M  END
>  <meeko>  (9) 
{"is_sidechain": [false], "free_energy": -8.454, "intermolecular_energy": -11.454, "internal_energy": -1.178}

$$$$
