LIB_SRDCKXVGOFJLJK__M_PUB_ALL__e8__s20260927
     RDKit          3D

 74 78  0  0  0  0  0  0  0  0999 V2000
    1.6500  -13.8510   -4.7380 C   0  0  0  0  0  0  0  0  0  0  0  0
    2.3900  -13.1640   -3.6230 C   0  0  0  0  0  0  0  0  0  0  0  0
    1.6660  -12.6540   -2.5280 C   0  0  0  0  0  0  0  0  0  0  0  0
    2.3070  -11.9960   -1.4700 C   0  0  0  0  0  0  0  0  0  0  0  0
    1.5020  -11.5240   -0.4230 N   0  0  0  0  0  0  0  0  0  0  0  0
    0.7030  -10.4170   -0.3970 C   0  0  0  0  0  0  0  0  0  0  0  0
    0.5190   -9.5980   -1.2840 O   0  0  0  0  0  0  0  0  0  0  0  0
    0.1100  -10.3580    0.8270 O   0  0  0  0  0  0  0  0  0  0  0  0
   -0.9590  -11.2950    1.0180 C   0  0  0  0  0  0  0  0  0  0  0  0
   -2.2600  -10.5250    1.2740 C   0  0  0  0  0  0  0  0  0  0  0  0
   -3.0440  -10.3110   -0.0220 C   0  0  0  0  0  0  0  0  0  0  0  0
   -1.9630   -9.1850    1.9440 C   0  0  0  0  0  0  0  0  0  0  0  0
    3.6920  -11.8430   -1.5130 C   0  0  0  0  0  0  0  0  0  0  0  0
    4.4250  -12.3400   -2.5930 C   0  0  0  0  0  0  0  0  0  0  0  0
    3.7870  -13.0020   -3.6500 C   0  0  0  0  0  0  0  0  0  0  0  0
    4.6110  -13.4980   -4.7610 C   0  0  0  0  0  0  0  0  0  0  0  0
    4.9390  -12.6010   -5.9110 C   0  0  0  0  0  0  0  0  0  0  0  0
    5.6520  -12.8990   -6.9550 N   0  0  0  0  0  0  0  0  0  0  0  0
    6.1490  -14.1740   -6.9930 C   0  0  0  0  0  0  0  0  0  0  0  0
    6.9280  -14.8390   -7.9240 C   0  0  0  0  0  0  0  0  0  0  0  0
    7.4230  -14.2800   -9.1710 C   0  0  0  0  0  0  0  0  0  0  0  0
    6.5480  -13.7510  -10.1210 C   0  0  0  0  0  0  0  0  0  0  0  0
    7.0460  -13.2080  -11.3020 C   0  0  0  0  0  0  0  0  0  0  0  0
    8.4220  -13.1970  -11.5430 C   0  0  0  0  0  0  0  0  0  0  0  0
    9.3340  -13.7290  -10.6180 C   0  0  0  0  0  0  0  0  0  0  0  0
   10.7050  -13.7170  -10.8930 N   0  0  0  0  0  0  0  0  0  0  0  0
   11.4870  -14.8650  -10.3960 C   0  0  0  0  0  0  0  0  0  0  0  0
   12.8180  -15.0060  -11.1620 C   0  0  0  0  0  0  0  0  0  0  0  0
   13.5840  -13.6860  -11.1600 N   0  0  0  0  0  0  0  0  0  0  0  0
   14.9180  -13.8070  -11.8270 C   0  0  0  0  0  0  0  0  0  0  0  0
   12.7300  -12.5810  -11.7750 C   0  0  0  0  0  0  0  0  0  0  0  0
   11.4050  -12.4280  -11.0040 C   0  0  0  0  0  0  0  0  0  0  0  0
    8.8070  -14.2560   -9.4280 C   0  0  0  0  0  0  0  0  0  0  0  0
    7.0890  -16.1340   -7.3920 C   0  0  0  0  0  0  0  0  0  0  0  0
    6.4680  -16.3090   -6.2280 N   0  0  0  0  0  0  0  0  0  0  0  0
    5.8890  -15.0970   -5.9690 N   0  0  0  0  0  0  0  0  0  0  0  0
    5.1080  -14.7520   -4.8320 C   0  0  0  0  0  0  0  0  0  0  0  0
    4.9180  -15.7370   -3.8840 N   0  0  0  0  0  0  0  0  0  0  0  0
    0.9063  -14.5415   -4.3136 H   0  0  0  0  0  0  0  0  0  0  0  0
    1.1402  -13.0987   -5.3579 H   0  0  0  0  0  0  0  0  0  0  0  0
    2.3624  -14.4152   -5.3579 H   0  0  0  0  0  0  0  0  0  0  0  0
    0.5730  -12.7749   -2.5028 H   0  0  0  0  0  0  0  0  0  0  0  0
    1.4860  -12.0450    0.4430 H   0  0  0  0  0  0  0  0  0  0  0  0
   -1.0697  -11.9164    0.1171 H   0  0  0  0  0  0  0  0  0  0  0  0
   -0.7355  -11.9424    1.8788 H   0  0  0  0  0  0  0  0  0  0  0  0
   -2.8828  -11.1297    1.9496 H   0  0  0  0  0  0  0  0  0  0  0  0
   -4.0795  -10.0283    0.2183 H   0  0  0  0  0  0  0  0  0  0  0  0
   -2.5716   -9.5089   -0.6081 H   0  0  0  0  0  0  0  0  0  0  0  0
   -3.0446  -11.2418   -0.6081 H   0  0  0  0  0  0  0  0  0  0  0  0
   -1.9901   -9.3075    3.0368 H   0  0  0  0  0  0  0  0  0  0  0  0
   -0.9656   -8.8356    1.6389 H   0  0  0  0  0  0  0  0  0  0  0  0
   -2.7193   -8.4469    1.6389 H   0  0  0  0  0  0  0  0  0  0  0  0
    4.2108  -11.3276   -0.6912 H   0  0  0  0  0  0  0  0  0  0  0  0
    5.5171  -12.2100   -2.6139 H   0  0  0  0  0  0  0  0  0  0  0  0
    4.5332  -11.5795   -5.8685 H   0  0  0  0  0  0  0  0  0  0  0  0
    5.4637  -13.7632   -9.9363 H   0  0  0  0  0  0  0  0  0  0  0  0
    6.3548  -12.7868  -12.0469 H   0  0  0  0  0  0  0  0  0  0  0  0
    8.7997  -12.7612  -12.4797 H   0  0  0  0  0  0  0  0  0  0  0  0
   11.7018  -14.7172   -9.3274 H   0  0  0  0  0  0  0  0  0  0  0  0
   10.8976  -15.7810  -10.5498 H   0  0  0  0  0  0  0  0  0  0  0  0
   13.4321  -15.7806  -10.6794 H   0  0  0  0  0  0  0  0  0  0  0  0
   12.5990  -15.2862  -12.2029 H   0  0  0  0  0  0  0  0  0  0  0  0
   13.7460  -13.4320  -10.1760 H   0  0  0  0  0  0  0  0  0  0  0  0
   15.7053  -13.8784  -11.0621 H   0  0  0  0  0  0  0  0  0  0  0  0
   14.9336  -14.7102  -12.4546 H   0  0  0  0  0  0  0  0  0  0  0  0
   15.0958  -12.9213  -12.4546 H   0  0  0  0  0  0  0  0  0  0  0  0
   13.2836  -11.6313  -11.7347 H   0  0  0  0  0  0  0  0  0  0  0  0
   12.5048  -12.8458  -12.8186 H   0  0  0  0  0  0  0  0  0  0  0  0
   11.6187  -12.0471   -9.9944 H   0  0  0  0  0  0  0  0  0  0  0  0
   10.7601  -11.7264  -11.5534 H   0  0  0  0  0  0  0  0  0  0  0  0
    9.4966  -14.6625   -8.6735 H   0  0  0  0  0  0  0  0  0  0  0  0
    7.6712  -16.9232   -7.8902 H   0  0  0  0  0  0  0  0  0  0  0  0
    4.1970  -16.4400   -3.9940 H   0  0  0  0  0  0  0  0  0  0  0  0
    5.5260  -15.7320   -3.0680 H   0  0  0  0  0  0  0  0  0  0  0  0
  1  2  1  0
  2  3  2  0
  3  4  1  0
  4  5  1  0
  5  6  1  0
  6  7  2  0
  6  8  1  0
  8  9  1  0
  9 10  1  0
 10 11  1  0
 10 12  1  0
  4 13  2  0
 13 14  1  0
 14 15  2  0
 15 16  1  0
 16 17  1  0
 17 18  2  0
 18 19  1  0
 19 20  2  0
 20 21  1  0
 21 22  2  0
 22 23  1  0
 23 24  2  0
 24 25  1  0
 25 26  1  0
 26 27  1  0
 27 28  1  0
 28 29  1  0
 29 30  1  0
 29 31  1  0
 31 32  1  0
 25 33  2  0
 20 34  1  0
 34 35  2  0
 35 36  1  0
 36 37  1  0
 37 38  1  0
 15  2  1  0
 37 16  2  0
 36 19  1  0
 33 21  1  0
 32 26  1  0
  1 39  1  0
  1 40  1  0
  1 41  1  0
  3 42  1  0
  5 43  1  0
  9 44  1  0
  9 45  1  0
 10 46  1  0
 11 47  1  0
 11 48  1  0
 11 49  1  0
 12 50  1  0
 12 51  1  0
 12 52  1  0
 13 53  1  0
 14 54  1  0
 17 55  1  0
 22 56  1  0
 23 57  1  0
 24 58  1  0
 27 59  1  0
 27 60  1  0
 28 61  1  0
 28 62  1  0
 29 63  1  0
 30 64  1  0
 30 65  1  0
 30 66  1  0
 31 67  1  0
 31 68  1  0
 32 69  1  0
 32 70  1  0
 33 71  1  0
 34 72  1  0
 38 73  1  0
 38 74  1  0
M  CHG  1  29   1
M  END
>  <meeko>  (1) 
{"is_sidechain": [false], "free_energy": -8.425, "intermolecular_energy": -12.119, "internal_energy": -1.086}

$$$$
LIB_SRDCKXVGOFJLJK__M_PUB_ALL__e8__s20260927
     RDKit          3D

 74 78  0  0  0  0  0  0  0  0999 V2000
   -1.3570  -12.2510    2.8590 C   0  0  0  0  0  0  0  0  0  0  0  0
   -1.5730  -13.7370    2.7790 C   0  0  0  0  0  0  0  0  0  0  0  0
   -2.6020  -14.3260    3.5390 C   0  0  0  0  0  0  0  0  0  0  0  0
   -2.8370  -15.7070    3.5080 C   0  0  0  0  0  0  0  0  0  0  0  0
   -3.8850  -16.2000    4.3000 N   0  0  0  0  0  0  0  0  0  0  0  0
   -3.8120  -16.8640    5.4910 C   0  0  0  0  0  0  0  0  0  0  0  0
   -2.8130  -17.1720    6.1220 O   0  0  0  0  0  0  0  0  0  0  0  0
   -5.0820  -17.1460    5.8900 O   0  0  0  0  0  0  0  0  0  0  0  0
   -5.5260  -16.4030    7.0340 C   0  0  0  0  0  0  0  0  0  0  0  0
   -6.2840  -15.1570    6.5570 C   0  0  0  0  0  0  0  0  0  0  0  0
   -6.7040  -14.2760    7.7350 C   0  0  0  0  0  0  0  0  0  0  0  0
   -7.5050  -15.5590    5.7320 C   0  0  0  0  0  0  0  0  0  0  0  0
   -2.0270  -16.5090    2.7070 C   0  0  0  0  0  0  0  0  0  0  0  0
   -1.0000  -15.9430    1.9470 C   0  0  0  0  0  0  0  0  0  0  0  0
   -0.7660  -14.5610    1.9740 C   0  0  0  0  0  0  0  0  0  0  0  0
    0.3320  -14.0240    1.1580 C   0  0  0  0  0  0  0  0  0  0  0  0
    0.0710  -13.5590   -0.2390 C   0  0  0  0  0  0  0  0  0  0  0  0
    0.9360  -13.0640   -1.0710 N   0  0  0  0  0  0  0  0  0  0  0  0
    2.2200  -12.9630   -0.6070 C   0  0  0  0  0  0  0  0  0  0  0  0
    3.3860  -12.5000   -1.1920 C   0  0  0  0  0  0  0  0  0  0  0  0
    3.5080  -11.9830   -2.5450 C   0  0  0  0  0  0  0  0  0  0  0  0
    2.7650  -10.8780   -2.9640 C   0  0  0  0  0  0  0  0  0  0  0  0
    2.9090  -10.3920   -4.2600 C   0  0  0  0  0  0  0  0  0  0  0  0
    3.7900  -11.0130   -5.1480 C   0  0  0  0  0  0  0  0  0  0  0  0
    4.5460  -12.1340   -4.7700 C   0  0  0  0  0  0  0  0  0  0  0  0
    5.4100  -12.7430   -5.6840 N   0  0  0  0  0  0  0  0  0  0  0  0
    6.6140  -13.3870   -5.1250 C   0  0  0  0  0  0  0  0  0  0  0  0
    7.1980  -14.4240   -6.1050 C   0  0  0  0  0  0  0  0  0  0  0  0
    7.4090  -13.8050   -7.4840 N   0  0  0  0  0  0  0  0  0  0  0  0
    8.0480  -14.7630   -8.4410 C   0  0  0  0  0  0  0  0  0  0  0  0
    6.0920  -13.2500   -8.0190 C   0  0  0  0  0  0  0  0  0  0  0  0
    5.5130  -12.2020   -7.0490 C   0  0  0  0  0  0  0  0  0  0  0  0
    4.3950  -12.5940   -3.4510 C   0  0  0  0  0  0  0  0  0  0  0  0
    4.3730  -12.6720   -0.2020 C   0  0  0  0  0  0  0  0  0  0  0  0
    3.9070  -13.2060    0.9250 N   0  0  0  0  0  0  0  0  0  0  0  0
    2.5710  -13.3820    0.6850 N   0  0  0  0  0  0  0  0  0  0  0  0
    1.6090  -13.9200    1.5840 C   0  0  0  0  0  0  0  0  0  0  0  0
    2.0640  -14.2970    2.8320 N   0  0  0  0  0  0  0  0  0  0  0  0
   -1.3123  -11.9433    3.9141 H   0  0  0  0  0  0  0  0  0  0  0  0
   -0.4116  -11.9906    2.3607 H   0  0  0  0  0  0  0  0  0  0  0  0
   -2.1892  -11.7322    2.3607 H   0  0  0  0  0  0  0  0  0  0  0  0
   -3.2359  -13.6872    4.1715 H   0  0  0  0  0  0  0  0  0  0  0  0
   -4.8340  -16.0650    3.9780 H   0  0  0  0  0  0  0  0  0  0  0  0
   -6.1932  -17.0294    7.6444 H   0  0  0  0  0  0  0  0  0  0  0  0
   -4.6593  -16.1013    7.6404 H   0  0  0  0  0  0  0  0  0  0  0  0
   -5.6032  -14.5709    5.9222 H   0  0  0  0  0  0  0  0  0  0  0  0
   -6.4610  -14.7857    8.6790 H   0  0  0  0  0  0  0  0  0  0  0  0
   -6.1658  -13.3179    7.6865 H   0  0  0  0  0  0  0  0  0  0  0  0
   -7.7872  -14.0909    7.6865 H   0  0  0  0  0  0  0  0  0  0  0  0
   -8.3302  -15.8307    6.4068 H   0  0  0  0  0  0  0  0  0  0  0  0
   -7.8130  -14.7148    5.0976 H   0  0  0  0  0  0  0  0  0  0  0  0
   -7.2512  -16.4210    5.0976 H   0  0  0  0  0  0  0  0  0  0  0  0
   -2.1971  -17.5952    2.6726 H   0  0  0  0  0  0  0  0  0  0  0  0
   -0.3679  -16.5893    1.3203 H   0  0  0  0  0  0  0  0  0  0  0  0
   -0.9644  -13.6456   -0.6003 H   0  0  0  0  0  0  0  0  0  0  0  0
    2.0651  -10.3910   -2.2691 H   0  0  0  0  0  0  0  0  0  0  0  0
    2.3276   -9.5168   -4.5857 H   0  0  0  0  0  0  0  0  0  0  0  0
    3.8941  -10.6143   -6.1679 H   0  0  0  0  0  0  0  0  0  0  0  0
    7.3727  -12.6162   -4.9242 H   0  0  0  0  0  0  0  0  0  0  0  0
    6.3323  -13.9054   -4.1966 H   0  0  0  0  0  0  0  0  0  0  0  0
    8.1636  -14.7821   -5.7185 H   0  0  0  0  0  0  0  0  0  0  0  0
    6.4897  -15.2605   -6.1978 H   0  0  0  0  0  0  0  0  0  0  0  0
    8.0470  -13.0080   -7.3630 H   0  0  0  0  0  0  0  0  0  0  0  0
    8.5723  -15.5490   -7.8777 H   0  0  0  0  0  0  0  0  0  0  0  0
    7.2734  -15.2203   -9.0742 H   0  0  0  0  0  0  0  0  0  0  0  0
    8.7678  -14.2235   -9.0742 H   0  0  0  0  0  0  0  0  0  0  0  0
    6.2687  -12.7789   -8.9972 H   0  0  0  0  0  0  0  0  0  0  0  0
    5.3730  -14.0764   -8.1198 H   0  0  0  0  0  0  0  0  0  0  0  0
    6.1713  -11.3208   -7.0374 H   0  0  0  0  0  0  0  0  0  0  0  0
    4.5049  -11.9271   -7.3928 H   0  0  0  0  0  0  0  0  0  0  0  0
    4.9880  -13.4579   -3.1163 H   0  0  0  0  0  0  0  0  0  0  0  0
    5.4270  -12.3922   -0.3461 H   0  0  0  0  0  0  0  0  0  0  0  0
    1.4240  -14.6060    3.5530 H   0  0  0  0  0  0  0  0  0  0  0  0
    3.0660  -14.2530    3.0040 H   0  0  0  0  0  0  0  0  0  0  0  0
  1  2  1  0
  2  3  2  0
  3  4  1  0
  4  5  1  0
  5  6  1  0
  6  7  2  0
  6  8  1  0
  8  9  1  0
  9 10  1  0
 10 11  1  0
 10 12  1  0
  4 13  2  0
 13 14  1  0
 14 15  2  0
 15 16  1  0
 16 17  1  0
 17 18  2  0
 18 19  1  0
 19 20  2  0
 20 21  1  0
 21 22  2  0
 22 23  1  0
 23 24  2  0
 24 25  1  0
 25 26  1  0
 26 27  1  0
 27 28  1  0
 28 29  1  0
 29 30  1  0
 29 31  1  0
 31 32  1  0
 25 33  2  0
 20 34  1  0
 34 35  2  0
 35 36  1  0
 36 37  1  0
 37 38  1  0
 15  2  1  0
 37 16  2  0
 36 19  1  0
 33 21  1  0
 32 26  1  0
  1 39  1  0
  1 40  1  0
  1 41  1  0
  3 42  1  0
  5 43  1  0
  9 44  1  0
  9 45  1  0
 10 46  1  0
 11 47  1  0
 11 48  1  0
 11 49  1  0
 12 50  1  0
 12 51  1  0
 12 52  1  0
 13 53  1  0
 14 54  1  0
 17 55  1  0
 22 56  1  0
 23 57  1  0
 24 58  1  0
 27 59  1  0
 27 60  1  0
 28 61  1  0
 28 62  1  0
 29 63  1  0
 30 64  1  0
 30 65  1  0
 30 66  1  0
 31 67  1  0
 31 68  1  0
 32 69  1  0
 32 70  1  0
 33 71  1  0
 34 72  1  0
 38 73  1  0
 38 74  1  0
M  CHG  1  29   1
M  END
>  <meeko>  (2) 
{"is_sidechain": [false], "free_energy": -8.243, "intermolecular_energy": -11.879, "internal_energy": -1.064}

$$$$
LIB_SRDCKXVGOFJLJK__M_PUB_ALL__e8__s20260927
     RDKit          3D

 74 78  0  0  0  0  0  0  0  0999 V2000
    2.6010  -10.6520   -4.1280 C   0  0  0  0  0  0  0  0  0  0  0  0
    3.4160  -11.7710   -4.7170 C   0  0  0  0  0  0  0  0  0  0  0  0
    4.3070  -11.4940   -5.7710 C   0  0  0  0  0  0  0  0  0  0  0  0
    5.0790  -12.5030   -6.3600 C   0  0  0  0  0  0  0  0  0  0  0  0
    5.9400  -12.1290   -7.4040 N   0  0  0  0  0  0  0  0  0  0  0  0
    6.4020  -12.8900   -8.4390 C   0  0  0  0  0  0  0  0  0  0  0  0
    6.1620  -14.0640   -8.6780 O   0  0  0  0  0  0  0  0  0  0  0  0
    7.2090  -12.1070   -9.2060 O   0  0  0  0  0  0  0  0  0  0  0  0
    7.8760  -12.8000  -10.2700 C   0  0  0  0  0  0  0  0  0  0  0  0
    8.2000  -11.8040  -11.3910 C   0  0  0  0  0  0  0  0  0  0  0  0
    9.7090  -11.6000  -11.5350 C   0  0  0  0  0  0  0  0  0  0  0  0
    7.5050  -10.4680  -11.1330 C   0  0  0  0  0  0  0  0  0  0  0  0
    4.9530  -13.8090   -5.8900 C   0  0  0  0  0  0  0  0  0  0  0  0
    4.0720  -14.1020   -4.8460 C   0  0  0  0  0  0  0  0  0  0  0  0
    3.3010  -13.0940   -4.2520 C   0  0  0  0  0  0  0  0  0  0  0  0
    2.3880  -13.4650   -3.1630 C   0  0  0  0  0  0  0  0  0  0  0  0
    2.6540  -12.9960   -1.7680 C   0  0  0  0  0  0  0  0  0  0  0  0
    1.9390  -13.2420   -0.7130 N   0  0  0  0  0  0  0  0  0  0  0  0
    0.8260  -14.0140   -0.9120 C   0  0  0  0  0  0  0  0  0  0  0  0
   -0.1510  -14.4770   -0.0480 C   0  0  0  0  0  0  0  0  0  0  0  0
   -0.2050  -14.2260    1.3830 C   0  0  0  0  0  0  0  0  0  0  0  0
   -0.6800  -13.0120    1.8850 C   0  0  0  0  0  0  0  0  0  0  0  0
   -0.7360  -12.8000    3.2590 C   0  0  0  0  0  0  0  0  0  0  0  0
   -0.3090  -13.7970    4.1400 C   0  0  0  0  0  0  0  0  0  0  0  0
    0.1870  -15.0250    3.6760 C   0  0  0  0  0  0  0  0  0  0  0  0
    0.6190  -15.9980    4.5810 N   0  0  0  0  0  0  0  0  0  0  0  0
    0.7120  -15.5880    5.9960 C   0  0  0  0  0  0  0  0  0  0  0  0
    0.6960  -16.8120    6.9330 C   0  0  0  0  0  0  0  0  0  0  0  0
    1.7520  -17.8300    6.5120 N   0  0  0  0  0  0  0  0  0  0  0  0
    1.8160  -18.9960    7.4470 C   0  0  0  0  0  0  0  0  0  0  0  0
    1.5190  -18.2630    5.0670 C   0  0  0  0  0  0  0  0  0  0  0  0
    1.5490  -17.0430    4.1250 C   0  0  0  0  0  0  0  0  0  0  0  0
    0.2160  -15.2200    2.2850 C   0  0  0  0  0  0  0  0  0  0  0  0
   -1.0180  -15.2310   -0.8630 C   0  0  0  0  0  0  0  0  0  0  0  0
   -0.6440  -15.2710   -2.1390 N   0  0  0  0  0  0  0  0  0  0  0  0
    0.4940  -14.5120   -2.1810 N   0  0  0  0  0  0  0  0  0  0  0  0
    1.2880  -14.2310   -3.3260 C   0  0  0  0  0  0  0  0  0  0  0  0
    0.8660  -14.7700   -4.5250 N   0  0  0  0  0  0  0  0  0  0  0  0
    2.6414  -10.7075   -3.0301 H   0  0  0  0  0  0  0  0  0  0  0  0
    3.0088   -9.6864   -4.4616 H   0  0  0  0  0  0  0  0  0  0  0  0
    1.5568  -10.7439   -4.4616 H   0  0  0  0  0  0  0  0  0  0  0  0
    4.3989  -10.4619   -6.1402 H   0  0  0  0  0  0  0  0  0  0  0  0
    6.2850  -11.1800   -7.4250 H   0  0  0  0  0  0  0  0  0  0  0  0
    8.8080  -13.2457   -9.8922 H   0  0  0  0  0  0  0  0  0  0  0  0
    7.2254  -13.5973  -10.6587 H   0  0  0  0  0  0  0  0  0  0  0  0
    7.8242  -12.2245  -12.3354 H   0  0  0  0  0  0  0  0  0  0  0  0
   10.1675  -11.5380  -10.5370 H   0  0  0  0  0  0  0  0  0  0  0  0
   10.1427  -12.4477  -12.0858 H   0  0  0  0  0  0  0  0  0  0  0  0
    9.9020  -10.6676  -12.0858 H   0  0  0  0  0  0  0  0  0  0  0  0
    7.4190  -10.3027  -10.0489 H   0  0  0  0  0  0  0  0  0  0  0  0
    8.0946   -9.6552  -11.5822 H   0  0  0  0  0  0  0  0  0  0  0  0
    6.5010  -10.4842  -11.5822 H   0  0  0  0  0  0  0  0  0  0  0  0
    5.5505  -14.6135   -6.3435 H   0  0  0  0  0  0  0  0  0  0  0  0
    3.9825  -15.1374   -4.4857 H   0  0  0  0  0  0  0  0  0  0  0  0
    3.5510  -12.3767   -1.6203 H   0  0  0  0  0  0  0  0  0  0  0  0
   -1.0101  -12.2229    1.1934 H   0  0  0  0  0  0  0  0  0  0  0  0
   -1.1170  -11.8460    3.6523 H   0  0  0  0  0  0  0  0  0  0  0  0
   -0.3630  -13.6149    5.2235 H   0  0  0  0  0  0  0  0  0  0  0  0
    1.6490  -15.0322    6.1477 H   0  0  0  0  0  0  0  0  0  0  0  0
   -0.1565  -14.9561    6.2334 H   0  0  0  0  0  0  0  0  0  0  0  0
    0.9033  -16.4816    7.9615 H   0  0  0  0  0  0  0  0  0  0  0  0
   -0.2945  -17.2870    6.8759 H   0  0  0  0  0  0  0  0  0  0  0  0
    2.6620  -17.3500    6.5420 H   0  0  0  0  0  0  0  0  0  0  0  0
    1.7962  -18.6346    8.4857 H   0  0  0  0  0  0  0  0  0  0  0  0
    0.9527  -19.6546    7.2714 H   0  0  0  0  0  0  0  0  0  0  0  0
    2.7462  -19.5562    7.2714 H   0  0  0  0  0  0  0  0  0  0  0  0
    2.3079  -18.9694    4.7693 H   0  0  0  0  0  0  0  0  0  0  0  0
    0.5321  -18.7434    4.9948 H   0  0  0  0  0  0  0  0  0  0  0  0
    2.5688  -16.6314    4.1028 H   0  0  0  0  0  0  0  0  0  0  0  0
    1.2417  -17.3698    3.1206 H   0  0  0  0  0  0  0  0  0  0  0  0
    0.5792  -16.1798    1.8889 H   0  0  0  0  0  0  0  0  0  0  0  0
   -1.9168  -15.7374   -0.4814 H   0  0  0  0  0  0  0  0  0  0  0  0
    0.5340  -14.1810   -5.2790 H   0  0  0  0  0  0  0  0  0  0  0  0
    0.8980  -15.7820   -4.6260 H   0  0  0  0  0  0  0  0  0  0  0  0
  1  2  1  0
  2  3  2  0
  3  4  1  0
  4  5  1  0
  5  6  1  0
  6  7  2  0
  6  8  1  0
  8  9  1  0
  9 10  1  0
 10 11  1  0
 10 12  1  0
  4 13  2  0
 13 14  1  0
 14 15  2  0
 15 16  1  0
 16 17  1  0
 17 18  2  0
 18 19  1  0
 19 20  2  0
 20 21  1  0
 21 22  2  0
 22 23  1  0
 23 24  2  0
 24 25  1  0
 25 26  1  0
 26 27  1  0
 27 28  1  0
 28 29  1  0
 29 30  1  0
 29 31  1  0
 31 32  1  0
 25 33  2  0
 20 34  1  0
 34 35  2  0
 35 36  1  0
 36 37  1  0
 37 38  1  0
 15  2  1  0
 37 16  2  0
 36 19  1  0
 33 21  1  0
 32 26  1  0
  1 39  1  0
  1 40  1  0
  1 41  1  0
  3 42  1  0
  5 43  1  0
  9 44  1  0
  9 45  1  0
 10 46  1  0
 11 47  1  0
 11 48  1  0
 11 49  1  0
 12 50  1  0
 12 51  1  0
 12 52  1  0
 13 53  1  0
 14 54  1  0
 17 55  1  0
 22 56  1  0
 23 57  1  0
 24 58  1  0
 27 59  1  0
 27 60  1  0
 28 61  1  0
 28 62  1  0
 29 63  1  0
 30 64  1  0
 30 65  1  0
 30 66  1  0
 31 67  1  0
 31 68  1  0
 32 69  1  0
 32 70  1  0
 33 71  1  0
 34 72  1  0
 38 73  1  0
 38 74  1  0
M  CHG  1  29   1
M  END
>  <meeko>  (3) 
{"is_sidechain": [false], "free_energy": -7.912, "intermolecular_energy": -11.989, "internal_energy": -0.478}

$$$$
LIB_SRDCKXVGOFJLJK__M_PUB_ALL__e8__s20260927
     RDKit          3D

 74 78  0  0  0  0  0  0  0  0999 V2000
    5.7050  -11.6610   -2.1340 C   0  0  0  0  0  0  0  0  0  0  0  0
    5.3340  -12.3310   -0.8390 C   0  0  0  0  0  0  0  0  0  0  0  0
    4.0180  -12.2090   -0.3520 C   0  0  0  0  0  0  0  0  0  0  0  0
    3.6260  -12.8040    0.8540 C   0  0  0  0  0  0  0  0  0  0  0  0
    2.2930  -12.6280    1.2560 N   0  0  0  0  0  0  0  0  0  0  0  0
    1.1550  -13.0550    0.6350 C   0  0  0  0  0  0  0  0  0  0  0  0
    1.0540  -13.6830   -0.4080 O   0  0  0  0  0  0  0  0  0  0  0  0
    0.0940  -12.6560    1.3880 O   0  0  0  0  0  0  0  0  0  0  0  0
   -0.1110  -11.2370    1.4270 C   0  0  0  0  0  0  0  0  0  0  0  0
   -1.1190  -10.9060    2.5350 C   0  0  0  0  0  0  0  0  0  0  0  0
   -2.2470  -11.9380    2.5870 C   0  0  0  0  0  0  0  0  0  0  0  0
   -1.6900   -9.5030    2.3340 C   0  0  0  0  0  0  0  0  0  0  0  0
    4.5670  -13.5270    1.5850 C   0  0  0  0  0  0  0  0  0  0  0  0
    5.8780  -13.6560    1.1180 C   0  0  0  0  0  0  0  0  0  0  0  0
    6.2710  -13.0660   -0.0900 C   0  0  0  0  0  0  0  0  0  0  0  0
    7.6650  -13.2320   -0.5260 C   0  0  0  0  0  0  0  0  0  0  0  0
    8.0380  -14.3620   -1.4300 C   0  0  0  0  0  0  0  0  0  0  0  0
    9.2200  -14.6320   -1.8940 N   0  0  0  0  0  0  0  0  0  0  0  0
   10.2220  -13.7810   -1.5080 C   0  0  0  0  0  0  0  0  0  0  0  0
   11.5760  -13.7520   -1.7910 C   0  0  0  0  0  0  0  0  0  0  0  0
   12.2890  -14.7040   -2.6260 C   0  0  0  0  0  0  0  0  0  0  0  0
   12.7190  -15.9310   -2.1160 C   0  0  0  0  0  0  0  0  0  0  0  0
   13.3870  -16.8320   -2.9400 C   0  0  0  0  0  0  0  0  0  0  0  0
   13.6360  -16.5100   -4.2760 C   0  0  0  0  0  0  0  0  0  0  0  0
   13.2320  -15.2830   -4.8240 C   0  0  0  0  0  0  0  0  0  0  0  0
   13.5080  -14.9820   -6.1600 N   0  0  0  0  0  0  0  0  0  0  0  0
   14.9050  -15.1600   -6.6010 C   0  0  0  0  0  0  0  0  0  0  0  0
   14.9920  -15.2970   -8.1340 C   0  0  0  0  0  0  0  0  0  0  0  0
   14.2660  -14.1450   -8.8220 N   0  0  0  0  0  0  0  0  0  0  0  0
   14.3980  -14.2040  -10.3120 C   0  0  0  0  0  0  0  0  0  0  0  0
   12.8080  -14.0980   -8.3740 C   0  0  0  0  0  0  0  0  0  0  0  0
   12.7170  -13.9460   -6.8430 C   0  0  0  0  0  0  0  0  0  0  0  0
   12.5440  -14.3980   -3.9760 C   0  0  0  0  0  0  0  0  0  0  0  0
   12.0630  -12.6370   -1.0810 C   0  0  0  0  0  0  0  0  0  0  0  0
   11.1230  -11.9980   -0.3880 N   0  0  0  0  0  0  0  0  0  0  0  0
    9.9770  -12.6960   -0.6540 N   0  0  0  0  0  0  0  0  0  0  0  0
    8.6750  -12.4150   -0.1560 C   0  0  0  0  0  0  0  0  0  0  0  0
    8.5480  -11.3210    0.6760 N   0  0  0  0  0  0  0  0  0  0  0  0
    6.2278  -10.7168   -1.9217 H   0  0  0  0  0  0  0  0  0  0  0  0
    6.3649  -12.3233   -2.7136 H   0  0  0  0  0  0  0  0  0  0  0  0
    4.7935  -11.4531   -2.7136 H   0  0  0  0  0  0  0  0  0  0  0  0
    3.2814  -11.6335   -0.9318 H   0  0  0  0  0  0  0  0  0  0  0  0
    2.1130  -12.1230    2.1120 H   0  0  0  0  0  0  0  0  0  0  0  0
    0.8440  -10.7324    1.6350 H   0  0  0  0  0  0  0  0  0  0  0  0
   -0.4992  -10.8918    0.4574 H   0  0  0  0  0  0  0  0  0  0  0  0
   -0.5864  -10.9386    3.4969 H   0  0  0  0  0  0  0  0  0  0  0  0
   -2.4914  -12.1616    3.6360 H   0  0  0  0  0  0  0  0  0  0  0  0
   -3.1366  -11.5346    2.0812 H   0  0  0  0  0  0  0  0  0  0  0  0
   -1.9241  -12.8599    2.0812 H   0  0  0  0  0  0  0  0  0  0  0  0
   -1.8784   -9.0400    3.3138 H   0  0  0  0  0  0  0  0  0  0  0  0
   -0.9694   -8.8909    1.7717 H   0  0  0  0  0  0  0  0  0  0  0  0
   -2.6332   -9.5681    1.7717 H   0  0  0  0  0  0  0  0  0  0  0  0
    4.2761  -13.9989    2.5351 H   0  0  0  0  0  0  0  0  0  0  0  0
    6.6104  -14.2281    1.7066 H   0  0  0  0  0  0  0  0  0  0  0  0
    7.2245  -15.0368   -1.7347 H   0  0  0  0  0  0  0  0  0  0  0  0
   12.5296  -16.1854   -1.0627 H   0  0  0  0  0  0  0  0  0  0  0  0
   13.7197  -17.8003   -2.5379 H   0  0  0  0  0  0  0  0  0  0  0  0
   14.1615  -17.2358   -4.9141 H   0  0  0  0  0  0  0  0  0  0  0  0
   15.4952  -14.2873   -6.2846 H   0  0  0  0  0  0  0  0  0  0  0  0
   15.2996  -16.0804   -6.1459 H   0  0  0  0  0  0  0  0  0  0  0  0
   16.0493  -15.2897   -8.4375 H   0  0  0  0  0  0  0  0  0  0  0  0
   14.5152  -16.2426   -8.4315 H   0  0  0  0  0  0  0  0  0  0  0  0
   14.7100  -13.2740   -8.5010 H   0  0  0  0  0  0  0  0  0  0  0  0
   15.3727  -14.6397  -10.5768 H   0  0  0  0  0  0  0  0  0  0  0  0
   13.5926  -14.8278  -10.7270 H   0  0  0  0  0  0  0  0  0  0  0  0
   14.3256  -13.1879  -10.7270 H   0  0  0  0  0  0  0  0  0  0  0  0
   12.3099  -13.2421   -8.8528 H   0  0  0  0  0  0  0  0  0  0  0  0
   12.3157  -15.0369   -8.6676 H   0  0  0  0  0  0  0  0  0  0  0  0
   13.0994  -12.9551   -6.5570 H   0  0  0  0  0  0  0  0  0  0  0  0
   11.6644  -14.0555   -6.5429 H   0  0  0  0  0  0  0  0  0  0  0  0
   12.1940  -13.4365   -4.3799 H   0  0  0  0  0  0  0  0  0  0  0  0
   13.1176  -12.3247   -1.0976 H   0  0  0  0  0  0  0  0  0  0  0  0
    9.1550  -10.5160    0.5820 H   0  0  0  0  0  0  0  0  0  0  0  0
    7.8230  -11.3500    1.3900 H   0  0  0  0  0  0  0  0  0  0  0  0
  1  2  1  0
  2  3  2  0
  3  4  1  0
  4  5  1  0
  5  6  1  0
  6  7  2  0
  6  8  1  0
  8  9  1  0
  9 10  1  0
 10 11  1  0
 10 12  1  0
  4 13  2  0
 13 14  1  0
 14 15  2  0
 15 16  1  0
 16 17  1  0
 17 18  2  0
 18 19  1  0
 19 20  2  0
 20 21  1  0
 21 22  2  0
 22 23  1  0
 23 24  2  0
 24 25  1  0
 25 26  1  0
 26 27  1  0
 27 28  1  0
 28 29  1  0
 29 30  1  0
 29 31  1  0
 31 32  1  0
 25 33  2  0
 20 34  1  0
 34 35  2  0
 35 36  1  0
 36 37  1  0
 37 38  1  0
 15  2  1  0
 37 16  2  0
 36 19  1  0
 33 21  1  0
 32 26  1  0
  1 39  1  0
  1 40  1  0
  1 41  1  0
  3 42  1  0
  5 43  1  0
  9 44  1  0
  9 45  1  0
 10 46  1  0
 11 47  1  0
 11 48  1  0
 11 49  1  0
 12 50  1  0
 12 51  1  0
 12 52  1  0
 13 53  1  0
 14 54  1  0
 17 55  1  0
 22 56  1  0
 23 57  1  0
 24 58  1  0
 27 59  1  0
 27 60  1  0
 28 61  1  0
 28 62  1  0
 29 63  1  0
 30 64  1  0
 30 65  1  0
 30 66  1  0
 31 67  1  0
 31 68  1  0
 32 69  1  0
 32 70  1  0
 33 71  1  0
 34 72  1  0
 38 73  1  0
 38 74  1  0
M  CHG  1  29   1
M  END
>  <meeko>  (4) 
{"is_sidechain": [false], "free_energy": -7.91, "intermolecular_energy": -11.45, "internal_energy": -1.014}

$$$$
LIB_SRDCKXVGOFJLJK__M_PUB_ALL__e8__s20260927
     RDKit          3D

 74 78  0  0  0  0  0  0  0  0999 V2000
    3.3030  -15.9890   -1.1070 C   0  0  0  0  0  0  0  0  0  0  0  0
    2.8130  -16.0450    0.3140 C   0  0  0  0  0  0  0  0  0  0  0  0
    1.6960  -16.8430    0.6270 C   0  0  0  0  0  0  0  0  0  0  0  0
    1.1940  -16.9190    1.9330 C   0  0  0  0  0  0  0  0  0  0  0  0
    0.0780  -17.7420    2.1470 N   0  0  0  0  0  0  0  0  0  0  0  0
   -1.2350  -17.4820    1.8760 C   0  0  0  0  0  0  0  0  0  0  0  0
   -1.7190  -16.4730    1.3880 O   0  0  0  0  0  0  0  0  0  0  0  0
   -1.9620  -18.5700    2.2490 O   0  0  0  0  0  0  0  0  0  0  0  0
   -3.0420  -18.2860    3.1500 C   0  0  0  0  0  0  0  0  0  0  0  0
   -2.4640  -17.8080    4.4880 C   0  0  0  0  0  0  0  0  0  0  0  0
   -1.8410  -18.9660    5.2710 C   0  0  0  0  0  0  0  0  0  0  0  0
   -3.5460  -17.1250    5.3230 C   0  0  0  0  0  0  0  0  0  0  0  0
    1.8170  -16.1820    2.9380 C   0  0  0  0  0  0  0  0  0  0  0  0
    2.9250  -15.3830    2.6450 C   0  0  0  0  0  0  0  0  0  0  0  0
    3.4320  -15.3080    1.3410 C   0  0  0  0  0  0  0  0  0  0  0  0
    4.5960  -14.4460    1.0930 C   0  0  0  0  0  0  0  0  0  0  0  0
    5.9680  -15.0360    1.0430 C   0  0  0  0  0  0  0  0  0  0  0  0
    7.0830  -14.4020    0.8340 N   0  0  0  0  0  0  0  0  0  0  0  0
    6.9730  -13.0520    0.6390 C   0  0  0  0  0  0  0  0  0  0  0  0
    7.9180  -12.0680    0.3970 C   0  0  0  0  0  0  0  0  0  0  0  0
    9.3520  -12.2770    0.2970 C   0  0  0  0  0  0  0  0  0  0  0  0
   10.2150  -11.8540    1.3090 C   0  0  0  0  0  0  0  0  0  0  0  0
   11.5840  -12.0780    1.1970 C   0  0  0  0  0  0  0  0  0  0  0  0
   12.1000  -12.7190    0.0680 C   0  0  0  0  0  0  0  0  0  0  0  0
   11.2680  -13.1490   -0.9770 C   0  0  0  0  0  0  0  0  0  0  0  0
   11.8140  -13.7750   -2.1010 N   0  0  0  0  0  0  0  0  0  0  0  0
   11.2470  -13.3940   -3.4090 C   0  0  0  0  0  0  0  0  0  0  0  0
   12.2190  -13.7310   -4.5570 C   0  0  0  0  0  0  0  0  0  0  0  0
   12.6660  -15.1870   -4.4760 N   0  0  0  0  0  0  0  0  0  0  0  0
   13.5510  -15.5700   -5.6220 C   0  0  0  0  0  0  0  0  0  0  0  0
   13.3230  -15.4620   -3.1260 C   0  0  0  0  0  0  0  0  0  0  0  0
   12.3490  -15.1400   -1.9750 C   0  0  0  0  0  0  0  0  0  0  0  0
    9.8880  -12.9260   -0.8310 C   0  0  0  0  0  0  0  0  0  0  0  0
    7.1720  -10.8770    0.3030 C   0  0  0  0  0  0  0  0  0  0  0  0
    5.8650  -11.0540    0.4750 N   0  0  0  0  0  0  0  0  0  0  0  0
    5.7320  -12.4010    0.6760 N   0  0  0  0  0  0  0  0  0  0  0  0
    4.5210  -13.1110    0.9050 C   0  0  0  0  0  0  0  0  0  0  0  0
    3.3560  -12.3710    0.9180 N   0  0  0  0  0  0  0  0  0  0  0  0
    4.3959  -15.8641   -1.1133 H   0  0  0  0  0  0  0  0  0  0  0  0
    3.0377  -16.9233   -1.6234 H   0  0  0  0  0  0  0  0  0  0  0  0
    2.8338  -15.1386   -1.6234 H   0  0  0  0  0  0  0  0  0  0  0  0
    1.2065  -17.4197   -0.1716 H   0  0  0  0  0  0  0  0  0  0  0  0
    0.2250  -18.6550    2.5540 H   0  0  0  0  0  0  0  0  0  0  0  0
   -3.6816  -17.4997    2.7227 H   0  0  0  0  0  0  0  0  0  0  0  0
   -3.6426  -19.1940    3.3079 H   0  0  0  0  0  0  0  0  0  0  0  0
   -1.6691  -17.0795    4.2701 H   0  0  0  0  0  0  0  0  0  0  0  0
   -1.9431  -18.7762    6.3497 H   0  0  0  0  0  0  0  0  0  0  0  0
   -2.3570  -19.9026    5.0131 H   0  0  0  0  0  0  0  0  0  0  0  0
   -0.7751  -19.0516    5.0131 H   0  0  0  0  0  0  0  0  0  0  0  0
   -3.3264  -17.2636    6.3919 H   0  0  0  0  0  0  0  0  0  0  0  0
   -3.5659  -16.0503    5.0891 H   0  0  0  0  0  0  0  0  0  0  0  0
   -4.5247  -17.5693    5.0891 H   0  0  0  0  0  0  0  0  0  0  0  0
    1.4342  -16.2295    3.9682 H   0  0  0  0  0  0  0  0  0  0  0  0
    3.4055  -14.8054    3.4484 H   0  0  0  0  0  0  0  0  0  0  0  0
    6.0420  -16.1223    1.1997 H   0  0  0  0  0  0  0  0  0  0  0  0
    9.8127  -11.3430    2.1961 H   0  0  0  0  0  0  0  0  0  0  0  0
   12.2613  -11.7496    1.9992 H   0  0  0  0  0  0  0  0  0  0  0  0
   13.1842  -12.8907   -0.0035 H   0  0  0  0  0  0  0  0  0  0  0  0
   10.3049  -13.9401   -3.5645 H   0  0  0  0  0  0  0  0  0  0  0  0
   11.0704  -12.3083   -3.4093 H   0  0  0  0  0  0  0  0  0  0  0  0
   11.7137  -13.5615   -5.5193 H   0  0  0  0  0  0  0  0  0  0  0  0
   13.1046  -13.0842   -4.4715 H   0  0  0  0  0  0  0  0  0  0  0  0
   11.8180  -15.7670   -4.5250 H   0  0  0  0  0  0  0  0  0  0  0  0
   14.4959  -15.9789   -5.2348 H   0  0  0  0  0  0  0  0  0  0  0  0
   13.0468  -16.3304   -6.2364 H   0  0  0  0  0  0  0  0  0  0  0  0
   13.7602  -14.6819   -6.2364 H   0  0  0  0  0  0  0  0  0  0  0  0
   13.6088  -16.5228   -3.0721 H   0  0  0  0  0  0  0  0  0  0  0  0
   14.2133  -14.8235   -3.0273 H   0  0  0  0  0  0  0  0  0  0  0  0
   11.5148  -15.8566   -1.9990 H   0  0  0  0  0  0  0  0  0  0  0  0
   12.8953  -15.2150   -1.0232 H   0  0  0  0  0  0  0  0  0  0  0  0
    9.2059  -13.2693   -1.6227 H   0  0  0  0  0  0  0  0  0  0  0  0
    7.6266   -9.8948    0.1062 H   0  0  0  0  0  0  0  0  0  0  0  0
    2.8220  -12.2460    1.7700 H   0  0  0  0  0  0  0  0  0  0  0  0
    3.0490  -11.9550    0.0420 H   0  0  0  0  0  0  0  0  0  0  0  0
  1  2  1  0
  2  3  2  0
  3  4  1  0
  4  5  1  0
  5  6  1  0
  6  7  2  0
  6  8  1  0
  8  9  1  0
  9 10  1  0
 10 11  1  0
 10 12  1  0
  4 13  2  0
 13 14  1  0
 14 15  2  0
 15 16  1  0
 16 17  1  0
 17 18  2  0
 18 19  1  0
 19 20  2  0
 20 21  1  0
 21 22  2  0
 22 23  1  0
 23 24  2  0
 24 25  1  0
 25 26  1  0
 26 27  1  0
 27 28  1  0
 28 29  1  0
 29 30  1  0
 29 31  1  0
 31 32  1  0
 25 33  2  0
 20 34  1  0
 34 35  2  0
 35 36  1  0
 36 37  1  0
 37 38  1  0
 15  2  1  0
 37 16  2  0
 36 19  1  0
 33 21  1  0
 32 26  1  0
  1 39  1  0
  1 40  1  0
  1 41  1  0
  3 42  1  0
  5 43  1  0
  9 44  1  0
  9 45  1  0
 10 46  1  0
 11 47  1  0
 11 48  1  0
 11 49  1  0
 12 50  1  0
 12 51  1  0
 12 52  1  0
 13 53  1  0
 14 54  1  0
 17 55  1  0
 22 56  1  0
 23 57  1  0
 24 58  1  0
 27 59  1  0
 27 60  1  0
 28 61  1  0
 28 62  1  0
 29 63  1  0
 30 64  1  0
 30 65  1  0
 30 66  1  0
 31 67  1  0
 31 68  1  0
 32 69  1  0
 32 70  1  0
 33 71  1  0
 34 72  1  0
 38 73  1  0
 38 74  1  0
M  CHG  1  29   1
M  END
>  <meeko>  (5) 
{"is_sidechain": [false], "free_energy": -7.906, "intermolecular_energy": -11.367, "internal_energy": -1.091}

$$$$
LIB_SRDCKXVGOFJLJK__M_PUB_ALL__e8__s20260927
     RDKit          3D

 74 78  0  0  0  0  0  0  0  0999 V2000
    0.9690  -14.5090    4.7190 C   0  0  0  0  0  0  0  0  0  0  0  0
   -0.1310  -14.9730    3.8030 C   0  0  0  0  0  0  0  0  0  0  0  0
   -1.3490  -15.4130    4.3550 C   0  0  0  0  0  0  0  0  0  0  0  0
   -2.3990  -15.8660    3.5460 C   0  0  0  0  0  0  0  0  0  0  0  0
   -3.5740  -16.2820    4.1880 N   0  0  0  0  0  0  0  0  0  0  0  0
   -4.0300  -17.5540    4.3870 C   0  0  0  0  0  0  0  0  0  0  0  0
   -3.5090  -18.6040    4.0450 O   0  0  0  0  0  0  0  0  0  0  0  0
   -5.2120  -17.4740    5.0570 O   0  0  0  0  0  0  0  0  0  0  0  0
   -5.2730  -16.4280    6.0370 C   0  0  0  0  0  0  0  0  0  0  0  0
   -6.6230  -15.7100    5.9190 C   0  0  0  0  0  0  0  0  0  0  0  0
   -7.7430  -16.6850    5.5530 C   0  0  0  0  0  0  0  0  0  0  0  0
   -6.5390  -14.5840    4.8890 C   0  0  0  0  0  0  0  0  0  0  0  0
   -2.2230  -15.8820    2.1630 C   0  0  0  0  0  0  0  0  0  0  0  0
   -1.0200  -15.4520    1.5980 C   0  0  0  0  0  0  0  0  0  0  0  0
    0.0300  -14.9950    2.4050 C   0  0  0  0  0  0  0  0  0  0  0  0
    1.2730  -14.5610    1.7540 C   0  0  0  0  0  0  0  0  0  0  0  0
    2.4190  -15.5110    1.6150 C   0  0  0  0  0  0  0  0  0  0  0  0
    3.5700  -15.2690    1.0650 N   0  0  0  0  0  0  0  0  0  0  0  0
    3.7390  -14.0070    0.5630 C   0  0  0  0  0  0  0  0  0  0  0  0
    4.8050  -13.3950   -0.0740 C   0  0  0  0  0  0  0  0  0  0  0  0
    6.0860  -14.0150   -0.3670 C   0  0  0  0  0  0  0  0  0  0  0  0
    6.1720  -15.3640   -0.7180 C   0  0  0  0  0  0  0  0  0  0  0  0
    7.4090  -15.9320   -1.0080 C   0  0  0  0  0  0  0  0  0  0  0  0
    8.5690  -15.1570   -0.9410 C   0  0  0  0  0  0  0  0  0  0  0  0
    8.5280  -13.8020   -0.5800 C   0  0  0  0  0  0  0  0  0  0  0  0
    9.7070  -13.0550   -0.5070 N   0  0  0  0  0  0  0  0  0  0  0  0
    9.7960  -12.0680    0.5870 C   0  0  0  0  0  0  0  0  0  0  0  0
   11.2630  -11.6900    0.8780 C   0  0  0  0  0  0  0  0  0  0  0  0
   11.9750  -11.2630   -0.4020 N   0  0  0  0  0  0  0  0  0  0  0  0
   13.3790  -10.8140   -0.1440 C   0  0  0  0  0  0  0  0  0  0  0  0
   11.9090  -12.3820   -1.4390 C   0  0  0  0  0  0  0  0  0  0  0  0
   10.4450  -12.7520   -1.7440 C   0  0  0  0  0  0  0  0  0  0  0  0
    7.2650  -13.2480   -0.3090 C   0  0  0  0  0  0  0  0  0  0  0  0
    4.3600  -12.0840   -0.3310 C   0  0  0  0  0  0  0  0  0  0  0  0
    3.1240  -11.8480    0.1050 N   0  0  0  0  0  0  0  0  0  0  0  0
    2.7290  -13.0380    0.6530 N   0  0  0  0  0  0  0  0  0  0  0  0
    1.4730  -13.3210    1.2570 C   0  0  0  0  0  0  0  0  0  0  0  0
    0.5500  -12.2940    1.2880 N   0  0  0  0  0  0  0  0  0  0  0  0
    0.6554  -14.6413    5.7650 H   0  0  0  0  0  0  0  0  0  0  0  0
    1.8769  -15.1008    4.5308 H   0  0  0  0  0  0  0  0  0  0  0  0
    1.1788  -13.4457    4.5308 H   0  0  0  0  0  0  0  0  0  0  0  0
   -1.4792  -15.4008    5.4472 H   0  0  0  0  0  0  0  0  0  0  0  0
   -4.1910  -15.5760    4.5660 H   0  0  0  0  0  0  0  0  0  0  0  0
   -5.1718  -16.8597    7.0437 H   0  0  0  0  0  0  0  0  0  0  0  0
   -4.4555  -15.7119    5.8670 H   0  0  0  0  0  0  0  0  0  0  0  0
   -6.8614  -15.2766    6.9015 H   0  0  0  0  0  0  0  0  0  0  0  0
   -8.1987  -17.0817    6.4722 H   0  0  0  0  0  0  0  0  0  0  0  0
   -8.5076  -16.1599    4.9618 H   0  0  0  0  0  0  0  0  0  0  0  0
   -7.3282  -17.5147    4.9618 H   0  0  0  0  0  0  0  0  0  0  0  0
   -6.4669  -13.6169    5.4081 H   0  0  0  0  0  0  0  0  0  0  0  0
   -5.6492  -14.7292    4.2588 H   0  0  0  0  0  0  0  0  0  0  0  0
   -7.4405  -14.5955    4.2588 H   0  0  0  0  0  0  0  0  0  0  0  0
   -3.0367  -16.2355    1.5126 H   0  0  0  0  0  0  0  0  0  0  0  0
   -0.8955  -15.4725    0.5053 H   0  0  0  0  0  0  0  0  0  0  0  0
    2.2714  -16.5223    2.0218 H   0  0  0  0  0  0  0  0  0  0  0  0
    5.2608  -15.9784   -0.7653 H   0  0  0  0  0  0  0  0  0  0  0  0
    7.4732  -16.9932   -1.2905 H   0  0  0  0  0  0  0  0  0  0  0  0
    9.5383  -15.6204   -1.1770 H   0  0  0  0  0  0  0  0  0  0  0  0
    9.2422  -11.1622    0.2992 H   0  0  0  0  0  0  0  0  0  0  0  0
    9.3641  -12.5140    1.4950 H   0  0  0  0  0  0  0  0  0  0  0  0
   11.2855  -10.8587    1.5980 H   0  0  0  0  0  0  0  0  0  0  0  0
   11.7786  -12.5688    1.2927 H   0  0  0  0  0  0  0  0  0  0  0  0
   11.4530  -10.4640   -0.7850 H   0  0  0  0  0  0  0  0  0  0  0  0
   13.5527  -10.7584    0.9408 H   0  0  0  0  0  0  0  0  0  0  0  0
   14.0817  -11.5322   -0.5916 H   0  0  0  0  0  0  0  0  0  0  0  0
   13.5346   -9.8213   -0.5916 H   0  0  0  0  0  0  0  0  0  0  0  0
   12.3976  -12.0458   -2.3654 H   0  0  0  0  0  0  0  0  0  0  0  0
   12.4229  -13.2681   -1.0382 H   0  0  0  0  0  0  0  0  0  0  0  0
    9.9596  -11.9070   -2.2543 H   0  0  0  0  0  0  0  0  0  0  0  0
   10.4365  -13.6464   -2.3843 H   0  0  0  0  0  0  0  0  0  0  0  0
    7.1957  -12.1828   -0.0435 H   0  0  0  0  0  0  0  0  0  0  0  0
    4.9739  -11.3280   -0.8424 H   0  0  0  0  0  0  0  0  0  0  0  0
    0.4910  -11.6650    2.0790 H   0  0  0  0  0  0  0  0  0  0  0  0
   -0.0710  -12.1920    0.4890 H   0  0  0  0  0  0  0  0  0  0  0  0
  1  2  1  0
  2  3  2  0
  3  4  1  0
  4  5  1  0
  5  6  1  0
  6  7  2  0
  6  8  1  0
  8  9  1  0
  9 10  1  0
 10 11  1  0
 10 12  1  0
  4 13  2  0
 13 14  1  0
 14 15  2  0
 15 16  1  0
 16 17  1  0
 17 18  2  0
 18 19  1  0
 19 20  2  0
 20 21  1  0
 21 22  2  0
 22 23  1  0
 23 24  2  0
 24 25  1  0
 25 26  1  0
 26 27  1  0
 27 28  1  0
 28 29  1  0
 29 30  1  0
 29 31  1  0
 31 32  1  0
 25 33  2  0
 20 34  1  0
 34 35  2  0
 35 36  1  0
 36 37  1  0
 37 38  1  0
 15  2  1  0
 37 16  2  0
 36 19  1  0
 33 21  1  0
 32 26  1  0
  1 39  1  0
  1 40  1  0
  1 41  1  0
  3 42  1  0
  5 43  1  0
  9 44  1  0
  9 45  1  0
 10 46  1  0
 11 47  1  0
 11 48  1  0
 11 49  1  0
 12 50  1  0
 12 51  1  0
 12 52  1  0
 13 53  1  0
 14 54  1  0
 17 55  1  0
 22 56  1  0
 23 57  1  0
 24 58  1  0
 27 59  1  0
 27 60  1  0
 28 61  1  0
 28 62  1  0
 29 63  1  0
 30 64  1  0
 30 65  1  0
 30 66  1  0
 31 67  1  0
 31 68  1  0
 32 69  1  0
 32 70  1  0
 33 71  1  0
 34 72  1  0
 38 73  1  0
 38 74  1  0
M  CHG  1  29   1
M  END
>  <meeko>  (6) 
{"is_sidechain": [false], "free_energy": -7.783, "intermolecular_energy": -11.432, "internal_energy": -0.85}

$$$$
LIB_SRDCKXVGOFJLJK__M_PUB_ALL__e8__s20260927
     RDKit          3D

 74 78  0  0  0  0  0  0  0  0999 V2000
    1.8770  -13.8360   -4.9420 C   0  0  0  0  0  0  0  0  0  0  0  0
    3.3100  -13.3910   -4.8290 C   0  0  0  0  0  0  0  0  0  0  0  0
    4.1160  -13.3660   -5.9830 C   0  0  0  0  0  0  0  0  0  0  0  0
    5.4590  -12.9710   -5.9290 C   0  0  0  0  0  0  0  0  0  0  0  0
    6.1820  -12.9780   -7.1320 N   0  0  0  0  0  0  0  0  0  0  0  0
    7.0660  -13.9130   -7.5870 C   0  0  0  0  0  0  0  0  0  0  0  0
    7.4180  -14.9480   -7.0410 O   0  0  0  0  0  0  0  0  0  0  0  0
    7.5210  -13.5020   -8.8020 O   0  0  0  0  0  0  0  0  0  0  0  0
    6.9020  -12.3060   -9.2970 C   0  0  0  0  0  0  0  0  0  0  0  0
    7.0520  -12.2580  -10.8220 C   0  0  0  0  0  0  0  0  0  0  0  0
    6.8500  -13.6410  -11.4450 C   0  0  0  0  0  0  0  0  0  0  0  0
    8.4200  -11.6970  -11.2060 C   0  0  0  0  0  0  0  0  0  0  0  0
    6.0030  -12.6000   -4.7010 C   0  0  0  0  0  0  0  0  0  0  0  0
    5.2180  -12.6210   -3.5450 C   0  0  0  0  0  0  0  0  0  0  0  0
    3.8730  -13.0120   -3.5970 C   0  0  0  0  0  0  0  0  0  0  0  0
    3.1000  -13.0190   -2.3480 C   0  0  0  0  0  0  0  0  0  0  0  0
    3.1310  -14.2160   -1.4530 C   0  0  0  0  0  0  0  0  0  0  0  0
    2.5030  -14.3640   -0.3260 N   0  0  0  0  0  0  0  0  0  0  0  0
    1.7360  -13.3030    0.0740 C   0  0  0  0  0  0  0  0  0  0  0  0
    0.9400  -13.0990    1.1880 C   0  0  0  0  0  0  0  0  0  0  0  0
    0.7250  -14.0550    2.2620 C   0  0  0  0  0  0  0  0  0  0  0  0
    1.8000  -14.6570    2.9170 C   0  0  0  0  0  0  0  0  0  0  0  0
    1.5700  -15.5580    3.9520 C   0  0  0  0  0  0  0  0  0  0  0  0
    0.2620  -15.8690    4.3340 C   0  0  0  0  0  0  0  0  0  0  0  0
   -0.8460  -15.2950    3.6930 C   0  0  0  0  0  0  0  0  0  0  0  0
   -2.1430  -15.6350    4.0870 N   0  0  0  0  0  0  0  0  0  0  0  0
   -2.2770  -16.8050    4.9750 C   0  0  0  0  0  0  0  0  0  0  0  0
   -3.6200  -16.7810    5.7310 C   0  0  0  0  0  0  0  0  0  0  0  0
   -4.7830  -16.6040    4.7590 N   0  0  0  0  0  0  0  0  0  0  0  0
   -6.1100  -16.6540    5.4520 C   0  0  0  0  0  0  0  0  0  0  0  0
   -4.6040  -15.3210    3.9510 C   0  0  0  0  0  0  0  0  0  0  0  0
   -3.2690  -15.3480    3.1830 C   0  0  0  0  0  0  0  0  0  0  0  0
   -0.5860  -14.3750    2.6620 C   0  0  0  0  0  0  0  0  0  0  0  0
    0.4040  -11.8090    1.0100 C   0  0  0  0  0  0  0  0  0  0  0  0
    0.7990  -11.2210   -0.1170 N   0  0  0  0  0  0  0  0  0  0  0  0
    1.6320  -12.1370   -0.7000 N   0  0  0  0  0  0  0  0  0  0  0  0
    2.3280  -11.9920   -1.9310 C   0  0  0  0  0  0  0  0  0  0  0  0
    2.1550  -10.8020   -2.6090 N   0  0  0  0  0  0  0  0  0  0  0  0
    1.4534  -13.9675   -3.9354 H   0  0  0  0  0  0  0  0  0  0  0  0
    1.2986  -13.0751   -5.4866 H   0  0  0  0  0  0  0  0  0  0  0  0
    1.8314  -14.7906   -5.4866 H   0  0  0  0  0  0  0  0  0  0  0  0
    3.6815  -13.6633   -6.9488 H   0  0  0  0  0  0  0  0  0  0  0  0
    6.0580  -12.2050   -7.7710 H   0  0  0  0  0  0  0  0  0  0  0  0
    5.8345  -12.3068   -9.0317 H   0  0  0  0  0  0  0  0  0  0  0  0
    7.3858  -11.4255   -8.8490 H   0  0  0  0  0  0  0  0  0  0  0  0
    6.2708  -11.5916  -11.2166 H   0  0  0  0  0  0  0  0  0  0  0  0
    6.7406  -14.3902  -10.6470 H   0  0  0  0  0  0  0  0  0  0  0  0
    5.9434  -13.6337  -12.0679 H   0  0  0  0  0  0  0  0  0  0  0  0
    7.7208  -13.8933  -12.0679 H   0  0  0  0  0  0  0  0  0  0  0  0
    8.9896  -11.4634  -10.2944 H   0  0  0  0  0  0  0  0  0  0  0  0
    8.9685  -12.4428  -11.8001 H   0  0  0  0  0  0  0  0  0  0  0  0
    8.2870  -10.7808  -11.8001 H   0  0  0  0  0  0  0  0  0  0  0  0
    7.0564  -12.2888   -4.6411 H   0  0  0  0  0  0  0  0  0  0  0  0
    5.6612  -12.3270   -2.5821 H   0  0  0  0  0  0  0  0  0  0  0  0
    3.7519  -15.0614   -1.7843 H   0  0  0  0  0  0  0  0  0  0  0  0
    2.8305  -14.4190    2.6147 H   0  0  0  0  0  0  0  0  0  0  0  0
    2.4194  -16.0265    4.4707 H   0  0  0  0  0  0  0  0  0  0  0  0
    0.0975  -16.5806    5.1566 H   0  0  0  0  0  0  0  0  0  0  0  0
   -2.2221  -17.7223    4.3704 H   0  0  0  0  0  0  0  0  0  0  0  0
   -1.4617  -16.7770    5.7129 H   0  0  0  0  0  0  0  0  0  0  0  0
   -3.7451  -17.7288    6.2750 H   0  0  0  0  0  0  0  0  0  0  0  0
   -3.6149  -15.9351    6.4342 H   0  0  0  0  0  0  0  0  0  0  0  0
   -4.7440  -17.3890    4.0950 H   0  0  0  0  0  0  0  0  0  0  0  0
   -5.9554  -16.6482    6.5411 H   0  0  0  0  0  0  0  0  0  0  0  0
   -6.7084  -15.7778    5.1619 H   0  0  0  0  0  0  0  0  0  0  0  0
   -6.6408  -17.5728    5.1619 H   0  0  0  0  0  0  0  0  0  0  0  0
   -5.4324  -15.2267    3.2335 H   0  0  0  0  0  0  0  0  0  0  0  0
   -4.5999  -14.4642    4.6408 H   0  0  0  0  0  0  0  0  0  0  0  0
   -3.3158  -16.1279    2.4086 H   0  0  0  0  0  0  0  0  0  0  0  0
   -3.1081  -14.3598    2.7274 H   0  0  0  0  0  0  0  0  0  0  0  0
   -1.4324  -13.8909    2.1528 H   0  0  0  0  0  0  0  0  0  0  0  0
   -0.2755  -11.3332    1.7325 H   0  0  0  0  0  0  0  0  0  0  0  0
    2.0670  -10.7790   -3.6170 H   0  0  0  0  0  0  0  0  0  0  0  0
    2.1210   -9.9450   -2.0600 H   0  0  0  0  0  0  0  0  0  0  0  0
  1  2  1  0
  2  3  2  0
  3  4  1  0
  4  5  1  0
  5  6  1  0
  6  7  2  0
  6  8  1  0
  8  9  1  0
  9 10  1  0
 10 11  1  0
 10 12  1  0
  4 13  2  0
 13 14  1  0
 14 15  2  0
 15 16  1  0
 16 17  1  0
 17 18  2  0
 18 19  1  0
 19 20  2  0
 20 21  1  0
 21 22  2  0
 22 23  1  0
 23 24  2  0
 24 25  1  0
 25 26  1  0
 26 27  1  0
 27 28  1  0
 28 29  1  0
 29 30  1  0
 29 31  1  0
 31 32  1  0
 25 33  2  0
 20 34  1  0
 34 35  2  0
 35 36  1  0
 36 37  1  0
 37 38  1  0
 15  2  1  0
 37 16  2  0
 36 19  1  0
 33 21  1  0
 32 26  1  0
  1 39  1  0
  1 40  1  0
  1 41  1  0
  3 42  1  0
  5 43  1  0
  9 44  1  0
  9 45  1  0
 10 46  1  0
 11 47  1  0
 11 48  1  0
 11 49  1  0
 12 50  1  0
 12 51  1  0
 12 52  1  0
 13 53  1  0
 14 54  1  0
 17 55  1  0
 22 56  1  0
 23 57  1  0
 24 58  1  0
 27 59  1  0
 27 60  1  0
 28 61  1  0
 28 62  1  0
 29 63  1  0
 30 64  1  0
 30 65  1  0
 30 66  1  0
 31 67  1  0
 31 68  1  0
 32 69  1  0
 32 70  1  0
 33 71  1  0
 34 72  1  0
 38 73  1  0
 38 74  1  0
M  CHG  1  29   1
M  END
>  <meeko>  (7) 
{"is_sidechain": [false], "free_energy": -7.724, "intermolecular_energy": -11.17, "internal_energy": -1.026}

$$$$
LIB_SRDCKXVGOFJLJK__M_PUB_ALL__e8__s20260927
     RDKit          3D

 74 78  0  0  0  0  0  0  0  0999 V2000
    1.2980  -13.7380   -4.7310 C   0  0  0  0  0  0  0  0  0  0  0  0
    2.7350  -13.4460   -4.3910 C   0  0  0  0  0  0  0  0  0  0  0  0
    3.7120  -13.5320   -5.4010 C   0  0  0  0  0  0  0  0  0  0  0  0
    5.0640  -13.2810   -5.1340 C   0  0  0  0  0  0  0  0  0  0  0  0
    5.9640  -13.3910   -6.2050 N   0  0  0  0  0  0  0  0  0  0  0  0
    6.5420  -14.5170   -6.7180 C   0  0  0  0  0  0  0  0  0  0  0  0
    6.3980  -15.6730   -6.3510 O   0  0  0  0  0  0  0  0  0  0  0  0
    7.3430  -14.1410   -7.7520 O   0  0  0  0  0  0  0  0  0  0  0  0
    6.6950  -13.3330   -8.7450 C   0  0  0  0  0  0  0  0  0  0  0  0
    6.6200  -14.1200  -10.0600 C   0  0  0  0  0  0  0  0  0  0  0  0
    7.6870  -15.2140  -10.1150 C   0  0  0  0  0  0  0  0  0  0  0  0
    6.7640  -13.1770  -11.2540 C   0  0  0  0  0  0  0  0  0  0  0  0
    5.4420  -12.9430   -3.8360 C   0  0  0  0  0  0  0  0  0  0  0  0
    4.4860  -12.8550   -2.8210 C   0  0  0  0  0  0  0  0  0  0  0  0
    3.1330  -13.1020   -3.0870 C   0  0  0  0  0  0  0  0  0  0  0  0
    2.1740  -12.9990   -1.9780 C   0  0  0  0  0  0  0  0  0  0  0  0
    1.7250  -14.2300   -1.2580 C   0  0  0  0  0  0  0  0  0  0  0  0
    0.8890  -14.2930   -0.2660 N   0  0  0  0  0  0  0  0  0  0  0  0
    0.3730  -13.0970    0.1560 C   0  0  0  0  0  0  0  0  0  0  0  0
   -0.5270  -12.7750    1.1570 C   0  0  0  0  0  0  0  0  0  0  0  0
   -1.1770  -13.7210    2.0490 C   0  0  0  0  0  0  0  0  0  0  0  0
   -2.5650  -13.8680    2.0560 C   0  0  0  0  0  0  0  0  0  0  0  0
   -3.1640  -14.7910    2.9090 C   0  0  0  0  0  0  0  0  0  0  0  0
   -2.3790  -15.5660    3.7660 C   0  0  0  0  0  0  0  0  0  0  0  0
   -0.9820  -15.4390    3.7990 C   0  0  0  0  0  0  0  0  0  0  0  0
   -0.2240  -16.2180    4.6760 N   0  0  0  0  0  0  0  0  0  0  0  0
    0.4590  -15.5020    5.7720 C   0  0  0  0  0  0  0  0  0  0  0  0
    0.8190  -16.4610    6.9250 C   0  0  0  0  0  0  0  0  0  0  0  0
    1.5880  -17.6700    6.4010 N   0  0  0  0  0  0  0  0  0  0  0  0
    2.0220  -18.5840    7.5040 C   0  0  0  0  0  0  0  0  0  0  0  0
    0.7650  -18.3980    5.3410 C   0  0  0  0  0  0  0  0  0  0  0  0
    0.4150  -17.4470    4.1800 C   0  0  0  0  0  0  0  0  0  0  0  0
   -0.4010  -14.5130    2.9150 C   0  0  0  0  0  0  0  0  0  0  0  0
   -0.6600  -11.3750    1.0770 C   0  0  0  0  0  0  0  0  0  0  0  0
    0.0720  -10.8260    0.1110 N   0  0  0  0  0  0  0  0  0  0  0  0
    0.7220  -11.8860   -0.4610 N   0  0  0  0  0  0  0  0  0  0  0  0
    1.6410  -11.8360   -1.5450 C   0  0  0  0  0  0  0  0  0  0  0  0
    1.9140  -10.5910   -2.0740 N   0  0  0  0  0  0  0  0  0  0  0  0
    0.7184  -13.8558   -3.8035 H   0  0  0  0  0  0  0  0  0  0  0  0
    0.8839  -12.9056   -5.3190 H   0  0  0  0  0  0  0  0  0  0  0  0
    1.2416  -14.6660   -5.3190 H   0  0  0  0  0  0  0  0  0  0  0  0
    3.4069  -13.8023   -6.4227 H   0  0  0  0  0  0  0  0  0  0  0  0
    6.2460  -12.5470   -6.6840 H   0  0  0  0  0  0  0  0  0  0  0  0
    5.6788  -13.0799   -8.4085 H   0  0  0  0  0  0  0  0  0  0  0  0
    7.2662  -12.4057   -8.8995 H   0  0  0  0  0  0  0  0  0  0  0  0
    5.6343  -14.6060  -10.1067 H   0  0  0  0  0  0  0  0  0  0  0  0
    7.9689  -15.5030   -9.0918 H   0  0  0  0  0  0  0  0  0  0  0  0
    7.2869  -16.0901  -10.6464 H   0  0  0  0  0  0  0  0  0  0  0  0
    8.5728  -14.8359  -10.6464 H   0  0  0  0  0  0  0  0  0  0  0  0
    6.9209  -12.1498  -10.8931 H   0  0  0  0  0  0  0  0  0  0  0  0
    7.6252  -13.4868  -11.8641 H   0  0  0  0  0  0  0  0  0  0  0  0
    5.8495  -13.2157  -11.8641 H   0  0  0  0  0  0  0  0  0  0  0  0
    6.4998  -12.7442   -3.6091 H   0  0  0  0  0  0  0  0  0  0  0  0
    4.7995  -12.5886   -1.8008 H   0  0  0  0  0  0  0  0  0  0  0  0
    2.1478  -15.1842   -1.6055 H   0  0  0  0  0  0  0  0  0  0  0  0
   -3.1861  -13.2541    1.3871 H   0  0  0  0  0  0  0  0  0  0  0  0
   -4.2575  -14.9102    2.9081 H   0  0  0  0  0  0  0  0  0  0  0  0
   -2.8678  -16.2933    4.4309 H   0  0  0  0  0  0  0  0  0  0  0  0
    1.3815  -15.0463    5.3829 H   0  0  0  0  0  0  0  0  0  0  0  0
   -0.2209  -14.7295    6.1606 H   0  0  0  0  0  0  0  0  0  0  0  0
    1.4417  -15.9269    7.6578 H   0  0  0  0  0  0  0  0  0  0  0  0
   -0.1108  -16.8109    7.3972 H   0  0  0  0  0  0  0  0  0  0  0  0
    2.4330  -17.3130    5.9360 H   0  0  0  0  0  0  0  0  0  0  0  0
    1.8005  -18.1175    8.4753 H   0  0  0  0  0  0  0  0  0  0  0  0
    1.4809  -19.5383    7.4237 H   0  0  0  0  0  0  0  0  0  0  0  0
    3.1035  -18.7678    7.4237 H   0  0  0  0  0  0  0  0  0  0  0  0
    1.3467  -19.2462    4.9510 H   0  0  0  0  0  0  0  0  0  0  0  0
   -0.1682  -18.7563    5.8002 H   0  0  0  0  0  0  0  0  0  0  0  0
    1.3375  -17.1808    3.6432 H   0  0  0  0  0  0  0  0  0  0  0  0
   -0.2890  -17.9601    3.5083 H   0  0  0  0  0  0  0  0  0  0  0  0
    0.6935  -14.4044    2.9000 H   0  0  0  0  0  0  0  0  0  0  0  0
   -1.3069  -10.7916    1.7487 H   0  0  0  0  0  0  0  0  0  0  0  0
    1.1710   -9.9440   -2.3060 H   0  0  0  0  0  0  0  0  0  0  0  0
    2.8900  -10.3450   -2.2250 H   0  0  0  0  0  0  0  0  0  0  0  0
  1  2  1  0
  2  3  2  0
  3  4  1  0
  4  5  1  0
  5  6  1  0
  6  7  2  0
  6  8  1  0
  8  9  1  0
  9 10  1  0
 10 11  1  0
 10 12  1  0
  4 13  2  0
 13 14  1  0
 14 15  2  0
 15 16  1  0
 16 17  1  0
 17 18  2  0
 18 19  1  0
 19 20  2  0
 20 21  1  0
 21 22  2  0
 22 23  1  0
 23 24  2  0
 24 25  1  0
 25 26  1  0
 26 27  1  0
 27 28  1  0
 28 29  1  0
 29 30  1  0
 29 31  1  0
 31 32  1  0
 25 33  2  0
 20 34  1  0
 34 35  2  0
 35 36  1  0
 36 37  1  0
 37 38  1  0
 15  2  1  0
 37 16  2  0
 36 19  1  0
 33 21  1  0
 32 26  1  0
  1 39  1  0
  1 40  1  0
  1 41  1  0
  3 42  1  0
  5 43  1  0
  9 44  1  0
  9 45  1  0
 10 46  1  0
 11 47  1  0
 11 48  1  0
 11 49  1  0
 12 50  1  0
 12 51  1  0
 12 52  1  0
 13 53  1  0
 14 54  1  0
 17 55  1  0
 22 56  1  0
 23 57  1  0
 24 58  1  0
 27 59  1  0
 27 60  1  0
 28 61  1  0
 28 62  1  0
 29 63  1  0
 30 64  1  0
 30 65  1  0
 30 66  1  0
 31 67  1  0
 31 68  1  0
 32 69  1  0
 32 70  1  0
 33 71  1  0
 34 72  1  0
 38 73  1  0
 38 74  1  0
M  CHG  1  29   1
M  END
>  <meeko>  (8) 
{"is_sidechain": [false], "free_energy": -7.668, "intermolecular_energy": -11.08, "internal_energy": -1.036}

$$$$
LIB_SRDCKXVGOFJLJK__M_PUB_ALL__e8__s20260927
     RDKit          3D

 74 78  0  0  0  0  0  0  0  0999 V2000
    4.3860  -11.4400   -2.2270 C   0  0  0  0  0  0  0  0  0  0  0  0
    3.7920  -12.3080   -1.1500 C   0  0  0  0  0  0  0  0  0  0  0  0
    2.3930  -12.3670   -1.0070 C   0  0  0  0  0  0  0  0  0  0  0  0
    1.7920  -13.1500   -0.0130 C   0  0  0  0  0  0  0  0  0  0  0  0
    0.3900  -13.1460    0.0510 N   0  0  0  0  0  0  0  0  0  0  0  0
   -0.4190  -12.5190    0.9550 C   0  0  0  0  0  0  0  0  0  0  0  0
   -0.0910  -11.8250    1.9050 O   0  0  0  0  0  0  0  0  0  0  0  0
   -1.7090  -12.7950    0.6240 O   0  0  0  0  0  0  0  0  0  0  0  0
   -2.6700  -11.8660    1.1450 C   0  0  0  0  0  0  0  0  0  0  0  0
   -2.7830  -10.6730    0.1870 C   0  0  0  0  0  0  0  0  0  0  0  0
   -2.6710   -9.3440    0.9370 C   0  0  0  0  0  0  0  0  0  0  0  0
   -4.0970  -10.7350   -0.5900 C   0  0  0  0  0  0  0  0  0  0  0  0
    2.6050  -13.8800    0.8520 C   0  0  0  0  0  0  0  0  0  0  0  0
    3.9960  -13.8310    0.7260 C   0  0  0  0  0  0  0  0  0  0  0  0
    4.5990  -13.0520   -0.2700 C   0  0  0  0  0  0  0  0  0  0  0  0
    6.0660  -13.0360   -0.3500 C   0  0  0  0  0  0  0  0  0  0  0  0
    6.7660  -13.7930   -1.4320 C   0  0  0  0  0  0  0  0  0  0  0  0
    8.0480  -13.8690   -1.6270 N   0  0  0  0  0  0  0  0  0  0  0  0
    8.8290  -13.1770   -0.7400 C   0  0  0  0  0  0  0  0  0  0  0  0
   10.2010  -13.0290   -0.6290 C   0  0  0  0  0  0  0  0  0  0  0  0
   11.1920  -13.6340   -1.5030 C   0  0  0  0  0  0  0  0  0  0  0  0
   12.0550  -12.8460   -2.2680 C   0  0  0  0  0  0  0  0  0  0  0  0
   13.0060  -13.4480   -3.0860 C   0  0  0  0  0  0  0  0  0  0  0  0
   13.0950  -14.8410   -3.1520 C   0  0  0  0  0  0  0  0  0  0  0  0
   12.2380  -15.6680   -2.4080 C   0  0  0  0  0  0  0  0  0  0  0  0
   12.3410  -17.0580   -2.5050 N   0  0  0  0  0  0  0  0  0  0  0  0
   11.7890  -17.8390   -1.3810 C   0  0  0  0  0  0  0  0  0  0  0  0
   11.4970  -19.2930   -1.8040 C   0  0  0  0  0  0  0  0  0  0  0  0
   12.7260  -19.9240   -2.4520 N   0  0  0  0  0  0  0  0  0  0  0  0
   12.5030  -21.3610   -2.8040 C   0  0  0  0  0  0  0  0  0  0  0  0
   13.1670  -19.0980   -3.6580 C   0  0  0  0  0  0  0  0  0  0  0  0
   13.4730  -17.6470   -3.2370 C   0  0  0  0  0  0  0  0  0  0  0  0
   11.2990  -15.0350   -1.5770 C   0  0  0  0  0  0  0  0  0  0  0  0
   10.3780  -12.2050    0.5000 C   0  0  0  0  0  0  0  0  0  0  0  0
    9.2350  -11.8530    1.0840 N   0  0  0  0  0  0  0  0  0  0  0  0
    8.2690  -12.4440    0.3170 N   0  0  0  0  0  0  0  0  0  0  0  0
    6.8630  -12.3710    0.5130 C   0  0  0  0  0  0  0  0  0  0  0  0
    6.4210  -11.6190    1.5840 N   0  0  0  0  0  0  0  0  0  0  0  0
    4.9497  -10.6163   -1.7647 H   0  0  0  0  0  0  0  0  0  0  0  0
    5.0624  -12.0420   -2.8516 H   0  0  0  0  0  0  0  0  0  0  0  0
    3.5800  -11.0275   -2.8516 H   0  0  0  0  0  0  0  0  0  0  0  0
    1.7575  -11.7853   -1.6910 H   0  0  0  0  0  0  0  0  0  0  0  0
   -0.1240  -13.6660   -0.6470 H   0  0  0  0  0  0  0  0  0  0  0  0
   -3.6487  -12.3600    1.2357 H   0  0  0  0  0  0  0  0  0  0  0  0
   -2.3484  -11.5163    2.1371 H   0  0  0  0  0  0  0  0  0  0  0  0
   -1.9460  -10.7321   -0.5242 H   0  0  0  0  0  0  0  0  0  0  0  0
   -2.6868   -9.5321    2.0207 H   0  0  0  0  0  0  0  0  0  0  0  0
   -1.7278   -8.8477    0.6647 H   0  0  0  0  0  0  0  0  0  0  0  0
   -3.5178   -8.6968    0.6647 H   0  0  0  0  0  0  0  0  0  0  0  0
   -4.9392  -10.7747    0.1165 H   0  0  0  0  0  0  0  0  0  0  0  0
   -4.1913   -9.8403   -1.2230 H   0  0  0  0  0  0  0  0  0  0  0  0
   -4.1066  -11.6346   -1.2230 H   0  0  0  0  0  0  0  0  0  0  0  0
    2.1490  -14.4987    1.6389 H   0  0  0  0  0  0  0  0  0  0  0  0
    4.6250  -14.4111    1.4173 H   0  0  0  0  0  0  0  0  0  0  0  0
    6.1278  -14.3443   -2.1382 H   0  0  0  0  0  0  0  0  0  0  0  0
   11.9828  -11.7493   -2.2238 H   0  0  0  0  0  0  0  0  0  0  0  0
   13.6896  -12.8258   -3.6823 H   0  0  0  0  0  0  0  0  0  0  0  0
   13.8542  -15.3005   -3.8020 H   0  0  0  0  0  0  0  0  0  0  0  0
   12.5166  -17.8443   -0.5560 H   0  0  0  0  0  0  0  0  0  0  0  0
   10.8453  -17.3723   -1.0621 H   0  0  0  0  0  0  0  0  0  0  0  0
   11.2168  -19.8781   -0.9156 H   0  0  0  0  0  0  0  0  0  0  0  0
   10.6745  -19.2902   -2.5344 H   0  0  0  0  0  0  0  0  0  0  0  0
   13.4870  -19.8820   -1.7620 H   0  0  0  0  0  0  0  0  0  0  0  0
   12.4109  -21.9543   -1.8823 H   0  0  0  0  0  0  0  0  0  0  0  0
   11.5795  -21.4549   -3.3943 H   0  0  0  0  0  0  0  0  0  0  0  0
   13.3546  -21.7303   -3.3943 H   0  0  0  0  0  0  0  0  0  0  0  0
   14.0721  -19.5471   -4.0927 H   0  0  0  0  0  0  0  0  0  0  0  0
   12.3541  -19.0891   -4.3990 H   0  0  0  0  0  0  0  0  0  0  0  0
   14.3620  -17.6408   -2.5892 H   0  0  0  0  0  0  0  0  0  0  0  0
   13.6512  -17.0503   -4.1438 H   0  0  0  0  0  0  0  0  0  0  0  0
   10.6263  -15.6539   -0.9650 H   0  0  0  0  0  0  0  0  0  0  0  0
   11.3652  -11.8837    0.8636 H   0  0  0  0  0  0  0  0  0  0  0  0
    5.9450  -10.7360    1.4450 H   0  0  0  0  0  0  0  0  0  0  0  0
    6.5930  -11.9810    2.5190 H   0  0  0  0  0  0  0  0  0  0  0  0
  1  2  1  0
  2  3  2  0
  3  4  1  0
  4  5  1  0
  5  6  1  0
  6  7  2  0
  6  8  1  0
  8  9  1  0
  9 10  1  0
 10 11  1  0
 10 12  1  0
  4 13  2  0
 13 14  1  0
 14 15  2  0
 15 16  1  0
 16 17  1  0
 17 18  2  0
 18 19  1  0
 19 20  2  0
 20 21  1  0
 21 22  2  0
 22 23  1  0
 23 24  2  0
 24 25  1  0
 25 26  1  0
 26 27  1  0
 27 28  1  0
 28 29  1  0
 29 30  1  0
 29 31  1  0
 31 32  1  0
 25 33  2  0
 20 34  1  0
 34 35  2  0
 35 36  1  0
 36 37  1  0
 37 38  1  0
 15  2  1  0
 37 16  2  0
 36 19  1  0
 33 21  1  0
 32 26  1  0
  1 39  1  0
  1 40  1  0
  1 41  1  0
  3 42  1  0
  5 43  1  0
  9 44  1  0
  9 45  1  0
 10 46  1  0
 11 47  1  0
 11 48  1  0
 11 49  1  0
 12 50  1  0
 12 51  1  0
 12 52  1  0
 13 53  1  0
 14 54  1  0
 17 55  1  0
 22 56  1  0
 23 57  1  0
 24 58  1  0
 27 59  1  0
 27 60  1  0
 28 61  1  0
 28 62  1  0
 29 63  1  0
 30 64  1  0
 30 65  1  0
 30 66  1  0
 31 67  1  0
 31 68  1  0
 32 69  1  0
 32 70  1  0
 33 71  1  0
 34 72  1  0
 38 73  1  0
 38 74  1  0
M  CHG  1  29   1
M  END
>  <meeko>  (9) 
{"is_sidechain": [false], "free_energy": -7.556, "intermolecular_energy": -10.998, "internal_energy": -0.957}

$$$$
