LIB_PTWXGAHPCIQUHL__M_PUB_ALL__e8__s20260927
     RDKit          3D

 69 73  0  0  0  0  0  0  0  0999 V2000
    6.6290  -15.0080   -0.8850 C   0  0  0  0  0  0  0  0  0  0  0  0
    6.7720  -14.6130   -2.3300 C   0  0  0  0  0  0  0  0  0  0  0  0
    5.6190  -14.4510   -3.1110 C   0  0  0  0  0  0  0  0  0  0  0  0
    5.7130  -14.1330   -4.4670 C   0  0  0  0  0  0  0  0  0  0  0  0
    6.9590  -13.9220   -5.0510 C   0  0  0  0  0  0  0  0  0  0  0  0
    7.1230  -13.5760   -6.4080 N   0  0  0  0  0  0  0  0  0  0  0  0
    7.0310  -14.4500   -7.4720 C   0  0  0  0  0  0  0  0  0  0  0  0
    7.0000  -15.6780   -7.3720 O   0  0  0  0  0  0  0  0  0  0  0  0
    7.0690  -13.8390   -8.8270 C   0  0  0  0  0  0  0  0  0  0  0  0
    7.2560  -14.6850   -9.9260 C   0  0  0  0  0  0  0  0  0  0  0  0
    7.3160  -14.1550  -11.2150 C   0  0  0  0  0  0  0  0  0  0  0  0
    7.2000  -12.7790  -11.4110 C   0  0  0  0  0  0  0  0  0  0  0  0
    7.0210  -11.9140  -10.3200 C   0  0  0  0  0  0  0  0  0  0  0  0
    6.9330  -10.4190  -10.5230 C   0  0  0  0  0  0  0  0  0  0  0  0
    6.6660   -9.7680   -9.3590 F   0  0  0  0  0  0  0  0  0  0  0  0
    8.0700   -9.8670  -11.0210 F   0  0  0  0  0  0  0  0  0  0  0  0
    5.9340  -10.0750  -11.3820 F   0  0  0  0  0  0  0  0  0  0  0  0
    6.9650  -12.4550   -9.0230 C   0  0  0  0  0  0  0  0  0  0  0  0
    8.1090  -14.0390   -4.2690 C   0  0  0  0  0  0  0  0  0  0  0  0
    8.0410  -14.4470   -2.9260 C   0  0  0  0  0  0  0  0  0  0  0  0
    9.2040  -14.7970   -2.2040 N   0  0  0  0  0  0  0  0  0  0  0  0
   10.1460  -13.9830   -1.6640 C   0  0  0  0  0  0  0  0  0  0  0  0
    9.9860  -13.4050   -0.4950 N   0  0  0  0  0  0  0  0  0  0  0  0
   10.9960  -12.4930   -0.3870 C   0  0  0  0  0  0  0  0  0  0  0  0
   11.2290  -11.5590    0.6330 C   0  0  0  0  0  0  0  0  0  0  0  0
   12.3320  -10.7050    0.5350 C   0  0  0  0  0  0  0  0  0  0  0  0
   13.1940  -10.7870   -0.5570 C   0  0  0  0  0  0  0  0  0  0  0  0
   12.9830  -11.7210   -1.5790 C   0  0  0  0  0  0  0  0  0  0  0  0
   11.8620  -12.5630   -1.4760 C   0  0  0  0  0  0  0  0  0  0  0  0
   11.3760  -13.6250   -2.2380 N   0  0  0  0  0  0  0  0  0  0  0  0
   12.0430  -14.2020   -3.3670 C   0  0  0  0  0  0  0  0  0  0  0  0
   11.9460  -13.6110   -4.6120 C   0  0  0  0  0  0  0  0  0  0  0  0
   12.7220  -14.1270   -5.6340 C   0  0  0  0  0  0  0  0  0  0  0  0
   12.7280  -13.4850   -6.8570 N   0  0  0  0  0  0  0  0  0  0  0  0
   12.3810  -14.1290   -8.1110 C   0  0  0  0  0  0  0  0  0  0  0  0
   10.9060  -13.9070   -8.4580 C   0  0  0  0  0  0  0  0  0  0  0  0
   10.6880  -13.2410   -9.8090 C   0  0  0  0  0  0  0  0  0  0  0  0
   11.4670  -12.0080   -9.9360 N   0  0  0  0  0  0  0  0  0  0  0  0
   13.5480  -15.1720   -5.4350 N   0  0  0  0  0  0  0  0  0  0  0  0
   13.4670  -15.7650   -4.2290 C   0  0  0  0  0  0  0  0  0  0  0  0
   12.7750  -15.3210   -3.1770 N   0  0  0  0  0  0  0  0  0  0  0  0
    6.9332  -14.1679   -0.2434 H   0  0  0  0  0  0  0  0  0  0  0  0
    5.5802  -15.2667   -0.6777 H   0  0  0  0  0  0  0  0  0  0  0  0
    7.2692  -15.8782   -0.6777 H   0  0  0  0  0  0  0  0  0  0  0  0
    4.6283  -14.5760   -2.6497 H   0  0  0  0  0  0  0  0  0  0  0  0
    4.8005  -14.0489   -5.0755 H   0  0  0  0  0  0  0  0  0  0  0  0
    7.3480  -12.6040   -6.5880 H   0  0  0  0  0  0  0  0  0  0  0  0
    7.3558  -15.7697   -9.7732 H   0  0  0  0  0  0  0  0  0  0  0  0
    7.4550  -14.8231  -12.0778 H   0  0  0  0  0  0  0  0  0  0  0  0
    7.2492  -12.3677  -12.4300 H   0  0  0  0  0  0  0  0  0  0  0  0
    6.8388  -11.7881   -8.1574 H   0  0  0  0  0  0  0  0  0  0  0  0
    9.0884  -13.8072   -4.7129 H   0  0  0  0  0  0  0  0  0  0  0  0
    9.1610  -15.7320   -1.8040 H   0  0  0  0  0  0  0  0  0  0  0  0
   10.5530  -11.4990    1.4987 H   0  0  0  0  0  0  0  0  0  0  0  0
   12.5206   -9.9634    1.3253 H   0  0  0  0  0  0  0  0  0  0  0  0
   14.0556  -10.1058   -0.6173 H   0  0  0  0  0  0  0  0  0  0  0  0
   13.6715  -11.7933   -2.4338 H   0  0  0  0  0  0  0  0  0  0  0  0
   11.2735  -12.7578   -4.7848 H   0  0  0  0  0  0  0  0  0  0  0  0
   12.5910  -12.4780   -6.8290 H   0  0  0  0  0  0  0  0  0  0  0  0
   13.0054  -13.7105   -8.9141 H   0  0  0  0  0  0  0  0  0  0  0  0
   12.5556  -15.2101   -8.0074 H   0  0  0  0  0  0  0  0  0  0  0  0
   10.4007  -14.8840   -8.4671 H   0  0  0  0  0  0  0  0  0  0  0  0
   10.4954  -13.2287   -7.6956 H   0  0  0  0  0  0  0  0  0  0  0  0
   10.9920  -13.9383  -10.6036 H   0  0  0  0  0  0  0  0  0  0  0  0
    9.6220  -12.9841   -9.8970 H   0  0  0  0  0  0  0  0  0  0  0  0
   12.3510  -12.0540   -9.3990 H   0  0  0  0  0  0  0  0  0  0  0  0
   10.9610  -11.1620   -9.6050 H   0  0  0  0  0  0  0  0  0  0  0  0
   11.7050  -11.7890  -10.9070 H   0  0  0  0  0  0  0  0  0  0  0  0
   14.0238  -16.7046   -4.0979 H   0  0  0  0  0  0  0  0  0  0  0  0
  1  2  1  0
  2  3  2  0
  3  4  1  0
  4  5  2  0
  5  6  1  0
  6  7  1  0
  7  8  2  0
  7  9  1  0
  9 10  2  0
 10 11  1  0
 11 12  2  0
 12 13  1  0
 13 14  1  0
 14 15  1  0
 14 16  1  0
 14 17  1  0
 13 18  2  0
  5 19  1  0
 19 20  2  0
 20 21  1  0
 21 22  1  0
 22 23  2  0
 23 24  1  0
 24 25  2  0
 25 26  1  0
 26 27  2  0
 27 28  1  0
 28 29  2  0
 29 30  1  0
 30 31  1  0
 31 32  2  0
 32 33  1  0
 33 34  1  0
 34 35  1  0
 35 36  1  0
 36 37  1  0
 37 38  1  0
 33 39  2  0
 39 40  1  0
 40 41  2  0
 20  2  1  0
 30 22  1  0
 41 31  1  0
 18  9  1  0
 29 24  1  0
  1 42  1  0
  1 43  1  0
  1 44  1  0
  3 45  1  0
  4 46  1  0
  6 47  1  0
 10 48  1  0
 11 49  1  0
 12 50  1  0
 18 51  1  0
 19 52  1  0
 21 53  1  0
 25 54  1  0
 26 55  1  0
 27 56  1  0
 28 57  1  0
 32 58  1  0
 34 59  1  0
 35 60  1  0
 35 61  1  0
 36 62  1  0
 36 63  1  0
 37 64  1  0
 37 65  1  0
 38 66  1  0
 38 67  1  0
 38 68  1  0
 40 69  1  0
M  CHG  1  38   1
M  END
>  <meeko>  (1) 
{"is_sidechain": [false], "free_energy": -8.705, "intermolecular_energy": -14.049, "internal_energy": -2.82}

$$$$
LIB_PTWXGAHPCIQUHL__M_PUB_ALL__e8__s20260927
     RDKit          3D

 69 73  0  0  0  0  0  0  0  0999 V2000
    5.5350  -12.6480   -5.4780 C   0  0  0  0  0  0  0  0  0  0  0  0
    4.5620  -12.5570   -4.3340 C   0  0  0  0  0  0  0  0  0  0  0  0
    3.2940  -13.1420   -4.4670 C   0  0  0  0  0  0  0  0  0  0  0  0
    2.3480  -13.0370   -3.4470 C   0  0  0  0  0  0  0  0  0  0  0  0
    2.6700  -12.3880   -2.2580 C   0  0  0  0  0  0  0  0  0  0  0  0
    1.7690  -12.2650   -1.1800 N   0  0  0  0  0  0  0  0  0  0  0  0
    1.6240  -13.1750   -0.1530 C   0  0  0  0  0  0  0  0  0  0  0  0
    2.1080  -14.3080   -0.1450 O   0  0  0  0  0  0  0  0  0  0  0  0
    0.7380  -12.7630    0.9680 C   0  0  0  0  0  0  0  0  0  0  0  0
    0.5560  -13.6580    2.0270 C   0  0  0  0  0  0  0  0  0  0  0  0
   -0.2810  -13.3220    3.0920 C   0  0  0  0  0  0  0  0  0  0  0  0
   -0.9470  -12.0960    3.0970 C   0  0  0  0  0  0  0  0  0  0  0  0
   -0.7830  -11.1900    2.0390 C   0  0  0  0  0  0  0  0  0  0  0  0
   -1.5320   -9.8770    2.0210 C   0  0  0  0  0  0  0  0  0  0  0  0
   -2.5930   -9.8910    2.8730 F   0  0  0  0  0  0  0  0  0  0  0  0
   -0.7710   -8.8080    2.3710 F   0  0  0  0  0  0  0  0  0  0  0  0
   -2.0450   -9.5950    0.7910 F   0  0  0  0  0  0  0  0  0  0  0  0
    0.0590  -11.5370    0.9670 C   0  0  0  0  0  0  0  0  0  0  0  0
    3.9440  -11.8390   -2.1010 C   0  0  0  0  0  0  0  0  0  0  0  0
    4.8800  -11.8560   -3.1510 C   0  0  0  0  0  0  0  0  0  0  0  0
    6.0710  -11.1000   -3.0840 N   0  0  0  0  0  0  0  0  0  0  0  0
    7.3080  -11.4950   -2.6880 C   0  0  0  0  0  0  0  0  0  0  0  0
    8.3060  -11.6210   -3.5320 N   0  0  0  0  0  0  0  0  0  0  0  0
    9.3010  -12.2540   -2.8440 C   0  0  0  0  0  0  0  0  0  0  0  0
   10.5470  -12.6980   -3.3110 C   0  0  0  0  0  0  0  0  0  0  0  0
   11.4180  -13.3380   -2.4240 C   0  0  0  0  0  0  0  0  0  0  0  0
   11.0570  -13.5250   -1.0910 C   0  0  0  0  0  0  0  0  0  0  0  0
    9.8220  -13.0780   -0.6040 C   0  0  0  0  0  0  0  0  0  0  0  0
    8.9490  -12.4500   -1.5100 C   0  0  0  0  0  0  0  0  0  0  0  0
    7.7040  -11.8350   -1.3850 N   0  0  0  0  0  0  0  0  0  0  0  0
    7.0150  -11.6120   -0.1490 C   0  0  0  0  0  0  0  0  0  0  0  0
    7.1310  -10.4010    0.5050 C   0  0  0  0  0  0  0  0  0  0  0  0
    6.3360  -10.1890    1.6170 C   0  0  0  0  0  0  0  0  0  0  0  0
    6.3510   -8.9460    2.2210 N   0  0  0  0  0  0  0  0  0  0  0  0
    6.8200   -7.7370    1.5710 C   0  0  0  0  0  0  0  0  0  0  0  0
    7.7790   -6.9590    2.4780 C   0  0  0  0  0  0  0  0  0  0  0  0
    7.5000   -7.1380    3.9630 C   0  0  0  0  0  0  0  0  0  0  0  0
    7.4150   -5.8510    4.6570 N   0  0  0  0  0  0  0  0  0  0  0  0
    5.4730  -11.1250    2.0570 N   0  0  0  0  0  0  0  0  0  0  0  0
    5.5350  -12.3190    1.4390 C   0  0  0  0  0  0  0  0  0  0  0  0
    6.2440  -12.6050    0.3440 N   0  0  0  0  0  0  0  0  0  0  0  0
    6.5572  -12.7436   -5.0832 H   0  0  0  0  0  0  0  0  0  0  0  0
    5.2959  -13.5277   -6.0936 H   0  0  0  0  0  0  0  0  0  0  0  0
    5.4632  -11.7392   -6.0936 H   0  0  0  0  0  0  0  0  0  0  0  0
    3.0425  -13.6903   -5.3869 H   0  0  0  0  0  0  0  0  0  0  0  0
    1.3451  -13.4681   -3.5825 H   0  0  0  0  0  0  0  0  0  0  0  0
    1.1750  -11.4440   -1.1970 H   0  0  0  0  0  0  0  0  0  0  0  0
    1.0735  -14.6286    2.0206 H   0  0  0  0  0  0  0  0  0  0  0  0
   -0.4157  -14.0242    3.9280 H   0  0  0  0  0  0  0  0  0  0  0  0
   -1.6067  -11.8376    3.9384 H   0  0  0  0  0  0  0  0  0  0  0  0
    0.1852  -10.8424    0.1234 H   0  0  0  0  0  0  0  0  0  0  0  0
    4.2210  -11.3847   -1.1383 H   0  0  0  0  0  0  0  0  0  0  0  0
    6.0520  -10.2690   -3.6720 H   0  0  0  0  0  0  0  0  0  0  0  0
   10.8351  -12.5447   -4.3615 H   0  0  0  0  0  0  0  0  0  0  0  0
   12.3949  -13.6964   -2.7808 H   0  0  0  0  0  0  0  0  0  0  0  0
   11.7546  -14.0329   -0.4088 H   0  0  0  0  0  0  0  0  0  0  0  0
    9.5444  -13.2137    0.4517 H   0  0  0  0  0  0  0  0  0  0  0  0
    7.8326   -9.6303    0.1531 H   0  0  0  0  0  0  0  0  0  0  0  0
    5.6750   -8.8090    2.9680 H   0  0  0  0  0  0  0  0  0  0  0  0
    7.3442   -8.0084    0.6428 H   0  0  0  0  0  0  0  0  0  0  0  0
    5.9513   -7.0987    1.3522 H   0  0  0  0  0  0  0  0  0  0  0  0
    8.8042   -7.3015    2.2739 H   0  0  0  0  0  0  0  0  0  0  0  0
    7.6392   -5.8916    2.2519 H   0  0  0  0  0  0  0  0  0  0  0  0
    6.5462   -7.6724    4.0847 H   0  0  0  0  0  0  0  0  0  0  0  0
    8.3309   -7.7100    4.4016 H   0  0  0  0  0  0  0  0  0  0  0  0
    6.5000   -5.7270    5.1260 H   0  0  0  0  0  0  0  0  0  0  0  0
    7.5410   -5.0320    4.0270 H   0  0  0  0  0  0  0  0  0  0  0  0
    8.1460   -5.7340    5.3630 H   0  0  0  0  0  0  0  0  0  0  0  0
    4.9454  -13.1375    1.8777 H   0  0  0  0  0  0  0  0  0  0  0  0
  1  2  1  0
  2  3  2  0
  3  4  1  0
  4  5  2  0
  5  6  1  0
  6  7  1  0
  7  8  2  0
  7  9  1  0
  9 10  2  0
 10 11  1  0
 11 12  2  0
 12 13  1  0
 13 14  1  0
 14 15  1  0
 14 16  1  0
 14 17  1  0
 13 18  2  0
  5 19  1  0
 19 20  2  0
 20 21  1  0
 21 22  1  0
 22 23  2  0
 23 24  1  0
 24 25  2  0
 25 26  1  0
 26 27  2  0
 27 28  1  0
 28 29  2  0
 29 30  1  0
 30 31  1  0
 31 32  2  0
 32 33  1  0
 33 34  1  0
 34 35  1  0
 35 36  1  0
 36 37  1  0
 37 38  1  0
 33 39  2  0
 39 40  1  0
 40 41  2  0
 20  2  1  0
 30 22  1  0
 41 31  1  0
 18  9  1  0
 29 24  1  0
  1 42  1  0
  1 43  1  0
  1 44  1  0
  3 45  1  0
  4 46  1  0
  6 47  1  0
 10 48  1  0
 11 49  1  0
 12 50  1  0
 18 51  1  0
 19 52  1  0
 21 53  1  0
 25 54  1  0
 26 55  1  0
 27 56  1  0
 28 57  1  0
 32 58  1  0
 34 59  1  0
 35 60  1  0
 35 61  1  0
 36 62  1  0
 36 63  1  0
 37 64  1  0
 37 65  1  0
 38 66  1  0
 38 67  1  0
 38 68  1  0
 40 69  1  0
M  CHG  1  38   1
M  END
>  <meeko>  (2) 
{"is_sidechain": [false], "free_energy": -8.438, "intermolecular_energy": -14.303, "internal_energy": -2.135}

$$$$
LIB_PTWXGAHPCIQUHL__M_PUB_ALL__e8__s20260927
     RDKit          3D

 69 73  0  0  0  0  0  0  0  0999 V2000
    6.7520  -14.2220   -5.3900 C   0  0  0  0  0  0  0  0  0  0  0  0
    5.7190  -13.6110   -4.4830 C   0  0  0  0  0  0  0  0  0  0  0  0
    4.6410  -12.9130   -5.0470 C   0  0  0  0  0  0  0  0  0  0  0  0
    3.6890  -12.2920   -4.2380 C   0  0  0  0  0  0  0  0  0  0  0  0
    3.7710  -12.4000   -2.8520 C   0  0  0  0  0  0  0  0  0  0  0  0
    2.8320  -11.8160   -1.9780 N   0  0  0  0  0  0  0  0  0  0  0  0
    1.7870  -12.4810   -1.3680 C   0  0  0  0  0  0  0  0  0  0  0  0
    1.4100  -13.6160   -1.6630 O   0  0  0  0  0  0  0  0  0  0  0  0
    1.0230  -11.7090   -0.3530 C   0  0  0  0  0  0  0  0  0  0  0  0
    0.9210  -10.3230   -0.5180 C   0  0  0  0  0  0  0  0  0  0  0  0
    0.2290   -9.5550    0.4190 C   0  0  0  0  0  0  0  0  0  0  0  0
   -0.3560  -10.1670    1.5280 C   0  0  0  0  0  0  0  0  0  0  0  0
   -0.2560  -11.5540    1.7150 C   0  0  0  0  0  0  0  0  0  0  0  0
   -0.8530  -12.2160    2.9360 C   0  0  0  0  0  0  0  0  0  0  0  0
   -0.0260  -13.1670    3.4480 F   0  0  0  0  0  0  0  0  0  0  0  0
   -1.1220  -11.3520    3.9500 F   0  0  0  0  0  0  0  0  0  0  0  0
   -2.0250  -12.8500    2.6540 F   0  0  0  0  0  0  0  0  0  0  0  0
    0.4470  -12.3210    0.7690 C   0  0  0  0  0  0  0  0  0  0  0  0
    4.8170  -13.1290   -2.2840 C   0  0  0  0  0  0  0  0  0  0  0  0
    5.8350  -13.6850   -3.0780 C   0  0  0  0  0  0  0  0  0  0  0  0
    7.0120  -14.2120   -2.5010 N   0  0  0  0  0  0  0  0  0  0  0  0
    8.2030  -13.5960   -2.2850 C   0  0  0  0  0  0  0  0  0  0  0  0
    9.1450  -13.5530   -3.1980 N   0  0  0  0  0  0  0  0  0  0  0  0
   10.2590  -13.0820   -2.5650 C   0  0  0  0  0  0  0  0  0  0  0  0
   11.5570  -12.9250   -3.0730 C   0  0  0  0  0  0  0  0  0  0  0  0
   12.5600  -12.4280   -2.2350 C   0  0  0  0  0  0  0  0  0  0  0  0
   12.2720  -12.0850   -0.9150 C   0  0  0  0  0  0  0  0  0  0  0  0
   10.9790  -12.2230   -0.3950 C   0  0  0  0  0  0  0  0  0  0  0  0
    9.9840  -12.7380   -1.2430 C   0  0  0  0  0  0  0  0  0  0  0  0
    8.6130  -12.9520   -1.1060 N   0  0  0  0  0  0  0  0  0  0  0  0
    7.8270  -12.5650    0.0270 C   0  0  0  0  0  0  0  0  0  0  0  0
    7.7150  -11.2320    0.3750 C   0  0  0  0  0  0  0  0  0  0  0  0
    6.8330  -10.9010    1.3880 C   0  0  0  0  0  0  0  0  0  0  0  0
    6.6190   -9.5680    1.6780 N   0  0  0  0  0  0  0  0  0  0  0  0
    7.0590   -8.4750    0.8300 C   0  0  0  0  0  0  0  0  0  0  0  0
    7.7640   -7.3890    1.6480 C   0  0  0  0  0  0  0  0  0  0  0  0
    7.2830   -7.2980    3.0880 C   0  0  0  0  0  0  0  0  0  0  0  0
    8.1620   -6.4540    3.9000 N   0  0  0  0  0  0  0  0  0  0  0  0
    6.1020  -11.8380    2.0220 N   0  0  0  0  0  0  0  0  0  0  0  0
    6.3850  -13.1170    1.7090 C   0  0  0  0  0  0  0  0  0  0  0  0
    7.1930  -13.5280    0.7280 N   0  0  0  0  0  0  0  0  0  0  0  0
    7.5420  -14.6893   -4.7837 H   0  0  0  0  0  0  0  0  0  0  0  0
    6.2774  -14.9848   -6.0248 H   0  0  0  0  0  0  0  0  0  0  0  0
    7.1919  -13.4387   -6.0248 H   0  0  0  0  0  0  0  0  0  0  0  0
    4.5450  -12.8545   -6.1412 H   0  0  0  0  0  0  0  0  0  0  0  0
    2.8717  -11.7157   -4.6960 H   0  0  0  0  0  0  0  0  0  0  0  0
    2.9420  -10.8210   -1.8180 H   0  0  0  0  0  0  0  0  0  0  0  0
    1.3874   -9.8381   -1.3883 H   0  0  0  0  0  0  0  0  0  0  0  0
    0.1446   -8.4667    0.2834 H   0  0  0  0  0  0  0  0  0  0  0  0
   -0.9009   -9.5562    2.2629 H   0  0  0  0  0  0  0  0  0  0  0  0
    0.5455  -13.4074    0.9102 H   0  0  0  0  0  0  0  0  0  0  0  0
    4.8453  -13.2712   -1.1936 H   0  0  0  0  0  0  0  0  0  0  0  0
    6.8430  -15.0360   -1.9280 H   0  0  0  0  0  0  0  0  0  0  0  0
   11.7829  -13.1893   -4.1166 H   0  0  0  0  0  0  0  0  0  0  0  0
   13.5833  -12.3069   -2.6201 H   0  0  0  0  0  0  0  0  0  0  0  0
   13.0750  -11.6989   -0.2700 H   0  0  0  0  0  0  0  0  0  0  0  0
   10.7500  -11.9378    0.6424 H   0  0  0  0  0  0  0  0  0  0  0  0
    8.3078  -10.4596   -0.1368 H   0  0  0  0  0  0  0  0  0  0  0  0
    5.8200   -9.3670    2.2730 H   0  0  0  0  0  0  0  0  0  0  0  0
    7.7570   -8.8653    0.0747 H   0  0  0  0  0  0  0  0  0  0  0  0
    6.1757   -8.0302    0.3484 H   0  0  0  0  0  0  0  0  0  0  0  0
    8.8425   -7.6051    1.6553 H   0  0  0  0  0  0  0  0  0  0  0  0
    7.5318   -6.4257    1.1704 H   0  0  0  0  0  0  0  0  0  0  0  0
    6.2692   -6.8713    3.0990 H   0  0  0  0  0  0  0  0  0  0  0  0
    7.2887   -8.3112    3.5163 H   0  0  0  0  0  0  0  0  0  0  0  0
    9.0470   -6.9370    4.1370 H   0  0  0  0  0  0  0  0  0  0  0  0
    7.7350   -6.1550    4.8000 H   0  0  0  0  0  0  0  0  0  0  0  0
    8.4040   -5.5740    3.4370 H   0  0  0  0  0  0  0  0  0  0  0  0
    5.9054  -13.8968    2.3188 H   0  0  0  0  0  0  0  0  0  0  0  0
  1  2  1  0
  2  3  2  0
  3  4  1  0
  4  5  2  0
  5  6  1  0
  6  7  1  0
  7  8  2  0
  7  9  1  0
  9 10  2  0
 10 11  1  0
 11 12  2  0
 12 13  1  0
 13 14  1  0
 14 15  1  0
 14 16  1  0
 14 17  1  0
 13 18  2  0
  5 19  1  0
 19 20  2  0
 20 21  1  0
 21 22  1  0
 22 23  2  0
 23 24  1  0
 24 25  2  0
 25 26  1  0
 26 27  2  0
 27 28  1  0
 28 29  2  0
 29 30  1  0
 30 31  1  0
 31 32  2  0
 32 33  1  0
 33 34  1  0
 34 35  1  0
 35 36  1  0
 36 37  1  0
 37 38  1  0
 33 39  2  0
 39 40  1  0
 40 41  2  0
 20  2  1  0
 30 22  1  0
 41 31  1  0
 18  9  1  0
 29 24  1  0
  1 42  1  0
  1 43  1  0
  1 44  1  0
  3 45  1  0
  4 46  1  0
  6 47  1  0
 10 48  1  0
 11 49  1  0
 12 50  1  0
 18 51  1  0
 19 52  1  0
 21 53  1  0
 25 54  1  0
 26 55  1  0
 27 56  1  0
 28 57  1  0
 32 58  1  0
 34 59  1  0
 35 60  1  0
 35 61  1  0
 36 62  1  0
 36 63  1  0
 37 64  1  0
 37 65  1  0
 38 66  1  0
 38 67  1  0
 38 68  1  0
 40 69  1  0
M  CHG  1  38   1
M  END
>  <meeko>  (3) 
{"is_sidechain": [false], "free_energy": -8.402, "intermolecular_energy": -14.224, "internal_energy": -2.155}

$$$$
LIB_PTWXGAHPCIQUHL__M_PUB_ALL__e8__s20260927
     RDKit          3D

 69 73  0  0  0  0  0  0  0  0999 V2000
   -0.0050  -17.4610    1.3950 C   0  0  0  0  0  0  0  0  0  0  0  0
   -1.1450  -17.2070    2.3440 C   0  0  0  0  0  0  0  0  0  0  0  0
   -2.2020  -18.1280    2.4040 C   0  0  0  0  0  0  0  0  0  0  0  0
   -3.3000  -17.9030    3.2360 C   0  0  0  0  0  0  0  0  0  0  0  0
   -3.3360  -16.7790    4.0570 C   0  0  0  0  0  0  0  0  0  0  0  0
   -4.4040  -16.5040    4.9360 N   0  0  0  0  0  0  0  0  0  0  0  0
   -5.3650  -15.5330    4.7460 C   0  0  0  0  0  0  0  0  0  0  0  0
   -5.3050  -14.6420    3.8980 O   0  0  0  0  0  0  0  0  0  0  0  0
   -6.4950  -15.5310    5.7130 C   0  0  0  0  0  0  0  0  0  0  0  0
   -6.2670  -15.0100    6.9910 C   0  0  0  0  0  0  0  0  0  0  0  0
   -7.2930  -15.0030    7.9370 C   0  0  0  0  0  0  0  0  0  0  0  0
   -8.5460  -15.5260    7.6140 C   0  0  0  0  0  0  0  0  0  0  0  0
   -8.7890  -16.0600    6.3390 C   0  0  0  0  0  0  0  0  0  0  0  0
  -10.1320  -16.6630    5.9960 C   0  0  0  0  0  0  0  0  0  0  0  0
  -10.0320  -17.9910    5.7160 F   0  0  0  0  0  0  0  0  0  0  0  0
  -11.0530  -16.5470    6.9880 F   0  0  0  0  0  0  0  0  0  0  0  0
  -10.6860  -16.0890    4.8920 F   0  0  0  0  0  0  0  0  0  0  0  0
   -7.7490  -16.0680    5.3920 C   0  0  0  0  0  0  0  0  0  0  0  0
   -2.2690  -15.8800    4.0350 C   0  0  0  0  0  0  0  0  0  0  0  0
   -1.1970  -16.0420    3.1390 C   0  0  0  0  0  0  0  0  0  0  0  0
   -0.2430  -15.0190    2.9430 N   0  0  0  0  0  0  0  0  0  0  0  0
   -0.4500  -13.7050    2.6680 C   0  0  0  0  0  0  0  0  0  0  0  0
   -0.6840  -12.8210    3.6100 N   0  0  0  0  0  0  0  0  0  0  0  0
   -1.0750  -11.6820    2.9660 C   0  0  0  0  0  0  0  0  0  0  0  0
   -1.5180  -10.4700    3.5160 C   0  0  0  0  0  0  0  0  0  0  0  0
   -1.8810   -9.4270    2.6600 C   0  0  0  0  0  0  0  0  0  0  0  0
   -1.7970   -9.5850    1.2780 C   0  0  0  0  0  0  0  0  0  0  0  0
   -1.3460  -10.7840    0.7110 C   0  0  0  0  0  0  0  0  0  0  0  0
   -0.9980  -11.8300    1.5820 C   0  0  0  0  0  0  0  0  0  0  0  0
   -0.4650  -13.1050    1.3980 N   0  0  0  0  0  0  0  0  0  0  0  0
   -0.0270  -13.6430    0.1450 C   0  0  0  0  0  0  0  0  0  0  0  0
    1.1640  -13.2230   -0.4160 C   0  0  0  0  0  0  0  0  0  0  0  0
    1.6080  -13.8750   -1.5520 C   0  0  0  0  0  0  0  0  0  0  0  0
    2.8480  -13.5510   -2.0670 N   0  0  0  0  0  0  0  0  0  0  0  0
    3.6450  -12.4270   -1.6090 C   0  0  0  0  0  0  0  0  0  0  0  0
    4.3270  -11.7190   -2.7830 C   0  0  0  0  0  0  0  0  0  0  0  0
    3.3860  -11.3980   -3.9360 C   0  0  0  0  0  0  0  0  0  0  0  0
    3.3390   -9.9610   -4.2110 N   0  0  0  0  0  0  0  0  0  0  0  0
    0.9100  -14.8870   -2.1030 N   0  0  0  0  0  0  0  0  0  0  0  0
   -0.3020  -15.1270   -1.5680 C   0  0  0  0  0  0  0  0  0  0  0  0
   -0.7970  -14.5730   -0.4590 N   0  0  0  0  0  0  0  0  0  0  0  0
    0.9111  -17.6651    1.9687 H   0  0  0  0  0  0  0  0  0  0  0  0
   -0.2417  -18.3284    0.7613 H   0  0  0  0  0  0  0  0  0  0  0  0
    0.1489  -16.5751    0.7613 H   0  0  0  0  0  0  0  0  0  0  0  0
   -2.1649  -19.0385    1.7878 H   0  0  0  0  0  0  0  0  0  0  0  0
   -4.1384  -18.6150    3.2431 H   0  0  0  0  0  0  0  0  0  0  0  0
   -4.4330  -17.0660    5.7800 H   0  0  0  0  0  0  0  0  0  0  0  0
   -5.2777  -14.6053    7.2507 H   0  0  0  0  0  0  0  0  0  0  0  0
   -7.1139  -14.5847    8.9385 H   0  0  0  0  0  0  0  0  0  0  0  0
   -9.3498  -15.5196    8.3649 H   0  0  0  0  0  0  0  0  0  0  0  0
   -7.9209  -16.4980    4.3942 H   0  0  0  0  0  0  0  0  0  0  0  0
   -2.2662  -15.0286    4.7315 H   0  0  0  0  0  0  0  0  0  0  0  0
    0.6670  -15.2370    3.3430 H   0  0  0  0  0  0  0  0  0  0  0  0
   -1.5788  -10.3424    4.6069 H   0  0  0  0  0  0  0  0  0  0  0  0
   -2.2357   -8.4742    3.0801 H   0  0  0  0  0  0  0  0  0  0  0  0
   -2.0901   -8.7533    0.6205 H   0  0  0  0  0  0  0  0  0  0  0  0
   -1.2670  -10.9025   -0.3797 H   0  0  0  0  0  0  0  0  0  0  0  0
    1.7401  -12.3970    0.0265 H   0  0  0  0  0  0  0  0  0  0  0  0
    3.3700  -14.3190   -2.4810 H   0  0  0  0  0  0  0  0  0  0  0  0
    2.9912  -11.7114   -1.0889 H   0  0  0  0  0  0  0  0  0  0  0  0
    4.4232  -12.8048   -0.9295 H   0  0  0  0  0  0  0  0  0  0  0  0
    4.7600  -10.7768   -2.4159 H   0  0  0  0  0  0  0  0  0  0  0  0
    5.0900  -12.4082   -3.1739 H   0  0  0  0  0  0  0  0  0  0  0  0
    3.7349  -11.9225   -4.8378 H   0  0  0  0  0  0  0  0  0  0  0  0
    2.3746  -11.7273   -3.6557 H   0  0  0  0  0  0  0  0  0  0  0  0
    3.5450   -9.7520   -5.2050 H   0  0  0  0  0  0  0  0  0  0  0  0
    4.0130   -9.4080   -3.6440 H   0  0  0  0  0  0  0  0  0  0  0  0
    2.4310   -9.5450   -3.9890 H   0  0  0  0  0  0  0  0  0  0  0  0
   -0.9450  -15.8477   -2.0945 H   0  0  0  0  0  0  0  0  0  0  0  0
  1  2  1  0
  2  3  2  0
  3  4  1  0
  4  5  2  0
  5  6  1  0
  6  7  1  0
  7  8  2  0
  7  9  1  0
  9 10  2  0
 10 11  1  0
 11 12  2  0
 12 13  1  0
 13 14  1  0
 14 15  1  0
 14 16  1  0
 14 17  1  0
 13 18  2  0
  5 19  1  0
 19 20  2  0
 20 21  1  0
 21 22  1  0
 22 23  2  0
 23 24  1  0
 24 25  2  0
 25 26  1  0
 26 27  2  0
 27 28  1  0
 28 29  2  0
 29 30  1  0
 30 31  1  0
 31 32  2  0
 32 33  1  0
 33 34  1  0
 34 35  1  0
 35 36  1  0
 36 37  1  0
 37 38  1  0
 33 39  2  0
 39 40  1  0
 40 41  2  0
 20  2  1  0
 30 22  1  0
 41 31  1  0
 18  9  1  0
 29 24  1  0
  1 42  1  0
  1 43  1  0
  1 44  1  0
  3 45  1  0
  4 46  1  0
  6 47  1  0
 10 48  1  0
 11 49  1  0
 12 50  1  0
 18 51  1  0
 19 52  1  0
 21 53  1  0
 25 54  1  0
 26 55  1  0
 27 56  1  0
 28 57  1  0
 32 58  1  0
 34 59  1  0
 35 60  1  0
 35 61  1  0
 36 62  1  0
 36 63  1  0
 37 64  1  0
 37 65  1  0
 38 66  1  0
 38 67  1  0
 38 68  1  0
 40 69  1  0
M  CHG  1  38   1
M  END
>  <meeko>  (4) 
{"is_sidechain": [false], "free_energy": -8.057, "intermolecular_energy": -13.853, "internal_energy": -1.97}

$$$$
LIB_PTWXGAHPCIQUHL__M_PUB_ALL__e8__s20260927
     RDKit          3D

 69 73  0  0  0  0  0  0  0  0999 V2000
   12.8170  -16.0560   -6.6330 C   0  0  0  0  0  0  0  0  0  0  0  0
   11.4280  -15.5070   -6.4520 C   0  0  0  0  0  0  0  0  0  0  0  0
   10.5650  -15.4540   -7.5570 C   0  0  0  0  0  0  0  0  0  0  0  0
    9.2860  -14.9070   -7.4400 C   0  0  0  0  0  0  0  0  0  0  0  0
    8.8310  -14.4490   -6.2060 C   0  0  0  0  0  0  0  0  0  0  0  0
    7.5440  -13.9070   -6.0140 N   0  0  0  0  0  0  0  0  0  0  0  0
    6.4190  -14.6250   -5.6640 C   0  0  0  0  0  0  0  0  0  0  0  0
    6.3380  -15.8540   -5.6750 O   0  0  0  0  0  0  0  0  0  0  0  0
    5.2040  -13.8270   -5.3480 C   0  0  0  0  0  0  0  0  0  0  0  0
    5.1670  -12.4910   -5.7640 C   0  0  0  0  0  0  0  0  0  0  0  0
    4.0560  -11.6990   -5.4740 C   0  0  0  0  0  0  0  0  0  0  0  0
    2.9830  -12.2340   -4.7600 C   0  0  0  0  0  0  0  0  0  0  0  0
    3.0070  -13.5680   -4.3280 C   0  0  0  0  0  0  0  0  0  0  0  0
    1.8650  -14.1410   -3.5200 C   0  0  0  0  0  0  0  0  0  0  0  0
    2.2410  -15.2570   -2.8380 F   0  0  0  0  0  0  0  0  0  0  0  0
    1.3590  -13.2800   -2.6000 F   0  0  0  0  0  0  0  0  0  0  0  0
    0.8190  -14.5180   -4.3060 F   0  0  0  0  0  0  0  0  0  0  0  0
    4.1330  -14.3600   -4.6190 C   0  0  0  0  0  0  0  0  0  0  0  0
    9.6690  -14.5380   -5.0930 C   0  0  0  0  0  0  0  0  0  0  0  0
   10.9910  -15.0020   -5.2090 C   0  0  0  0  0  0  0  0  0  0  0  0
   11.9110  -14.8700   -4.1460 N   0  0  0  0  0  0  0  0  0  0  0  0
   11.9610  -13.9190   -3.1770 C   0  0  0  0  0  0  0  0  0  0  0  0
   12.7150  -12.8490   -3.2850 N   0  0  0  0  0  0  0  0  0  0  0  0
   12.7010  -12.2560   -2.0550 C   0  0  0  0  0  0  0  0  0  0  0  0
   13.4130  -11.1300   -1.6150 C   0  0  0  0  0  0  0  0  0  0  0  0
   13.2530  -10.6970   -0.2950 C   0  0  0  0  0  0  0  0  0  0  0  0
   12.3920  -11.3700    0.5700 C   0  0  0  0  0  0  0  0  0  0  0  0
   11.6660  -12.4900    0.1450 C   0  0  0  0  0  0  0  0  0  0  0  0
   11.8470  -12.9240   -1.1800 C   0  0  0  0  0  0  0  0  0  0  0  0
   11.2680  -13.9270   -1.9560 N   0  0  0  0  0  0  0  0  0  0  0  0
   10.1800  -14.7630   -1.5460 C   0  0  0  0  0  0  0  0  0  0  0  0
    8.9910  -14.2020   -1.1210 C   0  0  0  0  0  0  0  0  0  0  0  0
    7.9280  -15.0520   -0.8720 C   0  0  0  0  0  0  0  0  0  0  0  0
    6.6980  -14.5080   -0.5560 N   0  0  0  0  0  0  0  0  0  0  0  0
    6.4440  -13.0820   -0.4660 C   0  0  0  0  0  0  0  0  0  0  0  0
    5.7660  -12.5600   -1.7370 C   0  0  0  0  0  0  0  0  0  0  0  0
    6.5950  -11.5340   -2.4960 C   0  0  0  0  0  0  0  0  0  0  0  0
    6.9710  -10.4050   -1.6430 N   0  0  0  0  0  0  0  0  0  0  0  0
    8.0380  -16.3840   -1.0330 N   0  0  0  0  0  0  0  0  0  0  0  0
    9.2720  -16.8440   -1.3120 C   0  0  0  0  0  0  0  0  0  0  0  0
   10.3430  -16.1020   -1.5990 N   0  0  0  0  0  0  0  0  0  0  0  0
   13.2716  -16.2357   -5.6476 H   0  0  0  0  0  0  0  0  0  0  0  0
   12.7674  -17.0021   -7.1919 H   0  0  0  0  0  0  0  0  0  0  0  0
   13.4276  -15.3316   -7.1919 H   0  0  0  0  0  0  0  0  0  0  0  0
   10.9004  -15.8484   -8.5276 H   0  0  0  0  0  0  0  0  0  0  0  0
    8.6360  -14.8376   -8.3247 H   0  0  0  0  0  0  0  0  0  0  0  0
    7.4610  -12.9090   -6.1740 H   0  0  0  0  0  0  0  0  0  0  0  0
    6.0151  -12.0652   -6.3203 H   0  0  0  0  0  0  0  0  0  0  0  0
    4.0256  -10.6515   -5.8085 H   0  0  0  0  0  0  0  0  0  0  0  0
    2.1104  -11.6036   -4.5340 H   0  0  0  0  0  0  0  0  0  0  0  0
    4.1725  -15.4032   -4.2723 H   0  0  0  0  0  0  0  0  0  0  0  0
    9.2873  -14.2391   -4.1056 H   0  0  0  0  0  0  0  0  0  0  0  0
   12.3920  -15.7380   -3.9220 H   0  0  0  0  0  0  0  0  0  0  0  0
   14.0880  -10.5950   -2.2992 H   0  0  0  0  0  0  0  0  0  0  0  0
   13.8106   -9.8190    0.0632 H   0  0  0  0  0  0  0  0  0  0  0  0
   12.2806  -11.0152    1.6052 H   0  0  0  0  0  0  0  0  0  0  0  0
   10.9773  -13.0125    0.8252 H   0  0  0  0  0  0  0  0  0  0  0  0
    8.8927  -13.1149   -0.9850 H   0  0  0  0  0  0  0  0  0  0  0  0
    5.8900  -15.0850   -0.7730 H   0  0  0  0  0  0  0  0  0  0  0  0
    5.7889  -12.8877    0.3961 H   0  0  0  0  0  0  0  0  0  0  0  0
    7.4064  -12.5631   -0.3457 H   0  0  0  0  0  0  0  0  0  0  0  0
    5.5745  -13.4136   -2.4039 H   0  0  0  0  0  0  0  0  0  0  0  0
    4.8399  -12.0561   -1.4233 H   0  0  0  0  0  0  0  0  0  0  0  0
    7.5091  -12.0193   -2.8688 H   0  0  0  0  0  0  0  0  0  0  0  0
    5.9868  -11.1484   -3.3275 H   0  0  0  0  0  0  0  0  0  0  0  0
    6.9050   -9.5030   -2.1480 H   0  0  0  0  0  0  0  0  0  0  0  0
    7.9420  -10.4700   -1.2740 H   0  0  0  0  0  0  0  0  0  0  0  0
    6.3920  -10.3340   -0.8020 H   0  0  0  0  0  0  0  0  0  0  0  0
    9.4104  -17.9352   -1.3024 H   0  0  0  0  0  0  0  0  0  0  0  0
  1  2  1  0
  2  3  2  0
  3  4  1  0
  4  5  2  0
  5  6  1  0
  6  7  1  0
  7  8  2  0
  7  9  1  0
  9 10  2  0
 10 11  1  0
 11 12  2  0
 12 13  1  0
 13 14  1  0
 14 15  1  0
 14 16  1  0
 14 17  1  0
 13 18  2  0
  5 19  1  0
 19 20  2  0
 20 21  1  0
 21 22  1  0
 22 23  2  0
 23 24  1  0
 24 25  2  0
 25 26  1  0
 26 27  2  0
 27 28  1  0
 28 29  2  0
 29 30  1  0
 30 31  1  0
 31 32  2  0
 32 33  1  0
 33 34  1  0
 34 35  1  0
 35 36  1  0
 36 37  1  0
 37 38  1  0
 33 39  2  0
 39 40  1  0
 40 41  2  0
 20  2  1  0
 30 22  1  0
 41 31  1  0
 18  9  1  0
 29 24  1  0
  1 42  1  0
  1 43  1  0
  1 44  1  0
  3 45  1  0
  4 46  1  0
  6 47  1  0
 10 48  1  0
 11 49  1  0
 12 50  1  0
 18 51  1  0
 19 52  1  0
 21 53  1  0
 25 54  1  0
 26 55  1  0
 27 56  1  0
 28 57  1  0
 32 58  1  0
 34 59  1  0
 35 60  1  0
 35 61  1  0
 36 62  1  0
 36 63  1  0
 37 64  1  0
 37 65  1  0
 38 66  1  0
 38 67  1  0
 38 68  1  0
 40 69  1  0
M  CHG  1  38   1
M  END
>  <meeko>  (5) 
{"is_sidechain": [false], "free_energy": -8.03, "intermolecular_energy": -12.664, "internal_energy": -3.115}

$$$$
LIB_PTWXGAHPCIQUHL__M_PUB_ALL__e8__s20260927
     RDKit          3D

 69 73  0  0  0  0  0  0  0  0999 V2000
    8.3260  -14.6180   -5.1080 C   0  0  0  0  0  0  0  0  0  0  0  0
    7.1120  -14.2430   -4.3010 C   0  0  0  0  0  0  0  0  0  0  0  0
    5.9530  -13.8180   -4.9670 C   0  0  0  0  0  0  0  0  0  0  0  0
    4.8240  -13.4170   -4.2510 C   0  0  0  0  0  0  0  0  0  0  0  0
    4.8190  -13.4800   -2.8600 C   0  0  0  0  0  0  0  0  0  0  0  0
    3.7050  -13.1110   -2.0790 N   0  0  0  0  0  0  0  0  0  0  0  0
    3.2340  -13.8030   -0.9820 C   0  0  0  0  0  0  0  0  0  0  0  0
    3.5890  -14.9390   -0.6630 O   0  0  0  0  0  0  0  0  0  0  0  0
    2.1520  -13.1420   -0.2050 C   0  0  0  0  0  0  0  0  0  0  0  0
    1.6200  -13.8250    0.8950 C   0  0  0  0  0  0  0  0  0  0  0  0
    0.5910  -13.2520    1.6430 C   0  0  0  0  0  0  0  0  0  0  0  0
    0.0830  -12.0010    1.2900 C   0  0  0  0  0  0  0  0  0  0  0  0
    0.5990  -11.3060    0.1850 C   0  0  0  0  0  0  0  0  0  0  0  0
    0.0260   -9.9690   -0.2240 C   0  0  0  0  0  0  0  0  0  0  0  0
    0.4020   -8.9770    0.6280 F   0  0  0  0  0  0  0  0  0  0  0  0
    0.4020   -9.5710   -1.4680 F   0  0  0  0  0  0  0  0  0  0  0  0
   -1.3360   -9.9690   -0.2190 F   0  0  0  0  0  0  0  0  0  0  0  0
    1.6330  -11.8920   -0.5670 C   0  0  0  0  0  0  0  0  0  0  0  0
    5.9540  -13.9420   -2.1920 C   0  0  0  0  0  0  0  0  0  0  0  0
    7.1310  -14.2650   -2.8900 C   0  0  0  0  0  0  0  0  0  0  0  0
    8.3460  -14.5010   -2.2100 N   0  0  0  0  0  0  0  0  0  0  0  0
    9.2940  -13.6060   -1.8270 C   0  0  0  0  0  0  0  0  0  0  0  0
   10.3530  -13.3520   -2.5600 N   0  0  0  0  0  0  0  0  0  0  0  0
   11.1840  -12.6080   -1.7720 C   0  0  0  0  0  0  0  0  0  0  0  0
   12.4800  -12.1480   -2.0500 C   0  0  0  0  0  0  0  0  0  0  0  0
   13.1590  -11.4020   -1.0820 C   0  0  0  0  0  0  0  0  0  0  0  0
   12.5550  -11.1120    0.1390 C   0  0  0  0  0  0  0  0  0  0  0  0
   11.2580  -11.5530    0.4300 C   0  0  0  0  0  0  0  0  0  0  0  0
   10.5910  -12.3150   -0.5450 C   0  0  0  0  0  0  0  0  0  0  0  0
    9.3100  -12.8560   -0.6400 N   0  0  0  0  0  0  0  0  0  0  0  0
    8.2550  -12.6500    0.3070 C   0  0  0  0  0  0  0  0  0  0  0  0
    7.8650  -11.3690    0.6480 C   0  0  0  0  0  0  0  0  0  0  0  0
    6.7520  -11.2270    1.4570 C   0  0  0  0  0  0  0  0  0  0  0  0
    6.2750   -9.9570    1.7200 N   0  0  0  0  0  0  0  0  0  0  0  0
    6.8940   -8.7420    1.2220 C   0  0  0  0  0  0  0  0  0  0  0  0
    7.8350   -8.1340    2.2670 C   0  0  0  0  0  0  0  0  0  0  0  0
    7.3460   -6.8090    2.8340 C   0  0  0  0  0  0  0  0  0  0  0  0
    8.1890   -6.3500    3.9400 N   0  0  0  0  0  0  0  0  0  0  0  0
    6.0630  -12.2940    1.9040 N   0  0  0  0  0  0  0  0  0  0  0  0
    6.6030  -13.4980    1.6340 C   0  0  0  0  0  0  0  0  0  0  0  0
    7.6500  -13.7320    0.8400 N   0  0  0  0  0  0  0  0  0  0  0  0
    9.1530  -14.8735   -4.4291 H   0  0  0  0  0  0  0  0  0  0  0  0
    8.0910  -15.4854   -5.7423 H   0  0  0  0  0  0  0  0  0  0  0  0
    8.6212  -13.7692   -5.7423 H   0  0  0  0  0  0  0  0  0  0  0  0
    5.9336  -13.8005   -6.0667 H   0  0  0  0  0  0  0  0  0  0  0  0
    3.9361  -13.0503   -4.7868 H   0  0  0  0  0  0  0  0  0  0  0  0
    3.2150  -12.2760   -2.3810 H   0  0  0  0  0  0  0  0  0  0  0  0
    2.0137  -14.8146    1.1700 H   0  0  0  0  0  0  0  0  0  0  0  0
    0.1797  -13.7868    2.5118 H   0  0  0  0  0  0  0  0  0  0  0  0
   -0.7292  -11.5555    1.8832 H   0  0  0  0  0  0  0  0  0  0  0  0
    2.0366  -11.3658   -1.4446 H   0  0  0  0  0  0  0  0  0  0  0  0
    5.9272  -14.0556   -1.0982 H   0  0  0  0  0  0  0  0  0  0  0  0
    8.3580  -15.3830   -1.7030 H   0  0  0  0  0  0  0  0  0  0  0  0
   12.9554  -12.3713   -3.0165 H   0  0  0  0  0  0  0  0  0  0  0  0
   14.1779  -11.0414   -1.2863 H   0  0  0  0  0  0  0  0  0  0  0  0
   13.1068  -10.5258    0.8886 H   0  0  0  0  0  0  0  0  0  0  0  0
   10.7773  -11.3112    1.3894 H   0  0  0  0  0  0  0  0  0  0  0  0
    8.4213  -10.4910    0.2880 H   0  0  0  0  0  0  0  0  0  0  0  0
    5.2820   -9.8910    1.9250 H   0  0  0  0  0  0  0  0  0  0  0  0
    7.4692   -8.9778    0.3145 H   0  0  0  0  0  0  0  0  0  0  0  0
    6.1016   -8.0124    0.9988 H   0  0  0  0  0  0  0  0  0  0  0  0
    7.9409   -8.8487    3.0965 H   0  0  0  0  0  0  0  0  0  0  0  0
    8.7908   -7.9336    1.7607 H   0  0  0  0  0  0  0  0  0  0  0  0
    7.3614   -6.0521    2.0359 H   0  0  0  0  0  0  0  0  0  0  0  0
    6.3257   -6.9556    3.2180 H   0  0  0  0  0  0  0  0  0  0  0  0
    7.7370   -5.5900    4.4790 H   0  0  0  0  0  0  0  0  0  0  0  0
    9.1150   -5.9890    3.6330 H   0  0  0  0  0  0  0  0  0  0  0  0
    8.4220   -7.1000    4.5970 H   0  0  0  0  0  0  0  0  0  0  0  0
    6.1368  -14.3714    2.1134 H   0  0  0  0  0  0  0  0  0  0  0  0
  1  2  1  0
  2  3  2  0
  3  4  1  0
  4  5  2  0
  5  6  1  0
  6  7  1  0
  7  8  2  0
  7  9  1  0
  9 10  2  0
 10 11  1  0
 11 12  2  0
 12 13  1  0
 13 14  1  0
 14 15  1  0
 14 16  1  0
 14 17  1  0
 13 18  2  0
  5 19  1  0
 19 20  2  0
 20 21  1  0
 21 22  1  0
 22 23  2  0
 23 24  1  0
 24 25  2  0
 25 26  1  0
 26 27  2  0
 27 28  1  0
 28 29  2  0
 29 30  1  0
 30 31  1  0
 31 32  2  0
 32 33  1  0
 33 34  1  0
 34 35  1  0
 35 36  1  0
 36 37  1  0
 37 38  1  0
 33 39  2  0
 39 40  1  0
 40 41  2  0
 20  2  1  0
 30 22  1  0
 41 31  1  0
 18  9  1  0
 29 24  1  0
  1 42  1  0
  1 43  1  0
  1 44  1  0
  3 45  1  0
  4 46  1  0
  6 47  1  0
 10 48  1  0
 11 49  1  0
 12 50  1  0
 18 51  1  0
 19 52  1  0
 21 53  1  0
 25 54  1  0
 26 55  1  0
 27 56  1  0
 28 57  1  0
 32 58  1  0
 34 59  1  0
 35 60  1  0
 35 61  1  0
 36 62  1  0
 36 63  1  0
 37 64  1  0
 37 65  1  0
 38 66  1  0
 38 67  1  0
 38 68  1  0
 40 69  1  0
M  CHG  1  38   1
M  END
>  <meeko>  (6) 
{"is_sidechain": [false], "free_energy": -7.898, "intermolecular_energy": -13.613, "internal_energy": -1.953}

$$$$
LIB_PTWXGAHPCIQUHL__M_PUB_ALL__e8__s20260927
     RDKit          3D

 69 73  0  0  0  0  0  0  0  0999 V2000
   -7.0950  -23.4250   12.4790 C   0  0  0  0  0  0  0  0  0  0  0  0
   -7.1230  -22.1910   11.6180 C   0  0  0  0  0  0  0  0  0  0  0  0
   -5.9140  -21.6620   11.1430 C   0  0  0  0  0  0  0  0  0  0  0  0
   -5.8950  -20.4930   10.3810 C   0  0  0  0  0  0  0  0  0  0  0  0
   -7.0890  -19.8600   10.0410 C   0  0  0  0  0  0  0  0  0  0  0  0
   -7.1420  -18.6900    9.2580 N   0  0  0  0  0  0  0  0  0  0  0  0
   -6.5380  -17.4900    9.5720 C   0  0  0  0  0  0  0  0  0  0  0  0
   -6.0490  -17.2160   10.6690 O   0  0  0  0  0  0  0  0  0  0  0  0
   -6.5810  -16.4390    8.5210 C   0  0  0  0  0  0  0  0  0  0  0  0
   -6.0170  -15.1920    8.8120 C   0  0  0  0  0  0  0  0  0  0  0  0
   -6.0490  -14.1700    7.8630 C   0  0  0  0  0  0  0  0  0  0  0  0
   -6.6540  -14.3860    6.6240 C   0  0  0  0  0  0  0  0  0  0  0  0
   -7.2320  -15.6270    6.3180 C   0  0  0  0  0  0  0  0  0  0  0  0
   -7.9230  -15.8530    4.9930 C   0  0  0  0  0  0  0  0  0  0  0  0
   -9.2760  -15.7720    5.1090 F   0  0  0  0  0  0  0  0  0  0  0  0
   -7.5650  -14.9640    4.0300 F   0  0  0  0  0  0  0  0  0  0  0  0
   -7.6650  -17.0900    4.4840 F   0  0  0  0  0  0  0  0  0  0  0  0
   -7.2000  -16.6520    7.2810 C   0  0  0  0  0  0  0  0  0  0  0  0
   -8.2990  -20.4050   10.4750 C   0  0  0  0  0  0  0  0  0  0  0  0
   -8.3330  -21.5300   11.3170 C   0  0  0  0  0  0  0  0  0  0  0  0
   -9.5290  -21.9380   11.9490 N   0  0  0  0  0  0  0  0  0  0  0  0
  -10.4610  -22.8240   11.5130 C   0  0  0  0  0  0  0  0  0  0  0  0
  -10.9650  -23.7520   12.2940 N   0  0  0  0  0  0  0  0  0  0  0  0
  -11.6680  -24.5880   11.4760 C   0  0  0  0  0  0  0  0  0  0  0  0
  -12.3280  -25.7830   11.8010 C   0  0  0  0  0  0  0  0  0  0  0  0
  -12.9860  -26.4920   10.7910 C   0  0  0  0  0  0  0  0  0  0  0  0
  -12.9930  -26.0160    9.4820 C   0  0  0  0  0  0  0  0  0  0  0  0
  -12.3490  -24.8190    9.1420 C   0  0  0  0  0  0  0  0  0  0  0  0
  -11.6790  -24.1230   10.1630 C   0  0  0  0  0  0  0  0  0  0  0  0
  -11.0020  -22.9050   10.2200 N   0  0  0  0  0  0  0  0  0  0  0  0
  -10.9140  -21.9600    9.1480 C   0  0  0  0  0  0  0  0  0  0  0  0
  -11.5270  -20.7260    9.2540 C   0  0  0  0  0  0  0  0  0  0  0  0
  -11.2930  -19.8000    8.2530 C   0  0  0  0  0  0  0  0  0  0  0  0
  -11.8020  -18.5230    8.3930 N   0  0  0  0  0  0  0  0  0  0  0  0
  -11.2310  -17.3510    7.7550 C   0  0  0  0  0  0  0  0  0  0  0  0
  -11.1820  -16.1650    8.7220 C   0  0  0  0  0  0  0  0  0  0  0  0
  -12.5510  -15.5870    9.0530 C   0  0  0  0  0  0  0  0  0  0  0  0
  -12.6780  -15.2800   10.4790 N   0  0  0  0  0  0  0  0  0  0  0  0
  -10.4970  -20.0810    7.2040 N   0  0  0  0  0  0  0  0  0  0  0  0
  -10.0620  -21.3520    7.1190 C   0  0  0  0  0  0  0  0  0  0  0  0
  -10.2100  -22.3000    8.0470 N   0  0  0  0  0  0  0  0  0  0  0  0
   -7.1016  -23.1325   13.5394 H   0  0  0  0  0  0  0  0  0  0  0  0
   -7.9794  -24.0426   12.2635 H   0  0  0  0  0  0  0  0  0  0  0  0
   -6.1835  -24.0019   12.2635 H   0  0  0  0  0  0  0  0  0  0  0  0
   -4.9688  -22.1750   11.3740 H   0  0  0  0  0  0  0  0  0  0  0  0
   -4.9356  -20.0704   10.0481 H   0  0  0  0  0  0  0  0  0  0  0  0
   -7.6930  -18.7560    8.4090 H   0  0  0  0  0  0  0  0  0  0  0  0
   -5.5473  -15.0171    9.7912 H   0  0  0  0  0  0  0  0  0  0  0  0
   -5.5972  -13.1934    8.0914 H   0  0  0  0  0  0  0  0  0  0  0  0
   -6.6778  -13.5756    5.8805 H   0  0  0  0  0  0  0  0  0  0  0  0
   -7.6628  -17.6252    7.0602 H   0  0  0  0  0  0  0  0  0  0  0  0
   -9.2444  -19.9449   10.1516 H   0  0  0  0  0  0  0  0  0  0  0  0
   -9.5280  -21.7730   12.9530 H   0  0  0  0  0  0  0  0  0  0  0  0
  -12.3278  -26.1568   12.8356 H   0  0  0  0  0  0  0  0  0  0  0  0
  -13.5021  -27.4330   11.0322 H   0  0  0  0  0  0  0  0  0  0  0  0
  -13.5134  -26.5901    8.7012 H   0  0  0  0  0  0  0  0  0  0  0  0
  -12.3671  -24.4368    8.1107 H   0  0  0  0  0  0  0  0  0  0  0  0
  -12.1799  -20.4877   10.1066 H   0  0  0  0  0  0  0  0  0  0  0  0
  -12.7920  -18.4640    8.6150 H   0  0  0  0  0  0  0  0  0  0  0  0
  -10.2091  -17.5854    7.4220 H   0  0  0  0  0  0  0  0  0  0  0  0
  -11.8639  -17.0768    6.8981 H   0  0  0  0  0  0  0  0  0  0  0  0
  -10.7110  -16.4996    9.6580 H   0  0  0  0  0  0  0  0  0  0  0  0
  -10.6090  -15.3686    8.2245 H   0  0  0  0  0  0  0  0  0  0  0  0
  -12.6971  -14.6627    8.4748 H   0  0  0  0  0  0  0  0  0  0  0  0
  -13.3122  -16.3378    8.7944 H   0  0  0  0  0  0  0  0  0  0  0  0
  -12.6780  -16.1380   11.0590 H   0  0  0  0  0  0  0  0  0  0  0  0
  -13.5480  -14.7600   10.7150 H   0  0  0  0  0  0  0  0  0  0  0  0
  -11.9280  -14.6740   10.8220 H   0  0  0  0  0  0  0  0  0  0  0  0
   -9.5342  -21.6366    6.1968 H   0  0  0  0  0  0  0  0  0  0  0  0
  1  2  1  0
  2  3  2  0
  3  4  1  0
  4  5  2  0
  5  6  1  0
  6  7  1  0
  7  8  2  0
  7  9  1  0
  9 10  2  0
 10 11  1  0
 11 12  2  0
 12 13  1  0
 13 14  1  0
 14 15  1  0
 14 16  1  0
 14 17  1  0
 13 18  2  0
  5 19  1  0
 19 20  2  0
 20 21  1  0
 21 22  1  0
 22 23  2  0
 23 24  1  0
 24 25  2  0
 25 26  1  0
 26 27  2  0
 27 28  1  0
 28 29  2  0
 29 30  1  0
 30 31  1  0
 31 32  2  0
 32 33  1  0
 33 34  1  0
 34 35  1  0
 35 36  1  0
 36 37  1  0
 37 38  1  0
 33 39  2  0
 39 40  1  0
 40 41  2  0
 20  2  1  0
 30 22  1  0
 41 31  1  0
 18  9  1  0
 29 24  1  0
  1 42  1  0
  1 43  1  0
  1 44  1  0
  3 45  1  0
  4 46  1  0
  6 47  1  0
 10 48  1  0
 11 49  1  0
 12 50  1  0
 18 51  1  0
 19 52  1  0
 21 53  1  0
 25 54  1  0
 26 55  1  0
 27 56  1  0
 28 57  1  0
 32 58  1  0
 34 59  1  0
 35 60  1  0
 35 61  1  0
 36 62  1  0
 36 63  1  0
 37 64  1  0
 37 65  1  0
 38 66  1  0
 38 67  1  0
 38 68  1  0
 40 69  1  0
M  CHG  1  38   1
M  END
>  <meeko>  (7) 
{"is_sidechain": [false], "free_energy": -7.877, "intermolecular_energy": -13.414, "internal_energy": -2.118}

$$$$
LIB_PTWXGAHPCIQUHL__M_PUB_ALL__e8__s20260927
     RDKit          3D

 69 73  0  0  0  0  0  0  0  0999 V2000
   11.5980  -14.9440   -7.3860 C   0  0  0  0  0  0  0  0  0  0  0  0
   10.2140  -14.7990   -6.8140 C   0  0  0  0  0  0  0  0  0  0  0  0
    9.1350  -14.5810   -7.6830 C   0  0  0  0  0  0  0  0  0  0  0  0
    7.8440  -14.3930   -7.1880 C   0  0  0  0  0  0  0  0  0  0  0  0
    7.6020  -14.4700   -5.8180 C   0  0  0  0  0  0  0  0  0  0  0  0
    6.3200  -14.3120   -5.2540 N   0  0  0  0  0  0  0  0  0  0  0  0
    5.8550  -13.1710   -4.6330 C   0  0  0  0  0  0  0  0  0  0  0  0
    6.5580  -12.2140   -4.3040 O   0  0  0  0  0  0  0  0  0  0  0  0
    4.4150  -13.1660   -4.2630 C   0  0  0  0  0  0  0  0  0  0  0  0
    3.5190  -13.8450   -5.0960 C   0  0  0  0  0  0  0  0  0  0  0  0
    2.1560  -13.8530   -4.7980 C   0  0  0  0  0  0  0  0  0  0  0  0
    1.6810  -13.1750   -3.6750 C   0  0  0  0  0  0  0  0  0  0  0  0
    2.5640  -12.4800   -2.8340 C   0  0  0  0  0  0  0  0  0  0  0  0
    2.0520  -11.7110   -1.6380 C   0  0  0  0  0  0  0  0  0  0  0  0
    3.0010  -11.5920   -0.6710 F   0  0  0  0  0  0  0  0  0  0  0  0
    1.6430  -10.4500   -1.9340 F   0  0  0  0  0  0  0  0  0  0  0  0
    0.9910  -12.3280   -1.0470 F   0  0  0  0  0  0  0  0  0  0  0  0
    3.9370  -12.4730   -3.1420 C   0  0  0  0  0  0  0  0  0  0  0  0
    8.6640  -14.7290   -4.9500 C   0  0  0  0  0  0  0  0  0  0  0  0
    9.9840  -14.8310   -5.4220 C   0  0  0  0  0  0  0  0  0  0  0  0
   11.0820  -14.8530   -4.5320 N   0  0  0  0  0  0  0  0  0  0  0  0
   11.3900  -13.9790   -3.5400 C   0  0  0  0  0  0  0  0  0  0  0  0
   12.1910  -12.9560   -3.7320 N   0  0  0  0  0  0  0  0  0  0  0  0
   12.4590  -12.4530   -2.4910 C   0  0  0  0  0  0  0  0  0  0  0  0
   13.3260  -11.4090   -2.1360 C   0  0  0  0  0  0  0  0  0  0  0  0
   13.4560  -11.0620   -0.7880 C   0  0  0  0  0  0  0  0  0  0  0  0
   12.7270  -11.7370    0.1890 C   0  0  0  0  0  0  0  0  0  0  0  0
   11.8470  -12.7730   -0.1490 C   0  0  0  0  0  0  0  0  0  0  0  0
   11.7370  -13.1230   -1.5050 C   0  0  0  0  0  0  0  0  0  0  0  0
   10.9440  -14.0280   -2.2100 N   0  0  0  0  0  0  0  0  0  0  0  0
    9.8930  -14.8190   -1.6420 C   0  0  0  0  0  0  0  0  0  0  0  0
    8.8300  -14.2100   -1.0030 C   0  0  0  0  0  0  0  0  0  0  0  0
    7.7760  -15.0090   -0.6000 C   0  0  0  0  0  0  0  0  0  0  0  0
    6.6530  -14.4100   -0.0600 N   0  0  0  0  0  0  0  0  0  0  0  0
    6.1660  -13.1010   -0.4550 C   0  0  0  0  0  0  0  0  0  0  0  0
    6.5360  -12.0380    0.5830 C   0  0  0  0  0  0  0  0  0  0  0  0
    6.9760  -10.7140   -0.0250 C   0  0  0  0  0  0  0  0  0  0  0  0
    7.1580  -10.8190   -1.4740 N   0  0  0  0  0  0  0  0  0  0  0  0
    7.7740  -16.3380   -0.8160 N   0  0  0  0  0  0  0  0  0  0  0  0
    8.9120  -16.8540   -1.3170 C   0  0  0  0  0  0  0  0  0  0  0  0
    9.9630  -16.1610   -1.7630 N   0  0  0  0  0  0  0  0  0  0  0  0
   12.3274  -15.0204   -6.5662 H   0  0  0  0  0  0  0  0  0  0  0  0
   11.6456  -15.8521   -8.0050 H   0  0  0  0  0  0  0  0  0  0  0  0
   11.8328  -14.0655   -8.0050 H   0  0  0  0  0  0  0  0  0  0  0  0
    9.3087  -14.5579   -8.7690 H   0  0  0  0  0  0  0  0  0  0  0  0
    7.0156  -14.1836   -7.8808 H   0  0  0  0  0  0  0  0  0  0  0  0
    5.7170  -15.1260   -5.3020 H   0  0  0  0  0  0  0  0  0  0  0  0
    3.8896  -14.3731   -5.9869 H   0  0  0  0  0  0  0  0  0  0  0  0
    1.4547  -14.3948   -5.4496 H   0  0  0  0  0  0  0  0  0  0  0  0
    0.6050  -13.1852   -3.4467 H   0  0  0  0  0  0  0  0  0  0  0  0
    4.6390  -11.9209   -2.4998 H   0  0  0  0  0  0  0  0  0  0  0  0
    8.4640  -14.8557   -3.8758 H   0  0  0  0  0  0  0  0  0  0  0  0
   11.5070  -15.7740   -4.4430 H   0  0  0  0  0  0  0  0  0  0  0  0
   13.8958  -10.8707   -2.9077 H   0  0  0  0  0  0  0  0  0  0  0  0
   14.1387  -10.2502   -0.4965 H   0  0  0  0  0  0  0  0  0  0  0  0
   12.8447  -11.4511    1.2447 H   0  0  0  0  0  0  0  0  0  0  0  0
   11.2614  -13.2953    0.6219 H   0  0  0  0  0  0  0  0  0  0  0  0
    8.8225  -13.1252   -0.8209 H   0  0  0  0  0  0  0  0  0  0  0  0
    5.9530  -15.0430    0.3190 H   0  0  0  0  0  0  0  0  0  0  0  0
    6.6125  -12.8287   -1.4227 H   0  0  0  0  0  0  0  0  0  0  0  0
    5.0697  -13.1455   -0.5334 H   0  0  0  0  0  0  0  0  0  0  0  0
    5.6574  -11.8530    1.2185 H   0  0  0  0  0  0  0  0  0  0  0  0
    7.3919  -12.4297    1.1523 H   0  0  0  0  0  0  0  0  0  0  0  0
    6.2095   -9.9532    0.1841 H   0  0  0  0  0  0  0  0  0  0  0  0
    7.9408  -10.4340    0.4230 H   0  0  0  0  0  0  0  0  0  0  0  0
    7.2000   -9.8880   -1.9250 H   0  0  0  0  0  0  0  0  0  0  0  0
    6.3990  -11.3470   -1.9500 H   0  0  0  0  0  0  0  0  0  0  0  0
    8.0100  -11.3260   -1.7310 H   0  0  0  0  0  0  0  0  0  0  0  0
    8.9830  -17.9507   -1.3635 H   0  0  0  0  0  0  0  0  0  0  0  0
  1  2  1  0
  2  3  2  0
  3  4  1  0
  4  5  2  0
  5  6  1  0
  6  7  1  0
  7  8  2  0
  7  9  1  0
  9 10  2  0
 10 11  1  0
 11 12  2  0
 12 13  1  0
 13 14  1  0
 14 15  1  0
 14 16  1  0
 14 17  1  0
 13 18  2  0
  5 19  1  0
 19 20  2  0
 20 21  1  0
 21 22  1  0
 22 23  2  0
 23 24  1  0
 24 25  2  0
 25 26  1  0
 26 27  2  0
 27 28  1  0
 28 29  2  0
 29 30  1  0
 30 31  1  0
 31 32  2  0
 32 33  1  0
 33 34  1  0
 34 35  1  0
 35 36  1  0
 36 37  1  0
 37 38  1  0
 33 39  2  0
 39 40  1  0
 40 41  2  0
 20  2  1  0
 30 22  1  0
 41 31  1  0
 18  9  1  0
 29 24  1  0
  1 42  1  0
  1 43  1  0
  1 44  1  0
  3 45  1  0
  4 46  1  0
  6 47  1  0
 10 48  1  0
 11 49  1  0
 12 50  1  0
 18 51  1  0
 19 52  1  0
 21 53  1  0
 25 54  1  0
 26 55  1  0
 27 56  1  0
 28 57  1  0
 32 58  1  0
 34 59  1  0
 35 60  1  0
 35 61  1  0
 36 62  1  0
 36 63  1  0
 37 64  1  0
 37 65  1  0
 38 66  1  0
 38 67  1  0
 38 68  1  0
 40 69  1  0
M  CHG  1  38   1
M  END
>  <meeko>  (8) 
{"is_sidechain": [false], "free_energy": -7.716, "intermolecular_energy": -12.348, "internal_energy": -2.924}

$$$$
LIB_PTWXGAHPCIQUHL__M_PUB_ALL__e8__s20260927
     RDKit          3D

 69 73  0  0  0  0  0  0  0  0999 V2000
    6.2310  -13.0480    0.5980 C   0  0  0  0  0  0  0  0  0  0  0  0
    6.3300  -13.4250   -0.8550 C   0  0  0  0  0  0  0  0  0  0  0  0
    5.1820  -13.3590   -1.6580 C   0  0  0  0  0  0  0  0  0  0  0  0
    5.2230  -13.7470   -2.9980 C   0  0  0  0  0  0  0  0  0  0  0  0
    6.4240  -14.1600   -3.5700 C   0  0  0  0  0  0  0  0  0  0  0  0
    6.5390  -14.5440   -4.9220 N   0  0  0  0  0  0  0  0  0  0  0  0
    6.3620  -13.7100   -6.0070 C   0  0  0  0  0  0  0  0  0  0  0  0
    5.8790  -12.5770   -5.9510 O   0  0  0  0  0  0  0  0  0  0  0  0
    6.7000  -14.2830   -7.3370 C   0  0  0  0  0  0  0  0  0  0  0  0
    7.1630  -15.6020   -7.3870 C   0  0  0  0  0  0  0  0  0  0  0  0
    7.5090  -16.1770   -8.6100 C   0  0  0  0  0  0  0  0  0  0  0  0
    7.4030  -15.4330   -9.7860 C   0  0  0  0  0  0  0  0  0  0  0  0
    6.9500  -14.1060   -9.7540 C   0  0  0  0  0  0  0  0  0  0  0  0
    6.8710  -13.2830  -11.0190 C   0  0  0  0  0  0  0  0  0  0  0  0
    6.7660  -11.9530  -10.7500 F   0  0  0  0  0  0  0  0  0  0  0  0
    7.9480  -13.4280  -11.8340 F   0  0  0  0  0  0  0  0  0  0  0  0
    5.7800  -13.6000  -11.7700 F   0  0  0  0  0  0  0  0  0  0  0  0
    6.6070  -13.5310   -8.5160 C   0  0  0  0  0  0  0  0  0  0  0  0
    7.5800  -14.1880   -2.7890 C   0  0  0  0  0  0  0  0  0  0  0  0
    7.5400  -13.8880   -1.4160 C   0  0  0  0  0  0  0  0  0  0  0  0
    8.6470  -14.1450   -0.5760 N   0  0  0  0  0  0  0  0  0  0  0  0
    9.7630  -13.3950   -0.3880 C   0  0  0  0  0  0  0  0  0  0  0  0
    9.8520  -12.4970    0.5660 N   0  0  0  0  0  0  0  0  0  0  0  0
   10.9890  -11.7870    0.3080 C   0  0  0  0  0  0  0  0  0  0  0  0
   11.4940  -10.6640    0.9800 C   0  0  0  0  0  0  0  0  0  0  0  0
   12.6850  -10.0840    0.5340 C   0  0  0  0  0  0  0  0  0  0  0  0
   13.3670  -10.6190   -0.5570 C   0  0  0  0  0  0  0  0  0  0  0  0
   12.8830  -11.7460   -1.2330 C   0  0  0  0  0  0  0  0  0  0  0  0
   11.6770  -12.3110   -0.7850 C   0  0  0  0  0  0  0  0  0  0  0  0
   10.9410  -13.4380   -1.1510 N   0  0  0  0  0  0  0  0  0  0  0  0
   11.3550  -14.4150   -2.1120 C   0  0  0  0  0  0  0  0  0  0  0  0
   11.6580  -14.0370   -3.4060 C   0  0  0  0  0  0  0  0  0  0  0  0
   12.1860  -14.9940   -4.2530 C   0  0  0  0  0  0  0  0  0  0  0  0
   12.6010  -14.6140   -5.5150 N   0  0  0  0  0  0  0  0  0  0  0  0
   12.1060  -15.2090   -6.7420 C   0  0  0  0  0  0  0  0  0  0  0  0
   12.7470  -14.5570   -7.9710 C   0  0  0  0  0  0  0  0  0  0  0  0
   11.8570  -13.5290   -8.6530 C   0  0  0  0  0  0  0  0  0  0  0  0
   10.4390  -13.8780   -8.5370 N   0  0  0  0  0  0  0  0  0  0  0  0
   12.4030  -16.2580   -3.8410 N   0  0  0  0  0  0  0  0  0  0  0  0
   11.9460  -16.5630   -2.6110 C   0  0  0  0  0  0  0  0  0  0  0  0
   11.4550  -15.7020   -1.7170 N   0  0  0  0  0  0  0  0  0  0  0  0
    6.4613  -13.9249    1.2209 H   0  0  0  0  0  0  0  0  0  0  0  0
    6.9484  -12.2436    0.8178 H   0  0  0  0  0  0  0  0  0  0  0  0
    5.2110  -12.6998    0.8178 H   0  0  0  0  0  0  0  0  0  0  0  0
    4.2373  -12.9968   -1.2262 H   0  0  0  0  0  0  0  0  0  0  0  0
    4.3050  -13.7266   -3.6037 H   0  0  0  0  0  0  0  0  0  0  0  0
    6.7480  -15.5230   -5.0830 H   0  0  0  0  0  0  0  0  0  0  0  0
    7.2545  -16.1871   -6.4600 H   0  0  0  0  0  0  0  0  0  0  0  0
    7.8654  -17.2170   -8.6475 H   0  0  0  0  0  0  0  0  0  0  0  0
    7.6774  -15.8918  -10.7474 H   0  0  0  0  0  0  0  0  0  0  0  0
    6.2644  -12.4866   -8.4736 H   0  0  0  0  0  0  0  0  0  0  0  0
    8.5408  -14.4497   -3.2564 H   0  0  0  0  0  0  0  0  0  0  0  0
    8.4380  -14.8020    0.1730 H   0  0  0  0  0  0  0  0  0  0  0  0
   10.9601  -10.2456    1.8460 H   0  0  0  0  0  0  0  0  0  0  0  0
   13.0869   -9.1985    1.0482 H   0  0  0  0  0  0  0  0  0  0  0  0
   14.3023  -10.1477   -0.8933 H   0  0  0  0  0  0  0  0  0  0  0  0
   13.4289  -12.1747   -2.0864 H   0  0  0  0  0  0  0  0  0  0  0  0
   11.4846  -13.0072   -3.7515 H   0  0  0  0  0  0  0  0  0  0  0  0
   12.9510  -13.6630   -5.5980 H   0  0  0  0  0  0  0  0  0  0  0  0
   12.3429  -16.2832   -6.7410 H   0  0  0  0  0  0  0  0  0  0  0  0
   11.0184  -15.0520   -6.7915 H   0  0  0  0  0  0  0  0  0  0  0  0
   13.6748  -14.0577   -7.6549 H   0  0  0  0  0  0  0  0  0  0  0  0
   12.9294  -15.3589   -8.7015 H   0  0  0  0  0  0  0  0  0  0  0  0
   12.0221  -12.5476   -8.1843 H   0  0  0  0  0  0  0  0  0  0  0  0
   12.1178  -13.5045   -9.7213 H   0  0  0  0  0  0  0  0  0  0  0  0
    9.8360  -13.0360   -8.5170 H   0  0  0  0  0  0  0  0  0  0  0  0
   10.2160  -14.4260   -7.6810 H   0  0  0  0  0  0  0  0  0  0  0  0
   10.1140  -14.4740   -9.3030 H   0  0  0  0  0  0  0  0  0  0  0  0
   11.9808  -17.6220   -2.3154 H   0  0  0  0  0  0  0  0  0  0  0  0
  1  2  1  0
  2  3  2  0
  3  4  1  0
  4  5  2  0
  5  6  1  0
  6  7  1  0
  7  8  2  0
  7  9  1  0
  9 10  2  0
 10 11  1  0
 11 12  2  0
 12 13  1  0
 13 14  1  0
 14 15  1  0
 14 16  1  0
 14 17  1  0
 13 18  2  0
  5 19  1  0
 19 20  2  0
 20 21  1  0
 21 22  1  0
 22 23  2  0
 23 24  1  0
 24 25  2  0
 25 26  1  0
 26 27  2  0
 27 28  1  0
 28 29  2  0
 29 30  1  0
 30 31  1  0
 31 32  2  0
 32 33  1  0
 33 34  1  0
 34 35  1  0
 35 36  1  0
 36 37  1  0
 37 38  1  0
 33 39  2  0
 39 40  1  0
 40 41  2  0
 20  2  1  0
 30 22  1  0
 41 31  1  0
 18  9  1  0
 29 24  1  0
  1 42  1  0
  1 43  1  0
  1 44  1  0
  3 45  1  0
  4 46  1  0
  6 47  1  0
 10 48  1  0
 11 49  1  0
 12 50  1  0
 18 51  1  0
 19 52  1  0
 21 53  1  0
 25 54  1  0
 26 55  1  0
 27 56  1  0
 28 57  1  0
 32 58  1  0
 34 59  1  0
 35 60  1  0
 35 61  1  0
 36 62  1  0
 36 63  1  0
 37 64  1  0
 37 65  1  0
 38 66  1  0
 38 67  1  0
 38 68  1  0
 40 69  1  0
M  CHG  1  38   1
M  END
>  <meeko>  (9) 
{"is_sidechain": [false], "free_energy": -7.698, "intermolecular_energy": -12.898, "internal_energy": -2.345}

$$$$
