LIB_RCFMYOVNMVCRHQ__M_PUB_ALL__e8__s20260927
     RDKit          3D

 78 82  0  0  0  0  0  0  0  0999 V2000
    6.8610  -15.8550   -1.0280 C   0  0  0  0  0  0  0  0  0  0  0  0
    7.2670  -15.4700   -2.4280 C   0  0  0  0  0  0  0  0  0  0  0  0
    6.2710  -15.3960   -3.4160 C   0  0  0  0  0  0  0  0  0  0  0  0
    6.5940  -15.0490   -4.7240 C   0  0  0  0  0  0  0  0  0  0  0  0
    7.9200  -14.7630   -5.0550 C   0  0  0  0  0  0  0  0  0  0  0  0
    8.2480  -14.4750   -6.4730 C   0  0  0  0  0  0  0  0  0  0  0  0
    9.4330  -14.5200   -6.7910 O   0  0  0  0  0  0  0  0  0  0  0  0
    7.1630  -14.1840   -7.2720 N   0  0  0  0  0  0  0  0  0  0  0  0
    7.1730  -13.8270   -8.6370 C   0  0  0  0  0  0  0  0  0  0  0  0
    7.3100  -14.7410   -9.6820 C   0  0  0  0  0  0  0  0  0  0  0  0
    7.3170  -14.3040  -11.0100 C   0  0  0  0  0  0  0  0  0  0  0  0
    7.1880  -12.9480  -11.3060 C   0  0  0  0  0  0  0  0  0  0  0  0
    7.0420  -12.0140  -10.2730 C   0  0  0  0  0  0  0  0  0  0  0  0
    6.9250  -10.5400  -10.5800 C   0  0  0  0  0  0  0  0  0  0  0  0
    8.0600  -10.0240  -11.1280 F   0  0  0  0  0  0  0  0  0  0  0  0
    5.9280  -10.2800  -11.4680 F   0  0  0  0  0  0  0  0  0  0  0  0
    6.6620   -9.7820   -9.4810 F   0  0  0  0  0  0  0  0  0  0  0  0
    7.0440  -12.4650   -8.9420 C   0  0  0  0  0  0  0  0  0  0  0  0
    8.9220  -14.8200   -4.0780 C   0  0  0  0  0  0  0  0  0  0  0  0
    8.6100  -15.1530   -2.7510 C   0  0  0  0  0  0  0  0  0  0  0  0
    9.6040  -15.2470   -1.7420 N   0  0  0  0  0  0  0  0  0  0  0  0
   10.4490  -14.2790   -1.3130 C   0  0  0  0  0  0  0  0  0  0  0  0
   10.1790  -13.5640   -0.2470 N   0  0  0  0  0  0  0  0  0  0  0  0
   11.1140  -12.5740   -0.2150 C   0  0  0  0  0  0  0  0  0  0  0  0
   11.2140  -11.4960    0.6780 C   0  0  0  0  0  0  0  0  0  0  0  0
   12.2500  -10.5740    0.5170 C   0  0  0  0  0  0  0  0  0  0  0  0
   13.1740  -10.7260   -0.5120 C   0  0  0  0  0  0  0  0  0  0  0  0
   13.0950  -11.8030   -1.4040 C   0  0  0  0  0  0  0  0  0  0  0  0
   12.0440  -12.7250   -1.2410 C   0  0  0  0  0  0  0  0  0  0  0  0
   11.6800  -13.9170   -1.8800 N   0  0  0  0  0  0  0  0  0  0  0  0
   12.4710  -14.6010   -2.8690 C   0  0  0  0  0  0  0  0  0  0  0  0
   12.7340  -14.0410   -4.1060 C   0  0  0  0  0  0  0  0  0  0  0  0
   13.4660  -14.7900   -5.0150 C   0  0  0  0  0  0  0  0  0  0  0  0
   13.8110  -14.2190   -6.2400 N   0  0  0  0  0  0  0  0  0  0  0  0
   14.4210  -15.0340   -7.2850 C   0  0  0  0  0  0  0  0  0  0  0  0
   13.5790  -15.2440   -8.5480 C   0  0  0  0  0  0  0  0  0  0  0  0
   13.7240  -14.2070   -9.6650 C   0  0  0  0  0  0  0  0  0  0  0  0
   12.6630  -13.1160   -9.6160 C   0  0  0  0  0  0  0  0  0  0  0  0
   12.0690  -12.8240  -10.9780 N   0  0  0  0  0  0  0  0  0  0  0  0
   13.0720  -12.4160  -12.0180 C   0  0  0  0  0  0  0  0  0  0  0  0
   10.8960  -11.8820  -10.9330 C   0  0  0  0  0  0  0  0  0  0  0  0
   13.9150  -16.0110   -4.7110 N   0  0  0  0  0  0  0  0  0  0  0  0
   13.6070  -16.4860   -3.5020 C   0  0  0  0  0  0  0  0  0  0  0  0
   12.9150  -15.8360   -2.5620 N   0  0  0  0  0  0  0  0  0  0  0  0
    7.4611  -15.2860   -0.3026 H   0  0  0  0  0  0  0  0  0  0  0  0
    5.7949  -15.6282   -0.8800 H   0  0  0  0  0  0  0  0  0  0  0  0
    7.0309  -16.9317   -0.8800 H   0  0  0  0  0  0  0  0  0  0  0  0
    5.2255  -15.6146   -3.1529 H   0  0  0  0  0  0  0  0  0  0  0  0
    5.8091  -15.0002   -5.4931 H   0  0  0  0  0  0  0  0  0  0  0  0
    6.2440  -14.2580   -6.8500 H   0  0  0  0  0  0  0  0  0  0  0  0
    7.4133  -15.8133   -9.4595 H   0  0  0  0  0  0  0  0  0  0  0  0
    7.4249  -15.0341  -11.8256 H   0  0  0  0  0  0  0  0  0  0  0  0
    7.2009  -12.6110  -12.3530 H   0  0  0  0  0  0  0  0  0  0  0  0
    6.9425  -11.7359   -8.1246 H   0  0  0  0  0  0  0  0  0  0  0  0
    9.9642  -14.6015   -4.3538 H   0  0  0  0  0  0  0  0  0  0  0  0
    9.2870  -15.8470   -0.9800 H   0  0  0  0  0  0  0  0  0  0  0  0
   10.4857  -11.3790    1.4941 H   0  0  0  0  0  0  0  0  0  0  0  0
   12.3362   -9.7223    1.2078 H   0  0  0  0  0  0  0  0  0  0  0  0
   13.9809   -9.9873   -0.6271 H   0  0  0  0  0  0  0  0  0  0  0  0
   13.8339  -11.9249   -2.2097 H   0  0  0  0  0  0  0  0  0  0  0  0
   12.3739  -13.0333   -4.3607 H   0  0  0  0  0  0  0  0  0  0  0  0
   13.1150  -13.5620   -6.5840 H   0  0  0  0  0  0  0  0  0  0  0  0
   15.3620  -14.5492   -7.5842 H   0  0  0  0  0  0  0  0  0  0  0  0
   14.5510  -16.0336   -6.8447 H   0  0  0  0  0  0  0  0  0  0  0  0
   13.8511  -16.2235   -8.9682 H   0  0  0  0  0  0  0  0  0  0  0  0
   12.5355  -15.1549   -8.2116 H   0  0  0  0  0  0  0  0  0  0  0  0
   14.7139  -13.7354   -9.5771 H   0  0  0  0  0  0  0  0  0  0  0  0
   13.6010  -14.7382  -10.6204 H   0  0  0  0  0  0  0  0  0  0  0  0
   11.8564  -13.4382   -8.9410 H   0  0  0  0  0  0  0  0  0  0  0  0
   13.1463  -12.1952   -9.2575 H   0  0  0  0  0  0  0  0  0  0  0  0
   11.6820  -13.7190  -11.3010 H   0  0  0  0  0  0  0  0  0  0  0  0
   13.9824  -12.0457  -11.5240 H   0  0  0  0  0  0  0  0  0  0  0  0
   13.3227  -13.2837  -12.6460 H   0  0  0  0  0  0  0  0  0  0  0  0
   12.6458  -11.6198  -12.6460 H   0  0  0  0  0  0  0  0  0  0  0  0
   10.6344  -11.6719   -9.8854 H   0  0  0  0  0  0  0  0  0  0  0  0
   11.1605  -10.9425  -11.4404 H   0  0  0  0  0  0  0  0  0  0  0  0
   10.0358  -12.3431  -11.4404 H   0  0  0  0  0  0  0  0  0  0  0  0
   13.9532  -17.5013   -3.2585 H   0  0  0  0  0  0  0  0  0  0  0  0
  1  2  1  0
  2  3  2  0
  3  4  1  0
  4  5  2  0
  5  6  1  0
  6  7  2  0
  6  8  1  0
  8  9  1  0
  9 10  2  0
 10 11  1  0
 11 12  2  0
 12 13  1  0
 13 14  1  0
 14 15  1  0
 14 16  1  0
 14 17  1  0
 13 18  2  0
  5 19  1  0
 19 20  2  0
 20 21  1  0
 21 22  1  0
 22 23  2  0
 23 24  1  0
 24 25  2  0
 25 26  1  0
 26 27  2  0
 27 28  1  0
 28 29  2  0
 29 30  1  0
 30 31  1  0
 31 32  2  0
 32 33  1  0
 33 34  1  0
 34 35  1  0
 35 36  1  0
 36 37  1  0
 37 38  1  0
 38 39  1  0
 39 40  1  0
 39 41  1  0
 33 42  2  0
 42 43  1  0
 43 44  2  0
 20  2  1  0
 30 22  1  0
 44 31  1  0
 18  9  1  0
 29 24  1  0
  1 45  1  0
  1 46  1  0
  1 47  1  0
  3 48  1  0
  4 49  1  0
  8 50  1  0
 10 51  1  0
 11 52  1  0
 12 53  1  0
 18 54  1  0
 19 55  1  0
 21 56  1  0
 25 57  1  0
 26 58  1  0
 27 59  1  0
 28 60  1  0
 32 61  1  0
 34 62  1  0
 35 63  1  0
 35 64  1  0
 36 65  1  0
 36 66  1  0
 37 67  1  0
 37 68  1  0
 38 69  1  0
 38 70  1  0
 39 71  1  0
 40 72  1  0
 40 73  1  0
 40 74  1  0
 41 75  1  0
 41 76  1  0
 41 77  1  0
 43 78  1  0
M  CHG  1  39   1
M  END
>  <meeko>  (1) 
{"is_sidechain": [false], "free_energy": -8.367, "intermolecular_energy": -14.237, "internal_energy": -2.564}

$$$$
LIB_RCFMYOVNMVCRHQ__M_PUB_ALL__e8__s20260927
     RDKit          3D

 78 82  0  0  0  0  0  0  0  0999 V2000
    5.8450  -12.0190   -0.1890 C   0  0  0  0  0  0  0  0  0  0  0  0
    5.8970  -12.3970   -1.6480 C   0  0  0  0  0  0  0  0  0  0  0  0
    4.8950  -11.9060   -2.5010 C   0  0  0  0  0  0  0  0  0  0  0  0
    4.8960  -12.2300   -3.8540 C   0  0  0  0  0  0  0  0  0  0  0  0
    5.9070  -13.0410   -4.3700 C   0  0  0  0  0  0  0  0  0  0  0  0
    5.8380  -13.4360   -5.8000 C   0  0  0  0  0  0  0  0  0  0  0  0
    4.7560  -13.3030   -6.3630 O   0  0  0  0  0  0  0  0  0  0  0  0
    7.0190  -13.9130   -6.3270 N   0  0  0  0  0  0  0  0  0  0  0  0
    7.2400  -14.4030   -7.6320 C   0  0  0  0  0  0  0  0  0  0  0  0
    7.3790  -15.7550   -7.9440 C   0  0  0  0  0  0  0  0  0  0  0  0
    7.6030  -16.1590   -9.2640 C   0  0  0  0  0  0  0  0  0  0  0  0
    7.6910  -15.2130  -10.2840 C   0  0  0  0  0  0  0  0  0  0  0  0
    7.5470  -13.8500   -9.9950 C   0  0  0  0  0  0  0  0  0  0  0  0
    7.6630  -12.8150  -11.0870 C   0  0  0  0  0  0  0  0  0  0  0  0
    6.4800  -12.1910  -11.3480 F   0  0  0  0  0  0  0  0  0  0  0  0
    8.5430  -11.8290  -10.7650 F   0  0  0  0  0  0  0  0  0  0  0  0
    8.0850  -13.3290  -12.2730 F   0  0  0  0  0  0  0  0  0  0  0  0
    7.3290  -13.4570   -8.6620 C   0  0  0  0  0  0  0  0  0  0  0  0
    6.9210  -13.5270   -3.5350 C   0  0  0  0  0  0  0  0  0  0  0  0
    6.9430  -13.1980   -2.1710 C   0  0  0  0  0  0  0  0  0  0  0  0
    7.9380  -13.6950   -1.2890 N   0  0  0  0  0  0  0  0  0  0  0  0
    9.2020  -13.2370   -1.1170 C   0  0  0  0  0  0  0  0  0  0  0  0
    9.5560  -12.6160   -0.0160 N   0  0  0  0  0  0  0  0  0  0  0  0
   10.8050  -12.1260   -0.2500 C   0  0  0  0  0  0  0  0  0  0  0  0
   11.5930  -11.3140    0.5800 C   0  0  0  0  0  0  0  0  0  0  0  0
   12.8500  -10.9020    0.1330 C   0  0  0  0  0  0  0  0  0  0  0  0
   13.3160  -11.2970   -1.1170 C   0  0  0  0  0  0  0  0  0  0  0  0
   12.5470  -12.1170   -1.9520 C   0  0  0  0  0  0  0  0  0  0  0  0
   11.2770  -12.5230   -1.4980 C   0  0  0  0  0  0  0  0  0  0  0  0
   10.2760  -13.3590   -2.0100 N   0  0  0  0  0  0  0  0  0  0  0  0
   10.4040  -14.1800   -3.1840 C   0  0  0  0  0  0  0  0  0  0  0  0
   10.4510  -13.6340   -4.4540 C   0  0  0  0  0  0  0  0  0  0  0  0
   10.5280  -14.5030   -5.5320 C   0  0  0  0  0  0  0  0  0  0  0  0
   10.6520  -13.9770   -6.8180 N   0  0  0  0  0  0  0  0  0  0  0  0
   11.7050  -14.4530   -7.7080 C   0  0  0  0  0  0  0  0  0  0  0  0
   11.2550  -14.8740   -9.1110 C   0  0  0  0  0  0  0  0  0  0  0  0
   12.3510  -15.1620  -10.1400 C   0  0  0  0  0  0  0  0  0  0  0  0
   13.5140  -15.9630   -9.5730 C   0  0  0  0  0  0  0  0  0  0  0  0
   14.7560  -15.1200   -9.3710 N   0  0  0  0  0  0  0  0  0  0  0  0
   15.6470  -15.0280  -10.5760 C   0  0  0  0  0  0  0  0  0  0  0  0
   15.5300  -15.4750   -8.1300 C   0  0  0  0  0  0  0  0  0  0  0  0
   10.5670  -15.8270   -5.3590 N   0  0  0  0  0  0  0  0  0  0  0  0
   10.5050  -16.2760   -4.1030 C   0  0  0  0  0  0  0  0  0  0  0  0
   10.4350  -15.5160   -3.0070 N   0  0  0  0  0  0  0  0  0  0  0  0
    5.9691  -12.9211    0.4281 H   0  0  0  0  0  0  0  0  0  0  0  0
    6.6538  -11.3077    0.0345 H   0  0  0  0  0  0  0  0  0  0  0  0
    4.8742  -11.5525    0.0345 H   0  0  0  0  0  0  0  0  0  0  0  0
    4.1025  -11.2596   -2.0958 H   0  0  0  0  0  0  0  0  0  0  0  0
    4.1031  -11.8484   -4.5140 H   0  0  0  0  0  0  0  0  0  0  0  0
    7.8370  -13.8910   -5.7270 H   0  0  0  0  0  0  0  0  0  0  0  0
    7.3120  -16.5092   -7.1461 H   0  0  0  0  0  0  0  0  0  0  0  0
    7.7103  -17.2284   -9.4985 H   0  0  0  0  0  0  0  0  0  0  0  0
    7.8741  -15.5378  -11.3189 H   0  0  0  0  0  0  0  0  0  0  0  0
    7.2266  -12.3880   -8.4239 H   0  0  0  0  0  0  0  0  0  0  0  0
    7.7076  -14.1728   -3.9524 H   0  0  0  0  0  0  0  0  0  0  0  0
    7.5200  -14.0080   -0.4130 H   0  0  0  0  0  0  0  0  0  0  0  0
   11.2252  -11.0061    1.5699 H   0  0  0  0  0  0  0  0  0  0  0  0
   13.4752  -10.2617    0.7726 H   0  0  0  0  0  0  0  0  0  0  0  0
   14.3065  -10.9590   -1.4556 H   0  0  0  0  0  0  0  0  0  0  0  0
   12.9243  -12.4352   -2.9351 H   0  0  0  0  0  0  0  0  0  0  0  0
   10.4280  -12.5445   -4.6042 H   0  0  0  0  0  0  0  0  0  0  0  0
    9.7570  -13.8320   -7.2780 H   0  0  0  0  0  0  0  0  0  0  0  0
   12.4434  -13.6452   -7.8190 H   0  0  0  0  0  0  0  0  0  0  0  0
   12.1040  -15.3636   -7.2373 H   0  0  0  0  0  0  0  0  0  0  0  0
   10.6523  -15.7880   -9.0049 H   0  0  0  0  0  0  0  0  0  0  0  0
   10.7144  -14.0025   -9.5089 H   0  0  0  0  0  0  0  0  0  0  0  0
   11.9085  -15.7300  -10.9716 H   0  0  0  0  0  0  0  0  0  0  0  0
   12.7529  -14.1919  -10.4679 H   0  0  0  0  0  0  0  0  0  0  0  0
   13.2122  -16.3843   -8.6028 H   0  0  0  0  0  0  0  0  0  0  0  0
   13.7606  -16.7525  -10.2981 H   0  0  0  0  0  0  0  0  0  0  0  0
   14.4100  -14.1660   -9.2080 H   0  0  0  0  0  0  0  0  0  0  0  0
   16.6925  -14.9200  -10.2516 H   0  0  0  0  0  0  0  0  0  0  0  0
   15.5429  -15.9417  -11.1796 H   0  0  0  0  0  0  0  0  0  0  0  0
   15.3584  -14.1549  -11.1796 H   0  0  0  0  0  0  0  0  0  0  0  0
   14.9413  -15.2050   -7.2409 H   0  0  0  0  0  0  0  0  0  0  0  0
   15.7328  -16.5561   -8.1210 H   0  0  0  0  0  0  0  0  0  0  0  0
   16.4816  -14.9234   -8.1210 H   0  0  0  0  0  0  0  0  0  0  0  0
   10.5122  -17.3664   -3.9585 H   0  0  0  0  0  0  0  0  0  0  0  0
  1  2  1  0
  2  3  2  0
  3  4  1  0
  4  5  2  0
  5  6  1  0
  6  7  2  0
  6  8  1  0
  8  9  1  0
  9 10  2  0
 10 11  1  0
 11 12  2  0
 12 13  1  0
 13 14  1  0
 14 15  1  0
 14 16  1  0
 14 17  1  0
 13 18  2  0
  5 19  1  0
 19 20  2  0
 20 21  1  0
 21 22  1  0
 22 23  2  0
 23 24  1  0
 24 25  2  0
 25 26  1  0
 26 27  2  0
 27 28  1  0
 28 29  2  0
 29 30  1  0
 30 31  1  0
 31 32  2  0
 32 33  1  0
 33 34  1  0
 34 35  1  0
 35 36  1  0
 36 37  1  0
 37 38  1  0
 38 39  1  0
 39 40  1  0
 39 41  1  0
 33 42  2  0
 42 43  1  0
 43 44  2  0
 20  2  1  0
 30 22  1  0
 44 31  1  0
 18  9  1  0
 29 24  1  0
  1 45  1  0
  1 46  1  0
  1 47  1  0
  3 48  1  0
  4 49  1  0
  8 50  1  0
 10 51  1  0
 11 52  1  0
 12 53  1  0
 18 54  1  0
 19 55  1  0
 21 56  1  0
 25 57  1  0
 26 58  1  0
 27 59  1  0
 28 60  1  0
 32 61  1  0
 34 62  1  0
 35 63  1  0
 35 64  1  0
 36 65  1  0
 36 66  1  0
 37 67  1  0
 37 68  1  0
 38 69  1  0
 38 70  1  0
 39 71  1  0
 40 72  1  0
 40 73  1  0
 40 74  1  0
 41 75  1  0
 41 76  1  0
 41 77  1  0
 43 78  1  0
M  CHG  1  39   1
M  END
>  <meeko>  (2) 
{"is_sidechain": [false], "free_energy": -8.219, "intermolecular_energy": -13.434, "internal_energy": -3.116}

$$$$
LIB_RCFMYOVNMVCRHQ__M_PUB_ALL__e8__s20260927
     RDKit          3D

 78 82  0  0  0  0  0  0  0  0999 V2000
    4.7650  -12.5100   -5.9300 C   0  0  0  0  0  0  0  0  0  0  0  0
    3.9260  -12.7430   -4.6980 C   0  0  0  0  0  0  0  0  0  0  0  0
    2.7710  -13.5340   -4.8180 C   0  0  0  0  0  0  0  0  0  0  0  0
    1.9610  -13.7750   -3.7120 C   0  0  0  0  0  0  0  0  0  0  0  0
    2.3040  -13.2320   -2.4730 C   0  0  0  0  0  0  0  0  0  0  0  0
    1.3790  -13.4380   -1.3300 C   0  0  0  0  0  0  0  0  0  0  0  0
    0.7130  -14.4680   -1.3310 O   0  0  0  0  0  0  0  0  0  0  0  0
    1.3800  -12.4270   -0.3930 N   0  0  0  0  0  0  0  0  0  0  0  0
    0.5780  -12.3270    0.7620 C   0  0  0  0  0  0  0  0  0  0  0  0
    0.3630  -13.3760    1.6570 C   0  0  0  0  0  0  0  0  0  0  0  0
   -0.4530  -13.1960    2.7770 C   0  0  0  0  0  0  0  0  0  0  0  0
   -1.0630  -11.9660    3.0140 C   0  0  0  0  0  0  0  0  0  0  0  0
   -0.8560  -10.8960    2.1350 C   0  0  0  0  0  0  0  0  0  0  0  0
   -1.5290   -9.5650    2.3680 C   0  0  0  0  0  0  0  0  0  0  0  0
   -0.6440   -8.5300    2.4220 F   0  0  0  0  0  0  0  0  0  0  0  0
   -2.4070   -9.2550    1.3770 F   0  0  0  0  0  0  0  0  0  0  0  0
   -2.2340   -9.5160    3.5300 F   0  0  0  0  0  0  0  0  0  0  0  0
   -0.0380  -11.0920    1.0070 C   0  0  0  0  0  0  0  0  0  0  0  0
    3.4590  -12.4520   -2.3360 C   0  0  0  0  0  0  0  0  0  0  0  0
    4.2950  -12.2120   -3.4370 C   0  0  0  0  0  0  0  0  0  0  0  0
    5.4580  -11.4040   -3.3420 N   0  0  0  0  0  0  0  0  0  0  0  0
    6.7160  -11.7900   -3.0200 C   0  0  0  0  0  0  0  0  0  0  0  0
    7.6320  -11.9630   -3.9440 N   0  0  0  0  0  0  0  0  0  0  0  0
    8.6970  -12.5300   -3.3130 C   0  0  0  0  0  0  0  0  0  0  0  0
    9.8990  -12.9900   -3.8720 C   0  0  0  0  0  0  0  0  0  0  0  0
   10.8610  -13.5640   -3.0380 C   0  0  0  0  0  0  0  0  0  0  0  0
   10.6310  -13.6720   -1.6700 C   0  0  0  0  0  0  0  0  0  0  0  0
    9.4410  -13.2070   -1.0950 C   0  0  0  0  0  0  0  0  0  0  0  0
    8.4730  -12.6360   -1.9430 C   0  0  0  0  0  0  0  0  0  0  0  0
    7.2260  -12.0310   -1.7360 N   0  0  0  0  0  0  0  0  0  0  0  0
    6.6660  -11.7090   -0.4510 C   0  0  0  0  0  0  0  0  0  0  0  0
    5.7120  -12.5120    0.1500 C   0  0  0  0  0  0  0  0  0  0  0  0
    5.1920  -12.1000    1.3680 C   0  0  0  0  0  0  0  0  0  0  0  0
    4.2860  -12.9280    2.0310 N   0  0  0  0  0  0  0  0  0  0  0  0
    4.4290  -14.3780    1.9620 C   0  0  0  0  0  0  0  0  0  0  0  0
    3.3020  -15.1280    1.2440 C   0  0  0  0  0  0  0  0  0  0  0  0
    3.7100  -16.2050    0.2350 C   0  0  0  0  0  0  0  0  0  0  0  0
    5.2100  -16.2560   -0.0180 C   0  0  0  0  0  0  0  0  0  0  0  0
    5.5450  -16.6940   -1.4280 N   0  0  0  0  0  0  0  0  0  0  0  0
    4.6850  -16.0750   -2.4920 C   0  0  0  0  0  0  0  0  0  0  0  0
    5.6430  -18.1880   -1.5880 C   0  0  0  0  0  0  0  0  0  0  0  0
    5.6000  -10.9710    1.9540 N   0  0  0  0  0  0  0  0  0  0  0  0
    6.5120  -10.2460    1.3040 C   0  0  0  0  0  0  0  0  0  0  0  0
    7.0730  -10.5650    0.1350 N   0  0  0  0  0  0  0  0  0  0  0  0
    5.7849  -12.2268   -5.6308 H   0  0  0  0  0  0  0  0  0  0  0  0
    4.8012  -13.4321   -6.5287 H   0  0  0  0  0  0  0  0  0  0  0  0
    4.3206  -11.7013   -6.5287 H   0  0  0  0  0  0  0  0  0  0  0  0
    2.5047  -13.9663   -5.7938 H   0  0  0  0  0  0  0  0  0  0  0  0
    1.0550  -14.3904   -3.8140 H   0  0  0  0  0  0  0  0  0  0  0  0
    2.0490  -11.6750   -0.5240 H   0  0  0  0  0  0  0  0  0  0  0  0
    0.8393  -14.3515    1.4795 H   0  0  0  0  0  0  0  0  0  0  0  0
   -0.6147  -14.0302    3.4755 H   0  0  0  0  0  0  0  0  0  0  0  0
   -1.7093  -11.8351    3.8945 H   0  0  0  0  0  0  0  0  0  0  0  0
    0.1210  -10.2606    0.3045 H   0  0  0  0  0  0  0  0  0  0  0  0
    3.7134  -12.0232   -1.3555 H   0  0  0  0  0  0  0  0  0  0  0  0
    5.4490  -10.6750   -4.0560 H   0  0  0  0  0  0  0  0  0  0  0  0
   10.0812  -12.8997   -4.9530 H   0  0  0  0  0  0  0  0  0  0  0  0
   11.8054  -13.9326   -3.4648 H   0  0  0  0  0  0  0  0  0  0  0  0
   11.3975  -14.1309   -1.0282 H   0  0  0  0  0  0  0  0  0  0  0  0
    9.2679  -13.2858   -0.0116 H   0  0  0  0  0  0  0  0  0  0  0  0
    5.3771  -13.4468   -0.3232 H   0  0  0  0  0  0  0  0  0  0  0  0
    4.0320  -12.5830    2.9530 H   0  0  0  0  0  0  0  0  0  0  0  0
    5.3695  -14.5993    1.4363 H   0  0  0  0  0  0  0  0  0  0  0  0
    4.4040  -14.7296    3.0040 H   0  0  0  0  0  0  0  0  0  0  0  0
    2.6843  -15.6131    2.0141 H   0  0  0  0  0  0  0  0  0  0  0  0
    2.7864  -14.3612    0.6472 H   0  0  0  0  0  0  0  0  0  0  0  0
    3.3874  -17.1838    0.6195 H   0  0  0  0  0  0  0  0  0  0  0  0
    3.2267  -15.9554   -0.7211 H   0  0  0  0  0  0  0  0  0  0  0  0
    5.6304  -15.2534    0.1493 H   0  0  0  0  0  0  0  0  0  0  0  0
    5.6408  -16.9953    0.6732 H   0  0  0  0  0  0  0  0  0  0  0  0
    6.4950  -16.3430   -1.6010 H   0  0  0  0  0  0  0  0  0  0  0  0
    3.8786  -15.4946   -2.0200 H   0  0  0  0  0  0  0  0  0  0  0  0
    5.2979  -15.4095   -3.1177 H   0  0  0  0  0  0  0  0  0  0  0  0
    4.2485  -16.8675   -3.1177 H   0  0  0  0  0  0  0  0  0  0  0  0
    5.6741  -18.6618   -0.5957 H   0  0  0  0  0  0  0  0  0  0  0  0
    4.7670  -18.5556   -2.1426 H   0  0  0  0  0  0  0  0  0  0  0  0
    6.5595  -18.4380   -2.1426 H   0  0  0  0  0  0  0  0  0  0  0  0
    6.8297   -9.3027    1.7722 H   0  0  0  0  0  0  0  0  0  0  0  0
  1  2  1  0
  2  3  2  0
  3  4  1  0
  4  5  2  0
  5  6  1  0
  6  7  2  0
  6  8  1  0
  8  9  1  0
  9 10  2  0
 10 11  1  0
 11 12  2  0
 12 13  1  0
 13 14  1  0
 14 15  1  0
 14 16  1  0
 14 17  1  0
 13 18  2  0
  5 19  1  0
 19 20  2  0
 20 21  1  0
 21 22  1  0
 22 23  2  0
 23 24  1  0
 24 25  2  0
 25 26  1  0
 26 27  2  0
 27 28  1  0
 28 29  2  0
 29 30  1  0
 30 31  1  0
 31 32  2  0
 32 33  1  0
 33 34  1  0
 34 35  1  0
 35 36  1  0
 36 37  1  0
 37 38  1  0
 38 39  1  0
 39 40  1  0
 39 41  1  0
 33 42  2  0
 42 43  1  0
 43 44  2  0
 20  2  1  0
 30 22  1  0
 44 31  1  0
 18  9  1  0
 29 24  1  0
  1 45  1  0
  1 46  1  0
  1 47  1  0
  3 48  1  0
  4 49  1  0
  8 50  1  0
 10 51  1  0
 11 52  1  0
 12 53  1  0
 18 54  1  0
 19 55  1  0
 21 56  1  0
 25 57  1  0
 26 58  1  0
 27 59  1  0
 28 60  1  0
 32 61  1  0
 34 62  1  0
 35 63  1  0
 35 64  1  0
 36 65  1  0
 36 66  1  0
 37 67  1  0
 37 68  1  0
 38 69  1  0
 38 70  1  0
 39 71  1  0
 40 72  1  0
 40 73  1  0
 40 74  1  0
 41 75  1  0
 41 76  1  0
 41 77  1  0
 43 78  1  0
M  CHG  1  39   1
M  END
>  <meeko>  (3) 
{"is_sidechain": [false], "free_energy": -8.219, "intermolecular_energy": -13.311, "internal_energy": -3.238}

$$$$
LIB_RCFMYOVNMVCRHQ__M_PUB_ALL__e8__s20260927
     RDKit          3D

 78 82  0  0  0  0  0  0  0  0999 V2000
   12.0790  -12.0450   -1.2480 C   0  0  0  0  0  0  0  0  0  0  0  0
   11.6910  -12.6600   -2.5690 C   0  0  0  0  0  0  0  0  0  0  0  0
   12.6860  -13.3050   -3.3230 C   0  0  0  0  0  0  0  0  0  0  0  0
   12.3800  -13.8840   -4.5500 C   0  0  0  0  0  0  0  0  0  0  0  0
   11.0710  -13.8310   -5.0320 C   0  0  0  0  0  0  0  0  0  0  0  0
   10.7910  -14.3860   -6.3800 C   0  0  0  0  0  0  0  0  0  0  0  0
   11.7580  -14.7300   -7.0530 O   0  0  0  0  0  0  0  0  0  0  0  0
    9.4560  -14.4440   -6.7170 N   0  0  0  0  0  0  0  0  0  0  0  0
    8.8970  -14.8750   -7.9390 C   0  0  0  0  0  0  0  0  0  0  0  0
    8.7260  -16.2150   -8.2890 C   0  0  0  0  0  0  0  0  0  0  0  0
    8.1700  -16.5600   -9.5240 C   0  0  0  0  0  0  0  0  0  0  0  0
    7.7780  -15.5680  -10.4210 C   0  0  0  0  0  0  0  0  0  0  0  0
    7.9320  -14.2170  -10.0880 C   0  0  0  0  0  0  0  0  0  0  0  0
    7.5330  -13.1330  -11.0600 C   0  0  0  0  0  0  0  0  0  0  0  0
    8.2850  -13.1420  -12.1970 F   0  0  0  0  0  0  0  0  0  0  0  0
    6.2400  -13.2600  -11.4650 F   0  0  0  0  0  0  0  0  0  0  0  0
    7.6480  -11.8800  -10.5450 F   0  0  0  0  0  0  0  0  0  0  0  0
    8.5000  -13.8830   -8.8450 C   0  0  0  0  0  0  0  0  0  0  0  0
   10.0670  -13.2030   -4.2860 C   0  0  0  0  0  0  0  0  0  0  0  0
   10.3540  -12.6280   -3.0390 C   0  0  0  0  0  0  0  0  0  0  0  0
    9.3680  -11.9590   -2.2690 N   0  0  0  0  0  0  0  0  0  0  0  0
    8.4690  -12.5040   -1.4140 C   0  0  0  0  0  0  0  0  0  0  0  0
    8.1360  -11.8970   -0.2990 N   0  0  0  0  0  0  0  0  0  0  0  0
    7.3830  -12.7890    0.4020 C   0  0  0  0  0  0  0  0  0  0  0  0
    6.8540  -12.6590    1.6950 C   0  0  0  0  0  0  0  0  0  0  0  0
    6.1200  -13.7150    2.2380 C   0  0  0  0  0  0  0  0  0  0  0  0
    5.9110  -14.8780    1.5040 C   0  0  0  0  0  0  0  0  0  0  0  0
    6.4230  -15.0190    0.2080 C   0  0  0  0  0  0  0  0  0  0  0  0
    7.1680  -13.9530   -0.3310 C   0  0  0  0  0  0  0  0  0  0  0  0
    7.7720  -13.7110   -1.5720 N   0  0  0  0  0  0  0  0  0  0  0  0
    7.6290  -14.5410   -2.7390 C   0  0  0  0  0  0  0  0  0  0  0  0
    6.7160  -14.2450   -3.7350 C   0  0  0  0  0  0  0  0  0  0  0  0
    6.6130  -15.1250   -4.8020 C   0  0  0  0  0  0  0  0  0  0  0  0
    5.7550  -14.8130   -5.8570 N   0  0  0  0  0  0  0  0  0  0  0  0
    5.7460  -13.4700   -6.4240 C   0  0  0  0  0  0  0  0  0  0  0  0
    4.5220  -12.6100   -6.0910 C   0  0  0  0  0  0  0  0  0  0  0  0
    3.3730  -13.2900   -5.3410 C   0  0  0  0  0  0  0  0  0  0  0  0
    3.2400  -12.8290   -3.8970 C   0  0  0  0  0  0  0  0  0  0  0  0
    3.9030  -11.4890   -3.6530 N   0  0  0  0  0  0  0  0  0  0  0  0
    4.8050  -11.4510   -2.4530 C   0  0  0  0  0  0  0  0  0  0  0  0
    2.9410  -10.3300   -3.6650 C   0  0  0  0  0  0  0  0  0  0  0  0
    7.3740  -16.2210   -4.8780 N   0  0  0  0  0  0  0  0  0  0  0  0
    8.2210  -16.4410   -3.8710 C   0  0  0  0  0  0  0  0  0  0  0  0
    8.3930  -15.6490   -2.8090 N   0  0  0  0  0  0  0  0  0  0  0  0
   11.6886  -12.6639   -0.4267 H   0  0  0  0  0  0  0  0  0  0  0  0
   13.1753  -11.9905   -1.1768 H   0  0  0  0  0  0  0  0  0  0  0  0
   11.6561  -11.0320   -1.1768 H   0  0  0  0  0  0  0  0  0  0  0  0
   13.7159  -13.3524   -2.9395 H   0  0  0  0  0  0  0  0  0  0  0  0
   13.1657  -14.3813   -5.1378 H   0  0  0  0  0  0  0  0  0  0  0  0
    8.7860  -14.1740   -6.0050 H   0  0  0  0  0  0  0  0  0  0  0  0
    9.0311  -17.0056   -7.5877 H   0  0  0  0  0  0  0  0  0  0  0  0
    8.0412  -17.6197   -9.7893 H   0  0  0  0  0  0  0  0  0  0  0  0
    7.3464  -15.8474  -11.3934 H   0  0  0  0  0  0  0  0  0  0  0  0
    8.6348  -12.8240   -8.5798 H   0  0  0  0  0  0  0  0  0  0  0  0
    9.0416  -13.1598   -4.6818 H   0  0  0  0  0  0  0  0  0  0  0  0
    9.7170  -11.0600   -1.9380 H   0  0  0  0  0  0  0  0  0  0  0  0
    7.0155  -11.7372    2.2731 H   0  0  0  0  0  0  0  0  0  0  0  0
    5.7043  -13.6269    3.2526 H   0  0  0  0  0  0  0  0  0  0  0  0
    5.3334  -15.7015    1.9493 H   0  0  0  0  0  0  0  0  0  0  0  0
    6.2479  -15.9369   -0.3724 H   0  0  0  0  0  0  0  0  0  0  0  0
    6.0918  -13.3408   -3.6825 H   0  0  0  0  0  0  0  0  0  0  0  0
    5.6890  -15.5540   -6.5500 H   0  0  0  0  0  0  0  0  0  0  0  0
    6.6384  -12.9428   -6.0556 H   0  0  0  0  0  0  0  0  0  0  0  0
    5.7243  -13.6081   -7.5151 H   0  0  0  0  0  0  0  0  0  0  0  0
    4.8674  -11.7674   -5.4739 H   0  0  0  0  0  0  0  0  0  0  0  0
    4.0979  -12.3300   -7.0666 H   0  0  0  0  0  0  0  0  0  0  0  0
    2.4328  -13.0671   -5.8666 H   0  0  0  0  0  0  0  0  0  0  0  0
    3.5908  -14.3680   -5.3199 H   0  0  0  0  0  0  0  0  0  0  0  0
    2.1713  -12.7440   -3.6508 H   0  0  0  0  0  0  0  0  0  0  0  0
    3.7434  -13.5720   -3.2610 H   0  0  0  0  0  0  0  0  0  0  0  0
    4.5140  -11.3390   -4.4650 H   0  0  0  0  0  0  0  0  0  0  0  0
    4.1972  -11.4766   -1.5365 H   0  0  0  0  0  0  0  0  0  0  0  0
    5.4771  -12.3216   -2.4717 H   0  0  0  0  0  0  0  0  0  0  0  0
    5.4014  -10.5269   -2.4717 H   0  0  0  0  0  0  0  0  0  0  0  0
    2.7016  -10.0415   -2.6309 H   0  0  0  0  0  0  0  0  0  0  0  0
    3.4006   -9.4774   -4.1865 H   0  0  0  0  0  0  0  0  0  0  0  0
    2.0184  -10.6247   -4.1865 H   0  0  0  0  0  0  0  0  0  0  0  0
    8.8314  -17.3548   -3.9194 H   0  0  0  0  0  0  0  0  0  0  0  0
  1  2  1  0
  2  3  2  0
  3  4  1  0
  4  5  2  0
  5  6  1  0
  6  7  2  0
  6  8  1  0
  8  9  1  0
  9 10  2  0
 10 11  1  0
 11 12  2  0
 12 13  1  0
 13 14  1  0
 14 15  1  0
 14 16  1  0
 14 17  1  0
 13 18  2  0
  5 19  1  0
 19 20  2  0
 20 21  1  0
 21 22  1  0
 22 23  2  0
 23 24  1  0
 24 25  2  0
 25 26  1  0
 26 27  2  0
 27 28  1  0
 28 29  2  0
 29 30  1  0
 30 31  1  0
 31 32  2  0
 32 33  1  0
 33 34  1  0
 34 35  1  0
 35 36  1  0
 36 37  1  0
 37 38  1  0
 38 39  1  0
 39 40  1  0
 39 41  1  0
 33 42  2  0
 42 43  1  0
 43 44  2  0
 20  2  1  0
 30 22  1  0
 44 31  1  0
 18  9  1  0
 29 24  1  0
  1 45  1  0
  1 46  1  0
  1 47  1  0
  3 48  1  0
  4 49  1  0
  8 50  1  0
 10 51  1  0
 11 52  1  0
 12 53  1  0
 18 54  1  0
 19 55  1  0
 21 56  1  0
 25 57  1  0
 26 58  1  0
 27 59  1  0
 28 60  1  0
 32 61  1  0
 34 62  1  0
 35 63  1  0
 35 64  1  0
 36 65  1  0
 36 66  1  0
 37 67  1  0
 37 68  1  0
 38 69  1  0
 38 70  1  0
 39 71  1  0
 40 72  1  0
 40 73  1  0
 40 74  1  0
 41 75  1  0
 41 76  1  0
 41 77  1  0
 43 78  1  0
M  CHG  1  39   1
M  END
>  <meeko>  (4) 
{"is_sidechain": [false], "free_energy": -8.184, "intermolecular_energy": -13.279, "internal_energy": -3.211}

$$$$
LIB_RCFMYOVNMVCRHQ__M_PUB_ALL__e8__s20260927
     RDKit          3D

 78 82  0  0  0  0  0  0  0  0999 V2000
    6.4170  -13.5310   -5.2510 C   0  0  0  0  0  0  0  0  0  0  0  0
    5.2830  -13.3130   -4.2800 C   0  0  0  0  0  0  0  0  0  0  0  0
    4.1660  -14.1620   -4.3570 C   0  0  0  0  0  0  0  0  0  0  0  0
    3.0930  -14.0000   -3.4870 C   0  0  0  0  0  0  0  0  0  0  0  0
    3.1300  -12.9890   -2.5250 C   0  0  0  0  0  0  0  0  0  0  0  0
    1.9370  -12.7870   -1.6650 C   0  0  0  0  0  0  0  0  0  0  0  0
    1.0620  -13.6470   -1.7140 O   0  0  0  0  0  0  0  0  0  0  0  0
    1.9570  -11.6370   -0.9050 N   0  0  0  0  0  0  0  0  0  0  0  0
    0.9500  -11.1620   -0.0390 C   0  0  0  0  0  0  0  0  0  0  0  0
    0.2970   -9.9390   -0.1970 C   0  0  0  0  0  0  0  0  0  0  0  0
   -0.6870   -9.5380    0.7110 C   0  0  0  0  0  0  0  0  0  0  0  0
   -1.0290  -10.3570    1.7860 C   0  0  0  0  0  0  0  0  0  0  0  0
   -0.3930  -11.5930    1.9590 C   0  0  0  0  0  0  0  0  0  0  0  0
   -0.7390  -12.4780    3.1320 C   0  0  0  0  0  0  0  0  0  0  0  0
   -1.8340  -13.2560    2.9000 F   0  0  0  0  0  0  0  0  0  0  0  0
    0.2710  -13.3360    3.4400 F   0  0  0  0  0  0  0  0  0  0  0  0
   -1.0070  -11.7830    4.2700 F   0  0  0  0  0  0  0  0  0  0  0  0
    0.6000  -11.9810    1.0430 C   0  0  0  0  0  0  0  0  0  0  0  0
    4.2410  -12.1430   -2.4280 C   0  0  0  0  0  0  0  0  0  0  0  0
    5.3390  -12.3030   -3.2870 C   0  0  0  0  0  0  0  0  0  0  0  0
    6.4700  -11.4470   -3.2370 N   0  0  0  0  0  0  0  0  0  0  0  0
    7.7150  -11.7380   -2.7890 C   0  0  0  0  0  0  0  0  0  0  0  0
    8.7480  -11.7340   -3.5990 N   0  0  0  0  0  0  0  0  0  0  0  0
    9.7850  -12.2510   -2.8840 C   0  0  0  0  0  0  0  0  0  0  0  0
   11.0880  -12.5380   -3.3190 C   0  0  0  0  0  0  0  0  0  0  0  0
   11.9990  -13.0930   -2.4180 C   0  0  0  0  0  0  0  0  0  0  0  0
   11.6210  -13.3520   -1.1040 C   0  0  0  0  0  0  0  0  0  0  0  0
   10.3280  -13.0600   -0.6520 C   0  0  0  0  0  0  0  0  0  0  0  0
    9.4120  -12.5080   -1.5670 C   0  0  0  0  0  0  0  0  0  0  0  0
    8.0910  -12.0500   -1.4740 N   0  0  0  0  0  0  0  0  0  0  0  0
    7.3490  -11.9060   -0.2500 C   0  0  0  0  0  0  0  0  0  0  0  0
    6.8740  -13.0030    0.4470 C   0  0  0  0  0  0  0  0  0  0  0  0
    6.1280  -12.7710    1.5930 C   0  0  0  0  0  0  0  0  0  0  0  0
    5.7020  -13.8580    2.3550 N   0  0  0  0  0  0  0  0  0  0  0  0
    4.8810  -14.9020    1.7520 C   0  0  0  0  0  0  0  0  0  0  0  0
    3.3700  -14.6550    1.7620 C   0  0  0  0  0  0  0  0  0  0  0  0
    2.5190  -15.4830    0.7950 C   0  0  0  0  0  0  0  0  0  0  0  0
    1.0740  -15.6390    1.2470 C   0  0  0  0  0  0  0  0  0  0  0  0
    0.1200  -15.8230    0.0850 N   0  0  0  0  0  0  0  0  0  0  0  0
   -1.2630  -15.2900    0.3260 C   0  0  0  0  0  0  0  0  0  0  0  0
    0.0900  -17.2300   -0.4520 C   0  0  0  0  0  0  0  0  0  0  0  0
    5.8800  -11.5300    2.0230 N   0  0  0  0  0  0  0  0  0  0  0  0
    6.3630  -10.5260    1.2890 C   0  0  0  0  0  0  0  0  0  0  0  0
    7.0940  -10.6540    0.1780 N   0  0  0  0  0  0  0  0  0  0  0  0
    7.3480  -13.7100   -4.6932 H   0  0  0  0  0  0  0  0  0  0  0  0
    6.1953  -14.4030   -5.8839 H   0  0  0  0  0  0  0  0  0  0  0  0
    6.5344  -12.6390   -5.8839 H   0  0  0  0  0  0  0  0  0  0  0  0
    4.1400  -14.9617   -5.1119 H   0  0  0  0  0  0  0  0  0  0  0  0
    2.2196  -14.6651   -3.5566 H   0  0  0  0  0  0  0  0  0  0  0  0
    2.7980  -11.0710   -0.9440 H   0  0  0  0  0  0  0  0  0  0  0  0
    0.5586   -9.2857   -1.0424 H   0  0  0  0  0  0  0  0  0  0  0  0
   -1.1942   -8.5712    0.5767 H   0  0  0  0  0  0  0  0  0  0  0  0
   -1.8000  -10.0319    2.5000 H   0  0  0  0  0  0  0  0  0  0  0  0
    1.1118  -12.9453    1.1779 H   0  0  0  0  0  0  0  0  0  0  0  0
    4.2535  -11.3450   -1.6710 H   0  0  0  0  0  0  0  0  0  0  0  0
    6.4880  -10.8260   -4.0450 H   0  0  0  0  0  0  0  0  0  0  0  0
   11.3878  -12.3284   -4.3564 H   0  0  0  0  0  0  0  0  0  0  0  0
   13.0216  -13.3269   -2.7489 H   0  0  0  0  0  0  0  0  0  0  0  0
   12.3501  -13.7935   -0.4086 H   0  0  0  0  0  0  0  0  0  0  0  0
   10.0362  -13.2568    0.3902 H   0  0  0  0  0  0  0  0  0  0  0  0
    7.0816  -14.0270    0.1029 H   0  0  0  0  0  0  0  0  0  0  0  0
    6.4180  -14.2090    2.9850 H   0  0  0  0  0  0  0  0  0  0  0  0
    5.1968  -15.0159    0.7045 H   0  0  0  0  0  0  0  0  0  0  0  0
    5.0398  -15.7986    2.3691 H   0  0  0  0  0  0  0  0  0  0  0  0
    3.0079  -14.8601    2.7802 H   0  0  0  0  0  0  0  0  0  0  0  0
    3.2506  -13.6147    1.4252 H   0  0  0  0  0  0  0  0  0  0  0  0
    2.5260  -14.9885   -0.1875 H   0  0  0  0  0  0  0  0  0  0  0  0
    2.9585  -16.4906    0.7550 H   0  0  0  0  0  0  0  0  0  0  0  0
    1.0029  -16.5180    1.9045 H   0  0  0  0  0  0  0  0  0  0  0  0
    0.7866  -14.7166    1.7729 H   0  0  0  0  0  0  0  0  0  0  0  0
    0.5090  -15.2540   -0.6760 H   0  0  0  0  0  0  0  0  0  0  0  0
   -1.4454  -15.2197    1.4085 H   0  0  0  0  0  0  0  0  0  0  0  0
   -1.3554  -14.2919   -0.1270 H   0  0  0  0  0  0  0  0  0  0  0  0
   -2.0013  -15.9680   -0.1270 H   0  0  0  0  0  0  0  0  0  0  0  0
    0.0748  -17.9421    0.3862 H   0  0  0  0  0  0  0  0  0  0  0  0
   -0.8113  -17.3685   -1.0672 H   0  0  0  0  0  0  0  0  0  0  0  0
    0.9846  -17.4068   -1.0672 H   0  0  0  0  0  0  0  0  0  0  0  0
    6.1399   -9.5036    1.6281 H   0  0  0  0  0  0  0  0  0  0  0  0
  1  2  1  0
  2  3  2  0
  3  4  1  0
  4  5  2  0
  5  6  1  0
  6  7  2  0
  6  8  1  0
  8  9  1  0
  9 10  2  0
 10 11  1  0
 11 12  2  0
 12 13  1  0
 13 14  1  0
 14 15  1  0
 14 16  1  0
 14 17  1  0
 13 18  2  0
  5 19  1  0
 19 20  2  0
 20 21  1  0
 21 22  1  0
 22 23  2  0
 23 24  1  0
 24 25  2  0
 25 26  1  0
 26 27  2  0
 27 28  1  0
 28 29  2  0
 29 30  1  0
 30 31  1  0
 31 32  2  0
 32 33  1  0
 33 34  1  0
 34 35  1  0
 35 36  1  0
 36 37  1  0
 37 38  1  0
 38 39  1  0
 39 40  1  0
 39 41  1  0
 33 42  2  0
 42 43  1  0
 43 44  2  0
 20  2  1  0
 30 22  1  0
 44 31  1  0
 18  9  1  0
 29 24  1  0
  1 45  1  0
  1 46  1  0
  1 47  1  0
  3 48  1  0
  4 49  1  0
  8 50  1  0
 10 51  1  0
 11 52  1  0
 12 53  1  0
 18 54  1  0
 19 55  1  0
 21 56  1  0
 25 57  1  0
 26 58  1  0
 27 59  1  0
 28 60  1  0
 32 61  1  0
 34 62  1  0
 35 63  1  0
 35 64  1  0
 36 65  1  0
 36 66  1  0
 37 67  1  0
 37 68  1  0
 38 69  1  0
 38 70  1  0
 39 71  1  0
 40 72  1  0
 40 73  1  0
 40 74  1  0
 41 75  1  0
 41 76  1  0
 41 77  1  0
 43 78  1  0
M  CHG  1  39   1
M  END
>  <meeko>  (5) 
{"is_sidechain": [false], "free_energy": -8.155, "intermolecular_energy": -13.101, "internal_energy": -3.339}

$$$$
LIB_RCFMYOVNMVCRHQ__M_PUB_ALL__e8__s20260927
     RDKit          3D

 78 82  0  0  0  0  0  0  0  0999 V2000
    7.4880  -11.5630   -3.2500 C   0  0  0  0  0  0  0  0  0  0  0  0
    6.1480  -11.9330   -2.6640 C   0  0  0  0  0  0  0  0  0  0  0  0
    4.9880  -11.5040   -3.3300 C   0  0  0  0  0  0  0  0  0  0  0  0
    3.7280  -11.8160   -2.8280 C   0  0  0  0  0  0  0  0  0  0  0  0
    3.6180  -12.5680   -1.6570 C   0  0  0  0  0  0  0  0  0  0  0  0
    2.2640  -12.8160   -1.1010 C   0  0  0  0  0  0  0  0  0  0  0  0
    1.4950  -13.4860   -1.7830 O   0  0  0  0  0  0  0  0  0  0  0  0
    2.0320  -12.2500    0.1350 N   0  0  0  0  0  0  0  0  0  0  0  0
    0.8340  -12.2770    0.8800 C   0  0  0  0  0  0  0  0  0  0  0  0
    0.2440  -13.4440    1.3660 C   0  0  0  0  0  0  0  0  0  0  0  0
   -0.9490  -13.3860    2.0910 C   0  0  0  0  0  0  0  0  0  0  0  0
   -1.5650  -12.1600    2.3370 C   0  0  0  0  0  0  0  0  0  0  0  0
   -0.9870  -10.9750    1.8650 C   0  0  0  0  0  0  0  0  0  0  0  0
   -1.6550   -9.6430    2.1050 C   0  0  0  0  0  0  0  0  0  0  0  0
   -2.4500   -9.2580    1.0680 F   0  0  0  0  0  0  0  0  0  0  0  0
   -2.4570   -9.6640    3.2040 F   0  0  0  0  0  0  0  0  0  0  0  0
   -0.7730   -8.6260    2.2980 F   0  0  0  0  0  0  0  0  0  0  0  0
    0.2100  -11.0480    1.1310 C   0  0  0  0  0  0  0  0  0  0  0  0
    4.7660  -13.0130   -0.9900 C   0  0  0  0  0  0  0  0  0  0  0  0
    6.0430  -12.7210   -1.4910 C   0  0  0  0  0  0  0  0  0  0  0  0
    7.2280  -13.1320   -0.8270 N   0  0  0  0  0  0  0  0  0  0  0  0
    8.0580  -14.1500   -1.1580 C   0  0  0  0  0  0  0  0  0  0  0  0
    7.6160  -15.2050   -1.8030 N   0  0  0  0  0  0  0  0  0  0  0  0
    8.6420  -16.1010   -1.7990 C   0  0  0  0  0  0  0  0  0  0  0  0
    8.6520  -17.4180   -2.2840 C   0  0  0  0  0  0  0  0  0  0  0  0
    9.8170  -18.1790   -2.1600 C   0  0  0  0  0  0  0  0  0  0  0  0
   10.9530  -17.6350   -1.5680 C   0  0  0  0  0  0  0  0  0  0  0  0
   10.9620  -16.3190   -1.0900 C   0  0  0  0  0  0  0  0  0  0  0  0
    9.7830  -15.5600   -1.2120 C   0  0  0  0  0  0  0  0  0  0  0  0
    9.4360  -14.2360   -0.9100 N   0  0  0  0  0  0  0  0  0  0  0  0
   10.3560  -13.2160   -0.4840 C   0  0  0  0  0  0  0  0  0  0  0  0
   11.5380  -12.9730   -1.1610 C   0  0  0  0  0  0  0  0  0  0  0  0
   12.3880  -12.0010   -0.6540 C   0  0  0  0  0  0  0  0  0  0  0  0
   13.5490  -11.6830   -1.3590 N   0  0  0  0  0  0  0  0  0  0  0  0
   13.5070  -11.5100   -2.8060 C   0  0  0  0  0  0  0  0  0  0  0  0
   14.4020  -12.4500   -3.6190 C   0  0  0  0  0  0  0  0  0  0  0  0
   13.7120  -13.3890   -4.6120 C   0  0  0  0  0  0  0  0  0  0  0  0
   13.3080  -14.7220   -3.9990 C   0  0  0  0  0  0  0  0  0  0  0  0
   11.8480  -15.0500   -4.2340 N   0  0  0  0  0  0  0  0  0  0  0  0
   11.6130  -16.2830   -5.0570 C   0  0  0  0  0  0  0  0  0  0  0  0
   11.0410  -13.8810   -4.7330 C   0  0  0  0  0  0  0  0  0  0  0  0
   12.0790  -11.3100    0.4470 N   0  0  0  0  0  0  0  0  0  0  0  0
   10.9270  -11.6130    1.0490 C   0  0  0  0  0  0  0  0  0  0  0  0
   10.0450  -12.5250    0.6310 N   0  0  0  0  0  0  0  0  0  0  0  0
    8.2020  -11.3659   -2.4368 H   0  0  0  0  0  0  0  0  0  0  0  0
    7.8586  -12.3924   -3.8703 H   0  0  0  0  0  0  0  0  0  0  0  0
    7.3805  -10.6609   -3.8703 H   0  0  0  0  0  0  0  0  0  0  0  0
    5.0762  -10.9167   -4.2559 H   0  0  0  0  0  0  0  0  0  0  0  0
    2.8236  -11.4719   -3.3511 H   0  0  0  0  0  0  0  0  0  0  0  0
    2.8110  -11.7800    0.5830 H   0  0  0  0  0  0  0  0  0  0  0  0
    0.7214  -14.4168    1.1771 H   0  0  0  0  0  0  0  0  0  0  0  0
   -1.4046  -14.3128    2.4697 H   0  0  0  0  0  0  0  0  0  0  0  0
   -2.5074  -12.1232    2.9032 H   0  0  0  0  0  0  0  0  0  0  0  0
    0.6649  -10.1231    0.7467 H   0  0  0  0  0  0  0  0  0  0  0  0
    4.6652  -13.5976   -0.0636 H   0  0  0  0  0  0  0  0  0  0  0  0
    7.7350  -12.3250   -0.4630 H   0  0  0  0  0  0  0  0  0  0  0  0
    7.7546  -17.8452   -2.7554 H   0  0  0  0  0  0  0  0  0  0  0  0
    9.8365  -19.2139   -2.5323 H   0  0  0  0  0  0  0  0  0  0  0  0
   11.8602  -18.2500   -1.4739 H   0  0  0  0  0  0  0  0  0  0  0  0
   11.8654  -15.8902   -0.6318 H   0  0  0  0  0  0  0  0  0  0  0  0
   11.7955  -13.5328   -2.0722 H   0  0  0  0  0  0  0  0  0  0  0  0
   14.1330  -11.0030   -0.8790 H   0  0  0  0  0  0  0  0  0  0  0  0
   12.4687  -11.6661   -3.1340 H   0  0  0  0  0  0  0  0  0  0  0  0
   13.8904  -10.4965   -2.9956 H   0  0  0  0  0  0  0  0  0  0  0  0
   15.1062  -11.8258   -4.1886 H   0  0  0  0  0  0  0  0  0  0  0  0
   14.8644  -13.1150   -2.8747 H   0  0  0  0  0  0  0  0  0  0  0  0
   12.8078  -12.8914   -4.9925 H   0  0  0  0  0  0  0  0  0  0  0  0
   14.4348  -13.6044   -5.4128 H   0  0  0  0  0  0  0  0  0  0  0  0
   13.9242  -15.5166   -4.4450 H   0  0  0  0  0  0  0  0  0  0  0  0
   13.4638  -14.6510   -2.9124 H   0  0  0  0  0  0  0  0  0  0  0  0
   11.4670  -15.2600   -3.3030 H   0  0  0  0  0  0  0  0  0  0  0  0
   11.4491  -17.1428   -4.3908 H   0  0  0  0  0  0  0  0  0  0  0  0
   10.7266  -16.1368   -5.6917 H   0  0  0  0  0  0  0  0  0  0  0  0
   12.4911  -16.4731   -5.6917 H   0  0  0  0  0  0  0  0  0  0  0  0
   10.6492  -13.3134   -3.8760 H   0  0  0  0  0  0  0  0  0  0  0  0
   11.6812  -13.2275   -5.3438 H   0  0  0  0  0  0  0  0  0  0  0  0
   10.2030  -14.2480   -5.3438 H   0  0  0  0  0  0  0  0  0  0  0  0
   10.6824  -11.0636    1.9701 H   0  0  0  0  0  0  0  0  0  0  0  0
  1  2  1  0
  2  3  2  0
  3  4  1  0
  4  5  2  0
  5  6  1  0
  6  7  2  0
  6  8  1  0
  8  9  1  0
  9 10  2  0
 10 11  1  0
 11 12  2  0
 12 13  1  0
 13 14  1  0
 14 15  1  0
 14 16  1  0
 14 17  1  0
 13 18  2  0
  5 19  1  0
 19 20  2  0
 20 21  1  0
 21 22  1  0
 22 23  2  0
 23 24  1  0
 24 25  2  0
 25 26  1  0
 26 27  2  0
 27 28  1  0
 28 29  2  0
 29 30  1  0
 30 31  1  0
 31 32  2  0
 32 33  1  0
 33 34  1  0
 34 35  1  0
 35 36  1  0
 36 37  1  0
 37 38  1  0
 38 39  1  0
 39 40  1  0
 39 41  1  0
 33 42  2  0
 42 43  1  0
 43 44  2  0
 20  2  1  0
 30 22  1  0
 44 31  1  0
 18  9  1  0
 29 24  1  0
  1 45  1  0
  1 46  1  0
  1 47  1  0
  3 48  1  0
  4 49  1  0
  8 50  1  0
 10 51  1  0
 11 52  1  0
 12 53  1  0
 18 54  1  0
 19 55  1  0
 21 56  1  0
 25 57  1  0
 26 58  1  0
 27 59  1  0
 28 60  1  0
 32 61  1  0
 34 62  1  0
 35 63  1  0
 35 64  1  0
 36 65  1  0
 36 66  1  0
 37 67  1  0
 37 68  1  0
 38 69  1  0
 38 70  1  0
 39 71  1  0
 40 72  1  0
 40 73  1  0
 40 74  1  0
 41 75  1  0
 41 76  1  0
 41 77  1  0
 43 78  1  0
M  CHG  1  39   1
M  END
>  <meeko>  (6) 
{"is_sidechain": [false], "free_energy": -8.125, "intermolecular_energy": -13.948, "internal_energy": -2.441}

$$$$
LIB_RCFMYOVNMVCRHQ__M_PUB_ALL__e8__s20260927
     RDKit          3D

 78 82  0  0  0  0  0  0  0  0999 V2000
    6.9570  -15.5630   -0.8820 C   0  0  0  0  0  0  0  0  0  0  0  0
    7.4630  -15.5440   -2.3030 C   0  0  0  0  0  0  0  0  0  0  0  0
    6.5250  -15.6040   -3.3470 C   0  0  0  0  0  0  0  0  0  0  0  0
    6.9410  -15.5940   -4.6740 C   0  0  0  0  0  0  0  0  0  0  0  0
    8.3030  -15.5140   -4.9710 C   0  0  0  0  0  0  0  0  0  0  0  0
    8.7220  -15.5870   -6.3930 C   0  0  0  0  0  0  0  0  0  0  0  0
    8.7670  -16.7010   -6.9050 O   0  0  0  0  0  0  0  0  0  0  0  0
    9.0180  -14.3710   -6.9730 N   0  0  0  0  0  0  0  0  0  0  0  0
    9.4840  -14.1370   -8.2840 C   0  0  0  0  0  0  0  0  0  0  0  0
   10.8190  -14.2620   -8.6710 C   0  0  0  0  0  0  0  0  0  0  0  0
   11.2020  -14.0040   -9.9900 C   0  0  0  0  0  0  0  0  0  0  0  0
   10.2530  -13.6190  -10.9360 C   0  0  0  0  0  0  0  0  0  0  0  0
    8.9070  -13.4950  -10.5720 C   0  0  0  0  0  0  0  0  0  0  0  0
    7.8730  -13.0570  -11.5820 C   0  0  0  0  0  0  0  0  0  0  0  0
    7.3990  -11.8030  -11.3390 F   0  0  0  0  0  0  0  0  0  0  0  0
    8.3730  -13.0300  -12.8470 F   0  0  0  0  0  0  0  0  0  0  0  0
    6.7830  -13.8690  -11.6210 F   0  0  0  0  0  0  0  0  0  0  0  0
    8.5360  -13.7500   -9.2400 C   0  0  0  0  0  0  0  0  0  0  0  0
    9.2490  -15.4400   -3.9420 C   0  0  0  0  0  0  0  0  0  0  0  0
    8.8460  -15.4340   -2.5970 C   0  0  0  0  0  0  0  0  0  0  0  0
    9.7780  -15.3890   -1.5280 N   0  0  0  0  0  0  0  0  0  0  0  0
   10.6230  -14.3810   -1.2030 C   0  0  0  0  0  0  0  0  0  0  0  0
   10.3900  -13.6050   -0.1700 N   0  0  0  0  0  0  0  0  0  0  0  0
   11.3050  -12.5990   -0.2450 C   0  0  0  0  0  0  0  0  0  0  0  0
   11.4250  -11.4660    0.5740 C   0  0  0  0  0  0  0  0  0  0  0  0
   12.4320  -10.5370    0.3050 C   0  0  0  0  0  0  0  0  0  0  0  0
   13.3070  -10.7350   -0.7590 C   0  0  0  0  0  0  0  0  0  0  0  0
   13.2070  -11.8660   -1.5790 C   0  0  0  0  0  0  0  0  0  0  0  0
   12.1850  -12.7960   -1.3060 C   0  0  0  0  0  0  0  0  0  0  0  0
   11.8160  -14.0320   -1.8530 N   0  0  0  0  0  0  0  0  0  0  0  0
   12.5710  -14.7610   -2.8360 C   0  0  0  0  0  0  0  0  0  0  0  0
   12.8490  -14.2280   -4.0830 C   0  0  0  0  0  0  0  0  0  0  0  0
   13.5430  -15.0190   -4.9860 C   0  0  0  0  0  0  0  0  0  0  0  0
   13.9030  -14.4800   -6.2210 N   0  0  0  0  0  0  0  0  0  0  0  0
   14.8090  -15.2050   -7.1040 C   0  0  0  0  0  0  0  0  0  0  0  0
   14.1470  -16.0250   -8.2160 C   0  0  0  0  0  0  0  0  0  0  0  0
   14.6830  -15.8360   -9.6380 C   0  0  0  0  0  0  0  0  0  0  0  0
   16.1480  -15.4280   -9.6800 C   0  0  0  0  0  0  0  0  0  0  0  0
   16.8410  -15.8830  -10.9480 N   0  0  0  0  0  0  0  0  0  0  0  0
   16.1080  -15.5400  -12.2130 C   0  0  0  0  0  0  0  0  0  0  0  0
   17.2610  -17.3280  -10.9200 C   0  0  0  0  0  0  0  0  0  0  0  0
   13.9430  -16.2540   -4.6680 N   0  0  0  0  0  0  0  0  0  0  0  0
   13.6250  -16.6990   -3.4500 C   0  0  0  0  0  0  0  0  0  0  0  0
   12.9660  -16.0090   -2.5160 N   0  0  0  0  0  0  0  0  0  0  0  0
    7.8102  -15.5310   -0.1885 H   0  0  0  0  0  0  0  0  0  0  0  0
    6.3122  -14.6884   -0.7107 H   0  0  0  0  0  0  0  0  0  0  0  0
    6.3796  -16.4835   -0.7107 H   0  0  0  0  0  0  0  0  0  0  0  0
    5.4517  -15.6594   -3.1128 H   0  0  0  0  0  0  0  0  0  0  0  0
    6.2006  -15.6488   -5.4857 H   0  0  0  0  0  0  0  0  0  0  0  0
    8.8600  -13.5400   -6.4130 H   0  0  0  0  0  0  0  0  0  0  0  0
   11.5754  -14.5658   -7.9324 H   0  0  0  0  0  0  0  0  0  0  0  0
   12.2574  -14.1052  -10.2832 H   0  0  0  0  0  0  0  0  0  0  0  0
   10.5627  -13.4122  -11.9710 H   0  0  0  0  0  0  0  0  0  0  0  0
    7.4822  -13.6437   -8.9432 H   0  0  0  0  0  0  0  0  0  0  0  0
   10.3194  -15.3860   -4.1897 H   0  0  0  0  0  0  0  0  0  0  0  0
    9.4040  -15.8580   -0.7040 H   0  0  0  0  0  0  0  0  0  0  0  0
   10.7350  -11.3118    1.4167 H   0  0  0  0  0  0  0  0  0  0  0  0
   12.5344   -9.6432    0.9379 H   0  0  0  0  0  0  0  0  0  0  0  0
   14.0911   -9.9900   -0.9595 H   0  0  0  0  0  0  0  0  0  0  0  0
   13.9069  -12.0236   -2.4128 H   0  0  0  0  0  0  0  0  0  0  0  0
   12.5296  -13.2096   -4.3490 H   0  0  0  0  0  0  0  0  0  0  0  0
   13.1260  -14.0350   -6.7030 H   0  0  0  0  0  0  0  0  0  0  0  0
   15.4763  -14.4706   -7.5787 H   0  0  0  0  0  0  0  0  0  0  0  0
   15.3269  -15.9349   -6.4644 H   0  0  0  0  0  0  0  0  0  0  0  0
   14.2627  -17.0878   -7.9572 H   0  0  0  0  0  0  0  0  0  0  0  0
   13.1083  -15.6649   -8.2541 H   0  0  0  0  0  0  0  0  0  0  0  0
   14.5691  -16.7847  -10.1829 H   0  0  0  0  0  0  0  0  0  0  0  0
   14.1048  -15.0213  -10.0984 H   0  0  0  0  0  0  0  0  0  0  0  0
   16.2107  -14.3316   -9.6177 H   0  0  0  0  0  0  0  0  0  0  0  0
   16.6539  -15.9110   -8.8310 H   0  0  0  0  0  0  0  0  0  0  0  0
   17.7180  -15.3490  -10.9820 H   0  0  0  0  0  0  0  0  0  0  0  0
   15.1378  -15.0860  -11.9630 H   0  0  0  0  0  0  0  0  0  0  0  0
   16.7053  -14.8279  -12.8013 H   0  0  0  0  0  0  0  0  0  0  0  0
   15.9440  -16.4549  -12.8013 H   0  0  0  0  0  0  0  0  0  0  0  0
   17.3579  -17.6615   -9.8763 H   0  0  0  0  0  0  0  0  0  0  0  0
   16.5036  -17.9400  -11.4316 H   0  0  0  0  0  0  0  0  0  0  0  0
   18.2285  -17.4386  -11.4316 H   0  0  0  0  0  0  0  0  0  0  0  0
   13.9328  -17.7235   -3.1936 H   0  0  0  0  0  0  0  0  0  0  0  0
  1  2  1  0
  2  3  2  0
  3  4  1  0
  4  5  2  0
  5  6  1  0
  6  7  2  0
  6  8  1  0
  8  9  1  0
  9 10  2  0
 10 11  1  0
 11 12  2  0
 12 13  1  0
 13 14  1  0
 14 15  1  0
 14 16  1  0
 14 17  1  0
 13 18  2  0
  5 19  1  0
 19 20  2  0
 20 21  1  0
 21 22  1  0
 22 23  2  0
 23 24  1  0
 24 25  2  0
 25 26  1  0
 26 27  2  0
 27 28  1  0
 28 29  2  0
 29 30  1  0
 30 31  1  0
 31 32  2  0
 32 33  1  0
 33 34  1  0
 34 35  1  0
 35 36  1  0
 36 37  1  0
 37 38  1  0
 38 39  1  0
 39 40  1  0
 39 41  1  0
 33 42  2  0
 42 43  1  0
 43 44  2  0
 20  2  1  0
 30 22  1  0
 44 31  1  0
 18  9  1  0
 29 24  1  0
  1 45  1  0
  1 46  1  0
  1 47  1  0
  3 48  1  0
  4 49  1  0
  8 50  1  0
 10 51  1  0
 11 52  1  0
 12 53  1  0
 18 54  1  0
 19 55  1  0
 21 56  1  0
 25 57  1  0
 26 58  1  0
 27 59  1  0
 28 60  1  0
 32 61  1  0
 34 62  1  0
 35 63  1  0
 35 64  1  0
 36 65  1  0
 36 66  1  0
 37 67  1  0
 37 68  1  0
 38 69  1  0
 38 70  1  0
 39 71  1  0
 40 72  1  0
 40 73  1  0
 40 74  1  0
 41 75  1  0
 41 76  1  0
 41 77  1  0
 43 78  1  0
M  CHG  1  39   1
M  END
>  <meeko>  (7) 
{"is_sidechain": [false], "free_energy": -8.107, "intermolecular_energy": -13.74, "internal_energy": -2.617}

$$$$
LIB_RCFMYOVNMVCRHQ__M_PUB_ALL__e8__s20260927
     RDKit          3D

 78 82  0  0  0  0  0  0  0  0999 V2000
   13.2520  -14.6800   -7.1440 C   0  0  0  0  0  0  0  0  0  0  0  0
   11.7610  -14.6160   -6.9260 C   0  0  0  0  0  0  0  0  0  0  0  0
   10.9230  -14.5650   -8.0520 C   0  0  0  0  0  0  0  0  0  0  0  0
    9.5410  -14.5010   -7.9040 C   0  0  0  0  0  0  0  0  0  0  0  0
    8.9830  -14.4950   -6.6250 C   0  0  0  0  0  0  0  0  0  0  0  0
    7.5120  -14.3440   -6.4960 C   0  0  0  0  0  0  0  0  0  0  0  0
    6.8580  -14.3530   -7.5340 O   0  0  0  0  0  0  0  0  0  0  0  0
    7.0540  -14.2080   -5.2030 N   0  0  0  0  0  0  0  0  0  0  0  0
    5.7240  -14.0010   -4.7810 C   0  0  0  0  0  0  0  0  0  0  0  0
    4.9140  -14.9990   -4.2370 C   0  0  0  0  0  0  0  0  0  0  0  0
    3.6020  -14.7140   -3.8490 C   0  0  0  0  0  0  0  0  0  0  0  0
    3.0860  -13.4280   -4.0010 C   0  0  0  0  0  0  0  0  0  0  0  0
    3.8830  -12.4090   -4.5370 C   0  0  0  0  0  0  0  0  0  0  0  0
    3.3300  -11.0170   -4.7270 C   0  0  0  0  0  0  0  0  0  0  0  0
    3.8190  -10.4040   -5.8410 F   0  0  0  0  0  0  0  0  0  0  0  0
    1.9760  -11.0200   -4.8650 F   0  0  0  0  0  0  0  0  0  0  0  0
    3.6050  -10.1830   -3.6890 F   0  0  0  0  0  0  0  0  0  0  0  0
    5.1990  -12.7100   -4.9300 C   0  0  0  0  0  0  0  0  0  0  0  0
    9.8050  -14.5580   -5.4930 C   0  0  0  0  0  0  0  0  0  0  0  0
   11.2000  -14.6390   -5.6240 C   0  0  0  0  0  0  0  0  0  0  0  0
   12.0640  -14.6760   -4.5000 N   0  0  0  0  0  0  0  0  0  0  0  0
   12.0760  -13.8430   -3.4320 C   0  0  0  0  0  0  0  0  0  0  0  0
   12.7830  -12.7370   -3.4400 N   0  0  0  0  0  0  0  0  0  0  0  0
   12.7290  -12.2500   -2.1690 C   0  0  0  0  0  0  0  0  0  0  0  0
   13.3900  -11.1340   -1.6340 C   0  0  0  0  0  0  0  0  0  0  0  0
   13.2100  -10.8200   -0.2850 C   0  0  0  0  0  0  0  0  0  0  0  0
   12.3820  -11.6010    0.5150 C   0  0  0  0  0  0  0  0  0  0  0  0
   11.7070  -12.7110   -0.0080 C   0  0  0  0  0  0  0  0  0  0  0  0
   11.8980  -13.0260   -1.3660 C   0  0  0  0  0  0  0  0  0  0  0  0
   11.3690  -13.9940   -2.2300 N   0  0  0  0  0  0  0  0  0  0  0  0
   10.2940  -14.8930   -1.9060 C   0  0  0  0  0  0  0  0  0  0  0  0
    8.9890  -14.4510   -1.7780 C   0  0  0  0  0  0  0  0  0  0  0  0
    8.0230  -15.3790   -1.4180 C   0  0  0  0  0  0  0  0  0  0  0  0
    6.6880  -14.9770   -1.3560 N   0  0  0  0  0  0  0  0  0  0  0  0
    6.1860  -14.2760   -0.1790 C   0  0  0  0  0  0  0  0  0  0  0  0
    5.2210  -13.1170   -0.4520 C   0  0  0  0  0  0  0  0  0  0  0  0
    5.7250  -11.9830   -1.3480 C   0  0  0  0  0  0  0  0  0  0  0  0
    7.1010  -11.4680   -0.9510 C   0  0  0  0  0  0  0  0  0  0  0  0
    7.1970  -11.1500    0.5260 N   0  0  0  0  0  0  0  0  0  0  0  0
    7.1110   -9.6870    0.8540 C   0  0  0  0  0  0  0  0  0  0  0  0
    8.3660  -11.8080    1.2090 C   0  0  0  0  0  0  0  0  0  0  0  0
    8.3310  -16.6620   -1.2100 N   0  0  0  0  0  0  0  0  0  0  0  0
    9.6140  -17.0060   -1.3410 C   0  0  0  0  0  0  0  0  0  0  0  0
   10.6090  -16.1860   -1.6890 N   0  0  0  0  0  0  0  0  0  0  0  0
   13.7642  -14.7020   -6.1708 H   0  0  0  0  0  0  0  0  0  0  0  0
   13.5011  -15.5897   -7.7101 H   0  0  0  0  0  0  0  0  0  0  0  0
   13.5781  -13.7950   -7.7101 H   0  0  0  0  0  0  0  0  0  0  0  0
   11.3633  -14.5758   -9.0600 H   0  0  0  0  0  0  0  0  0  0  0  0
    8.8916  -14.4554   -8.7907 H   0  0  0  0  0  0  0  0  0  0  0  0
    7.7380  -14.2900   -4.4580 H   0  0  0  0  0  0  0  0  0  0  0  0
    5.3112  -16.0172   -4.1128 H   0  0  0  0  0  0  0  0  0  0  0  0
    2.9731  -15.5088   -3.4214 H   0  0  0  0  0  0  0  0  0  0  0  0
    2.0503  -13.2132   -3.6992 H   0  0  0  0  0  0  0  0  0  0  0  0
    5.8280  -11.9179   -5.3623 H   0  0  0  0  0  0  0  0  0  0  0  0
    9.3525  -14.5438   -4.4905 H   0  0  0  0  0  0  0  0  0  0  0  0
   12.2740  -15.6400   -4.2380 H   0  0  0  0  0  0  0  0  0  0  0  0
   14.0412  -10.5147   -2.2684 H   0  0  0  0  0  0  0  0  0  0  0  0
   13.7259   -9.9501    0.1474 H   0  0  0  0  0  0  0  0  0  0  0  0
   12.2553  -11.3422    1.5766 H   0  0  0  0  0  0  0  0  0  0  0  0
   11.0455  -13.3200    0.6256 H   0  0  0  0  0  0  0  0  0  0  0  0
    8.7262  -13.3978   -1.9560 H   0  0  0  0  0  0  0  0  0  0  0  0
    6.3420  -14.6050   -2.2360 H   0  0  0  0  0  0  0  0  0  0  0  0
    5.6625  -15.0091    0.4523 H   0  0  0  0  0  0  0  0  0  0  0  0
    7.0683  -13.8233    0.2971 H   0  0  0  0  0  0  0  0  0  0  0  0
    4.3227  -13.5391   -0.9263 H   0  0  0  0  0  0  0  0  0  0  0  0
    5.0544  -12.6497    0.5298 H   0  0  0  0  0  0  0  0  0  0  0  0
    5.7756  -12.3521   -2.3830 H   0  0  0  0  0  0  0  0  0  0  0  0
    5.0202  -11.1453   -1.2406 H   0  0  0  0  0  0  0  0  0  0  0  0
    7.8493  -12.2362   -1.1958 H   0  0  0  0  0  0  0  0  0  0  0  0
    7.2819  -10.5357   -1.5061 H   0  0  0  0  0  0  0  0  0  0  0  0
    6.3650  -11.5780    0.9490 H   0  0  0  0  0  0  0  0  0  0  0  0
    7.1033   -9.5559    1.9461 H   0  0  0  0  0  0  0  0  0  0  0  0
    7.9800   -9.1640    0.4281 H   0  0  0  0  0  0  0  0  0  0  0  0
    6.1868   -9.2694    0.4281 H   0  0  0  0  0  0  0  0  0  0  0  0
    8.2407  -11.7375    2.2996 H   0  0  0  0  0  0  0  0  0  0  0  0
    8.4152  -12.8664    0.9133 H   0  0  0  0  0  0  0  0  0  0  0  0
    9.2963  -11.3010    0.9133 H   0  0  0  0  0  0  0  0  0  0  0  0
    9.8745  -18.0566   -1.1452 H   0  0  0  0  0  0  0  0  0  0  0  0
  1  2  1  0
  2  3  2  0
  3  4  1  0
  4  5  2  0
  5  6  1  0
  6  7  2  0
  6  8  1  0
  8  9  1  0
  9 10  2  0
 10 11  1  0
 11 12  2  0
 12 13  1  0
 13 14  1  0
 14 15  1  0
 14 16  1  0
 14 17  1  0
 13 18  2  0
  5 19  1  0
 19 20  2  0
 20 21  1  0
 21 22  1  0
 22 23  2  0
 23 24  1  0
 24 25  2  0
 25 26  1  0
 26 27  2  0
 27 28  1  0
 28 29  2  0
 29 30  1  0
 30 31  1  0
 31 32  2  0
 32 33  1  0
 33 34  1  0
 34 35  1  0
 35 36  1  0
 36 37  1  0
 37 38  1  0
 38 39  1  0
 39 40  1  0
 39 41  1  0
 33 42  2  0
 42 43  1  0
 43 44  2  0
 20  2  1  0
 30 22  1  0
 44 31  1  0
 18  9  1  0
 29 24  1  0
  1 45  1  0
  1 46  1  0
  1 47  1  0
  3 48  1  0
  4 49  1  0
  8 50  1  0
 10 51  1  0
 11 52  1  0
 12 53  1  0
 18 54  1  0
 19 55  1  0
 21 56  1  0
 25 57  1  0
 26 58  1  0
 27 59  1  0
 28 60  1  0
 32 61  1  0
 34 62  1  0
 35 63  1  0
 35 64  1  0
 36 65  1  0
 36 66  1  0
 37 67  1  0
 37 68  1  0
 38 69  1  0
 38 70  1  0
 39 71  1  0
 40 72  1  0
 40 73  1  0
 40 74  1  0
 41 75  1  0
 41 76  1  0
 41 77  1  0
 43 78  1  0
M  CHG  1  39   1
M  END
>  <meeko>  (8) 
{"is_sidechain": [false], "free_energy": -8.104, "intermolecular_energy": -12.549, "internal_energy": -3.803}

$$$$
LIB_RCFMYOVNMVCRHQ__M_PUB_ALL__e8__s20260927
     RDKit          3D

 78 82  0  0  0  0  0  0  0  0999 V2000
    4.8660  -12.5180   -5.5940 C   0  0  0  0  0  0  0  0  0  0  0  0
    3.9610  -12.7560   -4.4110 C   0  0  0  0  0  0  0  0  0  0  0  0
    2.8270  -13.5640   -4.5900 C   0  0  0  0  0  0  0  0  0  0  0  0
    1.9590  -13.8110   -3.5310 C   0  0  0  0  0  0  0  0  0  0  0  0
    2.2240  -13.2570   -2.2770 C   0  0  0  0  0  0  0  0  0  0  0  0
    1.2390  -13.4710   -1.1870 C   0  0  0  0  0  0  0  0  0  0  0  0
    0.4120  -14.3620   -1.3500 O   0  0  0  0  0  0  0  0  0  0  0  0
    1.3750  -12.6230   -0.1090 N   0  0  0  0  0  0  0  0  0  0  0  0
    0.5600  -12.5610    1.0420 C   0  0  0  0  0  0  0  0  0  0  0  0
    0.3020  -13.6500    1.8750 C   0  0  0  0  0  0  0  0  0  0  0  0
   -0.5230  -13.5060    2.9940 C   0  0  0  0  0  0  0  0  0  0  0  0
   -1.0990  -12.2720    3.2910 C   0  0  0  0  0  0  0  0  0  0  0  0
   -0.8470  -11.1630    2.4730 C   0  0  0  0  0  0  0  0  0  0  0  0
   -1.4820   -9.8260    2.7710 C   0  0  0  0  0  0  0  0  0  0  0  0
   -2.7500   -9.7250    2.2810 F   0  0  0  0  0  0  0  0  0  0  0  0
   -1.5770   -9.5920    4.1070 F   0  0  0  0  0  0  0  0  0  0  0  0
   -0.7940   -8.7760    2.2480 F   0  0  0  0  0  0  0  0  0  0  0  0
   -0.0210  -11.3230    1.3460 C   0  0  0  0  0  0  0  0  0  0  0  0
    3.3580  -12.4600   -2.0800 C   0  0  0  0  0  0  0  0  0  0  0  0
    4.2520  -12.2140   -3.1340 C   0  0  0  0  0  0  0  0  0  0  0  0
    5.3950  -11.3880   -2.9770 N   0  0  0  0  0  0  0  0  0  0  0  0
    6.6580  -11.7660   -2.6630 C   0  0  0  0  0  0  0  0  0  0  0  0
    7.6770  -11.4280   -3.4190 N   0  0  0  0  0  0  0  0  0  0  0  0
    8.7450  -12.1220   -2.9370 C   0  0  0  0  0  0  0  0  0  0  0  0
   10.0510  -12.1780   -3.4460 C   0  0  0  0  0  0  0  0  0  0  0  0
   10.9980  -12.9780   -2.8030 C   0  0  0  0  0  0  0  0  0  0  0  0
   10.6510  -13.7040   -1.6680 C   0  0  0  0  0  0  0  0  0  0  0  0
    9.3550  -13.6500   -1.1400 C   0  0  0  0  0  0  0  0  0  0  0  0
    8.4030  -12.8470   -1.7980 C   0  0  0  0  0  0  0  0  0  0  0  0
    7.0670  -12.5090   -1.5460 N   0  0  0  0  0  0  0  0  0  0  0  0
    6.3400  -12.8440   -0.3510 C   0  0  0  0  0  0  0  0  0  0  0  0
    5.7320  -14.0770   -0.1900 C   0  0  0  0  0  0  0  0  0  0  0  0
    5.0120  -14.2970    0.9750 C   0  0  0  0  0  0  0  0  0  0  0  0
    4.4540  -15.5560    1.1980 N   0  0  0  0  0  0  0  0  0  0  0  0
    3.0650  -15.8180    0.8390 C   0  0  0  0  0  0  0  0  0  0  0  0
    2.8150  -17.0780    0.0040 C   0  0  0  0  0  0  0  0  0  0  0  0
    1.5330  -17.8640    0.2890 C   0  0  0  0  0  0  0  0  0  0  0  0
    1.1260  -17.8410    1.7560 C   0  0  0  0  0  0  0  0  0  0  0  0
   -0.3770  -17.8230    1.9410 N   0  0  0  0  0  0  0  0  0  0  0  0
   -1.1250  -17.0760    0.8750 C   0  0  0  0  0  0  0  0  0  0  0  0
   -0.8090  -17.4070    3.3220 C   0  0  0  0  0  0  0  0  0  0  0  0
    4.9110  -13.3580    1.9200 N   0  0  0  0  0  0  0  0  0  0  0  0
    5.5150  -12.1920    1.6830 C   0  0  0  0  0  0  0  0  0  0  0  0
    6.2320  -11.8920    0.5970 N   0  0  0  0  0  0  0  0  0  0  0  0
    5.8726  -12.2533   -5.2382 H   0  0  0  0  0  0  0  0  0  0  0  0
    4.9211  -13.4322   -6.2033 H   0  0  0  0  0  0  0  0  0  0  0  0
    4.4642  -11.6950   -6.2033 H   0  0  0  0  0  0  0  0  0  0  0  0
    2.6228  -14.0058   -5.5765 H   0  0  0  0  0  0  0  0  0  0  0  0
    1.0687  -14.4394   -3.6809 H   0  0  0  0  0  0  0  0  0  0  0  0
    2.1630  -11.9840   -0.1180 H   0  0  0  0  0  0  0  0  0  0  0  0
    0.7509  -14.6286    1.6496 H   0  0  0  0  0  0  0  0  0  0  0  0
   -0.7188  -14.3715    3.6440 H   0  0  0  0  0  0  0  0  0  0  0  0
   -1.7528  -12.1687    4.1695 H   0  0  0  0  0  0  0  0  0  0  0  0
    0.1724  -10.4604    0.6914 H   0  0  0  0  0  0  0  0  0  0  0  0
    3.5504  -12.0222   -1.0894 H   0  0  0  0  0  0  0  0  0  0  0  0
    5.3790  -10.6200   -3.6480 H   0  0  0  0  0  0  0  0  0  0  0  0
   10.3257  -11.5992   -4.3402 H   0  0  0  0  0  0  0  0  0  0  0  0
   12.0238  -13.0344   -3.1960 H   0  0  0  0  0  0  0  0  0  0  0  0
   11.4085  -14.3320   -1.1763 H   0  0  0  0  0  0  0  0  0  0  0  0
    9.0881  -14.2186   -0.2370 H   0  0  0  0  0  0  0  0  0  0  0  0
    5.8170  -14.8571   -0.9609 H   0  0  0  0  0  0  0  0  0  0  0  0
    5.0880  -16.3190    0.9750 H   0  0  0  0  0  0  0  0  0  0  0  0
    2.4881  -15.9115    1.7709 H   0  0  0  0  0  0  0  0  0  0  0  0
    2.7580  -14.9744    0.2033 H   0  0  0  0  0  0  0  0  0  0  0  0
    2.7888  -16.7745   -1.0530 H   0  0  0  0  0  0  0  0  0  0  0  0
    3.6327  -17.7628    0.2730 H   0  0  0  0  0  0  0  0  0  0  0  0
    0.7170  -17.4288   -0.3066 H   0  0  0  0  0  0  0  0  0  0  0  0
    1.7277  -18.9130    0.0213 H   0  0  0  0  0  0  0  0  0  0  0  0
    1.5313  -18.7372    2.2486 H   0  0  0  0  0  0  0  0  0  0  0  0
    1.5283  -16.9185    2.1999 H   0  0  0  0  0  0  0  0  0  0  0  0
   -0.6710  -18.8030    1.8520 H   0  0  0  0  0  0  0  0  0  0  0  0
   -1.8287  -16.3732    1.3449 H   0  0  0  0  0  0  0  0  0  0  0  0
   -0.4125  -16.5182    0.2495 H   0  0  0  0  0  0  0  0  0  0  0  0
   -1.6818  -17.7892    0.2495 H   0  0  0  0  0  0  0  0  0  0  0  0
   -0.2290  -17.9655    4.0714 H   0  0  0  0  0  0  0  0  0  0  0  0
   -0.6338  -16.3288    3.4518 H   0  0  0  0  0  0  0  0  0  0  0  0
   -1.8798  -17.6227    3.4518 H   0  0  0  0  0  0  0  0  0  0  0  0
    5.4134  -11.4094    2.4493 H   0  0  0  0  0  0  0  0  0  0  0  0
  1  2  1  0
  2  3  2  0
  3  4  1  0
  4  5  2  0
  5  6  1  0
  6  7  2  0
  6  8  1  0
  8  9  1  0
  9 10  2  0
 10 11  1  0
 11 12  2  0
 12 13  1  0
 13 14  1  0
 14 15  1  0
 14 16  1  0
 14 17  1  0
 13 18  2  0
  5 19  1  0
 19 20  2  0
 20 21  1  0
 21 22  1  0
 22 23  2  0
 23 24  1  0
 24 25  2  0
 25 26  1  0
 26 27  2  0
 27 28  1  0
 28 29  2  0
 29 30  1  0
 30 31  1  0
 31 32  2  0
 32 33  1  0
 33 34  1  0
 34 35  1  0
 35 36  1  0
 36 37  1  0
 37 38  1  0
 38 39  1  0
 39 40  1  0
 39 41  1  0
 33 42  2  0
 42 43  1  0
 43 44  2  0
 20  2  1  0
 30 22  1  0
 44 31  1  0
 18  9  1  0
 29 24  1  0
  1 45  1  0
  1 46  1  0
  1 47  1  0
  3 48  1  0
  4 49  1  0
  8 50  1  0
 10 51  1  0
 11 52  1  0
 12 53  1  0
 18 54  1  0
 19 55  1  0
 21 56  1  0
 25 57  1  0
 26 58  1  0
 27 59  1  0
 28 60  1  0
 32 61  1  0
 34 62  1  0
 35 63  1  0
 35 64  1  0
 36 65  1  0
 36 66  1  0
 37 67  1  0
 37 68  1  0
 38 69  1  0
 38 70  1  0
 39 71  1  0
 40 72  1  0
 40 73  1  0
 40 74  1  0
 41 75  1  0
 41 76  1  0
 41 77  1  0
 43 78  1  0
M  CHG  1  39   1
M  END
>  <meeko>  (9) 
{"is_sidechain": [false], "free_energy": -8.1, "intermolecular_energy": -13.581, "internal_energy": -2.766}

$$$$
