LIB_REDBMKRPRFVCHI__M_PUB_ALL__e8__s20260927
     RDKit          3D

 78 82  0  0  0  0  0  0  0  0999 V2000
   10.1170  -12.1740   -3.4590 C   0  0  0  0  0  0  0  0  0  0  0  0
   10.8110  -12.8920   -2.3180 C   0  0  0  0  0  0  0  0  0  0  0  0
   11.3030  -11.9270   -1.2690 N   0  0  0  0  0  0  0  0  0  0  0  0
   12.8090  -11.7710   -1.2620 C   0  0  0  0  0  0  0  0  0  0  0  0
   13.2720  -10.7270   -0.2620 C   0  0  0  0  0  0  0  0  0  0  0  0
   10.7140  -12.1110    0.1310 C   0  0  0  0  0  0  0  0  0  0  0  0
    9.2750  -12.6680    0.0330 C   0  0  0  0  0  0  0  0  0  0  0  0
    8.4680  -12.3300    1.2170 N   0  0  0  0  0  0  0  0  0  0  0  0
    7.0790  -12.4570    1.1240 C   0  0  0  0  0  0  0  0  0  0  0  0
    6.5480  -13.5660    0.4870 C   0  0  0  0  0  0  0  0  0  0  0  0
    5.1740  -13.6190    0.3390 C   0  0  0  0  0  0  0  0  0  0  0  0
    4.5550  -14.7170   -0.3470 N   0  0  0  0  0  0  0  0  0  0  0  0
    3.6770  -14.6000   -1.4360 C   0  0  0  0  0  0  0  0  0  0  0  0
    3.2110  -13.3850   -1.8290 N   0  0  0  0  0  0  0  0  0  0  0  0
    3.3660  -12.7120   -3.0620 C   0  0  0  0  0  0  0  0  0  0  0  0
    4.0700  -13.2710   -4.1440 C   0  0  0  0  0  0  0  0  0  0  0  0
    4.2310  -12.5950   -5.3640 C   0  0  0  0  0  0  0  0  0  0  0  0
    4.9540  -13.2620   -6.3780 N   0  0  0  0  0  0  0  0  0  0  0  0
    6.2810  -13.6470   -6.3440 C   0  0  0  0  0  0  0  0  0  0  0  0
    7.0450  -13.5760   -5.3880 O   0  0  0  0  0  0  0  0  0  0  0  0
    6.7910  -14.2560   -7.6060 C   0  0  0  0  0  0  0  0  0  0  0  0
    7.2770  -15.5680   -7.6470 C   0  0  0  0  0  0  0  0  0  0  0  0
    7.7440  -16.1000   -8.8490 C   0  0  0  0  0  0  0  0  0  0  0  0
    7.7180  -15.3300  -10.0140 C   0  0  0  0  0  0  0  0  0  0  0  0
    7.2100  -14.0220   -9.9960 C   0  0  0  0  0  0  0  0  0  0  0  0
    7.1910  -13.1810  -11.2500 C   0  0  0  0  0  0  0  0  0  0  0  0
    8.4430  -12.8190  -11.6420 F   0  0  0  0  0  0  0  0  0  0  0  0
    6.4930  -12.0220  -11.1050 F   0  0  0  0  0  0  0  0  0  0  0  0
    6.6360  -13.8210  -12.3170 F   0  0  0  0  0  0  0  0  0  0  0  0
    6.7480  -13.4920   -8.7810 C   0  0  0  0  0  0  0  0  0  0  0  0
    3.6690  -11.3340   -5.5140 C   0  0  0  0  0  0  0  0  0  0  0  0
    2.9560  -10.7580   -4.4620 C   0  0  0  0  0  0  0  0  0  0  0  0
    2.7920  -11.4310   -3.2410 C   0  0  0  0  0  0  0  0  0  0  0  0
    1.9990  -10.7500   -2.1580 C   0  0  0  0  0  0  0  0  0  0  0  0
    3.4600  -15.7770   -1.9820 N   0  0  0  0  0  0  0  0  0  0  0  0
    4.0690  -16.6930   -1.1810 C   0  0  0  0  0  0  0  0  0  0  0  0
    4.0730  -18.0920   -1.3020 C   0  0  0  0  0  0  0  0  0  0  0  0
    4.7040  -18.8570   -0.3180 C   0  0  0  0  0  0  0  0  0  0  0  0
    5.3040  -18.2420    0.7760 C   0  0  0  0  0  0  0  0  0  0  0  0
    5.3180  -16.8480    0.9070 C   0  0  0  0  0  0  0  0  0  0  0  0
    4.7240  -16.0830   -0.1140 C   0  0  0  0  0  0  0  0  0  0  0  0
    4.3800  -12.6060    0.7630 N   0  0  0  0  0  0  0  0  0  0  0  0
    4.9870  -11.5850    1.3740 C   0  0  0  0  0  0  0  0  0  0  0  0
    6.3080  -11.4490    1.5480 N   0  0  0  0  0  0  0  0  0  0  0  0
    9.4068  -11.4392   -3.0519 H   0  0  0  0  0  0  0  0  0  0  0  0
   10.8662  -11.6567   -4.0764 H   0  0  0  0  0  0  0  0  0  0  0  0
    9.5746  -12.9051   -4.0764 H   0  0  0  0  0  0  0  0  0  0  0  0
   10.1014  -13.5924   -1.8533 H   0  0  0  0  0  0  0  0  0  0  0  0
   11.6810  -13.4262   -2.7276 H   0  0  0  0  0  0  0  0  0  0  0  0
   10.9550  -10.9860   -1.5270 H   0  0  0  0  0  0  0  0  0  0  0  0
   13.2642  -12.7379   -1.0013 H   0  0  0  0  0  0  0  0  0  0  0  0
   13.1192  -11.4401   -2.2641 H   0  0  0  0  0  0  0  0  0  0  0  0
   13.1069  -11.0994    0.7598 H   0  0  0  0  0  0  0  0  0  0  0  0
   14.3434  -10.5267   -0.4106 H   0  0  0  0  0  0  0  0  0  0  0  0
   12.7013   -9.7984   -0.4106 H   0  0  0  0  0  0  0  0  0  0  0  0
   11.3391  -12.8158    0.6989 H   0  0  0  0  0  0  0  0  0  0  0  0
   10.6891  -11.1372    0.6420 H   0  0  0  0  0  0  0  0  0  0  0  0
    8.7907  -12.2441   -0.8590 H   0  0  0  0  0  0  0  0  0  0  0  0
    9.3399  -13.7642   -0.0307 H   0  0  0  0  0  0  0  0  0  0  0  0
    8.7640  -11.4820    1.6990 H   0  0  0  0  0  0  0  0  0  0  0  0
    7.1943  -14.3738    0.1131 H   0  0  0  0  0  0  0  0  0  0  0  0
    2.6550  -12.8730   -1.1480 H   0  0  0  0  0  0  0  0  0  0  0  0
    4.5098  -14.2728   -4.0303 H   0  0  0  0  0  0  0  0  0  0  0  0
    4.4190  -13.5130   -7.1980 H   0  0  0  0  0  0  0  0  0  0  0  0
    7.2907  -16.1789   -6.7323 H   0  0  0  0  0  0  0  0  0  0  0  0
    8.1336  -17.1282   -8.8794 H   0  0  0  0  0  0  0  0  0  0  0  0
    8.0995  -15.7531  -10.9550 H   0  0  0  0  0  0  0  0  0  0  0  0
    6.3484  -12.4676   -8.7504 H   0  0  0  0  0  0  0  0  0  0  0  0
    3.7860  -10.7891   -6.4624 H   0  0  0  0  0  0  0  0  0  0  0  0
    2.5146   -9.7588   -4.5917 H   0  0  0  0  0  0  0  0  0  0  0  0
    2.3719  -11.0703   -1.1740 H   0  0  0  0  0  0  0  0  0  0  0  0
    2.1079   -9.6596   -2.2543 H   0  0  0  0  0  0  0  0  0  0  0  0
    0.9376  -11.0224   -2.2543 H   0  0  0  0  0  0  0  0  0  0  0  0
    3.5860  -18.5788   -2.1598 H   0  0  0  0  0  0  0  0  0  0  0  0
    4.7265  -19.9530   -0.4089 H   0  0  0  0  0  0  0  0  0  0  0  0
    5.7761  -18.8621    1.5523 H   0  0  0  0  0  0  0  0  0  0  0  0
    5.7792  -16.3655    1.7813 H   0  0  0  0  0  0  0  0  0  0  0  0
    4.3446  -10.7845    1.7696 H   0  0  0  0  0  0  0  0  0  0  0  0
  1  2  1  0
  2  3  1  0
  3  4  1  0
  4  5  1  0
  3  6  1  0
  6  7  1  0
  7  8  1  0
  8  9  1  0
  9 10  2  0
 10 11  1  0
 11 12  1  0
 12 13  1  0
 13 14  1  0
 14 15  1  0
 15 16  2  0
 16 17  1  0
 17 18  1  0
 18 19  1  0
 19 20  2  0
 19 21  1  0
 21 22  2  0
 22 23  1  0
 23 24  2  0
 24 25  1  0
 25 26  1  0
 26 27  1  0
 26 28  1  0
 26 29  1  0
 25 30  2  0
 17 31  2  0
 31 32  1  0
 32 33  2  0
 33 34  1  0
 13 35  2  0
 35 36  1  0
 36 37  2  0
 37 38  1  0
 38 39  2  0
 39 40  1  0
 40 41  2  0
 11 42  2  0
 42 43  1  0
 43 44  2  0
 44  9  1  0
 41 12  1  0
 33 15  1  0
 41 36  1  0
 30 21  1  0
  1 45  1  0
  1 46  1  0
  1 47  1  0
  2 48  1  0
  2 49  1  0
  3 50  1  0
  4 51  1  0
  4 52  1  0
  5 53  1  0
  5 54  1  0
  5 55  1  0
  6 56  1  0
  6 57  1  0
  7 58  1  0
  7 59  1  0
  8 60  1  0
 10 61  1  0
 14 62  1  0
 16 63  1  0
 18 64  1  0
 22 65  1  0
 23 66  1  0
 24 67  1  0
 30 68  1  0
 31 69  1  0
 32 70  1  0
 34 71  1  0
 34 72  1  0
 34 73  1  0
 37 74  1  0
 38 75  1  0
 39 76  1  0
 40 77  1  0
 43 78  1  0
M  CHG  1   3   1
M  END
>  <meeko>  (1) 
{"is_sidechain": [false], "free_energy": -9.019, "intermolecular_energy": -15.347, "internal_energy": -2.071}

$$$$
LIB_REDBMKRPRFVCHI__M_PUB_ALL__e8__s20260927
     RDKit          3D

 78 82  0  0  0  0  0  0  0  0999 V2000
   10.5260  -15.9820   -6.3460 C   0  0  0  0  0  0  0  0  0  0  0  0
   10.7420  -14.6160   -6.9680 C   0  0  0  0  0  0  0  0  0  0  0  0
   12.0200  -14.5620   -7.7640 N   0  0  0  0  0  0  0  0  0  0  0  0
   11.7930  -14.3310   -9.2430 C   0  0  0  0  0  0  0  0  0  0  0  0
   11.6890  -15.6330  -10.0170 C   0  0  0  0  0  0  0  0  0  0  0  0
   13.0260  -15.6810   -7.4820 C   0  0  0  0  0  0  0  0  0  0  0  0
   14.2780  -15.1040   -6.7800 C   0  0  0  0  0  0  0  0  0  0  0  0
   13.9270  -14.1620   -5.7050 N   0  0  0  0  0  0  0  0  0  0  0  0
   13.4360  -14.6850   -4.5060 C   0  0  0  0  0  0  0  0  0  0  0  0
   12.7290  -13.8560   -3.6520 C   0  0  0  0  0  0  0  0  0  0  0  0
   12.3300  -14.3840   -2.4380 C   0  0  0  0  0  0  0  0  0  0  0  0
   11.6290  -13.5720   -1.4830 N   0  0  0  0  0  0  0  0  0  0  0  0
   10.3610  -13.8590   -0.9530 C   0  0  0  0  0  0  0  0  0  0  0  0
    9.6140  -14.8820   -1.4450 N   0  0  0  0  0  0  0  0  0  0  0  0
    8.4060  -14.8490   -2.1780 C   0  0  0  0  0  0  0  0  0  0  0  0
    8.3760  -14.7890   -3.5830 C   0  0  0  0  0  0  0  0  0  0  0  0
    7.1740  -14.7450   -4.3070 C   0  0  0  0  0  0  0  0  0  0  0  0
    7.2730  -14.6900   -5.7140 N   0  0  0  0  0  0  0  0  0  0  0  0
    6.9810  -15.6980   -6.6140 C   0  0  0  0  0  0  0  0  0  0  0  0
    6.4830  -16.7890   -6.3620 O   0  0  0  0  0  0  0  0  0  0  0  0
    7.2690  -15.3700   -8.0390 C   0  0  0  0  0  0  0  0  0  0  0  0
    7.6070  -16.3610   -8.9690 C   0  0  0  0  0  0  0  0  0  0  0  0
    7.8680  -16.0120  -10.2950 C   0  0  0  0  0  0  0  0  0  0  0  0
    7.7840  -14.6770  -10.6980 C   0  0  0  0  0  0  0  0  0  0  0  0
    7.4210  -13.6750   -9.7850 C   0  0  0  0  0  0  0  0  0  0  0  0
    7.3400  -12.2290  -10.2140 C   0  0  0  0  0  0  0  0  0  0  0  0
    6.5300  -12.0610  -11.2950 F   0  0  0  0  0  0  0  0  0  0  0  0
    8.5470  -11.7080  -10.5630 F   0  0  0  0  0  0  0  0  0  0  0  0
    6.8450  -11.4100   -9.2450 F   0  0  0  0  0  0  0  0  0  0  0  0
    7.1650  -14.0340   -8.4520 C   0  0  0  0  0  0  0  0  0  0  0  0
    5.9700  -14.7720   -3.6150 C   0  0  0  0  0  0  0  0  0  0  0  0
    5.9670  -14.8430   -2.2210 C   0  0  0  0  0  0  0  0  0  0  0  0
    7.1680  -14.8880   -1.4930 C   0  0  0  0  0  0  0  0  0  0  0  0
    7.0840  -14.9770    0.0070 C   0  0  0  0  0  0  0  0  0  0  0  0
   10.0890  -13.0560    0.0520 N   0  0  0  0  0  0  0  0  0  0  0  0
   11.1010  -12.1450    0.1040 C   0  0  0  0  0  0  0  0  0  0  0  0
   11.2390  -11.0430    0.9640 C   0  0  0  0  0  0  0  0  0  0  0  0
   12.3270  -10.1840    0.7950 C   0  0  0  0  0  0  0  0  0  0  0  0
   13.2510  -10.4070   -0.2210 C   0  0  0  0  0  0  0  0  0  0  0  0
   13.1340  -11.5070   -1.0790 C   0  0  0  0  0  0  0  0  0  0  0  0
   12.0620  -12.3960   -0.8720 C   0  0  0  0  0  0  0  0  0  0  0  0
   12.6540  -15.6500   -2.0790 N   0  0  0  0  0  0  0  0  0  0  0  0
   13.3290  -16.3730   -2.9760 C   0  0  0  0  0  0  0  0  0  0  0  0
   13.7630  -15.9370   -4.1660 N   0  0  0  0  0  0  0  0  0  0  0  0
   10.5402  -15.8921   -5.2498 H   0  0  0  0  0  0  0  0  0  0  0  0
    9.5534  -16.3821   -6.6685 H   0  0  0  0  0  0  0  0  0  0  0  0
   11.3277  -16.6627   -6.6685 H   0  0  0  0  0  0  0  0  0  0  0  0
    9.8968  -14.3903   -7.6349 H   0  0  0  0  0  0  0  0  0  0  0  0
   10.8120  -13.8768   -6.1564 H   0  0  0  0  0  0  0  0  0  0  0  0
   12.5420  -13.7220   -7.4560 H   0  0  0  0  0  0  0  0  0  0  0  0
   10.8587  -13.7653   -9.3740 H   0  0  0  0  0  0  0  0  0  0  0  0
   12.6566  -13.7733   -9.6344 H   0  0  0  0  0  0  0  0  0  0  0  0
   11.6218  -16.4745   -9.3117 H   0  0  0  0  0  0  0  0  0  0  0  0
   10.7896  -15.6124  -10.6500 H   0  0  0  0  0  0  0  0  0  0  0  0
   12.5802  -15.7554  -10.6500 H   0  0  0  0  0  0  0  0  0  0  0  0
   12.5589  -16.4351   -6.8314 H   0  0  0  0  0  0  0  0  0  0  0  0
   13.3271  -16.1434   -8.4336 H   0  0  0  0  0  0  0  0  0  0  0  0
   14.8567  -15.9341   -6.3488 H   0  0  0  0  0  0  0  0  0  0  0  0
   14.8646  -14.5557   -7.5318 H   0  0  0  0  0  0  0  0  0  0  0  0
   13.4220  -13.3330   -6.0210 H   0  0  0  0  0  0  0  0  0  0  0  0
   12.4938  -12.8176   -3.9285 H   0  0  0  0  0  0  0  0  0  0  0  0
    9.9700  -15.8210   -1.2800 H   0  0  0  0  0  0  0  0  0  0  0  0
    9.3280  -14.7761   -4.1339 H   0  0  0  0  0  0  0  0  0  0  0  0
    7.5520  -13.7950   -6.0940 H   0  0  0  0  0  0  0  0  0  0  0  0
    7.6667  -17.4135   -8.6548 H   0  0  0  0  0  0  0  0  0  0  0  0
    8.1403  -16.7895  -11.0240 H   0  0  0  0  0  0  0  0  0  0  0  0
    8.0047  -14.4085  -11.7417 H   0  0  0  0  0  0  0  0  0  0  0  0
    6.8801  -13.2597   -7.7245 H   0  0  0  0  0  0  0  0  0  0  0  0
    5.0184  -14.7374   -4.1658 H   0  0  0  0  0  0  0  0  0  0  0  0
    5.0078  -14.8641   -1.6830 H   0  0  0  0  0  0  0  0  0  0  0  0
    7.7730  -14.2470    0.4568 H   0  0  0  0  0  0  0  0  0  0  0  0
    6.0556  -14.7581    0.3303 H   0  0  0  0  0  0  0  0  0  0  0  0
    7.3620  -15.9910    0.3303 H   0  0  0  0  0  0  0  0  0  0  0  0
   10.5010  -10.8594    1.7588 H   0  0  0  0  0  0  0  0  0  0  0  0
   12.4544   -9.3249    1.4700 H   0  0  0  0  0  0  0  0  0  0  0  0
   14.0887   -9.7063   -0.3525 H   0  0  0  0  0  0  0  0  0  0  0  0
   13.8579  -11.6718   -1.8906 H   0  0  0  0  0  0  0  0  0  0  0  0
   13.5480  -17.4188   -2.7148 H   0  0  0  0  0  0  0  0  0  0  0  0
  1  2  1  0
  2  3  1  0
  3  4  1  0
  4  5  1  0
  3  6  1  0
  6  7  1  0
  7  8  1  0
  8  9  1  0
  9 10  2  0
 10 11  1  0
 11 12  1  0
 12 13  1  0
 13 14  1  0
 14 15  1  0
 15 16  2  0
 16 17  1  0
 17 18  1  0
 18 19  1  0
 19 20  2  0
 19 21  1  0
 21 22  2  0
 22 23  1  0
 23 24  2  0
 24 25  1  0
 25 26  1  0
 26 27  1  0
 26 28  1  0
 26 29  1  0
 25 30  2  0
 17 31  2  0
 31 32  1  0
 32 33  2  0
 33 34  1  0
 13 35  2  0
 35 36  1  0
 36 37  2  0
 37 38  1  0
 38 39  2  0
 39 40  1  0
 40 41  2  0
 11 42  2  0
 42 43  1  0
 43 44  2  0
 44  9  1  0
 41 12  1  0
 33 15  1  0
 41 36  1  0
 30 21  1  0
  1 45  1  0
  1 46  1  0
  1 47  1  0
  2 48  1  0
  2 49  1  0
  3 50  1  0
  4 51  1  0
  4 52  1  0
  5 53  1  0
  5 54  1  0
  5 55  1  0
  6 56  1  0
  6 57  1  0
  7 58  1  0
  7 59  1  0
  8 60  1  0
 10 61  1  0
 14 62  1  0
 16 63  1  0
 18 64  1  0
 22 65  1  0
 23 66  1  0
 24 67  1  0
 30 68  1  0
 31 69  1  0
 32 70  1  0
 34 71  1  0
 34 72  1  0
 34 73  1  0
 37 74  1  0
 38 75  1  0
 39 76  1  0
 40 77  1  0
 43 78  1  0
M  CHG  1   3   1
M  END
>  <meeko>  (2) 
{"is_sidechain": [false], "free_energy": -9.017, "intermolecular_energy": -13.9, "internal_energy": -3.512}

$$$$
LIB_REDBMKRPRFVCHI__M_PUB_ALL__e8__s20260927
     RDKit          3D

 78 82  0  0  0  0  0  0  0  0999 V2000
   10.8580  -15.5780   -7.8930 C   0  0  0  0  0  0  0  0  0  0  0  0
   11.1130  -14.0850   -7.8340 C   0  0  0  0  0  0  0  0  0  0  0  0
   12.5590  -13.7550   -8.1020 N   0  0  0  0  0  0  0  0  0  0  0  0
   12.7390  -12.6230   -9.0920 C   0  0  0  0  0  0  0  0  0  0  0  0
   11.5790  -12.5240  -10.0660 C   0  0  0  0  0  0  0  0  0  0  0  0
   13.4710  -14.9500   -8.3890 C   0  0  0  0  0  0  0  0  0  0  0  0
   14.4190  -15.1940   -7.1920 C   0  0  0  0  0  0  0  0  0  0  0  0
   14.0870  -14.3410   -6.0390 N   0  0  0  0  0  0  0  0  0  0  0  0
   13.4950  -14.9430   -4.9250 C   0  0  0  0  0  0  0  0  0  0  0  0
   12.6410  -14.1950   -4.1330 C   0  0  0  0  0  0  0  0  0  0  0  0
   12.1380  -14.7960   -2.9930 C   0  0  0  0  0  0  0  0  0  0  0  0
   11.2790  -14.0690   -2.1030 N   0  0  0  0  0  0  0  0  0  0  0  0
    9.9160  -14.3370   -1.8940 C   0  0  0  0  0  0  0  0  0  0  0  0
    9.2560  -15.2370   -2.6700 N   0  0  0  0  0  0  0  0  0  0  0  0
    8.1030  -15.0670   -3.4700 C   0  0  0  0  0  0  0  0  0  0  0  0
    8.1640  -14.5930   -4.7920 C   0  0  0  0  0  0  0  0  0  0  0  0
    7.0160  -14.4150   -5.5800 C   0  0  0  0  0  0  0  0  0  0  0  0
    7.2060  -13.9370   -6.8960 N   0  0  0  0  0  0  0  0  0  0  0  0
    7.2510  -14.6820   -8.0590 C   0  0  0  0  0  0  0  0  0  0  0  0
    7.0280  -15.8810   -8.1740 O   0  0  0  0  0  0  0  0  0  0  0  0
    7.5550  -13.9030   -9.2920 C   0  0  0  0  0  0  0  0  0  0  0  0
    8.2490  -14.4680  -10.3690 C   0  0  0  0  0  0  0  0  0  0  0  0
    8.5130  -13.7050  -11.5060 C   0  0  0  0  0  0  0  0  0  0  0  0
    8.0780  -12.3790  -11.5770 C   0  0  0  0  0  0  0  0  0  0  0  0
    7.3590  -11.8040  -10.5180 C   0  0  0  0  0  0  0  0  0  0  0  0
    6.8970  -10.3680  -10.5850 C   0  0  0  0  0  0  0  0  0  0  0  0
    6.5660   -9.8790   -9.3590 F   0  0  0  0  0  0  0  0  0  0  0  0
    5.7970  -10.1970  -11.3670 F   0  0  0  0  0  0  0  0  0  0  0  0
    7.8440   -9.5230  -11.0810 F   0  0  0  0  0  0  0  0  0  0  0  0
    7.1030  -12.5780   -9.3750 C   0  0  0  0  0  0  0  0  0  0  0  0
    5.7750  -14.7270   -5.0410 C   0  0  0  0  0  0  0  0  0  0  0  0
    5.6830  -15.2090   -3.7350 C   0  0  0  0  0  0  0  0  0  0  0  0
    6.8290  -15.3890   -2.9440 C   0  0  0  0  0  0  0  0  0  0  0  0
    6.6500  -15.9270   -1.5490 C   0  0  0  0  0  0  0  0  0  0  0  0
    9.4640  -13.6540   -0.8660 N   0  0  0  0  0  0  0  0  0  0  0  0
   10.4730  -12.8270   -0.4770 C   0  0  0  0  0  0  0  0  0  0  0  0
   10.4630  -11.8560    0.5380 C   0  0  0  0  0  0  0  0  0  0  0  0
   11.5940  -11.0560    0.7230 C   0  0  0  0  0  0  0  0  0  0  0  0
   12.7070  -11.2070   -0.0990 C   0  0  0  0  0  0  0  0  0  0  0  0
   12.7370  -12.1770   -1.1080 C   0  0  0  0  0  0  0  0  0  0  0  0
   11.6130  -13.0120   -1.2550 C   0  0  0  0  0  0  0  0  0  0  0  0
   12.5010  -16.0530   -2.6410 N   0  0  0  0  0  0  0  0  0  0  0  0
   13.3230  -16.6960   -3.4750 C   0  0  0  0  0  0  0  0  0  0  0  0
   13.8630  -16.1850   -4.5900 N   0  0  0  0  0  0  0  0  0  0  0  0
   10.7895  -15.9789   -6.8710 H   0  0  0  0  0  0  0  0  0  0  0  0
    9.9144  -15.7681   -8.4254 H   0  0  0  0  0  0  0  0  0  0  0  0
   11.6850  -16.0705   -8.4254 H   0  0  0  0  0  0  0  0  0  0  0  0
   10.4878  -13.5865   -8.5894 H   0  0  0  0  0  0  0  0  0  0  0  0
   10.8634  -13.7344   -6.8217 H   0  0  0  0  0  0  0  0  0  0  0  0
   12.9610  -13.3850   -7.2220 H   0  0  0  0  0  0  0  0  0  0  0  0
   12.8178  -11.6763   -8.5374 H   0  0  0  0  0  0  0  0  0  0  0  0
   13.6515  -12.8236   -9.6725 H   0  0  0  0  0  0  0  0  0  0  0  0
   10.6357  -12.4435   -9.5058 H   0  0  0  0  0  0  0  0  0  0  0  0
   11.7067  -11.6335  -10.6990 H   0  0  0  0  0  0  0  0  0  0  0  0
   11.5539  -13.4233  -10.6990 H   0  0  0  0  0  0  0  0  0  0  0  0
   12.8552  -15.8464   -8.5541 H   0  0  0  0  0  0  0  0  0  0  0  0
   14.0710  -14.7379   -9.2862 H   0  0  0  0  0  0  0  0  0  0  0  0
   14.3413  -16.2481   -6.8873 H   0  0  0  0  0  0  0  0  0  0  0  0
   15.4412  -14.9455   -7.5137 H   0  0  0  0  0  0  0  0  0  0  0  0
   13.6650  -13.4460   -6.2850 H   0  0  0  0  0  0  0  0  0  0  0  0
   12.3726  -13.1622   -4.3999 H   0  0  0  0  0  0  0  0  0  0  0  0
    9.6430  -16.1770   -2.6990 H   0  0  0  0  0  0  0  0  0  0  0  0
    9.1465  -14.3530   -5.2245 H   0  0  0  0  0  0  0  0  0  0  0  0
    7.2770  -12.9320   -6.9850 H   0  0  0  0  0  0  0  0  0  0  0  0
    8.5860  -15.5139  -10.3182 H   0  0  0  0  0  0  0  0  0  0  0  0
    9.0646  -14.1477  -12.3484 H   0  0  0  0  0  0  0  0  0  0  0  0
    8.3014  -11.7799  -12.4721 H   0  0  0  0  0  0  0  0  0  0  0  0
    6.5421  -12.1407   -8.5359 H   0  0  0  0  0  0  0  0  0  0  0  0
    4.8644  -14.5941   -5.6437 H   0  0  0  0  0  0  0  0  0  0  0  0
    4.6949  -15.4524   -3.3175 H   0  0  0  0  0  0  0  0  0  0  0  0
    6.9097  -15.1464   -0.8188 H   0  0  0  0  0  0  0  0  0  0  0  0
    5.6025  -16.2303   -1.4046 H   0  0  0  0  0  0  0  0  0  0  0  0
    7.3070  -16.7974   -1.4046 H   0  0  0  0  0  0  0  0  0  0  0  0
    9.5777  -11.7271    1.1781 H   0  0  0  0  0  0  0  0  0  0  0  0
   11.6046  -10.3019    1.5237 H   0  0  0  0  0  0  0  0  0  0  0  0
   13.5788  -10.5523    0.0468 H   0  0  0  0  0  0  0  0  0  0  0  0
   13.6121  -12.2835   -1.7659 H   0  0  0  0  0  0  0  0  0  0  0  0
   13.5790  -17.7361   -3.2246 H   0  0  0  0  0  0  0  0  0  0  0  0
  1  2  1  0
  2  3  1  0
  3  4  1  0
  4  5  1  0
  3  6  1  0
  6  7  1  0
  7  8  1  0
  8  9  1  0
  9 10  2  0
 10 11  1  0
 11 12  1  0
 12 13  1  0
 13 14  1  0
 14 15  1  0
 15 16  2  0
 16 17  1  0
 17 18  1  0
 18 19  1  0
 19 20  2  0
 19 21  1  0
 21 22  2  0
 22 23  1  0
 23 24  2  0
 24 25  1  0
 25 26  1  0
 26 27  1  0
 26 28  1  0
 26 29  1  0
 25 30  2  0
 17 31  2  0
 31 32  1  0
 32 33  2  0
 33 34  1  0
 13 35  2  0
 35 36  1  0
 36 37  2  0
 37 38  1  0
 38 39  2  0
 39 40  1  0
 40 41  2  0
 11 42  2  0
 42 43  1  0
 43 44  2  0
 44  9  1  0
 41 12  1  0
 33 15  1  0
 41 36  1  0
 30 21  1  0
  1 45  1  0
  1 46  1  0
  1 47  1  0
  2 48  1  0
  2 49  1  0
  3 50  1  0
  4 51  1  0
  4 52  1  0
  5 53  1  0
  5 54  1  0
  5 55  1  0
  6 56  1  0
  6 57  1  0
  7 58  1  0
  7 59  1  0
  8 60  1  0
 10 61  1  0
 14 62  1  0
 16 63  1  0
 18 64  1  0
 22 65  1  0
 23 66  1  0
 24 67  1  0
 30 68  1  0
 31 69  1  0
 32 70  1  0
 34 71  1  0
 34 72  1  0
 34 73  1  0
 37 74  1  0
 38 75  1  0
 39 76  1  0
 40 77  1  0
 43 78  1  0
M  CHG  1   3   1
M  END
>  <meeko>  (3) 
{"is_sidechain": [false], "free_energy": -8.924, "intermolecular_energy": -13.692, "internal_energy": -3.563}

$$$$
LIB_REDBMKRPRFVCHI__M_PUB_ALL__e8__s20260927
     RDKit          3D

 78 82  0  0  0  0  0  0  0  0999 V2000
    2.9570  -10.4130   -3.8550 C   0  0  0  0  0  0  0  0  0  0  0  0
    2.5230  -11.7700   -3.3380 C   0  0  0  0  0  0  0  0  0  0  0  0
    2.2970  -12.7490   -4.4620 N   0  0  0  0  0  0  0  0  0  0  0  0
    1.5140  -13.9740   -4.0380 C   0  0  0  0  0  0  0  0  0  0  0  0
    0.4520  -14.3540   -5.0540 C   0  0  0  0  0  0  0  0  0  0  0  0
    3.5280  -13.0880   -5.3050 C   0  0  0  0  0  0  0  0  0  0  0  0
    4.6260  -13.7130   -4.4130 C   0  0  0  0  0  0  0  0  0  0  0  0
    4.6740  -15.1790   -4.5380 N   0  0  0  0  0  0  0  0  0  0  0  0
    5.6610  -15.7370   -5.3550 C   0  0  0  0  0  0  0  0  0  0  0  0
    6.4990  -14.8950   -6.0660 C   0  0  0  0  0  0  0  0  0  0  0  0
    7.4080  -15.4800   -6.9280 C   0  0  0  0  0  0  0  0  0  0  0  0
    8.2820  -14.6700   -7.7280 N   0  0  0  0  0  0  0  0  0  0  0  0
    9.6410  -14.4390   -7.4620 C   0  0  0  0  0  0  0  0  0  0  0  0
   10.2050  -14.8550   -6.2980 N   0  0  0  0  0  0  0  0  0  0  0  0
   10.7010  -14.0980   -5.2120 C   0  0  0  0  0  0  0  0  0  0  0  0
    9.8760  -13.6440   -4.1680 C   0  0  0  0  0  0  0  0  0  0  0  0
   10.3700  -12.8830   -3.0970 C   0  0  0  0  0  0  0  0  0  0  0  0
    9.4430  -12.4880   -2.1070 N   0  0  0  0  0  0  0  0  0  0  0  0
    9.1110  -13.1700   -0.9520 C   0  0  0  0  0  0  0  0  0  0  0  0
    9.6370  -14.1910   -0.5230 O   0  0  0  0  0  0  0  0  0  0  0  0
    8.0290  -12.5430   -0.1410 C   0  0  0  0  0  0  0  0  0  0  0  0
    6.9570  -13.2900    0.3610 C   0  0  0  0  0  0  0  0  0  0  0  0
    5.9650  -12.6650    1.1170 C   0  0  0  0  0  0  0  0  0  0  0  0
    6.0440  -11.2960    1.3820 C   0  0  0  0  0  0  0  0  0  0  0  0
    7.1260  -10.5360    0.9090 C   0  0  0  0  0  0  0  0  0  0  0  0
    7.2100   -9.0540    1.1820 C   0  0  0  0  0  0  0  0  0  0  0  0
    8.4590   -8.6750    1.5670 F   0  0  0  0  0  0  0  0  0  0  0  0
    6.3710   -8.6460    2.1730 F   0  0  0  0  0  0  0  0  0  0  0  0
    6.9050   -8.2900    0.0960 F   0  0  0  0  0  0  0  0  0  0  0  0
    8.1160  -11.1730    0.1440 C   0  0  0  0  0  0  0  0  0  0  0  0
   11.7240  -12.5750   -3.0590 C   0  0  0  0  0  0  0  0  0  0  0  0
   12.5700  -13.0210   -4.0750 C   0  0  0  0  0  0  0  0  0  0  0  0
   12.0790  -13.7830   -5.1470 C   0  0  0  0  0  0  0  0  0  0  0  0
   13.0560  -14.2390   -6.1970 C   0  0  0  0  0  0  0  0  0  0  0  0
   10.2170  -13.8480   -8.4860 N   0  0  0  0  0  0  0  0  0  0  0  0
    9.2250  -13.5550   -9.3720 C   0  0  0  0  0  0  0  0  0  0  0  0
    9.3210  -12.8680  -10.5930 C   0  0  0  0  0  0  0  0  0  0  0  0
    8.1560  -12.6050  -11.3170 C   0  0  0  0  0  0  0  0  0  0  0  0
    6.9160  -13.0030  -10.8260 C   0  0  0  0  0  0  0  0  0  0  0  0
    6.8040  -13.6980   -9.6160 C   0  0  0  0  0  0  0  0  0  0  0  0
    7.9870  -14.0020   -8.9170 C   0  0  0  0  0  0  0  0  0  0  0  0
    7.4500  -16.8230   -7.1030 N   0  0  0  0  0  0  0  0  0  0  0  0
    6.6080  -17.5510   -6.3650 C   0  0  0  0  0  0  0  0  0  0  0  0
    5.6900  -17.0650   -5.5170 N   0  0  0  0  0  0  0  0  0  0  0  0
    3.1698   -9.7478   -3.0052 H   0  0  0  0  0  0  0  0  0  0  0  0
    3.8636  -10.5268   -4.4675 H   0  0  0  0  0  0  0  0  0  0  0  0
    2.1527   -9.9796   -4.4675 H   0  0  0  0  0  0  0  0  0  0  0  0
    3.3053  -12.1650   -2.6732 H   0  0  0  0  0  0  0  0  0  0  0  0
    1.5733  -11.6433   -2.7976 H   0  0  0  0  0  0  0  0  0  0  0  0
    1.6820  -12.2870   -5.1560 H   0  0  0  0  0  0  0  0  0  0  0  0
    2.2107  -14.8172   -3.9212 H   0  0  0  0  0  0  0  0  0  0  0  0
    1.0071  -13.7402   -3.0901 H   0  0  0  0  0  0  0  0  0  0  0  0
   -0.4580  -14.6796   -4.5288 H   0  0  0  0  0  0  0  0  0  0  0  0
    0.2197  -13.4832   -5.6847 H   0  0  0  0  0  0  0  0  0  0  0  0
    0.8248  -15.1745   -5.6847 H   0  0  0  0  0  0  0  0  0  0  0  0
    3.2453  -13.8046   -6.0903 H   0  0  0  0  0  0  0  0  0  0  0  0
    3.9166  -12.1662   -5.7624 H   0  0  0  0  0  0  0  0  0  0  0  0
    5.6014  -13.2998   -4.7094 H   0  0  0  0  0  0  0  0  0  0  0  0
    4.3906  -13.4701   -3.3663 H   0  0  0  0  0  0  0  0  0  0  0  0
    3.7620  -15.6220   -4.6470 H   0  0  0  0  0  0  0  0  0  0  0  0
    6.4437  -13.8026   -5.9496 H   0  0  0  0  0  0  0  0  0  0  0  0
   10.2790  -15.8610   -6.1660 H   0  0  0  0  0  0  0  0  0  0  0  0
    8.8051  -13.8941   -4.1913 H   0  0  0  0  0  0  0  0  0  0  0  0
    9.0110  -11.5850   -2.2540 H   0  0  0  0  0  0  0  0  0  0  0  0
    6.8967  -14.3697    0.1594 H   0  0  0  0  0  0  0  0  0  0  0  0
    5.1191  -13.2514    1.5051 H   0  0  0  0  0  0  0  0  0  0  0  0
    5.2506  -10.8081    1.9672 H   0  0  0  0  0  0  0  0  0  0  0  0
    8.9688  -10.5912   -0.2357 H   0  0  0  0  0  0  0  0  0  0  0  0
   12.1293  -11.9794   -2.2278 H   0  0  0  0  0  0  0  0  0  0  0  0
   13.6405  -12.7712   -4.0353 H   0  0  0  0  0  0  0  0  0  0  0  0
   13.9497  -14.6561   -5.7098 H   0  0  0  0  0  0  0  0  0  0  0  0
   12.5863  -15.0110   -6.8243 H   0  0  0  0  0  0  0  0  0  0  0  0
   13.3461  -13.3832   -6.8243 H   0  0  0  0  0  0  0  0  0  0  0  0
   10.3000  -12.5416  -10.9738 H   0  0  0  0  0  0  0  0  0  0  0  0
    8.2189  -12.0799  -12.2815 H   0  0  0  0  0  0  0  0  0  0  0  0
    6.0073  -12.7671  -11.3993 H   0  0  0  0  0  0  0  0  0  0  0  0
    5.8210  -13.9974   -9.2234 H   0  0  0  0  0  0  0  0  0  0  0  0
    6.6733  -18.6448   -6.4612 H   0  0  0  0  0  0  0  0  0  0  0  0
  1  2  1  0
  2  3  1  0
  3  4  1  0
  4  5  1  0
  3  6  1  0
  6  7  1  0
  7  8  1  0
  8  9  1  0
  9 10  2  0
 10 11  1  0
 11 12  1  0
 12 13  1  0
 13 14  1  0
 14 15  1  0
 15 16  2  0
 16 17  1  0
 17 18  1  0
 18 19  1  0
 19 20  2  0
 19 21  1  0
 21 22  2  0
 22 23  1  0
 23 24  2  0
 24 25  1  0
 25 26  1  0
 26 27  1  0
 26 28  1  0
 26 29  1  0
 25 30  2  0
 17 31  2  0
 31 32  1  0
 32 33  2  0
 33 34  1  0
 13 35  2  0
 35 36  1  0
 36 37  2  0
 37 38  1  0
 38 39  2  0
 39 40  1  0
 40 41  2  0
 11 42  2  0
 42 43  1  0
 43 44  2  0
 44  9  1  0
 41 12  1  0
 33 15  1  0
 41 36  1  0
 30 21  1  0
  1 45  1  0
  1 46  1  0
  1 47  1  0
  2 48  1  0
  2 49  1  0
  3 50  1  0
  4 51  1  0
  4 52  1  0
  5 53  1  0
  5 54  1  0
  5 55  1  0
  6 56  1  0
  6 57  1  0
  7 58  1  0
  7 59  1  0
  8 60  1  0
 10 61  1  0
 14 62  1  0
 16 63  1  0
 18 64  1  0
 22 65  1  0
 23 66  1  0
 24 67  1  0
 30 68  1  0
 31 69  1  0
 32 70  1  0
 34 71  1  0
 34 72  1  0
 34 73  1  0
 37 74  1  0
 38 75  1  0
 39 76  1  0
 40 77  1  0
 43 78  1  0
M  CHG  1   3   1
M  END
>  <meeko>  (4) 
{"is_sidechain": [false], "free_energy": -8.844, "intermolecular_energy": -14.619, "internal_energy": -2.5}

$$$$
LIB_REDBMKRPRFVCHI__M_PUB_ALL__e8__s20260927
     RDKit          3D

 78 82  0  0  0  0  0  0  0  0999 V2000
    0.9390  -10.7020   -0.5620 C   0  0  0  0  0  0  0  0  0  0  0  0
    0.5190  -10.3520    0.8520 C   0  0  0  0  0  0  0  0  0  0  0  0
   -0.8440  -10.9040    1.1810 N   0  0  0  0  0  0  0  0  0  0  0  0
   -1.9490   -9.8770    1.0580 C   0  0  0  0  0  0  0  0  0  0  0  0
   -2.9620  -10.2510   -0.0100 C   0  0  0  0  0  0  0  0  0  0  0  0
   -0.9340  -11.7270    2.4680 C   0  0  0  0  0  0  0  0  0  0  0  0
   -0.5910  -13.2070    2.1780 C   0  0  0  0  0  0  0  0  0  0  0  0
    0.6850  -13.6120    2.7930 N   0  0  0  0  0  0  0  0  0  0  0  0
    1.5100  -14.4860    2.0800 C   0  0  0  0  0  0  0  0  0  0  0  0
    2.0430  -14.0700    0.8720 C   0  0  0  0  0  0  0  0  0  0  0  0
    2.7860  -14.9890    0.1540 C   0  0  0  0  0  0  0  0  0  0  0  0
    3.3370  -14.6430   -1.1260 N   0  0  0  0  0  0  0  0  0  0  0  0
    4.7050  -14.5000   -1.4060 C   0  0  0  0  0  0  0  0  0  0  0  0
    5.6290  -14.5260   -0.4090 N   0  0  0  0  0  0  0  0  0  0  0  0
    6.6360  -13.5890   -0.0840 C   0  0  0  0  0  0  0  0  0  0  0  0
    7.8370  -13.4900   -0.8090 C   0  0  0  0  0  0  0  0  0  0  0  0
    8.8400  -12.5660   -0.4770 C   0  0  0  0  0  0  0  0  0  0  0  0
   10.0000  -12.5580   -1.2830 N   0  0  0  0  0  0  0  0  0  0  0  0
   11.2510  -13.0450   -0.9540 C   0  0  0  0  0  0  0  0  0  0  0  0
   11.5560  -13.6680    0.0560 O   0  0  0  0  0  0  0  0  0  0  0  0
   12.3050  -12.8140   -1.9820 C   0  0  0  0  0  0  0  0  0  0  0  0
   13.1450  -11.6940   -1.9380 C   0  0  0  0  0  0  0  0  0  0  0  0
   14.1200  -11.5160   -2.9190 C   0  0  0  0  0  0  0  0  0  0  0  0
   14.2670  -12.4570   -3.9410 C   0  0  0  0  0  0  0  0  0  0  0  0
   13.4510  -13.5990   -3.9860 C   0  0  0  0  0  0  0  0  0  0  0  0
   13.5980  -14.6120   -5.0950 C   0  0  0  0  0  0  0  0  0  0  0  0
   14.7530  -14.4420   -5.7940 F   0  0  0  0  0  0  0  0  0  0  0  0
   12.5930  -14.5520   -6.0100 F   0  0  0  0  0  0  0  0  0  0  0  0
   13.6190  -15.8990   -4.6470 F   0  0  0  0  0  0  0  0  0  0  0  0
   12.4680  -13.7670   -2.9980 C   0  0  0  0  0  0  0  0  0  0  0  0
    8.6380  -11.7110    0.5990 C   0  0  0  0  0  0  0  0  0  0  0  0
    7.4520  -11.7790    1.3310 C   0  0  0  0  0  0  0  0  0  0  0  0
    6.4460  -12.7010    1.0010 C   0  0  0  0  0  0  0  0  0  0  0  0
    5.1890  -12.7050    1.8300 C   0  0  0  0  0  0  0  0  0  0  0  0
    4.9020  -14.4020   -2.7030 N   0  0  0  0  0  0  0  0  0  0  0  0
    3.6700  -14.3330   -3.2770 C   0  0  0  0  0  0  0  0  0  0  0  0
    3.3480  -14.1600   -4.6330 C   0  0  0  0  0  0  0  0  0  0  0  0
    2.0050  -14.0390   -5.0020 C   0  0  0  0  0  0  0  0  0  0  0  0
    1.0040  -14.0740   -4.0370 C   0  0  0  0  0  0  0  0  0  0  0  0
    1.3070  -14.2570   -2.6820 C   0  0  0  0  0  0  0  0  0  0  0  0
    2.6580  -14.4270   -2.3250 C   0  0  0  0  0  0  0  0  0  0  0  0
    2.9510  -16.2600    0.5930 N   0  0  0  0  0  0  0  0  0  0  0  0
    2.4050  -16.5620    1.7750 C   0  0  0  0  0  0  0  0  0  0  0  0
    1.6630  -15.7380    2.5270 N   0  0  0  0  0  0  0  0  0  0  0  0
    1.7837  -11.4059   -0.5300 H   0  0  0  0  0  0  0  0  0  0  0  0
    0.0941  -11.1670   -1.0910 H   0  0  0  0  0  0  0  0  0  0  0  0
    1.2440   -9.7871   -1.0910 H   0  0  0  0  0  0  0  0  0  0  0  0
    1.2529  -10.7712    1.5560 H   0  0  0  0  0  0  0  0  0  0  0  0
    0.4745   -9.2561    0.9353 H   0  0  0  0  0  0  0  0  0  0  0  0
   -1.0750  -11.6100    0.4590 H   0  0  0  0  0  0  0  0  0  0  0  0
   -2.4670   -9.7961    2.0250 H   0  0  0  0  0  0  0  0  0  0  0  0
   -1.4905   -8.9199    0.7688 H   0  0  0  0  0  0  0  0  0  0  0  0
   -3.8907  -10.5939    0.4695 H   0  0  0  0  0  0  0  0  0  0  0  0
   -3.1756   -9.3724   -0.6365 H   0  0  0  0  0  0  0  0  0  0  0  0
   -2.5534  -11.0576   -0.6365 H   0  0  0  0  0  0  0  0  0  0  0  0
   -0.2234  -11.3268    3.2061 H   0  0  0  0  0  0  0  0  0  0  0  0
   -1.9587  -11.6659    2.8633 H   0  0  0  0  0  0  0  0  0  0  0  0
   -1.3949  -13.8422    2.5784 H   0  0  0  0  0  0  0  0  0  0  0  0
   -0.4938  -13.3245    1.0886 H   0  0  0  0  0  0  0  0  0  0  0  0
    0.6190  -13.8370    3.7850 H   0  0  0  0  0  0  0  0  0  0  0  0
    1.8818  -13.0482    0.4979 H   0  0  0  0  0  0  0  0  0  0  0  0
    5.5960  -15.3290    0.2150 H   0  0  0  0  0  0  0  0  0  0  0  0
    7.9959  -14.1604   -1.6665 H   0  0  0  0  0  0  0  0  0  0  0  0
    9.8760  -12.1870   -2.2160 H   0  0  0  0  0  0  0  0  0  0  0  0
   13.0357  -10.9554   -1.1302 H   0  0  0  0  0  0  0  0  0  0  0  0
   14.7748  -10.6327   -2.8880 H   0  0  0  0  0  0  0  0  0  0  0  0
   15.0297  -12.3018   -4.7184 H   0  0  0  0  0  0  0  0  0  0  0  0
   11.8191  -14.6549   -3.0209 H   0  0  0  0  0  0  0  0  0  0  0  0
    9.4130  -10.9804    0.8740 H   0  0  0  0  0  0  0  0  0  0  0  0
    7.3026  -11.0980    2.1818 H   0  0  0  0  0  0  0  0  0  0  0  0
    5.4539  -12.7042    2.8976 H   0  0  0  0  0  0  0  0  0  0  0  0
    4.5946  -11.8087    1.5990 H   0  0  0  0  0  0  0  0  0  0  0  0
    4.6003  -13.6050    1.5990 H   0  0  0  0  0  0  0  0  0  0  0  0
    4.1413  -14.1203   -5.3940 H   0  0  0  0  0  0  0  0  0  0  0  0
    1.7383  -13.9154   -6.0620 H   0  0  0  0  0  0  0  0  0  0  0  0
   -0.0457  -13.9557   -4.3439 H   0  0  0  0  0  0  0  0  0  0  0  0
    0.5137  -14.2676   -1.9201 H   0  0  0  0  0  0  0  0  0  0  0  0
    2.5802  -17.5757    2.1644 H   0  0  0  0  0  0  0  0  0  0  0  0
  1  2  1  0
  2  3  1  0
  3  4  1  0
  4  5  1  0
  3  6  1  0
  6  7  1  0
  7  8  1  0
  8  9  1  0
  9 10  2  0
 10 11  1  0
 11 12  1  0
 12 13  1  0
 13 14  1  0
 14 15  1  0
 15 16  2  0
 16 17  1  0
 17 18  1  0
 18 19  1  0
 19 20  2  0
 19 21  1  0
 21 22  2  0
 22 23  1  0
 23 24  2  0
 24 25  1  0
 25 26  1  0
 26 27  1  0
 26 28  1  0
 26 29  1  0
 25 30  2  0
 17 31  2  0
 31 32  1  0
 32 33  2  0
 33 34  1  0
 13 35  2  0
 35 36  1  0
 36 37  2  0
 37 38  1  0
 38 39  2  0
 39 40  1  0
 40 41  2  0
 11 42  2  0
 42 43  1  0
 43 44  2  0
 44  9  1  0
 41 12  1  0
 33 15  1  0
 41 36  1  0
 30 21  1  0
  1 45  1  0
  1 46  1  0
  1 47  1  0
  2 48  1  0
  2 49  1  0
  3 50  1  0
  4 51  1  0
  4 52  1  0
  5 53  1  0
  5 54  1  0
  5 55  1  0
  6 56  1  0
  6 57  1  0
  7 58  1  0
  7 59  1  0
  8 60  1  0
 10 61  1  0
 14 62  1  0
 16 63  1  0
 18 64  1  0
 22 65  1  0
 23 66  1  0
 24 67  1  0
 30 68  1  0
 31 69  1  0
 32 70  1  0
 34 71  1  0
 34 72  1  0
 34 73  1  0
 37 74  1  0
 38 75  1  0
 39 76  1  0
 40 77  1  0
 43 78  1  0
M  CHG  1   3   1
M  END
>  <meeko>  (5) 
{"is_sidechain": [false], "free_energy": -8.715, "intermolecular_energy": -14.415, "internal_energy": -2.484}

$$$$
LIB_REDBMKRPRFVCHI__M_PUB_ALL__e8__s20260927
     RDKit          3D

 78 82  0  0  0  0  0  0  0  0999 V2000
   14.5780  -12.9050  -11.0550 C   0  0  0  0  0  0  0  0  0  0  0  0
   14.2360  -13.6640   -9.7880 C   0  0  0  0  0  0  0  0  0  0  0  0
   15.3900  -14.5130   -9.3180 N   0  0  0  0  0  0  0  0  0  0  0  0
   15.9360  -15.4260  -10.3960 C   0  0  0  0  0  0  0  0  0  0  0  0
   17.2260  -16.1060   -9.9710 C   0  0  0  0  0  0  0  0  0  0  0  0
   15.1890  -15.2230   -7.9780 C   0  0  0  0  0  0  0  0  0  0  0  0
   13.7250  -15.0630   -7.5070 C   0  0  0  0  0  0  0  0  0  0  0  0
   13.6080  -14.1470   -6.3600 N   0  0  0  0  0  0  0  0  0  0  0  0
   13.3000  -14.6930   -5.1110 C   0  0  0  0  0  0  0  0  0  0  0  0
   12.5490  -13.9460   -4.2190 C   0  0  0  0  0  0  0  0  0  0  0  0
   12.3340  -14.4830   -2.9630 C   0  0  0  0  0  0  0  0  0  0  0  0
   11.5990  -13.7480   -1.9720 N   0  0  0  0  0  0  0  0  0  0  0  0
   10.3090  -14.0670   -1.5200 C   0  0  0  0  0  0  0  0  0  0  0  0
    9.5760  -15.0370   -2.1280 N   0  0  0  0  0  0  0  0  0  0  0  0
    8.3860  -14.9330   -2.8830 C   0  0  0  0  0  0  0  0  0  0  0  0
    8.3790  -14.5360   -4.2320 C   0  0  0  0  0  0  0  0  0  0  0  0
    7.1940  -14.4230   -4.9760 C   0  0  0  0  0  0  0  0  0  0  0  0
    7.3170  -14.0200   -6.3240 N   0  0  0  0  0  0  0  0  0  0  0  0
    7.3180  -14.8310   -7.4430 C   0  0  0  0  0  0  0  0  0  0  0  0
    7.1080  -16.0380   -7.4780 O   0  0  0  0  0  0  0  0  0  0  0  0
    7.5540  -14.1210   -8.7320 C   0  0  0  0  0  0  0  0  0  0  0  0
    6.4970  -13.6370   -9.5120 C   0  0  0  0  0  0  0  0  0  0  0  0
    6.7610  -12.9770  -10.7120 C   0  0  0  0  0  0  0  0  0  0  0  0
    8.0790  -12.7890  -11.1330 C   0  0  0  0  0  0  0  0  0  0  0  0
    9.1530  -13.2450  -10.3520 C   0  0  0  0  0  0  0  0  0  0  0  0
   10.5790  -13.0550  -10.8090 C   0  0  0  0  0  0  0  0  0  0  0  0
   11.3060  -14.2010  -10.7060 F   0  0  0  0  0  0  0  0  0  0  0  0
   11.2500  -12.1180  -10.0870 F   0  0  0  0  0  0  0  0  0  0  0  0
   10.6770  -12.6660  -12.1110 F   0  0  0  0  0  0  0  0  0  0  0  0
    8.8770  -13.9140   -9.1480 C   0  0  0  0  0  0  0  0  0  0  0  0
    5.9840  -14.7210   -4.3620 C   0  0  0  0  0  0  0  0  0  0  0  0
    5.9590  -15.1270   -3.0280 C   0  0  0  0  0  0  0  0  0  0  0  0
    7.1430  -15.2430   -2.2810 C   0  0  0  0  0  0  0  0  0  0  0  0
    7.0370  -15.7000   -0.8510 C   0  0  0  0  0  0  0  0  0  0  0  0
   10.0010  -13.3500   -0.4610 N   0  0  0  0  0  0  0  0  0  0  0  0
   11.0150  -12.4580   -0.2900 C   0  0  0  0  0  0  0  0  0  0  0  0
   11.1240  -11.4340    0.6650 C   0  0  0  0  0  0  0  0  0  0  0  0
   12.2240  -10.5740    0.6160 C   0  0  0  0  0  0  0  0  0  0  0  0
   13.1880  -10.7190   -0.3780 C   0  0  0  0  0  0  0  0  0  0  0  0
   13.0990  -11.7400   -1.3310 C   0  0  0  0  0  0  0  0  0  0  0  0
   12.0140  -12.6330   -1.2440 C   0  0  0  0  0  0  0  0  0  0  0  0
   12.8720  -15.6720   -2.6030 N   0  0  0  0  0  0  0  0  0  0  0  0
   13.5730  -16.3210   -3.5370 C   0  0  0  0  0  0  0  0  0  0  0  0
   13.8380  -15.8700   -4.7710 N   0  0  0  0  0  0  0  0  0  0  0  0
   15.0168  -11.9312  -10.7919 H   0  0  0  0  0  0  0  0  0  0  0  0
   15.3015  -13.4855  -11.6462 H   0  0  0  0  0  0  0  0  0  0  0  0
   13.6638  -12.7476  -11.6462 H   0  0  0  0  0  0  0  0  0  0  0  0
   13.9795  -12.9424   -8.9984 H   0  0  0  0  0  0  0  0  0  0  0  0
   13.3871  -14.3290  -10.0051 H   0  0  0  0  0  0  0  0  0  0  0  0
   16.1780  -13.8750   -9.1080 H   0  0  0  0  0  0  0  0  0  0  0  0
   15.1854  -16.1982  -10.6202 H   0  0  0  0  0  0  0  0  0  0  0  0
   16.1537  -14.8111  -11.2817 H   0  0  0  0  0  0  0  0  0  0  0  0
   17.2807  -16.1348   -8.8727 H   0  0  0  0  0  0  0  0  0  0  0  0
   17.2469  -17.1323  -10.3662 H   0  0  0  0  0  0  0  0  0  0  0  0
   18.0846  -15.5433  -10.3662 H   0  0  0  0  0  0  0  0  0  0  0  0
   15.4190  -16.2923   -8.0946 H   0  0  0  0  0  0  0  0  0  0  0  0
   15.8593  -14.7758   -7.2292 H   0  0  0  0  0  0  0  0  0  0  0  0
   13.1260  -14.6664   -8.3400 H   0  0  0  0  0  0  0  0  0  0  0  0
   13.3621  -16.0515   -7.1889 H   0  0  0  0  0  0  0  0  0  0  0  0
   13.0990  -13.2860   -6.5610 H   0  0  0  0  0  0  0  0  0  0  0  0
   12.1396  -12.9641   -4.4986 H   0  0  0  0  0  0  0  0  0  0  0  0
    9.9310  -15.9880   -2.0470 H   0  0  0  0  0  0  0  0  0  0  0  0
    9.3366  -14.3057   -4.7219 H   0  0  0  0  0  0  0  0  0  0  0  0
    7.3690  -13.0210   -6.4740 H   0  0  0  0  0  0  0  0  0  0  0  0
    5.4582  -13.7772   -9.1784 H   0  0  0  0  0  0  0  0  0  0  0  0
    5.9294  -12.6039  -11.3279 H   0  0  0  0  0  0  0  0  0  0  0  0
    8.2780  -12.2782  -12.0867 H   0  0  0  0  0  0  0  0  0  0  0  0
    9.7070  -14.2791   -8.5253 H   0  0  0  0  0  0  0  0  0  0  0  0
    5.0448  -14.6367   -4.9285 H   0  0  0  0  0  0  0  0  0  0  0  0
    4.9950  -15.3605   -2.5523 H   0  0  0  0  0  0  0  0  0  0  0  0
    7.2338  -14.8514   -0.1793 H   0  0  0  0  0  0  0  0  0  0  0  0
    6.0249  -16.0884   -0.6642 H   0  0  0  0  0  0  0  0  0  0  0  0
    7.7748  -16.4942   -0.6642 H   0  0  0  0  0  0  0  0  0  0  0  0
   10.3540  -11.3108    1.4408 H   0  0  0  0  0  0  0  0  0  0  0  0
   12.3291   -9.7775    1.3674 H   0  0  0  0  0  0  0  0  0  0  0  0
   14.0351  -10.0182   -0.4150 H   0  0  0  0  0  0  0  0  0  0  0  0
   13.8542  -11.8418   -2.1243 H   0  0  0  0  0  0  0  0  0  0  0  0
   13.9673  -17.3125   -3.2698 H   0  0  0  0  0  0  0  0  0  0  0  0
  1  2  1  0
  2  3  1  0
  3  4  1  0
  4  5  1  0
  3  6  1  0
  6  7  1  0
  7  8  1  0
  8  9  1  0
  9 10  2  0
 10 11  1  0
 11 12  1  0
 12 13  1  0
 13 14  1  0
 14 15  1  0
 15 16  2  0
 16 17  1  0
 17 18  1  0
 18 19  1  0
 19 20  2  0
 19 21  1  0
 21 22  2  0
 22 23  1  0
 23 24  2  0
 24 25  1  0
 25 26  1  0
 26 27  1  0
 26 28  1  0
 26 29  1  0
 25 30  2  0
 17 31  2  0
 31 32  1  0
 32 33  2  0
 33 34  1  0
 13 35  2  0
 35 36  1  0
 36 37  2  0
 37 38  1  0
 38 39  2  0
 39 40  1  0
 40 41  2  0
 11 42  2  0
 42 43  1  0
 43 44  2  0
 44  9  1  0
 41 12  1  0
 33 15  1  0
 41 36  1  0
 30 21  1  0
  1 45  1  0
  1 46  1  0
  1 47  1  0
  2 48  1  0
  2 49  1  0
  3 50  1  0
  4 51  1  0
  4 52  1  0
  5 53  1  0
  5 54  1  0
  5 55  1  0
  6 56  1  0
  6 57  1  0
  7 58  1  0
  7 59  1  0
  8 60  1  0
 10 61  1  0
 14 62  1  0
 16 63  1  0
 18 64  1  0
 22 65  1  0
 23 66  1  0
 24 67  1  0
 30 68  1  0
 31 69  1  0
 32 70  1  0
 34 71  1  0
 34 72  1  0
 34 73  1  0
 37 74  1  0
 38 75  1  0
 39 76  1  0
 40 77  1  0
 43 78  1  0
M  CHG  1   3   1
M  END
>  <meeko>  (6) 
{"is_sidechain": [false], "free_energy": -8.683, "intermolecular_energy": -14.158, "internal_energy": -2.686}

$$$$
LIB_REDBMKRPRFVCHI__M_PUB_ALL__e8__s20260927
     RDKit          3D

 78 82  0  0  0  0  0  0  0  0999 V2000
    5.1020  -12.3800   -7.1290 C   0  0  0  0  0  0  0  0  0  0  0  0
    5.6290  -12.6070   -5.7260 C   0  0  0  0  0  0  0  0  0  0  0  0
    5.0100  -13.8250   -5.0880 N   0  0  0  0  0  0  0  0  0  0  0  0
    3.8800  -13.4900   -4.1380 C   0  0  0  0  0  0  0  0  0  0  0  0
    2.5190  -13.8060   -4.7330 C   0  0  0  0  0  0  0  0  0  0  0  0
    5.9940  -14.8450   -4.5120 C   0  0  0  0  0  0  0  0  0  0  0  0
    7.1010  -15.1570   -5.5450 C   0  0  0  0  0  0  0  0  0  0  0  0
    6.5820  -15.8970   -6.7080 N   0  0  0  0  0  0  0  0  0  0  0  0
    7.3660  -15.9380   -7.8640 C   0  0  0  0  0  0  0  0  0  0  0  0
    7.9310  -14.7650   -8.3340 C   0  0  0  0  0  0  0  0  0  0  0  0
    8.6310  -14.8280   -9.5250 C   0  0  0  0  0  0  0  0  0  0  0  0
    9.2100  -13.6440  -10.0950 N   0  0  0  0  0  0  0  0  0  0  0  0
   10.5630  -13.4870  -10.4340 C   0  0  0  0  0  0  0  0  0  0  0  0
   11.4830  -14.4260  -10.0850 N   0  0  0  0  0  0  0  0  0  0  0  0
   12.2150  -14.5730   -8.8850 C   0  0  0  0  0  0  0  0  0  0  0  0
   11.6870  -14.2200   -7.6300 C   0  0  0  0  0  0  0  0  0  0  0  0
   12.4210  -14.3570   -6.4420 C   0  0  0  0  0  0  0  0  0  0  0  0
   11.7810  -13.9730   -5.2420 N   0  0  0  0  0  0  0  0  0  0  0  0
   12.1990  -13.0120   -4.3410 C   0  0  0  0  0  0  0  0  0  0  0  0
   13.1450  -12.2430   -4.4710 O   0  0  0  0  0  0  0  0  0  0  0  0
   11.3580  -12.8910   -3.1170 C   0  0  0  0  0  0  0  0  0  0  0  0
    9.9890  -13.1870   -3.1310 C   0  0  0  0  0  0  0  0  0  0  0  0
    9.2380  -13.0620   -1.9620 C   0  0  0  0  0  0  0  0  0  0  0  0
    9.8500  -12.6520   -0.7750 C   0  0  0  0  0  0  0  0  0  0  0  0
   11.2260  -12.3760   -0.7370 C   0  0  0  0  0  0  0  0  0  0  0  0
   11.8890  -11.9200    0.5400 C   0  0  0  0  0  0  0  0  0  0  0  0
   13.2470  -11.9780    0.4600 F   0  0  0  0  0  0  0  0  0  0  0  0
   11.5440  -12.6740    1.6180 F   0  0  0  0  0  0  0  0  0  0  0  0
   11.5880  -10.6330    0.8710 F   0  0  0  0  0  0  0  0  0  0  0  0
   11.9730  -12.4980   -1.9200 C   0  0  0  0  0  0  0  0  0  0  0  0
   13.7110  -14.8680   -6.5030 C   0  0  0  0  0  0  0  0  0  0  0  0
   14.2580  -15.2370   -7.7320 C   0  0  0  0  0  0  0  0  0  0  0  0
   13.5260  -15.1020   -8.9230 C   0  0  0  0  0  0  0  0  0  0  0  0
   14.1800  -15.5340  -10.2080 C   0  0  0  0  0  0  0  0  0  0  0  0
   10.7390  -12.3880  -11.1340 N   0  0  0  0  0  0  0  0  0  0  0  0
    9.5420  -11.7390  -11.1430 C   0  0  0  0  0  0  0  0  0  0  0  0
    9.2300  -10.4910  -11.7060 C   0  0  0  0  0  0  0  0  0  0  0  0
    7.9450   -9.9700  -11.5330 C   0  0  0  0  0  0  0  0  0  0  0  0
    6.9940  -10.6700  -10.7970 C   0  0  0  0  0  0  0  0  0  0  0  0
    7.2850  -11.9200  -10.2380 C   0  0  0  0  0  0  0  0  0  0  0  0
    8.5660  -12.4610  -10.4590 C   0  0  0  0  0  0  0  0  0  0  0  0
    8.7240  -15.9820  -10.2280 N   0  0  0  0  0  0  0  0  0  0  0  0
    8.1530  -17.0610   -9.6860 C   0  0  0  0  0  0  0  0  0  0  0  0
    7.4490  -17.0860   -8.5460 N   0  0  0  0  0  0  0  0  0  0  0  0
    4.0929  -11.9453   -7.0758 H   0  0  0  0  0  0  0  0  0  0  0  0
    5.7706  -11.6901   -7.6647 H   0  0  0  0  0  0  0  0  0  0  0  0
    5.0600  -13.3398   -7.6647 H   0  0  0  0  0  0  0  0  0  0  0  0
    6.7194  -12.7443   -5.7726 H   0  0  0  0  0  0  0  0  0  0  0  0
    5.3678  -11.7300   -5.1155 H   0  0  0  0  0  0  0  0  0  0  0  0
    4.5520  -14.3700   -5.8410 H   0  0  0  0  0  0  0  0  0  0  0  0
    4.0078  -14.0747   -3.2151 H   0  0  0  0  0  0  0  0  0  0  0  0
    3.9178  -12.4095   -3.9352 H   0  0  0  0  0  0  0  0  0  0  0  0
    1.7946  -13.9742   -3.9225 H   0  0  0  0  0  0  0  0  0  0  0  0
    2.1852  -12.9615   -5.3537 H   0  0  0  0  0  0  0  0  0  0  0  0
    2.5914  -14.7112   -5.3537 H   0  0  0  0  0  0  0  0  0  0  0  0
    6.4524  -14.4338   -3.6005 H   0  0  0  0  0  0  0  0  0  0  0  0
    5.4527  -15.7723   -4.2731 H   0  0  0  0  0  0  0  0  0  0  0  0
    7.5377  -14.2096   -5.8937 H   0  0  0  0  0  0  0  0  0  0  0  0
    7.8558  -15.7874   -5.0522 H   0  0  0  0  0  0  0  0  0  0  0  0
    5.5920  -15.7410   -6.8970 H   0  0  0  0  0  0  0  0  0  0  0  0
    7.8272  -13.8194   -7.7816 H   0  0  0  0  0  0  0  0  0  0  0  0
   11.6770  -15.1450  -10.7770 H   0  0  0  0  0  0  0  0  0  0  0  0
   10.6626  -13.8226   -7.5780 H   0  0  0  0  0  0  0  0  0  0  0  0
   10.9000  -14.4340   -5.0550 H   0  0  0  0  0  0  0  0  0  0  0  0
    9.5066  -13.5176   -4.0627 H   0  0  0  0  0  0  0  0  0  0  0  0
    8.1613  -13.2868   -1.9749 H   0  0  0  0  0  0  0  0  0  0  0  0
    9.2477  -12.5443    0.1391 H   0  0  0  0  0  0  0  0  0  0  0  0
   13.0517  -12.2830   -1.9073 H   0  0  0  0  0  0  0  0  0  0  0  0
   14.3015  -14.9818   -5.5819 H   0  0  0  0  0  0  0  0  0  0  0  0
   15.2805  -15.6408   -7.7690 H   0  0  0  0  0  0  0  0  0  0  0  0
   15.0781  -16.1272   -9.9810 H   0  0  0  0  0  0  0  0  0  0  0  0
   13.4749  -16.1447  -10.7911 H   0  0  0  0  0  0  0  0  0  0  0  0
   14.4650  -14.6458  -10.7911 H   0  0  0  0  0  0  0  0  0  0  0  0
    9.9867   -9.9313  -12.2753 H   0  0  0  0  0  0  0  0  0  0  0  0
    7.6836   -9.0002  -11.9816 H   0  0  0  0  0  0  0  0  0  0  0  0
    5.9950  -10.2331  -10.6517 H   0  0  0  0  0  0  0  0  0  0  0  0
    6.5354  -12.4633   -9.6439 H   0  0  0  0  0  0  0  0  0  0  0  0
    8.2711  -18.0137  -10.2231 H   0  0  0  0  0  0  0  0  0  0  0  0
  1  2  1  0
  2  3  1  0
  3  4  1  0
  4  5  1  0
  3  6  1  0
  6  7  1  0
  7  8  1  0
  8  9  1  0
  9 10  2  0
 10 11  1  0
 11 12  1  0
 12 13  1  0
 13 14  1  0
 14 15  1  0
 15 16  2  0
 16 17  1  0
 17 18  1  0
 18 19  1  0
 19 20  2  0
 19 21  1  0
 21 22  2  0
 22 23  1  0
 23 24  2  0
 24 25  1  0
 25 26  1  0
 26 27  1  0
 26 28  1  0
 26 29  1  0
 25 30  2  0
 17 31  2  0
 31 32  1  0
 32 33  2  0
 33 34  1  0
 13 35  2  0
 35 36  1  0
 36 37  2  0
 37 38  1  0
 38 39  2  0
 39 40  1  0
 40 41  2  0
 11 42  2  0
 42 43  1  0
 43 44  2  0
 44  9  1  0
 41 12  1  0
 33 15  1  0
 41 36  1  0
 30 21  1  0
  1 45  1  0
  1 46  1  0
  1 47  1  0
  2 48  1  0
  2 49  1  0
  3 50  1  0
  4 51  1  0
  4 52  1  0
  5 53  1  0
  5 54  1  0
  5 55  1  0
  6 56  1  0
  6 57  1  0
  7 58  1  0
  7 59  1  0
  8 60  1  0
 10 61  1  0
 14 62  1  0
 16 63  1  0
 18 64  1  0
 22 65  1  0
 23 66  1  0
 24 67  1  0
 30 68  1  0
 31 69  1  0
 32 70  1  0
 34 71  1  0
 34 72  1  0
 34 73  1  0
 37 74  1  0
 38 75  1  0
 39 76  1  0
 40 77  1  0
 43 78  1  0
M  CHG  1   3   1
M  END
>  <meeko>  (7) 
{"is_sidechain": [false], "free_energy": -8.665, "intermolecular_energy": -13.994, "internal_energy": -2.82}

$$$$
LIB_REDBMKRPRFVCHI__M_PUB_ALL__e8__s20260927
     RDKit          3D

 78 82  0  0  0  0  0  0  0  0999 V2000
   10.3340  -17.0350   -9.6600 C   0  0  0  0  0  0  0  0  0  0  0  0
   11.7590  -17.3410   -9.2430 C   0  0  0  0  0  0  0  0  0  0  0  0
   12.1460  -16.5960   -7.9910 N   0  0  0  0  0  0  0  0  0  0  0  0
   10.9540  -16.1030   -7.1980 C   0  0  0  0  0  0  0  0  0  0  0  0
   10.7060  -16.9410   -5.9570 C   0  0  0  0  0  0  0  0  0  0  0  0
   13.2330  -15.5320   -8.1610 C   0  0  0  0  0  0  0  0  0  0  0  0
   12.8740  -14.2710   -7.3410 C   0  0  0  0  0  0  0  0  0  0  0  0
   13.7810  -14.0750   -6.1980 N   0  0  0  0  0  0  0  0  0  0  0  0
   13.4270  -14.6450   -4.9730 C   0  0  0  0  0  0  0  0  0  0  0  0
   12.6350  -13.9190   -4.0990 C   0  0  0  0  0  0  0  0  0  0  0  0
   12.3730  -14.4780   -2.8620 C   0  0  0  0  0  0  0  0  0  0  0  0
   11.5940  -13.7660   -1.8890 N   0  0  0  0  0  0  0  0  0  0  0  0
   10.2950  -14.1100   -1.4830 C   0  0  0  0  0  0  0  0  0  0  0  0
    9.5990  -15.0860   -2.1240 N   0  0  0  0  0  0  0  0  0  0  0  0
    8.4340  -14.9940   -2.9190 C   0  0  0  0  0  0  0  0  0  0  0  0
    8.4590  -14.5270   -4.2450 C   0  0  0  0  0  0  0  0  0  0  0  0
    7.2980  -14.4260   -5.0270 C   0  0  0  0  0  0  0  0  0  0  0  0
    7.4510  -13.9470   -6.3470 N   0  0  0  0  0  0  0  0  0  0  0  0
    7.5210  -14.6960   -7.5070 C   0  0  0  0  0  0  0  0  0  0  0  0
    7.3570  -15.9060   -7.6130 O   0  0  0  0  0  0  0  0  0  0  0  0
    7.7740  -13.9100   -8.7470 C   0  0  0  0  0  0  0  0  0  0  0  0
    6.7270  -13.3760   -9.5080 C   0  0  0  0  0  0  0  0  0  0  0  0
    7.0080  -12.6440  -10.6630 C   0  0  0  0  0  0  0  0  0  0  0  0
    8.3310  -12.4360  -11.0570 C   0  0  0  0  0  0  0  0  0  0  0  0
    9.3940  -12.9420  -10.2920 C   0  0  0  0  0  0  0  0  0  0  0  0
   10.8260  -12.7300  -10.7200 C   0  0  0  0  0  0  0  0  0  0  0  0
   11.5980  -13.8270  -10.4860 F   0  0  0  0  0  0  0  0  0  0  0  0
   11.4310  -11.7000  -10.0680 F   0  0  0  0  0  0  0  0  0  0  0  0
   10.9540  -12.4590  -12.0490 F   0  0  0  0  0  0  0  0  0  0  0  0
    9.1030  -13.6820   -9.1340 C   0  0  0  0  0  0  0  0  0  0  0  0
    6.0810  -14.8090   -4.4780 C   0  0  0  0  0  0  0  0  0  0  0  0
    6.0250  -15.2860   -3.1680 C   0  0  0  0  0  0  0  0  0  0  0  0
    7.1850  -15.3890   -2.3830 C   0  0  0  0  0  0  0  0  0  0  0  0
    7.0470  -15.9260   -0.9830 C   0  0  0  0  0  0  0  0  0  0  0  0
    9.9400  -13.4090   -0.4290 N   0  0  0  0  0  0  0  0  0  0  0  0
   10.9320  -12.5010   -0.2160 C   0  0  0  0  0  0  0  0  0  0  0  0
   10.9930  -11.4860    0.7520 C   0  0  0  0  0  0  0  0  0  0  0  0
   12.0790  -10.6070    0.7470 C   0  0  0  0  0  0  0  0  0  0  0  0
   13.0770  -10.7260   -0.2150 C   0  0  0  0  0  0  0  0  0  0  0  0
   13.0370  -11.7390   -1.1810 C   0  0  0  0  0  0  0  0  0  0  0  0
   11.9650  -12.6500   -1.1380 C   0  0  0  0  0  0  0  0  0  0  0  0
   12.9040  -15.6710   -2.5010 N   0  0  0  0  0  0  0  0  0  0  0  0
   13.6460  -16.2980   -3.4170 C   0  0  0  0  0  0  0  0  0  0  0  0
   13.9580  -15.8240   -4.6310 N   0  0  0  0  0  0  0  0  0  0  0  0
    9.7104  -16.9011   -8.7638 H   0  0  0  0  0  0  0  0  0  0  0  0
   10.3174  -16.1128  -10.2594 H   0  0  0  0  0  0  0  0  0  0  0  0
    9.9402  -17.8691  -10.2594 H   0  0  0  0  0  0  0  0  0  0  0  0
   11.8521  -18.4213   -9.0581 H   0  0  0  0  0  0  0  0  0  0  0  0
   12.4298  -17.0205  -10.0538 H   0  0  0  0  0  0  0  0  0  0  0  0
   12.6060  -17.2730   -7.3570 H   0  0  0  0  0  0  0  0  0  0  0  0
   11.1376  -15.0624   -6.8922 H   0  0  0  0  0  0  0  0  0  0  0  0
   10.0649  -16.1798   -7.8411 H   0  0  0  0  0  0  0  0  0  0  0  0
   10.8867  -16.3304   -5.0601 H   0  0  0  0  0  0  0  0  0  0  0  0
    9.6646  -17.2951   -5.9558 H   0  0  0  0  0  0  0  0  0  0  0  0
   11.3870  -17.8049   -5.9558 H   0  0  0  0  0  0  0  0  0  0  0  0
   14.1942  -15.9341   -7.8083 H   0  0  0  0  0  0  0  0  0  0  0  0
   13.3087  -15.2609   -9.2244 H   0  0  0  0  0  0  0  0  0  0  0  0
   12.9368  -13.3911   -7.9982 H   0  0  0  0  0  0  0  0  0  0  0  0
   11.8560  -14.4032   -6.9459 H   0  0  0  0  0  0  0  0  0  0  0  0
   14.1500  -13.1280   -6.1120 H   0  0  0  0  0  0  0  0  0  0  0  0
   12.2299  -12.9352   -4.3784 H   0  0  0  0  0  0  0  0  0  0  0  0
    9.9650  -16.0310   -2.0390 H   0  0  0  0  0  0  0  0  0  0  0  0
    9.4225  -14.2303   -4.6850 H   0  0  0  0  0  0  0  0  0  0  0  0
    7.4710  -12.9400   -6.4430 H   0  0  0  0  0  0  0  0  0  0  0  0
    5.6839  -13.5331   -9.1960 H   0  0  0  0  0  0  0  0  0  0  0  0
    6.1850  -12.2301  -11.2641 H   0  0  0  0  0  0  0  0  0  0  0  0
    8.5428  -11.8699  -11.9761 H   0  0  0  0  0  0  0  0  0  0  0  0
    9.9249  -14.0865   -8.5250 H   0  0  0  0  0  0  0  0  0  0  0  0
    5.1608  -14.7362   -5.0763 H   0  0  0  0  0  0  0  0  0  0  0  0
    5.0560  -15.5864   -2.7429 H   0  0  0  0  0  0  0  0  0  0  0  0
    7.2534  -15.1229   -0.2602 H   0  0  0  0  0  0  0  0  0  0  0  0
    6.0235  -16.3002   -0.8330 H   0  0  0  0  0  0  0  0  0  0  0  0
    7.7633  -16.7472   -0.8330 H   0  0  0  0  0  0  0  0  0  0  0  0
   10.1967  -11.3842    1.5040 H   0  0  0  0  0  0  0  0  0  0  0  0
   12.1454   -9.8159    1.5084 H   0  0  0  0  0  0  0  0  0  0  0  0
   13.9130  -10.0111   -0.2168 H   0  0  0  0  0  0  0  0  0  0  0  0
   13.8194  -11.8203   -1.9499 H   0  0  0  0  0  0  0  0  0  0  0  0
   14.0358  -17.2918   -3.1516 H   0  0  0  0  0  0  0  0  0  0  0  0
  1  2  1  0
  2  3  1  0
  3  4  1  0
  4  5  1  0
  3  6  1  0
  6  7  1  0
  7  8  1  0
  8  9  1  0
  9 10  2  0
 10 11  1  0
 11 12  1  0
 12 13  1  0
 13 14  1  0
 14 15  1  0
 15 16  2  0
 16 17  1  0
 17 18  1  0
 18 19  1  0
 19 20  2  0
 19 21  1  0
 21 22  2  0
 22 23  1  0
 23 24  2  0
 24 25  1  0
 25 26  1  0
 26 27  1  0
 26 28  1  0
 26 29  1  0
 25 30  2  0
 17 31  2  0
 31 32  1  0
 32 33  2  0
 33 34  1  0
 13 35  2  0
 35 36  1  0
 36 37  2  0
 37 38  1  0
 38 39  2  0
 39 40  1  0
 40 41  2  0
 11 42  2  0
 42 43  1  0
 43 44  2  0
 44  9  1  0
 41 12  1  0
 33 15  1  0
 41 36  1  0
 30 21  1  0
  1 45  1  0
  1 46  1  0
  1 47  1  0
  2 48  1  0
  2 49  1  0
  3 50  1  0
  4 51  1  0
  4 52  1  0
  5 53  1  0
  5 54  1  0
  5 55  1  0
  6 56  1  0
  6 57  1  0
  7 58  1  0
  7 59  1  0
  8 60  1  0
 10 61  1  0
 14 62  1  0
 16 63  1  0
 18 64  1  0
 22 65  1  0
 23 66  1  0
 24 67  1  0
 30 68  1  0
 31 69  1  0
 32 70  1  0
 34 71  1  0
 34 72  1  0
 34 73  1  0
 37 74  1  0
 38 75  1  0
 39 76  1  0
 40 77  1  0
 43 78  1  0
M  CHG  1   3   1
M  END
>  <meeko>  (8) 
{"is_sidechain": [false], "free_energy": -8.625, "intermolecular_energy": -12.921, "internal_energy": -3.826}

$$$$
LIB_REDBMKRPRFVCHI__M_PUB_ALL__e8__s20260927
     RDKit          3D

 78 82  0  0  0  0  0  0  0  0999 V2000
    5.9950  -11.8450   -2.3180 C   0  0  0  0  0  0  0  0  0  0  0  0
    7.0070  -11.8700   -1.1890 C   0  0  0  0  0  0  0  0  0  0  0  0
    6.4020  -12.3900    0.0900 N   0  0  0  0  0  0  0  0  0  0  0  0
    7.3480  -12.3180    1.2690 C   0  0  0  0  0  0  0  0  0  0  0  0
    8.7200  -11.8030    0.8720 C   0  0  0  0  0  0  0  0  0  0  0  0
    5.6780  -13.7340   -0.0160 C   0  0  0  0  0  0  0  0  0  0  0  0
    6.6540  -14.8890    0.3090 C   0  0  0  0  0  0  0  0  0  0  0  0
    6.9480  -15.7150   -0.8730 N   0  0  0  0  0  0  0  0  0  0  0  0
    8.2860  -16.0090   -1.1540 C   0  0  0  0  0  0  0  0  0  0  0  0
    9.1550  -14.9700   -1.4370 C   0  0  0  0  0  0  0  0  0  0  0  0
   10.4500  -15.3010   -1.7910 C   0  0  0  0  0  0  0  0  0  0  0  0
   11.3970  -14.2790   -2.1370 N   0  0  0  0  0  0  0  0  0  0  0  0
   11.8950  -14.0410   -3.4280 C   0  0  0  0  0  0  0  0  0  0  0  0
   11.6250  -14.8970   -4.4490 N   0  0  0  0  0  0  0  0  0  0  0  0
   10.5960  -14.8560   -5.4160 C   0  0  0  0  0  0  0  0  0  0  0  0
    9.3000  -14.3980   -5.1210 C   0  0  0  0  0  0  0  0  0  0  0  0
    8.2760  -14.3680   -6.0810 C   0  0  0  0  0  0  0  0  0  0  0  0
    7.0170  -13.8830   -5.6650 N   0  0  0  0  0  0  0  0  0  0  0  0
    5.8350  -14.5940   -5.5720 C   0  0  0  0  0  0  0  0  0  0  0  0
    5.6860  -15.8000   -5.7330 O   0  0  0  0  0  0  0  0  0  0  0  0
    4.6450  -13.7850   -5.1850 C   0  0  0  0  0  0  0  0  0  0  0  0
    4.4750  -12.4660   -5.6250 C   0  0  0  0  0  0  0  0  0  0  0  0
    3.3450  -11.7440   -5.2410 C   0  0  0  0  0  0  0  0  0  0  0  0
    2.3780  -12.3350   -4.4260 C   0  0  0  0  0  0  0  0  0  0  0  0
    2.5180  -13.6650   -3.9980 C   0  0  0  0  0  0  0  0  0  0  0  0
    1.4810  -14.3050   -3.1070 C   0  0  0  0  0  0  0  0  0  0  0  0
    0.3400  -14.6060   -3.7850 F   0  0  0  0  0  0  0  0  0  0  0  0
    1.1040  -13.5090   -2.0700 F   0  0  0  0  0  0  0  0  0  0  0  0
    1.9030  -15.4740   -2.5470 F   0  0  0  0  0  0  0  0  0  0  0  0
    3.6620  -14.3830   -4.3840 C   0  0  0  0  0  0  0  0  0  0  0  0
    8.5530  -14.7970   -7.3730 C   0  0  0  0  0  0  0  0  0  0  0  0
    9.8330  -15.2470   -7.7000 C   0  0  0  0  0  0  0  0  0  0  0  0
   10.8590  -15.2770   -6.7410 C   0  0  0  0  0  0  0  0  0  0  0  0
   12.2170  -15.7630   -7.1730 C   0  0  0  0  0  0  0  0  0  0  0  0
   12.5630  -12.9090   -3.4630 N   0  0  0  0  0  0  0  0  0  0  0  0
   12.6360  -12.4630   -2.1790 C   0  0  0  0  0  0  0  0  0  0  0  0
   13.2990  -11.3270   -1.6860 C   0  0  0  0  0  0  0  0  0  0  0  0
   13.3110  -11.0930   -0.3090 C   0  0  0  0  0  0  0  0  0  0  0  0
   12.6900  -11.9820    0.5630 C   0  0  0  0  0  0  0  0  0  0  0  0
   12.0160  -13.1130    0.0870 C   0  0  0  0  0  0  0  0  0  0  0  0
   11.9660  -13.3150   -1.3050 C   0  0  0  0  0  0  0  0  0  0  0  0
   10.8420  -16.5930   -1.9000 N   0  0  0  0  0  0  0  0  0  0  0  0
    9.9320  -17.5240   -1.5970 C   0  0  0  0  0  0  0  0  0  0  0  0
    8.6570  -17.2900   -1.2560 N   0  0  0  0  0  0  0  0  0  0  0  0
    4.9784  -11.8199   -1.8986 H   0  0  0  0  0  0  0  0  0  0  0  0
    6.1584  -10.9506   -2.9372 H   0  0  0  0  0  0  0  0  0  0  0  0
    6.1141  -12.7464   -2.9372 H   0  0  0  0  0  0  0  0  0  0  0  0
    7.8462  -12.5204   -1.4767 H   0  0  0  0  0  0  0  0  0  0  0  0
    7.3496  -10.8397   -1.0124 H   0  0  0  0  0  0  0  0  0  0  0  0
    5.6290  -11.7500    0.3490 H   0  0  0  0  0  0  0  0  0  0  0  0
    6.9211  -11.6427    2.0251 H   0  0  0  0  0  0  0  0  0  0  0  0
    7.4712  -13.3364    1.6662 H   0  0  0  0  0  0  0  0  0  0  0  0
    9.3052  -11.5833    1.7771 H   0  0  0  0  0  0  0  0  0  0  0  0
    9.2400  -12.5671    0.2756 H   0  0  0  0  0  0  0  0  0  0  0  0
    8.6088  -10.8854    0.2756 H   0  0  0  0  0  0  0  0  0  0  0  0
    4.8405  -13.7536    0.6969 H   0  0  0  0  0  0  0  0  0  0  0  0
    5.2992  -13.8597   -1.0410 H   0  0  0  0  0  0  0  0  0  0  0  0
    7.5950  -14.4625    0.6865 H   0  0  0  0  0  0  0  0  0  0  0  0
    6.1771  -15.5334    1.0622 H   0  0  0  0  0  0  0  0  0  0  0  0
    6.4060  -15.4710   -1.7020 H   0  0  0  0  0  0  0  0  0  0  0  0
    8.8282  -13.9211   -1.3824 H   0  0  0  0  0  0  0  0  0  0  0  0
   12.2570  -15.6880   -4.5540 H   0  0  0  0  0  0  0  0  0  0  0  0
    9.0802  -14.0504   -4.1007 H   0  0  0  0  0  0  0  0  0  0  0  0
    7.0020  -12.9160   -5.3680 H   0  0  0  0  0  0  0  0  0  0  0  0
    5.2320  -12.0000   -6.2728 H   0  0  0  0  0  0  0  0  0  0  0  0
    3.2155  -10.7060   -5.5814 H   0  0  0  0  0  0  0  0  0  0  0  0
    1.4976  -11.7530   -4.1160 H   0  0  0  0  0  0  0  0  0  0  0  0
    3.7878  -15.4249   -4.0545 H   0  0  0  0  0  0  0  0  0  0  0  0
    7.7632  -14.7820   -8.1385 H   0  0  0  0  0  0  0  0  0  0  0  0
   10.0420  -15.5839   -8.7261 H   0  0  0  0  0  0  0  0  0  0  0  0
   12.8279  -15.9816   -6.2847 H   0  0  0  0  0  0  0  0  0  0  0  0
   12.1050  -16.6768   -7.7749 H   0  0  0  0  0  0  0  0  0  0  0  0
   12.7103  -14.9856   -7.7749 H   0  0  0  0  0  0  0  0  0  0  0  0
   13.8015  -10.6317   -2.3745 H   0  0  0  0  0  0  0  0  0  0  0  0
   13.8148  -10.1998    0.0889 H   0  0  0  0  0  0  0  0  0  0  0  0
   12.7294  -11.7927    1.6459 H   0  0  0  0  0  0  0  0  0  0  0  0
   11.5399  -13.8223    0.7800 H   0  0  0  0  0  0  0  0  0  0  0  0
   10.2580  -18.5741   -1.6304 H   0  0  0  0  0  0  0  0  0  0  0  0
  1  2  1  0
  2  3  1  0
  3  4  1  0
  4  5  1  0
  3  6  1  0
  6  7  1  0
  7  8  1  0
  8  9  1  0
  9 10  2  0
 10 11  1  0
 11 12  1  0
 12 13  1  0
 13 14  1  0
 14 15  1  0
 15 16  2  0
 16 17  1  0
 17 18  1  0
 18 19  1  0
 19 20  2  0
 19 21  1  0
 21 22  2  0
 22 23  1  0
 23 24  2  0
 24 25  1  0
 25 26  1  0
 26 27  1  0
 26 28  1  0
 26 29  1  0
 25 30  2  0
 17 31  2  0
 31 32  1  0
 32 33  2  0
 33 34  1  0
 13 35  2  0
 35 36  1  0
 36 37  2  0
 37 38  1  0
 38 39  2  0
 39 40  1  0
 40 41  2  0
 11 42  2  0
 42 43  1  0
 43 44  2  0
 44  9  1  0
 41 12  1  0
 33 15  1  0
 41 36  1  0
 30 21  1  0
  1 45  1  0
  1 46  1  0
  1 47  1  0
  2 48  1  0
  2 49  1  0
  3 50  1  0
  4 51  1  0
  4 52  1  0
  5 53  1  0
  5 54  1  0
  5 55  1  0
  6 56  1  0
  6 57  1  0
  7 58  1  0
  7 59  1  0
  8 60  1  0
 10 61  1  0
 14 62  1  0
 16 63  1  0
 18 64  1  0
 22 65  1  0
 23 66  1  0
 24 67  1  0
 30 68  1  0
 31 69  1  0
 32 70  1  0
 34 71  1  0
 34 72  1  0
 34 73  1  0
 37 74  1  0
 38 75  1  0
 39 76  1  0
 40 77  1  0
 43 78  1  0
M  CHG  1   3   1
M  END
>  <meeko>  (9) 
{"is_sidechain": [false], "free_energy": -8.604, "intermolecular_energy": -12.899, "internal_energy": -3.812}

$$$$
