LIB_RUTKUCAFHHXWCX__M_PUB_ALL__e8__s20260927
     RDKit          3D

 54 58  0  0  0  0  0  0  0  0999 V2000
    1.4200  -10.3870   -2.0690 C   0  0  0  0  0  0  0  0  0  0  0  0
    2.2650  -11.0950   -3.0880 C   0  0  0  0  0  0  0  0  0  0  0  0
    2.9590  -10.3280   -4.0420 C   0  0  0  0  0  0  0  0  0  0  0  0
    3.7630  -10.9290   -5.0190 C   0  0  0  0  0  0  0  0  0  0  0  0
    3.8910  -12.3130   -5.0640 C   0  0  0  0  0  0  0  0  0  0  0  0
    4.6680  -13.0120   -6.0110 N   0  0  0  0  0  0  0  0  0  0  0  0
    6.0110  -13.3130   -5.9430 C   0  0  0  0  0  0  0  0  0  0  0  0
    6.7800  -13.0960   -5.0140 O   0  0  0  0  0  0  0  0  0  0  0  0
    6.5580  -14.0140   -7.1390 C   0  0  0  0  0  0  0  0  0  0  0  0
    7.1580  -15.2740   -7.0450 C   0  0  0  0  0  0  0  0  0  0  0  0
    7.6320  -15.8940   -8.2000 C   0  0  0  0  0  0  0  0  0  0  0  0
    8.3640  -17.4480   -8.0950 Cl  0  0  0  0  0  0  0  0  0  0  0  0
    7.5130  -15.2750   -9.4440 C   0  0  0  0  0  0  0  0  0  0  0  0
    6.9070  -14.0140   -9.5550 C   0  0  0  0  0  0  0  0  0  0  0  0
    6.7410  -13.3590  -10.9020 C   0  0  0  0  0  0  0  0  0  0  0  0
    5.5730  -13.7000  -11.5160 F   0  0  0  0  0  0  0  0  0  0  0  0
    7.7280  -13.6790  -11.7830 F   0  0  0  0  0  0  0  0  0  0  0  0
    6.7330  -12.0010  -10.8200 F   0  0  0  0  0  0  0  0  0  0  0  0
    6.4200  -13.3960   -8.3930 C   0  0  0  0  0  0  0  0  0  0  0  0
    3.2040  -13.0840   -4.1210 C   0  0  0  0  0  0  0  0  0  0  0  0
    2.3950  -12.4920   -3.1370 C   0  0  0  0  0  0  0  0  0  0  0  0
    1.6630  -13.4970   -2.1260 C   0  0  0  0  0  0  0  0  0  0  0  0
    1.4340  -13.2470   -0.7720 N   0  0  0  0  0  0  0  0  0  0  0  0
    0.7450  -14.4420   -0.3380 C   0  0  0  0  0  0  0  0  0  0  0  0
    0.6040  -15.3030   -1.3470 C   0  0  0  0  0  0  0  0  0  0  0  0
   -0.0430  -16.4170   -0.8340 C   0  0  0  0  0  0  0  0  0  0  0  0
   -0.3030  -16.2730    0.4910 N   0  0  0  0  0  0  0  0  0  0  0  0
    0.1920  -15.0050    0.7540 N   0  0  0  0  0  0  0  0  0  0  0  0
    0.1760  -14.4470    2.0870 C   0  0  0  0  0  0  0  0  0  0  0  0
   -0.8100  -13.3110    2.2150 C   0  0  0  0  0  0  0  0  0  0  0  0
   -2.1810  -13.5790    2.3450 C   0  0  0  0  0  0  0  0  0  0  0  0
   -3.0990  -12.5340    2.4660 C   0  0  0  0  0  0  0  0  0  0  0  0
   -2.6570  -11.2120    2.4580 C   0  0  0  0  0  0  0  0  0  0  0  0
   -1.2950  -10.9340    2.3390 C   0  0  0  0  0  0  0  0  0  0  0  0
   -0.3760  -11.9780    2.2220 C   0  0  0  0  0  0  0  0  0  0  0  0
    1.1810  -14.7490   -2.5420 N   0  0  0  0  0  0  0  0  0  0  0  0
    1.7532  -10.6662   -1.0585 H   0  0  0  0  0  0  0  0  0  0  0  0
    1.5206   -9.2996   -2.2009 H   0  0  0  0  0  0  0  0  0  0  0  0
    0.3670  -10.6765   -2.2009 H   0  0  0  0  0  0  0  0  0  0  0  0
    2.8681   -9.2320   -4.0201 H   0  0  0  0  0  0  0  0  0  0  0  0
    4.2944  -10.3047   -5.7524 H   0  0  0  0  0  0  0  0  0  0  0  0
    4.1390  -13.3500   -6.8060 H   0  0  0  0  0  0  0  0  0  0  0  0
    7.2549  -15.7711   -6.0685 H   0  0  0  0  0  0  0  0  0  0  0  0
    7.8965  -15.7782  -10.3438 H   0  0  0  0  0  0  0  0  0  0  0  0
    5.9246  -12.4165   -8.4649 H   0  0  0  0  0  0  0  0  0  0  0  0
    3.2993  -14.1795   -4.1505 H   0  0  0  0  0  0  0  0  0  0  0  0
   -0.3116  -17.3048   -1.4254 H   0  0  0  0  0  0  0  0  0  0  0  0
   -0.1000  -15.2383    2.7995 H   0  0  0  0  0  0  0  0  0  0  0  0
    1.1796  -14.0503    2.3004 H   0  0  0  0  0  0  0  0  0  0  0  0
   -2.5354  -14.6203    2.3516 H   0  0  0  0  0  0  0  0  0  0  0  0
   -4.1719  -12.7541    2.5677 H   0  0  0  0  0  0  0  0  0  0  0  0
   -3.3813  -10.3888    2.5454 H   0  0  0  0  0  0  0  0  0  0  0  0
   -0.9451   -9.8911    2.3374 H   0  0  0  0  0  0  0  0  0  0  0  0
    0.6972  -11.7531    2.1346 H   0  0  0  0  0  0  0  0  0  0  0  0
  1  2  1  0
  2  3  2  0
  3  4  1  0
  4  5  2  0
  5  6  1  0
  6  7  1  0
  7  8  2  0
  7  9  1  0
  9 10  2  0
 10 11  1  0
 11 12  1  0
 11 13  2  0
 13 14  1  0
 14 15  1  0
 15 16  1  0
 15 17  1  0
 15 18  1  0
 14 19  2  0
  5 20  1  0
 20 21  2  0
 21 22  1  0
 22 23  2  0
 23 24  1  0
 24 25  2  0
 25 26  1  0
 26 27  2  0
 27 28  1  0
 28 29  1  0
 29 30  1  0
 30 31  2  0
 31 32  1  0
 32 33  2  0
 33 34  1  0
 34 35  2  0
 25 36  1  0
 21  2  1  0
 36 22  1  0
 19  9  1  0
 28 24  1  0
 35 30  1  0
  1 37  1  0
  1 38  1  0
  1 39  1  0
  3 40  1  0
  4 41  1  0
  6 42  1  0
 10 43  1  0
 13 44  1  0
 19 45  1  0
 20 46  1  0
 26 47  1  0
 29 48  1  0
 29 49  1  0
 31 50  1  0
 32 51  1  0
 33 52  1  0
 34 53  1  0
 35 54  1  0
M  CHG  1  36  -1
M  END
>  <meeko>  (1) 
{"is_sidechain": [false], "free_energy": -9.062, "intermolecular_energy": -12.241, "internal_energy": -0.96}

$$$$
LIB_RUTKUCAFHHXWCX__M_PUB_ALL__e8__s20260927
     RDKit          3D

 54 58  0  0  0  0  0  0  0  0999 V2000
    5.8900  -12.2080   -4.4430 C   0  0  0  0  0  0  0  0  0  0  0  0
    4.7390  -12.1600   -3.4790 C   0  0  0  0  0  0  0  0  0  0  0  0
    3.4320  -12.0780   -3.9910 C   0  0  0  0  0  0  0  0  0  0  0  0
    2.3170  -12.0290   -3.1440 C   0  0  0  0  0  0  0  0  0  0  0  0
    2.4850  -12.0620   -1.7640 C   0  0  0  0  0  0  0  0  0  0  0  0
    1.4310  -12.0100   -0.8300 N   0  0  0  0  0  0  0  0  0  0  0  0
    0.6660  -13.0570   -0.3620 C   0  0  0  0  0  0  0  0  0  0  0  0
    0.7990  -14.2500   -0.6100 O   0  0  0  0  0  0  0  0  0  0  0  0
   -0.4210  -12.6680    0.5800 C   0  0  0  0  0  0  0  0  0  0  0  0
   -1.2870  -13.6140    1.1370 C   0  0  0  0  0  0  0  0  0  0  0  0
   -2.2730  -13.1970    2.0310 C   0  0  0  0  0  0  0  0  0  0  0  0
   -3.3380  -14.3550    2.7280 Cl  0  0  0  0  0  0  0  0  0  0  0  0
   -2.4020  -11.8520    2.3770 C   0  0  0  0  0  0  0  0  0  0  0  0
   -1.5350  -10.8930    1.8310 C   0  0  0  0  0  0  0  0  0  0  0  0
   -1.6450   -9.4440    2.2320 C   0  0  0  0  0  0  0  0  0  0  0  0
   -0.5000   -8.7430    2.0010 F   0  0  0  0  0  0  0  0  0  0  0  0
   -1.9250   -9.2690    3.5520 F   0  0  0  0  0  0  0  0  0  0  0  0
   -2.6240   -8.7910    1.5480 F   0  0  0  0  0  0  0  0  0  0  0  0
   -0.5370  -11.3160    0.9400 C   0  0  0  0  0  0  0  0  0  0  0  0
    3.7820  -12.1420   -1.2460 C   0  0  0  0  0  0  0  0  0  0  0  0
    4.9070  -12.1910   -2.0850 C   0  0  0  0  0  0  0  0  0  0  0  0
    6.3310  -12.2750   -1.3540 C   0  0  0  0  0  0  0  0  0  0  0  0
    7.4310  -12.9960   -1.8220 N   0  0  0  0  0  0  0  0  0  0  0  0
    8.4370  -12.7310   -0.8190 C   0  0  0  0  0  0  0  0  0  0  0  0
    7.9550  -11.9400    0.1420 C   0  0  0  0  0  0  0  0  0  0  0  0
    8.9770  -11.7600    1.0610 C   0  0  0  0  0  0  0  0  0  0  0  0
   10.0970  -12.4360    0.6970 N   0  0  0  0  0  0  0  0  0  0  0  0
    9.7160  -13.0150   -0.5030 N   0  0  0  0  0  0  0  0  0  0  0  0
   10.6010  -13.8910   -1.2370 C   0  0  0  0  0  0  0  0  0  0  0  0
   11.7270  -13.1360   -1.9010 C   0  0  0  0  0  0  0  0  0  0  0  0
   12.1340  -13.4730   -3.2000 C   0  0  0  0  0  0  0  0  0  0  0  0
   13.1730  -12.7790   -3.8200 C   0  0  0  0  0  0  0  0  0  0  0  0
   13.8170  -11.7410   -3.1500 C   0  0  0  0  0  0  0  0  0  0  0  0
   13.4150  -11.3900   -1.8610 C   0  0  0  0  0  0  0  0  0  0  0  0
   12.3730  -12.0810   -1.2400 C   0  0  0  0  0  0  0  0  0  0  0  0
    6.5860  -11.6070   -0.1470 N   0  0  0  0  0  0  0  0  0  0  0  0
    6.8359  -12.2474   -3.8830 H   0  0  0  0  0  0  0  0  0  0  0  0
    5.8010  -13.1032   -5.0760 H   0  0  0  0  0  0  0  0  0  0  0  0
    5.8759  -11.3085   -5.0760 H   0  0  0  0  0  0  0  0  0  0  0  0
    3.2816  -12.0517   -5.0804 H   0  0  0  0  0  0  0  0  0  0  0  0
    1.3057  -11.9642   -3.5719 H   0  0  0  0  0  0  0  0  0  0  0  0
    1.2630  -11.0850   -0.4510 H   0  0  0  0  0  0  0  0  0  0  0  0
   -1.1915  -14.6775    0.8725 H   0  0  0  0  0  0  0  0  0  0  0  0
   -3.1875  -11.5413    3.0816 H   0  0  0  0  0  0  0  0  0  0  0  0
    0.1629  -10.5795    0.5185 H   0  0  0  0  0  0  0  0  0  0  0  0
    3.9240  -12.1671   -0.1555 H   0  0  0  0  0  0  0  0  0  0  0  0
    8.8915  -11.1470    1.9703 H   0  0  0  0  0  0  0  0  0  0  0  0
   11.0297  -14.6265   -0.5404 H   0  0  0  0  0  0  0  0  0  0  0  0
   10.0125  -14.3830   -2.0254 H   0  0  0  0  0  0  0  0  0  0  0  0
   11.6296  -14.2915   -3.7345 H   0  0  0  0  0  0  0  0  0  0  0  0
   13.4843  -13.0516   -4.8392 H   0  0  0  0  0  0  0  0  0  0  0  0
   14.6413  -11.1990   -3.6367 H   0  0  0  0  0  0  0  0  0  0  0  0
   13.9199  -10.5675   -1.3332 H   0  0  0  0  0  0  0  0  0  0  0  0
   12.0565  -11.7962   -0.2257 H   0  0  0  0  0  0  0  0  0  0  0  0
  1  2  1  0
  2  3  2  0
  3  4  1  0
  4  5  2  0
  5  6  1  0
  6  7  1  0
  7  8  2  0
  7  9  1  0
  9 10  2  0
 10 11  1  0
 11 12  1  0
 11 13  2  0
 13 14  1  0
 14 15  1  0
 15 16  1  0
 15 17  1  0
 15 18  1  0
 14 19  2  0
  5 20  1  0
 20 21  2  0
 21 22  1  0
 22 23  2  0
 23 24  1  0
 24 25  2  0
 25 26  1  0
 26 27  2  0
 27 28  1  0
 28 29  1  0
 29 30  1  0
 30 31  2  0
 31 32  1  0
 32 33  2  0
 33 34  1  0
 34 35  2  0
 25 36  1  0
 21  2  1  0
 36 22  1  0
 19  9  1  0
 28 24  1  0
 35 30  1  0
  1 37  1  0
  1 38  1  0
  1 39  1  0
  3 40  1  0
  4 41  1  0
  6 42  1  0
 10 43  1  0
 13 44  1  0
 19 45  1  0
 20 46  1  0
 26 47  1  0
 29 48  1  0
 29 49  1  0
 31 50  1  0
 32 51  1  0
 33 52  1  0
 34 53  1  0
 35 54  1  0
M  CHG  1  36  -1
M  END
>  <meeko>  (2) 
{"is_sidechain": [false], "free_energy": -8.935, "intermolecular_energy": -12.569, "internal_energy": -0.459}

$$$$
LIB_RUTKUCAFHHXWCX__M_PUB_ALL__e8__s20260927
     RDKit          3D

 54 58  0  0  0  0  0  0  0  0999 V2000
    1.6640  -13.6700   -4.4610 C   0  0  0  0  0  0  0  0  0  0  0  0
    3.1350  -13.5910   -4.1720 C   0  0  0  0  0  0  0  0  0  0  0  0
    4.0360  -13.5530   -5.2510 C   0  0  0  0  0  0  0  0  0  0  0  0
    5.4200  -13.4810   -5.0460 C   0  0  0  0  0  0  0  0  0  0  0  0
    5.9340  -13.4430   -3.7540 C   0  0  0  0  0  0  0  0  0  0  0  0
    7.3080  -13.3770   -3.4430 N   0  0  0  0  0  0  0  0  0  0  0  0
    8.0450  -12.2610   -3.1090 C   0  0  0  0  0  0  0  0  0  0  0  0
    7.6370  -11.1180   -2.9450 O   0  0  0  0  0  0  0  0  0  0  0  0
    9.4980  -12.5110   -2.8960 C   0  0  0  0  0  0  0  0  0  0  0  0
   10.3400  -12.9030   -3.9420 C   0  0  0  0  0  0  0  0  0  0  0  0
   11.6970  -13.1020   -3.6910 C   0  0  0  0  0  0  0  0  0  0  0  0
   12.7410  -13.5760   -4.9740 Cl  0  0  0  0  0  0  0  0  0  0  0  0
   12.2230  -12.9110   -2.4130 C   0  0  0  0  0  0  0  0  0  0  0  0
   11.3920  -12.5100   -1.3560 C   0  0  0  0  0  0  0  0  0  0  0  0
   11.9630  -12.2660    0.0180 C   0  0  0  0  0  0  0  0  0  0  0  0
   13.2070  -11.7110   -0.0180 F   0  0  0  0  0  0  0  0  0  0  0  0
   12.0860  -13.4000    0.7610 F   0  0  0  0  0  0  0  0  0  0  0  0
   11.1980  -11.4140    0.7520 F   0  0  0  0  0  0  0  0  0  0  0  0
   10.0290  -12.3010   -1.6130 C   0  0  0  0  0  0  0  0  0  0  0  0
    5.0460  -13.4810   -2.6750 C   0  0  0  0  0  0  0  0  0  0  0  0
    3.6570  -13.5550   -2.8680 C   0  0  0  0  0  0  0  0  0  0  0  0
    2.7590  -13.5970   -1.5410 C   0  0  0  0  0  0  0  0  0  0  0  0
    1.9390  -12.5610   -1.0940 N   0  0  0  0  0  0  0  0  0  0  0  0
    1.3580  -13.1090    0.1110 C   0  0  0  0  0  0  0  0  0  0  0  0
    1.8140  -14.3420    0.3410 C   0  0  0  0  0  0  0  0  0  0  0  0
    1.2220  -14.7730    1.5180 C   0  0  0  0  0  0  0  0  0  0  0  0
    0.4050  -13.8230    2.0400 N   0  0  0  0  0  0  0  0  0  0  0  0
    0.5070  -12.8010    1.1090 N   0  0  0  0  0  0  0  0  0  0  0  0
   -0.1710  -11.5370    1.2930 C   0  0  0  0  0  0  0  0  0  0  0  0
   -1.5490  -11.5370    0.6770 C   0  0  0  0  0  0  0  0  0  0  0  0
   -2.1110  -10.3410    0.2050 C   0  0  0  0  0  0  0  0  0  0  0  0
   -3.3830  -10.3330   -0.3660 C   0  0  0  0  0  0  0  0  0  0  0  0
   -4.1090  -11.5190   -0.4720 C   0  0  0  0  0  0  0  0  0  0  0  0
   -3.5570  -12.7150   -0.0150 C   0  0  0  0  0  0  0  0  0  0  0  0
   -2.2820  -12.7260    0.5540 C   0  0  0  0  0  0  0  0  0  0  0  0
    2.7320  -14.7210   -0.6990 N   0  0  0  0  0  0  0  0  0  0  0  0
    1.1053  -13.7000   -3.5139 H   0  0  0  0  0  0  0  0  0  0  0  0
    1.3562  -12.7871   -5.0404 H   0  0  0  0  0  0  0  0  0  0  0  0
    1.4526  -14.5808   -5.0404 H   0  0  0  0  0  0  0  0  0  0  0  0
    3.6454  -13.5804   -6.2789 H   0  0  0  0  0  0  0  0  0  0  0  0
    6.1018  -13.4545   -5.9088 H   0  0  0  0  0  0  0  0  0  0  0  0
    7.7710  -14.2780   -3.4410 H   0  0  0  0  0  0  0  0  0  0  0  0
    9.9351  -13.0529   -4.9537 H   0  0  0  0  0  0  0  0  0  0  0  0
   13.2956  -13.0758   -2.2330 H   0  0  0  0  0  0  0  0  0  0  0  0
    9.3677  -11.9684   -0.7993 H   0  0  0  0  0  0  0  0  0  0  0  0
    5.4448  -13.4522   -1.6502 H   0  0  0  0  0  0  0  0  0  0  0  0
    1.3928  -15.7604    1.9718 H   0  0  0  0  0  0  0  0  0  0  0  0
   -0.2643  -11.3381    2.3708 H   0  0  0  0  0  0  0  0  0  0  0  0
    0.4234  -10.7578    0.7934 H   0  0  0  0  0  0  0  0  0  0  0  0
   -1.5435   -9.4022    0.2861 H   0  0  0  0  0  0  0  0  0  0  0  0
   -3.8144   -9.3901   -0.7333 H   0  0  0  0  0  0  0  0  0  0  0  0
   -5.1156  -11.5109   -0.9155 H   0  0  0  0  0  0  0  0  0  0  0  0
   -4.1270  -13.6517   -0.1029 H   0  0  0  0  0  0  0  0  0  0  0  0
   -1.8498  -13.6735    0.9081 H   0  0  0  0  0  0  0  0  0  0  0  0
  1  2  1  0
  2  3  2  0
  3  4  1  0
  4  5  2  0
  5  6  1  0
  6  7  1  0
  7  8  2  0
  7  9  1  0
  9 10  2  0
 10 11  1  0
 11 12  1  0
 11 13  2  0
 13 14  1  0
 14 15  1  0
 15 16  1  0
 15 17  1  0
 15 18  1  0
 14 19  2  0
  5 20  1  0
 20 21  2  0
 21 22  1  0
 22 23  2  0
 23 24  1  0
 24 25  2  0
 25 26  1  0
 26 27  2  0
 27 28  1  0
 28 29  1  0
 29 30  1  0
 30 31  2  0
 31 32  1  0
 32 33  2  0
 33 34  1  0
 34 35  2  0
 25 36  1  0
 21  2  1  0
 36 22  1  0
 19  9  1  0
 28 24  1  0
 35 30  1  0
  1 37  1  0
  1 38  1  0
  1 39  1  0
  3 40  1  0
  4 41  1  0
  6 42  1  0
 10 43  1  0
 13 44  1  0
 19 45  1  0
 20 46  1  0
 26 47  1  0
 29 48  1  0
 29 49  1  0
 31 50  1  0
 32 51  1  0
 33 52  1  0
 34 53  1  0
 35 54  1  0
M  CHG  1  36  -1
M  END
>  <meeko>  (3) 
{"is_sidechain": [false], "free_energy": -8.835, "intermolecular_energy": -11.959, "internal_energy": -0.935}

$$$$
LIB_RUTKUCAFHHXWCX__M_PUB_ALL__e8__s20260927
     RDKit          3D

 54 58  0  0  0  0  0  0  0  0999 V2000
    1.4720  -11.1400   -1.5730 C   0  0  0  0  0  0  0  0  0  0  0  0
    2.2870  -11.5850   -2.7530 C   0  0  0  0  0  0  0  0  0  0  0  0
    2.8910  -10.6090   -3.5650 C   0  0  0  0  0  0  0  0  0  0  0  0
    3.6630  -10.9600   -4.6800 C   0  0  0  0  0  0  0  0  0  0  0  0
    3.8490  -12.2990   -5.0070 C   0  0  0  0  0  0  0  0  0  0  0  0
    4.6000  -12.7540   -6.1100 N   0  0  0  0  0  0  0  0  0  0  0  0
    5.8750  -13.2790   -6.1050 C   0  0  0  0  0  0  0  0  0  0  0  0
    6.5790  -13.5220   -5.1310 O   0  0  0  0  0  0  0  0  0  0  0  0
    6.4210  -13.6120   -7.4500 C   0  0  0  0  0  0  0  0  0  0  0  0
    6.3960  -12.6930   -8.5040 C   0  0  0  0  0  0  0  0  0  0  0  0
    6.9420  -13.0500   -9.7360 C   0  0  0  0  0  0  0  0  0  0  0  0
    6.9230  -11.9220  -11.0360 Cl  0  0  0  0  0  0  0  0  0  0  0  0
    7.5140  -14.3080   -9.9280 C   0  0  0  0  0  0  0  0  0  0  0  0
    7.5530  -15.2370   -8.8770 C   0  0  0  0  0  0  0  0  0  0  0  0
    8.2040  -16.5830   -9.0680 C   0  0  0  0  0  0  0  0  0  0  0  0
    8.0380  -17.0770  -10.3270 F   0  0  0  0  0  0  0  0  0  0  0  0
    7.7210  -17.5400   -8.2290 F   0  0  0  0  0  0  0  0  0  0  0  0
    9.5480  -16.5420   -8.8610 F   0  0  0  0  0  0  0  0  0  0  0  0
    7.0130  -14.8730   -7.6350 C   0  0  0  0  0  0  0  0  0  0  0  0
    3.2520  -13.2770   -4.2060 C   0  0  0  0  0  0  0  0  0  0  0  0
    2.4750  -12.9370   -3.0860 C   0  0  0  0  0  0  0  0  0  0  0  0
    1.8470  -14.1600   -2.2630 C   0  0  0  0  0  0  0  0  0  0  0  0
    0.4840  -14.3660   -2.0470 N   0  0  0  0  0  0  0  0  0  0  0  0
    0.4620  -15.5890   -1.2770 C   0  0  0  0  0  0  0  0  0  0  0  0
    1.7010  -16.0360   -1.0600 C   0  0  0  0  0  0  0  0  0  0  0  0
    1.5810  -17.1920   -0.3030 C   0  0  0  0  0  0  0  0  0  0  0  0
    0.2810  -17.4730   -0.0300 N   0  0  0  0  0  0  0  0  0  0  0  0
   -0.3870  -16.4480   -0.6810 N   0  0  0  0  0  0  0  0  0  0  0  0
   -1.8250  -16.3160   -0.6120 C   0  0  0  0  0  0  0  0  0  0  0  0
   -2.2530  -15.3100    0.4300 C   0  0  0  0  0  0  0  0  0  0  0  0
   -2.5640  -13.9950    0.0550 C   0  0  0  0  0  0  0  0  0  0  0  0
   -2.9620  -13.0600    1.0120 C   0  0  0  0  0  0  0  0  0  0  0  0
   -3.0520  -13.4290    2.3530 C   0  0  0  0  0  0  0  0  0  0  0  0
   -2.7540  -14.7370    2.7360 C   0  0  0  0  0  0  0  0  0  0  0  0
   -2.3600  -15.6740    1.7800 C   0  0  0  0  0  0  0  0  0  0  0  0
    2.6510  -15.1500   -1.6760 N   0  0  0  0  0  0  0  0  0  0  0  0
    1.9883  -11.4219   -0.6435 H   0  0  0  0  0  0  0  0  0  0  0  0
    1.3457  -10.0478   -1.6055 H   0  0  0  0  0  0  0  0  0  0  0  0
    0.4849  -11.6243   -1.6055 H   0  0  0  0  0  0  0  0  0  0  0  0
    2.7542   -9.5456   -3.3192 H   0  0  0  0  0  0  0  0  0  0  0  0
    4.1230  -10.1750   -5.2982 H   0  0  0  0  0  0  0  0  0  0  0  0
    4.1030  -12.7080   -6.9920 H   0  0  0  0  0  0  0  0  0  0  0  0
    5.9496  -11.6977   -8.3621 H   0  0  0  0  0  0  0  0  0  0  0  0
    7.9366  -14.5730  -10.9084 H   0  0  0  0  0  0  0  0  0  0  0  0
    7.0533  -15.5829   -6.7957 H   0  0  0  0  0  0  0  0  0  0  0  0
    3.3940  -14.3381   -4.4587 H   0  0  0  0  0  0  0  0  0  0  0  0
    2.4312  -17.8035    0.0335 H   0  0  0  0  0  0  0  0  0  0  0  0
   -2.1990  -15.9907   -1.5940 H   0  0  0  0  0  0  0  0  0  0  0  0
   -2.2422  -17.2941   -0.3305 H   0  0  0  0  0  0  0  0  0  0  0  0
   -2.4937  -13.6979   -1.0018 H   0  0  0  0  0  0  0  0  0  0  0  0
   -3.2048  -12.0312    0.7076 H   0  0  0  0  0  0  0  0  0  0  0  0
   -3.3576  -12.6900    3.1083 H   0  0  0  0  0  0  0  0  0  0  0  0
   -2.8298  -15.0302    3.7935 H   0  0  0  0  0  0  0  0  0  0  0  0
   -2.1318  -16.7052    2.0875 H   0  0  0  0  0  0  0  0  0  0  0  0
  1  2  1  0
  2  3  2  0
  3  4  1  0
  4  5  2  0
  5  6  1  0
  6  7  1  0
  7  8  2  0
  7  9  1  0
  9 10  2  0
 10 11  1  0
 11 12  1  0
 11 13  2  0
 13 14  1  0
 14 15  1  0
 15 16  1  0
 15 17  1  0
 15 18  1  0
 14 19  2  0
  5 20  1  0
 20 21  2  0
 21 22  1  0
 22 23  2  0
 23 24  1  0
 24 25  2  0
 25 26  1  0
 26 27  2  0
 27 28  1  0
 28 29  1  0
 29 30  1  0
 30 31  2  0
 31 32  1  0
 32 33  2  0
 33 34  1  0
 34 35  2  0
 25 36  1  0
 21  2  1  0
 36 22  1  0
 19  9  1  0
 28 24  1  0
 35 30  1  0
  1 37  1  0
  1 38  1  0
  1 39  1  0
  3 40  1  0
  4 41  1  0
  6 42  1  0
 10 43  1  0
 13 44  1  0
 19 45  1  0
 20 46  1  0
 26 47  1  0
 29 48  1  0
 29 49  1  0
 31 50  1  0
 32 51  1  0
 33 52  1  0
 34 53  1  0
 35 54  1  0
M  CHG  1  36  -1
M  END
>  <meeko>  (4) 
{"is_sidechain": [false], "free_energy": -8.691, "intermolecular_energy": -11.622, "internal_energy": -1.078}

$$$$
LIB_RUTKUCAFHHXWCX__M_PUB_ALL__e8__s20260927
     RDKit          3D

 54 58  0  0  0  0  0  0  0  0999 V2000
    5.9820  -12.2080   -4.4850 C   0  0  0  0  0  0  0  0  0  0  0  0
    4.8300  -12.0690   -3.5320 C   0  0  0  0  0  0  0  0  0  0  0  0
    3.5320  -11.9290   -4.0550 C   0  0  0  0  0  0  0  0  0  0  0  0
    2.4170  -11.7940   -3.2180 C   0  0  0  0  0  0  0  0  0  0  0  0
    2.5770  -11.7960   -1.8360 C   0  0  0  0  0  0  0  0  0  0  0  0
    1.5220  -11.6590   -0.9110 N   0  0  0  0  0  0  0  0  0  0  0  0
    0.7010  -10.5670   -0.7230 C   0  0  0  0  0  0  0  0  0  0  0  0
    0.6790   -9.5280   -1.3720 O   0  0  0  0  0  0  0  0  0  0  0  0
   -0.2870  -10.7080    0.3830 C   0  0  0  0  0  0  0  0  0  0  0  0
   -0.4460   -9.7190    1.3600 C   0  0  0  0  0  0  0  0  0  0  0  0
   -1.4010   -9.8930    2.3600 C   0  0  0  0  0  0  0  0  0  0  0  0
   -1.6100   -8.6780    3.5610 Cl  0  0  0  0  0  0  0  0  0  0  0  0
   -2.2000  -11.0360    2.3960 C   0  0  0  0  0  0  0  0  0  0  0  0
   -2.0570  -12.0330    1.4190 C   0  0  0  0  0  0  0  0  0  0  0  0
   -2.9440  -13.2510    1.4310 C   0  0  0  0  0  0  0  0  0  0  0  0
   -2.2990  -14.3790    1.0180 F   0  0  0  0  0  0  0  0  0  0  0  0
   -4.0330  -13.1330    0.6240 F   0  0  0  0  0  0  0  0  0  0  0  0
   -3.4220  -13.5310    2.6730 F   0  0  0  0  0  0  0  0  0  0  0  0
   -1.1020  -11.8510    0.4060 C   0  0  0  0  0  0  0  0  0  0  0  0
    3.8640  -11.9330   -1.3070 C   0  0  0  0  0  0  0  0  0  0  0  0
    4.9890  -12.0690   -2.1360 C   0  0  0  0  0  0  0  0  0  0  0  0
    6.4020  -12.2120   -1.3930 C   0  0  0  0  0  0  0  0  0  0  0  0
    7.4630  -13.0030   -1.8350 N   0  0  0  0  0  0  0  0  0  0  0  0
    8.4770  -12.7660   -0.8320 C   0  0  0  0  0  0  0  0  0  0  0  0
    8.0330  -11.9270    0.1060 C   0  0  0  0  0  0  0  0  0  0  0  0
    9.0580  -11.7790    1.0270 C   0  0  0  0  0  0  0  0  0  0  0  0
   10.1410  -12.5230    0.6880 N   0  0  0  0  0  0  0  0  0  0  0  0
    9.7370  -13.1110   -0.5000 N   0  0  0  0  0  0  0  0  0  0  0  0
   10.5770  -14.0520   -1.2050 C   0  0  0  0  0  0  0  0  0  0  0  0
   11.6510  -13.3620   -2.0120 C   0  0  0  0  0  0  0  0  0  0  0  0
   12.2810  -12.2130   -1.5110 C   0  0  0  0  0  0  0  0  0  0  0  0
   13.2750  -11.5710   -2.2490 C   0  0  0  0  0  0  0  0  0  0  0  0
   13.6510  -12.0690   -3.4960 C   0  0  0  0  0  0  0  0  0  0  0  0
   13.0390  -13.2170   -4.0000 C   0  0  0  0  0  0  0  0  0  0  0  0
   12.0460  -13.8620   -3.2600 C   0  0  0  0  0  0  0  0  0  0  0  0
    6.6860  -11.5280   -0.2010 N   0  0  0  0  0  0  0  0  0  0  0  0
    6.9168  -12.3208   -3.9163 H   0  0  0  0  0  0  0  0  0  0  0  0
    5.8290  -13.0942   -5.1184 H   0  0  0  0  0  0  0  0  0  0  0  0
    6.0442  -11.3108   -5.1184 H   0  0  0  0  0  0  0  0  0  0  0  0
    3.3892  -11.9254   -5.1457 H   0  0  0  0  0  0  0  0  0  0  0  0
    1.4130  -11.6862   -3.6542 H   0  0  0  0  0  0  0  0  0  0  0  0
    1.3500  -12.4900   -0.3570 H   0  0  0  0  0  0  0  0  0  0  0  0
    0.1770   -8.8126    1.3390 H   0  0  0  0  0  0  0  0  0  0  0  0
   -2.9465  -11.1564    3.1949 H   0  0  0  0  0  0  0  0  0  0  0  0
   -0.9910  -12.6133   -0.3792 H   0  0  0  0  0  0  0  0  0  0  0  0
    3.9983  -11.9343   -0.2152 H   0  0  0  0  0  0  0  0  0  0  0  0
    9.0008  -11.1392    1.9200 H   0  0  0  0  0  0  0  0  0  0  0  0
   11.0566  -14.7175   -0.4721 H   0  0  0  0  0  0  0  0  0  0  0  0
    9.9409  -14.6176   -1.9018 H   0  0  0  0  0  0  0  0  0  0  0  0
   11.9886  -11.8152   -0.5280 H   0  0  0  0  0  0  0  0  0  0  0  0
   13.7629  -10.6708   -1.8470 H   0  0  0  0  0  0  0  0  0  0  0  0
   14.4291  -11.5574   -4.0815 H   0  0  0  0  0  0  0  0  0  0  0  0
   13.3389  -13.6142   -4.9809 H   0  0  0  0  0  0  0  0  0  0  0  0
   11.5701  -14.7696   -3.6598 H   0  0  0  0  0  0  0  0  0  0  0  0
  1  2  1  0
  2  3  2  0
  3  4  1  0
  4  5  2  0
  5  6  1  0
  6  7  1  0
  7  8  2  0
  7  9  1  0
  9 10  2  0
 10 11  1  0
 11 12  1  0
 11 13  2  0
 13 14  1  0
 14 15  1  0
 15 16  1  0
 15 17  1  0
 15 18  1  0
 14 19  2  0
  5 20  1  0
 20 21  2  0
 21 22  1  0
 22 23  2  0
 23 24  1  0
 24 25  2  0
 25 26  1  0
 26 27  2  0
 27 28  1  0
 28 29  1  0
 29 30  1  0
 30 31  2  0
 31 32  1  0
 32 33  2  0
 33 34  1  0
 34 35  2  0
 25 36  1  0
 21  2  1  0
 36 22  1  0
 19  9  1  0
 28 24  1  0
 35 30  1  0
  1 37  1  0
  1 38  1  0
  1 39  1  0
  3 40  1  0
  4 41  1  0
  6 42  1  0
 10 43  1  0
 13 44  1  0
 19 45  1  0
 20 46  1  0
 26 47  1  0
 29 48  1  0
 29 49  1  0
 31 50  1  0
 32 51  1  0
 33 52  1  0
 34 53  1  0
 35 54  1  0
M  CHG  1  36  -1
M  END
>  <meeko>  (5) 
{"is_sidechain": [false], "free_energy": -8.671, "intermolecular_energy": -12.213, "internal_energy": -0.459}

$$$$
LIB_RUTKUCAFHHXWCX__M_PUB_ALL__e8__s20260927
     RDKit          3D

 54 58  0  0  0  0  0  0  0  0999 V2000
    1.8870  -13.7460   -4.6460 C   0  0  0  0  0  0  0  0  0  0  0  0
    3.2610  -13.8160   -4.0440 C   0  0  0  0  0  0  0  0  0  0  0  0
    4.2860  -14.4510   -4.7690 C   0  0  0  0  0  0  0  0  0  0  0  0
    5.5870  -14.5500   -4.2600 C   0  0  0  0  0  0  0  0  0  0  0  0
    5.8930  -14.0140   -3.0140 C   0  0  0  0  0  0  0  0  0  0  0  0
    7.1680  -14.0690   -2.4130 N   0  0  0  0  0  0  0  0  0  0  0  0
    8.0950  -13.0540   -2.3070 C   0  0  0  0  0  0  0  0  0  0  0  0
    7.9660  -11.8850   -2.6500 O   0  0  0  0  0  0  0  0  0  0  0  0
    9.3820  -13.4450   -1.6670 C   0  0  0  0  0  0  0  0  0  0  0  0
    9.7970  -14.7790   -1.6020 C   0  0  0  0  0  0  0  0  0  0  0  0
   11.0220  -15.0870   -1.0110 C   0  0  0  0  0  0  0  0  0  0  0  0
   11.5450  -16.7250   -0.9350 Cl  0  0  0  0  0  0  0  0  0  0  0  0
   11.8360  -14.0820   -0.4890 C   0  0  0  0  0  0  0  0  0  0  0  0
   11.4360  -12.7390   -0.5530 C   0  0  0  0  0  0  0  0  0  0  0  0
   12.3300  -11.6460   -0.0250 C   0  0  0  0  0  0  0  0  0  0  0  0
   13.4510  -12.1280    0.5830 F   0  0  0  0  0  0  0  0  0  0  0  0
   11.7220  -10.8510    0.8970 F   0  0  0  0  0  0  0  0  0  0  0  0
   12.7690  -10.8160   -1.0090 F   0  0  0  0  0  0  0  0  0  0  0  0
   10.2080  -12.4300   -1.1580 C   0  0  0  0  0  0  0  0  0  0  0  0
    4.8800  -13.3830   -2.2860 C   0  0  0  0  0  0  0  0  0  0  0  0
    3.5720  -13.2780   -2.7850 C   0  0  0  0  0  0  0  0  0  0  0  0
    2.5120  -12.5330   -1.8400 C   0  0  0  0  0  0  0  0  0  0  0  0
    1.8470  -13.1200   -0.7630 N   0  0  0  0  0  0  0  0  0  0  0  0
    1.0370  -12.0340   -0.2570 C   0  0  0  0  0  0  0  0  0  0  0  0
    1.2120  -10.9300   -0.9860 C   0  0  0  0  0  0  0  0  0  0  0  0
    0.3870   -9.9580   -0.4430 C   0  0  0  0  0  0  0  0  0  0  0  0
   -0.3160  -10.4390    0.6150 N   0  0  0  0  0  0  0  0  0  0  0  0
    0.1420  -11.7430    0.7070 N   0  0  0  0  0  0  0  0  0  0  0  0
   -0.3890  -12.6660    1.6850 C   0  0  0  0  0  0  0  0  0  0  0  0
   -1.8800  -12.8540    1.5380 C   0  0  0  0  0  0  0  0  0  0  0  0
   -2.7420  -12.4960    2.5850 C   0  0  0  0  0  0  0  0  0  0  0  0
   -4.1210  -12.6650    2.4570 C   0  0  0  0  0  0  0  0  0  0  0  0
   -4.6530  -13.1930    1.2820 C   0  0  0  0  0  0  0  0  0  0  0  0
   -3.8060  -13.5430    0.2300 C   0  0  0  0  0  0  0  0  0  0  0  0
   -2.4270  -13.3720    0.3560 C   0  0  0  0  0  0  0  0  0  0  0  0
    2.1620  -11.1880   -2.0350 N   0  0  0  0  0  0  0  0  0  0  0  0
    1.1363  -13.7078   -3.8429 H   0  0  0  0  0  0  0  0  0  0  0  0
    1.8048  -12.8425   -5.2680 H   0  0  0  0  0  0  0  0  0  0  0  0
    1.7134  -14.6365   -5.2680 H   0  0  0  0  0  0  0  0  0  0  0  0
    4.0607  -14.8790   -5.7570 H   0  0  0  0  0  0  0  0  0  0  0  0
    6.3690  -15.0532   -4.8476 H   0  0  0  0  0  0  0  0  0  0  0  0
    7.3830  -14.9630   -1.9870 H   0  0  0  0  0  0  0  0  0  0  0  0
    9.1628  -15.5781   -2.0134 H   0  0  0  0  0  0  0  0  0  0  0  0
   12.7979  -14.3442   -0.0241 H   0  0  0  0  0  0  0  0  0  0  0  0
    9.8888  -11.3801   -1.2344 H   0  0  0  0  0  0  0  0  0  0  0  0
    5.1134  -12.9585   -1.2984 H   0  0  0  0  0  0  0  0  0  0  0  0
    0.3111   -8.9277   -0.8208 H   0  0  0  0  0  0  0  0  0  0  0  0
    0.1055  -13.6404    1.5582 H   0  0  0  0  0  0  0  0  0  0  0  0
   -0.1973  -12.2480    2.6843 H   0  0  0  0  0  0  0  0  0  0  0  0
   -2.3274  -12.0786    3.5145 H   0  0  0  0  0  0  0  0  0  0  0  0
   -4.7887  -12.3814    3.2839 H   0  0  0  0  0  0  0  0  0  0  0  0
   -5.7396  -13.3336    1.1841 H   0  0  0  0  0  0  0  0  0  0  0  0
   -4.2259  -13.9542   -0.6998 H   0  0  0  0  0  0  0  0  0  0  0  0
   -1.7643  -13.6457   -0.4783 H   0  0  0  0  0  0  0  0  0  0  0  0
  1  2  1  0
  2  3  2  0
  3  4  1  0
  4  5  2  0
  5  6  1  0
  6  7  1  0
  7  8  2  0
  7  9  1  0
  9 10  2  0
 10 11  1  0
 11 12  1  0
 11 13  2  0
 13 14  1  0
 14 15  1  0
 15 16  1  0
 15 17  1  0
 15 18  1  0
 14 19  2  0
  5 20  1  0
 20 21  2  0
 21 22  1  0
 22 23  2  0
 23 24  1  0
 24 25  2  0
 25 26  1  0
 26 27  2  0
 27 28  1  0
 28 29  1  0
 29 30  1  0
 30 31  2  0
 31 32  1  0
 32 33  2  0
 33 34  1  0
 34 35  2  0
 25 36  1  0
 21  2  1  0
 36 22  1  0
 19  9  1  0
 28 24  1  0
 35 30  1  0
  1 37  1  0
  1 38  1  0
  1 39  1  0
  3 40  1  0
  4 41  1  0
  6 42  1  0
 10 43  1  0
 13 44  1  0
 19 45  1  0
 20 46  1  0
 26 47  1  0
 29 48  1  0
 29 49  1  0
 31 50  1  0
 32 51  1  0
 33 52  1  0
 34 53  1  0
 35 54  1  0
M  CHG  1  36  -1
M  END
>  <meeko>  (6) 
{"is_sidechain": [false], "free_energy": -8.591, "intermolecular_energy": -11.451, "internal_energy": -1.114}

$$$$
LIB_RUTKUCAFHHXWCX__M_PUB_ALL__e8__s20260927
     RDKit          3D

 54 58  0  0  0  0  0  0  0  0999 V2000
   12.4280  -11.5290   -0.8040 C   0  0  0  0  0  0  0  0  0  0  0  0
   12.6600  -12.1000   -2.1730 C   0  0  0  0  0  0  0  0  0  0  0  0
   13.9460  -12.0100   -2.7350 C   0  0  0  0  0  0  0  0  0  0  0  0
   14.2250  -12.5230   -4.0090 C   0  0  0  0  0  0  0  0  0  0  0  0
   13.2220  -13.1400   -4.7490 C   0  0  0  0  0  0  0  0  0  0  0  0
   13.3990  -13.6790   -6.0390 N   0  0  0  0  0  0  0  0  0  0  0  0
   14.0130  -14.8650   -6.3800 C   0  0  0  0  0  0  0  0  0  0  0  0
   14.4620  -15.7200   -5.6250 O   0  0  0  0  0  0  0  0  0  0  0  0
   14.0980  -15.1290   -7.8440 C   0  0  0  0  0  0  0  0  0  0  0  0
   13.0090  -14.9140   -8.6960 C   0  0  0  0  0  0  0  0  0  0  0  0
   13.1500  -15.1560  -10.0610 C   0  0  0  0  0  0  0  0  0  0  0  0
   11.8190  -14.8850  -11.1180 Cl  0  0  0  0  0  0  0  0  0  0  0  0
   14.3620  -15.6050  -10.5870 C   0  0  0  0  0  0  0  0  0  0  0  0
   15.4640  -15.8190   -9.7460 C   0  0  0  0  0  0  0  0  0  0  0  0
   16.7870  -16.2670  -10.3140 C   0  0  0  0  0  0  0  0  0  0  0  0
   16.8810  -17.6220  -10.4280 F   0  0  0  0  0  0  0  0  0  0  0  0
   17.8540  -15.8860   -9.5610 F   0  0  0  0  0  0  0  0  0  0  0  0
   17.0080  -15.7730  -11.5620 F   0  0  0  0  0  0  0  0  0  0  0  0
   15.3240  -15.5640   -8.3730 C   0  0  0  0  0  0  0  0  0  0  0  0
   11.9400  -13.2330   -4.1980 C   0  0  0  0  0  0  0  0  0  0  0  0
   11.6480  -12.7220   -2.9230 C   0  0  0  0  0  0  0  0  0  0  0  0
   10.1360  -12.8940   -2.4210 C   0  0  0  0  0  0  0  0  0  0  0  0
    9.0680  -12.0790   -2.7990 N   0  0  0  0  0  0  0  0  0  0  0  0
    7.9520  -12.6630   -2.0880 C   0  0  0  0  0  0  0  0  0  0  0  0
    8.3470  -13.7090   -1.3600 C   0  0  0  0  0  0  0  0  0  0  0  0
    7.2230  -14.1860   -0.7040 C   0  0  0  0  0  0  0  0  0  0  0  0
    6.1240  -13.4460   -1.0020 N   0  0  0  0  0  0  0  0  0  0  0  0
    6.6280  -12.5130   -1.8930 N   0  0  0  0  0  0  0  0  0  0  0  0
    5.7990  -11.4620   -2.4410 C   0  0  0  0  0  0  0  0  0  0  0  0
    4.5530  -12.0070   -3.0990 C   0  0  0  0  0  0  0  0  0  0  0  0
    4.6550  -12.8260   -4.2330 C   0  0  0  0  0  0  0  0  0  0  0  0
    3.5090  -13.3330   -4.8460 C   0  0  0  0  0  0  0  0  0  0  0  0
    2.2490  -13.0280   -4.3320 C   0  0  0  0  0  0  0  0  0  0  0  0
    2.1360  -12.2230   -3.1990 C   0  0  0  0  0  0  0  0  0  0  0  0
    3.2820  -11.7170   -2.5830 C   0  0  0  0  0  0  0  0  0  0  0  0
    9.7600  -13.9130   -1.5320 N   0  0  0  0  0  0  0  0  0  0  0  0
   12.7273  -12.2657   -0.0439 H   0  0  0  0  0  0  0  0  0  0  0  0
   13.0254  -10.6134   -0.6825 H   0  0  0  0  0  0  0  0  0  0  0  0
   11.3613  -11.2896   -0.6825 H   0  0  0  0  0  0  0  0  0  0  0  0
   14.7507  -11.5262   -2.1619 H   0  0  0  0  0  0  0  0  0  0  0  0
   15.2398  -12.4374   -4.4247 H   0  0  0  0  0  0  0  0  0  0  0  0
   12.9850  -13.1220   -6.7770 H   0  0  0  0  0  0  0  0  0  0  0  0
   12.0502  -14.5571   -8.2918 H   0  0  0  0  0  0  0  0  0  0  0  0
   14.4537  -15.7921  -11.6671 H   0  0  0  0  0  0  0  0  0  0  0  0
   16.1849  -15.7066   -7.7032 H   0  0  0  0  0  0  0  0  0  0  0  0
   11.1408  -13.7183   -4.7775 H   0  0  0  0  0  0  0  0  0  0  0  0
    7.2214  -15.0537   -0.0279 H   0  0  0  0  0  0  0  0  0  0  0  0
    5.5029  -10.7832   -1.6277 H   0  0  0  0  0  0  0  0  0  0  0  0
    6.3842  -10.9337   -3.2081 H   0  0  0  0  0  0  0  0  0  0  0  0
    5.6464  -13.0705   -4.6422 H   0  0  0  0  0  0  0  0  0  0  0  0
    3.5993  -13.9738   -5.7355 H   0  0  0  0  0  0  0  0  0  0  0  0
    1.3452  -13.4220   -4.8198 H   0  0  0  0  0  0  0  0  0  0  0  0
    1.1426  -11.9864   -2.7901 H   0  0  0  0  0  0  0  0  0  0  0  0
    3.1872  -11.0865   -1.6867 H   0  0  0  0  0  0  0  0  0  0  0  0
  1  2  1  0
  2  3  2  0
  3  4  1  0
  4  5  2  0
  5  6  1  0
  6  7  1  0
  7  8  2  0
  7  9  1  0
  9 10  2  0
 10 11  1  0
 11 12  1  0
 11 13  2  0
 13 14  1  0
 14 15  1  0
 15 16  1  0
 15 17  1  0
 15 18  1  0
 14 19  2  0
  5 20  1  0
 20 21  2  0
 21 22  1  0
 22 23  2  0
 23 24  1  0
 24 25  2  0
 25 26  1  0
 26 27  2  0
 27 28  1  0
 28 29  1  0
 29 30  1  0
 30 31  2  0
 31 32  1  0
 32 33  2  0
 33 34  1  0
 34 35  2  0
 25 36  1  0
 21  2  1  0
 36 22  1  0
 19  9  1  0
 28 24  1  0
 35 30  1  0
  1 37  1  0
  1 38  1  0
  1 39  1  0
  3 40  1  0
  4 41  1  0
  6 42  1  0
 10 43  1  0
 13 44  1  0
 19 45  1  0
 20 46  1  0
 26 47  1  0
 29 48  1  0
 29 49  1  0
 31 50  1  0
 32 51  1  0
 33 52  1  0
 34 53  1  0
 35 54  1  0
M  CHG  1  36  -1
M  END
>  <meeko>  (7) 
{"is_sidechain": [false], "free_energy": -8.591, "intermolecular_energy": -11.498, "internal_energy": -1.066}

$$$$
LIB_RUTKUCAFHHXWCX__M_PUB_ALL__e8__s20260927
     RDKit          3D

 54 58  0  0  0  0  0  0  0  0999 V2000
    1.8680  -14.0840   -4.4460 C   0  0  0  0  0  0  0  0  0  0  0  0
    3.2860  -13.8880   -3.9940 C   0  0  0  0  0  0  0  0  0  0  0  0
    4.3210  -14.4830   -4.7380 C   0  0  0  0  0  0  0  0  0  0  0  0
    5.6650  -14.3380   -4.3670 C   0  0  0  0  0  0  0  0  0  0  0  0
    6.0030  -13.5930   -3.2430 C   0  0  0  0  0  0  0  0  0  0  0  0
    7.3210  -13.3940   -2.7840 N   0  0  0  0  0  0  0  0  0  0  0  0
    8.1560  -12.3310   -3.0500 C   0  0  0  0  0  0  0  0  0  0  0  0
    7.8930  -11.3130   -3.6790 O   0  0  0  0  0  0  0  0  0  0  0  0
    9.5220  -12.4440   -2.4650 C   0  0  0  0  0  0  0  0  0  0  0  0
    9.7330  -12.4330   -1.0820 C   0  0  0  0  0  0  0  0  0  0  0  0
   11.0300  -12.5640   -0.5870 C   0  0  0  0  0  0  0  0  0  0  0  0
   11.2990  -12.5610    1.1120 Cl  0  0  0  0  0  0  0  0  0  0  0  0
   12.1140  -12.7090   -1.4530 C   0  0  0  0  0  0  0  0  0  0  0  0
   11.9160  -12.7280   -2.8420 C   0  0  0  0  0  0  0  0  0  0  0  0
   13.0800  -12.9230   -3.7800 C   0  0  0  0  0  0  0  0  0  0  0  0
   13.9750  -11.8960   -3.7330 F   0  0  0  0  0  0  0  0  0  0  0  0
   12.7090  -13.0290   -5.0850 F   0  0  0  0  0  0  0  0  0  0  0  0
   13.7910  -14.0480   -3.4970 F   0  0  0  0  0  0  0  0  0  0  0  0
   10.6090  -12.6070   -3.3380 C   0  0  0  0  0  0  0  0  0  0  0  0
    4.9800  -12.9990   -2.4960 C   0  0  0  0  0  0  0  0  0  0  0  0
    3.6300  -13.1380   -2.8580 C   0  0  0  0  0  0  0  0  0  0  0  0
    2.5650  -12.4080   -1.9080 C   0  0  0  0  0  0  0  0  0  0  0  0
    1.9270  -12.9980   -0.8170 N   0  0  0  0  0  0  0  0  0  0  0  0
    1.0980  -11.9260   -0.3130 C   0  0  0  0  0  0  0  0  0  0  0  0
    1.2390  -10.8260   -1.0540 C   0  0  0  0  0  0  0  0  0  0  0  0
    0.3970   -9.8680   -0.5110 C   0  0  0  0  0  0  0  0  0  0  0  0
   -0.2810  -10.3530    0.5600 N   0  0  0  0  0  0  0  0  0  0  0  0
    0.2080  -11.6460    0.6600 N   0  0  0  0  0  0  0  0  0  0  0  0
   -0.2890  -12.5710    1.6530 C   0  0  0  0  0  0  0  0  0  0  0  0
   -1.7810  -12.7770    1.5410 C   0  0  0  0  0  0  0  0  0  0  0  0
   -2.3290  -13.3450    0.3810 C   0  0  0  0  0  0  0  0  0  0  0  0
   -3.7060  -13.5400    0.2700 C   0  0  0  0  0  0  0  0  0  0  0  0
   -4.5500  -13.1710    1.3170 C   0  0  0  0  0  0  0  0  0  0  0  0
   -4.0150  -12.6150    2.4790 C   0  0  0  0  0  0  0  0  0  0  0  0
   -2.6370  -12.4220    2.5920 C   0  0  0  0  0  0  0  0  0  0  0  0
    2.1810  -11.0730   -2.1120 N   0  0  0  0  0  0  0  0  0  0  0  0
    1.2123  -14.1746   -3.5674 H   0  0  0  0  0  0  0  0  0  0  0  0
    1.5533  -13.2208   -5.0509 H   0  0  0  0  0  0  0  0  0  0  0  0
    1.7993  -15.0002   -5.0509 H   0  0  0  0  0  0  0  0  0  0  0  0
    4.0702  -15.0751   -5.6305 H   0  0  0  0  0  0  0  0  0  0  0  0
    6.4542  -14.8149   -4.9668 H   0  0  0  0  0  0  0  0  0  0  0  0
    7.6510  -14.1200   -2.1580 H   0  0  0  0  0  0  0  0  0  0  0  0
    8.8838  -12.3221   -0.3917 H   0  0  0  0  0  0  0  0  0  0  0  0
   13.1304  -12.8091   -1.0444 H   0  0  0  0  0  0  0  0  0  0  0  0
   10.4342  -12.6403   -4.4235 H   0  0  0  0  0  0  0  0  0  0  0  0
    5.2390  -12.4093   -1.6043 H   0  0  0  0  0  0  0  0  0  0  0  0
    0.2917   -8.8441   -0.8991 H   0  0  0  0  0  0  0  0  0  0  0  0
    0.2140  -13.5400    1.5184 H   0  0  0  0  0  0  0  0  0  0  0  0
   -0.0791  -12.1470    2.6461 H   0  0  0  0  0  0  0  0  0  0  0  0
   -1.6677  -13.6389   -0.4475 H   0  0  0  0  0  0  0  0  0  0  0  0
   -4.1262  -13.9851   -0.6440 H   0  0  0  0  0  0  0  0  0  0  0  0
   -5.6363  -13.3182    1.2266 H   0  0  0  0  0  0  0  0  0  0  0  0
   -4.6796  -12.3283    3.3073 H   0  0  0  0  0  0  0  0  0  0  0  0
   -2.2202  -11.9881    3.5128 H   0  0  0  0  0  0  0  0  0  0  0  0
  1  2  1  0
  2  3  2  0
  3  4  1  0
  4  5  2  0
  5  6  1  0
  6  7  1  0
  7  8  2  0
  7  9  1  0
  9 10  2  0
 10 11  1  0
 11 12  1  0
 11 13  2  0
 13 14  1  0
 14 15  1  0
 15 16  1  0
 15 17  1  0
 15 18  1  0
 14 19  2  0
  5 20  1  0
 20 21  2  0
 21 22  1  0
 22 23  2  0
 23 24  1  0
 24 25  2  0
 25 26  1  0
 26 27  2  0
 27 28  1  0
 28 29  1  0
 29 30  1  0
 30 31  2  0
 31 32  1  0
 32 33  2  0
 33 34  1  0
 34 35  2  0
 25 36  1  0
 21  2  1  0
 36 22  1  0
 19  9  1  0
 28 24  1  0
 35 30  1  0
  1 37  1  0
  1 38  1  0
  1 39  1  0
  3 40  1  0
  4 41  1  0
  6 42  1  0
 10 43  1  0
 13 44  1  0
 19 45  1  0
 20 46  1  0
 26 47  1  0
 29 48  1  0
 29 49  1  0
 31 50  1  0
 32 51  1  0
 33 52  1  0
 34 53  1  0
 35 54  1  0
M  CHG  1  36  -1
M  END
>  <meeko>  (8) 
{"is_sidechain": [false], "free_energy": -8.581, "intermolecular_energy": -11.435, "internal_energy": -1.115}

$$$$
LIB_RUTKUCAFHHXWCX__M_PUB_ALL__e8__s20260927
     RDKit          3D

 54 58  0  0  0  0  0  0  0  0999 V2000
    0.4620  -14.3630   -4.6600 C   0  0  0  0  0  0  0  0  0  0  0  0
    1.8570  -14.0770   -4.1820 C   0  0  0  0  0  0  0  0  0  0  0  0
    2.8400  -13.7390   -5.1290 C   0  0  0  0  0  0  0  0  0  0  0  0
    4.1590  -13.4630   -4.7460 C   0  0  0  0  0  0  0  0  0  0  0  0
    4.5240  -13.5180   -3.4050 C   0  0  0  0  0  0  0  0  0  0  0  0
    5.8230  -13.2650   -2.9200 N   0  0  0  0  0  0  0  0  0  0  0  0
    6.8160  -14.1830   -2.6490 C   0  0  0  0  0  0  0  0  0  0  0  0
    6.7900  -15.3920   -2.8440 O   0  0  0  0  0  0  0  0  0  0  0  0
    8.0680  -13.6040   -2.0840 C   0  0  0  0  0  0  0  0  0  0  0  0
    8.1050  -13.0350   -0.8070 C   0  0  0  0  0  0  0  0  0  0  0  0
    9.3090  -12.5280   -0.3190 C   0  0  0  0  0  0  0  0  0  0  0  0
    9.3670  -11.8330    1.2540 Cl  0  0  0  0  0  0  0  0  0  0  0  0
   10.4720  -12.5850   -1.0870 C   0  0  0  0  0  0  0  0  0  0  0  0
   10.4510  -13.1600   -2.3670 C   0  0  0  0  0  0  0  0  0  0  0  0
   11.7140  -13.2580   -3.1840 C   0  0  0  0  0  0  0  0  0  0  0  0
   12.4590  -14.3560   -2.8750 F   0  0  0  0  0  0  0  0  0  0  0  0
   12.5440  -12.1920   -3.0260 F   0  0  0  0  0  0  0  0  0  0  0  0
   11.4610  -13.3460   -4.5190 F   0  0  0  0  0  0  0  0  0  0  0  0
    9.2410  -13.6790   -2.8520 C   0  0  0  0  0  0  0  0  0  0  0  0
    3.5530  -13.8540   -2.4560 C   0  0  0  0  0  0  0  0  0  0  0  0
    2.2280  -14.1340   -2.8290 C   0  0  0  0  0  0  0  0  0  0  0  0
    1.2230  -14.5100   -1.6380 C   0  0  0  0  0  0  0  0  0  0  0  0
    0.5950  -13.5900   -0.7980 N   0  0  0  0  0  0  0  0  0  0  0  0
   -0.1930  -14.4350    0.0710 C   0  0  0  0  0  0  0  0  0  0  0  0
   -0.0220  -15.7230   -0.2350 C   0  0  0  0  0  0  0  0  0  0  0  0
   -0.7940  -16.4510    0.6570 C   0  0  0  0  0  0  0  0  0  0  0  0
   -1.4440  -15.6380    1.5290 N   0  0  0  0  0  0  0  0  0  0  0  0
   -1.0510  -14.3780    1.1080 N   0  0  0  0  0  0  0  0  0  0  0  0
   -1.4700  -13.1810    1.8030 C   0  0  0  0  0  0  0  0  0  0  0  0
   -2.3880  -12.3270    0.9610 C   0  0  0  0  0  0  0  0  0  0  0  0
   -1.9990  -11.0330    0.5850 C   0  0  0  0  0  0  0  0  0  0  0  0
   -2.8410  -10.2380   -0.1930 C   0  0  0  0  0  0  0  0  0  0  0  0
   -4.0800  -10.7280   -0.6050 C   0  0  0  0  0  0  0  0  0  0  0  0
   -4.4720  -12.0170   -0.2470 C   0  0  0  0  0  0  0  0  0  0  0  0
   -3.6300  -12.8150    0.5300 C   0  0  0  0  0  0  0  0  0  0  0  0
    0.8910  -15.8410   -1.3400 N   0  0  0  0  0  0  0  0  0  0  0  0
   -0.2018  -14.4991   -3.7935 H   0  0  0  0  0  0  0  0  0  0  0  0
    0.1027  -13.5198   -5.2683 H   0  0  0  0  0  0  0  0  0  0  0  0
    0.4635  -15.2795   -5.2683 H   0  0  0  0  0  0  0  0  0  0  0  0
    2.5674  -13.6903   -6.1936 H   0  0  0  0  0  0  0  0  0  0  0  0
    4.9082  -13.2020   -5.5080 H   0  0  0  0  0  0  0  0  0  0  0  0
    6.0320  -12.2810   -2.8000 H   0  0  0  0  0  0  0  0  0  0  0  0
    7.1932  -12.9878   -0.1934 H   0  0  0  0  0  0  0  0  0  0  0  0
   11.4117  -12.1766   -0.6868 H   0  0  0  0  0  0  0  0  0  0  0  0
    9.2110  -14.1502   -3.8455 H   0  0  0  0  0  0  0  0  0  0  0  0
    3.8333  -13.9000   -1.3933 H   0  0  0  0  0  0  0  0  0  0  0  0
   -0.8704  -17.5483    0.6583 H   0  0  0  0  0  0  0  0  0  0  0  0
   -1.9999  -13.4716    2.7221 H   0  0  0  0  0  0  0  0  0  0  0  0
   -0.5711  -12.5893    2.0306 H   0  0  0  0  0  0  0  0  0  0  0  0
   -1.0223  -10.6419    0.9061 H   0  0  0  0  0  0  0  0  0  0  0  0
   -2.5274   -9.2239   -0.4817 H   0  0  0  0  0  0  0  0  0  0  0  0
   -4.7472  -10.0981   -1.2117 H   0  0  0  0  0  0  0  0  0  0  0  0
   -5.4464  -12.4061   -0.5773 H   0  0  0  0  0  0  0  0  0  0  0  0
   -3.9429  -13.8329    0.8058 H   0  0  0  0  0  0  0  0  0  0  0  0
  1  2  1  0
  2  3  2  0
  3  4  1  0
  4  5  2  0
  5  6  1  0
  6  7  1  0
  7  8  2  0
  7  9  1  0
  9 10  2  0
 10 11  1  0
 11 12  1  0
 11 13  2  0
 13 14  1  0
 14 15  1  0
 15 16  1  0
 15 17  1  0
 15 18  1  0
 14 19  2  0
  5 20  1  0
 20 21  2  0
 21 22  1  0
 22 23  2  0
 23 24  1  0
 24 25  2  0
 25 26  1  0
 26 27  2  0
 27 28  1  0
 28 29  1  0
 29 30  1  0
 30 31  2  0
 31 32  1  0
 32 33  2  0
 33 34  1  0
 34 35  2  0
 25 36  1  0
 21  2  1  0
 36 22  1  0
 19  9  1  0
 28 24  1  0
 35 30  1  0
  1 37  1  0
  1 38  1  0
  1 39  1  0
  3 40  1  0
  4 41  1  0
  6 42  1  0
 10 43  1  0
 13 44  1  0
 19 45  1  0
 20 46  1  0
 26 47  1  0
 29 48  1  0
 29 49  1  0
 31 50  1  0
 32 51  1  0
 33 52  1  0
 34 53  1  0
 35 54  1  0
M  CHG  1  36  -1
M  END
>  <meeko>  (9) 
{"is_sidechain": [false], "free_energy": -8.422, "intermolecular_energy": -11.105, "internal_energy": -1.231}

$$$$
