LIB_WLXHZMYOVDOALX__M_PUB_ALL__e8__s20260927
     RDKit          3D

 67 71  0  0  0  0  0  0  0  0999 V2000
    7.9230   -6.6530    3.7300 C   0  0  0  0  0  0  0  0  0  0  0  0
    8.0180   -6.7170    2.3140 O   0  0  0  0  0  0  0  0  0  0  0  0
    6.8750   -7.3710    1.7420 C   0  0  0  0  0  0  0  0  0  0  0  0
    7.3090   -8.7180    1.1510 C   0  0  0  0  0  0  0  0  0  0  0  0
    6.4830   -9.8070    1.6600 N   0  0  0  0  0  0  0  0  0  0  0  0
    6.7900  -11.1190    1.3380 C   0  0  0  0  0  0  0  0  0  0  0  0
    7.6330  -11.3590    0.2680 C   0  0  0  0  0  0  0  0  0  0  0  0
    7.8930  -12.6760   -0.0610 C   0  0  0  0  0  0  0  0  0  0  0  0
    8.7680  -12.9980   -1.1540 N   0  0  0  0  0  0  0  0  0  0  0  0
    8.3920  -13.7000   -2.3140 C   0  0  0  0  0  0  0  0  0  0  0  0
    7.1470  -14.2340   -2.4340 N   0  0  0  0  0  0  0  0  0  0  0  0
    5.9620  -13.6650   -2.9510 C   0  0  0  0  0  0  0  0  0  0  0  0
    4.9740  -13.0990   -2.1290 C   0  0  0  0  0  0  0  0  0  0  0  0
    3.8020  -12.5240   -2.6440 C   0  0  0  0  0  0  0  0  0  0  0  0
    2.8900  -11.9840   -1.7120 N   0  0  0  0  0  0  0  0  0  0  0  0
    1.9450  -12.6630   -0.9670 C   0  0  0  0  0  0  0  0  0  0  0  0
    1.7760  -13.8750   -0.9160 O   0  0  0  0  0  0  0  0  0  0  0  0
    1.0760  -11.7970   -0.1180 C   0  0  0  0  0  0  0  0  0  0  0  0
    0.9570  -10.4430   -0.4520 C   0  0  0  0  0  0  0  0  0  0  0  0
    0.1600   -9.5970    0.3190 C   0  0  0  0  0  0  0  0  0  0  0  0
   -0.5140  -10.0990    1.4340 C   0  0  0  0  0  0  0  0  0  0  0  0
   -0.3980  -11.4510    1.7910 C   0  0  0  0  0  0  0  0  0  0  0  0
   -1.0960  -11.9840    3.0190 C   0  0  0  0  0  0  0  0  0  0  0  0
   -2.1770  -12.7550    2.7170 F   0  0  0  0  0  0  0  0  0  0  0  0
   -0.2810  -12.7620    3.7810 F   0  0  0  0  0  0  0  0  0  0  0  0
   -1.5590  -11.0030    3.8430 F   0  0  0  0  0  0  0  0  0  0  0  0
    0.4120  -12.2960    1.0120 C   0  0  0  0  0  0  0  0  0  0  0  0
    3.6090  -12.5100   -4.0190 C   0  0  0  0  0  0  0  0  0  0  0  0
    4.5710  -13.0640   -4.8640 C   0  0  0  0  0  0  0  0  0  0  0  0
    5.7460  -13.6390   -4.3490 C   0  0  0  0  0  0  0  0  0  0  0  0
    6.7420  -14.2120   -5.3230 C   0  0  0  0  0  0  0  0  0  0  0  0
    9.3700  -13.7010   -3.1950 N   0  0  0  0  0  0  0  0  0  0  0  0
   10.4350  -13.1070   -2.5890 C   0  0  0  0  0  0  0  0  0  0  0  0
   11.7300  -12.9160   -3.0990 C   0  0  0  0  0  0  0  0  0  0  0  0
   12.7070  -12.3470   -2.2800 C   0  0  0  0  0  0  0  0  0  0  0  0
   12.4050  -11.9920   -0.9680 C   0  0  0  0  0  0  0  0  0  0  0  0
   11.1170  -12.1700   -0.4470 C   0  0  0  0  0  0  0  0  0  0  0  0
   10.1240  -12.6970   -1.2950 C   0  0  0  0  0  0  0  0  0  0  0  0
    7.2990  -13.7020    0.5950 N   0  0  0  0  0  0  0  0  0  0  0  0
    6.4940  -13.3650    1.6100 C   0  0  0  0  0  0  0  0  0  0  0  0
    6.2150  -12.1220    2.0170 N   0  0  0  0  0  0  0  0  0  0  0  0
    8.7558   -7.2140    4.1791 H   0  0  0  0  0  0  0  0  0  0  0  0
    7.9716   -5.6028    4.0537 H   0  0  0  0  0  0  0  0  0  0  0  0
    6.9680   -7.0926    4.0537 H   0  0  0  0  0  0  0  0  0  0  0  0
    6.1179   -7.5382    2.5223 H   0  0  0  0  0  0  0  0  0  0  0  0
    6.4462   -6.7403    0.9494 H   0  0  0  0  0  0  0  0  0  0  0  0
    7.2138   -8.6769    0.0559 H   0  0  0  0  0  0  0  0  0  0  0  0
    8.3528   -8.9065    1.4423 H   0  0  0  0  0  0  0  0  0  0  0  0
    5.4970   -9.5750    1.7270 H   0  0  0  0  0  0  0  0  0  0  0  0
    8.0807  -10.5309   -0.3010 H   0  0  0  0  0  0  0  0  0  0  0  0
    7.0440  -15.1970   -2.1170 H   0  0  0  0  0  0  0  0  0  0  0  0
    5.1246  -13.1067   -1.0394 H   0  0  0  0  0  0  0  0  0  0  0  0
    2.9790  -10.9870   -1.5590 H   0  0  0  0  0  0  0  0  0  0  0  0
    1.4939  -10.0447   -1.3256 H   0  0  0  0  0  0  0  0  0  0  0  0
    0.0625   -8.5352    0.0489 H   0  0  0  0  0  0  0  0  0  0  0  0
   -1.1421   -9.4280    2.0384 H   0  0  0  0  0  0  0  0  0  0  0  0
    0.5255  -13.3541    1.2904 H   0  0  0  0  0  0  0  0  0  0  0  0
    2.6977  -12.0621   -4.4420 H   0  0  0  0  0  0  0  0  0  0  0  0
    4.4074  -13.0507   -5.9517 H   0  0  0  0  0  0  0  0  0  0  0  0
    7.5657  -14.6859   -4.7690 H   0  0  0  0  0  0  0  0  0  0  0  0
    6.2459  -14.9628   -5.9556 H   0  0  0  0  0  0  0  0  0  0  0  0
    7.1417  -13.4058   -5.9556 H   0  0  0  0  0  0  0  0  0  0  0  0
   11.9712  -13.2111   -4.1309 H   0  0  0  0  0  0  0  0  0  0  0  0
   13.7204  -12.1783   -2.6732 H   0  0  0  0  0  0  0  0  0  0  0  0
   13.1918  -11.5642   -0.3293 H   0  0  0  0  0  0  0  0  0  0  0  0
   10.8876  -11.9054    0.5958 H   0  0  0  0  0  0  0  0  0  0  0  0
    6.0168  -14.1884    2.1616 H   0  0  0  0  0  0  0  0  0  0  0  0
  1  2  1  0
  2  3  1  0
  3  4  1  0
  4  5  1  0
  5  6  1  0
  6  7  2  0
  7  8  1  0
  8  9  1  0
  9 10  1  0
 10 11  1  0
 11 12  1  0
 12 13  2  0
 13 14  1  0
 14 15  1  0
 15 16  1  0
 16 17  2  0
 16 18  1  0
 18 19  2  0
 19 20  1  0
 20 21  2  0
 21 22  1  0
 22 23  1  0
 23 24  1  0
 23 25  1  0
 23 26  1  0
 22 27  2  0
 14 28  2  0
 28 29  1  0
 29 30  2  0
 30 31  1  0
 10 32  2  0
 32 33  1  0
 33 34  2  0
 34 35  1  0
 35 36  2  0
 36 37  1  0
 37 38  2  0
  8 39  2  0
 39 40  1  0
 40 41  2  0
 41  6  1  0
 38  9  1  0
 30 12  1  0
 38 33  1  0
 27 18  1  0
  1 42  1  0
  1 43  1  0
  1 44  1  0
  3 45  1  0
  3 46  1  0
  4 47  1  0
  4 48  1  0
  5 49  1  0
  7 50  1  0
 11 51  1  0
 13 52  1  0
 15 53  1  0
 19 54  1  0
 20 55  1  0
 21 56  1  0
 27 57  1  0
 28 58  1  0
 29 59  1  0
 31 60  1  0
 31 61  1  0
 31 62  1  0
 34 63  1  0
 35 64  1  0
 36 65  1  0
 37 66  1  0
 40 67  1  0
M  END
>  <meeko>  (1) 
{"is_sidechain": [false], "free_energy": -9.14, "intermolecular_energy": -14.483, "internal_energy": -2.204}

$$$$
LIB_WLXHZMYOVDOALX__M_PUB_ALL__e8__s20260927
     RDKit          3D

 67 71  0  0  0  0  0  0  0  0999 V2000
    7.8540   -6.8640    3.5940 C   0  0  0  0  0  0  0  0  0  0  0  0
    6.5670   -7.0700    3.0280 O   0  0  0  0  0  0  0  0  0  0  0  0
    6.6560   -7.4000    1.6340 C   0  0  0  0  0  0  0  0  0  0  0  0
    7.3720   -8.7480    1.4810 C   0  0  0  0  0  0  0  0  0  0  0  0
    6.4320   -9.8580    1.5880 N   0  0  0  0  0  0  0  0  0  0  0  0
    6.8580  -11.1530    1.3400 C   0  0  0  0  0  0  0  0  0  0  0  0
    7.8150  -11.3600    0.3620 C   0  0  0  0  0  0  0  0  0  0  0  0
    8.1950  -12.6630    0.1020 C   0  0  0  0  0  0  0  0  0  0  0  0
    9.1910  -12.9500   -0.8920 N   0  0  0  0  0  0  0  0  0  0  0  0
    9.0120  -13.8030   -1.9970 C   0  0  0  0  0  0  0  0  0  0  0  0
    7.8680  -14.5250   -2.1430 N   0  0  0  0  0  0  0  0  0  0  0  0
    6.8210  -14.3850   -3.0810 C   0  0  0  0  0  0  0  0  0  0  0  0
    7.0500  -14.0310   -4.4210 C   0  0  0  0  0  0  0  0  0  0  0  0
    6.0100  -13.9020   -5.3550 C   0  0  0  0  0  0  0  0  0  0  0  0
    6.3730  -13.5480   -6.6720 N   0  0  0  0  0  0  0  0  0  0  0  0
    6.7640  -14.3920   -7.6940 C   0  0  0  0  0  0  0  0  0  0  0  0
    6.7900  -15.6160   -7.6710 O   0  0  0  0  0  0  0  0  0  0  0  0
    7.1570  -13.7050   -8.9580 C   0  0  0  0  0  0  0  0  0  0  0  0
    7.8900  -14.4250   -9.9070 C   0  0  0  0  0  0  0  0  0  0  0  0
    8.2840  -13.8190  -11.1000 C   0  0  0  0  0  0  0  0  0  0  0  0
    7.9540  -12.4850  -11.3460 C   0  0  0  0  0  0  0  0  0  0  0  0
    7.2270  -11.7430  -10.4010 C   0  0  0  0  0  0  0  0  0  0  0  0
    6.9050  -10.2880  -10.6500 C   0  0  0  0  0  0  0  0  0  0  0  0
    6.6150   -9.6110   -9.5050 F   0  0  0  0  0  0  0  0  0  0  0  0
    7.9380   -9.6210  -11.2300 F   0  0  0  0  0  0  0  0  0  0  0  0
    5.8320  -10.1080  -11.4690 F   0  0  0  0  0  0  0  0  0  0  0  0
    6.8410  -12.3600   -9.1980 C   0  0  0  0  0  0  0  0  0  0  0  0
    4.7050  -14.1350   -4.9430 C   0  0  0  0  0  0  0  0  0  0  0  0
    4.4440  -14.4870   -3.6180 C   0  0  0  0  0  0  0  0  0  0  0  0
    5.4840  -14.6180   -2.6820 C   0  0  0  0  0  0  0  0  0  0  0  0
    5.1260  -15.0080   -1.2720 C   0  0  0  0  0  0  0  0  0  0  0  0
   10.0470  -13.7400   -2.8070 N   0  0  0  0  0  0  0  0  0  0  0  0
   10.9660  -12.9410   -2.1960 C   0  0  0  0  0  0  0  0  0  0  0  0
   12.2570  -12.6070   -2.6370 C   0  0  0  0  0  0  0  0  0  0  0  0
   13.0750  -11.8270   -1.8180 C   0  0  0  0  0  0  0  0  0  0  0  0
   12.6230  -11.4030   -0.5720 C   0  0  0  0  0  0  0  0  0  0  0  0
   11.3350  -11.7210   -0.1210 C   0  0  0  0  0  0  0  0  0  0  0  0
   10.4980  -12.4660   -0.9740 C   0  0  0  0  0  0  0  0  0  0  0  0
    7.6130  -13.7120    0.7330 N   0  0  0  0  0  0  0  0  0  0  0  0
    6.6920  -13.4060    1.6560 C   0  0  0  0  0  0  0  0  0  0  0  0
    6.2910  -12.1760    1.9930 N   0  0  0  0  0  0  0  0  0  0  0  0
    7.7782   -6.8761    4.6913 H   0  0  0  0  0  0  0  0  0  0  0  0
    8.5320   -7.6651    3.2644 H   0  0  0  0  0  0  0  0  0  0  0  0
    8.2481   -5.8913    3.2644 H   0  0  0  0  0  0  0  0  0  0  0  0
    5.6447   -7.4697    1.2069 H   0  0  0  0  0  0  0  0  0  0  0  0
    7.2205   -6.6187    1.1040 H   0  0  0  0  0  0  0  0  0  0  0  0
    7.8609   -8.7852    0.4963 H   0  0  0  0  0  0  0  0  0  0  0  0
    8.1156   -8.8416    2.2862 H   0  0  0  0  0  0  0  0  0  0  0  0
    5.4900   -9.6260    1.2920 H   0  0  0  0  0  0  0  0  0  0  0  0
    8.2576  -10.5171   -0.1890 H   0  0  0  0  0  0  0  0  0  0  0  0
    7.7440  -15.2970   -1.4900 H   0  0  0  0  0  0  0  0  0  0  0  0
    8.0833  -13.8480   -4.7509 H   0  0  0  0  0  0  0  0  0  0  0  0
    6.2960  -12.5610   -6.8830 H   0  0  0  0  0  0  0  0  0  0  0  0
    8.1570  -15.4741   -9.7116 H   0  0  0  0  0  0  0  0  0  0  0  0
    8.8542  -14.3917  -11.8463 H   0  0  0  0  0  0  0  0  0  0  0  0
    8.2662  -12.0110  -12.2883 H   0  0  0  0  0  0  0  0  0  0  0  0
    6.2881  -11.7845   -8.4409 H   0  0  0  0  0  0  0  0  0  0  0  0
    3.8767  -14.0422   -5.6608 H   0  0  0  0  0  0  0  0  0  0  0  0
    3.4059  -14.6650   -3.3007 H   0  0  0  0  0  0  0  0  0  0  0  0
    5.6954  -14.3877   -0.5642 H   0  0  0  0  0  0  0  0  0  0  0  0
    4.0489  -14.8532   -1.1110 H   0  0  0  0  0  0  0  0  0  0  0  0
    5.3722  -16.0679   -1.1110 H   0  0  0  0  0  0  0  0  0  0  0  0
   12.6189  -12.9557   -3.6155 H   0  0  0  0  0  0  0  0  0  0  0  0
   14.0823  -11.5460   -2.1593 H   0  0  0  0  0  0  0  0  0  0  0  0
   13.2886  -10.8076    0.0703 H   0  0  0  0  0  0  0  0  0  0  0  0
   10.9875  -11.3978    0.8714 H   0  0  0  0  0  0  0  0  0  0  0  0
    6.2209  -14.2463    2.1871 H   0  0  0  0  0  0  0  0  0  0  0  0
  1  2  1  0
  2  3  1  0
  3  4  1  0
  4  5  1  0
  5  6  1  0
  6  7  2  0
  7  8  1  0
  8  9  1  0
  9 10  1  0
 10 11  1  0
 11 12  1  0
 12 13  2  0
 13 14  1  0
 14 15  1  0
 15 16  1  0
 16 17  2  0
 16 18  1  0
 18 19  2  0
 19 20  1  0
 20 21  2  0
 21 22  1  0
 22 23  1  0
 23 24  1  0
 23 25  1  0
 23 26  1  0
 22 27  2  0
 14 28  2  0
 28 29  1  0
 29 30  2  0
 30 31  1  0
 10 32  2  0
 32 33  1  0
 33 34  2  0
 34 35  1  0
 35 36  2  0
 36 37  1  0
 37 38  2  0
  8 39  2  0
 39 40  1  0
 40 41  2  0
 41  6  1  0
 38  9  1  0
 30 12  1  0
 38 33  1  0
 27 18  1  0
  1 42  1  0
  1 43  1  0
  1 44  1  0
  3 45  1  0
  3 46  1  0
  4 47  1  0
  4 48  1  0
  5 49  1  0
  7 50  1  0
 11 51  1  0
 13 52  1  0
 15 53  1  0
 19 54  1  0
 20 55  1  0
 21 56  1  0
 27 57  1  0
 28 58  1  0
 29 59  1  0
 31 60  1  0
 31 61  1  0
 31 62  1  0
 34 63  1  0
 35 64  1  0
 36 65  1  0
 37 66  1  0
 40 67  1  0
M  END
>  <meeko>  (2) 
{"is_sidechain": [false], "free_energy": -8.977, "intermolecular_energy": -14.523, "internal_energy": -1.907}

$$$$
LIB_WLXHZMYOVDOALX__M_PUB_ALL__e8__s20260927
     RDKit          3D

 67 71  0  0  0  0  0  0  0  0999 V2000
   10.7830  -16.6080   -7.0620 C   0  0  0  0  0  0  0  0  0  0  0  0
   10.3370  -15.3660   -6.5330 O   0  0  0  0  0  0  0  0  0  0  0  0
   10.9380  -14.2590   -7.2220 C   0  0  0  0  0  0  0  0  0  0  0  0
   12.4580  -14.4600   -7.2680 C   0  0  0  0  0  0  0  0  0  0  0  0
   13.1050  -13.8390   -6.1180 N   0  0  0  0  0  0  0  0  0  0  0  0
   12.9610  -14.3970   -4.8570 C   0  0  0  0  0  0  0  0  0  0  0  0
   12.3220  -13.6600   -3.8760 C   0  0  0  0  0  0  0  0  0  0  0  0
   12.2250  -14.2170   -2.6150 C   0  0  0  0  0  0  0  0  0  0  0  0
   11.5640  -13.5130   -1.5520 N   0  0  0  0  0  0  0  0  0  0  0  0
   10.3390  -13.8870   -0.9710 C   0  0  0  0  0  0  0  0  0  0  0  0
    9.6160  -14.9240   -1.4720 N   0  0  0  0  0  0  0  0  0  0  0  0
    8.4050  -14.9180   -2.2000 C   0  0  0  0  0  0  0  0  0  0  0  0
    8.3650  -14.8030   -3.6000 C   0  0  0  0  0  0  0  0  0  0  0  0
    7.1630  -14.8080   -4.3230 C   0  0  0  0  0  0  0  0  0  0  0  0
    7.2590  -14.6930   -5.7270 N   0  0  0  0  0  0  0  0  0  0  0  0
    6.9250  -15.6410   -6.6740 C   0  0  0  0  0  0  0  0  0  0  0  0
    6.4040  -16.7320   -6.4760 O   0  0  0  0  0  0  0  0  0  0  0  0
    7.2110  -15.2460   -8.0840 C   0  0  0  0  0  0  0  0  0  0  0  0
    7.6030  -16.2400   -8.9870 C   0  0  0  0  0  0  0  0  0  0  0  0
    7.8870  -15.9120  -10.3130 C   0  0  0  0  0  0  0  0  0  0  0  0
    7.7890  -14.5860  -10.7400 C   0  0  0  0  0  0  0  0  0  0  0  0
    7.4070  -13.5740   -9.8450 C   0  0  0  0  0  0  0  0  0  0  0  0
    7.3400  -12.1350  -10.2980 C   0  0  0  0  0  0  0  0  0  0  0  0
    6.8900  -11.2980   -9.3230 F   0  0  0  0  0  0  0  0  0  0  0  0
    8.5550  -11.6540  -10.6750 F   0  0  0  0  0  0  0  0  0  0  0  0
    6.5120  -11.9440  -11.3620 F   0  0  0  0  0  0  0  0  0  0  0  0
    7.1300  -13.9120   -8.5090 C   0  0  0  0  0  0  0  0  0  0  0  0
    5.9640  -14.9320   -3.6320 C   0  0  0  0  0  0  0  0  0  0  0  0
    5.9690  -15.0460   -2.2420 C   0  0  0  0  0  0  0  0  0  0  0  0
    7.1730  -15.0440   -1.5160 C   0  0  0  0  0  0  0  0  0  0  0  0
    7.1000  -15.1780   -0.0180 C   0  0  0  0  0  0  0  0  0  0  0  0
   10.0730  -13.1380    0.0780 N   0  0  0  0  0  0  0  0  0  0  0  0
   11.0520  -12.1930    0.1350 C   0  0  0  0  0  0  0  0  0  0  0  0
   11.1830  -11.1300    1.0450 C   0  0  0  0  0  0  0  0  0  0  0  0
   12.2290  -10.2200    0.8820 C   0  0  0  0  0  0  0  0  0  0  0  0
   13.1170  -10.3540   -0.1810 C   0  0  0  0  0  0  0  0  0  0  0  0
   13.0050  -11.4110   -1.0930 C   0  0  0  0  0  0  0  0  0  0  0  0
   11.9780  -12.3530   -0.8920 C   0  0  0  0  0  0  0  0  0  0  0  0
   12.7880  -15.4150   -2.3240 N   0  0  0  0  0  0  0  0  0  0  0  0
   13.3910  -16.0450   -3.3400 C   0  0  0  0  0  0  0  0  0  0  0  0
   13.5000  -15.5950   -4.5940 N   0  0  0  0  0  0  0  0  0  0  0  0
   11.0284  -17.2915   -6.2358 H   0  0  0  0  0  0  0  0  0  0  0  0
    9.9875  -17.0503   -7.6797 H   0  0  0  0  0  0  0  0  0  0  0  0
   11.6781  -16.4432   -7.6797 H   0  0  0  0  0  0  0  0  0  0  0  0
   10.5427  -14.2050   -8.2471 H   0  0  0  0  0  0  0  0  0  0  0  0
   10.7044  -13.3232   -6.6932 H   0  0  0  0  0  0  0  0  0  0  0  0
   12.6781  -15.5378   -7.2653 H   0  0  0  0  0  0  0  0  0  0  0  0
   12.8451  -13.9885   -8.1833 H   0  0  0  0  0  0  0  0  0  0  0  0
   13.1380  -12.8260   -6.1640 H   0  0  0  0  0  0  0  0  0  0  0  0
   11.9055  -12.6651   -4.0922 H   0  0  0  0  0  0  0  0  0  0  0  0
   10.0060  -15.8530   -1.3180 H   0  0  0  0  0  0  0  0  0  0  0  0
    9.3126  -14.7053   -4.1500 H   0  0  0  0  0  0  0  0  0  0  0  0
    7.5780  -13.7910   -6.0580 H   0  0  0  0  0  0  0  0  0  0  0  0
    7.6876  -17.2838   -8.6504 H   0  0  0  0  0  0  0  0  0  0  0  0
    8.1880  -16.6975  -11.0218 H   0  0  0  0  0  0  0  0  0  0  0  0
    8.0130  -14.3322  -11.7866 H   0  0  0  0  0  0  0  0  0  0  0  0
    6.8482  -13.1259   -7.7930 H   0  0  0  0  0  0  0  0  0  0  0  0
    5.0109  -14.9403   -4.1812 H   0  0  0  0  0  0  0  0  0  0  0  0
    5.0140  -15.1391   -1.7042 H   0  0  0  0  0  0  0  0  0  0  0  0
    7.5758  -14.3046    0.4519 H   0  0  0  0  0  0  0  0  0  0  0  0
    6.0467  -15.2340    0.2942 H   0  0  0  0  0  0  0  0  0  0  0  0
    7.6241  -16.0933    0.2942 H   0  0  0  0  0  0  0  0  0  0  0  0
   10.4703  -11.0165    1.8752 H   0  0  0  0  0  0  0  0  0  0  0  0
   12.3518   -9.3932    1.5971 H   0  0  0  0  0  0  0  0  0  0  0  0
   13.9224   -9.6155   -0.3074 H   0  0  0  0  0  0  0  0  0  0  0  0
   13.6990  -11.5026   -1.9415 H   0  0  0  0  0  0  0  0  0  0  0  0
   13.8391  -17.0257   -3.1222 H   0  0  0  0  0  0  0  0  0  0  0  0
  1  2  1  0
  2  3  1  0
  3  4  1  0
  4  5  1  0
  5  6  1  0
  6  7  2  0
  7  8  1  0
  8  9  1  0
  9 10  1  0
 10 11  1  0
 11 12  1  0
 12 13  2  0
 13 14  1  0
 14 15  1  0
 15 16  1  0
 16 17  2  0
 16 18  1  0
 18 19  2  0
 19 20  1  0
 20 21  2  0
 21 22  1  0
 22 23  1  0
 23 24  1  0
 23 25  1  0
 23 26  1  0
 22 27  2  0
 14 28  2  0
 28 29  1  0
 29 30  2  0
 30 31  1  0
 10 32  2  0
 32 33  1  0
 33 34  2  0
 34 35  1  0
 35 36  2  0
 36 37  1  0
 37 38  2  0
  8 39  2  0
 39 40  1  0
 40 41  2  0
 41  6  1  0
 38  9  1  0
 30 12  1  0
 38 33  1  0
 27 18  1  0
  1 42  1  0
  1 43  1  0
  1 44  1  0
  3 45  1  0
  3 46  1  0
  4 47  1  0
  4 48  1  0
  5 49  1  0
  7 50  1  0
 11 51  1  0
 13 52  1  0
 15 53  1  0
 19 54  1  0
 20 55  1  0
 21 56  1  0
 27 57  1  0
 28 58  1  0
 29 59  1  0
 31 60  1  0
 31 61  1  0
 31 62  1  0
 34 63  1  0
 35 64  1  0
 36 65  1  0
 37 66  1  0
 40 67  1  0
M  END
>  <meeko>  (3) 
{"is_sidechain": [false], "free_energy": -8.736, "intermolecular_energy": -13.065, "internal_energy": -2.982}

$$$$
LIB_WLXHZMYOVDOALX__M_PUB_ALL__e8__s20260927
     RDKit          3D

 67 71  0  0  0  0  0  0  0  0999 V2000
    7.7230   -6.6310    4.0970 C   0  0  0  0  0  0  0  0  0  0  0  0
    6.7420   -7.2510    3.2770 O   0  0  0  0  0  0  0  0  0  0  0  0
    7.0720   -7.1290    1.8850 C   0  0  0  0  0  0  0  0  0  0  0  0
    7.4040   -8.5180    1.3230 C   0  0  0  0  0  0  0  0  0  0  0  0
    6.5160   -9.5340    1.8770 N   0  0  0  0  0  0  0  0  0  0  0  0
    6.4790  -10.8010    1.3170 C   0  0  0  0  0  0  0  0  0  0  0  0
    7.1060  -11.0070    0.1020 C   0  0  0  0  0  0  0  0  0  0  0  0
    7.0220  -12.2670   -0.4590 C   0  0  0  0  0  0  0  0  0  0  0  0
    7.6590  -12.5540   -1.7140 N   0  0  0  0  0  0  0  0  0  0  0  0
    7.2230  -12.0920   -2.9690 C   0  0  0  0  0  0  0  0  0  0  0  0
    6.0580  -11.4010   -3.0930 N   0  0  0  0  0  0  0  0  0  0  0  0
    4.7260  -11.8710   -3.1380 C   0  0  0  0  0  0  0  0  0  0  0  0
    3.8680  -11.8140   -2.0270 C   0  0  0  0  0  0  0  0  0  0  0  0
    2.5410  -12.2700   -2.0750 C   0  0  0  0  0  0  0  0  0  0  0  0
    1.7800  -12.1510   -0.8920 N   0  0  0  0  0  0  0  0  0  0  0  0
    1.4320  -13.1560   -0.0100 C   0  0  0  0  0  0  0  0  0  0  0  0
    1.7900  -14.3260   -0.0450 O   0  0  0  0  0  0  0  0  0  0  0  0
    0.5540  -12.7240    1.1160 C   0  0  0  0  0  0  0  0  0  0  0  0
    0.3290  -13.6200    2.1670 C   0  0  0  0  0  0  0  0  0  0  0  0
   -0.4910  -13.2590    3.2350 C   0  0  0  0  0  0  0  0  0  0  0  0
   -1.0990  -12.0020    3.2540 C   0  0  0  0  0  0  0  0  0  0  0  0
   -0.8940  -11.0940    2.2040 C   0  0  0  0  0  0  0  0  0  0  0  0
   -1.5830   -9.7500    2.2060 C   0  0  0  0  0  0  0  0  0  0  0  0
   -2.2320   -9.4910    1.0370 F   0  0  0  0  0  0  0  0  0  0  0  0
   -2.5210   -9.6500    3.1870 F   0  0  0  0  0  0  0  0  0  0  0  0
   -0.7280   -8.7070    2.3950 F   0  0  0  0  0  0  0  0  0  0  0  0
   -0.0710  -11.4690    1.1280 C   0  0  0  0  0  0  0  0  0  0  0  0
    2.0550  -12.7960   -3.2640 C   0  0  0  0  0  0  0  0  0  0  0  0
    2.8820  -12.8680   -4.3850 C   0  0  0  0  0  0  0  0  0  0  0  0
    4.2110  -12.4100   -4.3390 C   0  0  0  0  0  0  0  0  0  0  0  0
    5.0410  -12.5140   -5.5910 C   0  0  0  0  0  0  0  0  0  0  0  0
    8.0980  -12.3920   -3.9050 N   0  0  0  0  0  0  0  0  0  0  0  0
    9.0590  -13.1490   -3.3070 C   0  0  0  0  0  0  0  0  0  0  0  0
   10.1810  -13.7560   -3.8960 C   0  0  0  0  0  0  0  0  0  0  0  0
   11.0090  -14.5610   -3.1120 C   0  0  0  0  0  0  0  0  0  0  0  0
   10.7140  -14.7760   -1.7690 C   0  0  0  0  0  0  0  0  0  0  0  0
    9.6030  -14.1740   -1.1650 C   0  0  0  0  0  0  0  0  0  0  0  0
    8.8010  -13.3220   -1.9490 C   0  0  0  0  0  0  0  0  0  0  0  0
    6.2990  -13.2560    0.1230 N   0  0  0  0  0  0  0  0  0  0  0  0
    5.7230  -12.9530    1.2930 C   0  0  0  0  0  0  0  0  0  0  0  0
    5.7830  -11.7740    1.9200 N   0  0  0  0  0  0  0  0  0  0  0  0
    7.4702   -6.7908    5.1556 H   0  0  0  0  0  0  0  0  0  0  0  0
    8.7089   -7.0704    3.8851 H   0  0  0  0  0  0  0  0  0  0  0  0
    7.7493   -5.5519    3.8851 H   0  0  0  0  0  0  0  0  0  0  0  0
    6.2156   -6.7061    1.3393 H   0  0  0  0  0  0  0  0  0  0  0  0
    7.9408   -6.4647    1.7674 H   0  0  0  0  0  0  0  0  0  0  0  0
    7.2907   -8.4995    0.2290 H   0  0  0  0  0  0  0  0  0  0  0  0
    8.4385   -8.7691    1.6000 H   0  0  0  0  0  0  0  0  0  0  0  0
    5.6360   -9.1650    2.2220 H   0  0  0  0  0  0  0  0  0  0  0  0
    7.6529  -10.1957   -0.4007 H   0  0  0  0  0  0  0  0  0  0  0  0
    6.1460  -10.3880   -3.1490 H   0  0  0  0  0  0  0  0  0  0  0  0
    4.2503  -11.3963   -1.0839 H   0  0  0  0  0  0  0  0  0  0  0  0
    1.4960  -11.2070   -0.6620 H   0  0  0  0  0  0  0  0  0  0  0  0
    0.8011  -14.6134    2.1504 H   0  0  0  0  0  0  0  0  0  0  0  0
   -0.6590  -13.9640    4.0625 H   0  0  0  0  0  0  0  0  0  0  0  0
   -1.7443  -11.7212    4.0995 H   0  0  0  0  0  0  0  0  0  0  0  0
    0.0837  -10.7734    0.2900 H   0  0  0  0  0  0  0  0  0  0  0  0
    1.0173  -13.1562   -3.3223 H   0  0  0  0  0  0  0  0  0  0  0  0
    2.4879  -13.2903   -5.3212 H   0  0  0  0  0  0  0  0  0  0  0  0
    6.0988  -12.6465   -5.3197 H   0  0  0  0  0  0  0  0  0  0  0  0
    4.7036  -13.3769   -6.1840 H   0  0  0  0  0  0  0  0  0  0  0  0
    4.9270  -11.5945   -6.1840 H   0  0  0  0  0  0  0  0  0  0  0  0
   10.4041  -13.5988   -4.9616 H   0  0  0  0  0  0  0  0  0  0  0  0
   11.8995  -15.0280   -3.5580 H   0  0  0  0  0  0  0  0  0  0  0  0
   11.3652  -15.4306   -1.1711 H   0  0  0  0  0  0  0  0  0  0  0  0
    9.3635  -14.3614   -0.1079 H   0  0  0  0  0  0  0  0  0  0  0  0
    5.1457  -13.7497    1.7849 H   0  0  0  0  0  0  0  0  0  0  0  0
  1  2  1  0
  2  3  1  0
  3  4  1  0
  4  5  1  0
  5  6  1  0
  6  7  2  0
  7  8  1  0
  8  9  1  0
  9 10  1  0
 10 11  1  0
 11 12  1  0
 12 13  2  0
 13 14  1  0
 14 15  1  0
 15 16  1  0
 16 17  2  0
 16 18  1  0
 18 19  2  0
 19 20  1  0
 20 21  2  0
 21 22  1  0
 22 23  1  0
 23 24  1  0
 23 25  1  0
 23 26  1  0
 22 27  2  0
 14 28  2  0
 28 29  1  0
 29 30  2  0
 30 31  1  0
 10 32  2  0
 32 33  1  0
 33 34  2  0
 34 35  1  0
 35 36  2  0
 36 37  1  0
 37 38  2  0
  8 39  2  0
 39 40  1  0
 40 41  2  0
 41  6  1  0
 38  9  1  0
 30 12  1  0
 38 33  1  0
 27 18  1  0
  1 42  1  0
  1 43  1  0
  1 44  1  0
  3 45  1  0
  3 46  1  0
  4 47  1  0
  4 48  1  0
  5 49  1  0
  7 50  1  0
 11 51  1  0
 13 52  1  0
 15 53  1  0
 19 54  1  0
 20 55  1  0
 21 56  1  0
 27 57  1  0
 28 58  1  0
 29 59  1  0
 31 60  1  0
 31 61  1  0
 31 62  1  0
 34 63  1  0
 35 64  1  0
 36 65  1  0
 37 66  1  0
 40 67  1  0
M  END
>  <meeko>  (4) 
{"is_sidechain": [false], "free_energy": -8.623, "intermolecular_energy": -13.989, "internal_energy": -1.879}

$$$$
LIB_WLXHZMYOVDOALX__M_PUB_ALL__e8__s20260927
     RDKit          3D

 67 71  0  0  0  0  0  0  0  0999 V2000
   11.1090  -12.1420    1.0140 C   0  0  0  0  0  0  0  0  0  0  0  0
   10.2740  -12.9980    0.2450 O   0  0  0  0  0  0  0  0  0  0  0  0
   10.2340  -12.5910   -1.1310 C   0  0  0  0  0  0  0  0  0  0  0  0
    8.7940  -12.7070   -1.6470 C   0  0  0  0  0  0  0  0  0  0  0  0
    7.9330  -11.7040   -1.0320 N   0  0  0  0  0  0  0  0  0  0  0  0
    6.7740  -12.0920   -0.3780 C   0  0  0  0  0  0  0  0  0  0  0  0
    6.1020  -13.2140   -0.8310 C   0  0  0  0  0  0  0  0  0  0  0  0
    4.9270  -13.5600   -0.1920 C   0  0  0  0  0  0  0  0  0  0  0  0
    4.1840  -14.7190   -0.6020 N   0  0  0  0  0  0  0  0  0  0  0  0
    3.0860  -14.7080   -1.4810 C   0  0  0  0  0  0  0  0  0  0  0  0
    2.5670  -13.5360   -1.9360 N   0  0  0  0  0  0  0  0  0  0  0  0
    2.9470  -12.7440   -3.0430 C   0  0  0  0  0  0  0  0  0  0  0  0
    3.6720  -13.2640   -4.1290 C   0  0  0  0  0  0  0  0  0  0  0  0
    4.0410  -12.4800   -5.2330 C   0  0  0  0  0  0  0  0  0  0  0  0
    4.7620  -13.1230   -6.2630 N   0  0  0  0  0  0  0  0  0  0  0  0
    6.0680  -13.5710   -6.2220 C   0  0  0  0  0  0  0  0  0  0  0  0
    6.8210  -13.5680   -5.2560 O   0  0  0  0  0  0  0  0  0  0  0  0
    6.5720  -14.1470   -7.5030 C   0  0  0  0  0  0  0  0  0  0  0  0
    7.0380  -15.4660   -7.5010 C   0  0  0  0  0  0  0  0  0  0  0  0
    7.5250  -16.0410   -8.6750 C   0  0  0  0  0  0  0  0  0  0  0  0
    7.5560  -15.2960   -9.8550 C   0  0  0  0  0  0  0  0  0  0  0  0
    7.1030  -13.9670   -9.8740 C   0  0  0  0  0  0  0  0  0  0  0  0
    7.1750  -13.1500  -11.1410 C   0  0  0  0  0  0  0  0  0  0  0  0
    8.4430  -12.7550  -11.4410 F   0  0  0  0  0  0  0  0  0  0  0  0
    6.7280  -13.8370  -12.2270 F   0  0  0  0  0  0  0  0  0  0  0  0
    6.4340  -12.0080  -11.0870 F   0  0  0  0  0  0  0  0  0  0  0  0
    6.6210  -13.3940   -8.6840 C   0  0  0  0  0  0  0  0  0  0  0  0
    3.6750  -11.1410   -5.2580 C   0  0  0  0  0  0  0  0  0  0  0  0
    2.9560  -10.5940   -4.1950 C   0  0  0  0  0  0  0  0  0  0  0  0
    2.5850  -11.3780   -3.0890 C   0  0  0  0  0  0  0  0  0  0  0  0
    1.8040  -10.7200   -1.9820 C   0  0  0  0  0  0  0  0  0  0  0  0
    2.7190  -15.9350   -1.7840 N   0  0  0  0  0  0  0  0  0  0  0  0
    3.4890  -16.7650   -1.0260 C   0  0  0  0  0  0  0  0  0  0  0  0
    3.4420  -18.1670   -0.9510 C   0  0  0  0  0  0  0  0  0  0  0  0
    4.2740  -18.8280   -0.0460 C   0  0  0  0  0  0  0  0  0  0  0  0
    5.1250  -18.1040    0.7850 C   0  0  0  0  0  0  0  0  0  0  0  0
    5.1890  -16.7060    0.7180 C   0  0  0  0  0  0  0  0  0  0  0  0
    4.3830  -16.0500   -0.2330 C   0  0  0  0  0  0  0  0  0  0  0  0
    4.4100  -12.7990    0.8030 N   0  0  0  0  0  0  0  0  0  0  0  0
    5.1310  -11.7290    1.1620 C   0  0  0  0  0  0  0  0  0  0  0  0
    6.2920  -11.3430    0.6220 N   0  0  0  0  0  0  0  0  0  0  0  0
   10.9326  -12.3228    2.0846 H   0  0  0  0  0  0  0  0  0  0  0  0
   12.1631  -12.3476    0.7762 H   0  0  0  0  0  0  0  0  0  0  0  0
   10.8773  -11.0933    0.7762 H   0  0  0  0  0  0  0  0  0  0  0  0
   10.5731  -11.5481   -1.2167 H   0  0  0  0  0  0  0  0  0  0  0  0
   10.8948  -13.2369   -1.7279 H   0  0  0  0  0  0  0  0  0  0  0  0
    8.7906  -12.5632   -2.7376 H   0  0  0  0  0  0  0  0  0  0  0  0
    8.4092  -13.7042   -1.3869 H   0  0  0  0  0  0  0  0  0  0  0  0
    7.8930  -10.8290   -1.5440 H   0  0  0  0  0  0  0  0  0  0  0  0
    6.4900  -13.8095   -1.6706 H   0  0  0  0  0  0  0  0  0  0  0  0
    1.7720  -13.1690   -1.4140 H   0  0  0  0  0  0  0  0  0  0  0  0
    3.9610  -14.3252   -4.1130 H   0  0  0  0  0  0  0  0  0  0  0  0
    4.2320  -13.2990   -7.1070 H   0  0  0  0  0  0  0  0  0  0  0  0
    7.0204  -16.0520   -6.5702 H   0  0  0  0  0  0  0  0  0  0  0  0
    7.8843  -17.0807   -8.6708 H   0  0  0  0  0  0  0  0  0  0  0  0
    7.9389  -15.7543  -10.7788 H   0  0  0  0  0  0  0  0  0  0  0  0
    6.2802  -12.3481   -8.6799 H   0  0  0  0  0  0  0  0  0  0  0  0
    3.9520  -10.5112   -6.1163 H   0  0  0  0  0  0  0  0  0  0  0  0
    2.6746   -9.5310   -4.2229 H   0  0  0  0  0  0  0  0  0  0  0  0
    2.1968  -11.0510   -1.0093 H   0  0  0  0  0  0  0  0  0  0  0  0
    1.9011   -9.6274   -2.0641 H   0  0  0  0  0  0  0  0  0  0  0  0
    0.7437  -11.0011   -2.0641 H   0  0  0  0  0  0  0  0  0  0  0  0
    2.7581  -18.7367   -1.5973 H   0  0  0  0  0  0  0  0  0  0  0  0
    4.2573  -19.9264    0.0110 H   0  0  0  0  0  0  0  0  0  0  0  0
    5.7586  -18.6395    1.5073 H   0  0  0  0  0  0  0  0  0  0  0  0
    5.8496  -16.1370    1.3887 H   0  0  0  0  0  0  0  0  0  0  0  0
    4.7305  -11.1093    1.9778 H   0  0  0  0  0  0  0  0  0  0  0  0
  1  2  1  0
  2  3  1  0
  3  4  1  0
  4  5  1  0
  5  6  1  0
  6  7  2  0
  7  8  1  0
  8  9  1  0
  9 10  1  0
 10 11  1  0
 11 12  1  0
 12 13  2  0
 13 14  1  0
 14 15  1  0
 15 16  1  0
 16 17  2  0
 16 18  1  0
 18 19  2  0
 19 20  1  0
 20 21  2  0
 21 22  1  0
 22 23  1  0
 23 24  1  0
 23 25  1  0
 23 26  1  0
 22 27  2  0
 14 28  2  0
 28 29  1  0
 29 30  2  0
 30 31  1  0
 10 32  2  0
 32 33  1  0
 33 34  2  0
 34 35  1  0
 35 36  2  0
 36 37  1  0
 37 38  2  0
  8 39  2  0
 39 40  1  0
 40 41  2  0
 41  6  1  0
 38  9  1  0
 30 12  1  0
 38 33  1  0
 27 18  1  0
  1 42  1  0
  1 43  1  0
  1 44  1  0
  3 45  1  0
  3 46  1  0
  4 47  1  0
  4 48  1  0
  5 49  1  0
  7 50  1  0
 11 51  1  0
 13 52  1  0
 15 53  1  0
 19 54  1  0
 20 55  1  0
 21 56  1  0
 27 57  1  0
 28 58  1  0
 29 59  1  0
 31 60  1  0
 31 61  1  0
 31 62  1  0
 34 63  1  0
 35 64  1  0
 36 65  1  0
 37 66  1  0
 40 67  1  0
M  END
>  <meeko>  (5) 
{"is_sidechain": [false], "free_energy": -8.553, "intermolecular_energy": -13.49, "internal_energy": -2.268}

$$$$
LIB_WLXHZMYOVDOALX__M_PUB_ALL__e8__s20260927
     RDKit          3D

 67 71  0  0  0  0  0  0  0  0999 V2000
    7.3540  -10.6150    0.8770 C   0  0  0  0  0  0  0  0  0  0  0  0
    6.4250  -11.2830    1.7200 O   0  0  0  0  0  0  0  0  0  0  0  0
    5.6560  -12.2500    0.9870 C   0  0  0  0  0  0  0  0  0  0  0  0
    6.3050  -13.6310    1.1430 C   0  0  0  0  0  0  0  0  0  0  0  0
    6.2640  -14.3750   -0.1110 N   0  0  0  0  0  0  0  0  0  0  0  0
    7.4150  -14.9710   -0.6020 C   0  0  0  0  0  0  0  0  0  0  0  0
    8.4170  -14.1610   -1.1050 C   0  0  0  0  0  0  0  0  0  0  0  0
    9.5380  -14.7770   -1.6270 C   0  0  0  0  0  0  0  0  0  0  0  0
   10.6220  -13.9980   -2.1560 N   0  0  0  0  0  0  0  0  0  0  0  0
   11.0530  -14.0130   -3.4960 C   0  0  0  0  0  0  0  0  0  0  0  0
   10.5170  -14.8840   -4.3920 N   0  0  0  0  0  0  0  0  0  0  0  0
    9.3110  -14.8030   -5.1250 C   0  0  0  0  0  0  0  0  0  0  0  0
    8.2180  -14.0300   -4.6980 C   0  0  0  0  0  0  0  0  0  0  0  0
    7.0250  -13.9420   -5.4310 C   0  0  0  0  0  0  0  0  0  0  0  0
    6.0040  -13.1260   -4.8970 N   0  0  0  0  0  0  0  0  0  0  0  0
    5.1420  -13.4260   -3.8600 C   0  0  0  0  0  0  0  0  0  0  0  0
    5.1570  -14.4270   -3.1540 O   0  0  0  0  0  0  0  0  0  0  0  0
    4.1180  -12.3800   -3.5740 C   0  0  0  0  0  0  0  0  0  0  0  0
    3.9520  -11.3420   -4.4970 C   0  0  0  0  0  0  0  0  0  0  0  0
    3.0110  -10.3390   -4.2640 C   0  0  0  0  0  0  0  0  0  0  0  0
    2.2370  -10.3650   -3.1030 C   0  0  0  0  0  0  0  0  0  0  0  0
    2.3970  -11.3930   -2.1600 C   0  0  0  0  0  0  0  0  0  0  0  0
    1.5880  -11.3980   -0.8850 C   0  0  0  0  0  0  0  0  0  0  0  0
    2.3670  -11.4180    0.2320 F   0  0  0  0  0  0  0  0  0  0  0  0
    0.7940  -10.2990   -0.7710 F   0  0  0  0  0  0  0  0  0  0  0  0
    0.7590  -12.4740   -0.7780 F   0  0  0  0  0  0  0  0  0  0  0  0
    3.3530  -12.3950   -2.3990 C   0  0  0  0  0  0  0  0  0  0  0  0
    6.9180  -14.6410   -6.6260 C   0  0  0  0  0  0  0  0  0  0  0  0
    7.9840  -15.4190   -7.0770 C   0  0  0  0  0  0  0  0  0  0  0  0
    9.1810  -15.5070   -6.3440 C   0  0  0  0  0  0  0  0  0  0  0  0
   10.2910  -16.3610   -6.8980 C   0  0  0  0  0  0  0  0  0  0  0  0
   11.9590  -13.0810   -3.7040 N   0  0  0  0  0  0  0  0  0  0  0  0
   12.2210  -12.5200   -2.4910 C   0  0  0  0  0  0  0  0  0  0  0  0
   13.1530  -11.5160   -2.1810 C   0  0  0  0  0  0  0  0  0  0  0  0
   13.3200  -11.1310   -0.8500 C   0  0  0  0  0  0  0  0  0  0  0  0
   12.5860  -11.7490    0.1590 C   0  0  0  0  0  0  0  0  0  0  0  0
   11.6480  -12.7470   -0.1350 C   0  0  0  0  0  0  0  0  0  0  0  0
   11.4480  -13.0940   -1.4850 C   0  0  0  0  0  0  0  0  0  0  0  0
    9.6350  -16.1270   -1.7040 N   0  0  0  0  0  0  0  0  0  0  0  0
    8.6080  -16.8210   -1.1970 C   0  0  0  0  0  0  0  0  0  0  0  0
    7.5050  -16.3070   -0.6450 N   0  0  0  0  0  0  0  0  0  0  0  0
    8.0931  -10.0835    1.4945 H   0  0  0  0  0  0  0  0  0  0  0  0
    7.8683  -11.3514    0.2420 H   0  0  0  0  0  0  0  0  0  0  0  0
    6.8196   -9.8930    0.2420 H   0  0  0  0  0  0  0  0  0  0  0  0
    4.6293  -12.2790    1.3808 H   0  0  0  0  0  0  0  0  0  0  0  0
    5.6285  -11.9718   -0.0769 H   0  0  0  0  0  0  0  0  0  0  0  0
    7.3533  -13.5027    1.4505 H   0  0  0  0  0  0  0  0  0  0  0  0
    5.7456  -14.1961    1.9031 H   0  0  0  0  0  0  0  0  0  0  0  0
    5.6270  -13.9840   -0.7980 H   0  0  0  0  0  0  0  0  0  0  0  0
    8.3246  -13.0650   -1.0899 H   0  0  0  0  0  0  0  0  0  0  0  0
   11.0660  -15.7210   -4.5830 H   0  0  0  0  0  0  0  0  0  0  0  0
    8.3009  -13.4728   -3.7532 H   0  0  0  0  0  0  0  0  0  0  0  0
    5.9360  -12.2050   -5.3120 H   0  0  0  0  0  0  0  0  0  0  0  0
    4.5656  -11.3166   -5.4096 H   0  0  0  0  0  0  0  0  0  0  0  0
    2.8791   -9.5278   -4.9951 H   0  0  0  0  0  0  0  0  0  0  0  0
    1.4948   -9.5729   -2.9250 H   0  0  0  0  0  0  0  0  0  0  0  0
    3.5020  -13.1959   -1.6598 H   0  0  0  0  0  0  0  0  0  0  0  0
    5.9922  -14.5811   -7.2171 H   0  0  0  0  0  0  0  0  0  0  0  0
    7.8869  -15.9733   -8.0222 H   0  0  0  0  0  0  0  0  0  0  0  0
   10.8636  -16.8015   -6.0685 H   0  0  0  0  0  0  0  0  0  0  0  0
    9.8624  -17.1644   -7.5151 H   0  0  0  0  0  0  0  0  0  0  0  0
   10.9577  -15.7408   -7.5151 H   0  0  0  0  0  0  0  0  0  0  0  0
   13.7437  -11.0393   -2.9771 H   0  0  0  0  0  0  0  0  0  0  0  0
   14.0355  -10.3349   -0.5966 H   0  0  0  0  0  0  0  0  0  0  0  0
   12.7455  -11.4483    1.2050 H   0  0  0  0  0  0  0  0  0  0  0  0
   11.0833  -13.2458    0.6665 H   0  0  0  0  0  0  0  0  0  0  0  0
    8.6792  -17.9179   -1.2389 H   0  0  0  0  0  0  0  0  0  0  0  0
  1  2  1  0
  2  3  1  0
  3  4  1  0
  4  5  1  0
  5  6  1  0
  6  7  2  0
  7  8  1  0
  8  9  1  0
  9 10  1  0
 10 11  1  0
 11 12  1  0
 12 13  2  0
 13 14  1  0
 14 15  1  0
 15 16  1  0
 16 17  2  0
 16 18  1  0
 18 19  2  0
 19 20  1  0
 20 21  2  0
 21 22  1  0
 22 23  1  0
 23 24  1  0
 23 25  1  0
 23 26  1  0
 22 27  2  0
 14 28  2  0
 28 29  1  0
 29 30  2  0
 30 31  1  0
 10 32  2  0
 32 33  1  0
 33 34  2  0
 34 35  1  0
 35 36  2  0
 36 37  1  0
 37 38  2  0
  8 39  2  0
 39 40  1  0
 40 41  2  0
 41  6  1  0
 38  9  1  0
 30 12  1  0
 38 33  1  0
 27 18  1  0
  1 42  1  0
  1 43  1  0
  1 44  1  0
  3 45  1  0
  3 46  1  0
  4 47  1  0
  4 48  1  0
  5 49  1  0
  7 50  1  0
 11 51  1  0
 13 52  1  0
 15 53  1  0
 19 54  1  0
 20 55  1  0
 21 56  1  0
 27 57  1  0
 28 58  1  0
 29 59  1  0
 31 60  1  0
 31 61  1  0
 31 62  1  0
 34 63  1  0
 35 64  1  0
 36 65  1  0
 37 66  1  0
 40 67  1  0
M  END
>  <meeko>  (6) 
{"is_sidechain": [false], "free_energy": -8.277, "intermolecular_energy": -12.575, "internal_energy": -2.744}

$$$$
LIB_WLXHZMYOVDOALX__M_PUB_ALL__e8__s20260927
     RDKit          3D

 67 71  0  0  0  0  0  0  0  0999 V2000
    2.1640  -15.2480    3.2170 C   0  0  0  0  0  0  0  0  0  0  0  0
    3.2180  -14.6040    2.5130 O   0  0  0  0  0  0  0  0  0  0  0  0
    3.6400  -15.3790    1.3810 C   0  0  0  0  0  0  0  0  0  0  0  0
    5.1660  -15.3030    1.2590 C   0  0  0  0  0  0  0  0  0  0  0  0
    5.7000  -14.1920    2.0400 N   0  0  0  0  0  0  0  0  0  0  0  0
    6.1580  -13.0520    1.3990 C   0  0  0  0  0  0  0  0  0  0  0  0
    6.9590  -13.1970    0.2800 C   0  0  0  0  0  0  0  0  0  0  0  0
    7.4380  -12.0480   -0.3190 C   0  0  0  0  0  0  0  0  0  0  0  0
    8.2660  -12.1240   -1.4910 N   0  0  0  0  0  0  0  0  0  0  0  0
    7.9110  -11.6450   -2.7660 C   0  0  0  0  0  0  0  0  0  0  0  0
    6.6650  -11.1550   -3.0060 N   0  0  0  0  0  0  0  0  0  0  0  0
    5.4370  -11.8360   -3.1580 C   0  0  0  0  0  0  0  0  0  0  0  0
    4.4320  -11.8090   -2.1770 C   0  0  0  0  0  0  0  0  0  0  0  0
    3.2070  -12.4770   -2.3340 C   0  0  0  0  0  0  0  0  0  0  0  0
    2.2770  -12.3650   -1.2770 N   0  0  0  0  0  0  0  0  0  0  0  0
    1.4250  -11.3100   -1.0130 C   0  0  0  0  0  0  0  0  0  0  0  0
    1.2580  -10.3080   -1.6960 O   0  0  0  0  0  0  0  0  0  0  0  0
    0.6090  -11.4600    0.2270 C   0  0  0  0  0  0  0  0  0  0  0  0
    0.6310  -12.6900    0.8930 C   0  0  0  0  0  0  0  0  0  0  0  0
   -0.1230  -12.8740    2.0520 C   0  0  0  0  0  0  0  0  0  0  0  0
   -0.9090  -11.8320    2.5460 C   0  0  0  0  0  0  0  0  0  0  0  0
   -0.9510  -10.5940    1.8860 C   0  0  0  0  0  0  0  0  0  0  0  0
   -1.8320   -9.4790    2.3980 C   0  0  0  0  0  0  0  0  0  0  0  0
   -2.8440   -9.9310    3.1890 F   0  0  0  0  0  0  0  0  0  0  0  0
   -1.1430   -8.5780    3.1480 F   0  0  0  0  0  0  0  0  0  0  0  0
   -2.4290   -8.7650    1.4040 F   0  0  0  0  0  0  0  0  0  0  0  0
   -0.1940  -10.4190    0.7140 C   0  0  0  0  0  0  0  0  0  0  0  0
    2.9760  -13.1900   -3.5020 C   0  0  0  0  0  0  0  0  0  0  0  0
    3.9540  -13.2380   -4.4960 C   0  0  0  0  0  0  0  0  0  0  0  0
    5.1810  -12.5680   -4.3410 C   0  0  0  0  0  0  0  0  0  0  0  0
    6.1860  -12.6600   -5.4590 C   0  0  0  0  0  0  0  0  0  0  0  0
    8.9340  -11.7170   -3.5910 N   0  0  0  0  0  0  0  0  0  0  0  0
    9.9340  -12.3450   -2.9130 C   0  0  0  0  0  0  0  0  0  0  0  0
   11.2090  -12.7040   -3.3790 C   0  0  0  0  0  0  0  0  0  0  0  0
   12.0660  -13.4160   -2.5380 C   0  0  0  0  0  0  0  0  0  0  0  0
   11.6520  -13.7830   -1.2600 C   0  0  0  0  0  0  0  0  0  0  0  0
   10.3860  -13.4270   -0.7780 C   0  0  0  0  0  0  0  0  0  0  0  0
    9.5470  -12.6660   -1.6130 C   0  0  0  0  0  0  0  0  0  0  0  0
    7.1900  -10.8200    0.1990 N   0  0  0  0  0  0  0  0  0  0  0  0
    6.4120  -10.7870    1.2880 C   0  0  0  0  0  0  0  0  0  0  0  0
    5.8800  -11.8450    1.9090 N   0  0  0  0  0  0  0  0  0  0  0  0
    2.3304  -15.1463    4.2996 H   0  0  0  0  0  0  0  0  0  0  0  0
    1.2048  -14.7816    2.9481 H   0  0  0  0  0  0  0  0  0  0  0  0
    2.1413  -16.3144    2.9481 H   0  0  0  0  0  0  0  0  0  0  0  0
    3.3335  -16.4266    1.5174 H   0  0  0  0  0  0  0  0  0  0  0  0
    3.1758  -14.9808    0.4667 H   0  0  0  0  0  0  0  0  0  0  0  0
    5.6032  -16.2433    1.6261 H   0  0  0  0  0  0  0  0  0  0  0  0
    5.4248  -15.1436    0.2018 H   0  0  0  0  0  0  0  0  0  0  0  0
    6.2100  -14.4820    2.8680 H   0  0  0  0  0  0  0  0  0  0  0  0
    7.2057  -14.1921   -0.1186 H   0  0  0  0  0  0  0  0  0  0  0  0
    6.5920  -10.1410   -3.0750 H   0  0  0  0  0  0  0  0  0  0  0  0
    4.6114  -11.2432   -1.2509 H   0  0  0  0  0  0  0  0  0  0  0  0
    2.2180  -13.1780   -0.6760 H   0  0  0  0  0  0  0  0  0  0  0  0
    1.2448  -13.5146    0.5015 H   0  0  0  0  0  0  0  0  0  0  0  0
   -0.0981  -13.8405    2.5767 H   0  0  0  0  0  0  0  0  0  0  0  0
   -1.5010  -11.9823    3.4609 H   0  0  0  0  0  0  0  0  0  0  0  0
   -0.2320   -9.4601    0.1763 H   0  0  0  0  0  0  0  0  0  0  0  0
    2.0213  -13.7176   -3.6442 H   0  0  0  0  0  0  0  0  0  0  0  0
    3.7623  -13.8093   -5.4162 H   0  0  0  0  0  0  0  0  0  0  0  0
    7.1973  -12.7526   -5.0363 H   0  0  0  0  0  0  0  0  0  0  0  0
    5.9655  -13.5417   -6.0786 H   0  0  0  0  0  0  0  0  0  0  0  0
    6.1292  -11.7529   -6.0786 H   0  0  0  0  0  0  0  0  0  0  0  0
   11.5287  -12.4275   -4.3946 H   0  0  0  0  0  0  0  0  0  0  0  0
   13.0731  -13.6885   -2.8864 H   0  0  0  0  0  0  0  0  0  0  0  0
   12.3313  -14.3627   -0.6177 H   0  0  0  0  0  0  0  0  0  0  0  0
   10.0566  -13.7338    0.2257 H   0  0  0  0  0  0  0  0  0  0  0  0
    6.1895   -9.7966    1.7117 H   0  0  0  0  0  0  0  0  0  0  0  0
  1  2  1  0
  2  3  1  0
  3  4  1  0
  4  5  1  0
  5  6  1  0
  6  7  2  0
  7  8  1  0
  8  9  1  0
  9 10  1  0
 10 11  1  0
 11 12  1  0
 12 13  2  0
 13 14  1  0
 14 15  1  0
 15 16  1  0
 16 17  2  0
 16 18  1  0
 18 19  2  0
 19 20  1  0
 20 21  2  0
 21 22  1  0
 22 23  1  0
 23 24  1  0
 23 25  1  0
 23 26  1  0
 22 27  2  0
 14 28  2  0
 28 29  1  0
 29 30  2  0
 30 31  1  0
 10 32  2  0
 32 33  1  0
 33 34  2  0
 34 35  1  0
 35 36  2  0
 36 37  1  0
 37 38  2  0
  8 39  2  0
 39 40  1  0
 40 41  2  0
 41  6  1  0
 38  9  1  0
 30 12  1  0
 38 33  1  0
 27 18  1  0
  1 42  1  0
  1 43  1  0
  1 44  1  0
  3 45  1  0
  3 46  1  0
  4 47  1  0
  4 48  1  0
  5 49  1  0
  7 50  1  0
 11 51  1  0
 13 52  1  0
 15 53  1  0
 19 54  1  0
 20 55  1  0
 21 56  1  0
 27 57  1  0
 28 58  1  0
 29 59  1  0
 31 60  1  0
 31 61  1  0
 31 62  1  0
 34 63  1  0
 35 64  1  0
 36 65  1  0
 37 66  1  0
 40 67  1  0
M  END
>  <meeko>  (7) 
{"is_sidechain": [false], "free_energy": -8.262, "intermolecular_energy": -12.965, "internal_energy": -2.331}

$$$$
LIB_WLXHZMYOVDOALX__M_PUB_ALL__e8__s20260927
     RDKit          3D

 67 71  0  0  0  0  0  0  0  0999 V2000
    3.1950  -10.6020   -3.5170 C   0  0  0  0  0  0  0  0  0  0  0  0
    3.7940  -11.5620   -4.3780 O   0  0  0  0  0  0  0  0  0  0  0  0
    4.9730  -12.1290   -3.7880 C   0  0  0  0  0  0  0  0  0  0  0  0
    5.2350  -11.4530   -2.4370 C   0  0  0  0  0  0  0  0  0  0  0  0
    6.6120  -10.9820   -2.3430 N   0  0  0  0  0  0  0  0  0  0  0  0
    7.5620  -11.7420   -1.6790 C   0  0  0  0  0  0  0  0  0  0  0  0
    8.6410  -12.2290   -2.3950 C   0  0  0  0  0  0  0  0  0  0  0  0
    9.5530  -13.0190   -1.7230 C   0  0  0  0  0  0  0  0  0  0  0  0
   10.7030  -13.5480   -2.4010 N   0  0  0  0  0  0  0  0  0  0  0  0
   10.7790  -14.8220   -2.9950 C   0  0  0  0  0  0  0  0  0  0  0  0
    9.7600  -15.7140   -2.8680 N   0  0  0  0  0  0  0  0  0  0  0  0
    8.7550  -16.0800   -3.7910 C   0  0  0  0  0  0  0  0  0  0  0  0
    8.5950  -15.4360   -5.0290 C   0  0  0  0  0  0  0  0  0  0  0  0
    7.6040  -15.8070   -5.9500 C   0  0  0  0  0  0  0  0  0  0  0  0
    7.5530  -15.0850   -7.1620 N   0  0  0  0  0  0  0  0  0  0  0  0
    6.6440  -14.1080   -7.5220 C   0  0  0  0  0  0  0  0  0  0  0  0
    5.7610  -13.6270   -6.8230 O   0  0  0  0  0  0  0  0  0  0  0  0
    6.8090  -13.5800   -8.9070 C   0  0  0  0  0  0  0  0  0  0  0  0
    7.0460  -14.4900   -9.9430 C   0  0  0  0  0  0  0  0  0  0  0  0
    7.2130  -14.0380  -11.2520 C   0  0  0  0  0  0  0  0  0  0  0  0
    7.1530  -12.6710  -11.5300 C   0  0  0  0  0  0  0  0  0  0  0  0
    6.9270  -11.7420  -10.5030 C   0  0  0  0  0  0  0  0  0  0  0  0
    6.9020  -10.2610  -10.7980 C   0  0  0  0  0  0  0  0  0  0  0  0
    7.9960   -9.8460  -11.4950 F   0  0  0  0  0  0  0  0  0  0  0  0
    5.8230   -9.9000  -11.5440 F   0  0  0  0  0  0  0  0  0  0  0  0
    6.8610   -9.4890   -9.6770 F   0  0  0  0  0  0  0  0  0  0  0  0
    6.7660  -12.2060   -9.1850 C   0  0  0  0  0  0  0  0  0  0  0  0
    6.7480  -16.8530   -5.6300 C   0  0  0  0  0  0  0  0  0  0  0  0
    6.8790  -17.5130   -4.4080 C   0  0  0  0  0  0  0  0  0  0  0  0
    7.8730  -17.1430   -3.4850 C   0  0  0  0  0  0  0  0  0  0  0  0
    7.9580  -17.9060   -2.1900 C   0  0  0  0  0  0  0  0  0  0  0  0
   11.9010  -14.9550   -3.6700 N   0  0  0  0  0  0  0  0  0  0  0  0
   12.6260  -13.8260   -3.4380 C   0  0  0  0  0  0  0  0  0  0  0  0
   13.9170  -13.5120   -3.8950 C   0  0  0  0  0  0  0  0  0  0  0  0
   14.5170  -12.3240   -3.4760 C   0  0  0  0  0  0  0  0  0  0  0  0
   13.8510  -11.4700   -2.6020 C   0  0  0  0  0  0  0  0  0  0  0  0
   12.5610  -11.7640   -2.1430 C   0  0  0  0  0  0  0  0  0  0  0  0
   11.9430  -12.9400   -2.6090 C   0  0  0  0  0  0  0  0  0  0  0  0
    9.3740  -13.3620   -0.4240 N   0  0  0  0  0  0  0  0  0  0  0  0
    8.2940  -12.8470    0.1780 C   0  0  0  0  0  0  0  0  0  0  0  0
    7.3820  -12.0490   -0.3870 N   0  0  0  0  0  0  0  0  0  0  0  0
    3.3730  -10.8872   -2.4696 H   0  0  0  0  0  0  0  0  0  0  0  0
    3.6363   -9.6126   -3.7076 H   0  0  0  0  0  0  0  0  0  0  0  0
    2.1123  -10.5635   -3.7076 H   0  0  0  0  0  0  0  0  0  0  0  0
    4.8262  -13.2086   -3.6370 H   0  0  0  0  0  0  0  0  0  0  0  0
    5.8334  -11.9693   -4.4544 H   0  0  0  0  0  0  0  0  0  0  0  0
    4.5541  -10.5963   -2.3261 H   0  0  0  0  0  0  0  0  0  0  0  0
    5.0629  -12.1900   -1.6387 H   0  0  0  0  0  0  0  0  0  0  0  0
    6.6950   -9.9750   -2.2540 H   0  0  0  0  0  0  0  0  0  0  0  0
    8.7681  -11.9951   -3.4623 H   0  0  0  0  0  0  0  0  0  0  0  0
    9.7120  -16.2090   -1.9790 H   0  0  0  0  0  0  0  0  0  0  0  0
    9.2729  -14.6088   -5.2863 H   0  0  0  0  0  0  0  0  0  0  0  0
    8.2970  -15.2960   -7.8150 H   0  0  0  0  0  0  0  0  0  0  0  0
    7.1009  -15.5666   -9.7243 H   0  0  0  0  0  0  0  0  0  0  0  0
    7.3918  -14.7577  -12.0644 H   0  0  0  0  0  0  0  0  0  0  0  0
    7.2841  -12.3190  -12.5639 H   0  0  0  0  0  0  0  0  0  0  0  0
    6.6055  -11.4873   -8.3678 H   0  0  0  0  0  0  0  0  0  0  0  0
    5.9666  -17.1610   -6.3403 H   0  0  0  0  0  0  0  0  0  0  0  0
    6.1929  -18.3370   -4.1623 H   0  0  0  0  0  0  0  0  0  0  0  0
    7.8799  -17.2052   -1.3457 H   0  0  0  0  0  0  0  0  0  0  0  0
    7.1355  -18.6346   -2.1390 H   0  0  0  0  0  0  0  0  0  0  0  0
    8.9207  -18.4357   -2.1390 H   0  0  0  0  0  0  0  0  0  0  0  0
   14.4482  -14.1944   -4.5748 H   0  0  0  0  0  0  0  0  0  0  0  0
   15.5217  -12.0611   -3.8384 H   0  0  0  0  0  0  0  0  0  0  0  0
   14.3468  -10.5475   -2.2657 H   0  0  0  0  0  0  0  0  0  0  0  0
   12.0452  -11.0951   -1.4384 H   0  0  0  0  0  0  0  0  0  0  0  0
    8.1432  -13.1048    1.2367 H   0  0  0  0  0  0  0  0  0  0  0  0
  1  2  1  0
  2  3  1  0
  3  4  1  0
  4  5  1  0
  5  6  1  0
  6  7  2  0
  7  8  1  0
  8  9  1  0
  9 10  1  0
 10 11  1  0
 11 12  1  0
 12 13  2  0
 13 14  1  0
 14 15  1  0
 15 16  1  0
 16 17  2  0
 16 18  1  0
 18 19  2  0
 19 20  1  0
 20 21  2  0
 21 22  1  0
 22 23  1  0
 23 24  1  0
 23 25  1  0
 23 26  1  0
 22 27  2  0
 14 28  2  0
 28 29  1  0
 29 30  2  0
 30 31  1  0
 10 32  2  0
 32 33  1  0
 33 34  2  0
 34 35  1  0
 35 36  2  0
 36 37  1  0
 37 38  2  0
  8 39  2  0
 39 40  1  0
 40 41  2  0
 41  6  1  0
 38  9  1  0
 30 12  1  0
 38 33  1  0
 27 18  1  0
  1 42  1  0
  1 43  1  0
  1 44  1  0
  3 45  1  0
  3 46  1  0
  4 47  1  0
  4 48  1  0
  5 49  1  0
  7 50  1  0
 11 51  1  0
 13 52  1  0
 15 53  1  0
 19 54  1  0
 20 55  1  0
 21 56  1  0
 27 57  1  0
 28 58  1  0
 29 59  1  0
 31 60  1  0
 31 61  1  0
 31 62  1  0
 34 63  1  0
 35 64  1  0
 36 65  1  0
 37 66  1  0
 40 67  1  0
M  END
>  <meeko>  (8) 
{"is_sidechain": [false], "free_energy": -8.258, "intermolecular_energy": -12.927, "internal_energy": -2.362}

$$$$
LIB_WLXHZMYOVDOALX__M_PUB_ALL__e8__s20260927
     RDKit          3D

 67 71  0  0  0  0  0  0  0  0999 V2000
   11.9850  -13.4980    0.0510 C   0  0  0  0  0  0  0  0  0  0  0  0
   11.5850  -13.0810    1.3490 O   0  0  0  0  0  0  0  0  0  0  0  0
   10.8170  -11.8680    1.2950 C   0  0  0  0  0  0  0  0  0  0  0  0
    9.6250  -12.0700    0.3510 C   0  0  0  0  0  0  0  0  0  0  0  0
    8.5210  -11.1840    0.7020 N   0  0  0  0  0  0  0  0  0  0  0  0
    7.2140  -11.6330    0.6030 C   0  0  0  0  0  0  0  0  0  0  0  0
    6.8550  -12.3920   -0.4960 C   0  0  0  0  0  0  0  0  0  0  0  0
    5.5380  -12.7950   -0.5960 C   0  0  0  0  0  0  0  0  0  0  0  0
    5.0980  -13.5960   -1.7040 N   0  0  0  0  0  0  0  0  0  0  0  0
    4.6280  -14.9190   -1.6130 C   0  0  0  0  0  0  0  0  0  0  0  0
    4.6610  -15.5910   -0.4310 N   0  0  0  0  0  0  0  0  0  0  0  0
    3.6040  -15.9680    0.4270 C   0  0  0  0  0  0  0  0  0  0  0  0
    2.4120  -15.2320    0.5260 C   0  0  0  0  0  0  0  0  0  0  0  0
    1.3570  -15.6130    1.3700 C   0  0  0  0  0  0  0  0  0  0  0  0
    0.2100  -14.7900    1.3730 N   0  0  0  0  0  0  0  0  0  0  0  0
   -0.2830  -14.0360    2.4210 C   0  0  0  0  0  0  0  0  0  0  0  0
    0.2310  -13.8750    3.5210 O   0  0  0  0  0  0  0  0  0  0  0  0
   -1.5630  -13.3260    2.1340 C   0  0  0  0  0  0  0  0  0  0  0  0
   -2.7510  -13.8670    2.6360 C   0  0  0  0  0  0  0  0  0  0  0  0
   -3.9710  -13.2400    2.3850 C   0  0  0  0  0  0  0  0  0  0  0  0
   -4.0100  -12.0710    1.6220 C   0  0  0  0  0  0  0  0  0  0  0  0
   -2.8290  -11.5190    1.1000 C   0  0  0  0  0  0  0  0  0  0  0  0
   -2.8760  -10.2780    0.2410 C   0  0  0  0  0  0  0  0  0  0  0  0
   -1.7560  -10.1210   -0.5180 F   0  0  0  0  0  0  0  0  0  0  0  0
   -3.9210  -10.2900   -0.6290 F   0  0  0  0  0  0  0  0  0  0  0  0
   -2.9990   -9.1290    0.9620 F   0  0  0  0  0  0  0  0  0  0  0  0
   -1.6050  -12.1630    1.3520 C   0  0  0  0  0  0  0  0  0  0  0  0
    1.4930  -16.7630    2.1360 C   0  0  0  0  0  0  0  0  0  0  0  0
    2.6640  -17.5160    2.0620 C   0  0  0  0  0  0  0  0  0  0  0  0
    3.7210  -17.1360    1.2160 C   0  0  0  0  0  0  0  0  0  0  0  0
    4.9520  -18.0040    1.1830 C   0  0  0  0  0  0  0  0  0  0  0  0
    4.1550  -15.3260   -2.7720 N   0  0  0  0  0  0  0  0  0  0  0  0
    4.4100  -14.3290   -3.6640 C   0  0  0  0  0  0  0  0  0  0  0  0
    4.1440  -14.3080   -5.0430 C   0  0  0  0  0  0  0  0  0  0  0  0
    4.5570  -13.2090   -5.7990 C   0  0  0  0  0  0  0  0  0  0  0  0
    5.2420  -12.1580   -5.1950 C   0  0  0  0  0  0  0  0  0  0  0  0
    5.5090  -12.1610   -3.8200 C   0  0  0  0  0  0  0  0  0  0  0  0
    5.0450  -13.2490   -3.0560 C   0  0  0  0  0  0  0  0  0  0  0  0
    4.6080  -12.4120    0.3130 N   0  0  0  0  0  0  0  0  0  0  0  0
    5.0530  -11.6710    1.3360 C   0  0  0  0  0  0  0  0  0  0  0  0
    6.3140  -11.2680    1.5260 N   0  0  0  0  0  0  0  0  0  0  0  0
   12.7441  -14.2894    0.1378 H   0  0  0  0  0  0  0  0  0  0  0  0
   11.1121  -13.8855   -0.4949 H   0  0  0  0  0  0  0  0  0  0  0  0
   12.4085  -12.6420   -0.4949 H   0  0  0  0  0  0  0  0  0  0  0  0
   10.4512  -11.6185    2.3020 H   0  0  0  0  0  0  0  0  0  0  0  0
   11.4477  -11.0463    0.9248 H   0  0  0  0  0  0  0  0  0  0  0  0
    9.9431  -11.8564   -0.6801 H   0  0  0  0  0  0  0  0  0  0  0  0
    9.2801  -13.1106    0.4416 H   0  0  0  0  0  0  0  0  0  0  0  0
    8.6850  -10.2110    0.4650 H   0  0  0  0  0  0  0  0  0  0  0  0
    7.5933  -12.6653   -1.2642 H   0  0  0  0  0  0  0  0  0  0  0  0
    5.5830  -15.8850   -0.1120 H   0  0  0  0  0  0  0  0  0  0  0  0
    2.3008  -14.3217   -0.0814 H   0  0  0  0  0  0  0  0  0  0  0  0
   -0.2730  -14.7310    0.4860 H   0  0  0  0  0  0  0  0  0  0  0  0
   -2.7229  -14.7914    3.2316 H   0  0  0  0  0  0  0  0  0  0  0  0
   -4.9019  -13.6658    2.7877 H   0  0  0  0  0  0  0  0  0  0  0  0
   -4.9742  -11.5783    1.4282 H   0  0  0  0  0  0  0  0  0  0  0  0
   -0.6746  -11.7520    0.9331 H   0  0  0  0  0  0  0  0  0  0  0  0
    0.6766  -17.0801    2.8015 H   0  0  0  0  0  0  0  0  0  0  0  0
    2.7628  -18.4232    2.6761 H   0  0  0  0  0  0  0  0  0  0  0  0
    5.2702  -18.2283    2.2118 H   0  0  0  0  0  0  0  0  0  0  0  0
    4.7247  -18.9427    0.6565 H   0  0  0  0  0  0  0  0  0  0  0  0
    5.7599  -17.4747    0.6565 H   0  0  0  0  0  0  0  0  0  0  0  0
    3.6170  -15.1467   -5.5214 H   0  0  0  0  0  0  0  0  0  0  0  0
    4.3401  -13.1734   -6.8768 H   0  0  0  0  0  0  0  0  0  0  0  0
    5.5796  -11.3099   -5.8088 H   0  0  0  0  0  0  0  0  0  0  0  0
    6.0655  -11.3366   -3.3502 H   0  0  0  0  0  0  0  0  0  0  0  0
    4.3126  -11.3655    2.0900 H   0  0  0  0  0  0  0  0  0  0  0  0
  1  2  1  0
  2  3  1  0
  3  4  1  0
  4  5  1  0
  5  6  1  0
  6  7  2  0
  7  8  1  0
  8  9  1  0
  9 10  1  0
 10 11  1  0
 11 12  1  0
 12 13  2  0
 13 14  1  0
 14 15  1  0
 15 16  1  0
 16 17  2  0
 16 18  1  0
 18 19  2  0
 19 20  1  0
 20 21  2  0
 21 22  1  0
 22 23  1  0
 23 24  1  0
 23 25  1  0
 23 26  1  0
 22 27  2  0
 14 28  2  0
 28 29  1  0
 29 30  2  0
 30 31  1  0
 10 32  2  0
 32 33  1  0
 33 34  2  0
 34 35  1  0
 35 36  2  0
 36 37  1  0
 37 38  2  0
  8 39  2  0
 39 40  1  0
 40 41  2  0
 41  6  1  0
 38  9  1  0
 30 12  1  0
 38 33  1  0
 27 18  1  0
  1 42  1  0
  1 43  1  0
  1 44  1  0
  3 45  1  0
  3 46  1  0
  4 47  1  0
  4 48  1  0
  5 49  1  0
  7 50  1  0
 11 51  1  0
 13 52  1  0
 15 53  1  0
 19 54  1  0
 20 55  1  0
 21 56  1  0
 27 57  1  0
 28 58  1  0
 29 59  1  0
 31 60  1  0
 31 61  1  0
 31 62  1  0
 34 63  1  0
 35 64  1  0
 36 65  1  0
 37 66  1  0
 40 67  1  0
M  END
>  <meeko>  (9) 
{"is_sidechain": [false], "free_energy": -8.195, "intermolecular_energy": -13.182, "internal_energy": -2.009}

$$$$
