LIB_BHIWBHXJQRREGM__M_PUB_ALL__e8__s20260927
     RDKit          3D

 77 82  0  0  0  0  0  0  0  0999 V2000
    0.9130  -17.8740    1.3870 C   0  0  0  0  0  0  0  0  0  0  0  0
   -0.4290  -17.4180    1.8660 N   0  0  0  0  0  0  0  0  0  0  0  0
   -1.2310  -16.7300    0.7660 C   0  0  0  0  0  0  0  0  0  0  0  0
   -2.6380  -16.3500    1.2710 C   0  0  0  0  0  0  0  0  0  0  0  0
   -2.5640  -15.5850    2.5290 N   0  0  0  0  0  0  0  0  0  0  0  0
   -3.7060  -14.8520    2.8730 C   0  0  0  0  0  0  0  0  0  0  0  0
   -4.1360  -13.7890    2.0660 C   0  0  0  0  0  0  0  0  0  0  0  0
   -5.2780  -13.0490    2.3810 C   0  0  0  0  0  0  0  0  0  0  0  0
   -6.0170  -13.3580    3.5190 C   0  0  0  0  0  0  0  0  0  0  0  0
   -5.6200  -14.4040    4.3570 C   0  0  0  0  0  0  0  0  0  0  0  0
   -6.3950  -14.7120    5.5520 C   0  0  0  0  0  0  0  0  0  0  0  0
   -6.4940  -13.9950    6.7640 C   0  0  0  0  0  0  0  0  0  0  0  0
   -7.3230  -14.5500    7.6440 N   0  0  0  0  0  0  0  0  0  0  0  0
   -7.8040  -15.6550    7.0020 N   0  0  0  0  0  0  0  0  0  0  0  0
   -8.7630  -16.5750    7.5100 C   0  0  0  0  0  0  0  0  0  0  0  0
   -9.2630  -16.3090    8.7710 N   0  0  0  0  0  0  0  0  0  0  0  0
   -9.1280  -17.6150    6.7280 C   0  0  0  0  0  0  0  0  0  0  0  0
  -10.1060  -18.6440    7.1060 C   0  0  0  0  0  0  0  0  0  0  0  0
   -9.6940  -19.8590    7.6640 C   0  0  0  0  0  0  0  0  0  0  0  0
  -10.6340  -20.8390    8.0060 C   0  0  0  0  0  0  0  0  0  0  0  0
  -12.0000  -20.6270    7.7860 C   0  0  0  0  0  0  0  0  0  0  0  0
  -12.8810  -21.6630    8.1550 N   0  0  0  0  0  0  0  0  0  0  0  0
  -13.2540  -22.0380    9.4390 C   0  0  0  0  0  0  0  0  0  0  0  0
  -12.8980  -21.5040   10.4820 O   0  0  0  0  0  0  0  0  0  0  0  0
  -14.2000  -23.2310    9.4140 C   0  0  0  0  0  0  0  0  0  0  0  0
  -13.4680  -24.5530    9.1860 C   0  0  0  0  0  0  0  0  0  0  0  0
  -13.1780  -25.2960   10.4900 C   0  0  0  0  0  0  0  0  0  0  0  0
  -11.8240  -24.9630   11.1180 C   0  0  0  0  0  0  0  0  0  0  0  0
  -11.9680  -25.3540   12.5880 C   0  0  0  0  0  0  0  0  0  0  0  0
  -13.4670  -25.4440   12.8650 C   0  0  0  0  0  0  0  0  0  0  0  0
  -14.1510  -24.9240   11.6070 C   0  0  0  0  0  0  0  0  0  0  0  0
  -12.4090  -19.4160    7.2280 C   0  0  0  0  0  0  0  0  0  0  0  0
  -11.4710  -18.4320    6.8910 C   0  0  0  0  0  0  0  0  0  0  0  0
   -8.4630  -17.6710    5.3880 C   0  0  0  0  0  0  0  0  0  0  0  0
   -7.5830  -16.8440    4.9070 N   0  0  0  0  0  0  0  0  0  0  0  0
   -7.2430  -15.7960    5.7240 C   0  0  0  0  0  0  0  0  0  0  0  0
   -4.4620  -15.1290    4.0260 C   0  0  0  0  0  0  0  0  0  0  0  0
   -1.7320  -16.1440    3.6060 C   0  0  0  0  0  0  0  0  0  0  0  0
   -0.3280  -16.5110    3.0890 C   0  0  0  0  0  0  0  0  0  0  0  0
    1.5563  -18.0926    2.2521 H   0  0  0  0  0  0  0  0  0  0  0  0
    0.7957  -18.7827    0.7784 H   0  0  0  0  0  0  0  0  0  0  0  0
    1.3737  -17.0820    0.7784 H   0  0  0  0  0  0  0  0  0  0  0  0
   -0.9630  -18.2490    2.1530 H   0  0  0  0  0  0  0  0  0  0  0  0
   -0.7025  -15.8183    0.4506 H   0  0  0  0  0  0  0  0  0  0  0  0
   -1.3356  -17.4239   -0.0811 H   0  0  0  0  0  0  0  0  0  0  0  0
   -3.1400  -15.7375    0.5075 H   0  0  0  0  0  0  0  0  0  0  0  0
   -3.2025  -17.2753    1.4586 H   0  0  0  0  0  0  0  0  0  0  0  0
   -3.5608  -13.5320    1.1643 H   0  0  0  0  0  0  0  0  0  0  0  0
   -5.5935  -12.2212    1.7289 H   0  0  0  0  0  0  0  0  0  0  0  0
   -6.9186  -12.7759    3.7604 H   0  0  0  0  0  0  0  0  0  0  0  0
   -5.9388  -13.0662    6.9618 H   0  0  0  0  0  0  0  0  0  0  0  0
   -9.7100  -17.0290    9.3240 H   0  0  0  0  0  0  0  0  0  0  0  0
   -9.3220  -15.3300    9.0500 H   0  0  0  0  0  0  0  0  0  0  0  0
   -8.6236  -20.0459    7.8354 H   0  0  0  0  0  0  0  0  0  0  0  0
  -10.2953  -21.7856    8.4523 H   0  0  0  0  0  0  0  0  0  0  0  0
  -13.2950  -22.1890    7.3950 H   0  0  0  0  0  0  0  0  0  0  0  0
  -14.7290  -23.2821   10.3771 H   0  0  0  0  0  0  0  0  0  0  0  0
  -14.8983  -23.0866    8.5765 H   0  0  0  0  0  0  0  0  0  0  0  0
  -14.0909  -25.1949    8.5457 H   0  0  0  0  0  0  0  0  0  0  0  0
  -12.5026  -24.3222    8.7119 H   0  0  0  0  0  0  0  0  0  0  0  0
  -13.2430  -26.3463   10.1697 H   0  0  0  0  0  0  0  0  0  0  0  0
  -11.0217  -25.5438   10.6395 H   0  0  0  0  0  0  0  0  0  0  0  0
  -11.5590  -23.9025   10.9948 H   0  0  0  0  0  0  0  0  0  0  0  0
  -11.4880  -26.3265   12.7718 H   0  0  0  0  0  0  0  0  0  0  0  0
  -11.4843  -24.6171   13.2460 H   0  0  0  0  0  0  0  0  0  0  0  0
  -13.7595  -26.4868   13.0574 H   0  0  0  0  0  0  0  0  0  0  0  0
  -13.7515  -24.8599   13.7526 H   0  0  0  0  0  0  0  0  0  0  0  0
  -15.1250  -25.4132   11.4586 H   0  0  0  0  0  0  0  0  0  0  0  0
  -14.3612  -23.8451   11.6494 H   0  0  0  0  0  0  0  0  0  0  0  0
  -13.4789  -19.2319    7.0508 H   0  0  0  0  0  0  0  0  0  0  0  0
  -11.8119  -17.4825    6.4526 H   0  0  0  0  0  0  0  0  0  0  0  0
   -8.7522  -18.5080    4.7355 H   0  0  0  0  0  0  0  0  0  0  0  0
   -4.1358  -15.9413    4.6921 H   0  0  0  0  0  0  0  0  0  0  0  0
   -1.6355  -15.3985    4.4091 H   0  0  0  0  0  0  0  0  0  0  0  0
   -2.2154  -17.0576    3.9823 H   0  0  0  0  0  0  0  0  0  0  0  0
    0.2084  -15.5909    2.8140 H   0  0  0  0  0  0  0  0  0  0  0  0
    0.2155  -17.0439    3.8832 H   0  0  0  0  0  0  0  0  0  0  0  0
  1  2  1  0
  2  3  1  0
  3  4  1  0
  4  5  1  0
  5  6  1  0
  6  7  2  0
  7  8  1  0
  8  9  2  0
  9 10  1  0
 10 11  1  0
 11 12  1  0
 12 13  2  0
 13 14  1  0
 14 15  1  0
 15 16  1  0
 15 17  2  0
 17 18  1  0
 18 19  2  0
 19 20  1  0
 20 21  2  0
 21 22  1  0
 22 23  1  0
 23 24  2  0
 23 25  1  0
 25 26  1  0
 26 27  1  0
 27 28  1  0
 28 29  1  0
 29 30  1  0
 30 31  1  0
 21 32  1  0
 32 33  2  0
 17 34  1  0
 34 35  2  0
 35 36  1  0
 10 37  2  0
  5 38  1  0
 38 39  1  0
 39  2  1  0
 37  6  1  0
 36 11  2  0
 36 14  1  0
 33 18  1  0
 31 27  1  0
  1 40  1  0
  1 41  1  0
  1 42  1  0
  2 43  1  0
  3 44  1  0
  3 45  1  0
  4 46  1  0
  4 47  1  0
  7 48  1  0
  8 49  1  0
  9 50  1  0
 12 51  1  0
 16 52  1  0
 16 53  1  0
 19 54  1  0
 20 55  1  0
 22 56  1  0
 25 57  1  0
 25 58  1  0
 26 59  1  0
 26 60  1  0
 27 61  1  0
 28 62  1  0
 28 63  1  0
 29 64  1  0
 29 65  1  0
 30 66  1  0
 30 67  1  0
 31 68  1  0
 31 69  1  0
 32 70  1  0
 33 71  1  0
 34 72  1  0
 37 73  1  0
 38 74  1  0
 38 75  1  0
 39 76  1  0
 39 77  1  0
M  CHG  1   2   1
M  END
>  <meeko>  (1) 
{"is_sidechain": [false], "free_energy": -9.028, "intermolecular_energy": -12.987, "internal_energy": -1.267}

$$$$
LIB_BHIWBHXJQRREGM__M_PUB_ALL__e8__s20260927
     RDKit          3D

 77 82  0  0  0  0  0  0  0  0999 V2000
   14.8270  -12.5420  -12.0000 C   0  0  0  0  0  0  0  0  0  0  0  0
   13.3400  -12.4340  -11.8810 N   0  0  0  0  0  0  0  0  0  0  0  0
   12.8800  -12.3860  -10.4280 C   0  0  0  0  0  0  0  0  0  0  0  0
   11.3530  -12.1900  -10.3430 C   0  0  0  0  0  0  0  0  0  0  0  0
   10.6410  -13.1850  -11.1670 N   0  0  0  0  0  0  0  0  0  0  0  0
    9.2850  -13.3730  -10.8740 C   0  0  0  0  0  0  0  0  0  0  0  0
    8.3030  -13.0300  -11.8150 C   0  0  0  0  0  0  0  0  0  0  0  0
    6.9440  -13.2170  -11.5520 C   0  0  0  0  0  0  0  0  0  0  0  0
    6.5360  -13.7530  -10.3330 C   0  0  0  0  0  0  0  0  0  0  0  0
    7.4810  -14.0990   -9.3630 C   0  0  0  0  0  0  0  0  0  0  0  0
    7.0430  -14.6500   -8.0860 C   0  0  0  0  0  0  0  0  0  0  0  0
    7.3900  -15.8730   -7.4740 C   0  0  0  0  0  0  0  0  0  0  0  0
    6.8250  -16.0510   -6.2830 N   0  0  0  0  0  0  0  0  0  0  0  0
    6.0960  -14.9140   -6.0840 N   0  0  0  0  0  0  0  0  0  0  0  0
    5.3280  -14.5940   -4.9290 C   0  0  0  0  0  0  0  0  0  0  0  0
    5.3380  -15.5250   -3.9070 N   0  0  0  0  0  0  0  0  0  0  0  0
    4.6710  -13.4140   -4.9050 C   0  0  0  0  0  0  0  0  0  0  0  0
    3.8430  -12.9400   -3.7870 C   0  0  0  0  0  0  0  0  0  0  0  0
    4.4180  -12.2940   -2.6870 C   0  0  0  0  0  0  0  0  0  0  0  0
    3.6210  -11.8610   -1.6210 C   0  0  0  0  0  0  0  0  0  0  0  0
    2.2380  -12.0750   -1.6300 C   0  0  0  0  0  0  0  0  0  0  0  0
    1.5060  -11.6110   -0.5180 N   0  0  0  0  0  0  0  0  0  0  0  0
    0.7630  -10.4410   -0.4240 C   0  0  0  0  0  0  0  0  0  0  0  0
    0.5920   -9.6180   -1.3140 O   0  0  0  0  0  0  0  0  0  0  0  0
    0.1510  -10.2850    0.9610 C   0  0  0  0  0  0  0  0  0  0  0  0
   -1.3060   -9.8280    0.9090 C   0  0  0  0  0  0  0  0  0  0  0  0
   -2.2310  -10.8830    0.3030 C   0  0  0  0  0  0  0  0  0  0  0  0
   -2.8500  -11.8390    1.3220 C   0  0  0  0  0  0  0  0  0  0  0  0
   -4.0850  -12.4080    0.6260 C   0  0  0  0  0  0  0  0  0  0  0  0
   -4.4040  -11.4590   -0.5280 C   0  0  0  0  0  0  0  0  0  0  0  0
   -3.4650  -10.2720   -0.3570 C   0  0  0  0  0  0  0  0  0  0  0  0
    1.6660  -12.7200   -2.7270 C   0  0  0  0  0  0  0  0  0  0  0  0
    2.4600  -13.1490   -3.7970 C   0  0  0  0  0  0  0  0  0  0  0  0
    4.8380  -12.5640   -6.1260 C   0  0  0  0  0  0  0  0  0  0  0  0
    5.5310  -12.8380   -7.1910 N   0  0  0  0  0  0  0  0  0  0  0  0
    6.1910  -14.0400   -7.1780 C   0  0  0  0  0  0  0  0  0  0  0  0
    8.8430  -13.8940   -9.6450 C   0  0  0  0  0  0  0  0  0  0  0  0
   11.0930  -13.3510  -12.5570 C   0  0  0  0  0  0  0  0  0  0  0  0
   12.6180  -13.5540  -12.6240 C   0  0  0  0  0  0  0  0  0  0  0  0
   15.2738  -12.5745  -10.9954 H   0  0  0  0  0  0  0  0  0  0  0  0
   15.0853  -13.4613  -12.5461 H   0  0  0  0  0  0  0  0  0  0  0  0
   15.2155  -11.6697  -12.5461 H   0  0  0  0  0  0  0  0  0  0  0  0
   13.0490  -11.5490  -12.3180 H   0  0  0  0  0  0  0  0  0  0  0  0
   13.1505  -13.3303   -9.9328 H   0  0  0  0  0  0  0  0  0  0  0  0
   13.3725  -11.5377   -9.9302 H   0  0  0  0  0  0  0  0  0  0  0  0
   11.0351  -12.2980   -9.2955 H   0  0  0  0  0  0  0  0  0  0  0  0
   11.1090  -11.1861  -10.7207 H   0  0  0  0  0  0  0  0  0  0  0  0
    8.6100  -12.6042  -12.7817 H   0  0  0  0  0  0  0  0  0  0  0  0
    6.1950  -12.9406  -12.3087 H   0  0  0  0  0  0  0  0  0  0  0  0
    5.4651  -13.9047  -10.1327 H   0  0  0  0  0  0  0  0  0  0  0  0
    8.0634  -16.6090   -7.9375 H   0  0  0  0  0  0  0  0  0  0  0  0
    4.6140  -16.2270   -3.8250 H   0  0  0  0  0  0  0  0  0  0  0  0
    5.9980  -15.3700   -3.1450 H   0  0  0  0  0  0  0  0  0  0  0  0
    5.5046  -12.1252   -2.6598 H   0  0  0  0  0  0  0  0  0  0  0  0
    4.0866  -11.3471   -0.7671 H   0  0  0  0  0  0  0  0  0  0  0  0
    1.5180  -12.2030    0.3030 H   0  0  0  0  0  0  0  0  0  0  0  0
    0.1983  -11.2544    1.4788 H   0  0  0  0  0  0  0  0  0  0  0  0
    0.7245   -9.5128    1.4947 H   0  0  0  0  0  0  0  0  0  0  0  0
   -1.6436   -9.6096    1.9329 H   0  0  0  0  0  0  0  0  0  0  0  0
   -1.3528   -8.9355    0.2676 H   0  0  0  0  0  0  0  0  0  0  0  0
   -1.5568  -11.3985   -0.3968 H   0  0  0  0  0  0  0  0  0  0  0  0
   -2.1442  -12.6433    1.5769 H   0  0  0  0  0  0  0  0  0  0  0  0
   -3.1023  -11.3327    2.2654 H   0  0  0  0  0  0  0  0  0  0  0  0
   -3.8745  -13.4170    0.2419 H   0  0  0  0  0  0  0  0  0  0  0  0
   -4.9331  -12.4899    1.3217 H   0  0  0  0  0  0  0  0  0  0  0  0
   -4.2237  -11.9547   -1.4933 H   0  0  0  0  0  0  0  0  0  0  0  0
   -5.4588  -11.1471   -0.5174 H   0  0  0  0  0  0  0  0  0  0  0  0
   -3.2106   -9.8288   -1.3311 H   0  0  0  0  0  0  0  0  0  0  0  0
   -3.9081   -9.4582    0.2357 H   0  0  0  0  0  0  0  0  0  0  0  0
    0.5800  -12.8932   -2.7513 H   0  0  0  0  0  0  0  0  0  0  0  0
    1.9918  -13.6554   -4.6540 H   0  0  0  0  0  0  0  0  0  0  0  0
    4.3142  -11.5967   -6.1213 H   0  0  0  0  0  0  0  0  0  0  0  0
    9.5886  -14.1500   -8.8778 H   0  0  0  0  0  0  0  0  0  0  0  0
   10.5943  -14.2284  -12.9945 H   0  0  0  0  0  0  0  0  0  0  0  0
   10.8369  -12.4405  -13.1186 H   0  0  0  0  0  0  0  0  0  0  0  0
   12.8752  -14.5189  -12.1626 H   0  0  0  0  0  0  0  0  0  0  0  0
   12.9323  -13.5415  -13.6781 H   0  0  0  0  0  0  0  0  0  0  0  0
  1  2  1  0
  2  3  1  0
  3  4  1  0
  4  5  1  0
  5  6  1  0
  6  7  2  0
  7  8  1  0
  8  9  2  0
  9 10  1  0
 10 11  1  0
 11 12  1  0
 12 13  2  0
 13 14  1  0
 14 15  1  0
 15 16  1  0
 15 17  2  0
 17 18  1  0
 18 19  2  0
 19 20  1  0
 20 21  2  0
 21 22  1  0
 22 23  1  0
 23 24  2  0
 23 25  1  0
 25 26  1  0
 26 27  1  0
 27 28  1  0
 28 29  1  0
 29 30  1  0
 30 31  1  0
 21 32  1  0
 32 33  2  0
 17 34  1  0
 34 35  2  0
 35 36  1  0
 10 37  2  0
  5 38  1  0
 38 39  1  0
 39  2  1  0
 37  6  1  0
 36 11  2  0
 36 14  1  0
 33 18  1  0
 31 27  1  0
  1 40  1  0
  1 41  1  0
  1 42  1  0
  2 43  1  0
  3 44  1  0
  3 45  1  0
  4 46  1  0
  4 47  1  0
  7 48  1  0
  8 49  1  0
  9 50  1  0
 12 51  1  0
 16 52  1  0
 16 53  1  0
 19 54  1  0
 20 55  1  0
 22 56  1  0
 25 57  1  0
 25 58  1  0
 26 59  1  0
 26 60  1  0
 27 61  1  0
 28 62  1  0
 28 63  1  0
 29 64  1  0
 29 65  1  0
 30 66  1  0
 30 67  1  0
 31 68  1  0
 31 69  1  0
 32 70  1  0
 33 71  1  0
 34 72  1  0
 37 73  1  0
 38 74  1  0
 38 75  1  0
 39 76  1  0
 39 77  1  0
M  CHG  1   2   1
M  END
>  <meeko>  (2) 
{"is_sidechain": [false], "free_energy": -8.683, "intermolecular_energy": -12.698, "internal_energy": -1.06}

$$$$
LIB_BHIWBHXJQRREGM__M_PUB_ALL__e8__s20260927
     RDKit          3D

 77 82  0  0  0  0  0  0  0  0999 V2000
    1.8160  -17.4230    8.6830 C   0  0  0  0  0  0  0  0  0  0  0  0
    3.2050  -17.4030    9.2380 N   0  0  0  0  0  0  0  0  0  0  0  0
    4.1300  -18.3750    8.5130 C   0  0  0  0  0  0  0  0  0  0  0  0
    5.5700  -18.2680    9.0540 C   0  0  0  0  0  0  0  0  0  0  0  0
    5.5980  -18.3950   10.5230 N   0  0  0  0  0  0  0  0  0  0  0  0
    6.8380  -18.7100   11.0910 C   0  0  0  0  0  0  0  0  0  0  0  0
    7.4450  -19.9470   10.8260 C   0  0  0  0  0  0  0  0  0  0  0  0
    8.6860  -20.2820   11.3720 C   0  0  0  0  0  0  0  0  0  0  0  0
    9.3500  -19.3820   12.2020 C   0  0  0  0  0  0  0  0  0  0  0  0
    8.7770  -18.1420   12.5000 C   0  0  0  0  0  0  0  0  0  0  0  0
    9.4750  -17.2120   13.3780 C   0  0  0  0  0  0  0  0  0  0  0  0
    9.7080  -17.2980   14.7680 C   0  0  0  0  0  0  0  0  0  0  0  0
   10.4120  -16.2780   15.2520 N   0  0  0  0  0  0  0  0  0  0  0  0
   10.6720  -15.5000   14.1610 N   0  0  0  0  0  0  0  0  0  0  0  0
   11.4340  -14.2980   14.1440 C   0  0  0  0  0  0  0  0  0  0  0  0
   11.9720  -13.8940   15.3500 N   0  0  0  0  0  0  0  0  0  0  0  0
   11.5920  -13.6590   12.9640 C   0  0  0  0  0  0  0  0  0  0  0  0
   12.3520  -12.4140   12.7810 C   0  0  0  0  0  0  0  0  0  0  0  0
   13.4710  -12.3700   11.9430 C   0  0  0  0  0  0  0  0  0  0  0  0
   14.1960  -11.1820   11.7900 C   0  0  0  0  0  0  0  0  0  0  0  0
   13.8230  -10.0220   12.4780 C   0  0  0  0  0  0  0  0  0  0  0  0
   14.6060   -8.8690   12.2710 N   0  0  0  0  0  0  0  0  0  0  0  0
   14.3530   -7.8220   11.3950 C   0  0  0  0  0  0  0  0  0  0  0  0
   13.3760   -7.7080   10.6640 O   0  0  0  0  0  0  0  0  0  0  0  0
   15.4610   -6.7800   11.4430 C   0  0  0  0  0  0  0  0  0  0  0  0
   16.6310   -7.2100   12.3270 C   0  0  0  0  0  0  0  0  0  0  0  0
   17.9880   -6.8690   11.7130 C   0  0  0  0  0  0  0  0  0  0  0  0
   18.8760   -8.0810   11.4320 C   0  0  0  0  0  0  0  0  0  0  0  0
   19.8740   -7.6000   10.3810 C   0  0  0  0  0  0  0  0  0  0  0  0
   19.2710   -6.3420    9.7590 C   0  0  0  0  0  0  0  0  0  0  0  0
   17.8640   -6.2330   10.3310 C   0  0  0  0  0  0  0  0  0  0  0  0
   12.7070  -10.0690   13.3140 C   0  0  0  0  0  0  0  0  0  0  0  0
   11.9770  -11.2540   13.4650 C   0  0  0  0  0  0  0  0  0  0  0  0
   10.9320  -14.3120   11.7890 C   0  0  0  0  0  0  0  0  0  0  0  0
   10.2300  -15.4060   11.7840 N   0  0  0  0  0  0  0  0  0  0  0  0
   10.0970  -16.0320   12.9970 C   0  0  0  0  0  0  0  0  0  0  0  0
    7.5230  -17.8300   11.9470 C   0  0  0  0  0  0  0  0  0  0  0  0
    4.6650  -17.5510   11.2860 C   0  0  0  0  0  0  0  0  0  0  0  0
    3.2310  -17.6760   10.7400 C   0  0  0  0  0  0  0  0  0  0  0  0
    1.0908  -17.4334    9.5100 H   0  0  0  0  0  0  0  0  0  0  0  0
    1.6550  -16.5271    8.0654 H   0  0  0  0  0  0  0  0  0  0  0  0
    1.6808  -18.3232    8.0654 H   0  0  0  0  0  0  0  0  0  0  0  0
    3.5900  -16.4600    9.0980 H   0  0  0  0  0  0  0  0  0  0  0  0
    3.7637  -19.4013    8.6632 H   0  0  0  0  0  0  0  0  0  0  0  0
    4.1362  -18.1233    7.4422 H   0  0  0  0  0  0  0  0  0  0  0  0
    6.1797  -19.0702    8.6127 H   0  0  0  0  0  0  0  0  0  0  0  0
    5.9722  -17.2810    8.7817 H   0  0  0  0  0  0  0  0  0  0  0  0
    6.9320  -20.6690   10.1737 H   0  0  0  0  0  0  0  0  0  0  0  0
    9.1398  -21.2583   11.1462 H   0  0  0  0  0  0  0  0  0  0  0  0
   10.3299  -19.6480   12.6251 H   0  0  0  0  0  0  0  0  0  0  0  0
    9.3428  -18.1281   15.3906 H   0  0  0  0  0  0  0  0  0  0  0  0
   12.6540  -13.1480   15.4010 H   0  0  0  0  0  0  0  0  0  0  0  0
   11.7910  -14.4860   16.1610 H   0  0  0  0  0  0  0  0  0  0  0  0
   13.7835  -13.2746   11.4007 H   0  0  0  0  0  0  0  0  0  0  0  0
   15.0690  -11.1603   11.1211 H   0  0  0  0  0  0  0  0  0  0  0  0
   15.4460   -8.7920   12.8320 H   0  0  0  0  0  0  0  0  0  0  0  0
   15.8333   -6.6137   10.4214 H   0  0  0  0  0  0  0  0  0  0  0  0
   15.0370   -5.8609   11.8736 H   0  0  0  0  0  0  0  0  0  0  0  0
   16.5453   -6.6996   13.2976 H   0  0  0  0  0  0  0  0  0  0  0  0
   16.5807   -8.3033   12.4375 H   0  0  0  0  0  0  0  0  0  0  0  0
   18.4190   -6.2039   12.4758 H   0  0  0  0  0  0  0  0  0  0  0  0
   19.3991   -8.3981   12.3462 H   0  0  0  0  0  0  0  0  0  0  0  0
   18.2955   -8.9490   11.0860 H   0  0  0  0  0  0  0  0  0  0  0  0
   20.8400   -7.3661   10.8523 H   0  0  0  0  0  0  0  0  0  0  0  0
   20.0564   -8.3733    9.6203 H   0  0  0  0  0  0  0  0  0  0  0  0
   19.8651   -5.4571   10.0310 H   0  0  0  0  0  0  0  0  0  0  0  0
   19.2594   -6.3979    8.6605 H   0  0  0  0  0  0  0  0  0  0  0  0
   17.5523   -5.1810   10.4094 H   0  0  0  0  0  0  0  0  0  0  0  0
   17.1074   -6.7236    9.7011 H   0  0  0  0  0  0  0  0  0  0  0  0
   12.3975   -9.1657   13.8601 H   0  0  0  0  0  0  0  0  0  0  0  0
   11.0997  -11.2725   14.1284 H   0  0  0  0  0  0  0  0  0  0  0  0
   11.0554  -13.8081   10.8190 H   0  0  0  0  0  0  0  0  0  0  0  0
    7.0610  -16.8625   12.1929 H   0  0  0  0  0  0  0  0  0  0  0  0
    4.6766  -17.8649   12.3402 H   0  0  0  0  0  0  0  0  0  0  0  0
    4.9848  -16.5028   11.1911 H   0  0  0  0  0  0  0  0  0  0  0  0
    2.8590  -18.6937   10.9294 H   0  0  0  0  0  0  0  0  0  0  0  0
    2.5918  -16.9381   11.2468 H   0  0  0  0  0  0  0  0  0  0  0  0
  1  2  1  0
  2  3  1  0
  3  4  1  0
  4  5  1  0
  5  6  1  0
  6  7  2  0
  7  8  1  0
  8  9  2  0
  9 10  1  0
 10 11  1  0
 11 12  1  0
 12 13  2  0
 13 14  1  0
 14 15  1  0
 15 16  1  0
 15 17  2  0
 17 18  1  0
 18 19  2  0
 19 20  1  0
 20 21  2  0
 21 22  1  0
 22 23  1  0
 23 24  2  0
 23 25  1  0
 25 26  1  0
 26 27  1  0
 27 28  1  0
 28 29  1  0
 29 30  1  0
 30 31  1  0
 21 32  1  0
 32 33  2  0
 17 34  1  0
 34 35  2  0
 35 36  1  0
 10 37  2  0
  5 38  1  0
 38 39  1  0
 39  2  1  0
 37  6  1  0
 36 11  2  0
 36 14  1  0
 33 18  1  0
 31 27  1  0
  1 40  1  0
  1 41  1  0
  1 42  1  0
  2 43  1  0
  3 44  1  0
  3 45  1  0
  4 46  1  0
  4 47  1  0
  7 48  1  0
  8 49  1  0
  9 50  1  0
 12 51  1  0
 16 52  1  0
 16 53  1  0
 19 54  1  0
 20 55  1  0
 22 56  1  0
 25 57  1  0
 25 58  1  0
 26 59  1  0
 26 60  1  0
 27 61  1  0
 28 62  1  0
 28 63  1  0
 29 64  1  0
 29 65  1  0
 30 66  1  0
 30 67  1  0
 31 68  1  0
 31 69  1  0
 32 70  1  0
 33 71  1  0
 34 72  1  0
 37 73  1  0
 38 74  1  0
 38 75  1  0
 39 76  1  0
 39 77  1  0
M  CHG  1   2   1
M  END
>  <meeko>  (3) 
{"is_sidechain": [false], "free_energy": -8.677, "intermolecular_energy": -12.681, "internal_energy": -1.067}

$$$$
LIB_BHIWBHXJQRREGM__M_PUB_ALL__e8__s20260927
     RDKit          3D

 77 82  0  0  0  0  0  0  0  0999 V2000
    3.5670  -14.8130   -2.3100 C   0  0  0  0  0  0  0  0  0  0  0  0
    4.2630  -15.8080   -3.1840 N   0  0  0  0  0  0  0  0  0  0  0  0
    5.2620  -16.6580   -2.4070 C   0  0  0  0  0  0  0  0  0  0  0  0
    5.8970  -17.7270   -3.3190 C   0  0  0  0  0  0  0  0  0  0  0  0
    6.4490  -17.1220   -4.5460 N   0  0  0  0  0  0  0  0  0  0  0  0
    7.3800  -17.8940   -5.2500 C   0  0  0  0  0  0  0  0  0  0  0  0
    7.6250  -19.2240   -4.8770 C   0  0  0  0  0  0  0  0  0  0  0  0
    8.5410  -20.0180   -5.5690 C   0  0  0  0  0  0  0  0  0  0  0  0
    9.2390  -19.4960   -6.6550 C   0  0  0  0  0  0  0  0  0  0  0  0
    9.0320  -18.1720   -7.0550 C   0  0  0  0  0  0  0  0  0  0  0  0
    9.7750  -17.6310   -8.1870 C   0  0  0  0  0  0  0  0  0  0  0  0
   10.4210  -18.3140   -9.2400 C   0  0  0  0  0  0  0  0  0  0  0  0
   10.9850  -17.5030  -10.1310 N   0  0  0  0  0  0  0  0  0  0  0  0
   10.6960  -16.2490   -9.6750 N   0  0  0  0  0  0  0  0  0  0  0  0
   11.0480  -15.0210  -10.3020 C   0  0  0  0  0  0  0  0  0  0  0  0
   11.7370  -15.1150  -11.4960 N   0  0  0  0  0  0  0  0  0  0  0  0
   10.6720  -13.8680   -9.7060 C   0  0  0  0  0  0  0  0  0  0  0  0
   10.9560  -12.5240  -10.2280 C   0  0  0  0  0  0  0  0  0  0  0  0
   12.1580  -11.8730   -9.9290 C   0  0  0  0  0  0  0  0  0  0  0  0
   12.4090  -10.5870  -10.4190 C   0  0  0  0  0  0  0  0  0  0  0  0
   11.4620   -9.9230  -11.2070 C   0  0  0  0  0  0  0  0  0  0  0  0
   11.7910   -8.6290  -11.6600 N   0  0  0  0  0  0  0  0  0  0  0  0
   11.4970   -7.4190  -11.0470 C   0  0  0  0  0  0  0  0  0  0  0  0
   10.9200   -7.2710   -9.9760 O   0  0  0  0  0  0  0  0  0  0  0  0
   11.9940   -6.2430  -11.8760 C   0  0  0  0  0  0  0  0  0  0  0  0
   11.3600   -4.9200  -11.4520 C   0  0  0  0  0  0  0  0  0  0  0  0
   11.1350   -3.9720  -12.6310 C   0  0  0  0  0  0  0  0  0  0  0  0
    9.7160   -3.4160  -12.7310 C   0  0  0  0  0  0  0  0  0  0  0  0
    9.8490   -2.1510  -13.5770 C   0  0  0  0  0  0  0  0  0  0  0  0
   11.3270   -1.7640  -13.5420 C   0  0  0  0  0  0  0  0  0  0  0  0
   11.9740   -2.7010  -12.5300 C   0  0  0  0  0  0  0  0  0  0  0  0
   10.2630  -10.5730  -11.5040 C   0  0  0  0  0  0  0  0  0  0  0  0
   10.0110  -11.8620  -11.0190 C   0  0  0  0  0  0  0  0  0  0  0  0
    9.9090  -14.0290   -8.4270 C   0  0  0  0  0  0  0  0  0  0  0  0
    9.5810  -15.1390   -7.8370 N   0  0  0  0  0  0  0  0  0  0  0  0
    9.9710  -16.2890   -8.4750 C   0  0  0  0  0  0  0  0  0  0  0  0
    8.1120  -17.3880   -6.3380 C   0  0  0  0  0  0  0  0  0  0  0  0
    5.5680  -16.2150   -5.2990 C   0  0  0  0  0  0  0  0  0  0  0  0
    4.9490  -15.1490   -4.3770 C   0  0  0  0  0  0  0  0  0  0  0  0
    3.7437  -15.0656   -1.2541 H   0  0  0  0  0  0  0  0  0  0  0  0
    3.9588  -13.8061   -2.5167 H   0  0  0  0  0  0  0  0  0  0  0  0
    2.4868  -14.8357   -2.5167 H   0  0  0  0  0  0  0  0  0  0  0  0
    3.5530  -16.4490   -3.5630 H   0  0  0  0  0  0  0  0  0  0  0  0
    6.0544  -16.0082   -2.0072 H   0  0  0  0  0  0  0  0  0  0  0  0
    4.7317  -17.1640   -1.5868 H   0  0  0  0  0  0  0  0  0  0  0  0
    6.7073  -18.2304   -2.7713 H   0  0  0  0  0  0  0  0  0  0  0  0
    5.1170  -18.4475   -3.6064 H   0  0  0  0  0  0  0  0  0  0  0  0
    7.0831  -19.6507   -4.0201 H   0  0  0  0  0  0  0  0  0  0  0  0
    8.7119  -21.0585   -5.2557 H   0  0  0  0  0  0  0  0  0  0  0  0
    9.9559  -20.1274   -7.2003 H   0  0  0  0  0  0  0  0  0  0  0  0
   10.4548  -19.4108   -9.3164 H   0  0  0  0  0  0  0  0  0  0  0  0
   12.7330  -14.9430  -11.5470 H   0  0  0  0  0  0  0  0  0  0  0  0
   11.1810  -15.1920  -12.3480 H   0  0  0  0  0  0  0  0  0  0  0  0
   12.9108  -12.3760   -9.3043 H   0  0  0  0  0  0  0  0  0  0  0  0
   13.3622  -10.0917  -10.1821 H   0  0  0  0  0  0  0  0  0  0  0  0
   12.3070   -8.5790  -12.5300 H   0  0  0  0  0  0  0  0  0  0  0  0
   13.0850   -6.1649  -11.7592 H   0  0  0  0  0  0  0  0  0  0  0  0
   11.7119   -6.4288  -12.9229 H   0  0  0  0  0  0  0  0  0  0  0  0
   10.3896   -5.1300  -10.9784 H   0  0  0  0  0  0  0  0  0  0  0  0
   12.0529   -4.4264  -10.7547 H   0  0  0  0  0  0  0  0  0  0  0  0
   11.3928   -4.6124  -13.4874 H   0  0  0  0  0  0  0  0  0  0  0  0
    9.0497   -4.1412  -13.2210 H   0  0  0  0  0  0  0  0  0  0  0  0
    9.2813   -3.2092  -11.7419 H   0  0  0  0  0  0  0  0  0  0  0  0
    9.5318   -2.3497  -14.6114 H   0  0  0  0  0  0  0  0  0  0  0  0
    9.2147   -1.3412  -13.1872 H   0  0  0  0  0  0  0  0  0  0  0  0
   11.7822   -1.8978  -14.5344 H   0  0  0  0  0  0  0  0  0  0  0  0
   11.4641   -0.7086  -13.2640 H   0  0  0  0  0  0  0  0  0  0  0  0
   13.0230   -2.9007  -12.7942 H   0  0  0  0  0  0  0  0  0  0  0  0
   11.9958   -2.2827  -11.5129 H   0  0  0  0  0  0  0  0  0  0  0  0
    9.5088  -10.0676  -12.1251 H   0  0  0  0  0  0  0  0  0  0  0  0
    9.0604  -12.3592  -11.2624 H   0  0  0  0  0  0  0  0  0  0  0  0
    9.5898  -13.1009   -7.9304 H   0  0  0  0  0  0  0  0  0  0  0  0
    7.9593  -16.3411   -6.6390 H   0  0  0  0  0  0  0  0  0  0  0  0
    6.1544  -15.7143   -6.0835 H   0  0  0  0  0  0  0  0  0  0  0  0
    4.7542  -16.8077   -5.7423 H   0  0  0  0  0  0  0  0  0  0  0  0
    5.7426  -14.4794   -4.0139 H   0  0  0  0  0  0  0  0  0  0  0  0
    4.2014  -14.5770   -4.9461 H   0  0  0  0  0  0  0  0  0  0  0  0
  1  2  1  0
  2  3  1  0
  3  4  1  0
  4  5  1  0
  5  6  1  0
  6  7  2  0
  7  8  1  0
  8  9  2  0
  9 10  1  0
 10 11  1  0
 11 12  1  0
 12 13  2  0
 13 14  1  0
 14 15  1  0
 15 16  1  0
 15 17  2  0
 17 18  1  0
 18 19  2  0
 19 20  1  0
 20 21  2  0
 21 22  1  0
 22 23  1  0
 23 24  2  0
 23 25  1  0
 25 26  1  0
 26 27  1  0
 27 28  1  0
 28 29  1  0
 29 30  1  0
 30 31  1  0
 21 32  1  0
 32 33  2  0
 17 34  1  0
 34 35  2  0
 35 36  1  0
 10 37  2  0
  5 38  1  0
 38 39  1  0
 39  2  1  0
 37  6  1  0
 36 11  2  0
 36 14  1  0
 33 18  1  0
 31 27  1  0
  1 40  1  0
  1 41  1  0
  1 42  1  0
  2 43  1  0
  3 44  1  0
  3 45  1  0
  4 46  1  0
  4 47  1  0
  7 48  1  0
  8 49  1  0
  9 50  1  0
 12 51  1  0
 16 52  1  0
 16 53  1  0
 19 54  1  0
 20 55  1  0
 22 56  1  0
 25 57  1  0
 25 58  1  0
 26 59  1  0
 26 60  1  0
 27 61  1  0
 28 62  1  0
 28 63  1  0
 29 64  1  0
 29 65  1  0
 30 66  1  0
 30 67  1  0
 31 68  1  0
 31 69  1  0
 32 70  1  0
 33 71  1  0
 34 72  1  0
 37 73  1  0
 38 74  1  0
 38 75  1  0
 39 76  1  0
 39 77  1  0
M  CHG  1   2   1
M  END
>  <meeko>  (4) 
{"is_sidechain": [false], "free_energy": -8.606, "intermolecular_energy": -12.909, "internal_energy": -0.738}

$$$$
LIB_BHIWBHXJQRREGM__M_PUB_ALL__e8__s20260927
     RDKit          3D

 77 82  0  0  0  0  0  0  0  0999 V2000
   12.3800  -16.4750   -8.7660 C   0  0  0  0  0  0  0  0  0  0  0  0
   12.4340  -15.9370   -7.3710 N   0  0  0  0  0  0  0  0  0  0  0  0
   11.4050  -14.8360   -7.1370 C   0  0  0  0  0  0  0  0  0  0  0  0
   11.4310  -14.3660   -5.6690 C   0  0  0  0  0  0  0  0  0  0  0  0
   12.7990  -14.0090   -5.2480 N   0  0  0  0  0  0  0  0  0  0  0  0
   12.9040  -13.2090   -4.1050 C   0  0  0  0  0  0  0  0  0  0  0  0
   14.0090  -12.3620   -3.9310 C   0  0  0  0  0  0  0  0  0  0  0  0
   14.1320  -11.5460   -2.8050 C   0  0  0  0  0  0  0  0  0  0  0  0
   13.1470  -11.5610   -1.8200 C   0  0  0  0  0  0  0  0  0  0  0  0
   12.0340  -12.3960   -1.9480 C   0  0  0  0  0  0  0  0  0  0  0  0
   11.0140  -12.4120   -0.9070 C   0  0  0  0  0  0  0  0  0  0  0  0
   11.1420  -12.1500    0.4740 C   0  0  0  0  0  0  0  0  0  0  0  0
    9.9920  -12.2240    1.1380 N   0  0  0  0  0  0  0  0  0  0  0  0
    9.0690  -12.5260    0.1790 N   0  0  0  0  0  0  0  0  0  0  0  0
    7.6680  -12.6780    0.3740 C   0  0  0  0  0  0  0  0  0  0  0  0
    7.2010  -12.4850    1.6610 N   0  0  0  0  0  0  0  0  0  0  0  0
    6.9010  -12.9740   -0.6990 C   0  0  0  0  0  0  0  0  0  0  0  0
    5.4440  -13.1580   -0.6610 C   0  0  0  0  0  0  0  0  0  0  0  0
    4.5800  -12.1670   -1.1390 C   0  0  0  0  0  0  0  0  0  0  0  0
    3.1930  -12.3470   -1.0830 C   0  0  0  0  0  0  0  0  0  0  0  0
    2.6440  -13.5140   -0.5400 C   0  0  0  0  0  0  0  0  0  0  0  0
    1.2390  -13.6170   -0.5190 N   0  0  0  0  0  0  0  0  0  0  0  0
    0.3980  -13.4830    0.5780 C   0  0  0  0  0  0  0  0  0  0  0  0
    0.7390  -13.2170    1.7240 O   0  0  0  0  0  0  0  0  0  0  0  0
   -1.0580  -13.7030    0.1890 C   0  0  0  0  0  0  0  0  0  0  0  0
   -2.0230  -13.3620    1.3230 C   0  0  0  0  0  0  0  0  0  0  0  0
   -2.9650  -12.2120    0.9670 C   0  0  0  0  0  0  0  0  0  0  0  0
   -2.2580  -10.9360    0.5090 C   0  0  0  0  0  0  0  0  0  0  0  0
   -3.3150  -10.1630   -0.2770 C   0  0  0  0  0  0  0  0  0  0  0  0
   -4.4010  -11.1730   -0.6460 C   0  0  0  0  0  0  0  0  0  0  0  0
   -3.8580  -12.5330   -0.2290 C   0  0  0  0  0  0  0  0  0  0  0  0
    3.5070  -14.5010   -0.0630 C   0  0  0  0  0  0  0  0  0  0  0  0
    4.8950  -14.3260   -0.1220 C   0  0  0  0  0  0  0  0  0  0  0  0
    7.6390  -13.1070   -1.9950 C   0  0  0  0  0  0  0  0  0  0  0  0
    8.9170  -12.9760   -2.1930 N   0  0  0  0  0  0  0  0  0  0  0  0
    9.6630  -12.6670   -1.0850 C   0  0  0  0  0  0  0  0  0  0  0  0
   11.9350  -13.2160   -3.0860 C   0  0  0  0  0  0  0  0  0  0  0  0
   13.8620  -14.9880   -5.5260 C   0  0  0  0  0  0  0  0  0  0  0  0
   13.8270  -15.4410   -6.9970 C   0  0  0  0  0  0  0  0  0  0  0  0
   12.2702  -17.5690   -8.7331 H   0  0  0  0  0  0  0  0  0  0  0  0
   11.5214  -16.0361   -9.2953 H   0  0  0  0  0  0  0  0  0  0  0  0
   13.3087  -16.2155   -9.2953 H   0  0  0  0  0  0  0  0  0  0  0  0
   12.2050  -16.7050   -6.7260 H   0  0  0  0  0  0  0  0  0  0  0  0
   11.6338  -13.9831   -7.7929 H   0  0  0  0  0  0  0  0  0  0  0  0
   10.4047  -15.2344   -7.3622 H   0  0  0  0  0  0  0  0  0  0  0  0
   10.7813  -13.4848   -5.5627 H   0  0  0  0  0  0  0  0  0  0  0  0
   11.0742  -15.1895   -5.0329 H   0  0  0  0  0  0  0  0  0  0  0  0
   14.7961  -12.3405   -4.6991 H   0  0  0  0  0  0  0  0  0  0  0  0
   15.0082  -10.8901   -2.6953 H   0  0  0  0  0  0  0  0  0  0  0  0
   13.2459  -10.9123   -0.9371 H   0  0  0  0  0  0  0  0  0  0  0  0
   12.1011  -11.9078    0.9551 H   0  0  0  0  0  0  0  0  0  0  0  0
    7.1350  -11.5600    2.0650 H   0  0  0  0  0  0  0  0  0  0  0  0
    7.0940  -13.3140    2.2440 H   0  0  0  0  0  0  0  0  0  0  0  0
    4.9936  -11.2396   -1.5619 H   0  0  0  0  0  0  0  0  0  0  0  0
    2.5269  -11.5620   -1.4703 H   0  0  0  0  0  0  0  0  0  0  0  0
    0.7910  -13.8040   -1.4080 H   0  0  0  0  0  0  0  0  0  0  0  0
   -1.2920  -13.0665   -0.6771 H   0  0  0  0  0  0  0  0  0  0  0  0
   -1.1837  -14.7697   -0.0482 H   0  0  0  0  0  0  0  0  0  0  0  0
   -2.6258  -14.2530    1.5526 H   0  0  0  0  0  0  0  0  0  0  0  0
   -1.4220  -13.0450    2.1880 H   0  0  0  0  0  0  0  0  0  0  0  0
   -3.5129  -12.0699    1.9102 H   0  0  0  0  0  0  0  0  0  0  0  0
   -1.9149  -10.3512    1.3752 H   0  0  0  0  0  0  0  0  0  0  0  0
   -1.3657  -11.1512   -0.0971 H   0  0  0  0  0  0  0  0  0  0  0  0
   -3.7379   -9.3588    0.3430 H   0  0  0  0  0  0  0  0  0  0  0  0
   -2.8830   -9.6957   -1.1742 H   0  0  0  0  0  0  0  0  0  0  0  0
   -5.3323  -10.9496   -0.1049 H   0  0  0  0  0  0  0  0  0  0  0  0
   -4.6362  -11.1418   -1.7201 H   0  0  0  0  0  0  0  0  0  0  0  0
   -4.6751  -13.2098    0.0614 H   0  0  0  0  0  0  0  0  0  0  0  0
   -3.3187  -13.0447   -1.0398 H   0  0  0  0  0  0  0  0  0  0  0  0
    3.0927  -15.4263    0.3639 H   0  0  0  0  0  0  0  0  0  0  0  0
    5.5601  -15.1148    0.2593 H   0  0  0  0  0  0  0  0  0  0  0  0
    7.0303  -13.3424   -2.8805 H   0  0  0  0  0  0  0  0  0  0  0  0
   11.0686  -13.8869   -3.1826 H   0  0  0  0  0  0  0  0  0  0  0  0
   14.8385  -14.5277   -5.3149 H   0  0  0  0  0  0  0  0  0  0  0  0
   13.7029  -15.8680   -4.8854 H   0  0  0  0  0  0  0  0  0  0  0  0
   14.0945  -14.5922   -7.6435 H   0  0  0  0  0  0  0  0  0  0  0  0
   14.5453  -16.2629   -7.1330 H   0  0  0  0  0  0  0  0  0  0  0  0
  1  2  1  0
  2  3  1  0
  3  4  1  0
  4  5  1  0
  5  6  1  0
  6  7  2  0
  7  8  1  0
  8  9  2  0
  9 10  1  0
 10 11  1  0
 11 12  1  0
 12 13  2  0
 13 14  1  0
 14 15  1  0
 15 16  1  0
 15 17  2  0
 17 18  1  0
 18 19  2  0
 19 20  1  0
 20 21  2  0
 21 22  1  0
 22 23  1  0
 23 24  2  0
 23 25  1  0
 25 26  1  0
 26 27  1  0
 27 28  1  0
 28 29  1  0
 29 30  1  0
 30 31  1  0
 21 32  1  0
 32 33  2  0
 17 34  1  0
 34 35  2  0
 35 36  1  0
 10 37  2  0
  5 38  1  0
 38 39  1  0
 39  2  1  0
 37  6  1  0
 36 11  2  0
 36 14  1  0
 33 18  1  0
 31 27  1  0
  1 40  1  0
  1 41  1  0
  1 42  1  0
  2 43  1  0
  3 44  1  0
  3 45  1  0
  4 46  1  0
  4 47  1  0
  7 48  1  0
  8 49  1  0
  9 50  1  0
 12 51  1  0
 16 52  1  0
 16 53  1  0
 19 54  1  0
 20 55  1  0
 22 56  1  0
 25 57  1  0
 25 58  1  0
 26 59  1  0
 26 60  1  0
 27 61  1  0
 28 62  1  0
 28 63  1  0
 29 64  1  0
 29 65  1  0
 30 66  1  0
 30 67  1  0
 31 68  1  0
 31 69  1  0
 32 70  1  0
 33 71  1  0
 34 72  1  0
 37 73  1  0
 38 74  1  0
 38 75  1  0
 39 76  1  0
 39 77  1  0
M  CHG  1   2   1
M  END
>  <meeko>  (5) 
{"is_sidechain": [false], "free_energy": -8.513, "intermolecular_energy": -12.602, "internal_energy": -0.911}

$$$$
LIB_BHIWBHXJQRREGM__M_PUB_ALL__e8__s20260927
     RDKit          3D

 77 82  0  0  0  0  0  0  0  0999 V2000
   14.7420  -13.4660  -12.3110 C   0  0  0  0  0  0  0  0  0  0  0  0
   13.4930  -13.4100  -11.4880 N   0  0  0  0  0  0  0  0  0  0  0  0
   12.4350  -14.3930  -11.9790 C   0  0  0  0  0  0  0  0  0  0  0  0
   11.1970  -14.3690  -11.0600 C   0  0  0  0  0  0  0  0  0  0  0  0
   10.6990  -12.9940  -10.8730 N   0  0  0  0  0  0  0  0  0  0  0  0
    9.3850  -12.8710  -10.4060 C   0  0  0  0  0  0  0  0  0  0  0  0
    8.5190  -11.9210  -10.9670 C   0  0  0  0  0  0  0  0  0  0  0  0
    7.2010  -11.7860  -10.5280 C   0  0  0  0  0  0  0  0  0  0  0  0
    6.7180  -12.6020   -9.5080 C   0  0  0  0  0  0  0  0  0  0  0  0
    7.5490  -13.5570   -8.9140 C   0  0  0  0  0  0  0  0  0  0  0  0
    7.0370  -14.4000   -7.8410 C   0  0  0  0  0  0  0  0  0  0  0  0
    7.3910  -15.7220   -7.4960 C   0  0  0  0  0  0  0  0  0  0  0  0
    6.7410  -16.1850   -6.4320 N   0  0  0  0  0  0  0  0  0  0  0  0
    5.9450  -15.1460   -6.0450 N   0  0  0  0  0  0  0  0  0  0  0  0
    5.0740  -15.1240   -4.9210 C   0  0  0  0  0  0  0  0  0  0  0  0
    5.0460  -16.2650   -4.1410 N   0  0  0  0  0  0  0  0  0  0  0  0
    4.3620  -14.0000   -4.6860 C   0  0  0  0  0  0  0  0  0  0  0  0
    3.4250  -13.8200   -3.5670 C   0  0  0  0  0  0  0  0  0  0  0  0
    2.0650  -14.1190   -3.7110 C   0  0  0  0  0  0  0  0  0  0  0  0
    1.1800  -13.9290   -2.6440 C   0  0  0  0  0  0  0  0  0  0  0  0
    1.6340  -13.4270   -1.4190 C   0  0  0  0  0  0  0  0  0  0  0  0
    0.6790  -13.2630   -0.3950 N   0  0  0  0  0  0  0  0  0  0  0  0
    0.0400  -14.2570    0.3320 C   0  0  0  0  0  0  0  0  0  0  0  0
    0.2230  -15.4640    0.2260 O   0  0  0  0  0  0  0  0  0  0  0  0
   -0.9520  -13.6670    1.3250 C   0  0  0  0  0  0  0  0  0  0  0  0
   -2.0240  -12.8170    0.6450 C   0  0  0  0  0  0  0  0  0  0  0  0
   -2.3800  -11.5660    1.4500 C   0  0  0  0  0  0  0  0  0  0  0  0
   -1.5660  -11.3880    2.7310 C   0  0  0  0  0  0  0  0  0  0  0  0
   -1.6780   -9.9010    3.0630 C   0  0  0  0  0  0  0  0  0  0  0  0
   -2.1230   -9.2060    1.7770 C   0  0  0  0  0  0  0  0  0  0  0  0
   -2.0770  -10.2750    0.6930 C   0  0  0  0  0  0  0  0  0  0  0  0
    2.9890  -13.1290   -1.2780 C   0  0  0  0  0  0  0  0  0  0  0  0
    3.8780  -13.3230   -2.3420 C   0  0  0  0  0  0  0  0  0  0  0  0
    4.5860  -12.8860   -5.6610 C   0  0  0  0  0  0  0  0  0  0  0  0
    5.3730  -12.8870   -6.6940 N   0  0  0  0  0  0  0  0  0  0  0  0
    6.0870  -14.0400   -6.8970 C   0  0  0  0  0  0  0  0  0  0  0  0
    8.8750  -13.6690   -9.3670 C   0  0  0  0  0  0  0  0  0  0  0  0
   11.6840  -11.9710  -10.4880 C   0  0  0  0  0  0  0  0  0  0  0  0
   12.9090  -12.0020  -11.4200 C   0  0  0  0  0  0  0  0  0  0  0  0
   15.6176  -13.5053  -11.6463 H   0  0  0  0  0  0  0  0  0  0  0  0
   14.7229  -14.3642  -12.9457 H   0  0  0  0  0  0  0  0  0  0  0  0
   14.8034  -12.5697  -12.9457 H   0  0  0  0  0  0  0  0  0  0  0  0
   13.7340  -13.6820  -10.5260 H   0  0  0  0  0  0  0  0  0  0  0  0
   12.1319  -14.1166  -12.9997 H   0  0  0  0  0  0  0  0  0  0  0  0
   12.8629  -15.4063  -11.9679 H   0  0  0  0  0  0  0  0  0  0  0  0
   10.4022  -14.9801  -11.5125 H   0  0  0  0  0  0  0  0  0  0  0  0
   11.4842  -14.7723  -10.0777 H   0  0  0  0  0  0  0  0  0  0  0  0
    8.8870  -11.2673  -11.7715 H   0  0  0  0  0  0  0  0  0  0  0  0
    6.5430  -11.0342  -10.9882 H   0  0  0  0  0  0  0  0  0  0  0  0
    5.6774  -12.4947   -9.1679 H   0  0  0  0  0  0  0  0  0  0  0  0
    8.1330  -16.3125   -8.0534 H   0  0  0  0  0  0  0  0  0  0  0  0
    5.6560  -17.0500   -4.3320 H   0  0  0  0  0  0  0  0  0  0  0  0
    4.2730  -16.3580   -3.4830 H   0  0  0  0  0  0  0  0  0  0  0  0
    1.6895  -14.5060   -4.6697 H   0  0  0  0  0  0  0  0  0  0  0  0
    0.1157  -14.1769   -2.7694 H   0  0  0  0  0  0  0  0  0  0  0  0
    0.4380  -12.3080   -0.1590 H   0  0  0  0  0  0  0  0  0  0  0  0
   -1.4437  -14.4902    1.8640 H   0  0  0  0  0  0  0  0  0  0  0  0
   -0.3915  -13.0136    2.0097 H   0  0  0  0  0  0  0  0  0  0  0  0
   -1.6534  -12.5066   -0.3431 H   0  0  0  0  0  0  0  0  0  0  0  0
   -2.9333  -13.4304    0.5625 H   0  0  0  0  0  0  0  0  0  0  0  0
   -3.4491  -11.7259    1.6538 H   0  0  0  0  0  0  0  0  0  0  0  0
   -1.9851  -11.9989    3.5441 H   0  0  0  0  0  0  0  0  0  0  0  0
   -0.5208  -11.7073    2.6058 H   0  0  0  0  0  0  0  0  0  0  0  0
   -2.4218   -9.7433    3.8580 H   0  0  0  0  0  0  0  0  0  0  0  0
   -0.7197   -9.4989    3.4234 H   0  0  0  0  0  0  0  0  0  0  0  0
   -3.1452   -8.8148    1.8866 H   0  0  0  0  0  0  0  0  0  0  0  0
   -1.4747   -8.3517    1.5322 H   0  0  0  0  0  0  0  0  0  0  0  0
   -2.8371  -10.0846   -0.0790 H   0  0  0  0  0  0  0  0  0  0  0  0
   -1.1135  -10.3058    0.1633 H   0  0  0  0  0  0  0  0  0  0  0  0
    3.3633  -12.7374   -0.3206 H   0  0  0  0  0  0  0  0  0  0  0  0
    4.9434  -13.0819   -2.2125 H   0  0  0  0  0  0  0  0  0  0  0  0
    4.0189  -11.9606   -5.4818 H   0  0  0  0  0  0  0  0  0  0  0  0
    9.5373  -14.4074   -8.8915 H   0  0  0  0  0  0  0  0  0  0  0  0
   11.2130  -10.9787  -10.5468 H   0  0  0  0  0  0  0  0  0  0  0  0
   12.0207  -12.1792   -9.4617 H   0  0  0  0  0  0  0  0  0  0  0  0
   12.6043  -11.6873  -12.4290 H   0  0  0  0  0  0  0  0  0  0  0  0
   13.6744  -11.3180  -11.0246 H   0  0  0  0  0  0  0  0  0  0  0  0
  1  2  1  0
  2  3  1  0
  3  4  1  0
  4  5  1  0
  5  6  1  0
  6  7  2  0
  7  8  1  0
  8  9  2  0
  9 10  1  0
 10 11  1  0
 11 12  1  0
 12 13  2  0
 13 14  1  0
 14 15  1  0
 15 16  1  0
 15 17  2  0
 17 18  1  0
 18 19  2  0
 19 20  1  0
 20 21  2  0
 21 22  1  0
 22 23  1  0
 23 24  2  0
 23 25  1  0
 25 26  1  0
 26 27  1  0
 27 28  1  0
 28 29  1  0
 29 30  1  0
 30 31  1  0
 21 32  1  0
 32 33  2  0
 17 34  1  0
 34 35  2  0
 35 36  1  0
 10 37  2  0
  5 38  1  0
 38 39  1  0
 39  2  1  0
 37  6  1  0
 36 11  2  0
 36 14  1  0
 33 18  1  0
 31 27  1  0
  1 40  1  0
  1 41  1  0
  1 42  1  0
  2 43  1  0
  3 44  1  0
  3 45  1  0
  4 46  1  0
  4 47  1  0
  7 48  1  0
  8 49  1  0
  9 50  1  0
 12 51  1  0
 16 52  1  0
 16 53  1  0
 19 54  1  0
 20 55  1  0
 22 56  1  0
 25 57  1  0
 25 58  1  0
 26 59  1  0
 26 60  1  0
 27 61  1  0
 28 62  1  0
 28 63  1  0
 29 64  1  0
 29 65  1  0
 30 66  1  0
 30 67  1  0
 31 68  1  0
 31 69  1  0
 32 70  1  0
 33 71  1  0
 34 72  1  0
 37 73  1  0
 38 74  1  0
 38 75  1  0
 39 76  1  0
 39 77  1  0
M  CHG  1   2   1
M  END
>  <meeko>  (6) 
{"is_sidechain": [false], "free_energy": -8.051, "intermolecular_energy": -11.958, "internal_energy": -0.891}

$$$$
LIB_BHIWBHXJQRREGM__M_PUB_ALL__e8__s20260927
     RDKit          3D

 77 82  0  0  0  0  0  0  0  0999 V2000
   12.4650  -16.2380   -8.7010 C   0  0  0  0  0  0  0  0  0  0  0  0
   12.4700  -15.7250   -7.2950 N   0  0  0  0  0  0  0  0  0  0  0  0
   11.4780  -14.5840   -7.0950 C   0  0  0  0  0  0  0  0  0  0  0  0
   11.4480  -14.1380   -5.6190 C   0  0  0  0  0  0  0  0  0  0  0  0
   12.8050  -13.8470   -5.1230 N   0  0  0  0  0  0  0  0  0  0  0  0
   12.8850  -13.0700   -3.9620 C   0  0  0  0  0  0  0  0  0  0  0  0
   13.9830  -12.2230   -3.7480 C   0  0  0  0  0  0  0  0  0  0  0  0
   14.0810  -11.4300   -2.6040 C   0  0  0  0  0  0  0  0  0  0  0  0
   13.0770  -11.4670   -1.6400 C   0  0  0  0  0  0  0  0  0  0  0  0
   11.9690  -12.3030   -1.8070 C   0  0  0  0  0  0  0  0  0  0  0  0
   10.9280  -12.3430   -0.7880 C   0  0  0  0  0  0  0  0  0  0  0  0
   11.0200  -12.0680    0.5940 C   0  0  0  0  0  0  0  0  0  0  0  0
    9.8590  -12.1730    1.2340 N   0  0  0  0  0  0  0  0  0  0  0  0
    8.9650  -12.5080    0.2580 N   0  0  0  0  0  0  0  0  0  0  0  0
    7.5650  -12.7000    0.4250 C   0  0  0  0  0  0  0  0  0  0  0  0
    7.0660  -12.5130    1.7010 N   0  0  0  0  0  0  0  0  0  0  0  0
    6.8310  -13.0260   -0.6610 C   0  0  0  0  0  0  0  0  0  0  0  0
    5.3780  -13.2530   -0.6530 C   0  0  0  0  0  0  0  0  0  0  0  0
    4.4840  -12.2060   -0.9010 C   0  0  0  0  0  0  0  0  0  0  0  0
    3.1030  -12.4300   -0.8740 C   0  0  0  0  0  0  0  0  0  0  0  0
    2.5900  -13.7010   -0.5890 C   0  0  0  0  0  0  0  0  0  0  0  0
    1.1880  -13.8450   -0.5800 N   0  0  0  0  0  0  0  0  0  0  0  0
    0.3500  -13.8780    0.5260 C   0  0  0  0  0  0  0  0  0  0  0  0
    0.6890  -13.7560    1.6960 O   0  0  0  0  0  0  0  0  0  0  0  0
   -1.1010  -14.0850    0.1140 C   0  0  0  0  0  0  0  0  0  0  0  0
   -1.3410  -15.4560   -0.5140 C   0  0  0  0  0  0  0  0  0  0  0  0
   -2.0630  -16.4170    0.4310 C   0  0  0  0  0  0  0  0  0  0  0  0
   -1.1400  -17.3830    1.1730 C   0  0  0  0  0  0  0  0  0  0  0  0
   -1.9430  -17.8360    2.3910 C   0  0  0  0  0  0  0  0  0  0  0  0
   -3.0600  -16.8090    2.5750 C   0  0  0  0  0  0  0  0  0  0  0  0
   -2.7640  -15.6950    1.5790 C   0  0  0  0  0  0  0  0  0  0  0  0
    3.4840  -14.7440   -0.3410 C   0  0  0  0  0  0  0  0  0  0  0  0
    4.8660  -14.5230   -0.3730 C   0  0  0  0  0  0  0  0  0  0  0  0
    7.6000  -13.1450   -1.9400 C   0  0  0  0  0  0  0  0  0  0  0  0
    8.8760  -12.9770   -2.1130 N   0  0  0  0  0  0  0  0  0  0  0  0
    9.5890  -12.6390   -0.9920 C   0  0  0  0  0  0  0  0  0  0  0  0
   11.8960  -13.1000   -2.9630 C   0  0  0  0  0  0  0  0  0  0  0  0
   13.8390  -14.8660   -5.3630 C   0  0  0  0  0  0  0  0  0  0  0  0
   13.8620  -15.2950   -6.8420 C   0  0  0  0  0  0  0  0  0  0  0  0
   12.4543  -17.3379   -8.6900 H   0  0  0  0  0  0  0  0  0  0  0  0
   11.5704  -15.8678   -9.2232 H   0  0  0  0  0  0  0  0  0  0  0  0
   13.3666  -15.8853   -9.2232 H   0  0  0  0  0  0  0  0  0  0  0  0
   12.1760  -16.4920   -6.6760 H   0  0  0  0  0  0  0  0  0  0  0  0
   11.7766  -13.7320   -7.7234 H   0  0  0  0  0  0  0  0  0  0  0  0
   10.4747  -14.9349   -7.3782 H   0  0  0  0  0  0  0  0  0  0  0  0
   10.8314  -13.2314   -5.5305 H   0  0  0  0  0  0  0  0  0  0  0  0
   11.0245  -14.9551   -5.0165 H   0  0  0  0  0  0  0  0  0  0  0  0
   14.7852  -12.1832   -4.4996 H   0  0  0  0  0  0  0  0  0  0  0  0
   14.9531  -10.7744   -2.4635 H   0  0  0  0  0  0  0  0  0  0  0  0
   13.1560  -10.8355   -0.7428 H   0  0  0  0  0  0  0  0  0  0  0  0
   11.9611  -11.7934    1.0930 H   0  0  0  0  0  0  0  0  0  0  0  0
    7.2690  -13.1650    2.4480 H   0  0  0  0  0  0  0  0  0  0  0  0
    6.3500  -11.7970    1.8180 H   0  0  0  0  0  0  0  0  0  0  0  0
    4.8695  -11.1991   -1.1189 H   0  0  0  0  0  0  0  0  0  0  0  0
    2.4129  -11.5983   -1.0790 H   0  0  0  0  0  0  0  0  0  0  0  0
    0.7420  -13.9260   -1.4860 H   0  0  0  0  0  0  0  0  0  0  0  0
   -1.7379  -13.9891    1.0057 H   0  0  0  0  0  0  0  0  0  0  0  0
   -1.3456  -13.3240   -0.6417 H   0  0  0  0  0  0  0  0  0  0  0  0
   -1.9520  -15.3267   -1.4195 H   0  0  0  0  0  0  0  0  0  0  0  0
   -0.3585  -15.8926   -0.7467 H   0  0  0  0  0  0  0  0  0  0  0  0
   -2.7469  -16.9373   -0.2557 H   0  0  0  0  0  0  0  0  0  0  0  0
   -0.8860  -18.2426    0.5353 H   0  0  0  0  0  0  0  0  0  0  0  0
   -0.1880  -16.9107    1.4568 H   0  0  0  0  0  0  0  0  0  0  0  0
   -2.3691  -18.8349    2.2162 H   0  0  0  0  0  0  0  0  0  0  0  0
   -1.3080  -17.9007    3.2869 H   0  0  0  0  0  0  0  0  0  0  0  0
   -4.0384  -17.2642    2.3617 H   0  0  0  0  0  0  0  0  0  0  0  0
   -3.0980  -16.4311    3.6073 H   0  0  0  0  0  0  0  0  0  0  0  0
   -3.6939  -15.2191    1.2342 H   0  0  0  0  0  0  0  0  0  0  0  0
   -2.1557  -14.8864    2.0104 H   0  0  0  0  0  0  0  0  0  0  0  0
    3.0986  -15.7499   -0.1181 H   0  0  0  0  0  0  0  0  0  0  0  0
    5.5557  -15.3570   -0.1759 H   0  0  0  0  0  0  0  0  0  0  0  0
    7.0172  -13.4046   -2.8361 H   0  0  0  0  0  0  0  0  0  0  0  0
   11.0340  -13.7713   -3.0905 H   0  0  0  0  0  0  0  0  0  0  0  0
   14.8216  -14.4511   -5.0940 H   0  0  0  0  0  0  0  0  0  0  0  0
   13.6099  -15.7480   -4.7469 H   0  0  0  0  0  0  0  0  0  0  0  0
   14.1983  -14.4489   -7.4592 H   0  0  0  0  0  0  0  0  0  0  0  0
   14.5515  -16.1446   -6.9555 H   0  0  0  0  0  0  0  0  0  0  0  0
  1  2  1  0
  2  3  1  0
  3  4  1  0
  4  5  1  0
  5  6  1  0
  6  7  2  0
  7  8  1  0
  8  9  2  0
  9 10  1  0
 10 11  1  0
 11 12  1  0
 12 13  2  0
 13 14  1  0
 14 15  1  0
 15 16  1  0
 15 17  2  0
 17 18  1  0
 18 19  2  0
 19 20  1  0
 20 21  2  0
 21 22  1  0
 22 23  1  0
 23 24  2  0
 23 25  1  0
 25 26  1  0
 26 27  1  0
 27 28  1  0
 28 29  1  0
 29 30  1  0
 30 31  1  0
 21 32  1  0
 32 33  2  0
 17 34  1  0
 34 35  2  0
 35 36  1  0
 10 37  2  0
  5 38  1  0
 38 39  1  0
 39  2  1  0
 37  6  1  0
 36 11  2  0
 36 14  1  0
 33 18  1  0
 31 27  1  0
  1 40  1  0
  1 41  1  0
  1 42  1  0
  2 43  1  0
  3 44  1  0
  3 45  1  0
  4 46  1  0
  4 47  1  0
  7 48  1  0
  8 49  1  0
  9 50  1  0
 12 51  1  0
 16 52  1  0
 16 53  1  0
 19 54  1  0
 20 55  1  0
 22 56  1  0
 25 57  1  0
 25 58  1  0
 26 59  1  0
 26 60  1  0
 27 61  1  0
 28 62  1  0
 28 63  1  0
 29 64  1  0
 29 65  1  0
 30 66  1  0
 30 67  1  0
 31 68  1  0
 31 69  1  0
 32 70  1  0
 33 71  1  0
 34 72  1  0
 37 73  1  0
 38 74  1  0
 38 75  1  0
 39 76  1  0
 39 77  1  0
M  CHG  1   2   1
M  END
>  <meeko>  (7) 
{"is_sidechain": [false], "free_energy": -8.037, "intermolecular_energy": -11.799, "internal_energy": -1.029}

$$$$
LIB_BHIWBHXJQRREGM__M_PUB_ALL__e8__s20260927
     RDKit          3D

 77 82  0  0  0  0  0  0  0  0999 V2000
   14.9270  -23.4720    7.1320 C   0  0  0  0  0  0  0  0  0  0  0  0
   15.4860  -22.6170    8.2250 N   0  0  0  0  0  0  0  0  0  0  0  0
   14.4450  -22.2940    9.2930 C   0  0  0  0  0  0  0  0  0  0  0  0
   15.0750  -21.4840   10.4440 C   0  0  0  0  0  0  0  0  0  0  0  0
   15.7970  -20.3040    9.9320 N   0  0  0  0  0  0  0  0  0  0  0  0
   16.0650  -19.2940   10.8630 C   0  0  0  0  0  0  0  0  0  0  0  0
   17.3510  -18.7390   10.9560 C   0  0  0  0  0  0  0  0  0  0  0  0
   17.6420  -17.7220   11.8680 C   0  0  0  0  0  0  0  0  0  0  0  0
   16.6470  -17.2370   12.7130 C   0  0  0  0  0  0  0  0  0  0  0  0
   15.3550  -17.7670   12.6600 C   0  0  0  0  0  0  0  0  0  0  0  0
   14.3240  -17.2590   13.5560 C   0  0  0  0  0  0  0  0  0  0  0  0
   13.7920  -17.8410   14.7270 C   0  0  0  0  0  0  0  0  0  0  0  0
   12.8740  -17.0850   15.3250 N   0  0  0  0  0  0  0  0  0  0  0  0
   12.8010  -15.9650   14.5480 N   0  0  0  0  0  0  0  0  0  0  0  0
   11.9840  -14.8250   14.7850 C   0  0  0  0  0  0  0  0  0  0  0  0
   11.2010  -14.8560   15.9240 N   0  0  0  0  0  0  0  0  0  0  0  0
   12.0460  -13.8000   13.9070 C   0  0  0  0  0  0  0  0  0  0  0  0
   11.2710  -12.5560   14.0140 C   0  0  0  0  0  0  0  0  0  0  0  0
   10.0500  -12.4080   13.3460 C   0  0  0  0  0  0  0  0  0  0  0  0
    9.3280  -11.2130   13.4430 C   0  0  0  0  0  0  0  0  0  0  0  0
    9.8160  -10.1420   14.2000 C   0  0  0  0  0  0  0  0  0  0  0  0
    9.0310   -8.9730   14.2460 N   0  0  0  0  0  0  0  0  0  0  0  0
    9.4050   -7.6880   13.8780 C   0  0  0  0  0  0  0  0  0  0  0  0
   10.4900   -7.3540   13.4160 O   0  0  0  0  0  0  0  0  0  0  0  0
    8.2770   -6.6940   14.1130 C   0  0  0  0  0  0  0  0  0  0  0  0
    7.3350   -6.5840   12.9150 C   0  0  0  0  0  0  0  0  0  0  0  0
    5.8630   -6.5550   13.3260 C   0  0  0  0  0  0  0  0  0  0  0  0
    5.3570   -7.8530   13.9550 C   0  0  0  0  0  0  0  0  0  0  0  0
    4.1160   -7.4470   14.7470 C   0  0  0  0  0  0  0  0  0  0  0  0
    4.2060   -5.9340   14.9420 C   0  0  0  0  0  0  0  0  0  0  0  0
    5.5810   -5.5320   14.4240 C   0  0  0  0  0  0  0  0  0  0  0  0
   11.0340  -10.2910   14.8650 C   0  0  0  0  0  0  0  0  0  0  0  0
   11.7560  -11.4880   14.7740 C   0  0  0  0  0  0  0  0  0  0  0  0
   12.9940  -13.9950   12.7640 C   0  0  0  0  0  0  0  0  0  0  0  0
   13.7450  -15.0280   12.5280 N   0  0  0  0  0  0  0  0  0  0  0  0
   13.6640  -16.0450   13.4440 C   0  0  0  0  0  0  0  0  0  0  0  0
   15.0870  -18.7960   11.7410 C   0  0  0  0  0  0  0  0  0  0  0  0
   16.7530  -20.5270    8.8360 C   0  0  0  0  0  0  0  0  0  0  0  0
   16.1070  -21.3290    7.6910 C   0  0  0  0  0  0  0  0  0  0  0  0
   14.3754  -24.3157    7.5723 H   0  0  0  0  0  0  0  0  0  0  0  0
   14.2456  -22.8730    6.5100 H   0  0  0  0  0  0  0  0  0  0  0  0
   15.7490  -23.8560    6.5100 H   0  0  0  0  0  0  0  0  0  0  0  0
   16.2380  -23.1440    8.6880 H   0  0  0  0  0  0  0  0  0  0  0  0
   13.6338  -21.7055    8.8396 H   0  0  0  0  0  0  0  0  0  0  0  0
   14.0522  -23.2376    9.6995 H   0  0  0  0  0  0  0  0  0  0  0  0
   14.2788  -21.1499   11.1255 H   0  0  0  0  0  0  0  0  0  0  0  0
   15.7921  -22.1292   10.9727 H   0  0  0  0  0  0  0  0  0  0  0  0
   18.1473  -19.1134   10.2959 H   0  0  0  0  0  0  0  0  0  0  0  0
   18.6581  -17.3037   11.9189 H   0  0  0  0  0  0  0  0  0  0  0  0
   16.8793  -16.4323   13.4261 H   0  0  0  0  0  0  0  0  0  0  0  0
   14.1057  -18.8240   15.1083 H   0  0  0  0  0  0  0  0  0  0  0  0
   10.2170  -14.6220   15.8940 H   0  0  0  0  0  0  0  0  0  0  0  0
   11.6840  -14.9510   16.8160 H   0  0  0  0  0  0  0  0  0  0  0  0
    9.6550  -13.2370   12.7404 H   0  0  0  0  0  0  0  0  0  0  0  0
    8.3662  -11.1145   12.9183 H   0  0  0  0  0  0  0  0  0  0  0  0
    8.0810   -9.0860   14.5790 H   0  0  0  0  0  0  0  0  0  0  0  0
    7.6969   -7.0194   14.9892 H   0  0  0  0  0  0  0  0  0  0  0  0
    8.7310   -5.7049   14.2731 H   0  0  0  0  0  0  0  0  0  0  0  0
    7.5666   -5.6579   12.3685 H   0  0  0  0  0  0  0  0  0  0  0  0
    7.4884   -7.4743   12.2874 H   0  0  0  0  0  0  0  0  0  0  0  0
    5.3665   -6.3350   12.3694 H   0  0  0  0  0  0  0  0  0  0  0  0
    5.0969   -8.5850   13.1762 H   0  0  0  0  0  0  0  0  0  0  0  0
    6.1174   -8.3291   14.5914 H   0  0  0  0  0  0  0  0  0  0  0  0
    3.2054   -7.7050   14.1864 H   0  0  0  0  0  0  0  0  0  0  0  0
    4.0691   -7.9719   15.7125 H   0  0  0  0  0  0  0  0  0  0  0  0
    3.4167   -5.4259   14.3686 H   0  0  0  0  0  0  0  0  0  0  0  0
    4.0715   -5.6521   15.9967 H   0  0  0  0  0  0  0  0  0  0  0  0
    5.5637   -4.5111   14.0148 H   0  0  0  0  0  0  0  0  0  0  0  0
    6.3497   -5.5260   15.2108 H   0  0  0  0  0  0  0  0  0  0  0  0
   11.4310   -9.4601   15.4667 H   0  0  0  0  0  0  0  0  0  0  0  0
   12.7137  -11.5883   15.3057 H   0  0  0  0  0  0  0  0  0  0  0  0
   13.0620  -13.1684   12.0414 H   0  0  0  0  0  0  0  0  0  0  0  0
   14.0755  -19.2271   11.7077 H   0  0  0  0  0  0  0  0  0  0  0  0
   17.0883  -19.5538    8.4482 H   0  0  0  0  0  0  0  0  0  0  0  0
   17.6053  -21.1018    9.2275 H   0  0  0  0  0  0  0  0  0  0  0  0
   15.3237  -20.7183    7.2182 H   0  0  0  0  0  0  0  0  0  0  0  0
   16.8828  -21.5865    6.9549 H   0  0  0  0  0  0  0  0  0  0  0  0
  1  2  1  0
  2  3  1  0
  3  4  1  0
  4  5  1  0
  5  6  1  0
  6  7  2  0
  7  8  1  0
  8  9  2  0
  9 10  1  0
 10 11  1  0
 11 12  1  0
 12 13  2  0
 13 14  1  0
 14 15  1  0
 15 16  1  0
 15 17  2  0
 17 18  1  0
 18 19  2  0
 19 20  1  0
 20 21  2  0
 21 22  1  0
 22 23  1  0
 23 24  2  0
 23 25  1  0
 25 26  1  0
 26 27  1  0
 27 28  1  0
 28 29  1  0
 29 30  1  0
 30 31  1  0
 21 32  1  0
 32 33  2  0
 17 34  1  0
 34 35  2  0
 35 36  1  0
 10 37  2  0
  5 38  1  0
 38 39  1  0
 39  2  1  0
 37  6  1  0
 36 11  2  0
 36 14  1  0
 33 18  1  0
 31 27  1  0
  1 40  1  0
  1 41  1  0
  1 42  1  0
  2 43  1  0
  3 44  1  0
  3 45  1  0
  4 46  1  0
  4 47  1  0
  7 48  1  0
  8 49  1  0
  9 50  1  0
 12 51  1  0
 16 52  1  0
 16 53  1  0
 19 54  1  0
 20 55  1  0
 22 56  1  0
 25 57  1  0
 25 58  1  0
 26 59  1  0
 26 60  1  0
 27 61  1  0
 28 62  1  0
 28 63  1  0
 29 64  1  0
 29 65  1  0
 30 66  1  0
 30 67  1  0
 31 68  1  0
 31 69  1  0
 32 70  1  0
 33 71  1  0
 34 72  1  0
 37 73  1  0
 38 74  1  0
 38 75  1  0
 39 76  1  0
 39 77  1  0
M  CHG  1   2   1
M  END
>  <meeko>  (8) 
{"is_sidechain": [false], "free_energy": -7.959, "intermolecular_energy": -11.578, "internal_energy": -1.138}

$$$$
LIB_BHIWBHXJQRREGM__M_PUB_ALL__e8__s20260927
     RDKit          3D

 77 82  0  0  0  0  0  0  0  0999 V2000
  -10.5270  -16.3000    6.8250 C   0  0  0  0  0  0  0  0  0  0  0  0
   -9.0940  -16.7260    6.7710 N   0  0  0  0  0  0  0  0  0  0  0  0
   -8.2850  -16.1780    7.9420 C   0  0  0  0  0  0  0  0  0  0  0  0
   -6.8370  -16.7050    7.9000 C   0  0  0  0  0  0  0  0  0  0  0  0
   -6.2210  -16.4680    6.5810 N   0  0  0  0  0  0  0  0  0  0  0  0
   -4.8240  -16.5280    6.5330 C   0  0  0  0  0  0  0  0  0  0  0  0
   -4.0630  -16.2900    7.6880 C   0  0  0  0  0  0  0  0  0  0  0  0
   -2.6680  -16.3560    7.6690 C   0  0  0  0  0  0  0  0  0  0  0  0
   -1.9990  -16.6600    6.4860 C   0  0  0  0  0  0  0  0  0  0  0  0
   -2.7170  -16.8940    5.3100 C   0  0  0  0  0  0  0  0  0  0  0  0
   -2.0070  -17.2020    4.0740 C   0  0  0  0  0  0  0  0  0  0  0  0
   -2.3370  -18.1260    3.0600 C   0  0  0  0  0  0  0  0  0  0  0  0
   -1.4760  -18.1320    2.0460 N   0  0  0  0  0  0  0  0  0  0  0  0
   -0.5570  -17.1780    2.3790 N   0  0  0  0  0  0  0  0  0  0  0  0
    0.5590  -16.7710    1.5960 C   0  0  0  0  0  0  0  0  0  0  0  0
    0.7130  -17.3970    0.3730 N   0  0  0  0  0  0  0  0  0  0  0  0
    1.3640  -15.8030    2.0860 C   0  0  0  0  0  0  0  0  0  0  0  0
    2.5500  -15.2730    1.3980 C   0  0  0  0  0  0  0  0  0  0  0  0
    3.7150  -16.0380    1.2770 C   0  0  0  0  0  0  0  0  0  0  0  0
    4.8430  -15.5160    0.6340 C   0  0  0  0  0  0  0  0  0  0  0  0
    4.8320  -14.2180    0.1100 C   0  0  0  0  0  0  0  0  0  0  0  0
    6.0080  -13.7660   -0.5200 N   0  0  0  0  0  0  0  0  0  0  0  0
    7.2000  -13.3890    0.0840 C   0  0  0  0  0  0  0  0  0  0  0  0
    7.4430  -13.4140    1.2840 O   0  0  0  0  0  0  0  0  0  0  0  0
    8.2200  -12.9260   -0.9460 C   0  0  0  0  0  0  0  0  0  0  0  0
    9.6360  -13.3990   -0.6210 C   0  0  0  0  0  0  0  0  0  0  0  0
   10.6770  -12.2910   -0.7800 C   0  0  0  0  0  0  0  0  0  0  0  0
   11.3840  -11.8980    0.5170 C   0  0  0  0  0  0  0  0  0  0  0  0
   12.6810  -11.2270    0.0690 C   0  0  0  0  0  0  0  0  0  0  0  0
   12.9090  -11.6560   -1.3790 C   0  0  0  0  0  0  0  0  0  0  0  0
   11.8450  -12.7070   -1.6710 C   0  0  0  0  0  0  0  0  0  0  0  0
    3.6690  -13.4560    0.2330 C   0  0  0  0  0  0  0  0  0  0  0  0
    2.5370  -13.9780    0.8710 C   0  0  0  0  0  0  0  0  0  0  0  0
    0.9710  -15.2620    3.4250 C   0  0  0  0  0  0  0  0  0  0  0  0
   -0.0410  -15.6210    4.1570 N   0  0  0  0  0  0  0  0  0  0  0  0
   -0.8410  -16.6000    3.6260 C   0  0  0  0  0  0  0  0  0  0  0  0
   -4.1200  -16.8150    5.3500 C   0  0  0  0  0  0  0  0  0  0  0  0
   -6.9880  -16.8890    5.3990 C   0  0  0  0  0  0  0  0  0  0  0  0
   -8.4290  -16.3480    5.4510 C   0  0  0  0  0  0  0  0  0  0  0  0
  -10.8423  -16.2063    7.8747 H   0  0  0  0  0  0  0  0  0  0  0  0
  -10.6403  -15.3293    6.3200 H   0  0  0  0  0  0  0  0  0  0  0  0
  -11.1521  -17.0512    6.3200 H   0  0  0  0  0  0  0  0  0  0  0  0
   -9.0650  -17.7520    6.8390 H   0  0  0  0  0  0  0  0  0  0  0  0
   -8.2708  -15.0794    7.8880 H   0  0  0  0  0  0  0  0  0  0  0  0
   -8.7539  -16.5088    8.8805 H   0  0  0  0  0  0  0  0  0  0  0  0
   -6.2450  -16.1892    8.6703 H   0  0  0  0  0  0  0  0  0  0  0  0
   -6.8554  -17.7890    8.0860 H   0  0  0  0  0  0  0  0  0  0  0  0
   -4.5768  -16.0460    8.6295 H   0  0  0  0  0  0  0  0  0  0  0  0
   -2.0968  -16.1675    8.5900 H   0  0  0  0  0  0  0  0  0  0  0  0
   -0.9005  -16.7162    6.4771 H   0  0  0  0  0  0  0  0  0  0  0  0
   -3.2213  -18.7787    3.1038 H   0  0  0  0  0  0  0  0  0  0  0  0
    0.0700  -17.2310   -0.3900 H   0  0  0  0  0  0  0  0  0  0  0  0
    1.3890  -18.1590    0.3240 H   0  0  0  0  0  0  0  0  0  0  0  0
    3.7446  -17.0570    1.6902 H   0  0  0  0  0  0  0  0  0  0  0  0
    5.7488  -16.1328    0.5392 H   0  0  0  0  0  0  0  0  0  0  0  0
    5.9830  -13.7180   -1.5320 H   0  0  0  0  0  0  0  0  0  0  0  0
    7.9325  -13.3236   -1.9305 H   0  0  0  0  0  0  0  0  0  0  0  0
    8.2255  -11.8260   -0.9399 H   0  0  0  0  0  0  0  0  0  0  0  0
    9.6580  -13.7564    0.4191 H   0  0  0  0  0  0  0  0  0  0  0  0
    9.8908  -14.1998   -1.3307 H   0  0  0  0  0  0  0  0  0  0  0  0
   10.0706  -11.4696   -1.1894 H   0  0  0  0  0  0  0  0  0  0  0  0
   10.7661  -11.1973    1.0977 H   0  0  0  0  0  0  0  0  0  0  0  0
   11.5695  -12.7657    1.1672 H   0  0  0  0  0  0  0  0  0  0  0  0
   12.5848  -10.1330    0.1313 H   0  0  0  0  0  0  0  0  0  0  0  0
   13.5250  -11.5212    0.7102 H   0  0  0  0  0  0  0  0  0  0  0  0
   12.7949  -10.7965   -2.0560 H   0  0  0  0  0  0  0  0  0  0  0  0
   13.9237  -12.0533   -1.5294 H   0  0  0  0  0  0  0  0  0  0  0  0
   11.5556  -12.6889   -2.7321 H   0  0  0  0  0  0  0  0  0  0  0  0
   12.1905  -13.7323   -1.4725 H   0  0  0  0  0  0  0  0  0  0  0  0
    3.6414  -12.4350   -0.1754 H   0  0  0  0  0  0  0  0  0  0  0  0
    1.6289  -13.3634    0.9584 H   0  0  0  0  0  0  0  0  0  0  0  0
    1.6127  -14.4692    3.8370 H   0  0  0  0  0  0  0  0  0  0  0  0
   -4.6874  -16.9837    4.4228 H   0  0  0  0  0  0  0  0  0  0  0  0
   -6.4930  -16.5059    4.4945 H   0  0  0  0  0  0  0  0  0  0  0  0
   -7.0281  -17.9881    5.3820 H   0  0  0  0  0  0  0  0  0  0  0  0
   -8.4079  -15.2522    5.3569 H   0  0  0  0  0  0  0  0  0  0  0  0
   -9.0046  -16.7885    4.6236 H   0  0  0  0  0  0  0  0  0  0  0  0
  1  2  1  0
  2  3  1  0
  3  4  1  0
  4  5  1  0
  5  6  1  0
  6  7  2  0
  7  8  1  0
  8  9  2  0
  9 10  1  0
 10 11  1  0
 11 12  1  0
 12 13  2  0
 13 14  1  0
 14 15  1  0
 15 16  1  0
 15 17  2  0
 17 18  1  0
 18 19  2  0
 19 20  1  0
 20 21  2  0
 21 22  1  0
 22 23  1  0
 23 24  2  0
 23 25  1  0
 25 26  1  0
 26 27  1  0
 27 28  1  0
 28 29  1  0
 29 30  1  0
 30 31  1  0
 21 32  1  0
 32 33  2  0
 17 34  1  0
 34 35  2  0
 35 36  1  0
 10 37  2  0
  5 38  1  0
 38 39  1  0
 39  2  1  0
 37  6  1  0
 36 11  2  0
 36 14  1  0
 33 18  1  0
 31 27  1  0
  1 40  1  0
  1 41  1  0
  1 42  1  0
  2 43  1  0
  3 44  1  0
  3 45  1  0
  4 46  1  0
  4 47  1  0
  7 48  1  0
  8 49  1  0
  9 50  1  0
 12 51  1  0
 16 52  1  0
 16 53  1  0
 19 54  1  0
 20 55  1  0
 22 56  1  0
 25 57  1  0
 25 58  1  0
 26 59  1  0
 26 60  1  0
 27 61  1  0
 28 62  1  0
 28 63  1  0
 29 64  1  0
 29 65  1  0
 30 66  1  0
 30 67  1  0
 31 68  1  0
 31 69  1  0
 32 70  1  0
 33 71  1  0
 34 72  1  0
 37 73  1  0
 38 74  1  0
 38 75  1  0
 39 76  1  0
 39 77  1  0
M  CHG  1   2   1
M  END
>  <meeko>  (9) 
{"is_sidechain": [false], "free_energy": -7.725, "intermolecular_energy": -11.644, "internal_energy": -0.735}

$$$$
