LIB_UOJUQBSCCIRCHS__M_PUB_ALL__e8__s20260927
     RDKit          3D

 78 82  0  0  0  0  0  0  0  0999 V2000
   10.0680  -13.4280   -9.9660 C   0  0  0  0  0  0  0  0  0  0  0  0
   10.4640  -12.0860  -10.5210 C   0  0  0  0  0  0  0  0  0  0  0  0
    9.4630  -11.2910  -11.1060 C   0  0  0  0  0  0  0  0  0  0  0  0
    9.7570  -10.0310  -11.6270 C   0  0  0  0  0  0  0  0  0  0  0  0
   11.0540   -9.5370  -11.5660 C   0  0  0  0  0  0  0  0  0  0  0  0
   11.4420   -8.2720  -12.0570 N   0  0  0  0  0  0  0  0  0  0  0  0
   11.3840   -7.0590  -11.3960 C   0  0  0  0  0  0  0  0  0  0  0  0
   11.0280   -6.8660  -10.2390 O   0  0  0  0  0  0  0  0  0  0  0  0
   11.8330   -5.8850  -12.1970 C   0  0  0  0  0  0  0  0  0  0  0  0
   12.5280   -6.1170  -13.3900 C   0  0  0  0  0  0  0  0  0  0  0  0
   12.9710   -5.0450  -14.1640 C   0  0  0  0  0  0  0  0  0  0  0  0
   12.7310   -3.7340  -13.7460 C   0  0  0  0  0  0  0  0  0  0  0  0
   12.0460   -3.4820  -12.5470 C   0  0  0  0  0  0  0  0  0  0  0  0
   11.8220   -2.0660  -12.0710 C   0  0  0  0  0  0  0  0  0  0  0  0
   11.9220   -1.9540  -10.7190 F   0  0  0  0  0  0  0  0  0  0  0  0
   10.5830   -1.5980  -12.3930 F   0  0  0  0  0  0  0  0  0  0  0  0
   12.7050   -1.1730  -12.5940 F   0  0  0  0  0  0  0  0  0  0  0  0
   11.6080   -4.5680  -11.7700 C   0  0  0  0  0  0  0  0  0  0  0  0
   12.0550  -10.3310  -10.9870 C   0  0  0  0  0  0  0  0  0  0  0  0
   11.7950  -11.6110  -10.4650 C   0  0  0  0  0  0  0  0  0  0  0  0
   12.8060  -12.4190   -9.8970 N   0  0  0  0  0  0  0  0  0  0  0  0
   13.5890  -13.3680  -10.4740 C   0  0  0  0  0  0  0  0  0  0  0  0
   14.2010  -13.3310  -11.6360 N   0  0  0  0  0  0  0  0  0  0  0  0
   14.9270  -14.4810  -11.7280 C   0  0  0  0  0  0  0  0  0  0  0  0
   15.8050  -14.8810  -12.7490 C   0  0  0  0  0  0  0  0  0  0  0  0
   16.5090  -16.0780  -12.6080 C   0  0  0  0  0  0  0  0  0  0  0  0
   16.3580  -16.8550  -11.4620 C   0  0  0  0  0  0  0  0  0  0  0  0
   15.4800  -16.4750  -10.4400 C   0  0  0  0  0  0  0  0  0  0  0  0
   14.7380  -15.2910  -10.6120 C   0  0  0  0  0  0  0  0  0  0  0  0
   13.7860  -14.6130   -9.8530 N   0  0  0  0  0  0  0  0  0  0  0  0
   13.0770  -15.0770   -8.6940 C   0  0  0  0  0  0  0  0  0  0  0  0
   13.3640  -14.5590   -7.4440 C   0  0  0  0  0  0  0  0  0  0  0  0
   12.7040  -15.1050   -6.3570 C   0  0  0  0  0  0  0  0  0  0  0  0
   13.0470  -14.6710   -5.0850 N   0  0  0  0  0  0  0  0  0  0  0  0
   12.0680  -14.6410   -4.0120 C   0  0  0  0  0  0  0  0  0  0  0  0
   12.7340  -14.9080   -2.6580 C   0  0  0  0  0  0  0  0  0  0  0  0
   12.0140  -14.2400   -1.4820 C   0  0  0  0  0  0  0  0  0  0  0  0
   11.8740  -12.7380   -1.7000 C   0  0  0  0  0  0  0  0  0  0  0  0
   13.2160  -12.0480   -1.5570 N   0  0  0  0  0  0  0  0  0  0  0  0
   13.1710  -10.9780   -0.4980 C   0  0  0  0  0  0  0  0  0  0  0  0
   13.7530  -11.4980   -2.8540 C   0  0  0  0  0  0  0  0  0  0  0  0
   11.8290  -16.1100   -6.5020 N   0  0  0  0  0  0  0  0  0  0  0  0
   11.5880  -16.5310   -7.7470 C   0  0  0  0  0  0  0  0  0  0  0  0
   12.1960  -16.0940   -8.8550 N   0  0  0  0  0  0  0  0  0  0  0  0
   10.0798  -13.3881   -8.8668 H   0  0  0  0  0  0  0  0  0  0  0  0
    9.0560  -13.6841  -10.3128 H   0  0  0  0  0  0  0  0  0  0  0  0
   10.7789  -14.1925  -10.3128 H   0  0  0  0  0  0  0  0  0  0  0  0
    8.4310  -11.6688  -11.1536 H   0  0  0  0  0  0  0  0  0  0  0  0
    8.9606   -9.4275  -12.0869 H   0  0  0  0  0  0  0  0  0  0  0  0
   11.8460   -8.2780  -12.9850 H   0  0  0  0  0  0  0  0  0  0  0  0
   12.7253   -7.1483  -13.7179 H   0  0  0  0  0  0  0  0  0  0  0  0
   13.5099   -5.2320  -15.1045 H   0  0  0  0  0  0  0  0  0  0  0  0
   13.0816   -2.8923  -14.3613 H   0  0  0  0  0  0  0  0  0  0  0  0
   11.0849   -4.3839  -10.8200 H   0  0  0  0  0  0  0  0  0  0  0  0
   13.0813   -9.9381  -10.9394 H   0  0  0  0  0  0  0  0  0  0  0  0
   12.9770  -12.2380   -8.9100 H   0  0  0  0  0  0  0  0  0  0  0  0
   15.9359  -14.2595  -13.6471 H   0  0  0  0  0  0  0  0  0  0  0  0
   17.1877  -16.4099  -13.4075 H   0  0  0  0  0  0  0  0  0  0  0  0
   16.9387  -17.7834  -11.3581 H   0  0  0  0  0  0  0  0  0  0  0  0
   15.3731  -17.0833   -9.5298 H   0  0  0  0  0  0  0  0  0  0  0  0
   14.0905  -13.7427   -7.3184 H   0  0  0  0  0  0  0  0  0  0  0  0
   13.7900  -13.9830   -5.0330 H   0  0  0  0  0  0  0  0  0  0  0  0
   11.5889  -13.6511   -3.9889 H   0  0  0  0  0  0  0  0  0  0  0  0
   11.3193  -15.4254   -4.1967 H   0  0  0  0  0  0  0  0  0  0  0  0
   12.7495  -15.9943   -2.4855 H   0  0  0  0  0  0  0  0  0  0  0  0
   13.7459  -14.4792   -2.7043 H   0  0  0  0  0  0  0  0  0  0  0  0
   11.0121  -14.6819   -1.3774 H   0  0  0  0  0  0  0  0  0  0  0  0
   12.6088  -14.4049   -0.5715 H   0  0  0  0  0  0  0  0  0  0  0  0
   11.4799  -12.5551   -2.7106 H   0  0  0  0  0  0  0  0  0  0  0  0
   11.1862  -12.3336   -0.9428 H   0  0  0  0  0  0  0  0  0  0  0  0
   13.8910  -12.7540   -1.2300 H   0  0  0  0  0  0  0  0  0  0  0  0
   13.1907  -11.4461    0.4972 H   0  0  0  0  0  0  0  0  0  0  0  0
   14.0421  -10.3155   -0.6089 H   0  0  0  0  0  0  0  0  0  0  0  0
   12.2474  -10.3910   -0.6089 H   0  0  0  0  0  0  0  0  0  0  0  0
   14.5069  -10.7259   -2.6407 H   0  0  0  0  0  0  0  0  0  0  0  0
   14.2146  -12.3109   -3.4338 H   0  0  0  0  0  0  0  0  0  0  0  0
   12.9293  -11.0560   -3.4338 H   0  0  0  0  0  0  0  0  0  0  0  0
   10.8194  -17.3079   -7.8719 H   0  0  0  0  0  0  0  0  0  0  0  0
  1  2  1  0
  2  3  2  0
  3  4  1  0
  4  5  2  0
  5  6  1  0
  6  7  1  0
  7  8  2  0
  7  9  1  0
  9 10  2  0
 10 11  1  0
 11 12  2  0
 12 13  1  0
 13 14  1  0
 14 15  1  0
 14 16  1  0
 14 17  1  0
 13 18  2  0
  5 19  1  0
 19 20  2  0
 20 21  1  0
 21 22  1  0
 22 23  2  0
 23 24  1  0
 24 25  2  0
 25 26  1  0
 26 27  2  0
 27 28  1  0
 28 29  2  0
 29 30  1  0
 30 31  1  0
 31 32  2  0
 32 33  1  0
 33 34  1  0
 34 35  1  0
 35 36  1  0
 36 37  1  0
 37 38  1  0
 38 39  1  0
 39 40  1  0
 39 41  1  0
 33 42  2  0
 42 43  1  0
 43 44  2  0
 20  2  1  0
 30 22  1  0
 44 31  1  0
 18  9  1  0
 29 24  1  0
  1 45  1  0
  1 46  1  0
  1 47  1  0
  3 48  1  0
  4 49  1  0
  6 50  1  0
 10 51  1  0
 11 52  1  0
 12 53  1  0
 18 54  1  0
 19 55  1  0
 21 56  1  0
 25 57  1  0
 26 58  1  0
 27 59  1  0
 28 60  1  0
 32 61  1  0
 34 62  1  0
 35 63  1  0
 35 64  1  0
 36 65  1  0
 36 66  1  0
 37 67  1  0
 37 68  1  0
 38 69  1  0
 38 70  1  0
 39 71  1  0
 40 72  1  0
 40 73  1  0
 40 74  1  0
 41 75  1  0
 41 76  1  0
 41 77  1  0
 43 78  1  0
M  CHG  1  39   1
M  END
>  <meeko>  (1) 
{"is_sidechain": [false], "free_energy": -9.229, "intermolecular_energy": -15.704, "internal_energy": -1.764}

$$$$
LIB_UOJUQBSCCIRCHS__M_PUB_ALL__e8__s20260927
     RDKit          3D

 78 82  0  0  0  0  0  0  0  0999 V2000
    6.5030  -17.3030   -7.2370 C   0  0  0  0  0  0  0  0  0  0  0  0
    7.5410  -16.4610   -6.5450 C   0  0  0  0  0  0  0  0  0  0  0  0
    8.8910  -16.6710   -6.8750 C   0  0  0  0  0  0  0  0  0  0  0  0
    9.9040  -15.9170   -6.2830 C   0  0  0  0  0  0  0  0  0  0  0  0
    9.5880  -14.9330   -5.3560 C   0  0  0  0  0  0  0  0  0  0  0  0
   10.5420  -14.1140   -4.7140 N   0  0  0  0  0  0  0  0  0  0  0  0
   10.9360  -14.1620   -3.3890 C   0  0  0  0  0  0  0  0  0  0  0  0
   10.5620  -14.9590   -2.5370 O   0  0  0  0  0  0  0  0  0  0  0  0
   11.9430  -13.1340   -2.9970 C   0  0  0  0  0  0  0  0  0  0  0  0
   12.9460  -12.7980   -3.9140 C   0  0  0  0  0  0  0  0  0  0  0  0
   13.9100  -11.8470   -3.5810 C   0  0  0  0  0  0  0  0  0  0  0  0
   13.8840  -11.2350   -2.3270 C   0  0  0  0  0  0  0  0  0  0  0  0
   12.8940  -11.5680   -1.3900 C   0  0  0  0  0  0  0  0  0  0  0  0
   12.8880  -10.9380   -0.0170 C   0  0  0  0  0  0  0  0  0  0  0  0
   12.5970   -9.6100   -0.0590 F   0  0  0  0  0  0  0  0  0  0  0  0
   14.0960  -11.0360    0.6070 F   0  0  0  0  0  0  0  0  0  0  0  0
   11.9840  -11.4990    0.8310 F   0  0  0  0  0  0  0  0  0  0  0  0
   11.9290  -12.5320   -1.7310 C   0  0  0  0  0  0  0  0  0  0  0  0
    8.2410  -14.7240   -5.0210 C   0  0  0  0  0  0  0  0  0  0  0  0
    7.1970  -15.4760   -5.5900 C   0  0  0  0  0  0  0  0  0  0  0  0
    5.8430  -15.2790   -5.2400 N   0  0  0  0  0  0  0  0  0  0  0  0
    5.1960  -14.1440   -4.8640 C   0  0  0  0  0  0  0  0  0  0  0  0
    4.9700  -13.0570   -5.5690 N   0  0  0  0  0  0  0  0  0  0  0  0
    4.2140  -12.2390   -4.7850 C   0  0  0  0  0  0  0  0  0  0  0  0
    3.6580  -10.9900   -5.1080 C   0  0  0  0  0  0  0  0  0  0  0  0
    2.8470  -10.3460   -4.1710 C   0  0  0  0  0  0  0  0  0  0  0  0
    2.5780  -10.9420   -2.9420 C   0  0  0  0  0  0  0  0  0  0  0  0
    3.1320  -12.1820   -2.6010 C   0  0  0  0  0  0  0  0  0  0  0  0
    3.9870  -12.8020   -3.5320 C   0  0  0  0  0  0  0  0  0  0  0  0
    4.7170  -13.9890   -3.5520 N   0  0  0  0  0  0  0  0  0  0  0  0
    4.9990  -14.8780   -2.4620 C   0  0  0  0  0  0  0  0  0  0  0  0
    5.6700  -14.4220   -1.3410 C   0  0  0  0  0  0  0  0  0  0  0  0
    5.9830  -15.3470   -0.3610 C   0  0  0  0  0  0  0  0  0  0  0  0
    6.7400  -14.9340    0.7250 N   0  0  0  0  0  0  0  0  0  0  0  0
    6.1100  -14.4600    1.9450 C   0  0  0  0  0  0  0  0  0  0  0  0
    5.9770  -12.9340    1.9350 C   0  0  0  0  0  0  0  0  0  0  0  0
    7.2160  -12.2180    1.3850 C   0  0  0  0  0  0  0  0  0  0  0  0
    6.8270  -11.0960    0.4290 C   0  0  0  0  0  0  0  0  0  0  0  0
    7.6880  -11.1310   -0.8190 N   0  0  0  0  0  0  0  0  0  0  0  0
    6.8500  -11.0090   -2.0640 C   0  0  0  0  0  0  0  0  0  0  0  0
    8.5910  -12.3350   -0.8950 C   0  0  0  0  0  0  0  0  0  0  0  0
    5.6640  -16.6430   -0.4930 N   0  0  0  0  0  0  0  0  0  0  0  0
    4.9900  -16.9930   -1.5930 C   0  0  0  0  0  0  0  0  0  0  0  0
    4.6720  -16.1850   -2.6100 N   0  0  0  0  0  0  0  0  0  0  0  0
    5.8798  -17.8085   -6.4846 H   0  0  0  0  0  0  0  0  0  0  0  0
    5.8695  -16.6604   -7.8661 H   0  0  0  0  0  0  0  0  0  0  0  0
    7.0011  -18.0554   -7.8661 H   0  0  0  0  0  0  0  0  0  0  0  0
    9.1531  -17.4434   -7.6130 H   0  0  0  0  0  0  0  0  0  0  0  0
   10.9547  -16.1022   -6.5509 H   0  0  0  0  0  0  0  0  0  0  0  0
   11.0130  -13.4510   -5.3170 H   0  0  0  0  0  0  0  0  0  0  0  0
   12.9738  -13.2854   -4.8997 H   0  0  0  0  0  0  0  0  0  0  0  0
   14.6915  -11.5790   -4.3072 H   0  0  0  0  0  0  0  0  0  0  0  0
   14.6465  -10.4847   -2.0708 H   0  0  0  0  0  0  0  0  0  0  0  0
   11.1579  -12.8157   -0.9996 H   0  0  0  0  0  0  0  0  0  0  0  0
    7.9926  -13.9436   -4.2866 H   0  0  0  0  0  0  0  0  0  0  0  0
    5.2710  -16.1200   -5.3010 H   0  0  0  0  0  0  0  0  0  0  0  0
    3.8585  -10.5259   -6.0849 H   0  0  0  0  0  0  0  0  0  0  0  0
    2.4177   -9.3608   -4.4058 H   0  0  0  0  0  0  0  0  0  0  0  0
    1.9185  -10.4297   -2.2260 H   0  0  0  0  0  0  0  0  0  0  0  0
    2.9060  -12.6573   -1.6350 H   0  0  0  0  0  0  0  0  0  0  0  0
    5.9446  -13.3623   -1.2330 H   0  0  0  0  0  0  0  0  0  0  0  0
    7.6520  -14.5440    0.5110 H   0  0  0  0  0  0  0  0  0  0  0  0
    5.1091  -14.9081    2.0309 H   0  0  0  0  0  0  0  0  0  0  0  0
    6.7368  -14.7523    2.8004 H   0  0  0  0  0  0  0  0  0  0  0  0
    5.1124  -12.6635    1.3111 H   0  0  0  0  0  0  0  0  0  0  0  0
    5.8532  -12.6122    2.9796 H   0  0  0  0  0  0  0  0  0  0  0  0
    7.7863  -11.7926    2.2240 H   0  0  0  0  0  0  0  0  0  0  0  0
    7.8242  -12.9498    0.8332 H   0  0  0  0  0  0  0  0  0  0  0  0
    5.7716  -11.2154    0.1428 H   0  0  0  0  0  0  0  0  0  0  0  0
    6.9788  -10.1316    0.9359 H   0  0  0  0  0  0  0  0  0  0  0  0
    8.2970  -10.3020   -0.7940 H   0  0  0  0  0  0  0  0  0  0  0  0
    5.7974  -10.8558   -1.7839 H   0  0  0  0  0  0  0  0  0  0  0  0
    7.1996  -10.1523   -2.6588 H   0  0  0  0  0  0  0  0  0  0  0  0
    6.9408  -11.9298   -2.6588 H   0  0  0  0  0  0  0  0  0  0  0  0
    8.8421  -12.6698    0.1223 H   0  0  0  0  0  0  0  0  0  0  0  0
    8.0765  -13.1459   -1.4314 H   0  0  0  0  0  0  0  0  0  0  0  0
    9.5135  -12.0682   -1.4314 H   0  0  0  0  0  0  0  0  0  0  0  0
    4.6673  -18.0419   -1.6686 H   0  0  0  0  0  0  0  0  0  0  0  0
  1  2  1  0
  2  3  2  0
  3  4  1  0
  4  5  2  0
  5  6  1  0
  6  7  1  0
  7  8  2  0
  7  9  1  0
  9 10  2  0
 10 11  1  0
 11 12  2  0
 12 13  1  0
 13 14  1  0
 14 15  1  0
 14 16  1  0
 14 17  1  0
 13 18  2  0
  5 19  1  0
 19 20  2  0
 20 21  1  0
 21 22  1  0
 22 23  2  0
 23 24  1  0
 24 25  2  0
 25 26  1  0
 26 27  2  0
 27 28  1  0
 28 29  2  0
 29 30  1  0
 30 31  1  0
 31 32  2  0
 32 33  1  0
 33 34  1  0
 34 35  1  0
 35 36  1  0
 36 37  1  0
 37 38  1  0
 38 39  1  0
 39 40  1  0
 39 41  1  0
 33 42  2  0
 42 43  1  0
 43 44  2  0
 20  2  1  0
 30 22  1  0
 44 31  1  0
 18  9  1  0
 29 24  1  0
  1 45  1  0
  1 46  1  0
  1 47  1  0
  3 48  1  0
  4 49  1  0
  6 50  1  0
 10 51  1  0
 11 52  1  0
 12 53  1  0
 18 54  1  0
 19 55  1  0
 21 56  1  0
 25 57  1  0
 26 58  1  0
 27 59  1  0
 28 60  1  0
 32 61  1  0
 34 62  1  0
 35 63  1  0
 35 64  1  0
 36 65  1  0
 36 66  1  0
 37 67  1  0
 37 68  1  0
 38 69  1  0
 38 70  1  0
 39 71  1  0
 40 72  1  0
 40 73  1  0
 40 74  1  0
 41 75  1  0
 41 76  1  0
 41 77  1  0
 43 78  1  0
M  CHG  1  39   1
M  END
>  <meeko>  (2) 
{"is_sidechain": [false], "free_energy": -9.167, "intermolecular_energy": -14.099, "internal_energy": -3.264}

$$$$
LIB_UOJUQBSCCIRCHS__M_PUB_ALL__e8__s20260927
     RDKit          3D

 78 82  0  0  0  0  0  0  0  0999 V2000
   13.3120  -14.3180  -13.3200 C   0  0  0  0  0  0  0  0  0  0  0  0
   13.3320  -14.3700  -11.8160 C   0  0  0  0  0  0  0  0  0  0  0  0
   14.5570  -14.6350  -11.1790 C   0  0  0  0  0  0  0  0  0  0  0  0
   14.6510  -14.6830   -9.7880 C   0  0  0  0  0  0  0  0  0  0  0  0
   13.5240  -14.4590   -9.0060 C   0  0  0  0  0  0  0  0  0  0  0  0
   13.5250  -14.4770   -7.5940 N   0  0  0  0  0  0  0  0  0  0  0  0
   13.5880  -15.5830   -6.7670 C   0  0  0  0  0  0  0  0  0  0  0  0
   13.7030  -16.7540   -7.1100 O   0  0  0  0  0  0  0  0  0  0  0  0
   13.5300  -15.2810   -5.3090 C   0  0  0  0  0  0  0  0  0  0  0  0
   13.4860  -16.3500   -4.4060 C   0  0  0  0  0  0  0  0  0  0  0  0
   13.4230  -16.1080   -3.0340 C   0  0  0  0  0  0  0  0  0  0  0  0
   13.3940  -14.7960   -2.5570 C   0  0  0  0  0  0  0  0  0  0  0  0
   13.4260  -13.7110   -3.4460 C   0  0  0  0  0  0  0  0  0  0  0  0
   13.3540  -12.2920   -2.9350 C   0  0  0  0  0  0  0  0  0  0  0  0
   12.9070  -12.2270   -1.6520 F   0  0  0  0  0  0  0  0  0  0  0  0
   12.5030  -11.5170   -3.6660 F   0  0  0  0  0  0  0  0  0  0  0  0
   14.5530  -11.6480   -2.9530 F   0  0  0  0  0  0  0  0  0  0  0  0
   13.4830  -13.9640   -4.8280 C   0  0  0  0  0  0  0  0  0  0  0  0
   12.3000  -14.1990   -9.6400 C   0  0  0  0  0  0  0  0  0  0  0  0
   12.1690  -14.1570  -11.0390 C   0  0  0  0  0  0  0  0  0  0  0  0
   10.9330  -13.9130  -11.6790 N   0  0  0  0  0  0  0  0  0  0  0  0
   10.0770  -12.8650  -11.5500 C   0  0  0  0  0  0  0  0  0  0  0  0
   10.2230  -11.6300  -11.9750 N   0  0  0  0  0  0  0  0  0  0  0  0
    9.0620  -10.9790  -11.6800 C   0  0  0  0  0  0  0  0  0  0  0  0
    8.6980   -9.6590  -11.9910 C   0  0  0  0  0  0  0  0  0  0  0  0
    7.4180   -9.2120  -11.6540 C   0  0  0  0  0  0  0  0  0  0  0  0
    6.5110  -10.0680  -11.0360 C   0  0  0  0  0  0  0  0  0  0  0  0
    6.8620  -11.3840  -10.7100 C   0  0  0  0  0  0  0  0  0  0  0  0
    8.1700  -11.8120  -11.0100 C   0  0  0  0  0  0  0  0  0  0  0  0
    8.8760  -13.0000  -10.8330 N   0  0  0  0  0  0  0  0  0  0  0  0
    8.5140  -14.1400  -10.0390 C   0  0  0  0  0  0  0  0  0  0  0  0
    8.6360  -14.1010   -8.6620 C   0  0  0  0  0  0  0  0  0  0  0  0
    8.3480  -15.2580   -7.9600 C   0  0  0  0  0  0  0  0  0  0  0  0
    8.5570  -15.2730   -6.5890 N   0  0  0  0  0  0  0  0  0  0  0  0
    9.8250  -14.8550   -6.0160 C   0  0  0  0  0  0  0  0  0  0  0  0
   10.0260  -15.4680   -4.6260 C   0  0  0  0  0  0  0  0  0  0  0  0
    9.6320  -14.5270   -3.4830 C   0  0  0  0  0  0  0  0  0  0  0  0
    9.5920  -13.0760   -3.9480 C   0  0  0  0  0  0  0  0  0  0  0  0
    8.1680  -12.5570   -3.9680 N   0  0  0  0  0  0  0  0  0  0  0  0
    8.0090  -11.3640   -3.0630 C   0  0  0  0  0  0  0  0  0  0  0  0
    7.1370  -13.6100   -3.6540 C   0  0  0  0  0  0  0  0  0  0  0  0
    7.9790  -16.3840   -8.5870 N   0  0  0  0  0  0  0  0  0  0  0  0
    7.8580  -16.3270   -9.9170 C   0  0  0  0  0  0  0  0  0  0  0  0
    8.1440  -15.2710  -10.6870 N   0  0  0  0  0  0  0  0  0  0  0  0
   12.9351  -13.3380  -13.6480 H   0  0  0  0  0  0  0  0  0  0  0  0
   14.3314  -14.4666  -13.7056 H   0  0  0  0  0  0  0  0  0  0  0  0
   12.6549  -15.1114  -13.7056 H   0  0  0  0  0  0  0  0  0  0  0  0
   15.4567  -14.8074  -11.7879 H   0  0  0  0  0  0  0  0  0  0  0  0
   15.6179  -14.8983   -9.3096 H   0  0  0  0  0  0  0  0  0  0  0  0
   13.5220  -13.5650   -7.1540 H   0  0  0  0  0  0  0  0  0  0  0  0
   13.5012  -17.3844   -4.7800 H   0  0  0  0  0  0  0  0  0  0  0  0
   13.3962  -16.9507   -2.3276 H   0  0  0  0  0  0  0  0  0  0  0  0
   13.3456  -14.6113   -1.4737 H   0  0  0  0  0  0  0  0  0  0  0  0
   13.4908  -13.1231   -5.5371 H   0  0  0  0  0  0  0  0  0  0  0  0
   11.4094  -14.0213   -9.0193 H   0  0  0  0  0  0  0  0  0  0  0  0
   10.6630  -14.6300  -12.3490 H   0  0  0  0  0  0  0  0  0  0  0  0
    9.4100   -8.9870  -12.4924 H   0  0  0  0  0  0  0  0  0  0  0  0
    7.1248   -8.1759  -11.8787 H   0  0  0  0  0  0  0  0  0  0  0  0
    5.5002   -9.7043  -10.7994 H   0  0  0  0  0  0  0  0  0  0  0  0
    6.1385  -12.0625  -10.2343 H   0  0  0  0  0  0  0  0  0  0  0  0
    8.9506  -13.1833   -8.1435 H   0  0  0  0  0  0  0  0  0  0  0  0
    8.0370  -15.9690   -6.0650 H   0  0  0  0  0  0  0  0  0  0  0  0
   10.6430  -15.1813   -6.6751 H   0  0  0  0  0  0  0  0  0  0  0  0
    9.8227  -13.7592   -5.9197 H   0  0  0  0  0  0  0  0  0  0  0  0
    9.4133  -16.3788   -4.5547 H   0  0  0  0  0  0  0  0  0  0  0  0
   11.0999  -15.6796   -4.5167 H   0  0  0  0  0  0  0  0  0  0  0  0
    8.6365  -14.8117   -3.1117 H   0  0  0  0  0  0  0  0  0  0  0  0
   10.3849  -14.6152   -2.6859 H   0  0  0  0  0  0  0  0  0  0  0  0
   10.1908  -12.4603   -3.2607 H   0  0  0  0  0  0  0  0  0  0  0  0
   10.0021  -13.0206   -4.9672 H   0  0  0  0  0  0  0  0  0  0  0  0
    7.9760  -12.2270   -4.9240 H   0  0  0  0  0  0  0  0  0  0  0  0
    8.0526  -11.6913   -2.0137 H   0  0  0  0  0  0  0  0  0  0  0  0
    8.8194  -10.6459   -3.2571 H   0  0  0  0  0  0  0  0  0  0  0  0
    7.0388  -10.8833   -3.2571 H   0  0  0  0  0  0  0  0  0  0  0  0
    7.0373  -13.7118   -2.5633 H   0  0  0  0  0  0  0  0  0  0  0  0
    6.1688  -13.3151   -4.0848 H   0  0  0  0  0  0  0  0  0  0  0  0
    7.4523  -14.5718   -4.0848 H   0  0  0  0  0  0  0  0  0  0  0  0
    7.4897  -17.2307  -10.4246 H   0  0  0  0  0  0  0  0  0  0  0  0
  1  2  1  0
  2  3  2  0
  3  4  1  0
  4  5  2  0
  5  6  1  0
  6  7  1  0
  7  8  2  0
  7  9  1  0
  9 10  2  0
 10 11  1  0
 11 12  2  0
 12 13  1  0
 13 14  1  0
 14 15  1  0
 14 16  1  0
 14 17  1  0
 13 18  2  0
  5 19  1  0
 19 20  2  0
 20 21  1  0
 21 22  1  0
 22 23  2  0
 23 24  1  0
 24 25  2  0
 25 26  1  0
 26 27  2  0
 27 28  1  0
 28 29  2  0
 29 30  1  0
 30 31  1  0
 31 32  2  0
 32 33  1  0
 33 34  1  0
 34 35  1  0
 35 36  1  0
 36 37  1  0
 37 38  1  0
 38 39  1  0
 39 40  1  0
 39 41  1  0
 33 42  2  0
 42 43  1  0
 43 44  2  0
 20  2  1  0
 30 22  1  0
 44 31  1  0
 18  9  1  0
 29 24  1  0
  1 45  1  0
  1 46  1  0
  1 47  1  0
  3 48  1  0
  4 49  1  0
  6 50  1  0
 10 51  1  0
 11 52  1  0
 12 53  1  0
 18 54  1  0
 19 55  1  0
 21 56  1  0
 25 57  1  0
 26 58  1  0
 27 59  1  0
 28 60  1  0
 32 61  1  0
 34 62  1  0
 35 63  1  0
 35 64  1  0
 36 65  1  0
 36 66  1  0
 37 67  1  0
 37 68  1  0
 38 69  1  0
 38 70  1  0
 39 71  1  0
 40 72  1  0
 40 73  1  0
 40 74  1  0
 41 75  1  0
 41 76  1  0
 41 77  1  0
 43 78  1  0
M  CHG  1  39   1
M  END
>  <meeko>  (3) 
{"is_sidechain": [false], "free_energy": -8.992, "intermolecular_energy": -13.155, "internal_energy": -3.91}

$$$$
LIB_UOJUQBSCCIRCHS__M_PUB_ALL__e8__s20260927
     RDKit          3D

 78 82  0  0  0  0  0  0  0  0999 V2000
    6.7630  -15.0840    0.4330 C   0  0  0  0  0  0  0  0  0  0  0  0
    6.9210  -15.1960   -1.0600 C   0  0  0  0  0  0  0  0  0  0  0  0
    5.7630  -15.3790   -1.8360 C   0  0  0  0  0  0  0  0  0  0  0  0
    5.8350  -15.4760   -3.2260 C   0  0  0  0  0  0  0  0  0  0  0  0
    7.0630  -15.3840   -3.8680 C   0  0  0  0  0  0  0  0  0  0  0  0
    7.2320  -15.4610   -5.2670 N   0  0  0  0  0  0  0  0  0  0  0  0
    6.8470  -14.5290   -6.2130 C   0  0  0  0  0  0  0  0  0  0  0  0
    6.3300  -13.4370   -6.0050 O   0  0  0  0  0  0  0  0  0  0  0  0
    7.1290  -14.9150   -7.6260 C   0  0  0  0  0  0  0  0  0  0  0  0
    7.5930  -16.2100   -7.8830 C   0  0  0  0  0  0  0  0  0  0  0  0
    7.8760  -16.6070   -9.1900 C   0  0  0  0  0  0  0  0  0  0  0  0
    7.7050  -15.7090  -10.2460 C   0  0  0  0  0  0  0  0  0  0  0  0
    7.2510  -14.4030  -10.0060 C   0  0  0  0  0  0  0  0  0  0  0  0
    7.1050  -13.4160  -11.1400 C   0  0  0  0  0  0  0  0  0  0  0  0
    5.8940  -13.5100  -11.7530 F   0  0  0  0  0  0  0  0  0  0  0  0
    8.0350  -13.6050  -12.1190 F   0  0  0  0  0  0  0  0  0  0  0  0
    7.2340  -12.1190  -10.7490 F   0  0  0  0  0  0  0  0  0  0  0  0
    6.9740  -14.0090   -8.6840 C   0  0  0  0  0  0  0  0  0  0  0  0
    8.2200  -15.2070   -3.0950 C   0  0  0  0  0  0  0  0  0  0  0  0
    8.1840  -15.1180   -1.6920 C   0  0  0  0  0  0  0  0  0  0  0  0
    9.3510  -14.9580   -0.9110 N   0  0  0  0  0  0  0  0  0  0  0  0
   10.1100  -13.8510   -0.6970 C   0  0  0  0  0  0  0  0  0  0  0  0
    9.9560  -12.9150    0.2120 N   0  0  0  0  0  0  0  0  0  0  0  0
   11.0150  -12.0670    0.0780 C   0  0  0  0  0  0  0  0  0  0  0  0
   11.3410  -10.9460    0.8590 C   0  0  0  0  0  0  0  0  0  0  0  0
   12.5230  -10.2530    0.5900 C   0  0  0  0  0  0  0  0  0  0  0  0
   13.3740  -10.6770   -0.4260 C   0  0  0  0  0  0  0  0  0  0  0  0
   13.0590  -11.7870   -1.2200 C   0  0  0  0  0  0  0  0  0  0  0  0
   11.8430  -12.4510   -0.9730 C   0  0  0  0  0  0  0  0  0  0  0  0
   11.1920  -13.5460   -1.5390 N   0  0  0  0  0  0  0  0  0  0  0  0
   11.4970  -14.2240   -2.7670 C   0  0  0  0  0  0  0  0  0  0  0  0
   11.0610  -13.7130   -3.9760 C   0  0  0  0  0  0  0  0  0  0  0  0
   11.3160  -14.4550   -5.1160 C   0  0  0  0  0  0  0  0  0  0  0  0
   10.8040  -14.0120   -6.3260 N   0  0  0  0  0  0  0  0  0  0  0  0
   11.6130  -14.0140   -7.5320 C   0  0  0  0  0  0  0  0  0  0  0  0
   10.7500  -14.2810   -8.7700 C   0  0  0  0  0  0  0  0  0  0  0  0
   10.7490  -13.1230   -9.7730 C   0  0  0  0  0  0  0  0  0  0  0  0
   12.1180  -12.4560   -9.8500 C   0  0  0  0  0  0  0  0  0  0  0  0
   13.0170  -13.1840  -10.8290 N   0  0  0  0  0  0  0  0  0  0  0  0
   14.3360  -13.5430  -10.1970 C   0  0  0  0  0  0  0  0  0  0  0  0
   13.2260  -12.4420  -12.1240 C   0  0  0  0  0  0  0  0  0  0  0  0
   11.9500  -15.6350   -5.0560 N   0  0  0  0  0  0  0  0  0  0  0  0
   12.3630  -16.0410   -3.8520 C   0  0  0  0  0  0  0  0  0  0  0  0
   12.1370  -15.4160   -2.6910 N   0  0  0  0  0  0  0  0  0  0  0  0
    7.5636  -15.6515    0.9300 H   0  0  0  0  0  0  0  0  0  0  0  0
    6.8244  -14.0266    0.7299 H   0  0  0  0  0  0  0  0  0  0  0  0
    5.7856  -15.4921    0.7299 H   0  0  0  0  0  0  0  0  0  0  0  0
    4.7840  -15.4468   -1.3390 H   0  0  0  0  0  0  0  0  0  0  0  0
    4.9176  -15.6256   -3.8143 H   0  0  0  0  0  0  0  0  0  0  0  0
    7.7310  -16.2790   -5.5950 H   0  0  0  0  0  0  0  0  0  0  0  0
    7.7349  -16.9168   -7.0521 H   0  0  0  0  0  0  0  0  0  0  0  0
    8.2340  -17.6279   -9.3891 H   0  0  0  0  0  0  0  0  0  0  0  0
    7.9281  -16.0282  -11.2747 H   0  0  0  0  0  0  0  0  0  0  0  0
    6.6336  -12.9832   -8.4795 H   0  0  0  0  0  0  0  0  0  0  0  0
    9.1918  -15.1351   -3.6053 H   0  0  0  0  0  0  0  0  0  0  0  0
    9.6460  -15.8030   -0.4260 H   0  0  0  0  0  0  0  0  0  0  0  0
   10.6748  -10.6188    1.6708 H   0  0  0  0  0  0  0  0  0  0  0  0
   12.7833   -9.3655    1.1855 H   0  0  0  0  0  0  0  0  0  0  0  0
   14.3110  -10.1306   -0.6089 H   0  0  0  0  0  0  0  0  0  0  0  0
   13.7411  -12.1292   -2.0123 H   0  0  0  0  0  0  0  0  0  0  0  0
   10.5304  -12.7509   -4.0295 H   0  0  0  0  0  0  0  0  0  0  0  0
   10.0820  -13.3010   -6.2730 H   0  0  0  0  0  0  0  0  0  0  0  0
   12.1025  -13.0347   -7.6388 H   0  0  0  0  0  0  0  0  0  0  0  0
   12.3648  -14.8127   -7.4492 H   0  0  0  0  0  0  0  0  0  0  0  0
   11.1339  -15.1795   -9.2753 H   0  0  0  0  0  0  0  0  0  0  0  0
    9.7145  -14.4097   -8.4220 H   0  0  0  0  0  0  0  0  0  0  0  0
   10.4827  -13.5105  -10.7675 H   0  0  0  0  0  0  0  0  0  0  0  0
   10.0161  -12.3741   -9.4382 H   0  0  0  0  0  0  0  0  0  0  0  0
   11.9935  -11.4143  -10.1807 H   0  0  0  0  0  0  0  0  0  0  0  0
   12.5826  -12.4885   -8.8535 H   0  0  0  0  0  0  0  0  0  0  0  0
   12.5550  -14.0730  -11.0660 H   0  0  0  0  0  0  0  0  0  0  0  0
   14.2372  -13.5161   -9.1018 H   0  0  0  0  0  0  0  0  0  0  0  0
   14.6312  -14.5542  -10.5138 H   0  0  0  0  0  0  0  0  0  0  0  0
   15.1030  -12.8209  -10.5138 H   0  0  0  0  0  0  0  0  0  0  0  0
   13.5185  -11.4037  -11.9086 H   0  0  0  0  0  0  0  0  0  0  0  0
   14.0205  -12.9339  -12.7043 H   0  0  0  0  0  0  0  0  0  0  0  0
   12.2915  -12.4469  -12.7043 H   0  0  0  0  0  0  0  0  0  0  0  0
   12.9422  -16.9753   -3.8116 H   0  0  0  0  0  0  0  0  0  0  0  0
  1  2  1  0
  2  3  2  0
  3  4  1  0
  4  5  2  0
  5  6  1  0
  6  7  1  0
  7  8  2  0
  7  9  1  0
  9 10  2  0
 10 11  1  0
 11 12  2  0
 12 13  1  0
 13 14  1  0
 14 15  1  0
 14 16  1  0
 14 17  1  0
 13 18  2  0
  5 19  1  0
 19 20  2  0
 20 21  1  0
 21 22  1  0
 22 23  2  0
 23 24  1  0
 24 25  2  0
 25 26  1  0
 26 27  2  0
 27 28  1  0
 28 29  2  0
 29 30  1  0
 30 31  1  0
 31 32  2  0
 32 33  1  0
 33 34  1  0
 34 35  1  0
 35 36  1  0
 36 37  1  0
 37 38  1  0
 38 39  1  0
 39 40  1  0
 39 41  1  0
 33 42  2  0
 42 43  1  0
 43 44  2  0
 20  2  1  0
 30 22  1  0
 44 31  1  0
 18  9  1  0
 29 24  1  0
  1 45  1  0
  1 46  1  0
  1 47  1  0
  3 48  1  0
  4 49  1  0
  6 50  1  0
 10 51  1  0
 11 52  1  0
 12 53  1  0
 18 54  1  0
 19 55  1  0
 21 56  1  0
 25 57  1  0
 26 58  1  0
 27 59  1  0
 28 60  1  0
 32 61  1  0
 34 62  1  0
 35 63  1  0
 35 64  1  0
 36 65  1  0
 36 66  1  0
 37 67  1  0
 37 68  1  0
 38 69  1  0
 38 70  1  0
 39 71  1  0
 40 72  1  0
 40 73  1  0
 40 74  1  0
 41 75  1  0
 41 76  1  0
 41 77  1  0
 43 78  1  0
M  CHG  1  39   1
M  END
>  <meeko>  (4) 
{"is_sidechain": [false], "free_energy": -8.978, "intermolecular_energy": -13.621, "internal_energy": -3.419}

$$$$
LIB_UOJUQBSCCIRCHS__M_PUB_ALL__e8__s20260927
     RDKit          3D

 78 82  0  0  0  0  0  0  0  0999 V2000
    1.8290  -10.7600   -1.7270 C   0  0  0  0  0  0  0  0  0  0  0  0
    2.5810  -11.4180   -2.8530 C   0  0  0  0  0  0  0  0  0  0  0  0
    2.7800  -10.6830   -4.0350 C   0  0  0  0  0  0  0  0  0  0  0  0
    3.4800  -11.2250   -5.1130 C   0  0  0  0  0  0  0  0  0  0  0  0
    4.0010  -12.5100   -5.0280 C   0  0  0  0  0  0  0  0  0  0  0  0
    4.7300  -13.1370   -6.0610 N   0  0  0  0  0  0  0  0  0  0  0  0
    6.0750  -13.4580   -6.0670 C   0  0  0  0  0  0  0  0  0  0  0  0
    6.8740  -13.3010   -5.1510 O   0  0  0  0  0  0  0  0  0  0  0  0
    6.5660  -14.0840   -7.3280 C   0  0  0  0  0  0  0  0  0  0  0  0
    7.1320  -15.3630   -7.2620 C   0  0  0  0  0  0  0  0  0  0  0  0
    7.6100  -15.9780   -8.4180 C   0  0  0  0  0  0  0  0  0  0  0  0
    7.5340  -15.3160   -9.6450 C   0  0  0  0  0  0  0  0  0  0  0  0
    6.9810  -14.0300   -9.7290 C   0  0  0  0  0  0  0  0  0  0  0  0
    6.9350  -13.2940  -11.0470 C   0  0  0  0  0  0  0  0  0  0  0  0
    8.0710  -13.4660  -11.7750 F   0  0  0  0  0  0  0  0  0  0  0  0
    6.7950  -11.9470  -10.8880 F   0  0  0  0  0  0  0  0  0  0  0  0
    5.9070  -13.6830  -11.8490 F   0  0  0  0  0  0  0  0  0  0  0  0
    6.5070  -13.4130   -8.5570 C   0  0  0  0  0  0  0  0  0  0  0  0
    3.7990  -13.2470   -3.8520 C   0  0  0  0  0  0  0  0  0  0  0  0
    3.0870  -12.7340   -2.7520 C   0  0  0  0  0  0  0  0  0  0  0  0
    2.8680  -13.4830   -1.5740 N   0  0  0  0  0  0  0  0  0  0  0  0
    3.3690  -14.6910   -1.2040 C   0  0  0  0  0  0  0  0  0  0  0  0
    2.8800  -15.8880   -1.4390 N   0  0  0  0  0  0  0  0  0  0  0  0
    3.7820  -16.7800   -0.9410 C   0  0  0  0  0  0  0  0  0  0  0  0
    3.7510  -18.1820   -1.0030 C   0  0  0  0  0  0  0  0  0  0  0  0
    4.8250  -18.9090   -0.4850 C   0  0  0  0  0  0  0  0  0  0  0  0
    5.9200  -18.2510    0.0700 C   0  0  0  0  0  0  0  0  0  0  0  0
    5.9620  -16.8540    0.1480 C   0  0  0  0  0  0  0  0  0  0  0  0
    4.8540  -16.1310   -0.3330 C   0  0  0  0  0  0  0  0  0  0  0  0
    4.5260  -14.7790   -0.4120 N   0  0  0  0  0  0  0  0  0  0  0  0
    5.1780  -13.6670    0.2210 C   0  0  0  0  0  0  0  0  0  0  0  0
    6.5550  -13.5520    0.1880 C   0  0  0  0  0  0  0  0  0  0  0  0
    7.1280  -12.5020    0.8850 C   0  0  0  0  0  0  0  0  0  0  0  0
    8.5110  -12.4220    0.9480 N   0  0  0  0  0  0  0  0  0  0  0  0
    9.3350  -12.7090   -0.2130 C   0  0  0  0  0  0  0  0  0  0  0  0
   10.7970  -12.3300    0.0480 C   0  0  0  0  0  0  0  0  0  0  0  0
   11.7950  -13.1440   -0.7830 C   0  0  0  0  0  0  0  0  0  0  0  0
   12.2870  -12.3510   -1.9880 C   0  0  0  0  0  0  0  0  0  0  0  0
   13.4950  -13.0200   -2.6140 N   0  0  0  0  0  0  0  0  0  0  0  0
   14.3000  -12.0430   -3.4300 C   0  0  0  0  0  0  0  0  0  0  0  0
   13.1550  -14.2440   -3.4250 C   0  0  0  0  0  0  0  0  0  0  0  0
    6.3800  -11.6340    1.5810 N   0  0  0  0  0  0  0  0  0  0  0  0
    5.0550  -11.8010    1.5360 C   0  0  0  0  0  0  0  0  0  0  0  0
    4.4090  -12.7980    0.9220 N   0  0  0  0  0  0  0  0  0  0  0  0
    2.2296  -11.1105   -0.7644 H   0  0  0  0  0  0  0  0  0  0  0  0
    1.9454   -9.6684   -1.7969 H   0  0  0  0  0  0  0  0  0  0  0  0
    0.7625  -11.0203   -1.7969 H   0  0  0  0  0  0  0  0  0  0  0  0
    2.3765   -9.6625   -4.1110 H   0  0  0  0  0  0  0  0  0  0  0  0
    3.6195  -10.6347   -6.0307 H   0  0  0  0  0  0  0  0  0  0  0  0
    4.1810  -13.4140   -6.8660 H   0  0  0  0  0  0  0  0  0  0  0  0
    7.1996  -15.8838   -6.2955 H   0  0  0  0  0  0  0  0  0  0  0  0
    8.0475  -16.9858   -8.3635 H   0  0  0  0  0  0  0  0  0  0  0  0
    7.9113  -15.8076  -10.5539 H   0  0  0  0  0  0  0  0  0  0  0  0
    6.0874  -12.3974   -8.6055 H   0  0  0  0  0  0  0  0  0  0  0  0
    4.2127  -14.2642   -3.7871 H   0  0  0  0  0  0  0  0  0  0  0  0
    2.2550  -13.0280   -0.9010 H   0  0  0  0  0  0  0  0  0  0  0  0
    2.8922  -18.7011   -1.4536 H   0  0  0  0  0  0  0  0  0  0  0  0
    4.8060  -20.0084   -0.5155 H   0  0  0  0  0  0  0  0  0  0  0  0
    6.7665  -18.8394    0.4537 H   0  0  0  0  0  0  0  0  0  0  0  0
    6.8349  -16.3365    0.5726 H   0  0  0  0  0  0  0  0  0  0  0  0
    7.1734  -14.2690   -0.3719 H   0  0  0  0  0  0  0  0  0  0  0  0
    8.9280  -12.6140    1.8520 H   0  0  0  0  0  0  0  0  0  0  0  0
    9.2763  -13.7838   -0.4397 H   0  0  0  0  0  0  0  0  0  0  0  0
    8.9643  -12.1168   -1.0627 H   0  0  0  0  0  0  0  0  0  0  0  0
   10.9294  -11.2650   -0.1932 H   0  0  0  0  0  0  0  0  0  0  0  0
   11.0041  -12.5457    1.1066 H   0  0  0  0  0  0  0  0  0  0  0  0
   12.6562  -13.4079   -0.1516 H   0  0  0  0  0  0  0  0  0  0  0  0
   11.2876  -14.0498   -1.1464 H   0  0  0  0  0  0  0  0  0  0  0  0
   11.4808  -12.2907   -2.7340 H   0  0  0  0  0  0  0  0  0  0  0  0
   12.5748  -11.3432   -1.6541 H   0  0  0  0  0  0  0  0  0  0  0  0
   14.1060  -13.3310   -1.8460 H   0  0  0  0  0  0  0  0  0  0  0  0
   14.8533  -11.3715   -2.7570 H   0  0  0  0  0  0  0  0  0  0  0  0
   15.0105  -12.5931   -4.0645 H   0  0  0  0  0  0  0  0  0  0  0  0
   13.6242  -11.4508   -4.0645 H   0  0  0  0  0  0  0  0  0  0  0  0
   12.9229  -15.0795   -2.7482 H   0  0  0  0  0  0  0  0  0  0  0  0
   12.2816  -14.0325   -4.0594 H   0  0  0  0  0  0  0  0  0  0  0  0
   14.0123  -14.5133   -4.0594 H   0  0  0  0  0  0  0  0  0  0  0  0
    4.4390  -11.0493    2.0514 H   0  0  0  0  0  0  0  0  0  0  0  0
  1  2  1  0
  2  3  2  0
  3  4  1  0
  4  5  2  0
  5  6  1  0
  6  7  1  0
  7  8  2  0
  7  9  1  0
  9 10  2  0
 10 11  1  0
 11 12  2  0
 12 13  1  0
 13 14  1  0
 14 15  1  0
 14 16  1  0
 14 17  1  0
 13 18  2  0
  5 19  1  0
 19 20  2  0
 20 21  1  0
 21 22  1  0
 22 23  2  0
 23 24  1  0
 24 25  2  0
 25 26  1  0
 26 27  2  0
 27 28  1  0
 28 29  2  0
 29 30  1  0
 30 31  1  0
 31 32  2  0
 32 33  1  0
 33 34  1  0
 34 35  1  0
 35 36  1  0
 36 37  1  0
 37 38  1  0
 38 39  1  0
 39 40  1  0
 39 41  1  0
 33 42  2  0
 42 43  1  0
 43 44  2  0
 20  2  1  0
 30 22  1  0
 44 31  1  0
 18  9  1  0
 29 24  1  0
  1 45  1  0
  1 46  1  0
  1 47  1  0
  3 48  1  0
  4 49  1  0
  6 50  1  0
 10 51  1  0
 11 52  1  0
 12 53  1  0
 18 54  1  0
 19 55  1  0
 21 56  1  0
 25 57  1  0
 26 58  1  0
 27 59  1  0
 28 60  1  0
 32 61  1  0
 34 62  1  0
 35 63  1  0
 35 64  1  0
 36 65  1  0
 36 66  1  0
 37 67  1  0
 37 68  1  0
 38 69  1  0
 38 70  1  0
 39 71  1  0
 40 72  1  0
 40 73  1  0
 40 74  1  0
 41 75  1  0
 41 76  1  0
 41 77  1  0
 43 78  1  0
M  CHG  1  39   1
M  END
>  <meeko>  (5) 
{"is_sidechain": [false], "free_energy": -8.955, "intermolecular_energy": -14.95, "internal_energy": -2.052}

$$$$
LIB_UOJUQBSCCIRCHS__M_PUB_ALL__e8__s20260927
     RDKit          3D

 78 82  0  0  0  0  0  0  0  0999 V2000
   13.2250  -16.0940  -11.9780 C   0  0  0  0  0  0  0  0  0  0  0  0
   13.1890  -15.5170  -10.5880 C   0  0  0  0  0  0  0  0  0  0  0  0
   14.2400  -15.8370   -9.7110 C   0  0  0  0  0  0  0  0  0  0  0  0
   14.2770  -15.3250   -8.4140 C   0  0  0  0  0  0  0  0  0  0  0  0
   13.2700  -14.4780   -7.9700 C   0  0  0  0  0  0  0  0  0  0  0  0
   13.2290  -13.9050   -6.6810 N   0  0  0  0  0  0  0  0  0  0  0  0
   12.9770  -14.5470   -5.4820 C   0  0  0  0  0  0  0  0  0  0  0  0
   12.7900  -15.7460   -5.3140 O   0  0  0  0  0  0  0  0  0  0  0  0
   12.9630  -13.6580   -4.2850 C   0  0  0  0  0  0  0  0  0  0  0  0
   13.8010  -12.5370   -4.2760 C   0  0  0  0  0  0  0  0  0  0  0  0
   13.8220  -11.6860   -3.1710 C   0  0  0  0  0  0  0  0  0  0  0  0
   13.0140  -11.9560   -2.0650 C   0  0  0  0  0  0  0  0  0  0  0  0
   12.1760  -13.0810   -2.0510 C   0  0  0  0  0  0  0  0  0  0  0  0
   11.3310  -13.3990   -0.8400 C   0  0  0  0  0  0  0  0  0  0  0  0
   10.7570  -12.2880   -0.3050 F   0  0  0  0  0  0  0  0  0  0  0  0
   12.0550  -13.9680    0.1650 F   0  0  0  0  0  0  0  0  0  0  0  0
   10.3140  -14.2640   -1.1020 F   0  0  0  0  0  0  0  0  0  0  0  0
   12.1650  -13.9370   -3.1670 C   0  0  0  0  0  0  0  0  0  0  0  0
   12.2170  -14.1610   -8.8420 C   0  0  0  0  0  0  0  0  0  0  0  0
   12.1430  -14.6710  -10.1510 C   0  0  0  0  0  0  0  0  0  0  0  0
   11.0740  -14.3670  -11.0240 N   0  0  0  0  0  0  0  0  0  0  0  0
   10.2610  -13.2790  -11.0600 C   0  0  0  0  0  0  0  0  0  0  0  0
   10.5100  -12.0840  -11.5490 N   0  0  0  0  0  0  0  0  0  0  0  0
    9.3570  -11.3680  -11.4270 C   0  0  0  0  0  0  0  0  0  0  0  0
    9.0920  -10.0600  -11.8640 C   0  0  0  0  0  0  0  0  0  0  0  0
    7.8070   -9.5380  -11.6990 C   0  0  0  0  0  0  0  0  0  0  0  0
    6.7990  -10.3090  -11.1260 C   0  0  0  0  0  0  0  0  0  0  0  0
    7.0500  -11.6110  -10.6770 C   0  0  0  0  0  0  0  0  0  0  0  0
    8.3600  -12.1120  -10.8040 C   0  0  0  0  0  0  0  0  0  0  0  0
    8.9850  -13.3130  -10.4710 N   0  0  0  0  0  0  0  0  0  0  0  0
    8.4870  -14.3770   -9.6460 C   0  0  0  0  0  0  0  0  0  0  0  0
    8.2540  -14.1680   -8.2990 C   0  0  0  0  0  0  0  0  0  0  0  0
    7.8520  -15.2540   -7.5410 C   0  0  0  0  0  0  0  0  0  0  0  0
    7.7080  -15.0920   -6.1710 N   0  0  0  0  0  0  0  0  0  0  0  0
    7.0690  -16.1120   -5.3570 C   0  0  0  0  0  0  0  0  0  0  0  0
    5.5470  -15.9330   -5.3520 C   0  0  0  0  0  0  0  0  0  0  0  0
    5.0640  -14.8490   -4.3830 C   0  0  0  0  0  0  0  0  0  0  0  0
    4.1510  -13.8490   -5.0830 C   0  0  0  0  0  0  0  0  0  0  0  0
    4.8940  -12.5620   -5.3840 N   0  0  0  0  0  0  0  0  0  0  0  0
    5.2570  -12.4680   -6.8430 C   0  0  0  0  0  0  0  0  0  0  0  0
    6.1070  -12.3480   -4.5150 C   0  0  0  0  0  0  0  0  0  0  0  0
    7.7060  -16.4710   -8.0850 N   0  0  0  0  0  0  0  0  0  0  0  0
    7.9230  -16.5790   -9.3990 C   0  0  0  0  0  0  0  0  0  0  0  0
    8.3460  -15.6010  -10.2080 N   0  0  0  0  0  0  0  0  0  0  0  0
   13.2934  -17.1902  -11.9183 H   0  0  0  0  0  0  0  0  0  0  0  0
   12.3076  -15.8126  -12.5157 H   0  0  0  0  0  0  0  0  0  0  0  0
   14.1004  -15.7008  -12.5157 H   0  0  0  0  0  0  0  0  0  0  0  0
   15.0465  -16.5021  -10.0532 H   0  0  0  0  0  0  0  0  0  0  0  0
   15.1054  -15.5926   -7.7416 H   0  0  0  0  0  0  0  0  0  0  0  0
   13.4540  -12.9180   -6.6430 H   0  0  0  0  0  0  0  0  0  0  0  0
   14.4448  -12.3265   -5.1427 H   0  0  0  0  0  0  0  0  0  0  0  0
   14.4758  -10.8014   -3.1710 H   0  0  0  0  0  0  0  0  0  0  0  0
   13.0346  -11.2807   -1.1969 H   0  0  0  0  0  0  0  0  0  0  0  0
   11.5254  -14.8320   -3.1623 H   0  0  0  0  0  0  0  0  0  0  0  0
   11.4206  -13.4893   -8.4891 H   0  0  0  0  0  0  0  0  0  0  0  0
   10.9110  -15.0700  -11.7420 H   0  0  0  0  0  0  0  0  0  0  0  0
    9.8846   -9.4556  -12.3293 H   0  0  0  0  0  0  0  0  0  0  0  0
    7.5897   -8.5099  -12.0242 H   0  0  0  0  0  0  0  0  0  0  0  0
    5.7880   -9.8877  -11.0244 H   0  0  0  0  0  0  0  0  0  0  0  0
    6.2487  -12.2238  -10.2385 H   0  0  0  0  0  0  0  0  0  0  0  0
    8.3836  -13.1740   -7.8461 H   0  0  0  0  0  0  0  0  0  0  0  0
    7.6240  -14.1370   -5.8410 H   0  0  0  0  0  0  0  0  0  0  0  0
    7.3137  -17.1039   -5.7648 H   0  0  0  0  0  0  0  0  0  0  0  0
    7.4373  -16.0197   -4.3246 H   0  0  0  0  0  0  0  0  0  0  0  0
    5.2248  -15.6610   -6.3680 H   0  0  0  0  0  0  0  0  0  0  0  0
    5.1096  -16.8852   -5.0175 H   0  0  0  0  0  0  0  0  0  0  0  0
    4.5106  -15.3246   -3.5599 H   0  0  0  0  0  0  0  0  0  0  0  0
    5.9423  -14.3089   -3.9997 H   0  0  0  0  0  0  0  0  0  0  0  0
    3.7916  -14.2871   -6.0258 H   0  0  0  0  0  0  0  0  0  0  0  0
    3.3035  -13.6205   -4.4200 H   0  0  0  0  0  0  0  0  0  0  0  0
    4.2490  -11.7830   -5.1920 H   0  0  0  0  0  0  0  0  0  0  0  0
    6.3177  -12.1933   -6.9400 H   0  0  0  0  0  0  0  0  0  0  0  0
    5.0843  -13.4405   -7.3272 H   0  0  0  0  0  0  0  0  0  0  0  0
    4.6340  -11.7016   -7.3272 H   0  0  0  0  0  0  0  0  0  0  0  0
    5.8133  -12.3998   -3.4562 H   0  0  0  0  0  0  0  0  0  0  0  0
    6.8525  -13.1285   -4.7273 H   0  0  0  0  0  0  0  0  0  0  0  0
    6.5404  -11.3595   -4.7273 H   0  0  0  0  0  0  0  0  0  0  0  0
    7.7369  -17.5615   -9.8573 H   0  0  0  0  0  0  0  0  0  0  0  0
  1  2  1  0
  2  3  2  0
  3  4  1  0
  4  5  2  0
  5  6  1  0
  6  7  1  0
  7  8  2  0
  7  9  1  0
  9 10  2  0
 10 11  1  0
 11 12  2  0
 12 13  1  0
 13 14  1  0
 14 15  1  0
 14 16  1  0
 14 17  1  0
 13 18  2  0
  5 19  1  0
 19 20  2  0
 20 21  1  0
 21 22  1  0
 22 23  2  0
 23 24  1  0
 24 25  2  0
 25 26  1  0
 26 27  2  0
 27 28  1  0
 28 29  2  0
 29 30  1  0
 30 31  1  0
 31 32  2  0
 32 33  1  0
 33 34  1  0
 34 35  1  0
 35 36  1  0
 36 37  1  0
 37 38  1  0
 38 39  1  0
 39 40  1  0
 39 41  1  0
 33 42  2  0
 42 43  1  0
 43 44  2  0
 20  2  1  0
 30 22  1  0
 44 31  1  0
 18  9  1  0
 29 24  1  0
  1 45  1  0
  1 46  1  0
  1 47  1  0
  3 48  1  0
  4 49  1  0
  6 50  1  0
 10 51  1  0
 11 52  1  0
 12 53  1  0
 18 54  1  0
 19 55  1  0
 21 56  1  0
 25 57  1  0
 26 58  1  0
 27 59  1  0
 28 60  1  0
 32 61  1  0
 34 62  1  0
 35 63  1  0
 35 64  1  0
 36 65  1  0
 36 66  1  0
 37 67  1  0
 37 68  1  0
 38 69  1  0
 38 70  1  0
 39 71  1  0
 40 72  1  0
 40 73  1  0
 40 74  1  0
 41 75  1  0
 41 76  1  0
 41 77  1  0
 43 78  1  0
M  CHG  1  39   1
M  END
>  <meeko>  (6) 
{"is_sidechain": [false], "free_energy": -8.813, "intermolecular_energy": -13.808, "internal_energy": -2.952}

$$$$
LIB_UOJUQBSCCIRCHS__M_PUB_ALL__e8__s20260927
     RDKit          3D

 78 82  0  0  0  0  0  0  0  0999 V2000
   10.3230  -13.4430   -2.0200 C   0  0  0  0  0  0  0  0  0  0  0  0
   11.0190  -13.6090   -3.3450 C   0  0  0  0  0  0  0  0  0  0  0  0
   12.3310  -13.1210   -3.4680 C   0  0  0  0  0  0  0  0  0  0  0  0
   13.0410  -13.2540   -4.6630 C   0  0  0  0  0  0  0  0  0  0  0  0
   12.4550  -13.8840   -5.7530 C   0  0  0  0  0  0  0  0  0  0  0  0
   13.0980  -14.0730   -6.9960 N   0  0  0  0  0  0  0  0  0  0  0  0
   14.1050  -14.9710   -7.2940 C   0  0  0  0  0  0  0  0  0  0  0  0
   14.5950  -15.8060   -6.5420 O   0  0  0  0  0  0  0  0  0  0  0  0
   14.6100  -14.9060   -8.6950 C   0  0  0  0  0  0  0  0  0  0  0  0
   13.9710  -14.0450   -9.5950 C   0  0  0  0  0  0  0  0  0  0  0  0
   14.4090  -13.9620  -10.9170 C   0  0  0  0  0  0  0  0  0  0  0  0
   15.4810  -14.7450  -11.3490 C   0  0  0  0  0  0  0  0  0  0  0  0
   16.1270  -15.6230  -10.4640 C   0  0  0  0  0  0  0  0  0  0  0  0
   17.2590  -16.5020  -10.9390 C   0  0  0  0  0  0  0  0  0  0  0  0
   18.4100  -16.2810  -10.2470 F   0  0  0  0  0  0  0  0  0  0  0  0
   17.5660  -16.2940  -12.2510 F   0  0  0  0  0  0  0  0  0  0  0  0
   16.9960  -17.8320  -10.8240 F   0  0  0  0  0  0  0  0  0  0  0  0
   15.6750  -15.7050   -9.1350 C   0  0  0  0  0  0  0  0  0  0  0  0
   11.1430  -14.3670   -5.6340 C   0  0  0  0  0  0  0  0  0  0  0  0
   10.3970  -14.2370   -4.4490 C   0  0  0  0  0  0  0  0  0  0  0  0
    9.0700  -14.7080   -4.3330 N   0  0  0  0  0  0  0  0  0  0  0  0
    7.8940  -14.0380   -4.4560 C   0  0  0  0  0  0  0  0  0  0  0  0
    7.3330  -13.2040   -3.6090 N   0  0  0  0  0  0  0  0  0  0  0  0
    6.2100  -12.7300   -4.2180 C   0  0  0  0  0  0  0  0  0  0  0  0
    5.3040  -11.7640   -3.7520 C   0  0  0  0  0  0  0  0  0  0  0  0
    4.2480  -11.3690   -4.5760 C   0  0  0  0  0  0  0  0  0  0  0  0
    4.1060  -11.9130   -5.8500 C   0  0  0  0  0  0  0  0  0  0  0  0
    4.9950  -12.8850   -6.3260 C   0  0  0  0  0  0  0  0  0  0  0  0
    6.0280  -13.3110   -5.4700 C   0  0  0  0  0  0  0  0  0  0  0  0
    7.0640  -14.2380   -5.5720 N   0  0  0  0  0  0  0  0  0  0  0  0
    7.2560  -15.2520   -6.5700 C   0  0  0  0  0  0  0  0  0  0  0  0
    7.3230  -14.9130   -7.9090 C   0  0  0  0  0  0  0  0  0  0  0  0
    7.4280  -15.9440   -8.8270 C   0  0  0  0  0  0  0  0  0  0  0  0
    7.3980  -15.6360  -10.1790 N   0  0  0  0  0  0  0  0  0  0  0  0
    8.2490  -14.5970  -10.7320 C   0  0  0  0  0  0  0  0  0  0  0  0
    7.4090  -13.4710  -11.3450 C   0  0  0  0  0  0  0  0  0  0  0  0
    8.1570  -12.1370  -11.4440 C   0  0  0  0  0  0  0  0  0  0  0  0
    9.5750  -12.2560  -10.8960 C   0  0  0  0  0  0  0  0  0  0  0  0
   10.2510  -10.9000  -10.8570 N   0  0  0  0  0  0  0  0  0  0  0  0
    9.5640   -9.9200  -11.7720 C   0  0  0  0  0  0  0  0  0  0  0  0
   11.7300  -10.9540  -11.1420 C   0  0  0  0  0  0  0  0  0  0  0  0
    7.4480  -17.2270   -8.4390 N   0  0  0  0  0  0  0  0  0  0  0  0
    7.4070  -17.4650   -7.1250 C   0  0  0  0  0  0  0  0  0  0  0  0
    7.2730  -16.5450   -6.1640 N   0  0  0  0  0  0  0  0  0  0  0  0
   11.0412  -13.6143   -1.2046 H   0  0  0  0  0  0  0  0  0  0  0  0
    9.9181  -12.4231   -1.9438 H   0  0  0  0  0  0  0  0  0  0  0  0
    9.5013  -14.1704   -1.9438 H   0  0  0  0  0  0  0  0  0  0  0  0
   12.8067  -12.6259   -2.6085 H   0  0  0  0  0  0  0  0  0  0  0  0
   14.0649  -12.8596   -4.7410 H   0  0  0  0  0  0  0  0  0  0  0  0
   12.7380  -13.5070   -7.7550 H   0  0  0  0  0  0  0  0  0  0  0  0
   13.1214  -13.4323   -9.2590 H   0  0  0  0  0  0  0  0  0  0  0  0
   13.9092  -13.2790  -11.6196 H   0  0  0  0  0  0  0  0  0  0  0  0
   15.8227  -14.6735  -12.3921 H   0  0  0  0  0  0  0  0  0  0  0  0
   16.1605  -16.4012   -8.4353 H   0  0  0  0  0  0  0  0  0  0  0  0
   10.6812  -14.8654   -6.4990 H   0  0  0  0  0  0  0  0  0  0  0  0
    8.9970  -15.7070   -4.1480 H   0  0  0  0  0  0  0  0  0  0  0  0
    5.4244  -11.3241   -2.7510 H   0  0  0  0  0  0  0  0  0  0  0  0
    3.5237  -10.6233   -4.2164 H   0  0  0  0  0  0  0  0  0  0  0  0
    3.2812  -11.5734   -6.4938 H   0  0  0  0  0  0  0  0  0  0  0  0
    4.8891  -13.3028   -7.3381 H   0  0  0  0  0  0  0  0  0  0  0  0
    7.2939  -13.8622   -8.2330 H   0  0  0  0  0  0  0  0  0  0  0  0
    6.5150  -15.7910  -10.6530 H   0  0  0  0  0  0  0  0  0  0  0  0
    8.8778  -14.1819   -9.9305 H   0  0  0  0  0  0  0  0  0  0  0  0
    8.8749  -15.0384  -11.5216 H   0  0  0  0  0  0  0  0  0  0  0  0
    7.1037  -13.7753  -12.3570 H   0  0  0  0  0  0  0  0  0  0  0  0
    6.5470  -13.3109  -10.6806 H   0  0  0  0  0  0  0  0  0  0  0  0
    8.2051  -11.8304  -12.4993 H   0  0  0  0  0  0  0  0  0  0  0  0
    7.6150  -11.3894  -10.8463 H   0  0  0  0  0  0  0  0  0  0  0  0
    9.5347  -12.6686   -9.8771 H   0  0  0  0  0  0  0  0  0  0  0  0
   10.1536  -12.9203  -11.5547 H   0  0  0  0  0  0  0  0  0  0  0  0
   10.1440  -10.5310   -9.9020 H   0  0  0  0  0  0  0  0  0  0  0  0
    9.0352   -9.1657  -11.1708 H   0  0  0  0  0  0  0  0  0  0  0  0
   10.3130   -9.4238  -12.4066 H   0  0  0  0  0  0  0  0  0  0  0  0
    8.8421  -10.4549  -12.4066 H   0  0  0  0  0  0  0  0  0  0  0  0
   12.2858  -10.9743  -10.1930 H   0  0  0  0  0  0  0  0  0  0  0  0
   11.9591  -11.8611  -11.7205 H   0  0  0  0  0  0  0  0  0  0  0  0
   12.0246  -10.0660  -11.7205 H   0  0  0  0  0  0  0  0  0  0  0  0
    7.4912  -18.5139   -6.8043 H   0  0  0  0  0  0  0  0  0  0  0  0
  1  2  1  0
  2  3  2  0
  3  4  1  0
  4  5  2  0
  5  6  1  0
  6  7  1  0
  7  8  2  0
  7  9  1  0
  9 10  2  0
 10 11  1  0
 11 12  2  0
 12 13  1  0
 13 14  1  0
 14 15  1  0
 14 16  1  0
 14 17  1  0
 13 18  2  0
  5 19  1  0
 19 20  2  0
 20 21  1  0
 21 22  1  0
 22 23  2  0
 23 24  1  0
 24 25  2  0
 25 26  1  0
 26 27  2  0
 27 28  1  0
 28 29  2  0
 29 30  1  0
 30 31  1  0
 31 32  2  0
 32 33  1  0
 33 34  1  0
 34 35  1  0
 35 36  1  0
 36 37  1  0
 37 38  1  0
 38 39  1  0
 39 40  1  0
 39 41  1  0
 33 42  2  0
 42 43  1  0
 43 44  2  0
 20  2  1  0
 30 22  1  0
 44 31  1  0
 18  9  1  0
 29 24  1  0
  1 45  1  0
  1 46  1  0
  1 47  1  0
  3 48  1  0
  4 49  1  0
  6 50  1  0
 10 51  1  0
 11 52  1  0
 12 53  1  0
 18 54  1  0
 19 55  1  0
 21 56  1  0
 25 57  1  0
 26 58  1  0
 27 59  1  0
 28 60  1  0
 32 61  1  0
 34 62  1  0
 35 63  1  0
 35 64  1  0
 36 65  1  0
 36 66  1  0
 37 67  1  0
 37 68  1  0
 38 69  1  0
 38 70  1  0
 39 71  1  0
 40 72  1  0
 40 73  1  0
 40 74  1  0
 41 75  1  0
 41 76  1  0
 41 77  1  0
 43 78  1  0
M  CHG  1  39   1
M  END
>  <meeko>  (7) 
{"is_sidechain": [false], "free_energy": -8.799, "intermolecular_energy": -14.189, "internal_energy": -2.548}

$$$$
LIB_UOJUQBSCCIRCHS__M_PUB_ALL__e8__s20260927
     RDKit          3D

 78 82  0  0  0  0  0  0  0  0999 V2000
    5.3800  -12.3660   -5.4670 C   0  0  0  0  0  0  0  0  0  0  0  0
    4.4160  -12.2340   -4.3190 C   0  0  0  0  0  0  0  0  0  0  0  0
    3.0900  -12.6570   -4.5160 C   0  0  0  0  0  0  0  0  0  0  0  0
    2.1470  -12.5760   -3.4910 C   0  0  0  0  0  0  0  0  0  0  0  0
    2.5130  -12.0800   -2.2460 C   0  0  0  0  0  0  0  0  0  0  0  0
    1.6320  -11.9720   -1.1480 N   0  0  0  0  0  0  0  0  0  0  0  0
    0.9190  -12.9870   -0.5380 C   0  0  0  0  0  0  0  0  0  0  0  0
    0.9590  -14.1810   -0.8080 O   0  0  0  0  0  0  0  0  0  0  0  0
    0.0370  -12.5490    0.5820 C   0  0  0  0  0  0  0  0  0  0  0  0
   -0.6360  -13.5280    1.3230 C   0  0  0  0  0  0  0  0  0  0  0  0
   -1.4770  -13.1570    2.3720 C   0  0  0  0  0  0  0  0  0  0  0  0
   -1.6580  -11.8080    2.6810 C   0  0  0  0  0  0  0  0  0  0  0  0
   -1.0010  -10.8120    1.9420 C   0  0  0  0  0  0  0  0  0  0  0  0
   -1.2270   -9.3500    2.2460 C   0  0  0  0  0  0  0  0  0  0  0  0
   -2.2960   -8.8420    1.5750 F   0  0  0  0  0  0  0  0  0  0  0  0
   -0.1630   -8.5740    1.8940 F   0  0  0  0  0  0  0  0  0  0  0  0
   -1.4510   -9.1000    3.5640 F   0  0  0  0  0  0  0  0  0  0  0  0
   -0.1600  -11.1930    0.8810 C   0  0  0  0  0  0  0  0  0  0  0  0
    3.8350  -11.6530   -2.0480 C   0  0  0  0  0  0  0  0  0  0  0  0
    4.8050  -11.7090   -3.0650 C   0  0  0  0  0  0  0  0  0  0  0  0
    6.1320  -11.2620   -2.8710 N   0  0  0  0  0  0  0  0  0  0  0  0
    7.2650  -11.9730   -2.6320 C   0  0  0  0  0  0  0  0  0  0  0  0
    8.0170  -12.6290   -3.4870 N   0  0  0  0  0  0  0  0  0  0  0  0
    9.0810  -13.1050   -2.7800 C   0  0  0  0  0  0  0  0  0  0  0  0
   10.1980  -13.8130   -3.2540 C   0  0  0  0  0  0  0  0  0  0  0  0
   11.2180  -14.1460   -2.3600 C   0  0  0  0  0  0  0  0  0  0  0  0
   11.1370  -13.7670   -1.0230 C   0  0  0  0  0  0  0  0  0  0  0  0
   10.0260  -13.0700   -0.5330 C   0  0  0  0  0  0  0  0  0  0  0  0
    8.9810  -12.7800   -1.4310 C   0  0  0  0  0  0  0  0  0  0  0  0
    7.7480  -12.1390   -1.3230 N   0  0  0  0  0  0  0  0  0  0  0  0
    7.0440  -11.7580   -0.1310 C   0  0  0  0  0  0  0  0  0  0  0  0
    6.2810  -12.6830    0.5580 C   0  0  0  0  0  0  0  0  0  0  0  0
    5.5630  -12.2350    1.6520 C   0  0  0  0  0  0  0  0  0  0  0  0
    4.7140  -13.1200    2.2990 N   0  0  0  0  0  0  0  0  0  0  0  0
    3.8200  -13.9880    1.5520 C   0  0  0  0  0  0  0  0  0  0  0  0
    2.7710  -14.6180    2.4740 C   0  0  0  0  0  0  0  0  0  0  0  0
    2.2600  -15.9740    1.9790 C   0  0  0  0  0  0  0  0  0  0  0  0
    3.1580  -16.5380    0.8840 C   0  0  0  0  0  0  0  0  0  0  0  0
    3.6200  -17.9380    1.2370 N   0  0  0  0  0  0  0  0  0  0  0  0
    4.7880  -18.3590    0.3840 C   0  0  0  0  0  0  0  0  0  0  0  0
    2.5210  -18.9680    1.1860 C   0  0  0  0  0  0  0  0  0  0  0  0
    5.5900  -10.9470    2.0280 N   0  0  0  0  0  0  0  0  0  0  0  0
    6.3760  -10.1270    1.3250 C   0  0  0  0  0  0  0  0  0  0  0  0
    7.0800  -10.4540    0.2360 N   0  0  0  0  0  0  0  0  0  0  0  0
    6.3987  -12.5055   -5.0762 H   0  0  0  0  0  0  0  0  0  0  0  0
    5.1011  -13.2343   -6.0820 H   0  0  0  0  0  0  0  0  0  0  0  0
    5.3448  -11.4547   -6.0820 H   0  0  0  0  0  0  0  0  0  0  0  0
    2.7907  -13.0588   -5.4953 H   0  0  0  0  0  0  0  0  0  0  0  0
    1.1126  -12.9052   -3.6688 H   0  0  0  0  0  0  0  0  0  0  0  0
    1.5590  -11.0440   -0.7480 H   0  0  0  0  0  0  0  0  0  0  0  0
   -0.5012  -14.5917    1.0774 H   0  0  0  0  0  0  0  0  0  0  0  0
   -1.9986  -13.9290    2.9568 H   0  0  0  0  0  0  0  0  0  0  0  0
   -2.3213  -11.5230    3.5109 H   0  0  0  0  0  0  0  0  0  0  0  0
    0.3467  -10.4222    0.2817 H   0  0  0  0  0  0  0  0  0  0  0  0
    4.1231  -11.2603   -1.0617 H   0  0  0  0  0  0  0  0  0  0  0  0
    6.2450  -10.2530   -2.9440 H   0  0  0  0  0  0  0  0  0  0  0  0
   10.2682  -14.1008   -4.3134 H   0  0  0  0  0  0  0  0  0  0  0  0
   12.0919  -14.7120   -2.7150 H   0  0  0  0  0  0  0  0  0  0  0  0
   11.9607  -14.0197   -0.3391 H   0  0  0  0  0  0  0  0  0  0  0  0
    9.9712  -12.7587    0.5206 H   0  0  0  0  0  0  0  0  0  0  0  0
    6.2464  -13.7376    0.2470 H   0  0  0  0  0  0  0  0  0  0  0  0
    4.4010  -12.8440    3.2240 H   0  0  0  0  0  0  0  0  0  0  0  0
    3.3097  -13.3977    0.7767 H   0  0  0  0  0  0  0  0  0  0  0  0
    4.4137  -14.7930    1.0942 H   0  0  0  0  0  0  0  0  0  0  0  0
    3.2197  -14.7567    3.4687 H   0  0  0  0  0  0  0  0  0  0  0  0
    1.9086  -13.9356    2.4976 H   0  0  0  0  0  0  0  0  0  0  0  0
    2.2386  -16.6788    2.8233 H   0  0  0  0  0  0  0  0  0  0  0  0
    1.2513  -15.8342    1.5631 H   0  0  0  0  0  0  0  0  0  0  0  0
    2.5970  -16.5707   -0.0616 H   0  0  0  0  0  0  0  0  0  0  0  0
    4.0408  -15.8897    0.7823 H   0  0  0  0  0  0  0  0  0  0  0  0
    3.9610  -17.9130    2.2070 H   0  0  0  0  0  0  0  0  0  0  0  0
    5.6248  -18.6606    1.0312 H   0  0  0  0  0  0  0  0  0  0  0  0
    4.4915  -19.2068   -0.2510 H   0  0  0  0  0  0  0  0  0  0  0  0
    5.1006  -17.5170   -0.2510 H   0  0  0  0  0  0  0  0  0  0  0  0
    2.2280  -19.2426    2.2101 H   0  0  0  0  0  0  0  0  0  0  0  0
    1.6522  -18.5513    0.6553 H   0  0  0  0  0  0  0  0  0  0  0  0
    2.8806  -19.8619    0.6553 H   0  0  0  0  0  0  0  0  0  0  0  0
    6.4511   -9.0866    1.6741 H   0  0  0  0  0  0  0  0  0  0  0  0
  1  2  1  0
  2  3  2  0
  3  4  1  0
  4  5  2  0
  5  6  1  0
  6  7  1  0
  7  8  2  0
  7  9  1  0
  9 10  2  0
 10 11  1  0
 11 12  2  0
 12 13  1  0
 13 14  1  0
 14 15  1  0
 14 16  1  0
 14 17  1  0
 13 18  2  0
  5 19  1  0
 19 20  2  0
 20 21  1  0
 21 22  1  0
 22 23  2  0
 23 24  1  0
 24 25  2  0
 25 26  1  0
 26 27  2  0
 27 28  1  0
 28 29  2  0
 29 30  1  0
 30 31  1  0
 31 32  2  0
 32 33  1  0
 33 34  1  0
 34 35  1  0
 35 36  1  0
 36 37  1  0
 37 38  1  0
 38 39  1  0
 39 40  1  0
 39 41  1  0
 33 42  2  0
 42 43  1  0
 43 44  2  0
 20  2  1  0
 30 22  1  0
 44 31  1  0
 18  9  1  0
 29 24  1  0
  1 45  1  0
  1 46  1  0
  1 47  1  0
  3 48  1  0
  4 49  1  0
  6 50  1  0
 10 51  1  0
 11 52  1  0
 12 53  1  0
 18 54  1  0
 19 55  1  0
 21 56  1  0
 25 57  1  0
 26 58  1  0
 27 59  1  0
 28 60  1  0
 32 61  1  0
 34 62  1  0
 35 63  1  0
 35 64  1  0
 36 65  1  0
 36 66  1  0
 37 67  1  0
 37 68  1  0
 38 69  1  0
 38 70  1  0
 39 71  1  0
 40 72  1  0
 40 73  1  0
 40 74  1  0
 41 75  1  0
 41 76  1  0
 41 77  1  0
 43 78  1  0
M  CHG  1  39   1
M  END
>  <meeko>  (8) 
{"is_sidechain": [false], "free_energy": -8.7, "intermolecular_energy": -13.397, "internal_energy": -3.17}

$$$$
LIB_UOJUQBSCCIRCHS__M_PUB_ALL__e8__s20260927
     RDKit          3D

 78 82  0  0  0  0  0  0  0  0999 V2000
   11.1610  -15.7310   -7.8050 C   0  0  0  0  0  0  0  0  0  0  0  0
    9.9060  -15.2070   -7.1610 C   0  0  0  0  0  0  0  0  0  0  0  0
    8.7780  -15.0060   -7.9750 C   0  0  0  0  0  0  0  0  0  0  0  0
    7.5780  -14.5360   -7.4420 C   0  0  0  0  0  0  0  0  0  0  0  0
    7.4780  -14.2660   -6.0830 C   0  0  0  0  0  0  0  0  0  0  0  0
    6.3040  -13.7980   -5.4540 N   0  0  0  0  0  0  0  0  0  0  0  0
    5.4500  -12.8050   -5.8970 C   0  0  0  0  0  0  0  0  0  0  0  0
    5.5300  -12.1790   -6.9480 O   0  0  0  0  0  0  0  0  0  0  0  0
    4.3080  -12.5070   -4.9870 C   0  0  0  0  0  0  0  0  0  0  0  0
    4.0380  -11.1700   -4.6700 C   0  0  0  0  0  0  0  0  0  0  0  0
    2.9830  -10.8520   -3.8160 C   0  0  0  0  0  0  0  0  0  0  0  0
    2.1980  -11.8660   -3.2650 C   0  0  0  0  0  0  0  0  0  0  0  0
    2.4600  -13.2120   -3.5620 C   0  0  0  0  0  0  0  0  0  0  0  0
    1.6390  -14.3140   -2.9360 C   0  0  0  0  0  0  0  0  0  0  0  0
    0.6770  -14.7830   -3.7750 F   0  0  0  0  0  0  0  0  0  0  0  0
    0.9860  -13.9040   -1.8110 F   0  0  0  0  0  0  0  0  0  0  0  0
    2.3780  -15.3950   -2.5640 F   0  0  0  0  0  0  0  0  0  0  0  0
    3.5300  -13.5260   -4.4200 C   0  0  0  0  0  0  0  0  0  0  0  0
    8.6040  -14.4610   -5.2690 C   0  0  0  0  0  0  0  0  0  0  0  0
    9.8320  -14.9210   -5.7770 C   0  0  0  0  0  0  0  0  0  0  0  0
   10.9710  -15.1000   -4.9610 N   0  0  0  0  0  0  0  0  0  0  0  0
   11.4570  -14.3210   -3.9590 C   0  0  0  0  0  0  0  0  0  0  0  0
   12.3200  -13.3330   -4.0330 N   0  0  0  0  0  0  0  0  0  0  0  0
   12.4220  -12.8130   -2.7780 C   0  0  0  0  0  0  0  0  0  0  0  0
   13.1660  -11.7010   -2.3510 C   0  0  0  0  0  0  0  0  0  0  0  0
   13.0710  -11.2920   -1.0190 C   0  0  0  0  0  0  0  0  0  0  0  0
   12.2370  -11.9670   -0.1310 C   0  0  0  0  0  0  0  0  0  0  0  0
   11.4970  -13.0830   -0.5390 C   0  0  0  0  0  0  0  0  0  0  0  0
   11.6350  -13.5170   -1.8710 C   0  0  0  0  0  0  0  0  0  0  0  0
   11.0960  -14.5600   -2.6220 N   0  0  0  0  0  0  0  0  0  0  0  0
   10.3610  -15.7030   -2.1580 C   0  0  0  0  0  0  0  0  0  0  0  0
    9.0460  -15.5720   -1.7520 C   0  0  0  0  0  0  0  0  0  0  0  0
    8.4180  -16.6930   -1.2390 C   0  0  0  0  0  0  0  0  0  0  0  0
    7.1330  -16.5640   -0.7340 N   0  0  0  0  0  0  0  0  0  0  0  0
    6.6670  -15.3060   -0.1760 C   0  0  0  0  0  0  0  0  0  0  0  0
    5.5590  -14.7000   -1.0430 C   0  0  0  0  0  0  0  0  0  0  0  0
    5.9830  -13.4160   -1.7640 C   0  0  0  0  0  0  0  0  0  0  0  0
    5.3660  -12.1850   -1.1100 C   0  0  0  0  0  0  0  0  0  0  0  0
    6.3810  -11.4790   -0.2320 N   0  0  0  0  0  0  0  0  0  0  0  0
    7.7890  -11.8180   -0.6440 C   0  0  0  0  0  0  0  0  0  0  0  0
    6.1790  -11.7220    1.2410 C   0  0  0  0  0  0  0  0  0  0  0  0
    9.0610  -17.8650   -1.1250 N   0  0  0  0  0  0  0  0  0  0  0  0
   10.3210  -17.9120   -1.5690 C   0  0  0  0  0  0  0  0  0  0  0  0
   11.0240  -16.8800   -2.0470 N   0  0  0  0  0  0  0  0  0  0  0  0
   11.8764  -16.0297   -7.0246 H   0  0  0  0  0  0  0  0  0  0  0  0
   10.9160  -16.6020   -8.4306 H   0  0  0  0  0  0  0  0  0  0  0  0
   11.6081  -14.9444   -8.4306 H   0  0  0  0  0  0  0  0  0  0  0  0
    8.8428  -15.2232   -9.0514 H   0  0  0  0  0  0  0  0  0  0  0  0
    6.7095  -14.3789   -8.0986 H   0  0  0  0  0  0  0  0  0  0  0  0
    6.0510  -14.2850   -4.6030 H   0  0  0  0  0  0  0  0  0  0  0  0
    4.6598  -10.3688   -5.0959 H   0  0  0  0  0  0  0  0  0  0  0  0
    2.7689   -9.8001   -3.5760 H   0  0  0  0  0  0  0  0  0  0  0  0
    1.3669  -11.6077   -2.5922 H   0  0  0  0  0  0  0  0  0  0  0  0
    3.7575  -14.5779   -4.6473 H   0  0  0  0  0  0  0  0  0  0  0  0
    8.5232  -14.2460   -4.1932 H   0  0  0  0  0  0  0  0  0  0  0  0
   11.4870  -15.9580   -5.1510 H   0  0  0  0  0  0  0  0  0  0  0  0
   13.8144  -11.1598   -3.0557 H   0  0  0  0  0  0  0  0  0  0  0  0
   13.6589  -10.4308   -0.6688 H   0  0  0  0  0  0  0  0  0  0  0  0
   12.1584  -11.6171    0.9089 H   0  0  0  0  0  0  0  0  0  0  0  0
   10.8276  -13.6053    0.1604 H   0  0  0  0  0  0  0  0  0  0  0  0
    8.5177  -14.6106   -1.8339 H   0  0  0  0  0  0  0  0  0  0  0  0
    6.7170  -17.4050   -0.3500 H   0  0  0  0  0  0  0  0  0  0  0  0
    6.2752  -15.4843    0.8363 H   0  0  0  0  0  0  0  0  0  0  0  0
    7.5117  -14.6021   -0.1429 H   0  0  0  0  0  0  0  0  0  0  0  0
    5.2624  -15.4423   -1.7986 H   0  0  0  0  0  0  0  0  0  0  0  0
    4.7292  -14.4358   -0.3710 H   0  0  0  0  0  0  0  0  0  0  0  0
    7.0790  -13.3298   -1.7278 H   0  0  0  0  0  0  0  0  0  0  0  0
    5.6314  -13.4696   -2.8049 H   0  0  0  0  0  0  0  0  0  0  0  0
    5.0233  -11.4933   -1.8936 H   0  0  0  0  0  0  0  0  0  0  0  0
    4.5187  -12.5037   -0.4851 H   0  0  0  0  0  0  0  0  0  0  0  0
    6.2670  -10.4670   -0.3860 H   0  0  0  0  0  0  0  0  0  0  0  0
    8.4078  -11.9670    0.2532 H   0  0  0  0  0  0  0  0  0  0  0  0
    7.7837  -12.7405   -1.2431 H   0  0  0  0  0  0  0  0  0  0  0  0
    8.2042  -10.9941   -1.2431 H   0  0  0  0  0  0  0  0  0  0  0  0
    6.7780  -11.0014    1.8170 H   0  0  0  0  0  0  0  0  0  0  0  0
    5.1151  -11.5969    1.4907 H   0  0  0  0  0  0  0  0  0  0  0  0
    6.4964  -12.7452    1.4907 H   0  0  0  0  0  0  0  0  0  0  0  0
   10.8256  -18.8890   -1.5383 H   0  0  0  0  0  0  0  0  0  0  0  0
  1  2  1  0
  2  3  2  0
  3  4  1  0
  4  5  2  0
  5  6  1  0
  6  7  1  0
  7  8  2  0
  7  9  1  0
  9 10  2  0
 10 11  1  0
 11 12  2  0
 12 13  1  0
 13 14  1  0
 14 15  1  0
 14 16  1  0
 14 17  1  0
 13 18  2  0
  5 19  1  0
 19 20  2  0
 20 21  1  0
 21 22  1  0
 22 23  2  0
 23 24  1  0
 24 25  2  0
 25 26  1  0
 26 27  2  0
 27 28  1  0
 28 29  2  0
 29 30  1  0
 30 31  1  0
 31 32  2  0
 32 33  1  0
 33 34  1  0
 34 35  1  0
 35 36  1  0
 36 37  1  0
 37 38  1  0
 38 39  1  0
 39 40  1  0
 39 41  1  0
 33 42  2  0
 42 43  1  0
 43 44  2  0
 20  2  1  0
 30 22  1  0
 44 31  1  0
 18  9  1  0
 29 24  1  0
  1 45  1  0
  1 46  1  0
  1 47  1  0
  3 48  1  0
  4 49  1  0
  6 50  1  0
 10 51  1  0
 11 52  1  0
 12 53  1  0
 18 54  1  0
 19 55  1  0
 21 56  1  0
 25 57  1  0
 26 58  1  0
 27 59  1  0
 28 60  1  0
 32 61  1  0
 34 62  1  0
 35 63  1  0
 35 64  1  0
 36 65  1  0
 36 66  1  0
 37 67  1  0
 37 68  1  0
 38 69  1  0
 38 70  1  0
 39 71  1  0
 40 72  1  0
 40 73  1  0
 40 74  1  0
 41 75  1  0
 41 76  1  0
 41 77  1  0
 43 78  1  0
M  CHG  1  39   1
M  END
>  <meeko>  (9) 
{"is_sidechain": [false], "free_energy": -8.637, "intermolecular_energy": -12.655, "internal_energy": -3.806}

$$$$
