LIB_FLOXVEVSESQZRQ__M_PUB_ALL__e8__s20260927
     RDKit          3D

 71 75  0  0  0  0  0  0  0  0999 V2000
   -2.9180  -10.3040    0.0010 C   0  0  0  0  0  0  0  0  0  0  0  0
   -1.9390  -10.5610    1.1450 C   0  0  0  0  0  0  0  0  0  0  0  0
   -1.4890   -9.2370    1.7650 C   0  0  0  0  0  0  0  0  0  0  0  0
   -0.7410  -11.3820    0.6520 C   0  0  0  0  0  0  0  0  0  0  0  0
    0.3780  -10.5060    0.4560 O   0  0  0  0  0  0  0  0  0  0  0  0
    0.9070  -10.5370   -0.7970 C   0  0  0  0  0  0  0  0  0  0  0  0
    0.7260   -9.6720   -1.6390 O   0  0  0  0  0  0  0  0  0  0  0  0
    1.6420  -11.6830   -0.9120 N   0  0  0  0  0  0  0  0  0  0  0  0
    2.3810  -12.1400   -2.0150 C   0  0  0  0  0  0  0  0  0  0  0  0
    1.8120  -12.7810   -3.1170 C   0  0  0  0  0  0  0  0  0  0  0  0
    2.6140  -13.2080   -4.1820 C   0  0  0  0  0  0  0  0  0  0  0  0
    3.9970  -13.0010   -4.1610 C   0  0  0  0  0  0  0  0  0  0  0  0
    4.8320  -13.4690   -5.2750 C   0  0  0  0  0  0  0  0  0  0  0  0
    5.1720  -12.5380   -6.3980 C   0  0  0  0  0  0  0  0  0  0  0  0
    5.8950  -12.7970   -7.4470 N   0  0  0  0  0  0  0  0  0  0  0  0
    6.3980  -14.0710   -7.5190 C   0  0  0  0  0  0  0  0  0  0  0  0
    7.2030  -14.7050   -8.4510 C   0  0  0  0  0  0  0  0  0  0  0  0
    7.7450  -14.1020   -9.6590 C   0  0  0  0  0  0  0  0  0  0  0  0
    6.8980  -13.7660  -10.7150 C   0  0  0  0  0  0  0  0  0  0  0  0
    7.4180  -13.1750  -11.8620 C   0  0  0  0  0  0  0  0  0  0  0  0
    8.7920  -12.9310  -11.9690 C   0  0  0  0  0  0  0  0  0  0  0  0
    9.6850  -13.2700  -10.9420 C   0  0  0  0  0  0  0  0  0  0  0  0
   11.0570  -13.0640  -11.0360 N   0  0  0  0  0  0  0  0  0  0  0  0
   11.7300  -12.2470  -10.0080 C   0  0  0  0  0  0  0  0  0  0  0  0
   12.3820  -13.1740   -8.9590 C   0  0  0  0  0  0  0  0  0  0  0  0
   13.3330  -14.1690   -9.6420 N   0  0  0  0  0  0  0  0  0  0  0  0
   14.0020  -15.0690   -8.6520 C   0  0  0  0  0  0  0  0  0  0  0  0
   12.6130  -14.9590  -10.7430 C   0  0  0  0  0  0  0  0  0  0  0  0
   11.9420  -13.9970  -11.7460 C   0  0  0  0  0  0  0  0  0  0  0  0
    9.1180  -13.8300   -9.7810 C   0  0  0  0  0  0  0  0  0  0  0  0
    7.3820  -16.0070   -7.9390 C   0  0  0  0  0  0  0  0  0  0  0  0
    6.7520  -16.2120   -6.7840 N   0  0  0  0  0  0  0  0  0  0  0  0
    6.1420  -15.0200   -6.5160 N   0  0  0  0  0  0  0  0  0  0  0  0
    5.3500  -14.7130   -5.3760 C   0  0  0  0  0  0  0  0  0  0  0  0
    5.1880  -15.7220   -4.4490 N   0  0  0  0  0  0  0  0  0  0  0  0
    4.5670  -12.3600   -3.0560 C   0  0  0  0  0  0  0  0  0  0  0  0
    3.7640  -11.9310   -1.9940 C   0  0  0  0  0  0  0  0  0  0  0  0
   -3.9043  -10.0451    0.4136 H   0  0  0  0  0  0  0  0  0  0  0  0
   -2.5493   -9.4722   -0.6172 H   0  0  0  0  0  0  0  0  0  0  0  0
   -3.0054  -11.2096   -0.6172 H   0  0  0  0  0  0  0  0  0  0  0  0
   -2.4485  -11.1457    1.9251 H   0  0  0  0  0  0  0  0  0  0  0  0
   -1.5164   -9.3176    2.8617 H   0  0  0  0  0  0  0  0  0  0  0  0
   -0.4631   -9.0097    1.4396 H   0  0  0  0  0  0  0  0  0  0  0  0
   -2.1639   -8.4316    1.4396 H   0  0  0  0  0  0  0  0  0  0  0  0
   -0.4844  -12.1458    1.4008 H   0  0  0  0  0  0  0  0  0  0  0  0
   -0.9955  -11.8770   -0.2968 H   0  0  0  0  0  0  0  0  0  0  0  0
    1.6280  -12.2500   -0.0750 H   0  0  0  0  0  0  0  0  0  0  0  0
    0.7258  -12.9517   -3.1487 H   0  0  0  0  0  0  0  0  0  0  0  0
    2.1518  -13.7114   -5.0440 H   0  0  0  0  0  0  0  0  0  0  0  0
    4.7635  -11.5191   -6.3271 H   0  0  0  0  0  0  0  0  0  0  0  0
    5.8193  -13.9682  -10.6409 H   0  0  0  0  0  0  0  0  0  0  0  0
    6.7466  -12.8983  -12.6882 H   0  0  0  0  0  0  0  0  0  0  0  0
    9.1822  -12.4605  -12.8835 H   0  0  0  0  0  0  0  0  0  0  0  0
   12.5054  -11.6272  -10.4820 H   0  0  0  0  0  0  0  0  0  0  0  0
   10.9919  -11.5974   -9.5149 H   0  0  0  0  0  0  0  0  0  0  0  0
   12.9496  -12.5651   -8.2400 H   0  0  0  0  0  0  0  0  0  0  0  0
   11.5921  -13.7350   -8.4380 H   0  0  0  0  0  0  0  0  0  0  0  0
   14.0620  -13.6110  -10.1040 H   0  0  0  0  0  0  0  0  0  0  0  0
   13.7565  -14.7388   -7.6319 H   0  0  0  0  0  0  0  0  0  0  0  0
   13.6499  -16.1008   -8.7981 H   0  0  0  0  0  0  0  0  0  0  0  0
   15.0915  -15.0292   -8.7981 H   0  0  0  0  0  0  0  0  0  0  0  0
   13.3433  -15.5860  -11.2755 H   0  0  0  0  0  0  0  0  0  0  0  0
   11.8386  -15.5891  -10.2811 H   0  0  0  0  0  0  0  0  0  0  0  0
   12.7179  -13.4281  -12.2792 H   0  0  0  0  0  0  0  0  0  0  0  0
   11.3474  -14.5820  -12.4632 H   0  0  0  0  0  0  0  0  0  0  0  0
    9.7784  -14.0646   -8.9332 H   0  0  0  0  0  0  0  0  0  0  0  0
    7.9830  -16.7774   -8.4442 H   0  0  0  0  0  0  0  0  0  0  0  0
    4.6490  -15.5860   -3.6030 H   0  0  0  0  0  0  0  0  0  0  0  0
    5.7390  -16.5700   -4.5790 H   0  0  0  0  0  0  0  0  0  0  0  0
    5.6536  -12.1922   -3.0220 H   0  0  0  0  0  0  0  0  0  0  0  0
    4.2249  -11.4240   -1.1334 H   0  0  0  0  0  0  0  0  0  0  0  0
  1  2  1  0
  2  3  1  0
  2  4  1  0
  4  5  1  0
  5  6  1  0
  6  7  2  0
  6  8  1  0
  8  9  1  0
  9 10  2  0
 10 11  1  0
 11 12  2  0
 12 13  1  0
 13 14  1  0
 14 15  2  0
 15 16  1  0
 16 17  2  0
 17 18  1  0
 18 19  2  0
 19 20  1  0
 20 21  2  0
 21 22  1  0
 22 23  1  0
 23 24  1  0
 24 25  1  0
 25 26  1  0
 26 27  1  0
 26 28  1  0
 28 29  1  0
 22 30  2  0
 17 31  1  0
 31 32  2  0
 32 33  1  0
 33 34  1  0
 34 35  1  0
 12 36  1  0
 36 37  2  0
 37  9  1  0
 34 13  2  0
 33 16  1  0
 30 18  1  0
 29 23  1  0
  1 38  1  0
  1 39  1  0
  1 40  1  0
  2 41  1  0
  3 42  1  0
  3 43  1  0
  3 44  1  0
  4 45  1  0
  4 46  1  0
  8 47  1  0
 10 48  1  0
 11 49  1  0
 14 50  1  0
 19 51  1  0
 20 52  1  0
 21 53  1  0
 24 54  1  0
 24 55  1  0
 25 56  1  0
 25 57  1  0
 26 58  1  0
 27 59  1  0
 27 60  1  0
 27 61  1  0
 28 62  1  0
 28 63  1  0
 29 64  1  0
 29 65  1  0
 30 66  1  0
 31 67  1  0
 35 68  1  0
 35 69  1  0
 36 70  1  0
 37 71  1  0
M  CHG  1  26   1
M  END
>  <meeko>  (1) 
{"is_sidechain": [false], "free_energy": -8.231, "intermolecular_energy": -11.839, "internal_energy": -1.038}

$$$$
LIB_FLOXVEVSESQZRQ__M_PUB_ALL__e8__s20260927
     RDKit          3D

 71 75  0  0  0  0  0  0  0  0999 V2000
    6.6750   -9.9560  -11.0590 C   0  0  0  0  0  0  0  0  0  0  0  0
    7.8290  -10.9470  -10.9260 C   0  0  0  0  0  0  0  0  0  0  0  0
    8.9880  -10.5370  -11.8370 C   0  0  0  0  0  0  0  0  0  0  0  0
    7.3520  -12.3710  -11.2360 C   0  0  0  0  0  0  0  0  0  0  0  0
    8.0780  -13.2980  -10.4150 O   0  0  0  0  0  0  0  0  0  0  0  0
    7.3180  -13.9550   -9.4980 C   0  0  0  0  0  0  0  0  0  0  0  0
    7.0100  -15.1330   -9.5830 O   0  0  0  0  0  0  0  0  0  0  0  0
    6.9840  -13.0650   -8.5160 N   0  0  0  0  0  0  0  0  0  0  0  0
    6.2220  -13.2880   -7.3580 C   0  0  0  0  0  0  0  0  0  0  0  0
    6.3730  -14.4040   -6.5330 C   0  0  0  0  0  0  0  0  0  0  0  0
    5.5760  -14.5570   -5.3920 C   0  0  0  0  0  0  0  0  0  0  0  0
    4.6150  -13.5960   -5.0600 C   0  0  0  0  0  0  0  0  0  0  0  0
    3.7710  -13.7740   -3.8710 C   0  0  0  0  0  0  0  0  0  0  0  0
    2.2970  -13.9910   -4.0250 C   0  0  0  0  0  0  0  0  0  0  0  0
    1.4220  -14.1640   -3.0800 N   0  0  0  0  0  0  0  0  0  0  0  0
    1.9190  -14.1450   -1.8020 C   0  0  0  0  0  0  0  0  0  0  0  0
    1.3180  -14.3040   -0.5640 C   0  0  0  0  0  0  0  0  0  0  0  0
   -0.0950  -14.5550   -0.3300 C   0  0  0  0  0  0  0  0  0  0  0  0
   -0.6480  -15.7960   -0.6450 C   0  0  0  0  0  0  0  0  0  0  0  0
   -1.9980  -16.0380   -0.4050 C   0  0  0  0  0  0  0  0  0  0  0  0
   -2.8080  -15.0330    0.1370 C   0  0  0  0  0  0  0  0  0  0  0  0
   -2.3010  -13.7640    0.4520 C   0  0  0  0  0  0  0  0  0  0  0  0
   -3.0920  -12.7410    0.9650 N   0  0  0  0  0  0  0  0  0  0  0  0
   -3.1730  -12.5630    2.4270 C   0  0  0  0  0  0  0  0  0  0  0  0
   -2.2040  -11.4420    2.8630 C   0  0  0  0  0  0  0  0  0  0  0  0
   -2.5020  -10.1480    2.0920 N   0  0  0  0  0  0  0  0  0  0  0  0
   -1.5970   -9.0310    2.5070 C   0  0  0  0  0  0  0  0  0  0  0  0
   -2.4660  -10.3850    0.5760 C   0  0  0  0  0  0  0  0  0  0  0  0
   -3.4160  -11.5380    0.1870 C   0  0  0  0  0  0  0  0  0  0  0  0
   -0.9250  -13.5690    0.2320 C   0  0  0  0  0  0  0  0  0  0  0  0
    2.3770  -14.1990    0.3620 C   0  0  0  0  0  0  0  0  0  0  0  0
    3.5600  -13.9870   -0.2100 N   0  0  0  0  0  0  0  0  0  0  0  0
    3.2870  -13.9540   -1.5480 N   0  0  0  0  0  0  0  0  0  0  0  0
    4.2280  -13.7690   -2.5990 C   0  0  0  0  0  0  0  0  0  0  0  0
    5.5460  -13.6120   -2.2250 N   0  0  0  0  0  0  0  0  0  0  0  0
    4.4630  -12.4790   -5.8870 C   0  0  0  0  0  0  0  0  0  0  0  0
    5.2630  -12.3260   -7.0250 C   0  0  0  0  0  0  0  0  0  0  0  0
    6.3294   -9.6592  -10.0578 H   0  0  0  0  0  0  0  0  0  0  0  0
    7.0173   -9.0661  -11.6075 H   0  0  0  0  0  0  0  0  0  0  0  0
    5.8470  -10.4288  -11.6075 H   0  0  0  0  0  0  0  0  0  0  0  0
    8.1921  -10.9333   -9.8877 H   0  0  0  0  0  0  0  0  0  0  0  0
    9.8478  -10.2328  -11.2221 H   0  0  0  0  0  0  0  0  0  0  0  0
    9.2742  -11.3884  -12.4719 H   0  0  0  0  0  0  0  0  0  0  0  0
    8.6751   -9.6950  -12.4719 H   0  0  0  0  0  0  0  0  0  0  0  0
    6.2761  -12.4539  -11.0224 H   0  0  0  0  0  0  0  0  0  0  0  0
    7.5288  -12.5985  -12.2976 H   0  0  0  0  0  0  0  0  0  0  0  0
    7.3510  -12.1380   -8.6790 H   0  0  0  0  0  0  0  0  0  0  0  0
    7.1237  -15.1688   -6.7812 H   0  0  0  0  0  0  0  0  0  0  0  0
    5.7067  -15.4411   -4.7506 H   0  0  0  0  0  0  0  0  0  0  0  0
    1.9114  -14.0056   -5.0551 H   0  0  0  0  0  0  0  0  0  0  0  0
   -0.0175  -16.5837   -1.0831 H   0  0  0  0  0  0  0  0  0  0  0  0
   -2.4294  -17.0218   -0.6420 H   0  0  0  0  0  0  0  0  0  0  0  0
   -3.8717  -15.2446    0.3209 H   0  0  0  0  0  0  0  0  0  0  0  0
   -4.2009  -12.2887    2.7067 H   0  0  0  0  0  0  0  0  0  0  0  0
   -2.8957  -13.5027    2.9270 H   0  0  0  0  0  0  0  0  0  0  0  0
   -2.3242  -11.2577    3.9408 H   0  0  0  0  0  0  0  0  0  0  0  0
   -1.1726  -11.7573    2.6465 H   0  0  0  0  0  0  0  0  0  0  0  0
   -3.4650   -9.8780    2.3280 H   0  0  0  0  0  0  0  0  0  0  0  0
   -1.5563   -8.9808    3.6051 H   0  0  0  0  0  0  0  0  0  0  0  0
   -0.5868   -9.2109    2.1105 H   0  0  0  0  0  0  0  0  0  0  0  0
   -1.9825   -8.0801    2.1105 H   0  0  0  0  0  0  0  0  0  0  0  0
   -2.7802   -9.4667    0.0584 H   0  0  0  0  0  0  0  0  0  0  0  0
   -1.4407  -10.6538    0.2819 H   0  0  0  0  0  0  0  0  0  0  0  0
   -4.4544  -11.2396    0.3934 H   0  0  0  0  0  0  0  0  0  0  0  0
   -3.2966  -11.7581   -0.8841 H   0  0  0  0  0  0  0  0  0  0  0  0
   -0.4792  -12.6031    0.5119 H   0  0  0  0  0  0  0  0  0  0  0  0
    2.2387  -14.2840    1.4500 H   0  0  0  0  0  0  0  0  0  0  0  0
    5.8080  -13.4140   -1.2670 H   0  0  0  0  0  0  0  0  0  0  0  0
    6.2420  -13.5690   -2.9700 H   0  0  0  0  0  0  0  0  0  0  0  0
    3.7099  -11.7157   -5.6416 H   0  0  0  0  0  0  0  0  0  0  0  0
    5.1362  -11.4398   -7.6643 H   0  0  0  0  0  0  0  0  0  0  0  0
  1  2  1  0
  2  3  1  0
  2  4  1  0
  4  5  1  0
  5  6  1  0
  6  7  2  0
  6  8  1  0
  8  9  1  0
  9 10  2  0
 10 11  1  0
 11 12  2  0
 12 13  1  0
 13 14  1  0
 14 15  2  0
 15 16  1  0
 16 17  2  0
 17 18  1  0
 18 19  2  0
 19 20  1  0
 20 21  2  0
 21 22  1  0
 22 23  1  0
 23 24  1  0
 24 25  1  0
 25 26  1  0
 26 27  1  0
 26 28  1  0
 28 29  1  0
 22 30  2  0
 17 31  1  0
 31 32  2  0
 32 33  1  0
 33 34  1  0
 34 35  1  0
 12 36  1  0
 36 37  2  0
 37  9  1  0
 34 13  2  0
 33 16  1  0
 30 18  1  0
 29 23  1  0
  1 38  1  0
  1 39  1  0
  1 40  1  0
  2 41  1  0
  3 42  1  0
  3 43  1  0
  3 44  1  0
  4 45  1  0
  4 46  1  0
  8 47  1  0
 10 48  1  0
 11 49  1  0
 14 50  1  0
 19 51  1  0
 20 52  1  0
 21 53  1  0
 24 54  1  0
 24 55  1  0
 25 56  1  0
 25 57  1  0
 26 58  1  0
 27 59  1  0
 27 60  1  0
 27 61  1  0
 28 62  1  0
 28 63  1  0
 29 64  1  0
 29 65  1  0
 30 66  1  0
 31 67  1  0
 35 68  1  0
 35 69  1  0
 36 70  1  0
 37 71  1  0
M  CHG  1  26   1
M  END
>  <meeko>  (2) 
{"is_sidechain": [false], "free_energy": -8.151, "intermolecular_energy": -12.115, "internal_energy": -0.648}

$$$$
LIB_FLOXVEVSESQZRQ__M_PUB_ALL__e8__s20260927
     RDKit          3D

 71 75  0  0  0  0  0  0  0  0999 V2000
    6.2020   -9.5720  -11.3260 C   0  0  0  0  0  0  0  0  0  0  0  0
    7.3790  -10.4010  -10.8170 C   0  0  0  0  0  0  0  0  0  0  0  0
    8.5930  -10.2160  -11.7300 C   0  0  0  0  0  0  0  0  0  0  0  0
    6.9850  -11.8790  -10.7060 C   0  0  0  0  0  0  0  0  0  0  0  0
    7.6510  -12.4570   -9.5740 O   0  0  0  0  0  0  0  0  0  0  0  0
    6.8520  -13.2120   -8.7730 C   0  0  0  0  0  0  0  0  0  0  0  0
    6.6520  -14.4050   -8.9340 O   0  0  0  0  0  0  0  0  0  0  0  0
    6.3420  -12.3950   -7.8030 N   0  0  0  0  0  0  0  0  0  0  0  0
    5.4780  -12.7280   -6.7470 C   0  0  0  0  0  0  0  0  0  0  0  0
    5.5420  -13.9320   -6.0430 C   0  0  0  0  0  0  0  0  0  0  0  0
    4.6460  -14.1930   -4.9990 C   0  0  0  0  0  0  0  0  0  0  0  0
    3.6730  -13.2530   -4.6430 C   0  0  0  0  0  0  0  0  0  0  0  0
    2.7270  -13.5420   -3.5580 C   0  0  0  0  0  0  0  0  0  0  0  0
    2.9960  -13.0370   -2.1750 C   0  0  0  0  0  0  0  0  0  0  0  0
    2.2620  -13.2060   -1.1160 N   0  0  0  0  0  0  0  0  0  0  0  0
    1.1120  -13.9300   -1.3020 C   0  0  0  0  0  0  0  0  0  0  0  0
    0.0920  -14.3010   -0.4400 C   0  0  0  0  0  0  0  0  0  0  0  0
    0.0070  -13.9650    0.9730 C   0  0  0  0  0  0  0  0  0  0  0  0
   -0.6270  -12.7910    1.3770 C   0  0  0  0  0  0  0  0  0  0  0  0
   -0.7190  -12.4810    2.7310 C   0  0  0  0  0  0  0  0  0  0  0  0
   -0.1640  -13.3370    3.6890 C   0  0  0  0  0  0  0  0  0  0  0  0
    0.5000  -14.5190    3.3290 C   0  0  0  0  0  0  0  0  0  0  0  0
    1.0850  -15.3710    4.2600 N   0  0  0  0  0  0  0  0  0  0  0  0
    0.8040  -15.1650    5.6940 C   0  0  0  0  0  0  0  0  0  0  0  0
   -0.3040  -16.1420    6.1460 C   0  0  0  0  0  0  0  0  0  0  0  0
    0.0950  -17.5900    5.8210 N   0  0  0  0  0  0  0  0  0  0  0  0
   -0.9460  -18.5680    6.2680 C   0  0  0  0  0  0  0  0  0  0  0  0
    0.4350  -17.7510    4.3340 C   0  0  0  0  0  0  0  0  0  0  0  0
    1.5150  -16.7310    3.9140 C   0  0  0  0  0  0  0  0  0  0  0  0
    0.5400  -14.8180    1.9550 C   0  0  0  0  0  0  0  0  0  0  0  0
   -0.8120  -15.0200   -1.2490 C   0  0  0  0  0  0  0  0  0  0  0  0
   -0.4240  -15.1180   -2.5180 N   0  0  0  0  0  0  0  0  0  0  0  0
    0.7640  -14.4450   -2.5610 N   0  0  0  0  0  0  0  0  0  0  0  0
    1.5820  -14.2460   -3.7070 C   0  0  0  0  0  0  0  0  0  0  0  0
    1.1230  -14.7830   -4.8920 N   0  0  0  0  0  0  0  0  0  0  0  0
    3.6090  -12.0470   -5.3480 C   0  0  0  0  0  0  0  0  0  0  0  0
    4.5070  -11.7860   -6.3900 C   0  0  0  0  0  0  0  0  0  0  0  0
    5.6367   -9.1739  -10.4704 H   0  0  0  0  0  0  0  0  0  0  0  0
    6.5779   -8.7382  -11.9371 H   0  0  0  0  0  0  0  0  0  0  0  0
    5.5435  -10.2068  -11.9371 H   0  0  0  0  0  0  0  0  0  0  0  0
    7.6538  -10.0494   -9.8116 H   0  0  0  0  0  0  0  0  0  0  0  0
    9.4956  -10.0785  -11.1165 H   0  0  0  0  0  0  0  0  0  0  0  0
    8.7133  -11.1062  -12.3649 H   0  0  0  0  0  0  0  0  0  0  0  0
    8.4427   -9.3304  -12.3649 H   0  0  0  0  0  0  0  0  0  0  0  0
    5.8960  -11.9614  -10.5747 H   0  0  0  0  0  0  0  0  0  0  0  0
    7.2798  -12.4117  -11.6221 H   0  0  0  0  0  0  0  0  0  0  0  0
    6.6470  -11.4360   -7.8900 H   0  0  0  0  0  0  0  0  0  0  0  0
    6.3019  -14.6811   -6.3104 H   0  0  0  0  0  0  0  0  0  0  0  0
    4.7078  -15.1463   -4.4536 H   0  0  0  0  0  0  0  0  0  0  0  0
    3.9205  -12.4566   -2.0395 H   0  0  0  0  0  0  0  0  0  0  0  0
   -1.0543  -12.1100    0.6263 H   0  0  0  0  0  0  0  0  0  0  0  0
   -1.2297  -11.5601    3.0490 H   0  0  0  0  0  0  0  0  0  0  0  0
   -0.2509  -13.0756    4.7540 H   0  0  0  0  0  0  0  0  0  0  0  0
    1.7178  -15.3513    6.2774 H   0  0  0  0  0  0  0  0  0  0  0  0
    0.4698  -14.1298    5.8576 H   0  0  0  0  0  0  0  0  0  0  0  0
   -0.4550  -16.0422    7.2310 H   0  0  0  0  0  0  0  0  0  0  0  0
   -1.2343  -15.8992    5.6116 H   0  0  0  0  0  0  0  0  0  0  0  0
    0.9560  -17.7840    6.3470 H   0  0  0  0  0  0  0  0  0  0  0  0
   -0.9753  -18.5955    7.3673 H   0  0  0  0  0  0  0  0  0  0  0  0
   -1.9289  -18.2591    5.8826 H   0  0  0  0  0  0  0  0  0  0  0  0
   -0.6989  -19.5682    5.8826 H   0  0  0  0  0  0  0  0  0  0  0  0
    0.8103  -18.7696    4.1565 H   0  0  0  0  0  0  0  0  0  0  0  0
   -0.4733  -17.5732    3.7396 H   0  0  0  0  0  0  0  0  0  0  0  0
    2.4550  -16.9598    4.4376 H   0  0  0  0  0  0  0  0  0  0  0  0
    1.6676  -16.7950    2.8265 H   0  0  0  0  0  0  0  0  0  0  0  0
    1.0088  -15.7603    1.6351 H   0  0  0  0  0  0  0  0  0  0  0  0
   -1.7468  -15.4572   -0.8681 H   0  0  0  0  0  0  0  0  0  0  0  0
    1.2120  -15.7690   -5.0990 H   0  0  0  0  0  0  0  0  0  0  0  0
    0.8110  -14.1300   -5.6110 H   0  0  0  0  0  0  0  0  0  0  0  0
    2.8481  -11.2984   -5.0821 H   0  0  0  0  0  0  0  0  0  0  0  0
    4.4486  -10.8312   -6.9332 H   0  0  0  0  0  0  0  0  0  0  0  0
  1  2  1  0
  2  3  1  0
  2  4  1  0
  4  5  1  0
  5  6  1  0
  6  7  2  0
  6  8  1  0
  8  9  1  0
  9 10  2  0
 10 11  1  0
 11 12  2  0
 12 13  1  0
 13 14  1  0
 14 15  2  0
 15 16  1  0
 16 17  2  0
 17 18  1  0
 18 19  2  0
 19 20  1  0
 20 21  2  0
 21 22  1  0
 22 23  1  0
 23 24  1  0
 24 25  1  0
 25 26  1  0
 26 27  1  0
 26 28  1  0
 28 29  1  0
 22 30  2  0
 17 31  1  0
 31 32  2  0
 32 33  1  0
 33 34  1  0
 34 35  1  0
 12 36  1  0
 36 37  2  0
 37  9  1  0
 34 13  2  0
 33 16  1  0
 30 18  1  0
 29 23  1  0
  1 38  1  0
  1 39  1  0
  1 40  1  0
  2 41  1  0
  3 42  1  0
  3 43  1  0
  3 44  1  0
  4 45  1  0
  4 46  1  0
  8 47  1  0
 10 48  1  0
 11 49  1  0
 14 50  1  0
 19 51  1  0
 20 52  1  0
 21 53  1  0
 24 54  1  0
 24 55  1  0
 25 56  1  0
 25 57  1  0
 26 58  1  0
 27 59  1  0
 27 60  1  0
 27 61  1  0
 28 62  1  0
 28 63  1  0
 29 64  1  0
 29 65  1  0
 30 66  1  0
 31 67  1  0
 35 68  1  0
 35 69  1  0
 36 70  1  0
 37 71  1  0
M  CHG  1  26   1
M  END
>  <meeko>  (3) 
{"is_sidechain": [false], "free_energy": -7.9, "intermolecular_energy": -11.561, "internal_energy": -0.841}

$$$$
LIB_FLOXVEVSESQZRQ__M_PUB_ALL__e8__s20260927
     RDKit          3D

 71 75  0  0  0  0  0  0  0  0999 V2000
    8.5970  -10.6540  -11.6490 C   0  0  0  0  0  0  0  0  0  0  0  0
    8.7230  -12.1120  -11.2120 C   0  0  0  0  0  0  0  0  0  0  0  0
    9.6000  -12.8880  -12.1970 C   0  0  0  0  0  0  0  0  0  0  0  0
    7.3370  -12.7520  -11.0740 C   0  0  0  0  0  0  0  0  0  0  0  0
    7.4930  -14.1340  -10.7180 O   0  0  0  0  0  0  0  0  0  0  0  0
    7.0470  -14.4510   -9.4730 C   0  0  0  0  0  0  0  0  0  0  0  0
    7.1150  -15.5680   -8.9850 O   0  0  0  0  0  0  0  0  0  0  0  0
    6.5290  -13.3170   -8.9140 N   0  0  0  0  0  0  0  0  0  0  0  0
    5.9640  -13.1520   -7.6390 C   0  0  0  0  0  0  0  0  0  0  0  0
    6.1350  -14.0580   -6.5910 C   0  0  0  0  0  0  0  0  0  0  0  0
    5.5410  -13.8240   -5.3450 C   0  0  0  0  0  0  0  0  0  0  0  0
    4.7660  -12.6810   -5.1280 C   0  0  0  0  0  0  0  0  0  0  0  0
    4.1310  -12.4530   -3.8240 C   0  0  0  0  0  0  0  0  0  0  0  0
    2.7150  -11.9710   -3.7540 C   0  0  0  0  0  0  0  0  0  0  0  0
    2.0170  -11.7240   -2.6850 N   0  0  0  0  0  0  0  0  0  0  0  0
    2.6630  -11.9360   -1.4940 C   0  0  0  0  0  0  0  0  0  0  0  0
    2.2590  -11.8020   -0.1760 C   0  0  0  0  0  0  0  0  0  0  0  0
    0.9410  -11.3790    0.2710 C   0  0  0  0  0  0  0  0  0  0  0  0
    0.7490  -10.0870    0.7630 C   0  0  0  0  0  0  0  0  0  0  0  0
   -0.5160   -9.6810    1.1750 C   0  0  0  0  0  0  0  0  0  0  0  0
   -1.5970  -10.5680    1.1130 C   0  0  0  0  0  0  0  0  0  0  0  0
   -1.4480  -11.8820    0.6460 C   0  0  0  0  0  0  0  0  0  0  0  0
   -2.5000  -12.7920    0.6020 N   0  0  0  0  0  0  0  0  0  0  0  0
   -2.2170  -14.1980    0.2560 C   0  0  0  0  0  0  0  0  0  0  0  0
   -2.1220  -15.0360    1.5500 C   0  0  0  0  0  0  0  0  0  0  0  0
   -3.4010  -14.8770    2.3860 N   0  0  0  0  0  0  0  0  0  0  0  0
   -3.3550  -15.6960    3.6370 C   0  0  0  0  0  0  0  0  0  0  0  0
   -3.6940  -13.3990    2.6750 C   0  0  0  0  0  0  0  0  0  0  0  0
   -3.7410  -12.5900    1.3610 C   0  0  0  0  0  0  0  0  0  0  0  0
   -0.1630  -12.2450    0.2010 C   0  0  0  0  0  0  0  0  0  0  0  0
    3.3810  -12.1940    0.5820 C   0  0  0  0  0  0  0  0  0  0  0  0
    4.4260  -12.5470   -0.1640 N   0  0  0  0  0  0  0  0  0  0  0  0
    3.9900  -12.3920   -1.4490 N   0  0  0  0  0  0  0  0  0  0  0  0
    4.7350  -12.6570   -2.6310 C   0  0  0  0  0  0  0  0  0  0  0  0
    6.0220  -13.1220   -2.4580 N   0  0  0  0  0  0  0  0  0  0  0  0
    4.5930  -11.7730   -6.1790 C   0  0  0  0  0  0  0  0  0  0  0  0
    5.1900  -12.0060   -7.4220 C   0  0  0  0  0  0  0  0  0  0  0  0
    8.5412  -10.0083  -10.7602 H   0  0  0  0  0  0  0  0  0  0  0  0
    9.4743  -10.3745  -12.2508 H   0  0  0  0  0  0  0  0  0  0  0  0
    7.6847  -10.5291  -12.2508 H   0  0  0  0  0  0  0  0  0  0  0  0
    9.2087  -12.1472  -10.2257 H   0  0  0  0  0  0  0  0  0  0  0  0
   10.3101  -13.5163  -11.6394 H   0  0  0  0  0  0  0  0  0  0  0  0
    8.9650  -13.5254  -12.8299 H   0  0  0  0  0  0  0  0  0  0  0  0
   10.1553  -12.1801  -12.8299 H   0  0  0  0  0  0  0  0  0  0  0  0
    6.7669  -12.2315  -10.2904 H   0  0  0  0  0  0  0  0  0  0  0  0
    6.7949  -12.6731  -12.0279 H   0  0  0  0  0  0  0  0  0  0  0  0
    6.5750  -12.5150   -9.5260 H   0  0  0  0  0  0  0  0  0  0  0  0
    6.7412  -14.9629   -6.7453 H   0  0  0  0  0  0  0  0  0  0  0  0
    5.6856  -14.5468   -4.5286 H   0  0  0  0  0  0  0  0  0  0  0  0
    2.2076  -11.8073   -4.7162 H   0  0  0  0  0  0  0  0  0  0  0  0
    1.5978   -9.3901    0.8249 H   0  0  0  0  0  0  0  0  0  0  0  0
   -0.6675   -8.6585    1.5512 H   0  0  0  0  0  0  0  0  0  0  0  0
   -2.5900  -10.2253    1.4393 H   0  0  0  0  0  0  0  0  0  0  0  0
   -3.0268  -14.5904   -0.3766 H   0  0  0  0  0  0  0  0  0  0  0  0
   -1.2643  -14.2571   -0.2906 H   0  0  0  0  0  0  0  0  0  0  0  0
   -1.9906  -16.0959    1.2866 H   0  0  0  0  0  0  0  0  0  0  0  0
   -1.2635  -14.6841    2.1408 H   0  0  0  0  0  0  0  0  0  0  0  0
   -4.1760  -15.2260    1.8080 H   0  0  0  0  0  0  0  0  0  0  0  0
   -3.3924  -15.0308    4.5123 H   0  0  0  0  0  0  0  0  0  0  0  0
   -4.2161  -16.3801    3.6593 H   0  0  0  0  0  0  0  0  0  0  0  0
   -2.4227  -16.2793    3.6593 H   0  0  0  0  0  0  0  0  0  0  0  0
   -4.6644  -13.3156    3.1863 H   0  0  0  0  0  0  0  0  0  0  0  0
   -2.8934  -12.9957    3.3126 H   0  0  0  0  0  0  0  0  0  0  0  0
   -4.5964  -12.9262    0.7567 H   0  0  0  0  0  0  0  0  0  0  0  0
   -3.8490  -11.5214    1.5986 H   0  0  0  0  0  0  0  0  0  0  0  0
   -0.0168  -13.2507   -0.2200 H   0  0  0  0  0  0  0  0  0  0  0  0
    3.3922  -12.2070    1.6819 H   0  0  0  0  0  0  0  0  0  0  0  0
    6.2380  -13.8590   -1.7990 H   0  0  0  0  0  0  0  0  0  0  0  0
    6.7710  -12.6070   -2.9210 H   0  0  0  0  0  0  0  0  0  0  0  0
    3.9834  -10.8702   -6.0263 H   0  0  0  0  0  0  0  0  0  0  0  0
    5.0499  -11.2813   -8.2376 H   0  0  0  0  0  0  0  0  0  0  0  0
  1  2  1  0
  2  3  1  0
  2  4  1  0
  4  5  1  0
  5  6  1  0
  6  7  2  0
  6  8  1  0
  8  9  1  0
  9 10  2  0
 10 11  1  0
 11 12  2  0
 12 13  1  0
 13 14  1  0
 14 15  2  0
 15 16  1  0
 16 17  2  0
 17 18  1  0
 18 19  2  0
 19 20  1  0
 20 21  2  0
 21 22  1  0
 22 23  1  0
 23 24  1  0
 24 25  1  0
 25 26  1  0
 26 27  1  0
 26 28  1  0
 28 29  1  0
 22 30  2  0
 17 31  1  0
 31 32  2  0
 32 33  1  0
 33 34  1  0
 34 35  1  0
 12 36  1  0
 36 37  2  0
 37  9  1  0
 34 13  2  0
 33 16  1  0
 30 18  1  0
 29 23  1  0
  1 38  1  0
  1 39  1  0
  1 40  1  0
  2 41  1  0
  3 42  1  0
  3 43  1  0
  3 44  1  0
  4 45  1  0
  4 46  1  0
  8 47  1  0
 10 48  1  0
 11 49  1  0
 14 50  1  0
 19 51  1  0
 20 52  1  0
 21 53  1  0
 24 54  1  0
 24 55  1  0
 25 56  1  0
 25 57  1  0
 26 58  1  0
 27 59  1  0
 27 60  1  0
 27 61  1  0
 28 62  1  0
 28 63  1  0
 29 64  1  0
 29 65  1  0
 30 66  1  0
 31 67  1  0
 35 68  1  0
 35 69  1  0
 36 70  1  0
 37 71  1  0
M  CHG  1  26   1
M  END
>  <meeko>  (4) 
{"is_sidechain": [false], "free_energy": -7.679, "intermolecular_energy": -11.796, "internal_energy": -0.288}

$$$$
LIB_FLOXVEVSESQZRQ__M_PUB_ALL__e8__s20260927
     RDKit          3D

 71 75  0  0  0  0  0  0  0  0999 V2000
   -3.8230  -11.4760   -0.0620 C   0  0  0  0  0  0  0  0  0  0  0  0
   -3.1000  -12.4030    0.9130 C   0  0  0  0  0  0  0  0  0  0  0  0
   -3.9310  -12.5890    2.1840 C   0  0  0  0  0  0  0  0  0  0  0  0
   -1.7030  -11.8580    1.2340 C   0  0  0  0  0  0  0  0  0  0  0  0
   -0.8110  -12.1960    0.1620 O   0  0  0  0  0  0  0  0  0  0  0  0
    0.4670  -11.7600    0.3320 C   0  0  0  0  0  0  0  0  0  0  0  0
    0.7760  -10.8000    1.0190 O   0  0  0  0  0  0  0  0  0  0  0  0
    1.2870  -12.5770   -0.3930 N   0  0  0  0  0  0  0  0  0  0  0  0
    2.6850  -12.5250   -0.5160 C   0  0  0  0  0  0  0  0  0  0  0  0
    3.3490  -11.8690   -1.5540 C   0  0  0  0  0  0  0  0  0  0  0  0
    4.7480  -11.8590   -1.6090 C   0  0  0  0  0  0  0  0  0  0  0  0
    5.5040  -12.5040   -0.6250 C   0  0  0  0  0  0  0  0  0  0  0  0
    6.9700  -12.5030   -0.7000 C   0  0  0  0  0  0  0  0  0  0  0  0
    7.6530  -12.6750   -2.0210 C   0  0  0  0  0  0  0  0  0  0  0  0
    8.9320  -12.6960   -2.2530 N   0  0  0  0  0  0  0  0  0  0  0  0
    9.7350  -12.5390   -1.1530 C   0  0  0  0  0  0  0  0  0  0  0  0
   11.1120  -12.4930   -1.0000 C   0  0  0  0  0  0  0  0  0  0  0  0
   12.0910  -12.6020   -2.0710 C   0  0  0  0  0  0  0  0  0  0  0  0
   13.1510  -11.7000   -2.1450 C   0  0  0  0  0  0  0  0  0  0  0  0
   14.0950  -11.8180   -3.1620 C   0  0  0  0  0  0  0  0  0  0  0  0
   13.9740  -12.8290   -4.1210 C   0  0  0  0  0  0  0  0  0  0  0  0
   12.9140  -13.7470   -4.0990 C   0  0  0  0  0  0  0  0  0  0  0  0
   12.7570  -14.7430   -5.0570 N   0  0  0  0  0  0  0  0  0  0  0  0
   11.7550  -14.5580   -6.1250 C   0  0  0  0  0  0  0  0  0  0  0  0
   12.4560  -14.0470   -7.4030 C   0  0  0  0  0  0  0  0  0  0  0  0
   13.5880  -15.0010   -7.8110 N   0  0  0  0  0  0  0  0  0  0  0  0
   14.2740  -14.5490   -9.0620 C   0  0  0  0  0  0  0  0  0  0  0  0
   14.5770  -15.2140   -6.6580 C   0  0  0  0  0  0  0  0  0  0  0  0
   13.8330  -15.6860   -5.3900 C   0  0  0  0  0  0  0  0  0  0  0  0
   12.0020  -13.6220   -3.0350 C   0  0  0  0  0  0  0  0  0  0  0  0
   11.3100  -12.2900    0.3810 C   0  0  0  0  0  0  0  0  0  0  0  0
   10.1750  -12.2140    1.0720 N   0  0  0  0  0  0  0  0  0  0  0  0
    9.1960  -12.3660    0.1320 N   0  0  0  0  0  0  0  0  0  0  0  0
    7.7930  -12.3440    0.3620 C   0  0  0  0  0  0  0  0  0  0  0  0
    7.3840  -12.1450    1.6650 N   0  0  0  0  0  0  0  0  0  0  0  0
    4.8390  -13.1610    0.4160 C   0  0  0  0  0  0  0  0  0  0  0  0
    3.4410  -13.1680    0.4700 C   0  0  0  0  0  0  0  0  0  0  0  0
   -4.4037  -10.7314    0.5022 H   0  0  0  0  0  0  0  0  0  0  0  0
   -3.0848  -10.9621   -0.6952 H   0  0  0  0  0  0  0  0  0  0  0  0
   -4.5012  -12.0668   -0.6952 H   0  0  0  0  0  0  0  0  0  0  0  0
   -2.9762  -13.3892    0.4418 H   0  0  0  0  0  0  0  0  0  0  0  0
   -3.2894  -12.4454    3.0659 H   0  0  0  0  0  0  0  0  0  0  0  0
   -4.7467  -11.8512    2.2000 H   0  0  0  0  0  0  0  0  0  0  0  0
   -4.3544  -13.6041    2.2000 H   0  0  0  0  0  0  0  0  0  0  0  0
   -1.7501  -10.7645    1.3434 H   0  0  0  0  0  0  0  0  0  0  0  0
   -1.3389  -12.2999    2.1732 H   0  0  0  0  0  0  0  0  0  0  0  0
    0.7880  -13.2990   -0.8940 H   0  0  0  0  0  0  0  0  0  0  0  0
    2.7685  -11.3559   -2.3349 H   0  0  0  0  0  0  0  0  0  0  0  0
    5.2572  -11.3390   -2.4338 H   0  0  0  0  0  0  0  0  0  0  0  0
    6.9974  -12.7977   -2.8957 H   0  0  0  0  0  0  0  0  0  0  0  0
   13.2419  -10.8954   -1.4005 H   0  0  0  0  0  0  0  0  0  0  0  0
   14.9386  -11.1138   -3.2113 H   0  0  0  0  0  0  0  0  0  0  0  0
   14.7316  -12.9062   -4.9148 H   0  0  0  0  0  0  0  0  0  0  0  0
   11.2618  -15.5184   -6.3359 H   0  0  0  0  0  0  0  0  0  0  0  0
   11.0027  -13.8242   -5.8000 H   0  0  0  0  0  0  0  0  0  0  0  0
   11.7214  -13.9861   -8.2195 H   0  0  0  0  0  0  0  0  0  0  0  0
   12.8822  -13.0529   -7.2028 H   0  0  0  0  0  0  0  0  0  0  0  0
   13.1520  -15.9120   -8.0020 H   0  0  0  0  0  0  0  0  0  0  0  0
   15.1659  -13.9613   -8.7992 H   0  0  0  0  0  0  0  0  0  0  0  0
   14.5743  -15.4267   -9.6531 H   0  0  0  0  0  0  0  0  0  0  0  0
   13.5860  -13.9268   -9.6531 H   0  0  0  0  0  0  0  0  0  0  0  0
   15.3150  -15.9757   -6.9497 H   0  0  0  0  0  0  0  0  0  0  0  0
   15.0822  -14.2613   -6.4411 H   0  0  0  0  0  0  0  0  0  0  0  0
   13.4016  -16.6816   -5.5705 H   0  0  0  0  0  0  0  0  0  0  0  0
   14.5435  -15.7330   -4.5516 H   0  0  0  0  0  0  0  0  0  0  0  0
   11.1844  -14.3534   -2.9537 H   0  0  0  0  0  0  0  0  0  0  0  0
   12.3049  -12.2030    0.8422 H   0  0  0  0  0  0  0  0  0  0  0  0
    7.8010  -12.6510    2.4360 H   0  0  0  0  0  0  0  0  0  0  0  0
    6.5560  -11.5690    1.8120 H   0  0  0  0  0  0  0  0  0  0  0  0
    5.4188  -13.6751    1.1967 H   0  0  0  0  0  0  0  0  0  0  0  0
    2.9309  -13.6845    1.2964 H   0  0  0  0  0  0  0  0  0  0  0  0
  1  2  1  0
  2  3  1  0
  2  4  1  0
  4  5  1  0
  5  6  1  0
  6  7  2  0
  6  8  1  0
  8  9  1  0
  9 10  2  0
 10 11  1  0
 11 12  2  0
 12 13  1  0
 13 14  1  0
 14 15  2  0
 15 16  1  0
 16 17  2  0
 17 18  1  0
 18 19  2  0
 19 20  1  0
 20 21  2  0
 21 22  1  0
 22 23  1  0
 23 24  1  0
 24 25  1  0
 25 26  1  0
 26 27  1  0
 26 28  1  0
 28 29  1  0
 22 30  2  0
 17 31  1  0
 31 32  2  0
 32 33  1  0
 33 34  1  0
 34 35  1  0
 12 36  1  0
 36 37  2  0
 37  9  1  0
 34 13  2  0
 33 16  1  0
 30 18  1  0
 29 23  1  0
  1 38  1  0
  1 39  1  0
  1 40  1  0
  2 41  1  0
  3 42  1  0
  3 43  1  0
  3 44  1  0
  4 45  1  0
  4 46  1  0
  8 47  1  0
 10 48  1  0
 11 49  1  0
 14 50  1  0
 19 51  1  0
 20 52  1  0
 21 53  1  0
 24 54  1  0
 24 55  1  0
 25 56  1  0
 25 57  1  0
 26 58  1  0
 27 59  1  0
 27 60  1  0
 27 61  1  0
 28 62  1  0
 28 63  1  0
 29 64  1  0
 29 65  1  0
 30 66  1  0
 31 67  1  0
 35 68  1  0
 35 69  1  0
 36 70  1  0
 37 71  1  0
M  CHG  1  26   1
M  END
>  <meeko>  (5) 
{"is_sidechain": [false], "free_energy": -7.634, "intermolecular_energy": -11.626, "internal_energy": -0.394}

$$$$
LIB_FLOXVEVSESQZRQ__M_PUB_ALL__e8__s20260927
     RDKit          3D

 71 75  0  0  0  0  0  0  0  0999 V2000
   -2.4950  -11.1950    1.4210 C   0  0  0  0  0  0  0  0  0  0  0  0
   -2.7320  -12.3730    0.4790 C   0  0  0  0  0  0  0  0  0  0  0  0
   -4.1980  -12.8100    0.5340 C   0  0  0  0  0  0  0  0  0  0  0  0
   -1.7910  -13.5330    0.8260 C   0  0  0  0  0  0  0  0  0  0  0  0
   -0.7720  -13.6260   -0.1810 O   0  0  0  0  0  0  0  0  0  0  0  0
    0.4780  -13.3060    0.2510 C   0  0  0  0  0  0  0  0  0  0  0  0
    0.7170  -12.7750    1.3240 O   0  0  0  0  0  0  0  0  0  0  0  0
    1.3640  -13.6800   -0.7200 N   0  0  0  0  0  0  0  0  0  0  0  0
    2.7630  -13.5620   -0.7170 C   0  0  0  0  0  0  0  0  0  0  0  0
    3.6310  -14.6250   -0.4610 C   0  0  0  0  0  0  0  0  0  0  0  0
    5.0170  -14.4310   -0.4770 C   0  0  0  0  0  0  0  0  0  0  0  0
    5.5570  -13.1700   -0.7510 C   0  0  0  0  0  0  0  0  0  0  0  0
    7.0120  -12.9720   -0.7480 C   0  0  0  0  0  0  0  0  0  0  0  0
    7.8030  -13.2130   -1.9970 C   0  0  0  0  0  0  0  0  0  0  0  0
    9.0860  -13.0820   -2.1560 N   0  0  0  0  0  0  0  0  0  0  0  0
    9.7820  -12.6750   -1.0470 C   0  0  0  0  0  0  0  0  0  0  0  0
   11.1250  -12.4150   -0.8300 C   0  0  0  0  0  0  0  0  0  0  0  0
   12.1830  -12.5210   -1.8230 C   0  0  0  0  0  0  0  0  0  0  0  0
   13.1130  -11.4910   -1.9690 C   0  0  0  0  0  0  0  0  0  0  0  0
   14.1330  -11.6030   -2.9100 C   0  0  0  0  0  0  0  0  0  0  0  0
   14.2200  -12.7390   -3.7230 C   0  0  0  0  0  0  0  0  0  0  0  0
   13.2970  -13.7900   -3.6260 C   0  0  0  0  0  0  0  0  0  0  0  0
   13.3460  -14.9160   -4.4420 N   0  0  0  0  0  0  0  0  0  0  0  0
   13.8740  -16.1780   -3.8900 C   0  0  0  0  0  0  0  0  0  0  0  0
   12.6970  -17.0800   -3.4570 C   0  0  0  0  0  0  0  0  0  0  0  0
   11.7340  -17.3050   -4.6320 N   0  0  0  0  0  0  0  0  0  0  0  0
   10.5930  -18.1970   -4.2550 C   0  0  0  0  0  0  0  0  0  0  0  0
   11.2530  -15.9700   -5.2170 C   0  0  0  0  0  0  0  0  0  0  0  0
   12.4570  -15.0830   -5.5990 C   0  0  0  0  0  0  0  0  0  0  0  0
   12.3040  -13.6600   -2.6380 C   0  0  0  0  0  0  0  0  0  0  0  0
   11.1970  -12.0120    0.5190 C   0  0  0  0  0  0  0  0  0  0  0  0
   10.0160  -12.0100    1.1330 N   0  0  0  0  0  0  0  0  0  0  0  0
    9.1350  -12.4170    0.1730 N   0  0  0  0  0  0  0  0  0  0  0  0
    7.7290  -12.5650    0.3230 C   0  0  0  0  0  0  0  0  0  0  0  0
    7.2060  -12.2610    1.5640 N   0  0  0  0  0  0  0  0  0  0  0  0
    4.6880  -12.1040   -1.0070 C   0  0  0  0  0  0  0  0  0  0  0  0
    3.3020  -12.3010   -0.9930 C   0  0  0  0  0  0  0  0  0  0  0  0
   -2.5643  -11.5394    2.4634 H   0  0  0  0  0  0  0  0  0  0  0  0
   -1.4945  -10.7756    1.2391 H   0  0  0  0  0  0  0  0  0  0  0  0
   -3.2555  -10.4213    1.2391 H   0  0  0  0  0  0  0  0  0  0  0  0
   -2.5108  -12.0562   -0.5509 H   0  0  0  0  0  0  0  0  0  0  0  0
   -4.5134  -12.9040    1.5836 H   0  0  0  0  0  0  0  0  0  0  0  0
   -4.8236  -12.0593    0.0290 H   0  0  0  0  0  0  0  0  0  0  0  0
   -4.3104  -13.7807    0.0290 H   0  0  0  0  0  0  0  0  0  0  0  0
   -1.3256  -13.3498    1.8057 H   0  0  0  0  0  0  0  0  0  0  0  0
   -2.3600  -14.4735    0.8666 H   0  0  0  0  0  0  0  0  0  0  0  0
    0.9180  -14.0900   -1.5290 H   0  0  0  0  0  0  0  0  0  0  0  0
    3.2223  -15.6231   -0.2450 H   0  0  0  0  0  0  0  0  0  0  0  0
    5.6881  -15.2782   -0.2722 H   0  0  0  0  0  0  0  0  0  0  0  0
    7.2330  -13.5378   -2.8800 H   0  0  0  0  0  0  0  0  0  0  0  0
   13.0403  -10.5909   -1.3409 H   0  0  0  0  0  0  0  0  0  0  0  0
   14.8730  -10.7959   -3.0149 H   0  0  0  0  0  0  0  0  0  0  0  0
   15.0350  -12.8092   -4.4584 H   0  0  0  0  0  0  0  0  0  0  0  0
   14.4689  -16.6941   -4.6579 H   0  0  0  0  0  0  0  0  0  0  0  0
   14.5104  -15.9608   -3.0195 H   0  0  0  0  0  0  0  0  0  0  0  0
   13.0894  -18.0505   -3.1191 H   0  0  0  0  0  0  0  0  0  0  0  0
   12.1520  -16.5868   -2.6386 H   0  0  0  0  0  0  0  0  0  0  0  0
   12.2730  -17.7760   -5.3700 H   0  0  0  0  0  0  0  0  0  0  0  0
   10.5193  -18.2546   -3.1590 H   0  0  0  0  0  0  0  0  0  0  0  0
    9.6574  -17.7884   -4.6645 H   0  0  0  0  0  0  0  0  0  0  0  0
   10.7637  -19.2036   -4.6645 H   0  0  0  0  0  0  0  0  0  0  0  0
   10.6477  -16.1650   -6.1145 H   0  0  0  0  0  0  0  0  0  0  0  0
   10.6506  -15.4461   -4.4603 H   0  0  0  0  0  0  0  0  0  0  0  0
   13.0135  -15.5584   -6.4202 H   0  0  0  0  0  0  0  0  0  0  0  0
   12.0910  -14.0960   -5.9181 H   0  0  0  0  0  0  0  0  0  0  0  0
   11.5911  -14.4857   -2.4970 H   0  0  0  0  0  0  0  0  0  0  0  0
   12.1365  -11.7273    1.0152 H   0  0  0  0  0  0  0  0  0  0  0  0
    6.2200  -12.0750    1.6950 H   0  0  0  0  0  0  0  0  0  0  0  0
    7.8680  -12.1000    2.3230 H   0  0  0  0  0  0  0  0  0  0  0  0
    5.0961  -11.1051   -1.2206 H   0  0  0  0  0  0  0  0  0  0  0  0
    2.6299  -11.4555   -1.2012 H   0  0  0  0  0  0  0  0  0  0  0  0
  1  2  1  0
  2  3  1  0
  2  4  1  0
  4  5  1  0
  5  6  1  0
  6  7  2  0
  6  8  1  0
  8  9  1  0
  9 10  2  0
 10 11  1  0
 11 12  2  0
 12 13  1  0
 13 14  1  0
 14 15  2  0
 15 16  1  0
 16 17  2  0
 17 18  1  0
 18 19  2  0
 19 20  1  0
 20 21  2  0
 21 22  1  0
 22 23  1  0
 23 24  1  0
 24 25  1  0
 25 26  1  0
 26 27  1  0
 26 28  1  0
 28 29  1  0
 22 30  2  0
 17 31  1  0
 31 32  2  0
 32 33  1  0
 33 34  1  0
 34 35  1  0
 12 36  1  0
 36 37  2  0
 37  9  1  0
 34 13  2  0
 33 16  1  0
 30 18  1  0
 29 23  1  0
  1 38  1  0
  1 39  1  0
  1 40  1  0
  2 41  1  0
  3 42  1  0
  3 43  1  0
  3 44  1  0
  4 45  1  0
  4 46  1  0
  8 47  1  0
 10 48  1  0
 11 49  1  0
 14 50  1  0
 19 51  1  0
 20 52  1  0
 21 53  1  0
 24 54  1  0
 24 55  1  0
 25 56  1  0
 25 57  1  0
 26 58  1  0
 27 59  1  0
 27 60  1  0
 27 61  1  0
 28 62  1  0
 28 63  1  0
 29 64  1  0
 29 65  1  0
 30 66  1  0
 31 67  1  0
 35 68  1  0
 35 69  1  0
 36 70  1  0
 37 71  1  0
M  CHG  1  26   1
M  END
>  <meeko>  (6) 
{"is_sidechain": [false], "free_energy": -7.627, "intermolecular_energy": -11.031, "internal_energy": -0.978}

$$$$
LIB_FLOXVEVSESQZRQ__M_PUB_ALL__e8__s20260927
     RDKit          3D

 71 75  0  0  0  0  0  0  0  0999 V2000
    6.4270   -9.9200  -11.1060 C   0  0  0  0  0  0  0  0  0  0  0  0
    7.8230  -10.5130  -10.9300 C   0  0  0  0  0  0  0  0  0  0  0  0
    8.7950   -9.8910  -11.9340 C   0  0  0  0  0  0  0  0  0  0  0  0
    7.7780  -12.0400  -11.0690 C   0  0  0  0  0  0  0  0  0  0  0  0
    7.9940  -12.6340   -9.7800 O   0  0  0  0  0  0  0  0  0  0  0  0
    6.8810  -13.1740   -9.2150 C   0  0  0  0  0  0  0  0  0  0  0  0
    6.0440  -13.8180   -9.8280 O   0  0  0  0  0  0  0  0  0  0  0  0
    6.8920  -12.8560   -7.8860 N   0  0  0  0  0  0  0  0  0  0  0  0
    5.9570  -13.2040   -6.8970 C   0  0  0  0  0  0  0  0  0  0  0  0
    6.0410  -14.3620   -6.1230 C   0  0  0  0  0  0  0  0  0  0  0  0
    5.0700  -14.6410   -5.1540 C   0  0  0  0  0  0  0  0  0  0  0  0
    4.0000  -13.7650   -4.9440 C   0  0  0  0  0  0  0  0  0  0  0  0
    2.9760  -14.0750   -3.9380 C   0  0  0  0  0  0  0  0  0  0  0  0
    3.2880  -13.9220   -2.4810 C   0  0  0  0  0  0  0  0  0  0  0  0
    2.4970  -14.1530   -1.4760 N   0  0  0  0  0  0  0  0  0  0  0  0
    1.2370  -14.5840   -1.8010 C   0  0  0  0  0  0  0  0  0  0  0  0
    0.1340  -14.9110   -1.0300 C   0  0  0  0  0  0  0  0  0  0  0  0
    0.0640  -14.8580    0.4220 C   0  0  0  0  0  0  0  0  0  0  0  0
    0.8200  -15.7420    1.1930 C   0  0  0  0  0  0  0  0  0  0  0  0
    0.7630  -15.6760    2.5820 C   0  0  0  0  0  0  0  0  0  0  0  0
   -0.0630  -14.7370    3.2110 C   0  0  0  0  0  0  0  0  0  0  0  0
   -0.8560  -13.8420    2.4780 C   0  0  0  0  0  0  0  0  0  0  0  0
   -1.7060  -12.9190    3.0780 N   0  0  0  0  0  0  0  0  0  0  0  0
   -1.1220  -11.7840    3.8180 C   0  0  0  0  0  0  0  0  0  0  0  0
   -1.1140  -10.5320    2.9140 C   0  0  0  0  0  0  0  0  0  0  0  0
   -2.5290  -10.2360    2.3950 N   0  0  0  0  0  0  0  0  0  0  0  0
   -2.5630   -9.0130    1.5340 C   0  0  0  0  0  0  0  0  0  0  0  0
   -3.1250  -11.4580    1.6830 C   0  0  0  0  0  0  0  0  0  0  0  0
   -3.0780  -12.6960    2.6050 C   0  0  0  0  0  0  0  0  0  0  0  0
   -0.7430  -13.9110    1.0760 C   0  0  0  0  0  0  0  0  0  0  0  0
   -0.8630  -15.2600   -1.9640 C   0  0  0  0  0  0  0  0  0  0  0  0
   -0.4560  -15.1750   -3.2280 N   0  0  0  0  0  0  0  0  0  0  0  0
    0.8410  -14.7550   -3.1370 N   0  0  0  0  0  0  0  0  0  0  0  0
    1.7230  -14.4950   -4.2220 C   0  0  0  0  0  0  0  0  0  0  0  0
    1.2120  -14.6800   -5.4900 N   0  0  0  0  0  0  0  0  0  0  0  0
    3.9150  -12.6050   -5.7210 C   0  0  0  0  0  0  0  0  0  0  0  0
    4.8870  -12.3260   -6.6870 C   0  0  0  0  0  0  0  0  0  0  0  0
    5.9817   -9.7309  -10.1181 H   0  0  0  0  0  0  0  0  0  0  0  0
    6.4979   -8.9743  -11.6634 H   0  0  0  0  0  0  0  0  0  0  0  0
    5.7956  -10.6276  -11.6634 H   0  0  0  0  0  0  0  0  0  0  0  0
    8.1846  -10.2778   -9.9181 H   0  0  0  0  0  0  0  0  0  0  0  0
    9.6014   -9.3750  -11.3923 H   0  0  0  0  0  0  0  0  0  0  0  0
    9.2254  -10.6819  -12.5659 H   0  0  0  0  0  0  0  0  0  0  0  0
    8.2572   -9.1688  -12.5659 H   0  0  0  0  0  0  0  0  0  0  0  0
    6.7949  -12.3461  -11.4559 H   0  0  0  0  0  0  0  0  0  0  0  0
    8.5605  -12.3725  -11.7669 H   0  0  0  0  0  0  0  0  0  0  0  0
    7.6900  -12.2980   -7.6170 H   0  0  0  0  0  0  0  0  0  0  0  0
    6.8766  -15.0610   -6.2754 H   0  0  0  0  0  0  0  0  0  0  0  0
    5.1493  -15.5581   -4.5518 H   0  0  0  0  0  0  0  0  0  0  0  0
    4.3019  -13.5746   -2.2335 H   0  0  0  0  0  0  0  0  0  0  0  0
    1.4604  -16.4904    0.7033 H   0  0  0  0  0  0  0  0  0  0  0  0
    1.3697  -16.3647    3.1883 H   0  0  0  0  0  0  0  0  0  0  0  0
   -0.0909  -14.7001    4.3100 H   0  0  0  0  0  0  0  0  0  0  0  0
   -1.7233  -11.5837    4.7170 H   0  0  0  0  0  0  0  0  0  0  0  0
   -0.0916  -12.0298    4.1144 H   0  0  0  0  0  0  0  0  0  0  0  0
   -0.7527   -9.6694    3.4931 H   0  0  0  0  0  0  0  0  0  0  0  0
   -0.4509  -10.7163    2.0559 H   0  0  0  0  0  0  0  0  0  0  0  0
   -3.1150  -10.0570    3.2210 H   0  0  0  0  0  0  0  0  0  0  0  0
   -2.5879   -8.1166    2.1711 H   0  0  0  0  0  0  0  0  0  0  0  0
   -1.6652   -8.9866    0.8989 H   0  0  0  0  0  0  0  0  0  0  0  0
   -3.4608   -9.0365    0.8989 H   0  0  0  0  0  0  0  0  0  0  0  0
   -4.1704  -11.2463    1.4139 H   0  0  0  0  0  0  0  0  0  0  0  0
   -2.5355  -11.6654    0.7777 H   0  0  0  0  0  0  0  0  0  0  0  0
   -3.7389  -12.5319    3.4689 H   0  0  0  0  0  0  0  0  0  0  0  0
   -3.4131  -13.5789    2.0409 H   0  0  0  0  0  0  0  0  0  0  0  0
   -1.3108  -13.1928    0.4663 H   0  0  0  0  0  0  0  0  0  0  0  0
   -1.8778  -15.5719   -1.6760 H   0  0  0  0  0  0  0  0  0  0  0  0
    1.8010  -14.9580   -6.2650 H   0  0  0  0  0  0  0  0  0  0  0  0
    0.2450  -14.3990   -5.6500 H   0  0  0  0  0  0  0  0  0  0  0  0
    3.0778  -11.9074   -5.5712 H   0  0  0  0  0  0  0  0  0  0  0  0
    4.8100  -11.4077   -7.2877 H   0  0  0  0  0  0  0  0  0  0  0  0
  1  2  1  0
  2  3  1  0
  2  4  1  0
  4  5  1  0
  5  6  1  0
  6  7  2  0
  6  8  1  0
  8  9  1  0
  9 10  2  0
 10 11  1  0
 11 12  2  0
 12 13  1  0
 13 14  1  0
 14 15  2  0
 15 16  1  0
 16 17  2  0
 17 18  1  0
 18 19  2  0
 19 20  1  0
 20 21  2  0
 21 22  1  0
 22 23  1  0
 23 24  1  0
 24 25  1  0
 25 26  1  0
 26 27  1  0
 26 28  1  0
 28 29  1  0
 22 30  2  0
 17 31  1  0
 31 32  2  0
 32 33  1  0
 33 34  1  0
 34 35  1  0
 12 36  1  0
 36 37  2  0
 37  9  1  0
 34 13  2  0
 33 16  1  0
 30 18  1  0
 29 23  1  0
  1 38  1  0
  1 39  1  0
  1 40  1  0
  2 41  1  0
  3 42  1  0
  3 43  1  0
  3 44  1  0
  4 45  1  0
  4 46  1  0
  8 47  1  0
 10 48  1  0
 11 49  1  0
 14 50  1  0
 19 51  1  0
 20 52  1  0
 21 53  1  0
 24 54  1  0
 24 55  1  0
 25 56  1  0
 25 57  1  0
 26 58  1  0
 27 59  1  0
 27 60  1  0
 27 61  1  0
 28 62  1  0
 28 63  1  0
 29 64  1  0
 29 65  1  0
 30 66  1  0
 31 67  1  0
 35 68  1  0
 35 69  1  0
 36 70  1  0
 37 71  1  0
M  CHG  1  26   1
M  END
>  <meeko>  (7) 
{"is_sidechain": [false], "free_energy": -7.553, "intermolecular_energy": -10.925, "internal_energy": -0.978}

$$$$
LIB_FLOXVEVSESQZRQ__M_PUB_ALL__e8__s20260927
     RDKit          3D

 71 75  0  0  0  0  0  0  0  0999 V2000
    9.1550  -11.8290  -11.8460 C   0  0  0  0  0  0  0  0  0  0  0  0
    7.9410  -12.2500  -11.0200 C   0  0  0  0  0  0  0  0  0  0  0  0
    7.0420  -11.0430  -10.7450 C   0  0  0  0  0  0  0  0  0  0  0  0
    8.3870  -12.9220   -9.7160 C   0  0  0  0  0  0  0  0  0  0  0  0
    8.0920  -14.3250   -9.7880 O   0  0  0  0  0  0  0  0  0  0  0  0
    7.3120  -14.7910   -8.7760 C   0  0  0  0  0  0  0  0  0  0  0  0
    7.0920  -15.9740   -8.5700 O   0  0  0  0  0  0  0  0  0  0  0  0
    6.8460  -13.7130   -8.0780 N   0  0  0  0  0  0  0  0  0  0  0  0
    6.0150  -13.6990   -6.9460 C   0  0  0  0  0  0  0  0  0  0  0  0
    6.2060  -14.5220   -5.8340 C   0  0  0  0  0  0  0  0  0  0  0  0
    5.3360  -14.4500   -4.7390 C   0  0  0  0  0  0  0  0  0  0  0  0
    4.2620  -13.5540   -4.7400 C   0  0  0  0  0  0  0  0  0  0  0  0
    3.3440  -13.4980   -3.5960 C   0  0  0  0  0  0  0  0  0  0  0  0
    2.2070  -14.4680   -3.4990 C   0  0  0  0  0  0  0  0  0  0  0  0
    1.3150  -14.5480   -2.5570 N   0  0  0  0  0  0  0  0  0  0  0  0
    1.4430  -13.6360   -1.5410 C   0  0  0  0  0  0  0  0  0  0  0  0
    0.7150  -13.4200   -0.3830 C   0  0  0  0  0  0  0  0  0  0  0  0
   -0.4430  -14.1860    0.0500 C   0  0  0  0  0  0  0  0  0  0  0  0
   -1.7310  -13.7230   -0.2190 C   0  0  0  0  0  0  0  0  0  0  0  0
   -2.8360  -14.4680    0.1830 C   0  0  0  0  0  0  0  0  0  0  0  0
   -2.6610  -15.6740    0.8720 C   0  0  0  0  0  0  0  0  0  0  0  0
   -1.3860  -16.1690    1.1830 C   0  0  0  0  0  0  0  0  0  0  0  0
   -1.1860  -17.3490    1.8910 N   0  0  0  0  0  0  0  0  0  0  0  0
    0.0920  -17.5530    2.5980 C   0  0  0  0  0  0  0  0  0  0  0  0
   -0.0840  -17.1990    4.0910 C   0  0  0  0  0  0  0  0  0  0  0  0
   -1.2350  -18.0130    4.7020 N   0  0  0  0  0  0  0  0  0  0  0  0
   -1.4190  -17.7140    6.1570 C   0  0  0  0  0  0  0  0  0  0  0  0
   -2.5320  -17.8220    3.9060 C   0  0  0  0  0  0  0  0  0  0  0  0
   -2.3040  -18.1460    2.4140 C   0  0  0  0  0  0  0  0  0  0  0  0
   -0.2930  -15.4090    0.7260 C   0  0  0  0  0  0  0  0  0  0  0  0
    1.3680  -12.3440    0.2520 C   0  0  0  0  0  0  0  0  0  0  0  0
    2.4220  -11.8920   -0.4230 N   0  0  0  0  0  0  0  0  0  0  0  0
    2.4770  -12.6860   -1.5330 N   0  0  0  0  0  0  0  0  0  0  0  0
    3.4440  -12.6180   -2.5740 C   0  0  0  0  0  0  0  0  0  0  0  0
    4.4240  -11.6560   -2.4440 N   0  0  0  0  0  0  0  0  0  0  0  0
    4.0700  -12.7300   -5.8550 C   0  0  0  0  0  0  0  0  0  0  0  0
    4.9420  -12.8010   -6.9460 C   0  0  0  0  0  0  0  0  0  0  0  0
    9.9763  -11.5442  -11.1719 H   0  0  0  0  0  0  0  0  0  0  0  0
    9.4758  -12.6684  -12.4805 H   0  0  0  0  0  0  0  0  0  0  0  0
    8.8872  -10.9712  -12.4805 H   0  0  0  0  0  0  0  0  0  0  0  0
    7.3570  -12.9844  -11.5940 H   0  0  0  0  0  0  0  0  0  0  0  0
    6.9379  -10.9032   -9.6589 H   0  0  0  0  0  0  0  0  0  0  0  0
    7.4912  -10.1425  -11.1892 H   0  0  0  0  0  0  0  0  0  0  0  0
    6.0506  -11.2155  -11.1892 H   0  0  0  0  0  0  0  0  0  0  0  0
    9.4691  -12.7793   -9.5790 H   0  0  0  0  0  0  0  0  0  0  0  0
    7.8529  -12.4733   -8.8654 H   0  0  0  0  0  0  0  0  0  0  0  0
    7.1590  -12.8290   -8.4550 H   0  0  0  0  0  0  0  0  0  0  0  0
    7.0460  -15.2320   -5.8181 H   0  0  0  0  0  0  0  0  0  0  0  0
    5.4988  -15.1043   -3.8699 H   0  0  0  0  0  0  0  0  0  0  0  0
    2.1165  -15.1960   -4.3187 H   0  0  0  0  0  0  0  0  0  0  0  0
   -1.8735  -12.7695   -0.7486 H   0  0  0  0  0  0  0  0  0  0  0  0
   -3.8507  -14.1077   -0.0416 H   0  0  0  0  0  0  0  0  0  0  0  0
   -3.5475  -16.2490    1.1778 H   0  0  0  0  0  0  0  0  0  0  0  0
    0.3991  -18.6051    2.5043 H   0  0  0  0  0  0  0  0  0  0  0  0
    0.8634  -16.9053    2.1558 H   0  0  0  0  0  0  0  0  0  0  0  0
    0.8474  -17.4272    4.6299 H   0  0  0  0  0  0  0  0  0  0  0  0
   -0.3185  -16.1279    4.1787 H   0  0  0  0  0  0  0  0  0  0  0  0
   -0.9740  -19.0040    4.6140 H   0  0  0  0  0  0  0  0  0  0  0  0
   -0.9357  -18.4994    6.7567 H   0  0  0  0  0  0  0  0  0  0  0  0
   -0.9633  -16.7407    6.3918 H   0  0  0  0  0  0  0  0  0  0  0  0
   -2.4932  -17.6822    6.3918 H   0  0  0  0  0  0  0  0  0  0  0  0
   -3.3054  -18.4930    4.3080 H   0  0  0  0  0  0  0  0  0  0  0  0
   -2.8540  -16.7741    3.9971 H   0  0  0  0  0  0  0  0  0  0  0  0
   -2.0710  -19.2155    2.3051 H   0  0  0  0  0  0  0  0  0  0  0  0
   -3.2158  -17.9029    1.8487 H   0  0  0  0  0  0  0  0  0  0  0  0
    0.7235  -15.7890    0.9059 H   0  0  0  0  0  0  0  0  0  0  0  0
    1.0384  -11.9195    1.2118 H   0  0  0  0  0  0  0  0  0  0  0  0
    4.9150  -11.5120   -1.5710 H   0  0  0  0  0  0  0  0  0  0  0  0
    4.5440  -11.0030   -3.2190 H   0  0  0  0  0  0  0  0  0  0  0  0
    3.2281  -12.0223   -5.8732 H   0  0  0  0  0  0  0  0  0  0  0  0
    4.7826  -12.1438   -7.8135 H   0  0  0  0  0  0  0  0  0  0  0  0
  1  2  1  0
  2  3  1  0
  2  4  1  0
  4  5  1  0
  5  6  1  0
  6  7  2  0
  6  8  1  0
  8  9  1  0
  9 10  2  0
 10 11  1  0
 11 12  2  0
 12 13  1  0
 13 14  1  0
 14 15  2  0
 15 16  1  0
 16 17  2  0
 17 18  1  0
 18 19  2  0
 19 20  1  0
 20 21  2  0
 21 22  1  0
 22 23  1  0
 23 24  1  0
 24 25  1  0
 25 26  1  0
 26 27  1  0
 26 28  1  0
 28 29  1  0
 22 30  2  0
 17 31  1  0
 31 32  2  0
 32 33  1  0
 33 34  1  0
 34 35  1  0
 12 36  1  0
 36 37  2  0
 37  9  1  0
 34 13  2  0
 33 16  1  0
 30 18  1  0
 29 23  1  0
  1 38  1  0
  1 39  1  0
  1 40  1  0
  2 41  1  0
  3 42  1  0
  3 43  1  0
  3 44  1  0
  4 45  1  0
  4 46  1  0
  8 47  1  0
 10 48  1  0
 11 49  1  0
 14 50  1  0
 19 51  1  0
 20 52  1  0
 21 53  1  0
 24 54  1  0
 24 55  1  0
 25 56  1  0
 25 57  1  0
 26 58  1  0
 27 59  1  0
 27 60  1  0
 27 61  1  0
 28 62  1  0
 28 63  1  0
 29 64  1  0
 29 65  1  0
 30 66  1  0
 31 67  1  0
 35 68  1  0
 35 69  1  0
 36 70  1  0
 37 71  1  0
M  CHG  1  26   1
M  END
>  <meeko>  (8) 
{"is_sidechain": [false], "free_energy": -7.45, "intermolecular_energy": -10.784, "internal_energy": -0.97}

$$$$
LIB_FLOXVEVSESQZRQ__M_PUB_ALL__e8__s20260927
     RDKit          3D

 71 75  0  0  0  0  0  0  0  0999 V2000
    2.7750  -10.9740   -4.5230 C   0  0  0  0  0  0  0  0  0  0  0  0
    4.2750  -11.2460   -4.6120 C   0  0  0  0  0  0  0  0  0  0  0  0
    4.5630  -12.2790   -5.7030 C   0  0  0  0  0  0  0  0  0  0  0  0
    4.8190  -11.7020   -3.2530 C   0  0  0  0  0  0  0  0  0  0  0  0
    5.3060  -13.0480   -3.3720 O   0  0  0  0  0  0  0  0  0  0  0  0
    4.5220  -13.9860   -2.7760 C   0  0  0  0  0  0  0  0  0  0  0  0
    4.6220  -15.1870   -2.9730 O   0  0  0  0  0  0  0  0  0  0  0  0
    3.6420  -13.3370   -1.9560 N   0  0  0  0  0  0  0  0  0  0  0  0
    2.6500  -13.8880   -1.1300 C   0  0  0  0  0  0  0  0  0  0  0  0
    1.2820  -13.7980   -1.3940 C   0  0  0  0  0  0  0  0  0  0  0  0
    0.3500  -14.3750   -0.5220 C   0  0  0  0  0  0  0  0  0  0  0  0
    0.7730  -15.0500    0.6270 C   0  0  0  0  0  0  0  0  0  0  0  0
   -0.2120  -15.6360    1.5450 C   0  0  0  0  0  0  0  0  0  0  0  0
   -0.7200  -14.8390    2.7070 C   0  0  0  0  0  0  0  0  0  0  0  0
   -1.5850  -15.2120    3.6020 N   0  0  0  0  0  0  0  0  0  0  0  0
   -2.0830  -16.4810    3.4510 C   0  0  0  0  0  0  0  0  0  0  0  0
   -3.0110  -17.2120    4.1760 C   0  0  0  0  0  0  0  0  0  0  0  0
   -3.7270  -16.7490    5.3540 C   0  0  0  0  0  0  0  0  0  0  0  0
   -3.0790  -16.6810    6.5870 C   0  0  0  0  0  0  0  0  0  0  0  0
   -3.7630  -16.2220    7.7090 C   0  0  0  0  0  0  0  0  0  0  0  0
   -5.1070  -15.8430    7.6080 C   0  0  0  0  0  0  0  0  0  0  0  0
   -5.8060  -15.9140    6.3950 C   0  0  0  0  0  0  0  0  0  0  0  0
   -7.1490  -15.5710    6.2760 N   0  0  0  0  0  0  0  0  0  0  0  0
   -7.8650  -15.9020    5.0290 C   0  0  0  0  0  0  0  0  0  0  0  0
   -8.6670  -17.2070    5.2290 C   0  0  0  0  0  0  0  0  0  0  0  0
   -9.6080  -17.0770    6.4370 N   0  0  0  0  0  0  0  0  0  0  0  0
  -10.4200  -18.3170    6.6460 C   0  0  0  0  0  0  0  0  0  0  0  0
   -8.8360  -16.6750    7.7000 C   0  0  0  0  0  0  0  0  0  0  0  0
   -8.0170  -15.3910    7.4460 C   0  0  0  0  0  0  0  0  0  0  0  0
   -5.0710  -16.3450    5.2750 C   0  0  0  0  0  0  0  0  0  0  0  0
   -3.1030  -18.4430    3.4950 C   0  0  0  0  0  0  0  0  0  0  0  0
   -2.3100  -18.5190    2.4290 N   0  0  0  0  0  0  0  0  0  0  0  0
   -1.6770  -17.3090    2.3930 N   0  0  0  0  0  0  0  0  0  0  0  0
   -0.7290  -16.8790    1.4240 C   0  0  0  0  0  0  0  0  0  0  0  0
   -0.4260  -17.7740    0.4190 N   0  0  0  0  0  0  0  0  0  0  0  0
    2.1440  -15.1390    0.8930 C   0  0  0  0  0  0  0  0  0  0  0  0
    3.0730  -14.5650    0.0190 C   0  0  0  0  0  0  0  0  0  0  0  0
    2.4743  -10.9195   -3.4663 H   0  0  0  0  0  0  0  0  0  0  0  0
    2.5453  -10.0196   -5.0193 H   0  0  0  0  0  0  0  0  0  0  0  0
    2.2248  -11.7870   -5.0193 H   0  0  0  0  0  0  0  0  0  0  0  0
    4.7907  -10.3131   -4.8838 H   0  0  0  0  0  0  0  0  0  0  0  0
    4.8307  -13.2390   -5.2375 H   0  0  0  0  0  0  0  0  0  0  0  0
    3.6676  -12.4116   -6.3280 H   0  0  0  0  0  0  0  0  0  0  0  0
    5.3979  -11.9292   -6.3280 H   0  0  0  0  0  0  0  0  0  0  0  0
    5.6400  -11.0388   -2.9431 H   0  0  0  0  0  0  0  0  0  0  0  0
    4.0184  -11.6617   -2.4997 H   0  0  0  0  0  0  0  0  0  0  0  0
    3.7490  -12.3320   -1.9750 H   0  0  0  0  0  0  0  0  0  0  0  0
    0.9334  -13.2699   -2.2938 H   0  0  0  0  0  0  0  0  0  0  0  0
   -0.7246  -14.2963   -0.7432 H   0  0  0  0  0  0  0  0  0  0  0  0
   -0.3146  -13.8221    2.8150 H   0  0  0  0  0  0  0  0  0  0  0  0
   -2.0269  -16.9902    6.6729 H   0  0  0  0  0  0  0  0  0  0  0  0
   -3.2461  -16.1568    8.6778 H   0  0  0  0  0  0  0  0  0  0  0  0
   -5.6289  -15.4794    8.5054 H   0  0  0  0  0  0  0  0  0  0  0  0
   -8.5538  -15.0835    4.7729 H   0  0  0  0  0  0  0  0  0  0  0  0
   -7.1393  -16.0379    4.2136 H   0  0  0  0  0  0  0  0  0  0  0  0
   -9.2619  -17.4089    4.3261 H   0  0  0  0  0  0  0  0  0  0  0  0
   -7.9644  -18.0336    5.4110 H   0  0  0  0  0  0  0  0  0  0  0  0
  -10.2550  -16.3080    6.2250 H   0  0  0  0  0  0  0  0  0  0  0  0
  -10.5396  -18.4996    7.7241 H   0  0  0  0  0  0  0  0  0  0  0  0
  -11.4099  -18.1893    6.1837 H   0  0  0  0  0  0  0  0  0  0  0  0
   -9.9072  -19.1733    6.1837 H   0  0  0  0  0  0  0  0  0  0  0  0
   -9.5488  -16.4941    8.5180 H   0  0  0  0  0  0  0  0  0  0  0  0
   -8.1475  -17.4890    7.9709 H   0  0  0  0  0  0  0  0  0  0  0  0
   -8.7037  -14.5512    7.2641 H   0  0  0  0  0  0  0  0  0  0  0  0
   -7.3943  -15.1802    8.3279 H   0  0  0  0  0  0  0  0  0  0  0  0
   -5.5700  -16.3667    4.2949 H   0  0  0  0  0  0  0  0  0  0  0  0
   -3.7657  -19.2610    3.8138 H   0  0  0  0  0  0  0  0  0  0  0  0
   -0.5630  -18.7700    0.5350 H   0  0  0  0  0  0  0  0  0  0  0  0
    0.0670  -17.4120   -0.3980 H   0  0  0  0  0  0  0  0  0  0  0  0
    2.4931  -15.6634    1.7947 H   0  0  0  0  0  0  0  0  0  0  0  0
    4.1480  -14.6468    0.2374 H   0  0  0  0  0  0  0  0  0  0  0  0
  1  2  1  0
  2  3  1  0
  2  4  1  0
  4  5  1  0
  5  6  1  0
  6  7  2  0
  6  8  1  0
  8  9  1  0
  9 10  2  0
 10 11  1  0
 11 12  2  0
 12 13  1  0
 13 14  1  0
 14 15  2  0
 15 16  1  0
 16 17  2  0
 17 18  1  0
 18 19  2  0
 19 20  1  0
 20 21  2  0
 21 22  1  0
 22 23  1  0
 23 24  1  0
 24 25  1  0
 25 26  1  0
 26 27  1  0
 26 28  1  0
 28 29  1  0
 22 30  2  0
 17 31  1  0
 31 32  2  0
 32 33  1  0
 33 34  1  0
 34 35  1  0
 12 36  1  0
 36 37  2  0
 37  9  1  0
 34 13  2  0
 33 16  1  0
 30 18  1  0
 29 23  1  0
  1 38  1  0
  1 39  1  0
  1 40  1  0
  2 41  1  0
  3 42  1  0
  3 43  1  0
  3 44  1  0
  4 45  1  0
  4 46  1  0
  8 47  1  0
 10 48  1  0
 11 49  1  0
 14 50  1  0
 19 51  1  0
 20 52  1  0
 21 53  1  0
 24 54  1  0
 24 55  1  0
 25 56  1  0
 25 57  1  0
 26 58  1  0
 27 59  1  0
 27 60  1  0
 27 61  1  0
 28 62  1  0
 28 63  1  0
 29 64  1  0
 29 65  1  0
 30 66  1  0
 31 67  1  0
 35 68  1  0
 35 69  1  0
 36 70  1  0
 37 71  1  0
M  CHG  1  26   1
M  END
>  <meeko>  (9) 
{"is_sidechain": [false], "free_energy": -7.349, "intermolecular_energy": -10.596, "internal_energy": -1.014}

$$$$
