GEN_MZINFKXFDUJXKN__M_PUB_ALL__e8__s20260927
     RDKit          3D

 25 26  0  0  0  0  0  0  0  0999 V2000
   -6.6490  -13.9880    6.1520 O   0  0  0  0  0  0  0  0  0  0  0  0
   -6.6980  -14.6790    5.0840 C   0  0  0  0  0  0  0  0  0  0  0  0
   -7.7000  -15.3710    4.7090 O   0  0  0  0  0  0  0  0  0  0  0  0
   -5.4830  -14.6840    4.2010 C   0  0  0  0  0  0  0  0  0  0  0  0
   -4.5730  -15.7270    4.2370 C   0  0  0  0  0  0  0  0  0  0  0  0
   -3.4570  -15.8070    3.4700 N   0  0  0  0  0  0  0  0  0  0  0  0
   -3.2060  -14.7780    2.5870 C   0  0  0  0  0  0  0  0  0  0  0  0
   -1.9620  -14.8750    1.6970 C   0  0  0  0  0  0  0  0  0  0  0  0
   -2.1070  -15.3970    0.5380 O   0  0  0  0  0  0  0  0  0  0  0  0
   -0.8570  -14.4460    2.1720 O   0  0  0  0  0  0  0  0  0  0  0  0
   -4.0610  -13.6630    2.4720 C   0  0  0  0  0  0  0  0  0  0  0  0
   -3.8300  -12.5310    1.5550 C   0  0  0  0  0  0  0  0  0  0  0  0
   -4.5200  -12.4170    0.3390 C   0  0  0  0  0  0  0  0  0  0  0  0
   -4.2760  -11.3540   -0.5360 C   0  0  0  0  0  0  0  0  0  0  0  0
   -3.3270  -10.3870   -0.2130 C   0  0  0  0  0  0  0  0  0  0  0  0
   -2.6260  -10.4820    0.9870 C   0  0  0  0  0  0  0  0  0  0  0  0
   -2.8770  -11.5430    1.8610 C   0  0  0  0  0  0  0  0  0  0  0  0
   -5.2040  -13.6460    3.3020 C   0  0  0  0  0  0  0  0  0  0  0  0
   -4.7694  -16.5509    4.9388 H   0  0  0  0  0  0  0  0  0  0  0  0
   -5.2669  -13.1780    0.0688 H   0  0  0  0  0  0  0  0  0  0  0  0
   -4.8344  -11.2813   -1.4809 H   0  0  0  0  0  0  0  0  0  0  0  0
   -3.1320   -9.5522   -0.9023 H   0  0  0  0  0  0  0  0  0  0  0  0
   -1.8747   -9.7216    1.2466 H   0  0  0  0  0  0  0  0  0  0  0  0
   -2.3185  -11.6067    2.8065 H   0  0  0  0  0  0  0  0  0  0  0  0
   -5.8954  -12.7927    3.2408 H   0  0  0  0  0  0  0  0  0  0  0  0
  1  2  2  0
  2  3  1  0
  2  4  1  0
  4  5  2  0
  5  6  1  0
  6  7  2  0
  7  8  1  0
  8  9  2  0
  8 10  1  0
  7 11  1  0
 11 12  1  0
 12 13  2  0
 13 14  1  0
 14 15  2  0
 15 16  1  0
 16 17  2  0
 11 18  2  0
 18  4  1  0
 17 12  1  0
  5 19  1  0
 13 20  1  0
 14 21  1  0
 15 22  1  0
 16 23  1  0
 17 24  1  0
 18 25  1  0
M  CHG  2   3  -1  10  -1
M  END
>  <meeko>  (1) 
{"is_sidechain": [false], "free_energy": -5.911, "intermolecular_energy": -6.948, "internal_energy": -0.449}

$$$$
GEN_MZINFKXFDUJXKN__M_PUB_ALL__e8__s20260927
     RDKit          3D

 25 26  0  0  0  0  0  0  0  0999 V2000
   -7.2480  -17.1100   -8.1250 O   0  0  0  0  0  0  0  0  0  0  0  0
   -8.1220  -16.4340   -7.4920 C   0  0  0  0  0  0  0  0  0  0  0  0
   -8.1380  -16.2640   -6.2300 O   0  0  0  0  0  0  0  0  0  0  0  0
   -9.2180  -15.7910   -8.2930 C   0  0  0  0  0  0  0  0  0  0  0  0
  -10.4540  -15.5230   -7.7310 C   0  0  0  0  0  0  0  0  0  0  0  0
  -11.4920  -14.9420   -8.3840 N   0  0  0  0  0  0  0  0  0  0  0  0
  -11.3060  -14.5890   -9.7050 C   0  0  0  0  0  0  0  0  0  0  0  0
  -12.4630  -13.9060  -10.4420 C   0  0  0  0  0  0  0  0  0  0  0  0
  -12.4990  -12.6270  -10.4250 O   0  0  0  0  0  0  0  0  0  0  0  0
  -13.3290  -14.6540  -11.0100 O   0  0  0  0  0  0  0  0  0  0  0  0
  -10.0900  -14.8230  -10.3790 C   0  0  0  0  0  0  0  0  0  0  0  0
   -9.8460  -14.4780  -11.7930 C   0  0  0  0  0  0  0  0  0  0  0  0
   -9.2100  -13.2820  -12.1590 C   0  0  0  0  0  0  0  0  0  0  0  0
   -9.0060  -12.9520  -13.5020 C   0  0  0  0  0  0  0  0  0  0  0  0
   -9.4440  -13.8110  -14.5070 C   0  0  0  0  0  0  0  0  0  0  0  0
  -10.0810  -15.0020  -14.1680 C   0  0  0  0  0  0  0  0  0  0  0  0
  -10.2790  -15.3300  -12.8240 C   0  0  0  0  0  0  0  0  0  0  0  0
   -9.0540  -15.4320   -9.6370 C   0  0  0  0  0  0  0  0  0  0  0  0
  -10.6061  -15.8014   -6.6777 H   0  0  0  0  0  0  0  0  0  0  0  0
   -8.8657  -12.5916  -11.3749 H   0  0  0  0  0  0  0  0  0  0  0  0
   -8.4986  -12.0122  -13.7655 H   0  0  0  0  0  0  0  0  0  0  0  0
   -9.2874  -13.5498  -15.5640 H   0  0  0  0  0  0  0  0  0  0  0  0
  -10.4282  -15.6844  -14.9578 H   0  0  0  0  0  0  0  0  0  0  0  0
  -10.7835  -16.2733  -12.5678 H   0  0  0  0  0  0  0  0  0  0  0  0
   -8.0903  -15.6302  -10.1289 H   0  0  0  0  0  0  0  0  0  0  0  0
  1  2  2  0
  2  3  1  0
  2  4  1  0
  4  5  2  0
  5  6  1  0
  6  7  2  0
  7  8  1  0
  8  9  2  0
  8 10  1  0
  7 11  1  0
 11 12  1  0
 12 13  2  0
 13 14  1  0
 14 15  2  0
 15 16  1  0
 16 17  2  0
 11 18  2  0
 18  4  1  0
 17 12  1  0
  5 19  1  0
 13 20  1  0
 14 21  1  0
 15 22  1  0
 16 23  1  0
 17 24  1  0
 18 25  1  0
M  CHG  2   3  -1  10  -1
M  END
>  <meeko>  (2) 
{"is_sidechain": [false], "free_energy": -5.858, "intermolecular_energy": -6.841, "internal_energy": -0.494}

$$$$
GEN_MZINFKXFDUJXKN__M_PUB_ALL__e8__s20260927
     RDKit          3D

 25 26  0  0  0  0  0  0  0  0999 V2000
    6.8320  -11.8990   -4.0250 O   0  0  0  0  0  0  0  0  0  0  0  0
    6.9510  -11.7310   -2.7680 C   0  0  0  0  0  0  0  0  0  0  0  0
    6.0980  -11.1430   -2.0270 O   0  0  0  0  0  0  0  0  0  0  0  0
    8.1930  -12.2620   -2.1100 C   0  0  0  0  0  0  0  0  0  0  0  0
    8.1510  -12.8240   -0.8450 C   0  0  0  0  0  0  0  0  0  0  0  0
    9.2230  -13.3290   -0.1870 N   0  0  0  0  0  0  0  0  0  0  0  0
   10.4490  -13.2830   -0.8190 C   0  0  0  0  0  0  0  0  0  0  0  0
   11.6610  -13.8780   -0.0940 C   0  0  0  0  0  0  0  0  0  0  0  0
   12.0590  -15.0360   -0.4640 O   0  0  0  0  0  0  0  0  0  0  0  0
   12.1860  -13.1900    0.8460 O   0  0  0  0  0  0  0  0  0  0  0  0
   10.6080  -12.7270   -2.1050 C   0  0  0  0  0  0  0  0  0  0  0  0
   11.8980  -12.6410   -2.8170 C   0  0  0  0  0  0  0  0  0  0  0  0
   12.1940  -13.4790   -3.9030 C   0  0  0  0  0  0  0  0  0  0  0  0
   13.4280  -13.4080   -4.5570 C   0  0  0  0  0  0  0  0  0  0  0  0
   14.3940  -12.5010   -4.1280 C   0  0  0  0  0  0  0  0  0  0  0  0
   14.1240  -11.6630   -3.0500 C   0  0  0  0  0  0  0  0  0  0  0  0
   12.8880  -11.7340   -2.4030 C   0  0  0  0  0  0  0  0  0  0  0  0
    9.4480  -12.2190   -2.7300 C   0  0  0  0  0  0  0  0  0  0  0  0
    7.1762  -12.8635   -0.3369 H   0  0  0  0  0  0  0  0  0  0  0  0
   11.4419  -14.2047   -4.2460 H   0  0  0  0  0  0  0  0  0  0  0  0
   13.6360  -14.0692   -5.4112 H   0  0  0  0  0  0  0  0  0  0  0  0
   15.3665  -12.4472   -4.6392 H   0  0  0  0  0  0  0  0  0  0  0  0
   14.8837  -10.9450   -2.7076 H   0  0  0  0  0  0  0  0  0  0  0  0
   12.6857  -11.0665   -1.5524 H   0  0  0  0  0  0  0  0  0  0  0  0
    9.5327  -11.7764   -3.7335 H   0  0  0  0  0  0  0  0  0  0  0  0
  1  2  2  0
  2  3  1  0
  2  4  1  0
  4  5  2  0
  5  6  1  0
  6  7  2  0
  7  8  1  0
  8  9  2  0
  8 10  1  0
  7 11  1  0
 11 12  1  0
 12 13  2  0
 13 14  1  0
 14 15  2  0
 15 16  1  0
 16 17  2  0
 11 18  2  0
 18  4  1  0
 17 12  1  0
  5 19  1  0
 13 20  1  0
 14 21  1  0
 15 22  1  0
 16 23  1  0
 17 24  1  0
 18 25  1  0
M  CHG  2   3  -1  10  -1
M  END
>  <meeko>  (3) 
{"is_sidechain": [false], "free_energy": -5.837, "intermolecular_energy": -6.939, "internal_energy": -0.37}

$$$$
GEN_MZINFKXFDUJXKN__M_PUB_ALL__e8__s20260927
     RDKit          3D

 25 26  0  0  0  0  0  0  0  0999 V2000
    1.4960  -14.8770    5.8870 O   0  0  0  0  0  0  0  0  0  0  0  0
    0.2850  -15.2690    5.8430 C   0  0  0  0  0  0  0  0  0  0  0  0
   -0.2630  -16.0380    6.6980 O   0  0  0  0  0  0  0  0  0  0  0  0
   -0.5600  -14.7930    4.6950 C   0  0  0  0  0  0  0  0  0  0  0  0
   -1.5440  -15.5980    4.1470 C   0  0  0  0  0  0  0  0  0  0  0  0
   -2.3500  -15.2410    3.1160 N   0  0  0  0  0  0  0  0  0  0  0  0
   -2.1810  -13.9840    2.5710 C   0  0  0  0  0  0  0  0  0  0  0  0
   -3.1070  -13.5620    1.4260 C   0  0  0  0  0  0  0  0  0  0  0  0
   -2.7330  -13.8350    0.2330 O   0  0  0  0  0  0  0  0  0  0  0  0
   -4.1860  -12.9470    1.7300 O   0  0  0  0  0  0  0  0  0  0  0  0
   -1.2050  -13.0850    3.0470 C   0  0  0  0  0  0  0  0  0  0  0  0
   -0.9760  -11.7380    2.4900 C   0  0  0  0  0  0  0  0  0  0  0  0
   -0.0530  -11.5180    1.4560 C   0  0  0  0  0  0  0  0  0  0  0  0
    0.1760  -10.2350    0.9510 C   0  0  0  0  0  0  0  0  0  0  0  0
   -0.5090   -9.1440    1.4810 C   0  0  0  0  0  0  0  0  0  0  0  0
   -1.4270   -9.3370    2.5100 C   0  0  0  0  0  0  0  0  0  0  0  0
   -1.6560  -10.6230    3.0080 C   0  0  0  0  0  0  0  0  0  0  0  0
   -0.4010  -13.5250    4.1220 C   0  0  0  0  0  0  0  0  0  0  0  0
   -1.6823  -16.6001    4.5791 H   0  0  0  0  0  0  0  0  0  0  0  0
    0.5002  -12.3707    1.0354 H   0  0  0  0  0  0  0  0  0  0  0  0
    0.8978  -10.0867    0.1343 H   0  0  0  0  0  0  0  0  0  0  0  0
   -0.3253   -8.1332    1.0879 H   0  0  0  0  0  0  0  0  0  0  0  0
   -1.9714   -8.4786    2.9305 H   0  0  0  0  0  0  0  0  0  0  0  0
   -2.3829  -10.7647    3.8214 H   0  0  0  0  0  0  0  0  0  0  0  0
    0.3725  -12.8521    4.5206 H   0  0  0  0  0  0  0  0  0  0  0  0
  1  2  2  0
  2  3  1  0
  2  4  1  0
  4  5  2  0
  5  6  1  0
  6  7  2  0
  7  8  1  0
  8  9  2  0
  8 10  1  0
  7 11  1  0
 11 12  1  0
 12 13  2  0
 13 14  1  0
 14 15  2  0
 15 16  1  0
 16 17  2  0
 11 18  2  0
 18  4  1  0
 17 12  1  0
  5 19  1  0
 13 20  1  0
 14 21  1  0
 15 22  1  0
 16 23  1  0
 17 24  1  0
 18 25  1  0
M  CHG  2   3  -1  10  -1
M  END
>  <meeko>  (4) 
{"is_sidechain": [false], "free_energy": -5.726, "intermolecular_energy": -6.652, "internal_energy": -0.527}

$$$$
GEN_MZINFKXFDUJXKN__M_PUB_ALL__e8__s20260927
     RDKit          3D

 25 26  0  0  0  0  0  0  0  0999 V2000
    0.6770  -14.8640   -2.2500 O   0  0  0  0  0  0  0  0  0  0  0  0
    0.3220  -15.3750   -1.1390 C   0  0  0  0  0  0  0  0  0  0  0  0
    0.9230  -16.3330   -0.5540 O   0  0  0  0  0  0  0  0  0  0  0  0
   -0.8980  -14.8090   -0.4710 C   0  0  0  0  0  0  0  0  0  0  0  0
   -2.0920  -15.5100   -0.4450 C   0  0  0  0  0  0  0  0  0  0  0  0
   -3.2340  -15.0710    0.1410 N   0  0  0  0  0  0  0  0  0  0  0  0
   -3.2090  -13.8380    0.7600 C   0  0  0  0  0  0  0  0  0  0  0  0
   -4.4870  -13.3480    1.4490 C   0  0  0  0  0  0  0  0  0  0  0  0
   -4.6650  -13.6870    2.6700 O   0  0  0  0  0  0  0  0  0  0  0  0
   -5.3030  -12.6490    0.7590 O   0  0  0  0  0  0  0  0  0  0  0  0
   -2.0490  -13.0370    0.7880 C   0  0  0  0  0  0  0  0  0  0  0  0
   -1.9750  -11.7080    1.4230 C   0  0  0  0  0  0  0  0  0  0  0  0
   -1.5940  -11.5540    2.7650 C   0  0  0  0  0  0  0  0  0  0  0  0
   -1.5500  -10.2930    3.3660 C   0  0  0  0  0  0  0  0  0  0  0  0
   -1.8980   -9.1590    2.6360 C   0  0  0  0  0  0  0  0  0  0  0  0
   -2.2830   -9.2870    1.3040 C   0  0  0  0  0  0  0  0  0  0  0  0
   -2.3210  -10.5490    0.7060 C   0  0  0  0  0  0  0  0  0  0  0  0
   -0.8980  -13.5570    0.1570 C   0  0  0  0  0  0  0  0  0  0  0  0
   -2.1162  -16.4944   -0.9352 H   0  0  0  0  0  0  0  0  0  0  0  0
   -1.3249  -12.4426    3.3549 H   0  0  0  0  0  0  0  0  0  0  0  0
   -1.2401  -10.1960    4.4170 H   0  0  0  0  0  0  0  0  0  0  0  0
   -1.8688   -8.1666    3.1097 H   0  0  0  0  0  0  0  0  0  0  0  0
   -2.5572   -8.3944    0.7226 H   0  0  0  0  0  0  0  0  0  0  0  0
   -2.6277  -10.6377   -0.3466 H   0  0  0  0  0  0  0  0  0  0  0  0
    0.0265  -12.9610    0.1586 H   0  0  0  0  0  0  0  0  0  0  0  0
  1  2  2  0
  2  3  1  0
  2  4  1  0
  4  5  2  0
  5  6  1  0
  6  7  2  0
  7  8  1  0
  8  9  2  0
  8 10  1  0
  7 11  1  0
 11 12  1  0
 12 13  2  0
 13 14  1  0
 14 15  2  0
 15 16  1  0
 16 17  2  0
 11 18  2  0
 18  4  1  0
 17 12  1  0
  5 19  1  0
 13 20  1  0
 14 21  1  0
 15 22  1  0
 16 23  1  0
 17 24  1  0
 18 25  1  0
M  CHG  2   3  -1  10  -1
M  END
>  <meeko>  (5) 
{"is_sidechain": [false], "free_energy": -5.724, "intermolecular_energy": -6.665, "internal_energy": -0.512}

$$$$
GEN_MZINFKXFDUJXKN__M_PUB_ALL__e8__s20260927
     RDKit          3D

 25 26  0  0  0  0  0  0  0  0999 V2000
   12.3340   -9.5180    0.5420 O   0  0  0  0  0  0  0  0  0  0  0  0
   13.1850  -10.4030    0.2030 C   0  0  0  0  0  0  0  0  0  0  0  0
   14.4480  -10.2450    0.2260 O   0  0  0  0  0  0  0  0  0  0  0  0
   12.6600  -11.7310   -0.2630 C   0  0  0  0  0  0  0  0  0  0  0  0
   12.0600  -12.6150    0.6180 C   0  0  0  0  0  0  0  0  0  0  0  0
   11.5570  -13.8270    0.2760 N   0  0  0  0  0  0  0  0  0  0  0  0
   11.6480  -14.2130   -1.0460 C   0  0  0  0  0  0  0  0  0  0  0  0
   11.0560  -15.5690   -1.4460 C   0  0  0  0  0  0  0  0  0  0  0  0
   11.8440  -16.5770   -1.4530 O   0  0  0  0  0  0  0  0  0  0  0  0
    9.8200  -15.6060   -1.7660 O   0  0  0  0  0  0  0  0  0  0  0  0
   12.2450  -13.3950   -2.0260 C   0  0  0  0  0  0  0  0  0  0  0  0
   12.3790  -13.7680   -3.4480 C   0  0  0  0  0  0  0  0  0  0  0  0
   11.3040  -13.6520   -4.3420 C   0  0  0  0  0  0  0  0  0  0  0  0
   11.4330  -14.0310   -5.6820 C   0  0  0  0  0  0  0  0  0  0  0  0
   12.6400  -14.5430   -6.1500 C   0  0  0  0  0  0  0  0  0  0  0  0
   13.7200  -14.6700   -5.2800 C   0  0  0  0  0  0  0  0  0  0  0  0
   13.5890  -14.2860   -3.9430 C   0  0  0  0  0  0  0  0  0  0  0  0
   12.7470  -12.1470   -1.5980 C   0  0  0  0  0  0  0  0  0  0  0  0
   11.9860  -12.3118    1.6728 H   0  0  0  0  0  0  0  0  0  0  0  0
   10.3427  -13.2560   -3.9826 H   0  0  0  0  0  0  0  0  0  0  0  0
   10.5792  -13.9244   -6.3674 H   0  0  0  0  0  0  0  0  0  0  0  0
   12.7403  -14.8460   -7.2027 H   0  0  0  0  0  0  0  0  0  0  0  0
   14.6762  -15.0726   -5.6454 H   0  0  0  0  0  0  0  0  0  0  0  0
   14.4487  -14.3909   -3.2648 H   0  0  0  0  0  0  0  0  0  0  0  0
   13.2206  -11.4813   -2.3346 H   0  0  0  0  0  0  0  0  0  0  0  0
  1  2  2  0
  2  3  1  0
  2  4  1  0
  4  5  2  0
  5  6  1  0
  6  7  2  0
  7  8  1  0
  8  9  2  0
  8 10  1  0
  7 11  1  0
 11 12  1  0
 12 13  2  0
 13 14  1  0
 14 15  2  0
 15 16  1  0
 16 17  2  0
 11 18  2  0
 18  4  1  0
 17 12  1  0
  5 19  1  0
 13 20  1  0
 14 21  1  0
 15 22  1  0
 16 23  1  0
 17 24  1  0
 18 25  1  0
M  CHG  2   3  -1  10  -1
M  END
>  <meeko>  (6) 
{"is_sidechain": [false], "free_energy": -5.678, "intermolecular_energy": -6.657, "internal_energy": -0.466}

$$$$
GEN_MZINFKXFDUJXKN__M_PUB_ALL__e8__s20260927
     RDKit          3D

 25 26  0  0  0  0  0  0  0  0999 V2000
   13.8490  -18.4830   -3.6050 O   0  0  0  0  0  0  0  0  0  0  0  0
   12.9670  -17.8680   -2.9220 C   0  0  0  0  0  0  0  0  0  0  0  0
   12.0600  -18.4320   -2.2280 O   0  0  0  0  0  0  0  0  0  0  0  0
   12.9950  -16.3660   -2.9400 C   0  0  0  0  0  0  0  0  0  0  0  0
   13.7200  -15.6740   -3.8950 C   0  0  0  0  0  0  0  0  0  0  0  0
   13.7930  -14.3220   -3.9810 N   0  0  0  0  0  0  0  0  0  0  0  0
   13.0920  -13.5780   -3.0530 C   0  0  0  0  0  0  0  0  0  0  0  0
   13.1450  -12.0500   -3.1620 C   0  0  0  0  0  0  0  0  0  0  0  0
   12.1380  -11.4620   -3.6880 O   0  0  0  0  0  0  0  0  0  0  0  0
   14.1960  -11.4610   -2.7380 O   0  0  0  0  0  0  0  0  0  0  0  0
   12.3260  -14.1800   -2.0340 C   0  0  0  0  0  0  0  0  0  0  0  0
   11.5730  -13.4300   -1.0110 C   0  0  0  0  0  0  0  0  0  0  0  0
   12.1900  -12.9570    0.1570 C   0  0  0  0  0  0  0  0  0  0  0  0
   11.4620  -12.2690    1.1330 C   0  0  0  0  0  0  0  0  0  0  0  0
   10.0980  -12.0500    0.9620 C   0  0  0  0  0  0  0  0  0  0  0  0
    9.4630  -12.5140   -0.1880 C   0  0  0  0  0  0  0  0  0  0  0  0
   10.1950  -13.1960   -1.1630 C   0  0  0  0  0  0  0  0  0  0  0  0
   12.2980  -15.5910   -2.0040 C   0  0  0  0  0  0  0  0  0  0  0  0
   14.2774  -16.2632   -4.6381 H   0  0  0  0  0  0  0  0  0  0  0  0
   13.2657  -13.1304    0.3078 H   0  0  0  0  0  0  0  0  0  0  0  0
   11.9681  -11.9003    2.0374 H   0  0  0  0  0  0  0  0  0  0  0  0
    9.5240  -11.5129    1.7315 H   0  0  0  0  0  0  0  0  0  0  0  0
    8.3854  -12.3434   -0.3282 H   0  0  0  0  0  0  0  0  0  0  0  0
    9.6833  -13.5570   -2.0673 H   0  0  0  0  0  0  0  0  0  0  0  0
   11.7117  -16.0968   -1.2227 H   0  0  0  0  0  0  0  0  0  0  0  0
  1  2  2  0
  2  3  1  0
  2  4  1  0
  4  5  2  0
  5  6  1  0
  6  7  2  0
  7  8  1  0
  8  9  2  0
  8 10  1  0
  7 11  1  0
 11 12  1  0
 12 13  2  0
 13 14  1  0
 14 15  2  0
 15 16  1  0
 16 17  2  0
 11 18  2  0
 18  4  1  0
 17 12  1  0
  5 19  1  0
 13 20  1  0
 14 21  1  0
 15 22  1  0
 16 23  1  0
 17 24  1  0
 18 25  1  0
M  CHG  2   3  -1  10  -1
M  END
>  <meeko>  (7) 
{"is_sidechain": [false], "free_energy": -5.626, "intermolecular_energy": -6.587, "internal_energy": -0.475}

$$$$
GEN_MZINFKXFDUJXKN__M_PUB_ALL__e8__s20260927
     RDKit          3D

 25 26  0  0  0  0  0  0  0  0999 V2000
  -11.0300  -21.7000    6.2630 O   0  0  0  0  0  0  0  0  0  0  0  0
  -10.3090  -21.0870    7.1150 C   0  0  0  0  0  0  0  0  0  0  0  0
   -9.4160  -21.6330    7.8400 O   0  0  0  0  0  0  0  0  0  0  0  0
  -10.5300  -19.6100    7.2800 C   0  0  0  0  0  0  0  0  0  0  0  0
  -11.6960  -19.1180    7.8420 C   0  0  0  0  0  0  0  0  0  0  0  0
  -11.9690  -17.8030    8.0290 N   0  0  0  0  0  0  0  0  0  0  0  0
  -11.0180  -16.8840    7.6340 C   0  0  0  0  0  0  0  0  0  0  0  0
  -11.3060  -15.3970    7.8700 C   0  0  0  0  0  0  0  0  0  0  0  0
  -10.8400  -14.8680    8.9370 O   0  0  0  0  0  0  0  0  0  0  0  0
  -12.0070  -14.7830    6.9960 O   0  0  0  0  0  0  0  0  0  0  0  0
   -9.7980  -17.2740    7.0450 C   0  0  0  0  0  0  0  0  0  0  0  0
   -8.7570  -16.3320    6.5930 C   0  0  0  0  0  0  0  0  0  0  0  0
   -8.4580  -16.1640    5.2320 C   0  0  0  0  0  0  0  0  0  0  0  0
   -7.4520  -15.2870    4.8140 C   0  0  0  0  0  0  0  0  0  0  0  0
   -6.7190  -14.5670    5.7540 C   0  0  0  0  0  0  0  0  0  0  0  0
   -6.9950  -14.7200    7.1100 C   0  0  0  0  0  0  0  0  0  0  0  0
   -8.0040  -15.5940    7.5230 C   0  0  0  0  0  0  0  0  0  0  0  0
   -9.5820  -18.6600    6.8790 C   0  0  0  0  0  0  0  0  0  0  0  0
  -12.4560  -19.8469    8.1599 H   0  0  0  0  0  0  0  0  0  0  0  0
   -9.0253  -16.7325    4.4804 H   0  0  0  0  0  0  0  0  0  0  0  0
   -7.2395  -15.1658    3.7415 H   0  0  0  0  0  0  0  0  0  0  0  0
   -5.9249  -13.8799    5.4264 H   0  0  0  0  0  0  0  0  0  0  0  0
   -6.4189  -14.1530    7.8561 H   0  0  0  0  0  0  0  0  0  0  0  0
   -8.2133  -15.7068    8.5970 H   0  0  0  0  0  0  0  0  0  0  0  0
   -8.6423  -19.0032    6.4217 H   0  0  0  0  0  0  0  0  0  0  0  0
  1  2  2  0
  2  3  1  0
  2  4  1  0
  4  5  2  0
  5  6  1  0
  6  7  2  0
  7  8  1  0
  8  9  2  0
  8 10  1  0
  7 11  1  0
 11 12  1  0
 12 13  2  0
 13 14  1  0
 14 15  2  0
 15 16  1  0
 16 17  2  0
 11 18  2  0
 18  4  1  0
 17 12  1  0
  5 19  1  0
 13 20  1  0
 14 21  1  0
 15 22  1  0
 16 23  1  0
 17 24  1  0
 18 25  1  0
M  CHG  2   3  -1  10  -1
M  END
>  <meeko>  (8) 
{"is_sidechain": [false], "free_energy": -5.594, "intermolecular_energy": -6.802, "internal_energy": -0.222}

$$$$
GEN_MZINFKXFDUJXKN__M_PUB_ALL__e8__s20260927
     RDKit          3D

 25 26  0  0  0  0  0  0  0  0999 V2000
   12.6830  -13.4730   -2.5630 O   0  0  0  0  0  0  0  0  0  0  0  0
   12.3510  -12.3800   -2.0000 C   0  0  0  0  0  0  0  0  0  0  0  0
   13.0170  -11.2960   -2.0630 O   0  0  0  0  0  0  0  0  0  0  0  0
   11.0810  -12.3690   -1.1970 C   0  0  0  0  0  0  0  0  0  0  0  0
   11.1040  -12.2390    0.1810 C   0  0  0  0  0  0  0  0  0  0  0  0
   10.0050  -12.2150    0.9750 N   0  0  0  0  0  0  0  0  0  0  0  0
    8.7700  -12.3260    0.3690 C   0  0  0  0  0  0  0  0  0  0  0  0
    7.5210  -12.2700    1.2560 C   0  0  0  0  0  0  0  0  0  0  0  0
    7.0580  -13.3800    1.6930 O   0  0  0  0  0  0  0  0  0  0  0  0
    7.0090  -11.1230    1.4880 O   0  0  0  0  0  0  0  0  0  0  0  0
    8.6290  -12.4700   -1.0260 C   0  0  0  0  0  0  0  0  0  0  0  0
    7.3340  -12.6070   -1.7190 C   0  0  0  0  0  0  0  0  0  0  0  0
    6.6100  -11.4850   -2.1510 C   0  0  0  0  0  0  0  0  0  0  0  0
    5.3710  -11.6240   -2.7860 C   0  0  0  0  0  0  0  0  0  0  0  0
    4.8290  -12.8900   -2.9910 C   0  0  0  0  0  0  0  0  0  0  0  0
    5.5280  -14.0180   -2.5670 C   0  0  0  0  0  0  0  0  0  0  0  0
    6.7680  -13.8750   -1.9380 C   0  0  0  0  0  0  0  0  0  0  0  0
    9.8170  -12.4880   -1.7900 C   0  0  0  0  0  0  0  0  0  0  0  0
   12.0863  -12.1485    0.6678 H   0  0  0  0  0  0  0  0  0  0  0  0
    7.0238  -10.4790   -1.9875 H   0  0  0  0  0  0  0  0  0  0  0  0
    4.8241  -10.7314   -3.1239 H   0  0  0  0  0  0  0  0  0  0  0  0
    3.8527  -12.9991   -3.4858 H   0  0  0  0  0  0  0  0  0  0  0  0
    5.1044  -15.0205   -2.7271 H   0  0  0  0  0  0  0  0  0  0  0  0
    7.3117  -14.7724   -1.6078 H   0  0  0  0  0  0  0  0  0  0  0  0
    9.7479  -12.5987   -2.8822 H   0  0  0  0  0  0  0  0  0  0  0  0
  1  2  2  0
  2  3  1  0
  2  4  1  0
  4  5  2  0
  5  6  1  0
  6  7  2  0
  7  8  1  0
  8  9  2  0
  8 10  1  0
  7 11  1  0
 11 12  1  0
 12 13  2  0
 13 14  1  0
 14 15  2  0
 15 16  1  0
 16 17  2  0
 11 18  2  0
 18  4  1  0
 17 12  1  0
  5 19  1  0
 13 20  1  0
 14 21  1  0
 15 22  1  0
 16 23  1  0
 17 24  1  0
 18 25  1  0
M  CHG  2   3  -1  10  -1
M  END
>  <meeko>  (9) 
{"is_sidechain": [false], "free_energy": -5.505, "intermolecular_energy": -6.408, "internal_energy": -0.511}

$$$$
