GEN_POIOHHCKCDKCNL__M_PUB_ALL__e8__s20260927
     RDKit          3D

 34 35  0  0  0  0  0  0  0  0999 V2000
   15.7400   -2.7570   13.6710 C   0  0  0  0  0  0  0  0  0  0  0  0
   16.5080   -3.9100   13.3360 O   0  0  0  0  0  0  0  0  0  0  0  0
   17.8150   -3.7230   12.9560 C   0  0  0  0  0  0  0  0  0  0  0  0
   18.5760   -2.6120   13.3540 C   0  0  0  0  0  0  0  0  0  0  0  0
   19.9020   -2.4630   12.9420 C   0  0  0  0  0  0  0  0  0  0  0  0
   20.4890   -3.4200   12.1270 C   0  0  0  0  0  0  0  0  0  0  0  0
   19.7490   -4.5290   11.7240 C   0  0  0  0  0  0  0  0  0  0  0  0
   18.4080   -4.7020   12.1260 C   0  0  0  0  0  0  0  0  0  0  0  0
   17.7220   -5.9460   11.6180 C   0  0  0  0  0  0  0  0  0  0  0  0
   17.8500   -6.2360   10.4320 O   0  0  0  0  0  0  0  0  0  0  0  0
   16.9910   -6.6760   12.5360 N   0  0  0  0  0  0  0  0  0  0  0  0
   16.2580   -7.8680   12.3340 C   0  0  0  0  0  0  0  0  0  0  0  0
   15.0400   -7.8930   11.6450 C   0  0  0  0  0  0  0  0  0  0  0  0
   14.3470   -9.0900   11.4680 C   0  0  0  0  0  0  0  0  0  0  0  0
   13.1840   -9.0680   10.8000 F   0  0  0  0  0  0  0  0  0  0  0  0
   14.8440  -10.2850   11.9680 C   0  0  0  0  0  0  0  0  0  0  0  0
   14.1240  -11.5060   11.7800 C   0  0  0  0  0  0  0  0  0  0  0  0
   13.5720  -12.5190   11.6500 N   0  0  0  0  0  0  0  0  0  0  0  0
   16.0580  -10.2790   12.6600 C   0  0  0  0  0  0  0  0  0  0  0  0
   16.7730   -9.0790   12.8500 C   0  0  0  0  0  0  0  0  0  0  0  0
   18.0760   -9.1420   13.6040 C   0  0  0  0  0  0  0  0  0  0  0  0
   15.6776   -2.6633   14.7652 H   0  0  0  0  0  0  0  0  0  0  0  0
   16.2224   -1.8610   13.2532 H   0  0  0  0  0  0  0  0  0  0  0  0
   14.7274   -2.8568   13.2532 H   0  0  0  0  0  0  0  0  0  0  0  0
   18.1206   -1.8472   14.0003 H   0  0  0  0  0  0  0  0  0  0  0  0
   20.4819   -1.5855   13.2642 H   0  0  0  0  0  0  0  0  0  0  0  0
   21.5331   -3.3036   11.8009 H   0  0  0  0  0  0  0  0  0  0  0  0
   20.2199   -5.2855   11.0790 H   0  0  0  0  0  0  0  0  0  0  0  0
   16.9910   -6.2920   13.4750 H   0  0  0  0  0  0  0  0  0  0  0  0
   14.6251   -6.9587   11.2389 H   0  0  0  0  0  0  0  0  0  0  0  0
   16.4602  -11.2211   13.0609 H   0  0  0  0  0  0  0  0  0  0  0  0
   17.8747   -9.1323   14.6854 H   0  0  0  0  0  0  0  0  0  0  0  0
   18.6089  -10.0670   13.3385 H   0  0  0  0  0  0  0  0  0  0  0  0
   18.6956   -8.2728   13.3385 H   0  0  0  0  0  0  0  0  0  0  0  0
  1  2  1  0
  2  3  1  0
  3  4  2  0
  4  5  1  0
  5  6  2  0
  6  7  1  0
  7  8  2  0
  8  9  1  0
  9 10  2  0
  9 11  1  0
 11 12  1  0
 12 13  2  0
 13 14  1  0
 14 15  1  0
 14 16  2  0
 16 17  1  0
 17 18  3  0
 16 19  1  0
 19 20  2  0
 20 21  1  0
  8  3  1  0
 20 12  1  0
  1 22  1  0
  1 23  1  0
  1 24  1  0
  4 25  1  0
  5 26  1  0
  6 27  1  0
  7 28  1  0
 11 29  1  0
 13 30  1  0
 19 31  1  0
 21 32  1  0
 21 33  1  0
 21 34  1  0
M  END
>  <meeko>  (1) 
{"is_sidechain": [false], "free_energy": -6.671, "intermolecular_energy": -7.841, "internal_energy": -0.734}

$$$$
GEN_POIOHHCKCDKCNL__M_PUB_ALL__e8__s20260927
     RDKit          3D

 34 35  0  0  0  0  0  0  0  0999 V2000
   13.3580  -10.8090   -0.1400 C   0  0  0  0  0  0  0  0  0  0  0  0
   12.3780  -11.1390   -1.1220 O   0  0  0  0  0  0  0  0  0  0  0  0
   12.7740  -11.9080   -2.1900 C   0  0  0  0  0  0  0  0  0  0  0  0
   13.9970  -11.7210   -2.8550 C   0  0  0  0  0  0  0  0  0  0  0  0
   14.3580  -12.5260   -3.9380 C   0  0  0  0  0  0  0  0  0  0  0  0
   13.5040  -13.5290   -4.3730 C   0  0  0  0  0  0  0  0  0  0  0  0
   12.2880  -13.7290   -3.7240 C   0  0  0  0  0  0  0  0  0  0  0  0
   11.9010  -12.9280   -2.6300 C   0  0  0  0  0  0  0  0  0  0  0  0
   10.5590  -13.2500   -2.0200 C   0  0  0  0  0  0  0  0  0  0  0  0
   10.3040  -14.4230   -1.7630 O   0  0  0  0  0  0  0  0  0  0  0  0
    9.7050  -12.1880   -1.7920 N   0  0  0  0  0  0  0  0  0  0  0  0
    8.4040  -12.2030   -1.2380 C   0  0  0  0  0  0  0  0  0  0  0  0
    8.1710  -12.4180    0.1250 C   0  0  0  0  0  0  0  0  0  0  0  0
    6.8720  -12.4270    0.6330 C   0  0  0  0  0  0  0  0  0  0  0  0
    6.6940  -12.6370    1.9450 F   0  0  0  0  0  0  0  0  0  0  0  0
    5.7790  -12.2220   -0.1970 C   0  0  0  0  0  0  0  0  0  0  0  0
    4.4510  -12.2320    0.3350 C   0  0  0  0  0  0  0  0  0  0  0  0
    3.3590  -12.2330    0.7260 N   0  0  0  0  0  0  0  0  0  0  0  0
    5.9930  -12.0050   -1.5610 C   0  0  0  0  0  0  0  0  0  0  0  0
    7.2980  -11.9940   -2.0930 C   0  0  0  0  0  0  0  0  0  0  0  0
    7.4580  -11.7540   -3.5720 C   0  0  0  0  0  0  0  0  0  0  0  0
   12.9332  -10.9521    0.8645 H   0  0  0  0  0  0  0  0  0  0  0  0
   14.2350  -11.4614   -0.2635 H   0  0  0  0  0  0  0  0  0  0  0  0
   13.6618   -9.7590   -0.2635 H   0  0  0  0  0  0  0  0  0  0  0  0
   14.6811  -10.9284   -2.5177 H   0  0  0  0  0  0  0  0  0  0  0  0
   15.3201  -12.3645   -4.4463 H   0  0  0  0  0  0  0  0  0  0  0  0
   13.7859  -14.1633   -5.2264 H   0  0  0  0  0  0  0  0  0  0  0  0
   11.6162  -14.5276   -4.0718 H   0  0  0  0  0  0  0  0  0  0  0  0
   10.0760  -11.2830   -2.0640 H   0  0  0  0  0  0  0  0  0  0  0  0
    9.0215  -12.5817    0.8031 H   0  0  0  0  0  0  0  0  0  0  0  0
    5.1330  -11.8409   -2.2269 H   0  0  0  0  0  0  0  0  0  0  0  0
    8.0616  -10.8486   -3.7334 H   0  0  0  0  0  0  0  0  0  0  0  0
    7.9619  -12.6173   -4.0311 H   0  0  0  0  0  0  0  0  0  0  0  0
    6.4673  -11.6209   -4.0311 H   0  0  0  0  0  0  0  0  0  0  0  0
  1  2  1  0
  2  3  1  0
  3  4  2  0
  4  5  1  0
  5  6  2  0
  6  7  1  0
  7  8  2  0
  8  9  1  0
  9 10  2  0
  9 11  1  0
 11 12  1  0
 12 13  2  0
 13 14  1  0
 14 15  1  0
 14 16  2  0
 16 17  1  0
 17 18  3  0
 16 19  1  0
 19 20  2  0
 20 21  1  0
  8  3  1  0
 20 12  1  0
  1 22  1  0
  1 23  1  0
  1 24  1  0
  4 25  1  0
  5 26  1  0
  6 27  1  0
  7 28  1  0
 11 29  1  0
 13 30  1  0
 19 31  1  0
 21 32  1  0
 21 33  1  0
 21 34  1  0
M  END
>  <meeko>  (2) 
{"is_sidechain": [false], "free_energy": -6.542, "intermolecular_energy": -7.677, "internal_energy": -0.746}

$$$$
GEN_POIOHHCKCDKCNL__M_PUB_ALL__e8__s20260927
     RDKit          3D

 34 35  0  0  0  0  0  0  0  0999 V2000
   20.2220   -4.8650   10.6370 C   0  0  0  0  0  0  0  0  0  0  0  0
   19.4430   -5.0870   11.8110 O   0  0  0  0  0  0  0  0  0  0  0  0
   18.9670   -3.9870   12.4830 C   0  0  0  0  0  0  0  0  0  0  0  0
   19.7860   -2.9130   12.8700 C   0  0  0  0  0  0  0  0  0  0  0  0
   19.2580   -1.8150   13.5530 C   0  0  0  0  0  0  0  0  0  0  0  0
   17.9070   -1.7720   13.8600 C   0  0  0  0  0  0  0  0  0  0  0  0
   17.0800   -2.8280   13.4840 C   0  0  0  0  0  0  0  0  0  0  0  0
   17.5890   -3.9480   12.7940 C   0  0  0  0  0  0  0  0  0  0  0  0
   16.5860   -5.0200   12.4470 C   0  0  0  0  0  0  0  0  0  0  0  0
   15.4920   -4.6730   12.0120 O   0  0  0  0  0  0  0  0  0  0  0  0
   16.9780   -6.3310   12.6460 N   0  0  0  0  0  0  0  0  0  0  0  0
   16.2460   -7.5170   12.4070 C   0  0  0  0  0  0  0  0  0  0  0  0
   15.1490   -7.5620   11.5400 C   0  0  0  0  0  0  0  0  0  0  0  0
   14.4530   -8.7530   11.3320 C   0  0  0  0  0  0  0  0  0  0  0  0
   13.4080   -8.7500   10.4930 F   0  0  0  0  0  0  0  0  0  0  0  0
   14.8300   -9.9220   11.9770 C   0  0  0  0  0  0  0  0  0  0  0  0
   14.1090  -11.1370   11.7560 C   0  0  0  0  0  0  0  0  0  0  0  0
   13.5510  -12.1440   11.6040 N   0  0  0  0  0  0  0  0  0  0  0  0
   15.9230   -9.8960   12.8460 C   0  0  0  0  0  0  0  0  0  0  0  0
   16.6380   -8.7030   13.0700 C   0  0  0  0  0  0  0  0  0  0  0  0
   17.8080   -8.7440   14.0200 C   0  0  0  0  0  0  0  0  0  0  0  0
   21.2432   -4.5740   10.9242 H   0  0  0  0  0  0  0  0  0  0  0  0
   20.2579   -5.7887   10.0407 H   0  0  0  0  0  0  0  0  0  0  0  0
   19.7656   -4.0612   10.0407 H   0  0  0  0  0  0  0  0  0  0  0  0
   20.8595   -2.9372   12.6314 H   0  0  0  0  0  0  0  0  0  0  0  0
   19.9151   -0.9834   13.8476 H   0  0  0  0  0  0  0  0  0  0  0  0
   17.4899   -0.9080   14.3980 H   0  0  0  0  0  0  0  0  0  0  0  0
   16.0086   -2.7876   13.7301 H   0  0  0  0  0  0  0  0  0  0  0  0
   17.9170   -6.4390   13.0130 H   0  0  0  0  0  0  0  0  0  0  0  0
   14.8317   -6.6481   11.0165 H   0  0  0  0  0  0  0  0  0  0  0  0
   16.2293  -10.8181   13.3617 H   0  0  0  0  0  0  0  0  0  0  0  0
   17.4395   -8.7311   15.0563 H   0  0  0  0  0  0  0  0  0  0  0  0
   18.3876   -9.6630   13.8484 H   0  0  0  0  0  0  0  0  0  0  0  0
   18.4505   -7.8678   13.8484 H   0  0  0  0  0  0  0  0  0  0  0  0
  1  2  1  0
  2  3  1  0
  3  4  2  0
  4  5  1  0
  5  6  2  0
  6  7  1  0
  7  8  2  0
  8  9  1  0
  9 10  2  0
  9 11  1  0
 11 12  1  0
 12 13  2  0
 13 14  1  0
 14 15  1  0
 14 16  2  0
 16 17  1  0
 17 18  3  0
 16 19  1  0
 19 20  2  0
 20 21  1  0
  8  3  1  0
 20 12  1  0
  1 22  1  0
  1 23  1  0
  1 24  1  0
  4 25  1  0
  5 26  1  0
  6 27  1  0
  7 28  1  0
 11 29  1  0
 13 30  1  0
 19 31  1  0
 21 32  1  0
 21 33  1  0
 21 34  1  0
M  END
>  <meeko>  (3) 
{"is_sidechain": [false], "free_energy": -6.534, "intermolecular_energy": -8.088, "internal_energy": -0.325}

$$$$
GEN_POIOHHCKCDKCNL__M_PUB_ALL__e8__s20260927
     RDKit          3D

 34 35  0  0  0  0  0  0  0  0999 V2000
   -1.4830  -10.6710    3.3470 C   0  0  0  0  0  0  0  0  0  0  0  0
   -1.4370  -11.5030    2.1900 O   0  0  0  0  0  0  0  0  0  0  0  0
   -2.4520  -11.3810    1.2710 C   0  0  0  0  0  0  0  0  0  0  0  0
   -2.5120  -10.3390    0.3310 C   0  0  0  0  0  0  0  0  0  0  0  0
   -3.5640  -10.2560   -0.5840 C   0  0  0  0  0  0  0  0  0  0  0  0
   -4.5710  -11.2100   -0.5750 C   0  0  0  0  0  0  0  0  0  0  0  0
   -4.5260  -12.2500    0.3510 C   0  0  0  0  0  0  0  0  0  0  0  0
   -3.4750  -12.3560    1.2850 C   0  0  0  0  0  0  0  0  0  0  0  0
   -3.5490  -13.5290    2.2300 C   0  0  0  0  0  0  0  0  0  0  0  0
   -4.5560  -13.6570    2.9210 O   0  0  0  0  0  0  0  0  0  0  0  0
   -2.4640  -14.3850    2.2510 N   0  0  0  0  0  0  0  0  0  0  0  0
   -2.2710  -15.5490    3.0310 C   0  0  0  0  0  0  0  0  0  0  0  0
   -3.0280  -16.7110    2.8470 C   0  0  0  0  0  0  0  0  0  0  0  0
   -2.8070  -17.8380    3.6380 C   0  0  0  0  0  0  0  0  0  0  0  0
   -3.5550  -18.9300    3.4270 F   0  0  0  0  0  0  0  0  0  0  0  0
   -1.8320  -17.8370    4.6260 C   0  0  0  0  0  0  0  0  0  0  0  0
   -1.6150  -18.9990    5.4310 C   0  0  0  0  0  0  0  0  0  0  0  0
   -1.4060  -19.9200    6.1060 N   0  0  0  0  0  0  0  0  0  0  0  0
   -1.0670  -16.6850    4.8250 C   0  0  0  0  0  0  0  0  0  0  0  0
   -1.2760  -15.5360    4.0360 C   0  0  0  0  0  0  0  0  0  0  0  0
   -0.4160  -14.3280    4.3010 C   0  0  0  0  0  0  0  0  0  0  0  0
   -1.4484  -11.2973    4.2506 H   0  0  0  0  0  0  0  0  0  0  0  0
   -0.6213   -9.9873    3.3415 H   0  0  0  0  0  0  0  0  0  0  0  0
   -2.4148  -10.0865    3.3415 H   0  0  0  0  0  0  0  0  0  0  0  0
   -1.7188   -9.5771    0.3152 H   0  0  0  0  0  0  0  0  0  0  0  0
   -3.5940   -9.4328   -1.3130 H   0  0  0  0  0  0  0  0  0  0  0  0
   -5.4003  -11.1458   -1.2948 H   0  0  0  0  0  0  0  0  0  0  0  0
   -5.3269  -13.0040    0.3535 H   0  0  0  0  0  0  0  0  0  0  0  0
   -1.7150  -14.1310    1.6150 H   0  0  0  0  0  0  0  0  0  0  0  0
   -3.8061  -16.7360    2.0698 H   0  0  0  0  0  0  0  0  0  0  0  0
   -0.2928  -16.6746    5.6063 H   0  0  0  0  0  0  0  0  0  0  0  0
   -0.3125  -14.1826    5.3864 H   0  0  0  0  0  0  0  0  0  0  0  0
    0.5779  -14.4805    3.8550 H   0  0  0  0  0  0  0  0  0  0  0  0
   -0.8854  -13.4387    3.8550 H   0  0  0  0  0  0  0  0  0  0  0  0
  1  2  1  0
  2  3  1  0
  3  4  2  0
  4  5  1  0
  5  6  2  0
  6  7  1  0
  7  8  2  0
  8  9  1  0
  9 10  2  0
  9 11  1  0
 11 12  1  0
 12 13  2  0
 13 14  1  0
 14 15  1  0
 14 16  2  0
 16 17  1  0
 17 18  3  0
 16 19  1  0
 19 20  2  0
 20 21  1  0
  8  3  1  0
 20 12  1  0
  1 22  1  0
  1 23  1  0
  1 24  1  0
  4 25  1  0
  5 26  1  0
  6 27  1  0
  7 28  1  0
 11 29  1  0
 13 30  1  0
 19 31  1  0
 21 32  1  0
 21 33  1  0
 21 34  1  0
M  END
>  <meeko>  (4) 
{"is_sidechain": [false], "free_energy": -6.497, "intermolecular_energy": -7.578, "internal_energy": -0.792}

$$$$
GEN_POIOHHCKCDKCNL__M_PUB_ALL__e8__s20260927
     RDKit          3D

 34 35  0  0  0  0  0  0  0  0999 V2000
  -12.0480  -26.0970    7.2400 C   0  0  0  0  0  0  0  0  0  0  0  0
  -12.1960  -24.9490    8.0720 O   0  0  0  0  0  0  0  0  0  0  0  0
  -12.2860  -25.1460    9.4290 C   0  0  0  0  0  0  0  0  0  0  0  0
  -12.8130  -26.3170    9.9980 C   0  0  0  0  0  0  0  0  0  0  0  0
  -12.8860  -26.4730   11.3840 C   0  0  0  0  0  0  0  0  0  0  0  0
  -12.4340  -25.4640   12.2230 C   0  0  0  0  0  0  0  0  0  0  0  0
  -11.9080  -24.2970   11.6740 C   0  0  0  0  0  0  0  0  0  0  0  0
  -11.8250  -24.1150   10.2780 C   0  0  0  0  0  0  0  0  0  0  0  0
  -11.2350  -22.8050    9.8180 C   0  0  0  0  0  0  0  0  0  0  0  0
  -10.3460  -22.2980   10.4960 O   0  0  0  0  0  0  0  0  0  0  0  0
  -11.7450  -22.2650    8.6530 N   0  0  0  0  0  0  0  0  0  0  0  0
  -11.3800  -21.0630    8.0020 C   0  0  0  0  0  0  0  0  0  0  0  0
  -12.0490  -19.8540    8.2260 C   0  0  0  0  0  0  0  0  0  0  0  0
  -11.6580  -18.6910    7.5630 C   0  0  0  0  0  0  0  0  0  0  0  0
  -12.3270  -17.5550    7.8080 F   0  0  0  0  0  0  0  0  0  0  0  0
  -10.5990  -18.7000    6.6670 C   0  0  0  0  0  0  0  0  0  0  0  0
  -10.2080  -17.5010    5.9930 C   0  0  0  0  0  0  0  0  0  0  0  0
   -9.8590  -16.5510    5.4260 N   0  0  0  0  0  0  0  0  0  0  0  0
   -9.9210  -19.8980    6.4300 C   0  0  0  0  0  0  0  0  0  0  0  0
  -10.3000  -21.0850    7.0900 C   0  0  0  0  0  0  0  0  0  0  0  0
   -9.5260  -22.3420    6.7900 C   0  0  0  0  0  0  0  0  0  0  0  0
  -11.9325  -26.9926    7.8681 H   0  0  0  0  0  0  0  0  0  0  0  0
  -12.9394  -26.2070    6.6049 H   0  0  0  0  0  0  0  0  0  0  0  0
  -11.1579  -25.9773    6.6049 H   0  0  0  0  0  0  0  0  0  0  0  0
  -13.1736  -27.1232    9.3423 H   0  0  0  0  0  0  0  0  0  0  0  0
  -13.3024  -27.3971   11.8114 H   0  0  0  0  0  0  0  0  0  0  0  0
  -12.4908  -25.5852   13.3148 H   0  0  0  0  0  0  0  0  0  0  0  0
  -11.5499  -23.5008   12.3432 H   0  0  0  0  0  0  0  0  0  0  0  0
  -12.4780  -22.8150    8.2190 H   0  0  0  0  0  0  0  0  0  0  0  0
  -12.8917  -19.8209    8.9322 H   0  0  0  0  0  0  0  0  0  0  0  0
   -9.0812  -19.9157    5.7198 H   0  0  0  0  0  0  0  0  0  0  0  0
   -9.2293  -22.8238    7.7333 H   0  0  0  0  0  0  0  0  0  0  0  0
  -10.1565  -23.0310    6.2088 H   0  0  0  0  0  0  0  0  0  0  0  0
   -8.6270  -22.0891    6.2088 H   0  0  0  0  0  0  0  0  0  0  0  0
  1  2  1  0
  2  3  1  0
  3  4  2  0
  4  5  1  0
  5  6  2  0
  6  7  1  0
  7  8  2  0
  8  9  1  0
  9 10  2  0
  9 11  1  0
 11 12  1  0
 12 13  2  0
 13 14  1  0
 14 15  1  0
 14 16  2  0
 16 17  1  0
 17 18  3  0
 16 19  1  0
 19 20  2  0
 20 21  1  0
  8  3  1  0
 20 12  1  0
  1 22  1  0
  1 23  1  0
  1 24  1  0
  4 25  1  0
  5 26  1  0
  6 27  1  0
  7 28  1  0
 11 29  1  0
 13 30  1  0
 19 31  1  0
 21 32  1  0
 21 33  1  0
 21 34  1  0
M  END
>  <meeko>  (5) 
{"is_sidechain": [false], "free_energy": -6.452, "intermolecular_energy": -7.631, "internal_energy": -0.687}

$$$$
GEN_POIOHHCKCDKCNL__M_PUB_ALL__e8__s20260927
     RDKit          3D

 34 35  0  0  0  0  0  0  0  0999 V2000
   10.9860   -9.8530   14.0090 C   0  0  0  0  0  0  0  0  0  0  0  0
   12.3150  -10.3690   14.0120 O   0  0  0  0  0  0  0  0  0  0  0  0
   12.5540  -11.5330   13.3220 C   0  0  0  0  0  0  0  0  0  0  0  0
   11.9330  -12.7520   13.6420 C   0  0  0  0  0  0  0  0  0  0  0  0
   12.2060  -13.9120   12.9130 C   0  0  0  0  0  0  0  0  0  0  0  0
   13.1030  -13.8730   11.8540 C   0  0  0  0  0  0  0  0  0  0  0  0
   13.7260  -12.6720   11.5230 C   0  0  0  0  0  0  0  0  0  0  0  0
   13.4670  -11.4880   12.2450 C   0  0  0  0  0  0  0  0  0  0  0  0
   14.2090  -10.2590   11.7820 C   0  0  0  0  0  0  0  0  0  0  0  0
   13.8250   -9.6980   10.7600 O   0  0  0  0  0  0  0  0  0  0  0  0
   15.2810   -9.8490   12.5530 N   0  0  0  0  0  0  0  0  0  0  0  0
   16.1400   -8.7430   12.3540 C   0  0  0  0  0  0  0  0  0  0  0  0
   15.7130   -7.5590   11.7430 C   0  0  0  0  0  0  0  0  0  0  0  0
   16.5920   -6.4910   11.5650 C   0  0  0  0  0  0  0  0  0  0  0  0
   16.1390   -5.3750   10.9760 F   0  0  0  0  0  0  0  0  0  0  0  0
   17.9110   -6.5740   11.9870 C   0  0  0  0  0  0  0  0  0  0  0  0
   18.8040   -5.4730   11.7980 C   0  0  0  0  0  0  0  0  0  0  0  0
   19.5600   -4.6030   11.6640 N   0  0  0  0  0  0  0  0  0  0  0  0
   18.3560   -7.7490   12.5980 C   0  0  0  0  0  0  0  0  0  0  0  0
   17.4830   -8.8390   12.7860 C   0  0  0  0  0  0  0  0  0  0  0  0
   18.0270  -10.0760   13.4520 C   0  0  0  0  0  0  0  0  0  0  0  0
   10.6422   -9.7195   15.0453 H   0  0  0  0  0  0  0  0  0  0  0  0
   10.9703   -8.8834   13.4897 H   0  0  0  0  0  0  0  0  0  0  0  0
   10.3201  -10.5579   13.4897 H   0  0  0  0  0  0  0  0  0  0  0  0
   11.2209  -12.7936   14.4794 H   0  0  0  0  0  0  0  0  0  0  0  0
   11.7098  -14.8572   13.1783 H   0  0  0  0  0  0  0  0  0  0  0  0
   13.3205  -14.7855   11.2795 H   0  0  0  0  0  0  0  0  0  0  0  0
   14.4342  -12.6462   10.6817 H   0  0  0  0  0  0  0  0  0  0  0  0
   15.4620  -10.4280   13.3650 H   0  0  0  0  0  0  0  0  0  0  0  0
   14.6720   -7.4695   11.3991 H   0  0  0  0  0  0  0  0  0  0  0  0
   19.4000   -7.8241   12.9362 H   0  0  0  0  0  0  0  0  0  0  0  0
   17.9748   -9.9574   14.5443 H   0  0  0  0  0  0  0  0  0  0  0  0
   17.4295  -10.9485   13.1490 H   0  0  0  0  0  0  0  0  0  0  0  0
   19.0738  -10.2253   13.1490 H   0  0  0  0  0  0  0  0  0  0  0  0
  1  2  1  0
  2  3  1  0
  3  4  2  0
  4  5  1  0
  5  6  2  0
  6  7  1  0
  7  8  2  0
  8  9  1  0
  9 10  2  0
  9 11  1  0
 11 12  1  0
 12 13  2  0
 13 14  1  0
 14 15  1  0
 14 16  2  0
 16 17  1  0
 17 18  3  0
 16 19  1  0
 19 20  2  0
 20 21  1  0
  8  3  1  0
 20 12  1  0
  1 22  1  0
  1 23  1  0
  1 24  1  0
  4 25  1  0
  5 26  1  0
  6 27  1  0
  7 28  1  0
 11 29  1  0
 13 30  1  0
 19 31  1  0
 21 32  1  0
 21 33  1  0
 21 34  1  0
M  END
>  <meeko>  (6) 
{"is_sidechain": [false], "free_energy": -6.406, "intermolecular_energy": -7.931, "internal_energy": -0.332}

$$$$
GEN_POIOHHCKCDKCNL__M_PUB_ALL__e8__s20260927
     RDKit          3D

 34 35  0  0  0  0  0  0  0  0999 V2000
   -0.7750  -14.1160    0.9970 C   0  0  0  0  0  0  0  0  0  0  0  0
    0.0430  -13.2380    1.7670 O   0  0  0  0  0  0  0  0  0  0  0  0
   -0.3470  -11.9240    1.8740 C   0  0  0  0  0  0  0  0  0  0  0  0
   -1.3540  -11.4950    2.7550 C   0  0  0  0  0  0  0  0  0  0  0  0
   -1.7180  -10.1480    2.8290 C   0  0  0  0  0  0  0  0  0  0  0  0
   -1.0850   -9.2110    2.0260 C   0  0  0  0  0  0  0  0  0  0  0  0
   -0.0840   -9.6200    1.1470 C   0  0  0  0  0  0  0  0  0  0  0  0
    0.3010  -10.9740    1.0540 C   0  0  0  0  0  0  0  0  0  0  0  0
    1.3960  -11.2800    0.0620 C   0  0  0  0  0  0  0  0  0  0  0  0
    2.5300  -11.4760    0.4920 O   0  0  0  0  0  0  0  0  0  0  0  0
    1.0390  -11.3190   -1.2720 N   0  0  0  0  0  0  0  0  0  0  0  0
    1.8550  -11.5800   -2.3980 C   0  0  0  0  0  0  0  0  0  0  0  0
    2.3970  -10.5590   -3.1860 C   0  0  0  0  0  0  0  0  0  0  0  0
    3.1960  -10.8580   -4.2890 C   0  0  0  0  0  0  0  0  0  0  0  0
    3.6950   -9.8480   -5.0170 F   0  0  0  0  0  0  0  0  0  0  0  0
    3.4740  -12.1730   -4.6340 C   0  0  0  0  0  0  0  0  0  0  0  0
    4.2950  -12.4680   -5.7670 C   0  0  0  0  0  0  0  0  0  0  0  0
    4.9560  -12.7510   -6.6780 N   0  0  0  0  0  0  0  0  0  0  0  0
    2.9410  -13.2060   -3.8580 C   0  0  0  0  0  0  0  0  0  0  0  0
    2.1310  -12.9240   -2.7400 C   0  0  0  0  0  0  0  0  0  0  0  0
    1.5890  -14.0840   -1.9460 C   0  0  0  0  0  0  0  0  0  0  0  0
   -1.3671  -14.7516    1.6718 H   0  0  0  0  0  0  0  0  0  0  0  0
   -1.4516  -13.5247    0.3626 H   0  0  0  0  0  0  0  0  0  0  0  0
   -0.1373  -14.7491    0.3626 H   0  0  0  0  0  0  0  0  0  0  0  0
   -1.8631  -12.2301    3.3956 H   0  0  0  0  0  0  0  0  0  0  0  0
   -2.5080   -9.8302    3.5254 H   0  0  0  0  0  0  0  0  0  0  0  0
   -1.3716   -8.1505    2.0827 H   0  0  0  0  0  0  0  0  0  0  0  0
    0.4157   -8.8725    0.5133 H   0  0  0  0  0  0  0  0  0  0  0  0
    0.0590  -11.1330   -1.4510 H   0  0  0  0  0  0  0  0  0  0  0  0
    2.1906   -9.5087   -2.9327 H   0  0  0  0  0  0  0  0  0  0  0  0
    3.1564  -14.2516   -4.1232 H   0  0  0  0  0  0  0  0  0  0  0  0
    1.6885  -13.8711   -0.8714 H   0  0  0  0  0  0  0  0  0  0  0  0
    0.5277  -14.2337   -2.1934 H   0  0  0  0  0  0  0  0  0  0  0  0
    2.1551  -14.9941   -2.1934 H   0  0  0  0  0  0  0  0  0  0  0  0
  1  2  1  0
  2  3  1  0
  3  4  2  0
  4  5  1  0
  5  6  2  0
  6  7  1  0
  7  8  2  0
  8  9  1  0
  9 10  2  0
  9 11  1  0
 11 12  1  0
 12 13  2  0
 13 14  1  0
 14 15  1  0
 14 16  2  0
 16 17  1  0
 17 18  3  0
 16 19  1  0
 19 20  2  0
 20 21  1  0
  8  3  1  0
 20 12  1  0
  1 22  1  0
  1 23  1  0
  1 24  1  0
  4 25  1  0
  5 26  1  0
  6 27  1  0
  7 28  1  0
 11 29  1  0
 13 30  1  0
 19 31  1  0
 21 32  1  0
 21 33  1  0
 21 34  1  0
M  END
>  <meeko>  (7) 
{"is_sidechain": [false], "free_energy": -6.217, "intermolecular_energy": -7.495, "internal_energy": -0.546}

$$$$
GEN_POIOHHCKCDKCNL__M_PUB_ALL__e8__s20260927
     RDKit          3D

 34 35  0  0  0  0  0  0  0  0999 V2000
   12.3690  -12.6310   -9.5670 C   0  0  0  0  0  0  0  0  0  0  0  0
   12.6520  -13.8370   -8.8620 O   0  0  0  0  0  0  0  0  0  0  0  0
   13.8580  -14.4510   -9.0980 C   0  0  0  0  0  0  0  0  0  0  0  0
   14.4060  -14.5930  -10.3840 C   0  0  0  0  0  0  0  0  0  0  0  0
   15.6360  -15.2260  -10.5760 C   0  0  0  0  0  0  0  0  0  0  0  0
   16.3380  -15.7260   -9.4890 C   0  0  0  0  0  0  0  0  0  0  0  0
   15.8100  -15.5930   -8.2070 C   0  0  0  0  0  0  0  0  0  0  0  0
   14.5700  -14.9590   -7.9870 C   0  0  0  0  0  0  0  0  0  0  0  0
   14.1140  -14.8820   -6.5510 C   0  0  0  0  0  0  0  0  0  0  0  0
   14.3370  -15.8420   -5.8190 O   0  0  0  0  0  0  0  0  0  0  0  0
   13.4700  -13.7240   -6.1600 N   0  0  0  0  0  0  0  0  0  0  0  0
   12.9450  -13.3900   -4.8900 C   0  0  0  0  0  0  0  0  0  0  0  0
   13.6500  -12.6080   -3.9680 C   0  0  0  0  0  0  0  0  0  0  0  0
   13.0980  -12.3010   -2.7250 C   0  0  0  0  0  0  0  0  0  0  0  0
   13.8090  -11.5490   -1.8720 F   0  0  0  0  0  0  0  0  0  0  0  0
   11.8380  -12.7620   -2.3690 C   0  0  0  0  0  0  0  0  0  0  0  0
   11.2820  -12.4410   -1.0910 C   0  0  0  0  0  0  0  0  0  0  0  0
   10.7950  -12.2030   -0.0650 N   0  0  0  0  0  0  0  0  0  0  0  0
   11.1200  -13.5440   -3.2770 C   0  0  0  0  0  0  0  0  0  0  0  0
   11.6610  -13.8650   -4.5380 C   0  0  0  0  0  0  0  0  0  0  0  0
   10.8340  -14.7120   -5.4700 C   0  0  0  0  0  0  0  0  0  0  0  0
   12.1790  -11.8214   -8.8470 H   0  0  0  0  0  0  0  0  0  0  0  0
   13.2292  -12.3653  -10.1990 H   0  0  0  0  0  0  0  0  0  0  0  0
   11.4804  -12.7756  -10.1990 H   0  0  0  0  0  0  0  0  0  0  0  0
   13.8579  -14.1996  -11.2528 H   0  0  0  0  0  0  0  0  0  0  0  0
   16.0487  -15.3282  -11.5905 H   0  0  0  0  0  0  0  0  0  0  0  0
   17.3068  -16.2250   -9.6388 H   0  0  0  0  0  0  0  0  0  0  0  0
   16.3717  -15.9906   -7.3489 H   0  0  0  0  0  0  0  0  0  0  0  0
   13.3680  -13.0300   -6.8940 H   0  0  0  0  0  0  0  0  0  0  0  0
   14.6506  -12.2314   -4.2268 H   0  0  0  0  0  0  0  0  0  0  0  0
   10.1204  -13.9136   -3.0044 H   0  0  0  0  0  0  0  0  0  0  0  0
   10.1846  -15.3772   -4.8820 H   0  0  0  0  0  0  0  0  0  0  0  0
   10.2142  -14.0612   -6.1042 H   0  0  0  0  0  0  0  0  0  0  0  0
   11.4995  -15.3161   -6.1042 H   0  0  0  0  0  0  0  0  0  0  0  0
  1  2  1  0
  2  3  1  0
  3  4  2  0
  4  5  1  0
  5  6  2  0
  6  7  1  0
  7  8  2  0
  8  9  1  0
  9 10  2  0
  9 11  1  0
 11 12  1  0
 12 13  2  0
 13 14  1  0
 14 15  1  0
 14 16  2  0
 16 17  1  0
 17 18  3  0
 16 19  1  0
 19 20  2  0
 20 21  1  0
  8  3  1  0
 20 12  1  0
  1 22  1  0
  1 23  1  0
  1 24  1  0
  4 25  1  0
  5 26  1  0
  6 27  1  0
  7 28  1  0
 11 29  1  0
 13 30  1  0
 19 31  1  0
 21 32  1  0
 21 33  1  0
 21 34  1  0
M  END
>  <meeko>  (8) 
{"is_sidechain": [false], "free_energy": -6.206, "intermolecular_energy": -7.323, "internal_energy": -0.705}

$$$$
GEN_POIOHHCKCDKCNL__M_PUB_ALL__e8__s20260927
     RDKit          3D

 34 35  0  0  0  0  0  0  0  0999 V2000
    9.0270  -13.1420   -2.1340 C   0  0  0  0  0  0  0  0  0  0  0  0
   10.3690  -13.5110   -1.8250 O   0  0  0  0  0  0  0  0  0  0  0  0
   11.1450  -12.6030   -1.1450 C   0  0  0  0  0  0  0  0  0  0  0  0
   10.8900  -12.2220    0.1830 C   0  0  0  0  0  0  0  0  0  0  0  0
   11.7060  -11.2940    0.8340 C   0  0  0  0  0  0  0  0  0  0  0  0
   12.7880  -10.7330    0.1710 C   0  0  0  0  0  0  0  0  0  0  0  0
   13.0550  -11.1010   -1.1460 C   0  0  0  0  0  0  0  0  0  0  0  0
   12.2460  -12.0350   -1.8250 C   0  0  0  0  0  0  0  0  0  0  0  0
   12.6460  -12.3430   -3.2470 C   0  0  0  0  0  0  0  0  0  0  0  0
   13.0370  -11.4190   -3.9540 O   0  0  0  0  0  0  0  0  0  0  0  0
   12.5420  -13.6600   -3.6540 N   0  0  0  0  0  0  0  0  0  0  0  0
   12.8460  -14.2210   -4.9160 C   0  0  0  0  0  0  0  0  0  0  0  0
   14.1520  -14.5460   -5.2980 C   0  0  0  0  0  0  0  0  0  0  0  0
   14.4110  -15.0980   -6.5530 C   0  0  0  0  0  0  0  0  0  0  0  0
   15.6780  -15.3950   -6.8770 F   0  0  0  0  0  0  0  0  0  0  0  0
   13.3830  -15.3380   -7.4540 C   0  0  0  0  0  0  0  0  0  0  0  0
   13.6610  -15.9040   -8.7370 C   0  0  0  0  0  0  0  0  0  0  0  0
   13.8430  -16.3610   -9.7880 N   0  0  0  0  0  0  0  0  0  0  0  0
   12.0730  -15.0190   -7.0890 C   0  0  0  0  0  0  0  0  0  0  0  0
   11.7910  -14.4600   -5.8260 C   0  0  0  0  0  0  0  0  0  0  0  0
   10.3560  -14.1400   -5.4970 C   0  0  0  0  0  0  0  0  0  0  0  0
    8.4651  -12.9875   -1.2010 H   0  0  0  0  0  0  0  0  0  0  0  0
    9.0283  -12.2109   -2.7197 H   0  0  0  0  0  0  0  0  0  0  0  0
    8.5521  -13.9429   -2.7197 H   0  0  0  0  0  0  0  0  0  0  0  0
   10.0350  -12.6611    0.7180 H   0  0  0  0  0  0  0  0  0  0  0  0
   11.4905  -11.0075    1.8739 H   0  0  0  0  0  0  0  0  0  0  0  0
   13.4314  -10.0018    0.6823 H   0  0  0  0  0  0  0  0  0  0  0  0
   13.9145  -10.6537   -1.6667 H   0  0  0  0  0  0  0  0  0  0  0  0
   12.2000  -14.2960   -2.9410 H   0  0  0  0  0  0  0  0  0  0  0  0
   14.9837  -14.3644   -4.6014 H   0  0  0  0  0  0  0  0  0  0  0  0
   11.2512  -15.2063   -7.7959 H   0  0  0  0  0  0  0  0  0  0  0  0
   10.2278  -14.1114   -4.4049 H   0  0  0  0  0  0  0  0  0  0  0  0
   10.0917  -13.1609   -5.9230 H   0  0  0  0  0  0  0  0  0  0  0  0
    9.7008  -14.9141   -5.9230 H   0  0  0  0  0  0  0  0  0  0  0  0
  1  2  1  0
  2  3  1  0
  3  4  2  0
  4  5  1  0
  5  6  2  0
  6  7  1  0
  7  8  2  0
  8  9  1  0
  9 10  2  0
  9 11  1  0
 11 12  1  0
 12 13  2  0
 13 14  1  0
 14 15  1  0
 14 16  2  0
 16 17  1  0
 17 18  3  0
 16 19  1  0
 19 20  2  0
 20 21  1  0
  8  3  1  0
 20 12  1  0
  1 22  1  0
  1 23  1  0
  1 24  1  0
  4 25  1  0
  5 26  1  0
  6 27  1  0
  7 28  1  0
 11 29  1  0
 13 30  1  0
 19 31  1  0
 21 32  1  0
 21 33  1  0
 21 34  1  0
M  END
>  <meeko>  (9) 
{"is_sidechain": [false], "free_energy": -6.206, "intermolecular_energy": -7.203, "internal_energy": -0.825}

$$$$
