GEN_GMELVXXUXAFBRT__M_PUB_ALL__e8__s20260927
     RDKit          3D

 29 31  0  0  0  0  0  0  0  0999 V2000
   11.3160  -15.1590   12.8200 O   0  0  0  0  0  0  0  0  0  0  0  0
   11.0860  -14.0490   12.2530 C   0  0  0  0  0  0  0  0  0  0  0  0
   10.0340  -13.7180   11.6260 O   0  0  0  0  0  0  0  0  0  0  0  0
   12.1880  -13.0120   12.3100 C   0  0  0  0  0  0  0  0  0  0  0  0
   13.4410  -13.2540   11.7420 C   0  0  0  0  0  0  0  0  0  0  0  0
   14.4380  -12.2750   11.7640 C   0  0  0  0  0  0  0  0  0  0  0  0
   14.2150  -11.0150   12.3510 C   0  0  0  0  0  0  0  0  0  0  0  0
   12.9420  -10.7720   12.9300 C   0  0  0  0  0  0  0  0  0  0  0  0
   11.9590  -11.7710   12.9170 C   0  0  0  0  0  0  0  0  0  0  0  0
   12.5470   -9.4930   13.5520 C   0  0  0  0  0  0  0  0  0  0  0  0
   12.8360   -8.2880   13.0450 C   0  0  0  0  0  0  0  0  0  0  0  0
   13.5890   -8.2250   11.8380 N   0  0  0  0  0  0  0  0  0  0  0  0
   14.9860   -8.6270   12.0360 C   0  0  0  0  0  0  0  0  0  0  0  0
   15.9830   -7.6480   11.9740 C   0  0  0  0  0  0  0  0  0  0  0  0
   17.3110   -8.0110   12.1830 C   0  0  0  0  0  0  0  0  0  0  0  0
   17.6330   -9.3380   12.4570 C   0  0  0  0  0  0  0  0  0  0  0  0
   16.6300  -10.3120   12.5180 C   0  0  0  0  0  0  0  0  0  0  0  0
   15.2820   -9.9820   12.3020 C   0  0  0  0  0  0  0  0  0  0  0  0
   13.6455  -14.2271   11.2716 H   0  0  0  0  0  0  0  0  0  0  0  0
   15.4174  -12.4934   11.3133 H   0  0  0  0  0  0  0  0  0  0  0  0
   10.9870  -11.5761   13.3937 H   0  0  0  0  0  0  0  0  0  0  0  0
   11.9785   -9.5324   14.4929 H   0  0  0  0  0  0  0  0  0  0  0  0
   12.5001   -7.3694   13.5484 H   0  0  0  0  0  0  0  0  0  0  0  0
   13.5520   -7.3000   11.4000 H   0  0  0  0  0  0  0  0  0  0  0  0
   13.1930   -8.8750   11.1370 H   0  0  0  0  0  0  0  0  0  0  0  0
   15.7205   -6.6010   11.7621 H   0  0  0  0  0  0  0  0  0  0  0  0
   18.1045   -7.2509   12.1318 H   0  0  0  0  0  0  0  0  0  0  0  0
   18.6820   -9.6222   12.6265 H   0  0  0  0  0  0  0  0  0  0  0  0
   16.9022  -11.3546   12.7391 H   0  0  0  0  0  0  0  0  0  0  0  0
  1  2  2  0
  2  3  1  0
  2  4  1  0
  4  5  2  0
  5  6  1  0
  6  7  2  0
  7  8  1  0
  8  9  2  0
  8 10  1  0
 10 11  2  0
 11 12  1  0
 12 13  1  0
 13 14  2  0
 14 15  1  0
 15 16  2  0
 16 17  1  0
 17 18  2  0
  9  4  1  0
 18 13  1  0
 18  7  1  0
  5 19  1  0
  6 20  1  0
  9 21  1  0
 10 22  1  0
 11 23  1  0
 12 24  1  0
 12 25  1  0
 14 26  1  0
 15 27  1  0
 16 28  1  0
 17 29  1  0
M  CHG  2   3  -1  12   1
M  END
>  <meeko>  (1) 
{"is_sidechain": [false], "free_energy": -7.315, "intermolecular_energy": -7.742, "internal_energy": -0.076}

$$$$
GEN_GMELVXXUXAFBRT__M_PUB_ALL__e8__s20260927
     RDKit          3D

 29 31  0  0  0  0  0  0  0  0999 V2000
   19.4650   -7.1660   13.3270 O   0  0  0  0  0  0  0  0  0  0  0  0
   18.6170   -7.0280   12.3960 C   0  0  0  0  0  0  0  0  0  0  0  0
   18.5930   -6.1120   11.5170 O   0  0  0  0  0  0  0  0  0  0  0  0
   17.5000   -8.0490   12.3300 C   0  0  0  0  0  0  0  0  0  0  0  0
   17.7560   -9.4130   12.4940 C   0  0  0  0  0  0  0  0  0  0  0  0
   16.7140  -10.3430   12.4730 C   0  0  0  0  0  0  0  0  0  0  0  0
   15.3760   -9.9420   12.2920 C   0  0  0  0  0  0  0  0  0  0  0  0
   15.1190   -8.5560   12.1230 C   0  0  0  0  0  0  0  0  0  0  0  0
   16.1780   -7.6370   12.1280 C   0  0  0  0  0  0  0  0  0  0  0  0
   13.7710   -7.9790   11.9570 C   0  0  0  0  0  0  0  0  0  0  0  0
   12.6970   -8.3580   12.6610 C   0  0  0  0  0  0  0  0  0  0  0  0
   12.8520   -9.3970   13.6220 N   0  0  0  0  0  0  0  0  0  0  0  0
   13.0690  -10.7050   12.9930 C   0  0  0  0  0  0  0  0  0  0  0  0
   12.0460  -11.6570   13.0510 C   0  0  0  0  0  0  0  0  0  0  0  0
   12.2300  -12.8950   12.4380 C   0  0  0  0  0  0  0  0  0  0  0  0
   13.4210  -13.1690   11.7710 C   0  0  0  0  0  0  0  0  0  0  0  0
   14.4400  -12.2110   11.7170 C   0  0  0  0  0  0  0  0  0  0  0  0
   14.2920  -10.9570   12.3340 C   0  0  0  0  0  0  0  0  0  0  0  0
   18.7900   -9.7582   12.6413 H   0  0  0  0  0  0  0  0  0  0  0  0
   16.9433  -11.4113   12.6005 H   0  0  0  0  0  0  0  0  0  0  0  0
   15.9651   -6.5695   11.9698 H   0  0  0  0  0  0  0  0  0  0  0  0
   13.6400   -7.1860   11.2061 H   0  0  0  0  0  0  0  0  0  0  0  0
   11.7198   -7.8789   12.5010 H   0  0  0  0  0  0  0  0  0  0  0  0
   12.0610   -9.4510   14.2720 H   0  0  0  0  0  0  0  0  0  0  0  0
   13.6800   -9.2150   14.2140 H   0  0  0  0  0  0  0  0  0  0  0  0
   11.1057  -11.4309   13.5751 H   0  0  0  0  0  0  0  0  0  0  0  0
   11.4355  -13.6545   12.4811 H   0  0  0  0  0  0  0  0  0  0  0  0
   13.5621  -14.1448   11.2832 H   0  0  0  0  0  0  0  0  0  0  0  0
   15.3728  -12.4436   11.1824 H   0  0  0  0  0  0  0  0  0  0  0  0
  1  2  2  0
  2  3  1  0
  2  4  1  0
  4  5  2  0
  5  6  1  0
  6  7  2  0
  7  8  1  0
  8  9  2  0
  8 10  1  0
 10 11  2  0
 11 12  1  0
 12 13  1  0
 13 14  2  0
 14 15  1  0
 15 16  2  0
 16 17  1  0
 17 18  2  0
  9  4  1  0
 18 13  1  0
 18  7  1  0
  5 19  1  0
  6 20  1  0
  9 21  1  0
 10 22  1  0
 11 23  1  0
 12 24  1  0
 12 25  1  0
 14 26  1  0
 15 27  1  0
 16 28  1  0
 17 29  1  0
M  CHG  2   3  -1  12   1
M  END
>  <meeko>  (2) 
{"is_sidechain": [false], "free_energy": -7.19, "intermolecular_energy": -7.607, "internal_energy": -0.08}

$$$$
GEN_GMELVXXUXAFBRT__M_PUB_ALL__e8__s20260927
     RDKit          3D

 29 31  0  0  0  0  0  0  0  0999 V2000
   13.3340  -18.4790   -3.1220 O   0  0  0  0  0  0  0  0  0  0  0  0
   13.0850  -17.4230   -3.7770 C   0  0  0  0  0  0  0  0  0  0  0  0
   13.0740  -17.2940   -5.0400 O   0  0  0  0  0  0  0  0  0  0  0  0
   12.7860  -16.1750   -2.9730 C   0  0  0  0  0  0  0  0  0  0  0  0
   12.4160  -16.2510   -1.6280 C   0  0  0  0  0  0  0  0  0  0  0  0
   12.1830  -15.0920   -0.8840 C   0  0  0  0  0  0  0  0  0  0  0  0
   12.3160  -13.8130   -1.4570 C   0  0  0  0  0  0  0  0  0  0  0  0
   12.6890  -13.7380   -2.8250 C   0  0  0  0  0  0  0  0  0  0  0  0
   12.9010  -14.9110   -3.5630 C   0  0  0  0  0  0  0  0  0  0  0  0
   12.9000  -12.4740   -3.5570 C   0  0  0  0  0  0  0  0  0  0  0  0
   13.5400  -11.4100   -3.0550 C   0  0  0  0  0  0  0  0  0  0  0  0
   14.0370  -11.4880   -1.7220 N   0  0  0  0  0  0  0  0  0  0  0  0
   12.9580  -11.4780   -0.7280 C   0  0  0  0  0  0  0  0  0  0  0  0
   12.7870  -10.3400    0.0680 C   0  0  0  0  0  0  0  0  0  0  0  0
   11.7530  -10.3080    1.0000 C   0  0  0  0  0  0  0  0  0  0  0  0
   10.8980  -11.4000    1.1260 C   0  0  0  0  0  0  0  0  0  0  0  0
   11.0750  -12.5340    0.3260 C   0  0  0  0  0  0  0  0  0  0  0  0
   12.1150  -12.6050   -0.6160 C   0  0  0  0  0  0  0  0  0  0  0  0
   12.3069  -17.2353   -1.1492 H   0  0  0  0  0  0  0  0  0  0  0  0
   11.8893  -15.1806    0.1724 H   0  0  0  0  0  0  0  0  0  0  0  0
   13.1634  -14.8364   -4.6286 H   0  0  0  0  0  0  0  0  0  0  0  0
   12.5060  -12.4010   -4.5814 H   0  0  0  0  0  0  0  0  0  0  0  0
   13.6784  -10.4994   -3.6563 H   0  0  0  0  0  0  0  0  0  0  0  0
   14.7110  -10.7460   -1.5110 H   0  0  0  0  0  0  0  0  0  0  0  0
   14.5540  -12.3740   -1.5860 H   0  0  0  0  0  0  0  0  0  0  0  0
   13.4628   -9.4790   -0.0414 H   0  0  0  0  0  0  0  0  0  0  0  0
   11.6117   -9.4215    1.6358 H   0  0  0  0  0  0  0  0  0  0  0  0
   10.0784  -11.3708    1.8591 H   0  0  0  0  0  0  0  0  0  0  0  0
   10.3874  -13.3855    0.4365 H   0  0  0  0  0  0  0  0  0  0  0  0
  1  2  2  0
  2  3  1  0
  2  4  1  0
  4  5  2  0
  5  6  1  0
  6  7  2  0
  7  8  1  0
  8  9  2  0
  8 10  1  0
 10 11  2  0
 11 12  1  0
 12 13  1  0
 13 14  2  0
 14 15  1  0
 15 16  2  0
 16 17  1  0
 17 18  2  0
  9  4  1  0
 18 13  1  0
 18  7  1  0
  5 19  1  0
  6 20  1  0
  9 21  1  0
 10 22  1  0
 11 23  1  0
 12 24  1  0
 12 25  1  0
 14 26  1  0
 15 27  1  0
 16 28  1  0
 17 29  1  0
M  CHG  2   3  -1  12   1
M  END
>  <meeko>  (3) 
{"is_sidechain": [false], "free_energy": -6.887, "intermolecular_energy": -7.282, "internal_energy": -0.084}

$$$$
GEN_GMELVXXUXAFBRT__M_PUB_ALL__e8__s20260927
     RDKit          3D

 29 31  0  0  0  0  0  0  0  0999 V2000
   -7.1410  -16.5370   -8.7950 O   0  0  0  0  0  0  0  0  0  0  0  0
   -7.7830  -16.4410   -7.7060 C   0  0  0  0  0  0  0  0  0  0  0  0
   -7.3570  -16.7200   -6.5430 O   0  0  0  0  0  0  0  0  0  0  0  0
   -9.2160  -15.9620   -7.7970 C   0  0  0  0  0  0  0  0  0  0  0  0
   -9.6400  -15.1410   -8.8460 C   0  0  0  0  0  0  0  0  0  0  0  0
  -10.9750  -14.7380   -8.9440 C   0  0  0  0  0  0  0  0  0  0  0  0
  -11.9350  -15.1450   -7.9990 C   0  0  0  0  0  0  0  0  0  0  0  0
  -11.5010  -15.9760   -6.9320 C   0  0  0  0  0  0  0  0  0  0  0  0
  -10.1550  -16.3560   -6.8380 C   0  0  0  0  0  0  0  0  0  0  0  0
  -12.3930  -16.5100   -5.8850 C   0  0  0  0  0  0  0  0  0  0  0  0
  -13.6170  -17.0020   -6.1150 C   0  0  0  0  0  0  0  0  0  0  0  0
  -14.1060  -16.9970   -7.4530 N   0  0  0  0  0  0  0  0  0  0  0  0
  -14.4140  -15.6420   -7.9240 C   0  0  0  0  0  0  0  0  0  0  0  0
  -15.7540  -15.2780   -8.0960 C   0  0  0  0  0  0  0  0  0  0  0  0
  -16.0610  -13.9880   -8.5210 C   0  0  0  0  0  0  0  0  0  0  0  0
  -15.0390  -13.0740   -8.7630 C   0  0  0  0  0  0  0  0  0  0  0  0
  -13.7010  -13.4450   -8.5880 C   0  0  0  0  0  0  0  0  0  0  0  0
  -13.3550  -14.7420   -8.1720 C   0  0  0  0  0  0  0  0  0  0  0  0
   -8.9147  -14.8082   -9.6031 H   0  0  0  0  0  0  0  0  0  0  0  0
  -11.2816  -14.0890   -9.7775 H   0  0  0  0  0  0  0  0  0  0  0  0
   -9.8299  -16.9780   -5.9910 H   0  0  0  0  0  0  0  0  0  0  0  0
  -12.0285  -16.5035   -4.8472 H   0  0  0  0  0  0  0  0  0  0  0  0
  -14.2290  -17.3997   -5.2921 H   0  0  0  0  0  0  0  0  0  0  0  0
  -14.9240  -17.6010   -7.5740 H   0  0  0  0  0  0  0  0  0  0  0  0
  -13.3890  -17.3760   -8.0960 H   0  0  0  0  0  0  0  0  0  0  0  0
  -16.5567  -16.0034   -7.8975 H   0  0  0  0  0  0  0  0  0  0  0  0
  -17.1103  -13.6913   -8.6654 H   0  0  0  0  0  0  0  0  0  0  0  0
  -15.2847  -12.0541   -9.0938 H   0  0  0  0  0  0  0  0  0  0  0  0
  -12.9065  -12.7087   -8.7794 H   0  0  0  0  0  0  0  0  0  0  0  0
  1  2  2  0
  2  3  1  0
  2  4  1  0
  4  5  2  0
  5  6  1  0
  6  7  2  0
  7  8  1  0
  8  9  2  0
  8 10  1  0
 10 11  2  0
 11 12  1  0
 12 13  1  0
 13 14  2  0
 14 15  1  0
 15 16  2  0
 16 17  1  0
 17 18  2  0
  9  4  1  0
 18 13  1  0
 18  7  1  0
  5 19  1  0
  6 20  1  0
  9 21  1  0
 10 22  1  0
 11 23  1  0
 12 24  1  0
 12 25  1  0
 14 26  1  0
 15 27  1  0
 16 28  1  0
 17 29  1  0
M  CHG  2   3  -1  12   1
M  END
>  <meeko>  (4) 
{"is_sidechain": [false], "free_energy": -6.819, "intermolecular_energy": -7.211, "internal_energy": -0.083}

$$$$
GEN_GMELVXXUXAFBRT__M_PUB_ALL__e8__s20260927
     RDKit          3D

 29 31  0  0  0  0  0  0  0  0999 V2000
   13.9370   -9.5400    0.7470 O   0  0  0  0  0  0  0  0  0  0  0  0
   12.8240  -10.1020    0.5240 C   0  0  0  0  0  0  0  0  0  0  0  0
   11.7290   -9.8920    1.1320 O   0  0  0  0  0  0  0  0  0  0  0  0
   12.7940  -11.1500   -0.5690 C   0  0  0  0  0  0  0  0  0  0  0  0
   13.4550  -10.9490   -1.7840 C   0  0  0  0  0  0  0  0  0  0  0  0
   13.4560  -11.9380   -2.7700 C   0  0  0  0  0  0  0  0  0  0  0  0
   12.7990  -13.1680   -2.5750 C   0  0  0  0  0  0  0  0  0  0  0  0
   12.1250  -13.3690   -1.3420 C   0  0  0  0  0  0  0  0  0  0  0  0
   12.1170  -12.3590   -0.3700 C   0  0  0  0  0  0  0  0  0  0  0  0
   11.4210  -14.6140   -0.9770 C   0  0  0  0  0  0  0  0  0  0  0  0
   11.8900  -15.8440   -1.2200 C   0  0  0  0  0  0  0  0  0  0  0  0
   13.1410  -15.9700   -1.8890 N   0  0  0  0  0  0  0  0  0  0  0  0
   13.0560  -15.5770   -3.3000 C   0  0  0  0  0  0  0  0  0  0  0  0
   13.1400  -16.5710   -4.2810 C   0  0  0  0  0  0  0  0  0  0  0  0
   13.0370  -16.2160   -5.6240 C   0  0  0  0  0  0  0  0  0  0  0  0
   12.8460  -14.8820   -5.9760 C   0  0  0  0  0  0  0  0  0  0  0  0
   12.7620  -13.8940   -4.9900 C   0  0  0  0  0  0  0  0  0  0  0  0
   12.8720  -14.2160   -3.6260 C   0  0  0  0  0  0  0  0  0  0  0  0
   13.9809  -10.0001   -1.9658 H   0  0  0  0  0  0  0  0  0  0  0  0
   13.9809  -11.7522   -3.7186 H   0  0  0  0  0  0  0  0  0  0  0  0
   11.5671  -12.5199    0.5690 H   0  0  0  0  0  0  0  0  0  0  0  0
   10.4476  -14.5253   -0.4725 H   0  0  0  0  0  0  0  0  0  0  0  0
   11.3236  -16.7348   -0.9108 H   0  0  0  0  0  0  0  0  0  0  0  0
   13.5330  -16.9140   -1.8140 H   0  0  0  0  0  0  0  0  0  0  0  0
   13.8430  -15.3470   -1.4530 H   0  0  0  0  0  0  0  0  0  0  0  0
   13.2860  -17.6229   -3.9944 H   0  0  0  0  0  0  0  0  0  0  0  0
   13.1064  -16.9876   -6.4049 H   0  0  0  0  0  0  0  0  0  0  0  0
   12.7607  -14.6038   -7.0368 H   0  0  0  0  0  0  0  0  0  0  0  0
   12.6071  -12.8462   -5.2869 H   0  0  0  0  0  0  0  0  0  0  0  0
  1  2  2  0
  2  3  1  0
  2  4  1  0
  4  5  2  0
  5  6  1  0
  6  7  2  0
  7  8  1  0
  8  9  2  0
  8 10  1  0
 10 11  2  0
 11 12  1  0
 12 13  1  0
 13 14  2  0
 14 15  1  0
 15 16  2  0
 16 17  1  0
 17 18  2  0
  9  4  1  0
 18 13  1  0
 18  7  1  0
  5 19  1  0
  6 20  1  0
  9 21  1  0
 10 22  1  0
 11 23  1  0
 12 24  1  0
 12 25  1  0
 14 26  1  0
 15 27  1  0
 16 28  1  0
 17 29  1  0
M  CHG  2   3  -1  12   1
M  END
>  <meeko>  (5) 
{"is_sidechain": [false], "free_energy": -6.577, "intermolecular_energy": -6.958, "internal_energy": -0.08}

$$$$
GEN_GMELVXXUXAFBRT__M_PUB_ALL__e8__s20260927
     RDKit          3D

 29 31  0  0  0  0  0  0  0  0999 V2000
    6.7570  -10.5610    1.4360 O   0  0  0  0  0  0  0  0  0  0  0  0
    7.1390  -11.7670    1.3480 C   0  0  0  0  0  0  0  0  0  0  0  0
    6.6850  -12.7590    1.9960 O   0  0  0  0  0  0  0  0  0  0  0  0
    8.2690  -12.0570    0.3830 C   0  0  0  0  0  0  0  0  0  0  0  0
    8.0330  -12.2070   -0.9860 C   0  0  0  0  0  0  0  0  0  0  0  0
    9.0880  -12.4330   -1.8730 C   0  0  0  0  0  0  0  0  0  0  0  0
   10.4190  -12.5140   -1.4240 C   0  0  0  0  0  0  0  0  0  0  0  0
   10.6570  -12.3640   -0.0320 C   0  0  0  0  0  0  0  0  0  0  0  0
    9.5860  -12.1560    0.8470 C   0  0  0  0  0  0  0  0  0  0  0  0
   11.9970  -12.3910    0.5850 C   0  0  0  0  0  0  0  0  0  0  0  0
   13.0770  -11.7870    0.0710 C   0  0  0  0  0  0  0  0  0  0  0  0
   12.9360  -11.0860   -1.1600 N   0  0  0  0  0  0  0  0  0  0  0  0
   12.7360  -11.9950   -2.2950 C   0  0  0  0  0  0  0  0  0  0  0  0
   13.7730  -12.1510   -3.2220 C   0  0  0  0  0  0  0  0  0  0  0  0
   13.6070  -13.0280   -4.2910 C   0  0  0  0  0  0  0  0  0  0  0  0
   12.4190  -13.7430   -4.4230 C   0  0  0  0  0  0  0  0  0  0  0  0
   11.3880  -13.5830   -3.4920 C   0  0  0  0  0  0  0  0  0  0  0  0
   11.5180  -12.6990   -2.4080 C   0  0  0  0  0  0  0  0  0  0  0  0
    7.0039  -12.1464   -1.3698 H   0  0  0  0  0  0  0  0  0  0  0  0
    8.8737  -12.5502   -2.9455 H   0  0  0  0  0  0  0  0  0  0  0  0
    9.7844  -12.0686    1.9254 H   0  0  0  0  0  0  0  0  0  0  0  0
   12.1173  -12.9431    1.5288 H   0  0  0  0  0  0  0  0  0  0  0  0
   14.0475  -11.8317    0.5869 H   0  0  0  0  0  0  0  0  0  0  0  0
   13.7260  -10.4620   -1.3490 H   0  0  0  0  0  0  0  0  0  0  0  0
   12.1040  -10.4710   -1.1270 H   0  0  0  0  0  0  0  0  0  0  0  0
   14.7100  -11.5864   -3.1073 H   0  0  0  0  0  0  0  0  0  0  0  0
   14.4123  -13.1557   -5.0294 H   0  0  0  0  0  0  0  0  0  0  0  0
   12.2909  -14.4385   -5.2656 H   0  0  0  0  0  0  0  0  0  0  0  0
   10.4587  -14.1595   -3.6105 H   0  0  0  0  0  0  0  0  0  0  0  0
  1  2  2  0
  2  3  1  0
  2  4  1  0
  4  5  2  0
  5  6  1  0
  6  7  2  0
  7  8  1  0
  8  9  2  0
  8 10  1  0
 10 11  2  0
 11 12  1  0
 12 13  1  0
 13 14  2  0
 14 15  1  0
 15 16  2  0
 16 17  1  0
 17 18  2  0
  9  4  1  0
 18 13  1  0
 18  7  1  0
  5 19  1  0
  6 20  1  0
  9 21  1  0
 10 22  1  0
 11 23  1  0
 12 24  1  0
 12 25  1  0
 14 26  1  0
 15 27  1  0
 16 28  1  0
 17 29  1  0
M  CHG  2   3  -1  12   1
M  END
>  <meeko>  (6) 
{"is_sidechain": [false], "free_energy": -6.519, "intermolecular_energy": -6.902, "internal_energy": -0.074}

$$$$
GEN_GMELVXXUXAFBRT__M_PUB_ALL__e8__s20260927
     RDKit          3D

 29 31  0  0  0  0  0  0  0  0999 V2000
   -0.9510  -18.0610    4.0420 O   0  0  0  0  0  0  0  0  0  0  0  0
   -1.5050  -17.5940    3.0020 C   0  0  0  0  0  0  0  0  0  0  0  0
   -1.9460  -18.2550    2.0120 O   0  0  0  0  0  0  0  0  0  0  0  0
   -1.6390  -16.0880    2.9160 C   0  0  0  0  0  0  0  0  0  0  0  0
   -0.6160  -15.2440    3.3570 C   0  0  0  0  0  0  0  0  0  0  0  0
   -0.7320  -13.8560    3.2350 C   0  0  0  0  0  0  0  0  0  0  0  0
   -1.8740  -13.2630    2.6650 C   0  0  0  0  0  0  0  0  0  0  0  0
   -2.9130  -14.1230    2.2210 C   0  0  0  0  0  0  0  0  0  0  0  0
   -2.7900  -15.5110    2.3670 C   0  0  0  0  0  0  0  0  0  0  0  0
   -4.1540  -13.6550    1.5740 C   0  0  0  0  0  0  0  0  0  0  0  0
   -4.2030  -12.6890    0.6480 C   0  0  0  0  0  0  0  0  0  0  0  0
   -2.9860  -12.0540    0.2690 N   0  0  0  0  0  0  0  0  0  0  0  0
   -2.4560  -11.1930    1.3330 C   0  0  0  0  0  0  0  0  0  0  0  0
   -2.5050   -9.8060    1.1630 C   0  0  0  0  0  0  0  0  0  0  0  0
   -2.0260   -8.9760    2.1740 C   0  0  0  0  0  0  0  0  0  0  0  0
   -1.5140   -9.5330    3.3440 C   0  0  0  0  0  0  0  0  0  0  0  0
   -1.4690  -10.9210    3.5070 C   0  0  0  0  0  0  0  0  0  0  0  0
   -1.9330  -11.7870    2.5020 C   0  0  0  0  0  0  0  0  0  0  0  0
    0.2907  -15.6766    3.8051 H   0  0  0  0  0  0  0  0  0  0  0  0
    0.0867  -13.2139    3.5921 H   0  0  0  0  0  0  0  0  0  0  0  0
   -3.6159  -16.1614    2.0432 H   0  0  0  0  0  0  0  0  0  0  0  0
   -5.1002  -14.1305    1.8717 H   0  0  0  0  0  0  0  0  0  0  0  0
   -5.1592  -12.3934    0.1916 H   0  0  0  0  0  0  0  0  0  0  0  0
   -3.0770  -11.5170   -0.5990 H   0  0  0  0  0  0  0  0  0  0  0  0
   -2.2580  -12.7640    0.0760 H   0  0  0  0  0  0  0  0  0  0  0  0
   -2.9180   -9.3742    0.2394 H   0  0  0  0  0  0  0  0  0  0  0  0
   -2.0519   -7.8834    2.0489 H   0  0  0  0  0  0  0  0  0  0  0  0
   -1.1427   -8.8765    4.1447 H   0  0  0  0  0  0  0  0  0  0  0  0
   -1.0632  -11.3427    4.4384 H   0  0  0  0  0  0  0  0  0  0  0  0
  1  2  2  0
  2  3  1  0
  2  4  1  0
  4  5  2  0
  5  6  1  0
  6  7  2  0
  7  8  1  0
  8  9  2  0
  8 10  1  0
 10 11  2  0
 11 12  1  0
 12 13  1  0
 13 14  2  0
 14 15  1  0
 15 16  2  0
 16 17  1  0
 17 18  2  0
  9  4  1  0
 18 13  1  0
 18  7  1  0
  5 19  1  0
  6 20  1  0
  9 21  1  0
 10 22  1  0
 11 23  1  0
 12 24  1  0
 12 25  1  0
 14 26  1  0
 15 27  1  0
 16 28  1  0
 17 29  1  0
M  CHG  2   3  -1  12   1
M  END
>  <meeko>  (7) 
{"is_sidechain": [false], "free_energy": -6.517, "intermolecular_energy": -6.894, "internal_energy": -0.08}

$$$$
GEN_GMELVXXUXAFBRT__M_PUB_ALL__e8__s20260927
     RDKit          3D

 29 31  0  0  0  0  0  0  0  0999 V2000
   12.7760  -15.6470   -6.8880 O   0  0  0  0  0  0  0  0  0  0  0  0
   13.7640  -15.3010   -6.1740 C   0  0  0  0  0  0  0  0  0  0  0  0
   14.9890  -15.5480   -6.3980 O   0  0  0  0  0  0  0  0  0  0  0  0
   13.4560  -14.5260   -4.9100 C   0  0  0  0  0  0  0  0  0  0  0  0
   13.5530  -13.1330   -4.8720 C   0  0  0  0  0  0  0  0  0  0  0  0
   13.2270  -12.4240   -3.7130 C   0  0  0  0  0  0  0  0  0  0  0  0
   12.7890  -13.0840   -2.5500 C   0  0  0  0  0  0  0  0  0  0  0  0
   12.6950  -14.5000   -2.5880 C   0  0  0  0  0  0  0  0  0  0  0  0
   13.0430  -15.1980   -3.7530 C   0  0  0  0  0  0  0  0  0  0  0  0
   12.2210  -15.3290   -1.4630 C   0  0  0  0  0  0  0  0  0  0  0  0
   11.1730  -15.0210   -0.6880 C   0  0  0  0  0  0  0  0  0  0  0  0
   10.4750  -13.8070   -0.9490 N   0  0  0  0  0  0  0  0  0  0  0  0
   11.2650  -12.6250   -0.5840 C   0  0  0  0  0  0  0  0  0  0  0  0
   10.8790  -11.8770    0.5330 C   0  0  0  0  0  0  0  0  0  0  0  0
   11.6320  -10.7660    0.9050 C   0  0  0  0  0  0  0  0  0  0  0  0
   12.7620  -10.4160    0.1690 C   0  0  0  0  0  0  0  0  0  0  0  0
   13.1420  -11.1700   -0.9470 C   0  0  0  0  0  0  0  0  0  0  0  0
   12.3980  -12.2890   -1.3560 C   0  0  0  0  0  0  0  0  0  0  0  0
   13.8902  -12.5874   -5.7657 H   0  0  0  0  0  0  0  0  0  0  0  0
   13.3145  -11.3275   -3.7096 H   0  0  0  0  0  0  0  0  0  0  0  0
   12.9905  -16.2967   -3.7583 H   0  0  0  0  0  0  0  0  0  0  0  0
   12.7639  -16.2609   -1.2467 H   0  0  0  0  0  0  0  0  0  0  0  0
   10.8595  -15.6880    0.1286 H   0  0  0  0  0  0  0  0  0  0  0  0
    9.5620  -13.7720   -0.4840 H   0  0  0  0  0  0  0  0  0  0  0  0
   10.2710  -13.7230   -1.9600 H   0  0  0  0  0  0  0  0  0  0  0  0
    9.9889  -12.1635    1.1123 H   0  0  0  0  0  0  0  0  0  0  0  0
   11.3352  -10.1662    1.7780 H   0  0  0  0  0  0  0  0  0  0  0  0
   13.3592   -9.5416    0.4670 H   0  0  0  0  0  0  0  0  0  0  0  0
   14.0393  -10.8812   -1.5140 H   0  0  0  0  0  0  0  0  0  0  0  0
  1  2  2  0
  2  3  1  0
  2  4  1  0
  4  5  2  0
  5  6  1  0
  6  7  2  0
  7  8  1  0
  8  9  2  0
  8 10  1  0
 10 11  2  0
 11 12  1  0
 12 13  1  0
 13 14  2  0
 14 15  1  0
 15 16  2  0
 16 17  1  0
 17 18  2  0
  9  4  1  0
 18 13  1  0
 18  7  1  0
  5 19  1  0
  6 20  1  0
  9 21  1  0
 10 22  1  0
 11 23  1  0
 12 24  1  0
 12 25  1  0
 14 26  1  0
 15 27  1  0
 16 28  1  0
 17 29  1  0
M  CHG  2   3  -1  12   1
M  END
>  <meeko>  (8) 
{"is_sidechain": [false], "free_energy": -6.503, "intermolecular_energy": -6.885, "internal_energy": -0.074}

$$$$
GEN_GMELVXXUXAFBRT__M_PUB_ALL__e8__s20260927
     RDKit          3D

 29 31  0  0  0  0  0  0  0  0999 V2000
    7.1230  -15.3170   -9.5120 O   0  0  0  0  0  0  0  0  0  0  0  0
    7.5780  -14.3650   -8.8110 C   0  0  0  0  0  0  0  0  0  0  0  0
    8.7250  -13.8290   -8.9060 O   0  0  0  0  0  0  0  0  0  0  0  0
    6.6700  -13.8170   -7.7300 C   0  0  0  0  0  0  0  0  0  0  0  0
    5.8770  -12.6890   -7.9530 C   0  0  0  0  0  0  0  0  0  0  0  0
    5.0110  -12.2150   -6.9640 C   0  0  0  0  0  0  0  0  0  0  0  0
    4.9060  -12.8560   -5.7150 C   0  0  0  0  0  0  0  0  0  0  0  0
    5.7150  -14.0000   -5.4880 C   0  0  0  0  0  0  0  0  0  0  0  0
    6.5920  -14.4520   -6.4850 C   0  0  0  0  0  0  0  0  0  0  0  0
    5.6930  -14.7970   -4.2460 C   0  0  0  0  0  0  0  0  0  0  0  0
    4.5770  -15.1350   -3.5870 C   0  0  0  0  0  0  0  0  0  0  0  0
    3.3270  -14.6850   -4.1010 N   0  0  0  0  0  0  0  0  0  0  0  0
    3.1490  -13.2380   -3.9350 C   0  0  0  0  0  0  0  0  0  0  0  0
    2.2190  -12.7770   -2.9970 C   0  0  0  0  0  0  0  0  0  0  0  0
    2.0560  -11.4060   -2.8130 C   0  0  0  0  0  0  0  0  0  0  0  0
    2.8210  -10.5110   -3.5550 C   0  0  0  0  0  0  0  0  0  0  0  0
    3.7500  -10.9790   -4.4920 C   0  0  0  0  0  0  0  0  0  0  0  0
    3.9320  -12.3550   -4.7110 C   0  0  0  0  0  0  0  0  0  0  0  0
    5.9349  -12.1671   -8.9196 H   0  0  0  0  0  0  0  0  0  0  0  0
    4.3992  -11.3233   -7.1654 H   0  0  0  0  0  0  0  0  0  0  0  0
    7.2320  -15.3239   -6.2843 H   0  0  0  0  0  0  0  0  0  0  0  0
    6.6555  -15.1354   -3.8349 H   0  0  0  0  0  0  0  0  0  0  0  0
    4.6245  -15.7444   -2.6724 H   0  0  0  0  0  0  0  0  0  0  0  0
    2.5310  -15.1820   -3.6890 H   0  0  0  0  0  0  0  0  0  0  0  0
    3.2710  -14.8730   -5.1170 H   0  0  0  0  0  0  0  0  0  0  0  0
    1.6220  -13.4907   -2.4102 H   0  0  0  0  0  0  0  0  0  0  0  0
    1.3239  -11.0313   -2.0825 H   0  0  0  0  0  0  0  0  0  0  0  0
    2.6949   -9.4287   -3.4043 H   0  0  0  0  0  0  0  0  0  0  0  0
    4.3481  -10.2567   -5.0670 H   0  0  0  0  0  0  0  0  0  0  0  0
  1  2  2  0
  2  3  1  0
  2  4  1  0
  4  5  2  0
  5  6  1  0
  6  7  2  0
  7  8  1  0
  8  9  2  0
  8 10  1  0
 10 11  2  0
 11 12  1  0
 12 13  1  0
 13 14  2  0
 14 15  1  0
 15 16  2  0
 16 17  1  0
 17 18  2  0
  9  4  1  0
 18 13  1  0
 18  7  1  0
  5 19  1  0
  6 20  1  0
  9 21  1  0
 10 22  1  0
 11 23  1  0
 12 24  1  0
 12 25  1  0
 14 26  1  0
 15 27  1  0
 16 28  1  0
 17 29  1  0
M  CHG  2   3  -1  12   1
M  END
>  <meeko>  (9) 
{"is_sidechain": [false], "free_energy": -6.38, "intermolecular_energy": -6.755, "internal_energy": -0.074}

$$$$
