GEN_SGWFKASVEJFYMJ__M_PUB_ALL__e8__s20260927
     RDKit          3D

 53 54  0  0  0  0  0  0  0  0999 V2000
    8.3230  -11.5110   -3.4410 C   0  0  0  0  0  0  0  0  0  0  0  0
    7.6520  -12.1310   -2.1940 C   0  0  0  0  0  0  0  0  0  0  0  0
    7.1880  -11.0050   -1.2410 C   0  0  0  0  0  0  0  0  0  0  0  0
    8.7250  -12.9810   -1.4470 C   0  0  0  0  0  0  0  0  0  0  0  0
    9.9510  -12.4090   -0.9540 N   0  0  0  0  0  0  0  0  0  0  0  0
   11.0090  -13.4340   -0.6020 C   0  0  0  0  0  0  0  0  0  0  0  0
   11.9440  -12.9030    0.4850 C   0  0  0  0  0  0  0  0  0  0  0  0
   12.4840  -11.5500    0.0970 C   0  0  0  0  0  0  0  0  0  0  0  0
   13.4700  -11.5360   -0.8280 N   0  0  0  0  0  0  0  0  0  0  0  0
   11.9980  -10.5230    0.5710 O   0  0  0  0  0  0  0  0  0  0  0  0
    8.6020  -14.3090   -1.2960 C   0  0  0  0  0  0  0  0  0  0  0  0
    7.4500  -15.0160   -1.7810 C   0  0  0  0  0  0  0  0  0  0  0  0
    6.4470  -14.4180   -2.4330 C   0  0  0  0  0  0  0  0  0  0  0  0
    5.3680  -15.1960   -2.8300 O   0  0  0  0  0  0  0  0  0  0  0  0
    5.2600  -15.3190   -4.2630 C   0  0  0  0  0  0  0  0  0  0  0  0
    4.6020  -14.0410   -4.7530 C   0  0  0  0  0  0  0  0  0  0  0  0
    4.4490  -13.7100   -5.9140 O   0  0  0  0  0  0  0  0  0  0  0  0
    4.1920  -13.0660   -3.6990 N   0  0  0  0  0  0  0  0  0  0  0  0
    2.9310  -12.2360   -3.9670 C   0  0  0  0  0  0  0  0  0  0  0  0
    3.1680  -11.0780   -4.9470 C   0  0  0  0  0  0  0  0  0  0  0  0
    1.8360  -13.1770   -4.5080 C   0  0  0  0  0  0  0  0  0  0  0  0
    2.4380  -11.6770   -2.6140 C   0  0  0  0  0  0  0  0  0  0  0  0
    5.3530  -12.3290   -3.2700 C   0  0  0  0  0  0  0  0  0  0  0  0
    6.3960  -12.9610   -2.6680 C   0  0  0  0  0  0  0  0  0  0  0  0
    9.0966  -10.7962   -3.1239 H   0  0  0  0  0  0  0  0  0  0  0  0
    8.7845  -12.3075   -4.0432 H   0  0  0  0  0  0  0  0  0  0  0  0
    7.5654  -10.9882   -4.0432 H   0  0  0  0  0  0  0  0  0  0  0  0
    7.3215  -11.3289   -0.1983 H   0  0  0  0  0  0  0  0  0  0  0  0
    7.7866  -10.1004   -1.4234 H   0  0  0  0  0  0  0  0  0  0  0  0
    6.1258  -10.7847   -1.4234 H   0  0  0  0  0  0  0  0  0  0  0  0
    9.7870  -11.8680   -0.0740 H   0  0  0  0  0  0  0  0  0  0  0  0
   10.3350  -11.7040   -1.6010 H   0  0  0  0  0  0  0  0  0  0  0  0
   10.5175  -14.3486   -0.2388 H   0  0  0  0  0  0  0  0  0  0  0  0
   11.6034  -13.6485   -1.5024 H   0  0  0  0  0  0  0  0  0  0  0  0
   11.3880  -12.8142    1.4300 H   0  0  0  0  0  0  0  0  0  0  0  0
   12.7847  -13.6020    0.6060 H   0  0  0  0  0  0  0  0  0  0  0  0
   13.8680  -12.3640   -1.2590 H   0  0  0  0  0  0  0  0  0  0  0  0
   13.8500  -10.6460   -1.1360 H   0  0  0  0  0  0  0  0  0  0  0  0
    9.4019  -14.8686   -0.7891 H   0  0  0  0  0  0  0  0  0  0  0  0
    7.3897  -16.1006   -1.6081 H   0  0  0  0  0  0  0  0  0  0  0  0
    6.2581  -15.4296   -4.7119 H   0  0  0  0  0  0  0  0  0  0  0  0
    4.6715  -16.2046   -4.5447 H   0  0  0  0  0  0  0  0  0  0  0  0
    3.9260  -13.7020   -2.9280 H   0  0  0  0  0  0  0  0  0  0  0  0
    3.3573  -10.1530   -4.3827 H   0  0  0  0  0  0  0  0  0  0  0  0
    4.0381  -11.3058   -5.5802 H   0  0  0  0  0  0  0  0  0  0  0  0
    2.2783  -10.9456   -5.5802 H   0  0  0  0  0  0  0  0  0  0  0  0
    1.2996  -13.6380   -3.6655 H   0  0  0  0  0  0  0  0  0  0  0  0
    1.1282  -12.6010   -5.1222 H   0  0  0  0  0  0  0  0  0  0  0  0
    2.2990  -13.9634   -5.1222 H   0  0  0  0  0  0  0  0  0  0  0  0
    2.9218  -12.2256   -1.7924 H   0  0  0  0  0  0  0  0  0  0  0  0
    2.6942  -10.6096   -2.5430 H   0  0  0  0  0  0  0  0  0  0  0  0
    1.3470  -11.7977   -2.5430 H   0  0  0  0  0  0  0  0  0  0  0  0
    5.3965  -11.2418   -3.4313 H   0  0  0  0  0  0  0  0  0  0  0  0
  1  2  1  0
  2  3  1  0
  2  4  1  0
  4  5  1  0
  5  6  1  0
  6  7  1  0
  7  8  1  0
  8  9  1  0
  8 10  2  0
  4 11  2  0
 11 12  1  0
 12 13  2  0
 13 14  1  0
 14 15  1  0
 15 16  1  0
 16 17  2  0
 16 18  1  0
 18 19  1  0
 19 20  1  0
 19 21  1  0
 19 22  1  0
 18 23  1  0
 23 24  2  0
 24  2  1  0
 24 13  1  0
  1 25  1  0
  1 26  1  0
  1 27  1  0
  3 28  1  0
  3 29  1  0
  3 30  1  0
  5 31  1  0
  5 32  1  0
  6 33  1  0
  6 34  1  0
  7 35  1  0
  7 36  1  0
  9 37  1  0
  9 38  1  0
 11 39  1  0
 12 40  1  0
 15 41  1  0
 15 42  1  0
 18 43  1  0
 20 44  1  0
 20 45  1  0
 20 46  1  0
 21 47  1  0
 21 48  1  0
 21 49  1  0
 22 50  1  0
 22 51  1  0
 22 52  1  0
 23 53  1  0
M  CHG  2   5   1  18   1
M  END
>  <meeko>  (1) 
{"is_sidechain": [false], "free_energy": -5.479, "intermolecular_energy": -8.362, "internal_energy": 0.36}

$$$$
GEN_SGWFKASVEJFYMJ__M_PUB_ALL__e8__s20260927
     RDKit          3D

 53 54  0  0  0  0  0  0  0  0999 V2000
    8.5200  -13.9620   -3.0280 C   0  0  0  0  0  0  0  0  0  0  0  0
    8.0610  -12.6250   -2.4020 C   0  0  0  0  0  0  0  0  0  0  0  0
    8.2910  -11.4750   -3.4100 C   0  0  0  0  0  0  0  0  0  0  0  0
    8.9500  -12.3530   -1.1500 C   0  0  0  0  0  0  0  0  0  0  0  0
   10.3830  -12.2420   -1.2360 N   0  0  0  0  0  0  0  0  0  0  0  0
   11.1290  -13.1710   -0.3020 C   0  0  0  0  0  0  0  0  0  0  0  0
   12.1830  -12.4090    0.5010 C   0  0  0  0  0  0  0  0  0  0  0  0
   12.5990  -11.1590   -0.2330 C   0  0  0  0  0  0  0  0  0  0  0  0
   12.5210   -9.9990    0.4580 N   0  0  0  0  0  0  0  0  0  0  0  0
   13.0360  -11.2250   -1.3820 O   0  0  0  0  0  0  0  0  0  0  0  0
    8.4360  -12.2910    0.0880 C   0  0  0  0  0  0  0  0  0  0  0  0
    7.0270  -12.4320    0.3230 C   0  0  0  0  0  0  0  0  0  0  0  0
    6.1420  -12.6600   -0.6540 C   0  0  0  0  0  0  0  0  0  0  0  0
    4.8000  -12.7490   -0.3130 O   0  0  0  0  0  0  0  0  0  0  0  0
    4.2560  -14.0710   -0.5080 C   0  0  0  0  0  0  0  0  0  0  0  0
    3.9550  -14.2040   -1.9940 C   0  0  0  0  0  0  0  0  0  0  0  0
    3.6250  -15.2180   -2.5780 O   0  0  0  0  0  0  0  0  0  0  0  0
    4.2130  -12.9860   -2.8180 N   0  0  0  0  0  0  0  0  0  0  0  0
    3.2820  -12.7410   -4.0120 C   0  0  0  0  0  0  0  0  0  0  0  0
    1.8940  -13.3730   -3.8350 C   0  0  0  0  0  0  0  0  0  0  0  0
    3.1520  -11.2190   -4.2230 C   0  0  0  0  0  0  0  0  0  0  0  0
    3.9620  -13.3290   -5.2680 C   0  0  0  0  0  0  0  0  0  0  0  0
    5.6250  -12.8980   -3.0900 C   0  0  0  0  0  0  0  0  0  0  0  0
    6.5200  -12.7330   -2.0790 C   0  0  0  0  0  0  0  0  0  0  0  0
    8.7652  -14.6763   -2.2282 H   0  0  0  0  0  0  0  0  0  0  0  0
    7.7112  -14.3721   -3.6506 H   0  0  0  0  0  0  0  0  0  0  0  0
    9.4102  -13.7889   -3.6506 H   0  0  0  0  0  0  0  0  0  0  0  0
    8.4781  -10.5395   -2.8625 H   0  0  0  0  0  0  0  0  0  0  0  0
    9.1600  -11.7099   -4.0423 H   0  0  0  0  0  0  0  0  0  0  0  0
    7.3985  -11.3576   -4.0423 H   0  0  0  0  0  0  0  0  0  0  0  0
   10.7020  -11.2790   -0.9800 H   0  0  0  0  0  0  0  0  0  0  0  0
   10.7210  -12.3570   -2.2040 H   0  0  0  0  0  0  0  0  0  0  0  0
   10.4128  -13.6341    0.3926 H   0  0  0  0  0  0  0  0  0  0  0  0
   11.6350  -13.9407   -0.9033 H   0  0  0  0  0  0  0  0  0  0  0  0
   11.7635  -12.1324    1.4795 H   0  0  0  0  0  0  0  0  0  0  0  0
   13.0639  -13.0536    0.6367 H   0  0  0  0  0  0  0  0  0  0  0  0
   12.1960   -9.9180    1.4150 H   0  0  0  0  0  0  0  0  0  0  0  0
   12.8120   -9.1340    0.0100 H   0  0  0  0  0  0  0  0  0  0  0  0
    9.1098  -12.1284    0.9422 H   0  0  0  0  0  0  0  0  0  0  0  0
    6.6573  -12.3486    1.3556 H   0  0  0  0  0  0  0  0  0  0  0  0
    4.9883  -14.8318   -0.1997 H   0  0  0  0  0  0  0  0  0  0  0  0
    3.3478  -14.2186    0.0949 H   0  0  0  0  0  0  0  0  0  0  0  0
    3.9790  -12.2350   -2.1470 H   0  0  0  0  0  0  0  0  0  0  0  0
    1.6713  -13.4744   -2.7626 H   0  0  0  0  0  0  0  0  0  0  0  0
    1.1359  -12.7313   -4.3078 H   0  0  0  0  0  0  0  0  0  0  0  0
    1.8803  -14.3661   -4.3078 H   0  0  0  0  0  0  0  0  0  0  0  0
    3.1090  -10.7157   -3.2458 H   0  0  0  0  0  0  0  0  0  0  0  0
    4.0220  -10.8514   -4.7868 H   0  0  0  0  0  0  0  0  0  0  0  0
    2.2322  -11.0042   -4.7868 H   0  0  0  0  0  0  0  0  0  0  0  0
    4.7613  -14.0202   -4.9626 H   0  0  0  0  0  0  0  0  0  0  0  0
    3.2170  -13.8722   -5.8680 H   0  0  0  0  0  0  0  0  0  0  0  0
    4.3919  -12.5134   -5.8680 H   0  0  0  0  0  0  0  0  0  0  0  0
    5.9837  -12.9650   -4.1277 H   0  0  0  0  0  0  0  0  0  0  0  0
  1  2  1  0
  2  3  1  0
  2  4  1  0
  4  5  1  0
  5  6  1  0
  6  7  1  0
  7  8  1  0
  8  9  1  0
  8 10  2  0
  4 11  2  0
 11 12  1  0
 12 13  2  0
 13 14  1  0
 14 15  1  0
 15 16  1  0
 16 17  2  0
 16 18  1  0
 18 19  1  0
 19 20  1  0
 19 21  1  0
 19 22  1  0
 18 23  1  0
 23 24  2  0
 24  2  1  0
 24 13  1  0
  1 25  1  0
  1 26  1  0
  1 27  1  0
  3 28  1  0
  3 29  1  0
  3 30  1  0
  5 31  1  0
  5 32  1  0
  6 33  1  0
  6 34  1  0
  7 35  1  0
  7 36  1  0
  9 37  1  0
  9 38  1  0
 11 39  1  0
 12 40  1  0
 15 41  1  0
 15 42  1  0
 18 43  1  0
 20 44  1  0
 20 45  1  0
 20 46  1  0
 21 47  1  0
 21 48  1  0
 21 49  1  0
 22 50  1  0
 22 51  1  0
 22 52  1  0
 23 53  1  0
M  CHG  2   5   1  18   1
M  END
>  <meeko>  (2) 
{"is_sidechain": [false], "free_energy": -5.295, "intermolecular_energy": -8.065, "internal_energy": 0.344}

$$$$
GEN_SGWFKASVEJFYMJ__M_PUB_ALL__e8__s20260927
     RDKit          3D

 53 54  0  0  0  0  0  0  0  0999 V2000
    7.2620  -14.9700   -0.9010 C   0  0  0  0  0  0  0  0  0  0  0  0
    7.0270  -13.4440   -0.9850 C   0  0  0  0  0  0  0  0  0  0  0  0
    6.6420  -12.9010    0.4100 C   0  0  0  0  0  0  0  0  0  0  0  0
    5.8240  -13.1980   -1.9460 C   0  0  0  0  0  0  0  0  0  0  0  0
    4.5190  -13.7540   -1.7000 N   0  0  0  0  0  0  0  0  0  0  0  0
    3.4780  -12.7270   -1.3050 C   0  0  0  0  0  0  0  0  0  0  0  0
    2.1860  -12.9260   -2.0970 C   0  0  0  0  0  0  0  0  0  0  0  0
    2.2090  -12.0970   -3.3560 C   0  0  0  0  0  0  0  0  0  0  0  0
    2.6540  -10.8260   -3.2330 N   0  0  0  0  0  0  0  0  0  0  0  0
    1.8880  -12.5900   -4.4370 O   0  0  0  0  0  0  0  0  0  0  0  0
    5.9600  -12.5230   -3.0980 C   0  0  0  0  0  0  0  0  0  0  0  0
    7.2180  -11.9540   -3.4900 C   0  0  0  0  0  0  0  0  0  0  0  0
    8.3340  -12.0760   -2.7630 C   0  0  0  0  0  0  0  0  0  0  0  0
    9.4880  -11.4580   -3.2250 O   0  0  0  0  0  0  0  0  0  0  0  0
   10.5070  -12.3960   -3.6270 C   0  0  0  0  0  0  0  0  0  0  0  0
   11.1860  -12.8490   -2.3420 C   0  0  0  0  0  0  0  0  0  0  0  0
   12.0060  -13.7430   -2.2470 O   0  0  0  0  0  0  0  0  0  0  0  0
   10.7120  -12.2100   -1.0780 N   0  0  0  0  0  0  0  0  0  0  0  0
   11.7520  -11.9960    0.0280 C   0  0  0  0  0  0  0  0  0  0  0  0
   12.3680  -13.3060    0.5400 C   0  0  0  0  0  0  0  0  0  0  0  0
   12.8540  -11.0640   -0.5140 C   0  0  0  0  0  0  0  0  0  0  0  0
   11.0550  -11.2620    1.1950 C   0  0  0  0  0  0  0  0  0  0  0  0
    9.4800  -12.8370   -0.6730 C   0  0  0  0  0  0  0  0  0  0  0  0
    8.3700  -12.7610   -1.4550 C   0  0  0  0  0  0  0  0  0  0  0  0
    7.3091  -15.2762    0.1545 H   0  0  0  0  0  0  0  0  0  0  0  0
    6.4343  -15.4964   -1.3989 H   0  0  0  0  0  0  0  0  0  0  0  0
    8.2097  -15.2230   -1.3989 H   0  0  0  0  0  0  0  0  0  0  0  0
    7.0920  -13.5357    1.1875 H   0  0  0  0  0  0  0  0  0  0  0  0
    7.0127  -11.8709    0.5176 H   0  0  0  0  0  0  0  0  0  0  0  0
    5.5473  -12.9099    0.5176 H   0  0  0  0  0  0  0  0  0  0  0  0
    4.5440  -14.4390   -0.9100 H   0  0  0  0  0  0  0  0  0  0  0  0
    4.1840  -14.3180   -2.4950 H   0  0  0  0  0  0  0  0  0  0  0  0
    3.2613  -12.8287   -0.2314 H   0  0  0  0  0  0  0  0  0  0  0  0
    3.8733  -11.7242   -1.5245 H   0  0  0  0  0  0  0  0  0  0  0  0
    2.0845  -13.9882   -2.3642 H   0  0  0  0  0  0  0  0  0  0  0  0
    1.3346  -12.6095   -1.4766 H   0  0  0  0  0  0  0  0  0  0  0  0
    2.9550  -10.4020   -2.3620 H   0  0  0  0  0  0  0  0  0  0  0  0
    2.7080  -10.2360   -4.0590 H   0  0  0  0  0  0  0  0  0  0  0  0
    5.0873  -12.4031   -3.7569 H   0  0  0  0  0  0  0  0  0  0  0  0
    7.2666  -11.3906   -4.4335 H   0  0  0  0  0  0  0  0  0  0  0  0
   10.0542  -13.2549   -4.1440 H   0  0  0  0  0  0  0  0  0  0  0  0
   11.2248  -11.9390   -4.3241 H   0  0  0  0  0  0  0  0  0  0  0  0
   10.4820  -11.2580   -1.4080 H   0  0  0  0  0  0  0  0  0  0  0  0
   12.3679  -13.3059    1.6400 H   0  0  0  0  0  0  0  0  0  0  0  0
   11.7759  -14.1575    0.1734 H   0  0  0  0  0  0  0  0  0  0  0  0
   13.4014  -13.3931    0.1734 H   0  0  0  0  0  0  0  0  0  0  0  0
   13.3945  -10.6069    0.3280 H   0  0  0  0  0  0  0  0  0  0  0  0
   13.5569  -11.6458   -1.1284 H   0  0  0  0  0  0  0  0  0  0  0  0
   12.3969  -10.2743   -1.1284 H   0  0  0  0  0  0  0  0  0  0  0  0
   11.4290  -11.6559    2.1515 H   0  0  0  0  0  0  0  0  0  0  0  0
   11.2711  -10.1853    1.1322 H   0  0  0  0  0  0  0  0  0  0  0  0
    9.9685  -11.4222    1.1322 H   0  0  0  0  0  0  0  0  0  0  0  0
    9.4365  -13.3839    0.2804 H   0  0  0  0  0  0  0  0  0  0  0  0
  1  2  1  0
  2  3  1  0
  2  4  1  0
  4  5  1  0
  5  6  1  0
  6  7  1  0
  7  8  1  0
  8  9  1  0
  8 10  2  0
  4 11  2  0
 11 12  1  0
 12 13  2  0
 13 14  1  0
 14 15  1  0
 15 16  1  0
 16 17  2  0
 16 18  1  0
 18 19  1  0
 19 20  1  0
 19 21  1  0
 19 22  1  0
 18 23  1  0
 23 24  2  0
 24  2  1  0
 24 13  1  0
  1 25  1  0
  1 26  1  0
  1 27  1  0
  3 28  1  0
  3 29  1  0
  3 30  1  0
  5 31  1  0
  5 32  1  0
  6 33  1  0
  6 34  1  0
  7 35  1  0
  7 36  1  0
  9 37  1  0
  9 38  1  0
 11 39  1  0
 12 40  1  0
 15 41  1  0
 15 42  1  0
 18 43  1  0
 20 44  1  0
 20 45  1  0
 20 46  1  0
 21 47  1  0
 21 48  1  0
 21 49  1  0
 22 50  1  0
 22 51  1  0
 22 52  1  0
 23 53  1  0
M  CHG  2   5   1  18   1
M  END
>  <meeko>  (3) 
{"is_sidechain": [false], "free_energy": -5.081, "intermolecular_energy": -7.868, "internal_energy": 0.474}

$$$$
GEN_SGWFKASVEJFYMJ__M_PUB_ALL__e8__s20260927
     RDKit          3D

 53 54  0  0  0  0  0  0  0  0999 V2000
    7.0800  -10.9470   -1.1050 C   0  0  0  0  0  0  0  0  0  0  0  0
    7.3690  -12.4330   -1.4200 C   0  0  0  0  0  0  0  0  0  0  0  0
    7.0000  -13.3030   -0.1970 C   0  0  0  0  0  0  0  0  0  0  0  0
    8.9010  -12.5800   -1.6710 C   0  0  0  0  0  0  0  0  0  0  0  0
    9.8790  -12.2230   -0.6770 N   0  0  0  0  0  0  0  0  0  0  0  0
   10.8020  -13.3580   -0.2870 C   0  0  0  0  0  0  0  0  0  0  0  0
   11.9870  -12.8440    0.5310 C   0  0  0  0  0  0  0  0  0  0  0  0
   12.4240  -11.4920    0.0270 C   0  0  0  0  0  0  0  0  0  0  0  0
   13.3880  -11.4850   -0.9220 N   0  0  0  0  0  0  0  0  0  0  0  0
   11.8790  -10.4660    0.4330 O   0  0  0  0  0  0  0  0  0  0  0  0
    9.3940  -12.9700   -2.8570 C   0  0  0  0  0  0  0  0  0  0  0  0
    8.5310  -13.3130   -3.9520 C   0  0  0  0  0  0  0  0  0  0  0  0
    7.1970  -13.2430   -3.8810 C   0  0  0  0  0  0  0  0  0  0  0  0
    6.4610  -13.6280   -4.9930 O   0  0  0  0  0  0  0  0  0  0  0  0
    5.7560  -12.5320   -5.6080 C   0  0  0  0  0  0  0  0  0  0  0  0
    4.5100  -12.3030   -4.7830 C   0  0  0  0  0  0  0  0  0  0  0  0
    3.7210  -11.3870   -4.9130 O   0  0  0  0  0  0  0  0  0  0  0  0
    4.2890  -13.2480   -3.6480 N   0  0  0  0  0  0  0  0  0  0  0  0
    2.8360  -13.5980   -3.3030 C   0  0  0  0  0  0  0  0  0  0  0  0
    1.9860  -13.9310   -4.5390 C   0  0  0  0  0  0  0  0  0  0  0  0
    2.8420  -14.7880   -2.3230 C   0  0  0  0  0  0  0  0  0  0  0  0
    2.2220  -12.3890   -2.5630 C   0  0  0  0  0  0  0  0  0  0  0  0
    5.1210  -12.8490   -2.5410 C   0  0  0  0  0  0  0  0  0  0  0  0
    6.4770  -12.8610   -2.6500 C   0  0  0  0  0  0  0  0  0  0  0  0
    7.0518  -10.8020   -0.0150 H   0  0  0  0  0  0  0  0  0  0  0  0
    7.8729  -10.3195   -1.5380 H   0  0  0  0  0  0  0  0  0  0  0  0
    6.1097  -10.6624   -1.5380 H   0  0  0  0  0  0  0  0  0  0  0  0
    7.2329  -12.7539    0.7273 H   0  0  0  0  0  0  0  0  0  0  0  0
    5.9254  -13.5364   -0.2239 H   0  0  0  0  0  0  0  0  0  0  0  0
    7.5791  -14.2378   -0.2239 H   0  0  0  0  0  0  0  0  0  0  0  0
    9.4190  -11.9230    0.2140 H   0  0  0  0  0  0  0  0  0  0  0  0
   10.4260  -11.3950   -0.9540 H   0  0  0  0  0  0  0  0  0  0  0  0
   10.2401  -14.0884    0.3136 H   0  0  0  0  0  0  0  0  0  0  0  0
   11.1867  -13.8278   -1.2042 H   0  0  0  0  0  0  0  0  0  0  0  0
   11.6895  -12.7589    1.5866 H   0  0  0  0  0  0  0  0  0  0  0  0
   12.8240  -13.5507    0.4310 H   0  0  0  0  0  0  0  0  0  0  0  0
   13.8340  -12.3150   -1.2980 H   0  0  0  0  0  0  0  0  0  0  0  0
   13.7000  -10.5980   -1.3070 H   0  0  0  0  0  0  0  0  0  0  0  0
   10.4840  -13.0281   -2.9931 H   0  0  0  0  0  0  0  0  0  0  0  0
    8.9885  -13.6493   -4.8941 H   0  0  0  0  0  0  0  0  0  0  0  0
    6.3835  -11.6285   -5.6067 H   0  0  0  0  0  0  0  0  0  0  0  0
    5.5030  -12.7600   -6.6540 H   0  0  0  0  0  0  0  0  0  0  0  0
    4.6830  -14.1220   -4.0330 H   0  0  0  0  0  0  0  0  0  0  0  0
    1.0064  -14.3148   -4.2178 H   0  0  0  0  0  0  0  0  0  0  0  0
    1.8439  -13.0221   -5.1420 H   0  0  0  0  0  0  0  0  0  0  0  0
    2.4992  -14.6946   -5.1420 H   0  0  0  0  0  0  0  0  0  0  0  0
    2.8401  -14.4118   -1.2893 H   0  0  0  0  0  0  0  0  0  0  0  0
    1.9470  -15.4052   -2.4902 H   0  0  0  0  0  0  0  0  0  0  0  0
    3.7432  -15.3961   -2.4902 H   0  0  0  0  0  0  0  0  0  0  0  0
    2.3012  -12.5450   -1.4770 H   0  0  0  0  0  0  0  0  0  0  0  0
    2.7646  -11.4739   -2.8425 H   0  0  0  0  0  0  0  0  0  0  0  0
    1.1630  -12.2872   -2.8425 H   0  0  0  0  0  0  0  0  0  0  0  0
    4.6543  -12.5311   -1.5970 H   0  0  0  0  0  0  0  0  0  0  0  0
  1  2  1  0
  2  3  1  0
  2  4  1  0
  4  5  1  0
  5  6  1  0
  6  7  1  0
  7  8  1  0
  8  9  1  0
  8 10  2  0
  4 11  2  0
 11 12  1  0
 12 13  2  0
 13 14  1  0
 14 15  1  0
 15 16  1  0
 16 17  2  0
 16 18  1  0
 18 19  1  0
 19 20  1  0
 19 21  1  0
 19 22  1  0
 18 23  1  0
 23 24  2  0
 24  2  1  0
 24 13  1  0
  1 25  1  0
  1 26  1  0
  1 27  1  0
  3 28  1  0
  3 29  1  0
  3 30  1  0
  5 31  1  0
  5 32  1  0
  6 33  1  0
  6 34  1  0
  7 35  1  0
  7 36  1  0
  9 37  1  0
  9 38  1  0
 11 39  1  0
 12 40  1  0
 15 41  1  0
 15 42  1  0
 18 43  1  0
 20 44  1  0
 20 45  1  0
 20 46  1  0
 21 47  1  0
 21 48  1  0
 21 49  1  0
 22 50  1  0
 22 51  1  0
 22 52  1  0
 23 53  1  0
M  CHG  2   5   1  18   1
M  END
>  <meeko>  (4) 
{"is_sidechain": [false], "free_energy": -5.062, "intermolecular_energy": -7.726, "internal_energy": 0.36}

$$$$
GEN_SGWFKASVEJFYMJ__M_PUB_ALL__e8__s20260927
     RDKit          3D

 53 54  0  0  0  0  0  0  0  0999 V2000
   12.6660  -15.5780   -3.0270 C   0  0  0  0  0  0  0  0  0  0  0  0
   12.3990  -14.2360   -3.7470 C   0  0  0  0  0  0  0  0  0  0  0  0
   11.2590  -14.4180   -4.7760 C   0  0  0  0  0  0  0  0  0  0  0  0
   13.6920  -13.8450   -4.5250 C   0  0  0  0  0  0  0  0  0  0  0  0
   14.2650  -14.6930   -5.5380 N   0  0  0  0  0  0  0  0  0  0  0  0
   13.6830  -14.4780   -6.9190 C   0  0  0  0  0  0  0  0  0  0  0  0
   13.2520  -15.8060   -7.5430 C   0  0  0  0  0  0  0  0  0  0  0  0
   11.9110  -15.6570   -8.2170 C   0  0  0  0  0  0  0  0  0  0  0  0
   11.5700  -14.4090   -8.6120 N   0  0  0  0  0  0  0  0  0  0  0  0
   11.2070  -16.6430   -8.4350 O   0  0  0  0  0  0  0  0  0  0  0  0
   14.3890  -12.7350   -4.2360 C   0  0  0  0  0  0  0  0  0  0  0  0
   13.9560  -11.8220   -3.2150 C   0  0  0  0  0  0  0  0  0  0  0  0
   12.8620  -12.0220   -2.4720 C   0  0  0  0  0  0  0  0  0  0  0  0
   12.5220  -11.0570   -1.5340 O   0  0  0  0  0  0  0  0  0  0  0  0
   12.6520  -11.5220   -0.1760 C   0  0  0  0  0  0  0  0  0  0  0  0
   11.3970  -12.3340    0.1100 C   0  0  0  0  0  0  0  0  0  0  0  0
   11.1940  -13.0070    1.1020 O   0  0  0  0  0  0  0  0  0  0  0  0
   10.3810  -12.3920   -0.9830 N   0  0  0  0  0  0  0  0  0  0  0  0
    8.9080  -12.4680   -0.5640 C   0  0  0  0  0  0  0  0  0  0  0  0
    8.6290  -11.7920    0.7880 C   0  0  0  0  0  0  0  0  0  0  0  0
    8.0530  -11.8190   -1.6700 C   0  0  0  0  0  0  0  0  0  0  0  0
    8.5150  -13.9600   -0.4870 C   0  0  0  0  0  0  0  0  0  0  0  0
   10.8070  -13.3560   -1.9650 C   0  0  0  0  0  0  0  0  0  0  0  0
   11.9580  -13.1730   -2.6670 C   0  0  0  0  0  0  0  0  0  0  0  0
   12.6351  -15.4226   -1.9385 H   0  0  0  0  0  0  0  0  0  0  0  0
   11.8956  -16.3083   -3.3151 H   0  0  0  0  0  0  0  0  0  0  0  0
   13.6573  -15.9578   -3.3151 H   0  0  0  0  0  0  0  0  0  0  0  0
   10.3073  -14.5699   -4.2458 H   0  0  0  0  0  0  0  0  0  0  0  0
   11.1878  -13.5198   -5.4071 H   0  0  0  0  0  0  0  0  0  0  0  0
   11.4710  -15.2937   -5.4071 H   0  0  0  0  0  0  0  0  0  0  0  0
   14.0980  -15.7030   -5.3220 H   0  0  0  0  0  0  0  0  0  0  0  0
   15.2930  -14.6200   -5.5660 H   0  0  0  0  0  0  0  0  0  0  0  0
   12.8081  -13.8157   -6.8419 H   0  0  0  0  0  0  0  0  0  0  0  0
   14.4542  -14.0235   -7.5583 H   0  0  0  0  0  0  0  0  0  0  0  0
   13.9998  -16.1167   -8.2875 H   0  0  0  0  0  0  0  0  0  0  0  0
   13.1717  -16.5644   -6.7503 H   0  0  0  0  0  0  0  0  0  0  0  0
   12.1430  -13.5840   -8.4750 H   0  0  0  0  0  0  0  0  0  0  0  0
   10.6850  -14.2640   -9.0900 H   0  0  0  0  0  0  0  0  0  0  0  0
   15.3125  -12.5196   -4.7935 H   0  0  0  0  0  0  0  0  0  0  0  0
   14.5525  -10.9153   -3.0357 H   0  0  0  0  0  0  0  0  0  0  0  0
   13.5474  -12.1524   -0.0717 H   0  0  0  0  0  0  0  0  0  0  0  0
   12.7597  -10.6843    0.5287 H   0  0  0  0  0  0  0  0  0  0  0  0
   10.4830  -11.4540   -1.4040 H   0  0  0  0  0  0  0  0  0  0  0  0
    8.9105  -12.4739    1.6039 H   0  0  0  0  0  0  0  0  0  0  0  0
    9.2187  -10.8665    0.8638 H   0  0  0  0  0  0  0  0  0  0  0  0
    7.5582  -11.5518    0.8638 H   0  0  0  0  0  0  0  0  0  0  0  0
    7.2568  -11.2146   -1.2108 H   0  0  0  0  0  0  0  0  0  0  0  0
    8.6890  -11.1742   -2.2943 H   0  0  0  0  0  0  0  0  0  0  0  0
    7.6030  -12.6050   -2.2943 H   0  0  0  0  0  0  0  0  0  0  0  0
    8.4349  -14.2641    0.5671 H   0  0  0  0  0  0  0  0  0  0  0  0
    7.5466  -14.1104   -0.9866 H   0  0  0  0  0  0  0  0  0  0  0  0
    9.2837  -14.5679   -0.9866 H   0  0  0  0  0  0  0  0  0  0  0  0
   10.1944  -14.2508   -2.1495 H   0  0  0  0  0  0  0  0  0  0  0  0
  1  2  1  0
  2  3  1  0
  2  4  1  0
  4  5  1  0
  5  6  1  0
  6  7  1  0
  7  8  1  0
  8  9  1  0
  8 10  2  0
  4 11  2  0
 11 12  1  0
 12 13  2  0
 13 14  1  0
 14 15  1  0
 15 16  1  0
 16 17  2  0
 16 18  1  0
 18 19  1  0
 19 20  1  0
 19 21  1  0
 19 22  1  0
 18 23  1  0
 23 24  2  0
 24  2  1  0
 24 13  1  0
  1 25  1  0
  1 26  1  0
  1 27  1  0
  3 28  1  0
  3 29  1  0
  3 30  1  0
  5 31  1  0
  5 32  1  0
  6 33  1  0
  6 34  1  0
  7 35  1  0
  7 36  1  0
  9 37  1  0
  9 38  1  0
 11 39  1  0
 12 40  1  0
 15 41  1  0
 15 42  1  0
 18 43  1  0
 20 44  1  0
 20 45  1  0
 20 46  1  0
 21 47  1  0
 21 48  1  0
 21 49  1  0
 22 50  1  0
 22 51  1  0
 22 52  1  0
 23 53  1  0
M  CHG  2   5   1  18   1
M  END
>  <meeko>  (5) 
{"is_sidechain": [false], "free_energy": -5.0, "intermolecular_energy": -7.998, "internal_energy": 0.727}

$$$$
GEN_SGWFKASVEJFYMJ__M_PUB_ALL__e8__s20260927
     RDKit          3D

 53 54  0  0  0  0  0  0  0  0999 V2000
    6.9440  -13.9410    0.4100 C   0  0  0  0  0  0  0  0  0  0  0  0
    6.9720  -12.4580   -0.0260 C   0  0  0  0  0  0  0  0  0  0  0  0
    7.0790  -11.5530    1.2230 C   0  0  0  0  0  0  0  0  0  0  0  0
    5.6190  -12.1420   -0.7340 C   0  0  0  0  0  0  0  0  0  0  0  0
    4.3500  -12.3030   -0.0720 N   0  0  0  0  0  0  0  0  0  0  0  0
    3.3240  -13.0600   -0.8880 C   0  0  0  0  0  0  0  0  0  0  0  0
    2.3060  -13.7520    0.0200 C   0  0  0  0  0  0  0  0  0  0  0  0
    3.0090  -14.4560    1.1530 C   0  0  0  0  0  0  0  0  0  0  0  0
    2.6390  -14.1020    2.4050 N   0  0  0  0  0  0  0  0  0  0  0  0
    3.8320  -15.3420    0.9240 O   0  0  0  0  0  0  0  0  0  0  0  0
    5.5590  -11.7820   -2.0260 C   0  0  0  0  0  0  0  0  0  0  0  0
    6.7460  -11.6290   -2.8180 C   0  0  0  0  0  0  0  0  0  0  0  0
    7.9750  -11.8570   -2.3440 C   0  0  0  0  0  0  0  0  0  0  0  0
    9.0540  -11.6480   -3.1920 O   0  0  0  0  0  0  0  0  0  0  0  0
    9.7390  -12.8670   -3.5440 C   0  0  0  0  0  0  0  0  0  0  0  0
   10.6490  -13.1810   -2.3600 C   0  0  0  0  0  0  0  0  0  0  0  0
   11.2910  -14.2030   -2.2120 O   0  0  0  0  0  0  0  0  0  0  0  0
   10.6550  -12.1940   -1.2400 N   0  0  0  0  0  0  0  0  0  0  0  0
   11.9760  -12.0050   -0.4830 C   0  0  0  0  0  0  0  0  0  0  0  0
   12.4900  -13.3000    0.1640 C   0  0  0  0  0  0  0  0  0  0  0  0
   13.0240  -11.4470   -1.4660 C   0  0  0  0  0  0  0  0  0  0  0  0
   11.7450  -10.9370    0.6090 C   0  0  0  0  0  0  0  0  0  0  0  0
    9.4860  -12.4050   -0.4260 C   0  0  0  0  0  0  0  0  0  0  0  0
    8.2380  -12.2340   -0.9410 C   0  0  0  0  0  0  0  0  0  0  0  0
    6.9429  -14.0003    1.5084 H   0  0  0  0  0  0  0  0  0  0  0  0
    6.0366  -14.4220    0.0159 H   0  0  0  0  0  0  0  0  0  0  0  0
    7.8326  -14.4559    0.0159 H   0  0  0  0  0  0  0  0  0  0  0  0
    7.0060  -12.1704    2.1305 H   0  0  0  0  0  0  0  0  0  0  0  0
    8.0455  -11.0278    1.2136 H   0  0  0  0  0  0  0  0  0  0  0  0
    6.2616  -10.8169    1.2136 H   0  0  0  0  0  0  0  0  0  0  0  0
    3.9120  -11.3760    0.1320 H   0  0  0  0  0  0  0  0  0  0  0  0
    4.4540  -12.7300    0.8610 H   0  0  0  0  0  0  0  0  0  0  0  0
    2.7972  -12.3548   -1.5477 H   0  0  0  0  0  0  0  0  0  0  0  0
    3.8436  -13.8268   -1.4814 H   0  0  0  0  0  0  0  0  0  0  0  0
    1.6169  -13.0000    0.4319 H   0  0  0  0  0  0  0  0  0  0  0  0
    1.7463  -14.4931   -0.5695 H   0  0  0  0  0  0  0  0  0  0  0  0
    1.9410  -13.3990    2.6230 H   0  0  0  0  0  0  0  0  0  0  0  0
    3.0700  -14.5660    3.2000 H   0  0  0  0  0  0  0  0  0  0  0  0
    4.5775  -11.6001   -2.4881 H   0  0  0  0  0  0  0  0  0  0  0  0
    6.6394  -11.3089   -3.8650 H   0  0  0  0  0  0  0  0  0  0  0  0
    9.0170  -13.6820   -3.7005 H   0  0  0  0  0  0  0  0  0  0  0  0
   10.3088  -12.7591   -4.4787 H   0  0  0  0  0  0  0  0  0  0  0  0
   10.5200  -11.3060   -1.7530 H   0  0  0  0  0  0  0  0  0  0  0  0
   12.4515  -13.2031    1.2590 H   0  0  0  0  0  0  0  0  0  0  0  0
   11.8585  -14.1434   -0.1519 H   0  0  0  0  0  0  0  0  0  0  0  0
   13.5280  -13.4808   -0.1519 H   0  0  0  0  0  0  0  0  0  0  0  0
   13.8571  -11.0034   -0.9010 H   0  0  0  0  0  0  0  0  0  0  0  0
   13.4035  -12.2625   -2.0993 H   0  0  0  0  0  0  0  0  0  0  0  0
   12.5593  -10.6769   -2.0993 H   0  0  0  0  0  0  0  0  0  0  0  0
   11.8452  -11.4000    1.6018 H   0  0  0  0  0  0  0  0  0  0  0  0
   12.4905  -10.1354    0.5014 H   0  0  0  0  0  0  0  0  0  0  0  0
   10.7348  -10.5151    0.5014 H   0  0  0  0  0  0  0  0  0  0  0  0
    9.6032  -12.7081    0.6249 H   0  0  0  0  0  0  0  0  0  0  0  0
  1  2  1  0
  2  3  1  0
  2  4  1  0
  4  5  1  0
  5  6  1  0
  6  7  1  0
  7  8  1  0
  8  9  1  0
  8 10  2  0
  4 11  2  0
 11 12  1  0
 12 13  2  0
 13 14  1  0
 14 15  1  0
 15 16  1  0
 16 17  2  0
 16 18  1  0
 18 19  1  0
 19 20  1  0
 19 21  1  0
 19 22  1  0
 18 23  1  0
 23 24  2  0
 24  2  1  0
 24 13  1  0
  1 25  1  0
  1 26  1  0
  1 27  1  0
  3 28  1  0
  3 29  1  0
  3 30  1  0
  5 31  1  0
  5 32  1  0
  6 33  1  0
  6 34  1  0
  7 35  1  0
  7 36  1  0
  9 37  1  0
  9 38  1  0
 11 39  1  0
 12 40  1  0
 15 41  1  0
 15 42  1  0
 18 43  1  0
 20 44  1  0
 20 45  1  0
 20 46  1  0
 21 47  1  0
 21 48  1  0
 21 49  1  0
 22 50  1  0
 22 51  1  0
 22 52  1  0
 23 53  1  0
M  CHG  2   5   1  18   1
M  END
>  <meeko>  (6) 
{"is_sidechain": [false], "free_energy": -4.961, "intermolecular_energy": -7.523, "internal_energy": 0.312}

$$$$
GEN_SGWFKASVEJFYMJ__M_PUB_ALL__e8__s20260927
     RDKit          3D

 53 54  0  0  0  0  0  0  0  0999 V2000
  -10.7920  -16.7050    9.1210 C   0  0  0  0  0  0  0  0  0  0  0  0
  -10.1740  -17.7410    8.1540 C   0  0  0  0  0  0  0  0  0  0  0  0
  -10.2400  -17.2030    6.7060 C   0  0  0  0  0  0  0  0  0  0  0  0
  -11.0370  -19.0380    8.2260 C   0  0  0  0  0  0  0  0  0  0  0  0
  -12.4420  -19.0430    7.9140 N   0  0  0  0  0  0  0  0  0  0  0  0
  -12.7740  -19.6970    6.5890 C   0  0  0  0  0  0  0  0  0  0  0  0
  -14.2770  -19.9510    6.4660 C   0  0  0  0  0  0  0  0  0  0  0  0
  -14.7650  -20.7820    7.6250 C   0  0  0  0  0  0  0  0  0  0  0  0
  -16.0370  -20.5650    8.0300 N   0  0  0  0  0  0  0  0  0  0  0  0
  -14.0420  -21.6450    8.1240 O   0  0  0  0  0  0  0  0  0  0  0  0
  -10.5340  -20.2030    8.6640 C   0  0  0  0  0  0  0  0  0  0  0  0
   -9.1580  -20.3280    9.0530 C   0  0  0  0  0  0  0  0  0  0  0  0
   -8.2980  -19.3050    9.0350 C   0  0  0  0  0  0  0  0  0  0  0  0
   -6.9820  -19.5490    9.4040 O   0  0  0  0  0  0  0  0  0  0  0  0
   -6.6120  -18.8950   10.6340 C   0  0  0  0  0  0  0  0  0  0  0  0
   -6.3100  -17.4420   10.2750 C   0  0  0  0  0  0  0  0  0  0  0  0
   -6.0870  -16.5350   11.0540 O   0  0  0  0  0  0  0  0  0  0  0  0
   -6.3980  -17.1000    8.8250 N   0  0  0  0  0  0  0  0  0  0  0  0
   -5.4290  -16.0350    8.2980 C   0  0  0  0  0  0  0  0  0  0  0  0
   -5.9700  -14.6040    8.4380 C   0  0  0  0  0  0  0  0  0  0  0  0
   -4.0930  -16.1760    9.0550 C   0  0  0  0  0  0  0  0  0  0  0  0
   -5.1550  -16.3410    6.8090 C   0  0  0  0  0  0  0  0  0  0  0  0
   -7.7830  -16.9220    8.4720 C   0  0  0  0  0  0  0  0  0  0  0  0
   -8.6630  -17.9560    8.5580 C   0  0  0  0  0  0  0  0  0  0  0  0
  -10.6063  -17.0164   10.1595 H   0  0  0  0  0  0  0  0  0  0  0  0
  -10.3334  -15.7206    8.9457 H   0  0  0  0  0  0  0  0  0  0  0  0
  -11.8761  -16.6409    8.9457 H   0  0  0  0  0  0  0  0  0  0  0  0
  -10.3739  -16.1114    6.7262 H   0  0  0  0  0  0  0  0  0  0  0  0
   -9.3051  -17.4481    6.1808 H   0  0  0  0  0  0  0  0  0  0  0  0
  -11.0880  -17.6668    6.1808 H   0  0  0  0  0  0  0  0  0  0  0  0
  -12.8150  -18.0690    7.8410 H   0  0  0  0  0  0  0  0  0  0  0  0
  -13.0040  -19.4590    8.6710 H   0  0  0  0  0  0  0  0  0  0  0  0
  -12.4525  -19.0359    5.7707 H   0  0  0  0  0  0  0  0  0  0  0  0
  -12.2492  -20.6621    6.5327 H   0  0  0  0  0  0  0  0  0  0  0  0
  -14.8083  -18.9879    6.4612 H   0  0  0  0  0  0  0  0  0  0  0  0
  -14.4720  -20.4944    5.5297 H   0  0  0  0  0  0  0  0  0  0  0  0
  -16.6650  -19.8840    7.6170 H   0  0  0  0  0  0  0  0  0  0  0  0
  -16.4160  -21.1180    8.7940 H   0  0  0  0  0  0  0  0  0  0  0  0
  -11.1918  -21.0825    8.7263 H   0  0  0  0  0  0  0  0  0  0  0  0
   -8.7939  -21.3126    9.3816 H   0  0  0  0  0  0  0  0  0  0  0  0
   -7.4409  -18.9443   11.3555 H   0  0  0  0  0  0  0  0  0  0  0  0
   -5.7409  -19.3808   11.0978 H   0  0  0  0  0  0  0  0  0  0  0  0
   -6.0780  -17.9820    8.3900 H   0  0  0  0  0  0  0  0  0  0  0  0
   -6.0657  -14.3509    9.5042 H   0  0  0  0  0  0  0  0  0  0  0  0
   -5.2757  -13.9006    7.9550 H   0  0  0  0  0  0  0  0  0  0  0  0
   -6.9559  -14.5359    7.9550 H   0  0  0  0  0  0  0  0  0  0  0  0
   -4.2816  -16.1561   10.1385 H   0  0  0  0  0  0  0  0  0  0  0  0
   -3.6164  -17.1294    8.7832 H   0  0  0  0  0  0  0  0  0  0  0  0
   -3.4279  -15.3431    8.7832 H   0  0  0  0  0  0  0  0  0  0  0  0
   -4.4230  -17.1584    6.7313 H   0  0  0  0  0  0  0  0  0  0  0  0
   -6.0925  -16.6404    6.3176 H   0  0  0  0  0  0  0  0  0  0  0  0
   -4.7543  -15.4421    6.3176 H   0  0  0  0  0  0  0  0  0  0  0  0
   -8.1337  -15.9376    8.1285 H   0  0  0  0  0  0  0  0  0  0  0  0
  1  2  1  0
  2  3  1  0
  2  4  1  0
  4  5  1  0
  5  6  1  0
  6  7  1  0
  7  8  1  0
  8  9  1  0
  8 10  2  0
  4 11  2  0
 11 12  1  0
 12 13  2  0
 13 14  1  0
 14 15  1  0
 15 16  1  0
 16 17  2  0
 16 18  1  0
 18 19  1  0
 19 20  1  0
 19 21  1  0
 19 22  1  0
 18 23  1  0
 23 24  2  0
 24  2  1  0
 24 13  1  0
  1 25  1  0
  1 26  1  0
  1 27  1  0
  3 28  1  0
  3 29  1  0
  3 30  1  0
  5 31  1  0
  5 32  1  0
  6 33  1  0
  6 34  1  0
  7 35  1  0
  7 36  1  0
  9 37  1  0
  9 38  1  0
 11 39  1  0
 12 40  1  0
 15 41  1  0
 15 42  1  0
 18 43  1  0
 20 44  1  0
 20 45  1  0
 20 46  1  0
 21 47  1  0
 21 48  1  0
 21 49  1  0
 22 50  1  0
 22 51  1  0
 22 52  1  0
 23 53  1  0
M  CHG  2   5   1  18   1
M  END
>  <meeko>  (7) 
{"is_sidechain": [false], "free_energy": -4.732, "intermolecular_energy": -7.251, "internal_energy": 0.389}

$$$$
GEN_SGWFKASVEJFYMJ__M_PUB_ALL__e8__s20260927
     RDKit          3D

 53 54  0  0  0  0  0  0  0  0999 V2000
    2.0180  -12.8470   -3.5320 C   0  0  0  0  0  0  0  0  0  0  0  0
    2.7200  -11.7890   -2.6500 C   0  0  0  0  0  0  0  0  0  0  0  0
    2.1040  -10.3970   -2.9200 C   0  0  0  0  0  0  0  0  0  0  0  0
    4.2220  -11.7400   -3.0680 C   0  0  0  0  0  0  0  0  0  0  0  0
    4.6350  -11.4260   -4.4110 N   0  0  0  0  0  0  0  0  0  0  0  0
    4.7000  -12.6270   -5.3300 C   0  0  0  0  0  0  0  0  0  0  0  0
    4.7820  -12.1910   -6.7940 C   0  0  0  0  0  0  0  0  0  0  0  0
    5.9830  -12.8160   -7.4590 C   0  0  0  0  0  0  0  0  0  0  0  0
    6.5820  -12.0870   -8.4280 N   0  0  0  0  0  0  0  0  0  0  0  0
    6.4090  -13.9080   -7.0840 O   0  0  0  0  0  0  0  0  0  0  0  0
    5.2080  -12.0680   -2.2180 C   0  0  0  0  0  0  0  0  0  0  0  0
    4.9340  -12.4460   -0.8610 C   0  0  0  0  0  0  0  0  0  0  0  0
    3.6970  -12.5240   -0.3600 C   0  0  0  0  0  0  0  0  0  0  0  0
    3.5530  -12.8710    0.9770 O   0  0  0  0  0  0  0  0  0  0  0  0
    2.9300  -14.1580    1.1600 C   0  0  0  0  0  0  0  0  0  0  0  0
    1.4270  -13.9350    0.9890 C   0  0  0  0  0  0  0  0  0  0  0  0
    0.5710  -14.7970    0.9290 O   0  0  0  0  0  0  0  0  0  0  0  0
    1.0020  -12.5230    0.7590 N   0  0  0  0  0  0  0  0  0  0  0  0
   -0.3540  -12.0990    1.3370 C   0  0  0  0  0  0  0  0  0  0  0  0
   -0.5570  -12.5490    2.7910 C   0  0  0  0  0  0  0  0  0  0  0  0
   -0.4680  -10.5650    1.2330 C   0  0  0  0  0  0  0  0  0  0  0  0
   -1.4580  -12.7090    0.4460 C   0  0  0  0  0  0  0  0  0  0  0  0
    1.2320  -12.1850   -0.6230 C   0  0  0  0  0  0  0  0  0  0  0  0
    2.4910  -12.1740   -1.1370 C   0  0  0  0  0  0  0  0  0  0  0  0
    1.5244  -13.5909   -2.8894 H   0  0  0  0  0  0  0  0  0  0  0  0
    1.2667  -12.3549   -4.1671 H   0  0  0  0  0  0  0  0  0  0  0  0
    2.7635  -13.3480   -4.1671 H   0  0  0  0  0  0  0  0  0  0  0  0
    1.8846   -9.9012   -1.9629 H   0  0  0  0  0  0  0  0  0  0  0  0
    2.8159   -9.7862   -3.4946 H   0  0  0  0  0  0  0  0  0  0  0  0
    1.1732  -10.5131   -3.4946 H   0  0  0  0  0  0  0  0  0  0  0  0
    5.5970  -11.0160   -4.4230 H   0  0  0  0  0  0  0  0  0  0  0  0
    4.0540  -10.6840   -4.8290 H   0  0  0  0  0  0  0  0  0  0  0  0
    5.5906  -13.2228   -5.0814 H   0  0  0  0  0  0  0  0  0  0  0  0
    3.7868  -13.2246   -5.1921 H   0  0  0  0  0  0  0  0  0  0  0  0
    3.8695  -12.5094   -7.3193 H   0  0  0  0  0  0  0  0  0  0  0  0
    4.8783  -11.0961   -6.8368 H   0  0  0  0  0  0  0  0  0  0  0  0
    6.2730  -11.1720   -8.7360 H   0  0  0  0  0  0  0  0  0  0  0  0
    7.4080  -12.4590   -8.8900 H   0  0  0  0  0  0  0  0  0  0  0  0
    6.2500  -12.0465   -2.5698 H   0  0  0  0  0  0  0  0  0  0  0  0
    5.7821  -12.6828   -0.2017 H   0  0  0  0  0  0  0  0  0  0  0  0
    3.2977  -14.8698    0.4063 H   0  0  0  0  0  0  0  0  0  0  0  0
    3.1620  -14.5775    2.1500 H   0  0  0  0  0  0  0  0  0  0  0  0
    1.6980  -12.0080    1.3240 H   0  0  0  0  0  0  0  0  0  0  0  0
   -0.2017  -11.7613    3.4716 H   0  0  0  0  0  0  0  0  0  0  0  0
   -1.6261  -12.7347    2.9715 H   0  0  0  0  0  0  0  0  0  0  0  0
    0.0113  -13.4734    2.9715 H   0  0  0  0  0  0  0  0  0  0  0  0
   -0.5003  -10.1304    2.2430 H   0  0  0  0  0  0  0  0  0  0  0  0
    0.4032  -10.1685    0.6909 H   0  0  0  0  0  0  0  0  0  0  0  0
   -1.3882  -10.3016    0.6909 H   0  0  0  0  0  0  0  0  0  0  0  0
   -2.2439  -13.1432    1.0815 H   0  0  0  0  0  0  0  0  0  0  0  0
   -1.8926  -11.9230   -0.1891 H   0  0  0  0  0  0  0  0  0  0  0  0
   -1.0239  -13.4953   -0.1891 H   0  0  0  0  0  0  0  0  0  0  0  0
    0.3788  -11.9329   -1.2699 H   0  0  0  0  0  0  0  0  0  0  0  0
  1  2  1  0
  2  3  1  0
  2  4  1  0
  4  5  1  0
  5  6  1  0
  6  7  1  0
  7  8  1  0
  8  9  1  0
  8 10  2  0
  4 11  2  0
 11 12  1  0
 12 13  2  0
 13 14  1  0
 14 15  1  0
 15 16  1  0
 16 17  2  0
 16 18  1  0
 18 19  1  0
 19 20  1  0
 19 21  1  0
 19 22  1  0
 18 23  1  0
 23 24  2  0
 24  2  1  0
 24 13  1  0
  1 25  1  0
  1 26  1  0
  1 27  1  0
  3 28  1  0
  3 29  1  0
  3 30  1  0
  5 31  1  0
  5 32  1  0
  6 33  1  0
  6 34  1  0
  7 35  1  0
  7 36  1  0
  9 37  1  0
  9 38  1  0
 11 39  1  0
 12 40  1  0
 15 41  1  0
 15 42  1  0
 18 43  1  0
 20 44  1  0
 20 45  1  0
 20 46  1  0
 21 47  1  0
 21 48  1  0
 21 49  1  0
 22 50  1  0
 22 51  1  0
 22 52  1  0
 23 53  1  0
M  CHG  2   5   1  18   1
M  END
>  <meeko>  (8) 
{"is_sidechain": [false], "free_energy": -4.724, "intermolecular_energy": -7.696, "internal_energy": 0.847}

$$$$
GEN_SGWFKASVEJFYMJ__M_PUB_ALL__e8__s20260927
     RDKit          3D

 53 54  0  0  0  0  0  0  0  0999 V2000
   -0.1330  -14.3760    5.7270 C   0  0  0  0  0  0  0  0  0  0  0  0
    0.1350  -14.9700    4.3250 C   0  0  0  0  0  0  0  0  0  0  0  0
    1.6150  -14.7460    3.9410 C   0  0  0  0  0  0  0  0  0  0  0  0
   -0.7510  -14.1960    3.3010 C   0  0  0  0  0  0  0  0  0  0  0  0
   -0.6470  -12.7720    3.1180 N   0  0  0  0  0  0  0  0  0  0  0  0
   -1.9180  -12.1220    2.6160 C   0  0  0  0  0  0  0  0  0  0  0  0
   -1.6690  -11.3690    1.3090 C   0  0  0  0  0  0  0  0  0  0  0  0
   -0.3700  -10.6070    1.3840 C   0  0  0  0  0  0  0  0  0  0  0  0
   -0.4140   -9.3980    1.9890 N   0  0  0  0  0  0  0  0  0  0  0  0
    0.6720  -11.1030    0.9580 O   0  0  0  0  0  0  0  0  0  0  0  0
   -1.7170  -14.8030    2.5930 C   0  0  0  0  0  0  0  0  0  0  0  0
   -1.9610  -16.2130    2.7120 C   0  0  0  0  0  0  0  0  0  0  0  0
   -1.2750  -17.0050    3.5420 C   0  0  0  0  0  0  0  0  0  0  0  0
   -1.5760  -18.3600    3.5520 O   0  0  0  0  0  0  0  0  0  0  0  0
   -2.1720  -18.7960    4.7910 C   0  0  0  0  0  0  0  0  0  0  0  0
   -1.0260  -18.9780    5.7700 C   0  0  0  0  0  0  0  0  0  0  0  0
   -1.1330  -19.2060    6.9600 O   0  0  0  0  0  0  0  0  0  0  0  0
    0.3470  -18.7440    5.2330 N   0  0  0  0  0  0  0  0  0  0  0  0
    1.4800  -19.5970    5.8170 C   0  0  0  0  0  0  0  0  0  0  0  0
    1.9130  -19.1480    7.2210 C   0  0  0  0  0  0  0  0  0  0  0  0
    1.0150  -21.0670    5.8480 C   0  0  0  0  0  0  0  0  0  0  0  0
    2.6820  -19.5100    4.8520 C   0  0  0  0  0  0  0  0  0  0  0  0
    0.5910  -17.3250    5.1790 C   0  0  0  0  0  0  0  0  0  0  0  0
   -0.1590  -16.5200    4.3790 C   0  0  0  0  0  0  0  0  0  0  0  0
    0.1902  -15.0924    6.4966 H   0  0  0  0  0  0  0  0  0  0  0  0
    0.4287  -13.4371    5.8409 H   0  0  0  0  0  0  0  0  0  0  0  0
   -1.2086  -14.1759    5.8409 H   0  0  0  0  0  0  0  0  0  0  0  0
    2.2210  -14.6543    4.8544 H   0  0  0  0  0  0  0  0  0  0  0  0
    1.9732  -15.6002    3.3476 H   0  0  0  0  0  0  0  0  0  0  0  0
    1.7044  -13.8241    3.3476 H   0  0  0  0  0  0  0  0  0  0  0  0
    0.0830  -12.5350    2.4080 H   0  0  0  0  0  0  0  0  0  0  0  0
   -0.3130  -12.2970    3.9710 H   0  0  0  0  0  0  0  0  0  0  0  0
   -2.6763  -12.9001    2.4440 H   0  0  0  0  0  0  0  0  0  0  0  0
   -2.2671  -11.4042    3.3729 H   0  0  0  0  0  0  0  0  0  0  0  0
   -1.6200  -12.0891    0.4789 H   0  0  0  0  0  0  0  0  0  0  0  0
   -2.4920  -10.6583    1.1429 H   0  0  0  0  0  0  0  0  0  0  0  0
   -1.2510   -8.9770    2.3770 H   0  0  0  0  0  0  0  0  0  0  0  0
    0.4420   -8.8570    2.0820 H   0  0  0  0  0  0  0  0  0  0  0  0
   -2.3355  -14.2066    1.9062 H   0  0  0  0  0  0  0  0  0  0  0  0
   -2.7497  -16.6626    2.0908 H   0  0  0  0  0  0  0  0  0  0  0  0
   -2.8754  -18.0369    5.1639 H   0  0  0  0  0  0  0  0  0  0  0  0
   -2.7378  -19.7298    4.6574 H   0  0  0  0  0  0  0  0  0  0  0  0
    0.2440  -19.0790    4.2610 H   0  0  0  0  0  0  0  0  0  0  0  0
    1.3584  -19.7231    7.9772 H   0  0  0  0  0  0  0  0  0  0  0  0
    2.9918  -19.3232    7.3456 H   0  0  0  0  0  0  0  0  0  0  0  0
    1.6988  -18.0763    7.3456 H   0  0  0  0  0  0  0  0  0  0  0  0
    0.9107  -21.3966    6.8923 H   0  0  0  0  0  0  0  0  0  0  0  0
    0.0450  -21.1556    5.3369 H   0  0  0  0  0  0  0  0  0  0  0  0
    1.7576  -21.6973    5.3369 H   0  0  0  0  0  0  0  0  0  0  0  0
    3.6140  -19.4425    5.4324 H   0  0  0  0  0  0  0  0  0  0  0  0
    2.7090  -20.4085    4.2180 H   0  0  0  0  0  0  0  0  0  0  0  0
    2.5794  -18.6169    4.2180 H   0  0  0  0  0  0  0  0  0  0  0  0
    1.3930  -16.8876    5.7917 H   0  0  0  0  0  0  0  0  0  0  0  0
  1  2  1  0
  2  3  1  0
  2  4  1  0
  4  5  1  0
  5  6  1  0
  6  7  1  0
  7  8  1  0
  8  9  1  0
  8 10  2  0
  4 11  2  0
 11 12  1  0
 12 13  2  0
 13 14  1  0
 14 15  1  0
 15 16  1  0
 16 17  2  0
 16 18  1  0
 18 19  1  0
 19 20  1  0
 19 21  1  0
 19 22  1  0
 18 23  1  0
 23 24  2  0
 24  2  1  0
 24 13  1  0
  1 25  1  0
  1 26  1  0
  1 27  1  0
  3 28  1  0
  3 29  1  0
  3 30  1  0
  5 31  1  0
  5 32  1  0
  6 33  1  0
  6 34  1  0
  7 35  1  0
  7 36  1  0
  9 37  1  0
  9 38  1  0
 11 39  1  0
 12 40  1  0
 15 41  1  0
 15 42  1  0
 18 43  1  0
 20 44  1  0
 20 45  1  0
 20 46  1  0
 21 47  1  0
 21 48  1  0
 21 49  1  0
 22 50  1  0
 22 51  1  0
 22 52  1  0
 23 53  1  0
M  CHG  2   5   1  18   1
M  END
>  <meeko>  (9) 
{"is_sidechain": [false], "free_energy": -4.581, "intermolecular_energy": -6.929, "internal_energy": 0.299}

$$$$
