GEN_FJAATUDLBLEIEO__M_PUB_ALL__e8__s20260927
     RDKit          3D

 37 40  0  0  0  0  0  0  0  0999 V2000
   13.2540  -10.2840    0.1750 C   0  0  0  0  0  0  0  0  0  0  0  0
   12.9860  -11.1070   -1.0760 C   0  0  0  0  0  0  0  0  0  0  0  0
   12.0130  -12.2230   -0.8110 C   0  0  0  0  0  0  0  0  0  0  0  0
   11.9170  -13.3970   -1.4690 C   0  0  0  0  0  0  0  0  0  0  0  0
   12.6150  -13.9000   -2.6770 C   0  0  0  0  0  0  0  0  0  0  0  0
   13.3990  -13.2440   -3.6090 C   0  0  0  0  0  0  0  0  0  0  0  0
   13.9180  -13.9630   -4.6980 C   0  0  0  0  0  0  0  0  0  0  0  0
   13.6760  -15.3340   -4.9160 C   0  0  0  0  0  0  0  0  0  0  0  0
   14.1580  -15.9640   -5.9140 O   0  0  0  0  0  0  0  0  0  0  0  0
   12.8550  -15.9510   -3.9530 C   0  0  0  0  0  0  0  0  0  0  0  0
   12.3220  -15.2620   -2.8550 C   0  0  0  0  0  0  0  0  0  0  0  0
   11.4120  -15.7720   -1.7810 C   0  0  0  0  0  0  0  0  0  0  0  0
   11.7350  -17.0610   -1.0550 C   0  0  0  0  0  0  0  0  0  0  0  0
   10.5200  -16.9820   -1.9330 C   0  0  0  0  0  0  0  0  0  0  0  0
   11.0090  -14.5350   -0.9760 C   0  0  2  0  0  0  0  0  0  0  0  0
    9.5270  -14.1700   -1.1600 C   0  0  0  0  0  0  0  0  0  0  0  0
    9.1970  -12.7240   -0.8120 C   0  0  0  0  0  0  0  0  0  0  0  0
    9.8790  -12.2640    0.4420 C   0  0  0  0  0  0  0  0  0  0  0  0
    9.2700  -12.1440    1.5030 O   0  0  0  0  0  0  0  0  0  0  0  0
   11.2080  -11.9570    0.3420 O   0  0  0  0  0  0  0  0  0  0  0  0
   13.0545  -10.8966    1.0666 H   0  0  0  0  0  0  0  0  0  0  0  0
   14.3046   -9.9583    0.1815 H   0  0  0  0  0  0  0  0  0  0  0  0
   12.5966   -9.4021    0.1815 H   0  0  0  0  0  0  0  0  0  0  0  0
   12.5703  -10.4489   -1.8532 H   0  0  0  0  0  0  0  0  0  0  0  0
   13.9371  -11.5523   -1.4033 H   0  0  0  0  0  0  0  0  0  0  0  0
   13.6136  -12.1708   -3.4983 H   0  0  0  0  0  0  0  0  0  0  0  0
   14.5489  -13.4258   -5.4215 H   0  0  0  0  0  0  0  0  0  0  0  0
   12.6218  -17.0199   -4.0673 H   0  0  0  0  0  0  0  0  0  0  0  0
   12.5998  -17.6653   -1.3664 H   0  0  0  0  0  0  0  0  0  0  0  0
   11.9191  -17.3369   -0.0062 H   0  0  0  0  0  0  0  0  0  0  0  0
   10.4953  -17.5295   -2.8867 H   0  0  0  0  0  0  0  0  0  0  0  0
    9.4467  -17.1772   -1.7915 H   0  0  0  0  0  0  0  0  0  0  0  0
   11.1314  -14.7235    0.1008 H   0  0  0  0  0  0  0  0  0  0  0  0
    9.2562  -14.3430   -2.2120 H   0  0  0  0  0  0  0  0  0  0  0  0
    8.9549  -14.8029   -0.4657 H   0  0  0  0  0  0  0  0  0  0  0  0
    9.5167  -12.0794   -1.6440 H   0  0  0  0  0  0  0  0  0  0  0  0
    8.1117  -12.6604   -0.6443 H   0  0  0  0  0  0  0  0  0  0  0  0
  1  2  1  0
  2  3  1  0
  3  4  2  0
  4  5  1  0
  5  6  2  0
  6  7  1  0
  7  8  2  0
  8  9  1  0
  8 10  1  0
 10 11  2  0
 11 12  1  0
 12 13  1  0
 13 14  1  0
 12 15  1  0
 15 16  1  0
 16 17  1  0
 17 18  1  0
 18 19  2  0
 18 20  1  0
 20  3  1  0
 15  4  1  0
 11  5  1  0
 14 12  1  0
  1 21  1  0
  1 22  1  0
  1 23  1  0
  2 24  1  0
  2 25  1  0
  6 26  1  0
  7 27  1  0
 10 28  1  0
 13 29  1  0
 13 30  1  0
 14 31  1  0
 14 32  1  0
 15 33  1  1
 16 34  1  0
 16 35  1  0
 17 36  1  0
 17 37  1  0
M  CHG  1   9  -1
M  END
>  <meeko>  (1) 
{"is_sidechain": [false], "free_energy": -5.547, "intermolecular_energy": -7.168, "internal_energy": 1.07}

$$$$
GEN_FJAATUDLBLEIEO__M_PUB_ALL__e8__s20260927
     RDKit          3D

 37 40  0  0  0  0  0  0  0  0999 V2000
    0.3750  -15.0580   -1.0530 C   0  0  0  0  0  0  0  0  0  0  0  0
    0.5220  -15.3690    0.4290 C   0  0  0  0  0  0  0  0  0  0  0  0
   -0.8160  -15.5050    1.1050 C   0  0  0  0  0  0  0  0  0  0  0  0
   -1.6160  -14.5100    1.5400 C   0  0  0  0  0  0  0  0  0  0  0  0
   -1.4070  -13.0440    1.6020 C   0  0  0  0  0  0  0  0  0  0  0  0
   -0.2600  -12.2850    1.4440 C   0  0  0  0  0  0  0  0  0  0  0  0
   -0.3330  -10.8910    1.5940 C   0  0  0  0  0  0  0  0  0  0  0  0
   -1.5190  -10.1990    1.9140 C   0  0  0  0  0  0  0  0  0  0  0  0
   -1.5580   -8.9320    2.0450 O   0  0  0  0  0  0  0  0  0  0  0  0
   -2.6520  -11.0170    2.0860 C   0  0  0  0  0  0  0  0  0  0  0  0
   -2.6130  -12.4110    1.9440 C   0  0  0  0  0  0  0  0  0  0  0  0
   -3.7180  -13.4040    2.1320 C   0  0  0  0  0  0  0  0  0  0  0  0
   -5.0610  -13.1850    1.4680 C   0  0  0  0  0  0  0  0  0  0  0  0
   -4.9520  -13.1470    2.9650 C   0  0  0  0  0  0  0  0  0  0  0  0
   -3.0460  -14.7750    2.0390 C   0  0  2  0  0  0  0  0  0  0  0  0
   -3.0270  -15.5140    3.3860 C   0  0  0  0  0  0  0  0  0  0  0  0
   -1.9510  -16.5880    3.4890 C   0  0  0  0  0  0  0  0  0  0  0  0
   -1.8560  -17.4420    2.2410 C   0  0  0  0  0  0  0  0  0  0  0  0
   -2.2920  -18.5910    2.1980 O   0  0  0  0  0  0  0  0  0  0  0  0
   -1.2400  -16.8710    1.1620 O   0  0  0  0  0  0  0  0  0  0  0  0
   -0.0921  -14.0697   -1.1757 H   0  0  0  0  0  0  0  0  0  0  0  0
    1.3674  -15.0559   -1.5274 H   0  0  0  0  0  0  0  0  0  0  0  0
   -0.2566  -15.8235   -1.5274 H   0  0  0  0  0  0  0  0  0  0  0  0
    1.0759  -16.3126    0.5419 H   0  0  0  0  0  0  0  0  0  0  0  0
    1.0620  -14.5356    0.9022 H   0  0  0  0  0  0  0  0  0  0  0  0
    0.6981  -12.7689    1.2035 H   0  0  0  0  0  0  0  0  0  0  0  0
    0.5875  -10.3053    1.4539 H   0  0  0  0  0  0  0  0  0  0  0  0
   -3.6099  -10.5412    2.3431 H   0  0  0  0  0  0  0  0  0  0  0  0
   -5.2522  -12.2583    0.9071 H   0  0  0  0  0  0  0  0  0  0  0  0
   -5.6726  -13.7479    0.7475 H   0  0  0  0  0  0  0  0  0  0  0  0
   -5.0645  -12.1923    3.4996 H   0  0  0  0  0  0  0  0  0  0  0  0
   -5.4522  -13.6710    3.7928 H   0  0  0  0  0  0  0  0  0  0  0  0
   -3.6067  -15.4300    1.3559 H   0  0  0  0  0  0  0  0  0  0  0  0
   -2.8560  -14.7756    4.1832 H   0  0  0  0  0  0  0  0  0  0  0  0
   -3.9965  -16.0248    3.4823 H   0  0  0  0  0  0  0  0  0  0  0  0
   -0.9800  -16.0986    3.6553 H   0  0  0  0  0  0  0  0  0  0  0  0
   -2.2212  -17.2500    4.3249 H   0  0  0  0  0  0  0  0  0  0  0  0
  1  2  1  0
  2  3  1  0
  3  4  2  0
  4  5  1  0
  5  6  2  0
  6  7  1  0
  7  8  2  0
  8  9  1  0
  8 10  1  0
 10 11  2  0
 11 12  1  0
 12 13  1  0
 13 14  1  0
 12 15  1  0
 15 16  1  0
 16 17  1  0
 17 18  1  0
 18 19  2  0
 18 20  1  0
 20  3  1  0
 15  4  1  0
 11  5  1  0
 14 12  1  0
  1 21  1  0
  1 22  1  0
  1 23  1  0
  2 24  1  0
  2 25  1  0
  6 26  1  0
  7 27  1  0
 10 28  1  0
 13 29  1  0
 13 30  1  0
 14 31  1  0
 14 32  1  0
 15 33  1  6
 16 34  1  0
 16 35  1  0
 17 36  1  0
 17 37  1  0
M  CHG  1   9  -1
M  END
>  <meeko>  (2) 
{"is_sidechain": [false], "free_energy": -5.453, "intermolecular_energy": -6.925, "internal_energy": 0.948}

$$$$
GEN_FJAATUDLBLEIEO__M_PUB_ALL__e8__s20260927
     RDKit          3D

 37 40  0  0  0  0  0  0  0  0999 V2000
   -4.2660  -11.0780   -0.5430 C   0  0  0  0  0  0  0  0  0  0  0  0
   -3.4970  -12.3630   -0.2740 C   0  0  0  0  0  0  0  0  0  0  0  0
   -2.3810  -12.1490    0.7120 C   0  0  0  0  0  0  0  0  0  0  0  0
   -1.7340  -13.0890    1.4310 C   0  0  0  0  0  0  0  0  0  0  0  0
   -1.9700  -14.5460    1.5730 C   0  0  0  0  0  0  0  0  0  0  0  0
   -3.0450  -15.3300    1.1920 C   0  0  0  0  0  0  0  0  0  0  0  0
   -3.0300  -16.7030    1.4840 C   0  0  0  0  0  0  0  0  0  0  0  0
   -1.9770  -17.3470    2.1650 C   0  0  0  0  0  0  0  0  0  0  0  0
   -1.9890  -18.5960    2.4190 O   0  0  0  0  0  0  0  0  0  0  0  0
   -0.9190  -16.5030    2.5510 C   0  0  0  0  0  0  0  0  0  0  0  0
   -0.9020  -15.1290    2.2750 C   0  0  0  0  0  0  0  0  0  0  0  0
    0.1270  -14.1090    2.6510 C   0  0  0  0  0  0  0  0  0  0  0  0
    1.5940  -14.3710    2.3840 C   0  0  0  0  0  0  0  0  0  0  0  0
    1.0980  -14.2720    3.7980 C   0  0  0  0  0  0  0  0  0  0  0  0
   -0.4810  -12.7610    2.2590 C   0  0  2  0  0  0  0  0  0  0  0  0
   -0.8420  -11.9010    3.4800 C   0  0  0  0  0  0  0  0  0  0  0  0
   -1.8760  -10.8180    3.1920 C   0  0  0  0  0  0  0  0  0  0  0  0
   -1.6250  -10.1090    1.8930 C   0  0  0  0  0  0  0  0  0  0  0  0
   -1.1550   -8.9740    1.8550 O   0  0  0  0  0  0  0  0  0  0  0  0
   -1.9700  -10.7780    0.7510 O   0  0  0  0  0  0  0  0  0  0  0  0
   -4.5455  -10.6110    0.4129 H   0  0  0  0  0  0  0  0  0  0  0  0
   -3.6336  -10.3858   -1.1182 H   0  0  0  0  0  0  0  0  0  0  0  0
   -5.1749  -11.3082   -1.1182 H   0  0  0  0  0  0  0  0  0  0  0  0
   -4.1904  -13.1151    0.1304 H   0  0  0  0  0  0  0  0  0  0  0  0
   -3.0554  -12.7027   -1.2225 H   0  0  0  0  0  0  0  0  0  0  0  0
   -3.9014  -14.8824    0.6664 H   0  0  0  0  0  0  0  0  0  0  0  0
   -3.8888  -17.3110    1.1632 H   0  0  0  0  0  0  0  0  0  0  0  0
   -0.0680  -16.9410    3.0932 H   0  0  0  0  0  0  0  0  0  0  0  0
    1.9141  -15.3430    1.9807 H   0  0  0  0  0  0  0  0  0  0  0  0
    2.3789  -13.8691    1.7991 H   0  0  0  0  0  0  0  0  0  0  0  0
    1.0559  -15.1717    4.4294 H   0  0  0  0  0  0  0  0  0  0  0  0
    1.3709  -13.6674    4.6755 H   0  0  0  0  0  0  0  0  0  0  0  0
    0.2463  -12.1650    1.6881 H   0  0  0  0  0  0  0  0  0  0  0  0
   -1.2425  -12.5622    4.2626 H   0  0  0  0  0  0  0  0  0  0  0  0
    0.0794  -11.3867    3.7906 H   0  0  0  0  0  0  0  0  0  0  0  0
   -2.8718  -11.2837    3.1522 H   0  0  0  0  0  0  0  0  0  0  0  0
   -1.8084  -10.0713    3.9969 H   0  0  0  0  0  0  0  0  0  0  0  0
  1  2  1  0
  2  3  1  0
  3  4  2  0
  4  5  1  0
  5  6  2  0
  6  7  1  0
  7  8  2  0
  8  9  1  0
  8 10  1  0
 10 11  2  0
 11 12  1  0
 12 13  1  0
 13 14  1  0
 12 15  1  0
 15 16  1  0
 16 17  1  0
 17 18  1  0
 18 19  2  0
 18 20  1  0
 20  3  1  0
 15  4  1  0
 11  5  1  0
 14 12  1  0
  1 21  1  0
  1 22  1  0
  1 23  1  0
  2 24  1  0
  2 25  1  0
  6 26  1  0
  7 27  1  0
 10 28  1  0
 13 29  1  0
 13 30  1  0
 14 31  1  0
 14 32  1  0
 15 33  1  6
 16 34  1  0
 16 35  1  0
 17 36  1  0
 17 37  1  0
M  CHG  1   9  -1
M  END
>  <meeko>  (3) 
{"is_sidechain": [false], "free_energy": -5.192, "intermolecular_energy": -6.701, "internal_energy": 1.061}

$$$$
GEN_FJAATUDLBLEIEO__M_PUB_ALL__e8__s20260927
     RDKit          3D

 37 40  0  0  0  0  0  0  0  0999 V2000
   -5.0620  -12.9630    1.5790 C   0  0  0  0  0  0  0  0  0  0  0  0
   -4.3000  -12.7080    0.2870 C   0  0  0  0  0  0  0  0  0  0  0  0
   -2.9470  -12.1050    0.5480 C   0  0  0  0  0  0  0  0  0  0  0  0
   -1.7470  -12.7130    0.4460 C   0  0  0  0  0  0  0  0  0  0  0  0
   -1.3880  -14.1260    0.1750 C   0  0  0  0  0  0  0  0  0  0  0  0
   -2.1630  -15.2720    0.1670 C   0  0  0  0  0  0  0  0  0  0  0  0
   -1.5550  -16.5110   -0.0880 C   0  0  0  0  0  0  0  0  0  0  0  0
   -0.1750  -16.6710   -0.3290 C   0  0  0  0  0  0  0  0  0  0  0  0
    0.3540  -17.8080   -0.5580 O   0  0  0  0  0  0  0  0  0  0  0  0
    0.5730  -15.4790   -0.2880 C   0  0  0  0  0  0  0  0  0  0  0  0
   -0.0030  -14.2270   -0.0360 C   0  0  0  0  0  0  0  0  0  0  0  0
    0.6660  -12.8910    0.0730 C   0  0  0  0  0  0  0  0  0  0  0  0
    1.6420  -12.4370   -0.9910 C   0  0  0  0  0  0  0  0  0  0  0  0
    2.1280  -12.7030    0.4040 C   0  0  0  0  0  0  0  0  0  0  0  0
   -0.4270  -11.9330    0.5510 C   0  0  2  0  0  0  0  0  0  0  0  0
   -0.1940  -11.4450    1.9900 C   0  0  0  0  0  0  0  0  0  0  0  0
   -1.4500  -10.9270    2.6800 C   0  0  0  0  0  0  0  0  0  0  0  0
   -2.2760  -10.0590    1.7680 C   0  0  0  0  0  0  0  0  0  0  0  0
   -2.2800   -8.8330    1.8630 O   0  0  0  0  0  0  0  0  0  0  0  0
   -3.0410  -10.7070    0.8380 O   0  0  0  0  0  0  0  0  0  0  0  0
   -4.4105  -12.7450    2.4381 H   0  0  0  0  0  0  0  0  0  0  0  0
   -5.9482  -12.3125    1.6165 H   0  0  0  0  0  0  0  0  0  0  0  0
   -5.3782  -14.0159    1.6165 H   0  0  0  0  0  0  0  0  0  0  0  0
   -4.1684  -13.6626   -0.2434 H   0  0  0  0  0  0  0  0  0  0  0  0
   -4.8809  -11.9969   -0.3187 H   0  0  0  0  0  0  0  0  0  0  0  0
   -3.2446  -15.2127    0.3585 H   0  0  0  0  0  0  0  0  0  0  0  0
   -2.1912  -17.4082   -0.1006 H   0  0  0  0  0  0  0  0  0  0  0  0
    1.6579  -15.5331   -0.4615 H   0  0  0  0  0  0  0  0  0  0  0  0
    1.9195  -13.1182   -1.8089 H   0  0  0  0  0  0  0  0  0  0  0  0
    1.6956  -11.5835   -1.6829 H   0  0  0  0  0  0  0  0  0  0  0  0
    2.7620  -13.5787    0.6069 H   0  0  0  0  0  0  0  0  0  0  0  0
    2.6852  -12.1239    1.1551 H   0  0  0  0  0  0  0  0  0  0  0  0
   -0.4348  -11.0236   -0.0678 H   0  0  0  0  0  0  0  0  0  0  0  0
    0.2035  -12.2842    2.5797 H   0  0  0  0  0  0  0  0  0  0  0  0
    0.5074  -10.5998    1.9297 H   0  0  0  0  0  0  0  0  0  0  0  0
   -2.0586  -11.7852    3.0012 H   0  0  0  0  0  0  0  0  0  0  0  0
   -1.1384  -10.3167    3.5405 H   0  0  0  0  0  0  0  0  0  0  0  0
  1  2  1  0
  2  3  1  0
  3  4  2  0
  4  5  1  0
  5  6  2  0
  6  7  1  0
  7  8  2  0
  8  9  1  0
  8 10  1  0
 10 11  2  0
 11 12  1  0
 12 13  1  0
 13 14  1  0
 12 15  1  0
 15 16  1  0
 16 17  1  0
 17 18  1  0
 18 19  2  0
 18 20  1  0
 20  3  1  0
 15  4  1  0
 11  5  1  0
 14 12  1  0
  1 21  1  0
  1 22  1  0
  1 23  1  0
  2 24  1  0
  2 25  1  0
  6 26  1  0
  7 27  1  0
 10 28  1  0
 13 29  1  0
 13 30  1  0
 14 31  1  0
 14 32  1  0
 15 33  1  6
 16 34  1  0
 16 35  1  0
 17 36  1  0
 17 37  1  0
M  CHG  1   9  -1
M  END
>  <meeko>  (4) 
{"is_sidechain": [false], "free_energy": -5.149, "intermolecular_energy": -6.566, "internal_energy": 0.982}

$$$$
GEN_FJAATUDLBLEIEO__M_PUB_ALL__e8__s20260927
     RDKit          3D

 37 40  0  0  0  0  0  0  0  0999 V2000
   -2.8880  -15.9410    2.6510 C   0  0  0  0  0  0  0  0  0  0  0  0
   -1.4480  -15.6260    3.0280 C   0  0  0  0  0  0  0  0  0  0  0  0
   -0.6070  -15.3270    1.8160 C   0  0  0  0  0  0  0  0  0  0  0  0
   -0.2610  -14.1130    1.3410 C   0  0  0  0  0  0  0  0  0  0  0  0
   -0.6660  -12.7490    1.7570 C   0  0  0  0  0  0  0  0  0  0  0  0
   -1.6780  -12.3210    2.5990 C   0  0  0  0  0  0  0  0  0  0  0  0
   -1.8720  -10.9450    2.7960 C   0  0  0  0  0  0  0  0  0  0  0  0
   -1.0980   -9.9480    2.1690 C   0  0  0  0  0  0  0  0  0  0  0  0
   -1.2950   -8.7040    2.3640 O   0  0  0  0  0  0  0  0  0  0  0  0
   -0.0970  -10.4330    1.3050 C   0  0  0  0  0  0  0  0  0  0  0  0
    0.1230  -11.8000    1.0870 C   0  0  0  0  0  0  0  0  0  0  0  0
    1.1150  -12.4560    0.1780 C   0  0  0  0  0  0  0  0  0  0  0  0
    2.5690  -12.0340    0.2030 C   0  0  0  0  0  0  0  0  0  0  0  0
    1.7390  -11.7810   -1.0210 C   0  0  0  0  0  0  0  0  0  0  0  0
    0.7630  -13.9440    0.2070 C   0  0  2  0  0  0  0  0  0  0  0  0
    0.1850  -14.4380   -1.1290 C   0  0  0  0  0  0  0  0  0  0  0  0
   -0.6580  -15.7020   -1.0100 C   0  0  0  0  0  0  0  0  0  0  0  0
   -0.0060  -16.7480   -0.1190 C   0  0  0  0  0  0  0  0  0  0  0  0
    0.5330  -17.7560   -0.5710 O   0  0  0  0  0  0  0  0  0  0  0  0
   -0.0890  -16.5240    1.2280 O   0  0  0  0  0  0  0  0  0  0  0  0
   -3.4861  -16.0718    3.5649 H   0  0  0  0  0  0  0  0  0  0  0  0
   -3.3014  -15.1121    2.0578 H   0  0  0  0  0  0  0  0  0  0  0  0
   -2.9176  -16.8669    2.0578 H   0  0  0  0  0  0  0  0  0  0  0  0
   -1.4374  -14.7505    3.6939 H   0  0  0  0  0  0  0  0  0  0  0  0
   -1.0244  -16.5085    3.5296 H   0  0  0  0  0  0  0  0  0  0  0  0
   -2.3234  -13.0517    3.1084 H   0  0  0  0  0  0  0  0  0  0  0  0
   -2.6737  -10.6266    3.4786 H   0  0  0  0  0  0  0  0  0  0  0  0
    0.5400   -9.7072    0.7782 H   0  0  0  0  0  0  0  0  0  0  0  0
    2.8860  -11.1919    0.8357 H   0  0  0  0  0  0  0  0  0  0  0  0
    3.5227  -12.5442    0.4031 H   0  0  0  0  0  0  0  0  0  0  0  0
    1.4492  -10.7532   -1.2849 H   0  0  0  0  0  0  0  0  0  0  0  0
    1.8351  -12.0296   -2.0882 H   0  0  0  0  0  0  0  0  0  0  0  0
    1.6674  -14.5473    0.3745 H   0  0  0  0  0  0  0  0  0  0  0  0
   -0.4451  -13.6403   -1.5494 H   0  0  0  0  0  0  0  0  0  0  0  0
    1.0410  -14.6858   -1.7739 H   0  0  0  0  0  0  0  0  0  0  0  0
   -1.6370  -15.4357   -0.5850 H   0  0  0  0  0  0  0  0  0  0  0  0
   -0.7614  -16.1339   -2.0164 H   0  0  0  0  0  0  0  0  0  0  0  0
  1  2  1  0
  2  3  1  0
  3  4  2  0
  4  5  1  0
  5  6  2  0
  6  7  1  0
  7  8  2  0
  8  9  1  0
  8 10  1  0
 10 11  2  0
 11 12  1  0
 12 13  1  0
 13 14  1  0
 12 15  1  0
 15 16  1  0
 16 17  1  0
 17 18  1  0
 18 19  2  0
 18 20  1  0
 20  3  1  0
 15  4  1  0
 11  5  1  0
 14 12  1  0
  1 21  1  0
  1 22  1  0
  1 23  1  0
  2 24  1  0
  2 25  1  0
  6 26  1  0
  7 27  1  0
 10 28  1  0
 13 29  1  0
 13 30  1  0
 14 31  1  0
 14 32  1  0
 15 33  1  1
 16 34  1  0
 16 35  1  0
 17 36  1  0
 17 37  1  0
M  CHG  1   9  -1
M  END
>  <meeko>  (5) 
{"is_sidechain": [false], "free_energy": -5.068, "intermolecular_energy": -6.427, "internal_energy": 0.949}

$$$$
GEN_FJAATUDLBLEIEO__M_PUB_ALL__e8__s20260927
     RDKit          3D

 37 40  0  0  0  0  0  0  0  0999 V2000
    1.6930  -13.7140   -2.7200 C   0  0  0  0  0  0  0  0  0  0  0  0
    1.5700  -13.2270   -1.2840 C   0  0  0  0  0  0  0  0  0  0  0  0
    0.5080  -13.9800   -0.5290 C   0  0  0  0  0  0  0  0  0  0  0  0
   -0.4400  -13.4640    0.2810 C   0  0  0  0  0  0  0  0  0  0  0  0
   -0.6640  -12.0810    0.7650 C   0  0  0  0  0  0  0  0  0  0  0  0
    0.1460  -10.9600    0.7130 C   0  0  0  0  0  0  0  0  0  0  0  0
   -0.3030   -9.7620    1.2900 C   0  0  0  0  0  0  0  0  0  0  0  0
   -1.5430   -9.6250    1.9440 C   0  0  0  0  0  0  0  0  0  0  0  0
   -1.9270   -8.5250    2.4620 O   0  0  0  0  0  0  0  0  0  0  0  0
   -2.3210  -10.7980    1.9900 C   0  0  0  0  0  0  0  0  0  0  0  0
   -1.9030  -12.0100    1.4240 C   0  0  0  0  0  0  0  0  0  0  0  0
   -2.5980  -13.3350    1.4270 C   0  0  0  0  0  0  0  0  0  0  0  0
   -4.0550  -13.4340    1.0250 C   0  0  0  0  0  0  0  0  0  0  0  0
   -3.6470  -13.7370    2.4380 C   0  0  0  0  0  0  0  0  0  0  0  0
   -1.5870  -14.3210    0.8390 C   0  0  2  0  0  0  0  0  0  0  0  0
   -1.0650  -15.3210    1.8830 C   0  0  0  0  0  0  0  0  0  0  0  0
    0.2650  -15.9660    1.5120 C   0  0  0  0  0  0  0  0  0  0  0  0
    0.3270  -16.3750    0.0670 C   0  0  0  0  0  0  0  0  0  0  0  0
    0.2280  -17.5500   -0.2790 O   0  0  0  0  0  0  0  0  0  0  0  0
    0.5280  -15.3760   -0.8450 O   0  0  0  0  0  0  0  0  0  0  0  0
    1.9624  -14.7805   -2.7237 H   0  0  0  0  0  0  0  0  0  0  0  0
    0.7320  -13.5767   -3.2373 H   0  0  0  0  0  0  0  0  0  0  0  0
    2.4736  -13.1369   -3.2373 H   0  0  0  0  0  0  0  0  0  0  0  0
    2.5356  -13.3675   -0.7762 H   0  0  0  0  0  0  0  0  0  0  0  0
    1.2865  -12.1644   -1.3058 H   0  0  0  0  0  0  0  0  0  0  0  0
    1.1306  -11.0075    0.2249 H   0  0  0  0  0  0  0  0  0  0  0  0
    0.3508   -8.8796    1.2280 H   0  0  0  0  0  0  0  0  0  0  0  0
   -3.2991  -10.7613    2.4919 H   0  0  0  0  0  0  0  0  0  0  0  0
   -4.6268  -12.5212    0.8018 H   0  0  0  0  0  0  0  0  0  0  0  0
   -4.6106  -13.9737    0.2440 H   0  0  0  0  0  0  0  0  0  0  0  0
   -3.9213  -13.0461    3.2488 H   0  0  0  0  0  0  0  0  0  0  0  0
   -3.7818  -14.5909    3.1182 H   0  0  0  0  0  0  0  0  0  0  0  0
   -2.0604  -14.9353    0.0589 H   0  0  0  0  0  0  0  0  0  0  0  0
   -0.9375  -14.7896    2.8376 H   0  0  0  0  0  0  0  0  0  0  0  0
   -1.8057  -16.1318    1.9456 H   0  0  0  0  0  0  0  0  0  0  0  0
    1.0727  -15.2458    1.7091 H   0  0  0  0  0  0  0  0  0  0  0  0
    0.3747  -16.8759    2.1203 H   0  0  0  0  0  0  0  0  0  0  0  0
  1  2  1  0
  2  3  1  0
  3  4  2  0
  4  5  1  0
  5  6  2  0
  6  7  1  0
  7  8  2  0
  8  9  1  0
  8 10  1  0
 10 11  2  0
 11 12  1  0
 12 13  1  0
 13 14  1  0
 12 15  1  0
 15 16  1  0
 16 17  1  0
 17 18  1  0
 18 19  2  0
 18 20  1  0
 20  3  1  0
 15  4  1  0
 11  5  1  0
 14 12  1  0
  1 21  1  0
  1 22  1  0
  1 23  1  0
  2 24  1  0
  2 25  1  0
  6 26  1  0
  7 27  1  0
 10 28  1  0
 13 29  1  0
 13 30  1  0
 14 31  1  0
 14 32  1  0
 15 33  1  6
 16 34  1  0
 16 35  1  0
 17 36  1  0
 17 37  1  0
M  CHG  1   9  -1
M  END
>  <meeko>  (6) 
{"is_sidechain": [false], "free_energy": -4.999, "intermolecular_energy": -6.445, "internal_energy": 1.056}

$$$$
GEN_FJAATUDLBLEIEO__M_PUB_ALL__e8__s20260927
     RDKit          3D

 37 40  0  0  0  0  0  0  0  0999 V2000
   -1.7760   -9.6110    2.5500 C   0  0  0  0  0  0  0  0  0  0  0  0
   -1.3070  -10.9810    3.0150 C   0  0  0  0  0  0  0  0  0  0  0  0
   -1.9090  -12.0860    2.1910 C   0  0  0  0  0  0  0  0  0  0  0  0
   -1.3100  -12.7950    1.2120 C   0  0  0  0  0  0  0  0  0  0  0  0
    0.0220  -12.6520    0.5770 C   0  0  0  0  0  0  0  0  0  0  0  0
    0.9500  -11.6270    0.6400 C   0  0  0  0  0  0  0  0  0  0  0  0
    2.1380  -11.7300   -0.1020 C   0  0  0  0  0  0  0  0  0  0  0  0
    2.4490  -12.8250   -0.9340 C   0  0  0  0  0  0  0  0  0  0  0  0
    3.5340  -12.8940   -1.5980 O   0  0  0  0  0  0  0  0  0  0  0  0
    1.4640  -13.8300   -0.9810 C   0  0  0  0  0  0  0  0  0  0  0  0
    0.2680  -13.7580   -0.2540 C   0  0  0  0  0  0  0  0  0  0  0  0
   -0.8770  -14.7220   -0.2330 C   0  0  0  0  0  0  0  0  0  0  0  0
   -0.6250  -16.2020   -0.0330 C   0  0  0  0  0  0  0  0  0  0  0  0
   -1.1710  -15.7070   -1.3410 C   0  0  0  0  0  0  0  0  0  0  0  0
   -1.9720  -14.0290    0.5780 C   0  0  2  0  0  0  0  0  0  0  0  0
   -3.1750  -13.6200   -0.2860 C   0  0  0  0  0  0  0  0  0  0  0  0
   -4.0110  -12.4920    0.3080 C   0  0  0  0  0  0  0  0  0  0  0  0
   -4.2800  -12.6750    1.7940 C   0  0  0  0  0  0  0  0  0  0  0  0
   -5.3770  -13.0200    2.2270 O   0  0  0  0  0  0  0  0  0  0  0  0
   -3.2320  -12.4100    2.6310 O   0  0  0  0  0  0  0  0  0  0  0  0
   -1.9918   -8.9807    3.4253 H   0  0  0  0  0  0  0  0  0  0  0  0
   -0.9880   -9.1398    1.9442 H   0  0  0  0  0  0  0  0  0  0  0  0
   -2.6875   -9.7216    1.9442 H   0  0  0  0  0  0  0  0  0  0  0  0
   -0.2113  -11.0300    2.9305 H   0  0  0  0  0  0  0  0  0  0  0  0
   -1.6292  -11.1173    4.0579 H   0  0  0  0  0  0  0  0  0  0  0  0
    0.7592  -10.7416    1.2642 H   0  0  0  0  0  0  0  0  0  0  0  0
    2.8673  -10.9097   -0.0299 H   0  0  0  0  0  0  0  0  0  0  0  0
    1.6410  -14.7104   -1.6163 H   0  0  0  0  0  0  0  0  0  0  0  0
    0.4060  -16.5812    0.0239 H   0  0  0  0  0  0  0  0  0  0  0  0
   -0.9420  -16.9510    0.7077 H   0  0  0  0  0  0  0  0  0  0  0  0
   -0.5395  -15.7249   -2.2415 H   0  0  0  0  0  0  0  0  0  0  0  0
   -2.0533  -15.9452   -1.9532 H   0  0  0  0  0  0  0  0  0  0  0  0
   -2.3776  -14.7150    1.3362 H   0  0  0  0  0  0  0  0  0  0  0  0
   -2.8007  -13.2931   -1.2673 H   0  0  0  0  0  0  0  0  0  0  0  0
   -3.8313  -14.5001   -0.3543 H   0  0  0  0  0  0  0  0  0  0  0  0
   -3.4742  -11.5430    0.1626 H   0  0  0  0  0  0  0  0  0  0  0  0
   -4.9832  -12.4949   -0.2066 H   0  0  0  0  0  0  0  0  0  0  0  0
  1  2  1  0
  2  3  1  0
  3  4  2  0
  4  5  1  0
  5  6  2  0
  6  7  1  0
  7  8  2  0
  8  9  1  0
  8 10  1  0
 10 11  2  0
 11 12  1  0
 12 13  1  0
 13 14  1  0
 12 15  1  0
 15 16  1  0
 16 17  1  0
 17 18  1  0
 18 19  2  0
 18 20  1  0
 20  3  1  0
 15  4  1  0
 11  5  1  0
 14 12  1  0
  1 21  1  0
  1 22  1  0
  1 23  1  0
  2 24  1  0
  2 25  1  0
  6 26  1  0
  7 27  1  0
 10 28  1  0
 13 29  1  0
 13 30  1  0
 14 31  1  0
 14 32  1  0
 15 33  1  1
 16 34  1  0
 16 35  1  0
 17 36  1  0
 17 37  1  0
M  CHG  1   9  -1
M  END
>  <meeko>  (7) 
{"is_sidechain": [false], "free_energy": -4.992, "intermolecular_energy": -6.312, "internal_energy": 0.931}

$$$$
GEN_FJAATUDLBLEIEO__M_PUB_ALL__e8__s20260927
     RDKit          3D

 37 40  0  0  0  0  0  0  0  0999 V2000
    6.7220  -10.5530    1.2500 C   0  0  0  0  0  0  0  0  0  0  0  0
    6.9780  -11.8600    0.5140 C   0  0  0  0  0  0  0  0  0  0  0  0
    6.6500  -11.7490   -0.9500 C   0  0  0  0  0  0  0  0  0  0  0  0
    5.4390  -11.8790   -1.5280 C   0  0  0  0  0  0  0  0  0  0  0  0
    4.1240  -12.2700   -0.9650 C   0  0  0  0  0  0  0  0  0  0  0  0
    3.7920  -12.8270    0.2570 C   0  0  0  0  0  0  0  0  0  0  0  0
    2.4500  -13.1400    0.5280 C   0  0  0  0  0  0  0  0  0  0  0  0
    1.3990  -12.9320   -0.3880 C   0  0  0  0  0  0  0  0  0  0  0  0
    0.1880  -13.2260   -0.1190 O   0  0  0  0  0  0  0  0  0  0  0  0
    1.7910  -12.3850   -1.6240 C   0  0  0  0  0  0  0  0  0  0  0  0
    3.1210  -12.0610   -1.9260 C   0  0  0  0  0  0  0  0  0  0  0  0
    3.6870  -11.5130   -3.1980 C   0  0  0  0  0  0  0  0  0  0  0  0
    3.0470  -10.3130   -3.8640 C   0  0  0  0  0  0  0  0  0  0  0  0
    3.0210  -11.6490   -4.5480 C   0  0  0  0  0  0  0  0  0  0  0  0
    5.2050  -11.5500   -3.0110 C   0  0  2  0  0  0  0  0  0  0  0  0
    5.8840  -12.5900   -3.9160 C   0  0  0  0  0  0  0  0  0  0  0  0
    7.2500  -13.0480   -3.4170 C   0  0  0  0  0  0  0  0  0  0  0  0
    8.1150  -11.8940   -2.9400 C   0  0  0  0  0  0  0  0  0  0  0  0
    9.0660  -11.4710   -3.5930 O   0  0  0  0  0  0  0  0  0  0  0  0
    7.7970  -11.3680   -1.7180 O   0  0  0  0  0  0  0  0  0  0  0  0
    6.7567  -10.7303    2.3351 H   0  0  0  0  0  0  0  0  0  0  0  0
    7.4935   -9.8193    0.9735 H   0  0  0  0  0  0  0  0  0  0  0  0
    5.7307  -10.1646    0.9735 H   0  0  0  0  0  0  0  0  0  0  0  0
    8.0395  -12.1277    0.6220 H   0  0  0  0  0  0  0  0  0  0  0  0
    6.3294  -12.6326    0.9526 H   0  0  0  0  0  0  0  0  0  0  0  0
    4.5710  -13.0227    1.0086 H   0  0  0  0  0  0  0  0  0  0  0  0
    2.2054  -13.5715    1.5098 H   0  0  0  0  0  0  0  0  0  0  0  0
    1.0196  -12.2037   -2.3869 H   0  0  0  0  0  0  0  0  0  0  0  0
    2.1191   -9.8871   -3.4545 H   0  0  0  0  0  0  0  0  0  0  0  0
    3.3881   -9.3047   -4.1414 H   0  0  0  0  0  0  0  0  0  0  0  0
    2.0737  -12.2005   -4.6398 H   0  0  0  0  0  0  0  0  0  0  0  0
    3.3352  -12.0220   -5.5340 H   0  0  0  0  0  0  0  0  0  0  0  0
    5.6488  -10.5840   -3.2938 H   0  0  0  0  0  0  0  0  0  0  0  0
    5.2277  -13.4701   -3.9845 H   0  0  0  0  0  0  0  0  0  0  0  0
    6.0467  -12.1064   -4.8905 H   0  0  0  0  0  0  0  0  0  0  0  0
    7.1032  -13.7473   -2.5807 H   0  0  0  0  0  0  0  0  0  0  0  0
    7.7692  -13.5270   -4.2602 H   0  0  0  0  0  0  0  0  0  0  0  0
  1  2  1  0
  2  3  1  0
  3  4  2  0
  4  5  1  0
  5  6  2  0
  6  7  1  0
  7  8  2  0
  8  9  1  0
  8 10  1  0
 10 11  2  0
 11 12  1  0
 12 13  1  0
 13 14  1  0
 12 15  1  0
 15 16  1  0
 16 17  1  0
 17 18  1  0
 18 19  2  0
 18 20  1  0
 20  3  1  0
 15  4  1  0
 11  5  1  0
 14 12  1  0
  1 21  1  0
  1 22  1  0
  1 23  1  0
  2 24  1  0
  2 25  1  0
  6 26  1  0
  7 27  1  0
 10 28  1  0
 13 29  1  0
 13 30  1  0
 14 31  1  0
 14 32  1  0
 15 33  1  6
 16 34  1  0
 16 35  1  0
 17 36  1  0
 17 37  1  0
M  CHG  1   9  -1
M  END
>  <meeko>  (8) 
{"is_sidechain": [false], "free_energy": -4.93, "intermolecular_energy": -6.253, "internal_energy": 0.952}

$$$$
GEN_FJAATUDLBLEIEO__M_PUB_ALL__e8__s20260927
     RDKit          3D

 37 40  0  0  0  0  0  0  0  0999 V2000
    0.3570   -9.5760   -1.4900 C   0  0  0  0  0  0  0  0  0  0  0  0
    1.0730  -10.4570   -0.4770 C   0  0  0  0  0  0  0  0  0  0  0  0
    0.1640  -10.8580    0.6530 C   0  0  0  0  0  0  0  0  0  0  0  0
   -0.1550  -12.1110    1.0410 C   0  0  0  0  0  0  0  0  0  0  0  0
    0.1670  -13.4290    0.4450 C   0  0  0  0  0  0  0  0  0  0  0  0
    0.6950  -13.7610   -0.7910 C   0  0  0  0  0  0  0  0  0  0  0  0
    0.8680  -15.1140   -1.1240 C   0  0  0  0  0  0  0  0  0  0  0  0
    0.5210  -16.1800   -0.2700 C   0  0  0  0  0  0  0  0  0  0  0  0
    0.6870  -17.4010   -0.5960 O   0  0  0  0  0  0  0  0  0  0  0  0
   -0.0320  -15.7920    0.9660 C   0  0  0  0  0  0  0  0  0  0  0  0
   -0.2180  -14.4510    1.3280 C   0  0  0  0  0  0  0  0  0  0  0  0
   -0.8220  -13.8930    2.5800 C   0  0  0  0  0  0  0  0  0  0  0  0
   -0.3670  -14.3920    3.9350 C   0  0  0  0  0  0  0  0  0  0  0  0
   -1.7700  -14.6570    3.4740 C   0  0  0  0  0  0  0  0  0  0  0  0
   -0.9410  -12.3880    2.3320 C   0  0  2  0  0  0  0  0  0  0  0  0
   -2.4000  -11.9270    2.1940 C   0  0  0  0  0  0  0  0  0  0  0  0
   -2.5640  -10.5950    1.4720 C   0  0  0  0  0  0  0  0  0  0  0  0
   -1.5450   -9.5850    1.9110 C   0  0  0  0  0  0  0  0  0  0  0  0
   -1.8270   -8.6740    2.6880 O   0  0  0  0  0  0  0  0  0  0  0  0
   -0.2850   -9.7210    1.3960 O   0  0  0  0  0  0  0  0  0  0  0  0
   -0.2510   -8.8279   -0.9603 H   0  0  0  0  0  0  0  0  0  0  0  0
    1.0992   -9.0652   -2.1210 H   0  0  0  0  0  0  0  0  0  0  0  0
   -0.2948  -10.1981   -2.1210 H   0  0  0  0  0  0  0  0  0  0  0  0
    1.4322  -11.3643   -0.9846 H   0  0  0  0  0  0  0  0  0  0  0  0
    1.9113   -9.8830   -0.0554 H   0  0  0  0  0  0  0  0  0  0  0  0
    0.9761  -12.9728   -1.5049 H   0  0  0  0  0  0  0  0  0  0  0  0
    1.2987  -15.3556   -2.1069 H   0  0  0  0  0  0  0  0  0  0  0  0
   -0.3308  -16.5755    1.6779 H   0  0  0  0  0  0  0  0  0  0  0  0
    0.3550  -15.2192    4.0020 H   0  0  0  0  0  0  0  0  0  0  0  0
    0.0839  -13.9257    4.8234 H   0  0  0  0  0  0  0  0  0  0  0  0
   -2.0755  -15.6788    3.2044 H   0  0  0  0  0  0  0  0  0  0  0  0
   -2.7714  -14.4649    3.8868 H   0  0  0  0  0  0  0  0  0  0  0  0
   -0.5391  -11.8266    3.1884 H   0  0  0  0  0  0  0  0  0  0  0  0
   -2.9537  -12.6946    1.6335 H   0  0  0  0  0  0  0  0  0  0  0  0
   -2.7867  -11.7856    3.2140 H   0  0  0  0  0  0  0  0  0  0  0  0
   -2.4543  -10.7622    0.3903 H   0  0  0  0  0  0  0  0  0  0  0  0
   -3.5606  -10.1983    1.7159 H   0  0  0  0  0  0  0  0  0  0  0  0
  1  2  1  0
  2  3  1  0
  3  4  2  0
  4  5  1  0
  5  6  2  0
  6  7  1  0
  7  8  2  0
  8  9  1  0
  8 10  1  0
 10 11  2  0
 11 12  1  0
 12 13  1  0
 13 14  1  0
 12 15  1  0
 15 16  1  0
 16 17  1  0
 17 18  1  0
 18 19  2  0
 18 20  1  0
 20  3  1  0
 15  4  1  0
 11  5  1  0
 14 12  1  0
  1 21  1  0
  1 22  1  0
  1 23  1  0
  2 24  1  0
  2 25  1  0
  6 26  1  0
  7 27  1  0
 10 28  1  0
 13 29  1  0
 13 30  1  0
 14 31  1  0
 14 32  1  0
 15 33  1  1
 16 34  1  0
 16 35  1  0
 17 36  1  0
 17 37  1  0
M  CHG  1   9  -1
M  END
>  <meeko>  (9) 
{"is_sidechain": [false], "free_energy": -4.846, "intermolecular_energy": -6.208, "internal_energy": 1.016}

$$$$
