GEN_MMCYVXCTOYXZNR__M_PUB_ALL__e8__s20260927
     RDKit          3D

 49 51  0  0  0  0  0  0  0  0999 V2000
    8.6030  -12.2750   -2.3010 C   0  0  0  0  0  0  0  0  0  0  0  0
    8.3230  -13.4840   -3.0850 N   0  0  0  0  0  0  0  0  0  0  0  0
    9.4680  -14.4070   -3.2510 C   0  0  0  0  0  0  0  0  0  0  0  0
   10.0450  -14.7880   -1.8690 C   0  0  0  0  0  0  0  0  0  0  0  0
    9.3830  -15.4960   -1.1030 O   0  0  0  0  0  0  0  0  0  0  0  0
   11.3730  -14.4500   -1.5530 N   0  0  0  0  0  0  0  0  0  0  0  0
   12.3390  -15.5570   -1.4360 C   0  0  0  0  0  0  0  0  0  0  0  0
   12.6720  -16.2650   -2.7650 C   0  0  0  0  0  0  0  0  0  0  0  0
   13.8600  -15.6870   -3.5250 C   0  0  0  0  0  0  0  0  0  0  0  0
   13.5400  -14.4370   -4.2810 N   0  0  0  0  0  0  0  0  0  0  0  0
   13.9530  -13.1250   -3.6630 C   0  0  0  0  0  0  0  0  0  0  0  0
   12.7420  -12.3470   -3.1930 C   0  0  0  0  0  0  0  0  0  0  0  0
   12.0100  -11.7930   -4.0140 O   0  0  0  0  0  0  0  0  0  0  0  0
   12.4580  -12.2180   -1.7470 C   0  0  0  0  0  0  0  0  0  0  0  0
   12.9230  -11.0500   -1.1270 C   0  0  0  0  0  0  0  0  0  0  0  0
   12.6790  -10.8450    0.2240 C   0  0  0  0  0  0  0  0  0  0  0  0
   13.1160   -9.7260    0.8100 F   0  0  0  0  0  0  0  0  0  0  0  0
   11.9950  -11.7900    0.9750 C   0  0  0  0  0  0  0  0  0  0  0  0
   11.5500  -12.9660    0.3690 C   0  0  0  0  0  0  0  0  0  0  0  0
   11.7630  -13.1930   -1.0020 C   0  0  0  0  0  0  0  0  0  0  0  0
    7.0470  -13.7290   -3.5680 C   0  0  0  0  0  0  0  0  0  0  0  0
    6.1270  -14.5180   -2.8510 C   0  0  0  0  0  0  0  0  0  0  0  0
    4.8420  -14.8040   -3.3330 C   0  0  0  0  0  0  0  0  0  0  0  0
    4.4320  -14.3000   -4.5590 C   0  0  0  0  0  0  0  0  0  0  0  0
    5.3080  -13.5010   -5.2810 C   0  0  0  0  0  0  0  0  0  0  0  0
    4.7710  -12.7990   -6.9520 Br  0  0  0  0  0  0  0  0  0  0  0  0
    6.5880  -13.2150   -4.7900 C   0  0  0  0  0  0  0  0  0  0  0  0
    8.5480  -12.5126   -1.2284 H   0  0  0  0  0  0  0  0  0  0  0  0
    9.6104  -11.9058   -2.5436 H   0  0  0  0  0  0  0  0  0  0  0  0
    7.8604  -11.5005   -2.5436 H   0  0  0  0  0  0  0  0  0  0  0  0
    9.1301  -15.3172   -3.7681 H   0  0  0  0  0  0  0  0  0  0  0  0
   10.2497  -13.9094   -3.8437 H   0  0  0  0  0  0  0  0  0  0  0  0
   13.2736  -15.1535   -1.0192 H   0  0  0  0  0  0  0  0  0  0  0  0
   11.8682  -16.3132   -0.7906 H   0  0  0  0  0  0  0  0  0  0  0  0
   12.8897  -17.3203   -2.5438 H   0  0  0  0  0  0  0  0  0  0  0  0
   11.7953  -16.1256   -3.4146 H   0  0  0  0  0  0  0  0  0  0  0  0
   14.6578  -15.4610   -2.8022 H   0  0  0  0  0  0  0  0  0  0  0  0
   14.1653  -16.4410   -4.2654 H   0  0  0  0  0  0  0  0  0  0  0  0
   14.0440  -14.4970   -5.1800 H   0  0  0  0  0  0  0  0  0  0  0  0
   12.5390  -14.4020   -4.5110 H   0  0  0  0  0  0  0  0  0  0  0  0
   14.6106  -13.3224   -2.8036 H   0  0  0  0  0  0  0  0  0  0  0  0
   14.4822  -12.5292   -4.4213 H   0  0  0  0  0  0  0  0  0  0  0  0
   13.4786  -10.2994   -1.7083 H   0  0  0  0  0  0  0  0  0  0  0  0
   11.8041  -11.6132    2.0438 H   0  0  0  0  0  0  0  0  0  0  0  0
   11.0268  -13.7236    0.9709 H   0  0  0  0  0  0  0  0  0  0  0  0
    6.4283  -14.9257   -1.8748 H   0  0  0  0  0  0  0  0  0  0  0  0
    4.1584  -15.4283   -2.7389 H   0  0  0  0  0  0  0  0  0  0  0  0
    3.4305  -14.5295   -4.9519 H   0  0  0  0  0  0  0  0  0  0  0  0
    7.2535  -12.5679   -5.3802 H   0  0  0  0  0  0  0  0  0  0  0  0
  1  2  1  0
  2  3  1  0
  3  4  1  0
  4  5  2  0
  4  6  1  0
  6  7  1  0
  7  8  1  0
  8  9  1  0
  9 10  1  0
 10 11  1  0
 11 12  1  0
 12 13  2  0
 12 14  1  0
 14 15  2  0
 15 16  1  0
 16 17  1  0
 16 18  2  0
 18 19  1  0
 19 20  2  0
  2 21  1  0
 21 22  2  0
 22 23  1  0
 23 24  2  0
 24 25  1  0
 25 26  1  0
 25 27  2  0
 20  6  1  0
 27 21  1  0
 20 14  1  0
  1 28  1  0
  1 29  1  0
  1 30  1  0
  3 31  1  0
  3 32  1  0
  7 33  1  0
  7 34  1  0
  8 35  1  0
  8 36  1  0
  9 37  1  0
  9 38  1  0
 10 39  1  0
 10 40  1  0
 11 41  1  0
 11 42  1  0
 15 43  1  0
 18 44  1  0
 19 45  1  0
 22 46  1  0
 23 47  1  0
 24 48  1  0
 27 49  1  0
M  CHG  1  10   1
M  END
>  <meeko>  (1) 
{"is_sidechain": [false], "free_energy": -5.182, "intermolecular_energy": -8.514, "internal_energy": -1.279}

$$$$
GEN_MMCYVXCTOYXZNR__M_PUB_ALL__e8__s20260927
     RDKit          3D

 49 51  0  0  0  0  0  0  0  0999 V2000
    6.5850  -15.1710   -1.4920 C   0  0  0  0  0  0  0  0  0  0  0  0
    6.4410  -13.7180   -1.6370 N   0  0  0  0  0  0  0  0  0  0  0  0
    7.5910  -12.9190   -1.1600 C   0  0  0  0  0  0  0  0  0  0  0  0
    8.7900  -13.0910   -2.1190 C   0  0  0  0  0  0  0  0  0  0  0  0
    8.6590  -12.8230   -3.3190 O   0  0  0  0  0  0  0  0  0  0  0  0
   10.0570  -13.4110   -1.5980 N   0  0  0  0  0  0  0  0  0  0  0  0
   10.3190  -14.8290   -1.2920 C   0  0  0  0  0  0  0  0  0  0  0  0
   10.4960  -15.7340   -2.5280 C   0  0  0  0  0  0  0  0  0  0  0  0
   11.9560  -15.9130   -2.9920 C   0  0  0  0  0  0  0  0  0  0  0  0
   12.4370  -14.8030   -3.8710 N   0  0  0  0  0  0  0  0  0  0  0  0
   13.3000  -13.7400   -3.2400 C   0  0  0  0  0  0  0  0  0  0  0  0
   12.5140  -12.4630   -3.0300 C   0  0  0  0  0  0  0  0  0  0  0  0
   12.2180  -11.7580   -3.9950 O   0  0  0  0  0  0  0  0  0  0  0  0
   12.1340  -12.0410   -1.6650 C   0  0  0  0  0  0  0  0  0  0  0  0
   13.0330  -11.1890   -1.0080 C   0  0  0  0  0  0  0  0  0  0  0  0
   12.7380  -10.7320    0.2690 C   0  0  0  0  0  0  0  0  0  0  0  0
   13.5930   -9.9120    0.8880 F   0  0  0  0  0  0  0  0  0  0  0  0
   11.5740  -11.1230    0.9140 C   0  0  0  0  0  0  0  0  0  0  0  0
   10.6870  -11.9910    0.2750 C   0  0  0  0  0  0  0  0  0  0  0  0
   10.9450  -12.4530   -1.0270 C   0  0  0  0  0  0  0  0  0  0  0  0
    5.3130  -13.1800   -2.2380 C   0  0  0  0  0  0  0  0  0  0  0  0
    5.2730  -11.8370   -2.6620 C   0  0  0  0  0  0  0  0  0  0  0  0
    4.1350  -11.2640   -3.2450 C   0  0  0  0  0  0  0  0  0  0  0  0
    2.9890  -12.0250   -3.4260 C   0  0  0  0  0  0  0  0  0  0  0  0
    3.0030  -13.3580   -3.0380 C   0  0  0  0  0  0  0  0  0  0  0  0
    1.4550  -14.4170   -3.2780 Br  0  0  0  0  0  0  0  0  0  0  0  0
    4.1460  -13.9260   -2.4620 C   0  0  0  0  0  0  0  0  0  0  0  0
    6.6109  -15.4321   -0.4238 H   0  0  0  0  0  0  0  0  0  0  0  0
    5.7323  -15.6737   -1.9718 H   0  0  0  0  0  0  0  0  0  0  0  0
    7.5198  -15.4965   -1.9718 H   0  0  0  0  0  0  0  0  0  0  0  0
    7.3055  -11.8574   -1.1210 H   0  0  0  0  0  0  0  0  0  0  0  0
    7.8793  -13.2657   -0.1567 H   0  0  0  0  0  0  0  0  0  0  0  0
   11.2390  -14.8854   -0.6917 H   0  0  0  0  0  0  0  0  0  0  0  0
    9.4309  -15.2008   -0.7600 H   0  0  0  0  0  0  0  0  0  0  0  0
   10.0890  -16.7270   -2.2867 H   0  0  0  0  0  0  0  0  0  0  0  0
    9.9659  -15.2382   -3.3545 H   0  0  0  0  0  0  0  0  0  0  0  0
   12.6019  -15.9592   -2.1028 H   0  0  0  0  0  0  0  0  0  0  0  0
   11.9988  -16.8393   -3.5837 H   0  0  0  0  0  0  0  0  0  0  0  0
   13.0160  -15.2380   -4.6070 H   0  0  0  0  0  0  0  0  0  0  0  0
   11.6460  -14.3550   -4.3500 H   0  0  0  0  0  0  0  0  0  0  0  0
   13.6654  -14.1024   -2.2678 H   0  0  0  0  0  0  0  0  0  0  0  0
   14.1447  -13.5273   -3.9118 H   0  0  0  0  0  0  0  0  0  0  0  0
   13.9674  -10.8843   -1.5021 H   0  0  0  0  0  0  0  0  0  0  0  0
   11.3508  -10.7507    1.9247 H   0  0  0  0  0  0  0  0  0  0  0  0
    9.7752  -12.3173    0.7967 H   0  0  0  0  0  0  0  0  0  0  0  0
    6.1700  -11.2141   -2.5302 H   0  0  0  0  0  0  0  0  0  0  0  0
    4.1501  -10.2100   -3.5594 H   0  0  0  0  0  0  0  0  0  0  0  0
    2.0857  -11.5802   -3.8689 H   0  0  0  0  0  0  0  0  0  0  0  0
    4.1284  -14.9882   -2.1768 H   0  0  0  0  0  0  0  0  0  0  0  0
  1  2  1  0
  2  3  1  0
  3  4  1  0
  4  5  2  0
  4  6  1  0
  6  7  1  0
  7  8  1  0
  8  9  1  0
  9 10  1  0
 10 11  1  0
 11 12  1  0
 12 13  2  0
 12 14  1  0
 14 15  2  0
 15 16  1  0
 16 17  1  0
 16 18  2  0
 18 19  1  0
 19 20  2  0
  2 21  1  0
 21 22  2  0
 22 23  1  0
 23 24  2  0
 24 25  1  0
 25 26  1  0
 25 27  2  0
 20  6  1  0
 27 21  1  0
 20 14  1  0
  1 28  1  0
  1 29  1  0
  1 30  1  0
  3 31  1  0
  3 32  1  0
  7 33  1  0
  7 34  1  0
  8 35  1  0
  8 36  1  0
  9 37  1  0
  9 38  1  0
 10 39  1  0
 10 40  1  0
 11 41  1  0
 11 42  1  0
 15 43  1  0
 18 44  1  0
 19 45  1  0
 22 46  1  0
 23 47  1  0
 24 48  1  0
 27 49  1  0
M  CHG  1  10   1
M  END
>  <meeko>  (2) 
{"is_sidechain": [false], "free_energy": -5.133, "intermolecular_energy": -8.538, "internal_energy": -1.175}

$$$$
GEN_MMCYVXCTOYXZNR__M_PUB_ALL__e8__s20260927
     RDKit          3D

 49 51  0  0  0  0  0  0  0  0999 V2000
  -15.8380  -13.6590   -9.9030 C   0  0  0  0  0  0  0  0  0  0  0  0
  -14.5550  -13.0430  -10.2640 N   0  0  0  0  0  0  0  0  0  0  0  0
  -13.9330  -13.5600  -11.5030 C   0  0  0  0  0  0  0  0  0  0  0  0
  -13.8080  -15.0990  -11.4310 C   0  0  0  0  0  0  0  0  0  0  0  0
  -14.5460  -15.8070  -12.1260 O   0  0  0  0  0  0  0  0  0  0  0  0
  -12.7640  -15.6780  -10.6880 N   0  0  0  0  0  0  0  0  0  0  0  0
  -11.8310  -16.5590  -11.4140 C   0  0  0  0  0  0  0  0  0  0  0  0
  -10.9130  -15.8370  -12.4200 C   0  0  0  0  0  0  0  0  0  0  0  0
   -9.6540  -15.2330  -11.7950 C   0  0  0  0  0  0  0  0  0  0  0  0
   -9.2580  -15.8950  -10.5130 N   0  0  0  0  0  0  0  0  0  0  0  0
   -9.2490  -15.0470   -9.2670 C   0  0  0  0  0  0  0  0  0  0  0  0
  -10.6060  -14.4150   -9.0350 C   0  0  0  0  0  0  0  0  0  0  0  0
  -10.7770  -13.2200   -9.2810 O   0  0  0  0  0  0  0  0  0  0  0  0
  -11.7140  -15.2190   -8.4780 C   0  0  0  0  0  0  0  0  0  0  0  0
  -11.6890  -15.4310   -7.0920 C   0  0  0  0  0  0  0  0  0  0  0  0
  -12.7050  -16.1590   -6.4900 C   0  0  0  0  0  0  0  0  0  0  0  0
  -12.6830  -16.3510   -5.1670 F   0  0  0  0  0  0  0  0  0  0  0  0
  -13.7380  -16.6980   -7.2430 C   0  0  0  0  0  0  0  0  0  0  0  0
  -13.7560  -16.5120   -8.6270 C   0  0  0  0  0  0  0  0  0  0  0  0
  -12.7530  -15.7600   -9.2640 C   0  0  0  0  0  0  0  0  0  0  0  0
  -14.0300  -12.0130   -9.4990 C   0  0  0  0  0  0  0  0  0  0  0  0
  -13.8340  -12.1510   -8.1110 C   0  0  0  0  0  0  0  0  0  0  0  0
  -13.3330  -11.1140   -7.3140 C   0  0  0  0  0  0  0  0  0  0  0  0
  -13.0050   -9.8930   -7.8870 C   0  0  0  0  0  0  0  0  0  0  0  0
  -13.1670   -9.7310   -9.2550 C   0  0  0  0  0  0  0  0  0  0  0  0
  -12.7240   -8.0790  -10.0600 Br  0  0  0  0  0  0  0  0  0  0  0  0
  -13.6630  -10.7740  -10.0480 C   0  0  0  0  0  0  0  0  0  0  0  0
  -15.9285  -13.7025   -8.8076 H   0  0  0  0  0  0  0  0  0  0  0  0
  -16.6621  -13.0584  -10.3155 H   0  0  0  0  0  0  0  0  0  0  0  0
  -15.8846  -14.6777  -10.3155 H   0  0  0  0  0  0  0  0  0  0  0  0
  -14.5576  -13.2855  -12.3658 H   0  0  0  0  0  0  0  0  0  0  0  0
  -12.9302  -13.1216  -11.6130 H   0  0  0  0  0  0  0  0  0  0  0  0
  -11.1954  -17.0683  -10.6747 H   0  0  0  0  0  0  0  0  0  0  0  0
  -12.4517  -17.2513  -12.0017 H   0  0  0  0  0  0  0  0  0  0  0  0
  -10.6040  -16.5619  -13.1875 H   0  0  0  0  0  0  0  0  0  0  0  0
  -11.4937  -15.0001  -12.8352 H   0  0  0  0  0  0  0  0  0  0  0  0
   -8.8252  -15.3335  -12.5112 H   0  0  0  0  0  0  0  0  0  0  0  0
   -9.8753  -14.1803  -11.5651 H   0  0  0  0  0  0  0  0  0  0  0  0
   -9.9470  -16.6430  -10.3410 H   0  0  0  0  0  0  0  0  0  0  0  0
   -8.3460  -16.3570  -10.6140 H   0  0  0  0  0  0  0  0  0  0  0  0
   -8.9930  -15.6783   -8.4033 H   0  0  0  0  0  0  0  0  0  0  0  0
   -8.5046  -14.2467   -9.3912 H   0  0  0  0  0  0  0  0  0  0  0  0
  -10.8678  -15.0220   -6.4851 H   0  0  0  0  0  0  0  0  0  0  0  0
  -14.5395  -17.2695   -6.7520 H   0  0  0  0  0  0  0  0  0  0  0  0
  -14.5637  -16.9587   -9.2254 H   0  0  0  0  0  0  0  0  0  0  0  0
  -14.0841  -13.1104   -7.6346 H   0  0  0  0  0  0  0  0  0  0  0  0
  -13.1993  -11.2673   -6.2330 H   0  0  0  0  0  0  0  0  0  0  0  0
  -12.6233   -9.0684   -7.2671 H   0  0  0  0  0  0  0  0  0  0  0  0
  -13.7679  -10.6177  -11.1318 H   0  0  0  0  0  0  0  0  0  0  0  0
  1  2  1  0
  2  3  1  0
  3  4  1  0
  4  5  2  0
  4  6  1  0
  6  7  1  0
  7  8  1  0
  8  9  1  0
  9 10  1  0
 10 11  1  0
 11 12  1  0
 12 13  2  0
 12 14  1  0
 14 15  2  0
 15 16  1  0
 16 17  1  0
 16 18  2  0
 18 19  1  0
 19 20  2  0
  2 21  1  0
 21 22  2  0
 22 23  1  0
 23 24  2  0
 24 25  1  0
 25 26  1  0
 25 27  2  0
 20  6  1  0
 27 21  1  0
 20 14  1  0
  1 28  1  0
  1 29  1  0
  1 30  1  0
  3 31  1  0
  3 32  1  0
  7 33  1  0
  7 34  1  0
  8 35  1  0
  8 36  1  0
  9 37  1  0
  9 38  1  0
 10 39  1  0
 10 40  1  0
 11 41  1  0
 11 42  1  0
 15 43  1  0
 18 44  1  0
 19 45  1  0
 22 46  1  0
 23 47  1  0
 24 48  1  0
 27 49  1  0
M  CHG  1  10   1
M  END
>  <meeko>  (3) 
{"is_sidechain": [false], "free_energy": -4.953, "intermolecular_energy": -7.665, "internal_energy": -1.753}

$$$$
GEN_MMCYVXCTOYXZNR__M_PUB_ALL__e8__s20260927
     RDKit          3D

 49 51  0  0  0  0  0  0  0  0999 V2000
   14.1320   -5.9850   15.5360 C   0  0  0  0  0  0  0  0  0  0  0  0
   14.1030   -6.6910   14.2490 N   0  0  0  0  0  0  0  0  0  0  0  0
   12.8670   -7.4580   13.9790 C   0  0  0  0  0  0  0  0  0  0  0  0
   12.7460   -8.6350   14.9740 C   0  0  0  0  0  0  0  0  0  0  0  0
   11.8940   -8.5960   15.8680 O   0  0  0  0  0  0  0  0  0  0  0  0
   13.5050   -9.8010   14.7670 N   0  0  0  0  0  0  0  0  0  0  0  0
   12.9160  -11.0750   15.2190 C   0  0  0  0  0  0  0  0  0  0  0  0
   11.8540  -11.6670   14.2710 C   0  0  0  0  0  0  0  0  0  0  0  0
   12.3800  -12.7710   13.3420 C   0  0  0  0  0  0  0  0  0  0  0  0
   12.8010  -12.2720   11.9960 N   0  0  0  0  0  0  0  0  0  0  0  0
   14.2690  -12.0010   11.7830 C   0  0  0  0  0  0  0  0  0  0  0  0
   14.5970  -10.5530   12.0790 C   0  0  0  0  0  0  0  0  0  0  0  0
   14.1940   -9.6640   11.3270 O   0  0  0  0  0  0  0  0  0  0  0  0
   15.4340  -10.2060   13.2480 C   0  0  0  0  0  0  0  0  0  0  0  0
   16.8210  -10.3000   13.0650 C   0  0  0  0  0  0  0  0  0  0  0  0
   17.6750   -9.9720   14.1090 C   0  0  0  0  0  0  0  0  0  0  0  0
   18.9970  -10.0540   13.9290 F   0  0  0  0  0  0  0  0  0  0  0  0
   17.1750   -9.5680   15.3390 C   0  0  0  0  0  0  0  0  0  0  0  0
   15.7940   -9.4950   15.5340 C   0  0  0  0  0  0  0  0  0  0  0  0
   14.9030   -9.8000   14.4900 C   0  0  0  0  0  0  0  0  0  0  0  0
   15.1570   -6.5700   13.3570 C   0  0  0  0  0  0  0  0  0  0  0  0
   14.9480   -6.5750   11.9640 C   0  0  0  0  0  0  0  0  0  0  0  0
   16.0010   -6.4850   11.0440 C   0  0  0  0  0  0  0  0  0  0  0  0
   17.3100   -6.3810   11.4930 C   0  0  0  0  0  0  0  0  0  0  0  0
   17.5480   -6.3520   12.8600 C   0  0  0  0  0  0  0  0  0  0  0  0
   19.3220   -6.2070   13.4970 Br  0  0  0  0  0  0  0  0  0  0  0  0
   16.4900   -6.4370   13.7750 C   0  0  0  0  0  0  0  0  0  0  0  0
   14.1019   -6.7170   16.3565 H   0  0  0  0  0  0  0  0  0  0  0  0
   15.0553   -5.3914   15.6079 H   0  0  0  0  0  0  0  0  0  0  0  0
   13.2605   -5.3177   15.6079 H   0  0  0  0  0  0  0  0  0  0  0  0
   11.9958   -6.7958   14.0907 H   0  0  0  0  0  0  0  0  0  0  0  0
   12.9055   -7.8549   12.9538 H   0  0  0  0  0  0  0  0  0  0  0  0
   13.7281  -11.8093   15.3247 H   0  0  0  0  0  0  0  0  0  0  0  0
   12.4005  -10.8596   16.1666 H   0  0  0  0  0  0  0  0  0  0  0  0
   11.0432  -12.0892   14.8829 H   0  0  0  0  0  0  0  0  0  0  0  0
   11.5172  -10.8445   13.6229 H   0  0  0  0  0  0  0  0  0  0  0  0
   13.2473  -13.2464   13.8234 H   0  0  0  0  0  0  0  0  0  0  0  0
   11.5522  -13.4769   13.1795 H   0  0  0  0  0  0  0  0  0  0  0  0
   12.5470  -13.0040   11.3150 H   0  0  0  0  0  0  0  0  0  0  0  0
   12.2620  -11.4350   11.7390 H   0  0  0  0  0  0  0  0  0  0  0  0
   14.8558  -12.6477   12.4519 H   0  0  0  0  0  0  0  0  0  0  0  0
   14.5174  -12.2110   10.7322 H   0  0  0  0  0  0  0  0  0  0  0  0
   17.2301  -10.6319   12.0994 H   0  0  0  0  0  0  0  0  0  0  0  0
   17.8631   -9.3065   16.1564 H   0  0  0  0  0  0  0  0  0  0  0  0
   15.3988   -9.1954   16.5158 H   0  0  0  0  0  0  0  0  0  0  0  0
   13.9187   -6.6525   11.5839 H   0  0  0  0  0  0  0  0  0  0  0  0
   15.7898   -6.4968    9.9645 H   0  0  0  0  0  0  0  0  0  0  0  0
   18.1440   -6.3226   10.7782 H   0  0  0  0  0  0  0  0  0  0  0  0
   16.7108   -6.3984   14.8519 H   0  0  0  0  0  0  0  0  0  0  0  0
  1  2  1  0
  2  3  1  0
  3  4  1  0
  4  5  2  0
  4  6  1  0
  6  7  1  0
  7  8  1  0
  8  9  1  0
  9 10  1  0
 10 11  1  0
 11 12  1  0
 12 13  2  0
 12 14  1  0
 14 15  2  0
 15 16  1  0
 16 17  1  0
 16 18  2  0
 18 19  1  0
 19 20  2  0
  2 21  1  0
 21 22  2  0
 22 23  1  0
 23 24  2  0
 24 25  1  0
 25 26  1  0
 25 27  2  0
 20  6  1  0
 27 21  1  0
 20 14  1  0
  1 28  1  0
  1 29  1  0
  1 30  1  0
  3 31  1  0
  3 32  1  0
  7 33  1  0
  7 34  1  0
  8 35  1  0
  8 36  1  0
  9 37  1  0
  9 38  1  0
 10 39  1  0
 10 40  1  0
 11 41  1  0
 11 42  1  0
 15 43  1  0
 18 44  1  0
 19 45  1  0
 22 46  1  0
 23 47  1  0
 24 48  1  0
 27 49  1  0
M  CHG  1  10   1
M  END
>  <meeko>  (4) 
{"is_sidechain": [false], "free_energy": -4.925, "intermolecular_energy": -7.323, "internal_energy": -2.048}

$$$$
GEN_MMCYVXCTOYXZNR__M_PUB_ALL__e8__s20260927
     RDKit          3D

 49 51  0  0  0  0  0  0  0  0999 V2000
    4.0480  -12.3820    0.4690 C   0  0  0  0  0  0  0  0  0  0  0  0
    2.9080  -12.0550   -0.3970 N   0  0  0  0  0  0  0  0  0  0  0  0
    1.7110  -11.5410    0.3040 C   0  0  0  0  0  0  0  0  0  0  0  0
    0.8380  -12.7180    0.7950 C   0  0  0  0  0  0  0  0  0  0  0  0
    1.2210  -13.8800    0.6170 O   0  0  0  0  0  0  0  0  0  0  0  0
   -0.3090  -12.4580    1.5660 N   0  0  0  0  0  0  0  0  0  0  0  0
   -0.3160  -12.9640    2.9510 C   0  0  0  0  0  0  0  0  0  0  0  0
    0.2000  -14.4080    3.1130 C   0  0  0  0  0  0  0  0  0  0  0  0
   -0.8970  -15.4630    3.2740 C   0  0  0  0  0  0  0  0  0  0  0  0
   -2.2770  -14.9180    3.0890 N   0  0  0  0  0  0  0  0  0  0  0  0
   -2.9760  -15.2210    1.7880 C   0  0  0  0  0  0  0  0  0  0  0  0
   -2.3300  -14.4700    0.6420 C   0  0  0  0  0  0  0  0  0  0  0  0
   -1.6320  -15.0750   -0.1740 O   0  0  0  0  0  0  0  0  0  0  0  0
   -2.5020  -13.0060    0.5230 C   0  0  0  0  0  0  0  0  0  0  0  0
   -3.6700  -12.5710   -0.1180 C   0  0  0  0  0  0  0  0  0  0  0  0
   -3.9140  -11.2110   -0.2510 C   0  0  0  0  0  0  0  0  0  0  0  0
   -5.0330  -10.7990   -0.8550 F   0  0  0  0  0  0  0  0  0  0  0  0
   -3.0090  -10.2740    0.2260 C   0  0  0  0  0  0  0  0  0  0  0  0
   -1.8320  -10.7020    0.8450 C   0  0  0  0  0  0  0  0  0  0  0  0
   -1.5660  -12.0720    1.0140 C   0  0  0  0  0  0  0  0  0  0  0  0
    3.0130  -12.1790   -1.7730 C   0  0  0  0  0  0  0  0  0  0  0  0
    4.0590  -11.5680   -2.4920 C   0  0  0  0  0  0  0  0  0  0  0  0
    4.1680  -11.6560   -3.8860 C   0  0  0  0  0  0  0  0  0  0  0  0
    3.2250  -12.3680   -4.6130 C   0  0  0  0  0  0  0  0  0  0  0  0
    2.1930  -13.0000   -3.9330 C   0  0  0  0  0  0  0  0  0  0  0  0
    0.8980  -13.9800   -4.9010 Br  0  0  0  0  0  0  0  0  0  0  0  0
    2.0940  -12.9130   -2.5390 C   0  0  0  0  0  0  0  0  0  0  0  0
    3.7448  -12.2950    1.5228 H   0  0  0  0  0  0  0  0  0  0  0  0
    4.3789  -13.4113    0.2664 H   0  0  0  0  0  0  0  0  0  0  0  0
    4.8742  -11.6846    0.2664 H   0  0  0  0  0  0  0  0  0  0  0  0
    2.0263  -10.9367    1.1674 H   0  0  0  0  0  0  0  0  0  0  0  0
    1.1242  -10.9224   -0.3910 H   0  0  0  0  0  0  0  0  0  0  0  0
    0.3183  -12.3033    3.5602 H   0  0  0  0  0  0  0  0  0  0  0  0
   -1.3678  -12.9724    3.2729 H   0  0  0  0  0  0  0  0  0  0  0  0
    0.7925  -14.6625    2.2218 H   0  0  0  0  0  0  0  0  0  0  0  0
    0.7883  -14.4261    4.0423 H   0  0  0  0  0  0  0  0  0  0  0  0
   -0.7318  -16.2544    2.5281 H   0  0  0  0  0  0  0  0  0  0  0  0
   -0.8334  -15.8428    4.3044 H   0  0  0  0  0  0  0  0  0  0  0  0
   -2.8630  -15.3360    3.8290 H   0  0  0  0  0  0  0  0  0  0  0  0
   -2.2870  -13.9030    3.2490 H   0  0  0  0  0  0  0  0  0  0  0  0
   -2.9167  -16.3014    1.5900 H   0  0  0  0  0  0  0  0  0  0  0  0
   -4.0260  -14.9035    1.8699 H   0  0  0  0  0  0  0  0  0  0  0  0
   -4.3893  -13.3032   -0.5135 H   0  0  0  0  0  0  0  0  0  0  0  0
   -3.2171   -9.1993    0.1174 H   0  0  0  0  0  0  0  0  0  0  0  0
   -1.1052   -9.9586    1.2042 H   0  0  0  0  0  0  0  0  0  0  0  0
    4.8200  -10.9995   -1.9372 H   0  0  0  0  0  0  0  0  0  0  0  0
    5.0019  -11.1602   -4.4045 H   0  0  0  0  0  0  0  0  0  0  0  0
    3.2939  -12.4306   -5.7091 H   0  0  0  0  0  0  0  0  0  0  0  0
    1.2714  -13.4356   -2.0289 H   0  0  0  0  0  0  0  0  0  0  0  0
  1  2  1  0
  2  3  1  0
  3  4  1  0
  4  5  2  0
  4  6  1  0
  6  7  1  0
  7  8  1  0
  8  9  1  0
  9 10  1  0
 10 11  1  0
 11 12  1  0
 12 13  2  0
 12 14  1  0
 14 15  2  0
 15 16  1  0
 16 17  1  0
 16 18  2  0
 18 19  1  0
 19 20  2  0
  2 21  1  0
 21 22  2  0
 22 23  1  0
 23 24  2  0
 24 25  1  0
 25 26  1  0
 25 27  2  0
 20  6  1  0
 27 21  1  0
 20 14  1  0
  1 28  1  0
  1 29  1  0
  1 30  1  0
  3 31  1  0
  3 32  1  0
  7 33  1  0
  7 34  1  0
  8 35  1  0
  8 36  1  0
  9 37  1  0
  9 38  1  0
 10 39  1  0
 10 40  1  0
 11 41  1  0
 11 42  1  0
 15 43  1  0
 18 44  1  0
 19 45  1  0
 22 46  1  0
 23 47  1  0
 24 48  1  0
 27 49  1  0
M  CHG  1  10   1
M  END
>  <meeko>  (5) 
{"is_sidechain": [false], "free_energy": -4.842, "intermolecular_energy": -8.94, "internal_energy": -0.294}

$$$$
GEN_MMCYVXCTOYXZNR__M_PUB_ALL__e8__s20260927
     RDKit          3D

 49 51  0  0  0  0  0  0  0  0999 V2000
   -0.2030  -16.8780   -0.4420 C   0  0  0  0  0  0  0  0  0  0  0  0
    0.0210  -16.4900    0.9560 N   0  0  0  0  0  0  0  0  0  0  0  0
    1.0300  -15.4280    1.1610 C   0  0  0  0  0  0  0  0  0  0  0  0
    0.3450  -14.1350    1.6580 C   0  0  0  0  0  0  0  0  0  0  0  0
    0.6020  -13.7000    2.7860 O   0  0  0  0  0  0  0  0  0  0  0  0
   -0.4500  -13.3850    0.7720 N   0  0  0  0  0  0  0  0  0  0  0  0
    0.2460  -12.4390   -0.1180 C   0  0  0  0  0  0  0  0  0  0  0  0
    1.3560  -11.6110    0.5610 C   0  0  0  0  0  0  0  0  0  0  0  0
    0.9330  -10.1800    0.9130 C   0  0  0  0  0  0  0  0  0  0  0  0
   -0.5120   -9.9020    0.6440 N   0  0  0  0  0  0  0  0  0  0  0  0
   -1.4390   -9.8300    1.8310 C   0  0  0  0  0  0  0  0  0  0  0  0
   -1.6270  -11.1990    2.4510 C   0  0  0  0  0  0  0  0  0  0  0  0
   -1.0870  -11.4660    3.5260 O   0  0  0  0  0  0  0  0  0  0  0  0
   -2.4250  -12.2280    1.7500 C   0  0  0  0  0  0  0  0  0  0  0  0
   -3.8110  -12.1800    1.9540 C   0  0  0  0  0  0  0  0  0  0  0  0
   -4.6310  -13.1000    1.3140 C   0  0  0  0  0  0  0  0  0  0  0  0
   -5.9530  -13.0460    1.5030 F   0  0  0  0  0  0  0  0  0  0  0  0
   -4.0960  -14.0790    0.4900 C   0  0  0  0  0  0  0  0  0  0  0  0
   -2.7140  -14.1470    0.3030 C   0  0  0  0  0  0  0  0  0  0  0  0
   -1.8580  -13.2170    0.9190 C   0  0  0  0  0  0  0  0  0  0  0  0
   -0.7260  -17.0640    1.9720 C   0  0  0  0  0  0  0  0  0  0  0  0
   -2.0590  -17.4720    1.7690 C   0  0  0  0  0  0  0  0  0  0  0  0
   -2.8420  -18.0260    2.7900 C   0  0  0  0  0  0  0  0  0  0  0  0
   -2.3090  -18.1960    4.0600 C   0  0  0  0  0  0  0  0  0  0  0  0
   -0.9920  -17.8240    4.2880 C   0  0  0  0  0  0  0  0  0  0  0  0
   -0.2420  -18.0500    6.0090 Br  0  0  0  0  0  0  0  0  0  0  0  0
   -0.2130  -17.2760    3.2620 C   0  0  0  0  0  0  0  0  0  0  0  0
   -0.7527  -17.8302   -0.4747 H   0  0  0  0  0  0  0  0  0  0  0  0
   -0.7899  -16.0982   -0.9494 H   0  0  0  0  0  0  0  0  0  0  0  0
    0.7658  -16.9963   -0.9494 H   0  0  0  0  0  0  0  0  0  0  0  0
    1.7634  -15.7623    1.9096 H   0  0  0  0  0  0  0  0  0  0  0  0
    1.5370  -15.2234    0.2065 H   0  0  0  0  0  0  0  0  0  0  0  0
    0.7005  -13.0126   -0.9392 H   0  0  0  0  0  0  0  0  0  0  0  0
   -0.5125  -11.7194   -0.4598 H   0  0  0  0  0  0  0  0  0  0  0  0
    1.6526  -12.1230    1.4883 H   0  0  0  0  0  0  0  0  0  0  0  0
    2.1834  -11.5324   -0.1596 H   0  0  0  0  0  0  0  0  0  0  0  0
    1.1265  -10.0129    1.9829 H   0  0  0  0  0  0  0  0  0  0  0  0
    1.5175   -9.5029    0.2728 H   0  0  0  0  0  0  0  0  0  0  0  0
   -0.5570   -8.9750    0.1940 H   0  0  0  0  0  0  0  0  0  0  0  0
   -0.8870  -10.5750   -0.0370 H   0  0  0  0  0  0  0  0  0  0  0  0
   -1.0109   -9.1498    2.5820 H   0  0  0  0  0  0  0  0  0  0  0  0
   -2.4176   -9.4593    1.4919 H   0  0  0  0  0  0  0  0  0  0  0  0
   -4.2465  -11.4181    2.6171 H   0  0  0  0  0  0  0  0  0  0  0  0
   -4.7577  -14.7988   -0.0141 H   0  0  0  0  0  0  0  0  0  0  0  0
   -2.2899  -14.9374   -0.3337 H   0  0  0  0  0  0  0  0  0  0  0  0
   -2.5024  -17.3508    0.7696 H   0  0  0  0  0  0  0  0  0  0  0  0
   -3.8801  -18.3265    2.5849 H   0  0  0  0  0  0  0  0  0  0  0  0
   -2.9199  -18.6182    4.8715 H   0  0  0  0  0  0  0  0  0  0  0  0
    0.8317  -17.0034    3.4725 H   0  0  0  0  0  0  0  0  0  0  0  0
  1  2  1  0
  2  3  1  0
  3  4  1  0
  4  5  2  0
  4  6  1  0
  6  7  1  0
  7  8  1  0
  8  9  1  0
  9 10  1  0
 10 11  1  0
 11 12  1  0
 12 13  2  0
 12 14  1  0
 14 15  2  0
 15 16  1  0
 16 17  1  0
 16 18  2  0
 18 19  1  0
 19 20  2  0
  2 21  1  0
 21 22  2  0
 22 23  1  0
 23 24  2  0
 24 25  1  0
 25 26  1  0
 25 27  2  0
 20  6  1  0
 27 21  1  0
 20 14  1  0
  1 28  1  0
  1 29  1  0
  1 30  1  0
  3 31  1  0
  3 32  1  0
  7 33  1  0
  7 34  1  0
  8 35  1  0
  8 36  1  0
  9 37  1  0
  9 38  1  0
 10 39  1  0
 10 40  1  0
 11 41  1  0
 11 42  1  0
 15 43  1  0
 18 44  1  0
 19 45  1  0
 22 46  1  0
 23 47  1  0
 24 48  1  0
 27 49  1  0
M  CHG  1  10   1
M  END
>  <meeko>  (6) 
{"is_sidechain": [false], "free_energy": -4.79, "intermolecular_energy": -7.957, "internal_energy": -1.193}

$$$$
GEN_MMCYVXCTOYXZNR__M_PUB_ALL__e8__s20260927
     RDKit          3D

 49 51  0  0  0  0  0  0  0  0999 V2000
   -5.0640  -12.8800    0.9880 C   0  0  0  0  0  0  0  0  0  0  0  0
   -3.6170  -13.0480    0.8080 N   0  0  0  0  0  0  0  0  0  0  0  0
   -3.2020  -14.3280    0.1930 C   0  0  0  0  0  0  0  0  0  0  0  0
   -2.4370  -15.1880    1.2240 C   0  0  0  0  0  0  0  0  0  0  0  0
   -2.9900  -16.1680    1.7350 O   0  0  0  0  0  0  0  0  0  0  0  0
   -1.0740  -14.9370    1.4640 N   0  0  0  0  0  0  0  0  0  0  0  0
   -0.1830  -14.8890    0.2900 C   0  0  0  0  0  0  0  0  0  0  0  0
    1.3030  -14.6410    0.6170 C   0  0  0  0  0  0  0  0  0  0  0  0
    2.2040  -15.8350    0.3210 C   0  0  0  0  0  0  0  0  0  0  0  0
    2.5380  -16.6560    1.5260 N   0  0  0  0  0  0  0  0  0  0  0  0
    1.6870  -17.8700    1.7990 C   0  0  0  0  0  0  0  0  0  0  0  0
    0.3110  -17.4640    2.2870 C   0  0  0  0  0  0  0  0  0  0  0  0
   -0.6800  -18.1010    1.9280 O   0  0  0  0  0  0  0  0  0  0  0  0
    0.1530  -16.2820    3.1610 C   0  0  0  0  0  0  0  0  0  0  0  0
    0.6440  -16.4090    4.4680 C   0  0  0  0  0  0  0  0  0  0  0  0
    0.5500  -15.3360    5.3440 C   0  0  0  0  0  0  0  0  0  0  0  0
    1.0280  -15.4580    6.5870 F   0  0  0  0  0  0  0  0  0  0  0  0
   -0.0390  -14.1440    4.9500 C   0  0  0  0  0  0  0  0  0  0  0  0
   -0.5510  -14.0190    3.6570 C   0  0  0  0  0  0  0  0  0  0  0  0
   -0.4530  -15.0800    2.7390 C   0  0  0  0  0  0  0  0  0  0  0  0
   -2.7430  -12.0290    1.1520 C   0  0  0  0  0  0  0  0  0  0  0  0
   -2.8130  -11.3870    2.4040 C   0  0  0  0  0  0  0  0  0  0  0  0
   -1.9600  -10.3350    2.7610 C   0  0  0  0  0  0  0  0  0  0  0  0
   -0.9950   -9.8890    1.8690 C   0  0  0  0  0  0  0  0  0  0  0  0
   -0.8860  -10.5140    0.6340 C   0  0  0  0  0  0  0  0  0  0  0  0
    0.4230   -9.9270   -0.5970 Br  0  0  0  0  0  0  0  0  0  0  0  0
   -1.7380  -11.5690    0.2860 C   0  0  0  0  0  0  0  0  0  0  0  0
   -5.2991  -12.8527    2.0622 H   0  0  0  0  0  0  0  0  0  0  0  0
   -5.3851  -11.9385    0.5183 H   0  0  0  0  0  0  0  0  0  0  0  0
   -5.5922  -13.7229    0.5183 H   0  0  0  0  0  0  0  0  0  0  0  0
   -4.0940  -14.8747   -0.1467 H   0  0  0  0  0  0  0  0  0  0  0  0
   -2.5428  -14.1198   -0.6626 H   0  0  0  0  0  0  0  0  0  0  0  0
   -0.2614  -15.8504   -0.2388 H   0  0  0  0  0  0  0  0  0  0  0  0
   -0.5142  -14.0327   -0.3158 H   0  0  0  0  0  0  0  0  0  0  0  0
    1.6520  -13.7861    0.0192 H   0  0  0  0  0  0  0  0  0  0  0  0
    1.3665  -14.4511    1.6986 H   0  0  0  0  0  0  0  0  0  0  0  0
    1.6937  -16.4816   -0.4080 H   0  0  0  0  0  0  0  0  0  0  0  0
    3.1525  -15.4316   -0.0633 H   0  0  0  0  0  0  0  0  0  0  0  0
    3.4980  -17.0090    1.3870 H   0  0  0  0  0  0  0  0  0  0  0  0
    2.5640  -16.0660    2.3670 H   0  0  0  0  0  0  0  0  0  0  0  0
    1.5833  -18.4535    0.8723 H   0  0  0  0  0  0  0  0  0  0  0  0
    2.1738  -18.4736    2.5792 H   0  0  0  0  0  0  0  0  0  0  0  0
    1.1012  -17.3536    4.7976 H   0  0  0  0  0  0  0  0  0  0  0  0
   -0.1026  -13.3005    5.6532 H   0  0  0  0  0  0  0  0  0  0  0  0
   -1.0365  -13.0800    3.3529 H   0  0  0  0  0  0  0  0  0  0  0  0
   -3.5672  -11.7252    3.1298 H   0  0  0  0  0  0  0  0  0  0  0  0
   -2.0551   -9.8618    3.7495 H   0  0  0  0  0  0  0  0  0  0  0  0
   -0.3286   -9.0555    2.1355 H   0  0  0  0  0  0  0  0  0  0  0  0
   -1.6165  -12.0518   -0.6949 H   0  0  0  0  0  0  0  0  0  0  0  0
  1  2  1  0
  2  3  1  0
  3  4  1  0
  4  5  2  0
  4  6  1  0
  6  7  1  0
  7  8  1  0
  8  9  1  0
  9 10  1  0
 10 11  1  0
 11 12  1  0
 12 13  2  0
 12 14  1  0
 14 15  2  0
 15 16  1  0
 16 17  1  0
 16 18  2  0
 18 19  1  0
 19 20  2  0
  2 21  1  0
 21 22  2  0
 22 23  1  0
 23 24  2  0
 24 25  1  0
 25 26  1  0
 25 27  2  0
 20  6  1  0
 27 21  1  0
 20 14  1  0
  1 28  1  0
  1 29  1  0
  1 30  1  0
  3 31  1  0
  3 32  1  0
  7 33  1  0
  7 34  1  0
  8 35  1  0
  8 36  1  0
  9 37  1  0
  9 38  1  0
 10 39  1  0
 10 40  1  0
 11 41  1  0
 11 42  1  0
 15 43  1  0
 18 44  1  0
 19 45  1  0
 22 46  1  0
 23 47  1  0
 24 48  1  0
 27 49  1  0
M  CHG  1  10   1
M  END
>  <meeko>  (7) 
{"is_sidechain": [false], "free_energy": -4.766, "intermolecular_energy": -8.322, "internal_energy": -0.788}

$$$$
GEN_MMCYVXCTOYXZNR__M_PUB_ALL__e8__s20260927
     RDKit          3D

 49 51  0  0  0  0  0  0  0  0999 V2000
   17.2430   -9.0080   14.9780 C   0  0  0  0  0  0  0  0  0  0  0  0
   16.1950   -8.1890   14.3570 N   0  0  0  0  0  0  0  0  0  0  0  0
   14.9260   -8.1100   15.1130 C   0  0  0  0  0  0  0  0  0  0  0  0
   14.1580   -9.4470   15.0020 C   0  0  0  0  0  0  0  0  0  0  0  0
   14.2520  -10.2850   15.9060 O   0  0  0  0  0  0  0  0  0  0  0  0
   13.2480   -9.6400   13.9470 N   0  0  0  0  0  0  0  0  0  0  0  0
   13.8120   -9.8010   12.5940 C   0  0  0  0  0  0  0  0  0  0  0  0
   14.4070  -11.1940   12.3050 C   0  0  0  0  0  0  0  0  0  0  0  0
   13.4020  -12.2160   11.7680 C   0  0  0  0  0  0  0  0  0  0  0  0
   12.7190  -13.0180   12.8290 N   0  0  0  0  0  0  0  0  0  0  0  0
   11.2800  -12.6870   13.1350 C   0  0  0  0  0  0  0  0  0  0  0  0
   11.1820  -11.7750   14.3400 C   0  0  0  0  0  0  0  0  0  0  0  0
   11.3290  -12.2350   15.4730 O   0  0  0  0  0  0  0  0  0  0  0  0
   10.8700  -10.3400   14.1610 C   0  0  0  0  0  0  0  0  0  0  0  0
    9.5100  -10.0040   14.1230 C   0  0  0  0  0  0  0  0  0  0  0  0
    9.1350   -8.6750   13.9780 C   0  0  0  0  0  0  0  0  0  0  0  0
    7.8370   -8.3560   13.9500 F   0  0  0  0  0  0  0  0  0  0  0  0
   10.0890   -7.6750   13.8530 C   0  0  0  0  0  0  0  0  0  0  0  0
   11.4450   -8.0070   13.8670 C   0  0  0  0  0  0  0  0  0  0  0  0
   11.8570   -9.3410   14.0340 C   0  0  0  0  0  0  0  0  0  0  0  0
   16.4420   -7.5100   13.1750 C   0  0  0  0  0  0  0  0  0  0  0  0
   15.5130   -6.5950   12.6420 C   0  0  0  0  0  0  0  0  0  0  0  0
   15.7280   -5.9190   11.4330 C   0  0  0  0  0  0  0  0  0  0  0  0
   16.8950   -6.1360   10.7140 C   0  0  0  0  0  0  0  0  0  0  0  0
   17.8400   -7.0160   11.2220 C   0  0  0  0  0  0  0  0  0  0  0  0
   19.4400   -7.3260   10.2630 Br  0  0  0  0  0  0  0  0  0  0  0  0
   17.6210   -7.6840   12.4340 C   0  0  0  0  0  0  0  0  0  0  0  0
   17.1591   -8.9424   16.0728 H   0  0  0  0  0  0  0  0  0  0  0  0
   17.1246  -10.0553   14.6633 H   0  0  0  0  0  0  0  0  0  0  0  0
   18.2307   -8.6400   14.6633 H   0  0  0  0  0  0  0  0  0  0  0  0
   15.1449   -7.9028   16.1709 H   0  0  0  0  0  0  0  0  0  0  0  0
   14.3068   -7.3030   14.6942 H   0  0  0  0  0  0  0  0  0  0  0  0
   13.0108   -9.6126   11.8642 H   0  0  0  0  0  0  0  0  0  0  0  0
   14.6443   -9.0859   12.5175 H   0  0  0  0  0  0  0  0  0  0  0  0
   15.2087  -11.0772   11.5609 H   0  0  0  0  0  0  0  0  0  0  0  0
   14.7665  -11.5859   13.2679 H   0  0  0  0  0  0  0  0  0  0  0  0
   12.6337  -11.6763   11.1949 H   0  0  0  0  0  0  0  0  0  0  0  0
   13.9719  -12.9267   11.1515 H   0  0  0  0  0  0  0  0  0  0  0  0
   12.7220  -13.9980   12.5080 H   0  0  0  0  0  0  0  0  0  0  0  0
   13.2630  -12.9970   13.7020 H   0  0  0  0  0  0  0  0  0  0  0  0
   10.8328  -12.1841   12.2649 H   0  0  0  0  0  0  0  0  0  0  0  0
   10.7427  -13.6212   13.3555 H   0  0  0  0  0  0  0  0  0  0  0  0
    8.7439  -10.7888   14.2076 H   0  0  0  0  0  0  0  0  0  0  0  0
    9.7782   -6.6255   13.7434 H   0  0  0  0  0  0  0  0  0  0  0  0
   12.1997   -7.2160   13.7460 H   0  0  0  0  0  0  0  0  0  0  0  0
   14.5824   -6.4035   13.1963 H   0  0  0  0  0  0  0  0  0  0  0  0
   14.9714   -5.2162   11.0540 H   0  0  0  0  0  0  0  0  0  0  0  0
   17.0678   -5.6195    9.7583 H   0  0  0  0  0  0  0  0  0  0  0  0
   18.3960   -8.3648   12.8159 H   0  0  0  0  0  0  0  0  0  0  0  0
  1  2  1  0
  2  3  1  0
  3  4  1  0
  4  5  2  0
  4  6  1  0
  6  7  1  0
  7  8  1  0
  8  9  1  0
  9 10  1  0
 10 11  1  0
 11 12  1  0
 12 13  2  0
 12 14  1  0
 14 15  2  0
 15 16  1  0
 16 17  1  0
 16 18  2  0
 18 19  1  0
 19 20  2  0
  2 21  1  0
 21 22  2  0
 22 23  1  0
 23 24  2  0
 24 25  1  0
 25 26  1  0
 25 27  2  0
 20  6  1  0
 27 21  1  0
 20 14  1  0
  1 28  1  0
  1 29  1  0
  1 30  1  0
  3 31  1  0
  3 32  1  0
  7 33  1  0
  7 34  1  0
  8 35  1  0
  8 36  1  0
  9 37  1  0
  9 38  1  0
 10 39  1  0
 10 40  1  0
 11 41  1  0
 11 42  1  0
 15 43  1  0
 18 44  1  0
 19 45  1  0
 22 46  1  0
 23 47  1  0
 24 48  1  0
 27 49  1  0
M  CHG  1  10   1
M  END
>  <meeko>  (8) 
{"is_sidechain": [false], "free_energy": -4.748, "intermolecular_energy": -7.815, "internal_energy": -1.264}

$$$$
GEN_MMCYVXCTOYXZNR__M_PUB_ALL__e8__s20260927
     RDKit          3D

 49 51  0  0  0  0  0  0  0  0999 V2000
  -11.4980  -20.9750   10.5750 C   0  0  0  0  0  0  0  0  0  0  0  0
  -10.8390  -22.0460    9.8190 N   0  0  0  0  0  0  0  0  0  0  0  0
   -9.5310  -21.6880    9.2270 C   0  0  0  0  0  0  0  0  0  0  0  0
   -9.6970  -20.4940    8.2580 C   0  0  0  0  0  0  0  0  0  0  0  0
  -10.2620  -20.6620    7.1720 O   0  0  0  0  0  0  0  0  0  0  0  0
   -9.3370  -19.2020    8.6800 N   0  0  0  0  0  0  0  0  0  0  0  0
   -8.3940  -19.1020    9.8080 C   0  0  0  0  0  0  0  0  0  0  0  0
   -7.7440  -17.7150    9.9850 C   0  0  0  0  0  0  0  0  0  0  0  0
   -6.6360  -17.3910    8.9660 C   0  0  0  0  0  0  0  0  0  0  0  0
   -6.9780  -16.2590    8.0500 N   0  0  0  0  0  0  0  0  0  0  0  0
   -7.2280  -16.5880    6.6000 C   0  0  0  0  0  0  0  0  0  0  0  0
   -8.5030  -17.3900    6.4430 C   0  0  0  0  0  0  0  0  0  0  0  0
   -8.5920  -18.2350    5.5510 O   0  0  0  0  0  0  0  0  0  0  0  0
   -9.6560  -17.1340    7.3320 C   0  0  0  0  0  0  0  0  0  0  0  0
  -10.3430  -15.9300    7.1220 C   0  0  0  0  0  0  0  0  0  0  0  0
  -11.4500  -15.6260    7.9040 C   0  0  0  0  0  0  0  0  0  0  0  0
  -12.1080  -14.4810    7.6940 F   0  0  0  0  0  0  0  0  0  0  0  0
  -11.8750  -16.4880    8.9040 C   0  0  0  0  0  0  0  0  0  0  0  0
  -11.1800  -17.6770    9.1330 C   0  0  0  0  0  0  0  0  0  0  0  0
  -10.0690  -18.0250    8.3450 C   0  0  0  0  0  0  0  0  0  0  0  0
  -11.4110  -23.3060    9.7410 C   0  0  0  0  0  0  0  0  0  0  0  0
  -11.5400  -23.9830    8.5120 C   0  0  0  0  0  0  0  0  0  0  0  0
  -12.1420  -25.2440    8.4050 C   0  0  0  0  0  0  0  0  0  0  0  0
  -12.6360  -25.8760    9.5370 C   0  0  0  0  0  0  0  0  0  0  0  0
  -12.5050  -25.2450   10.7660 C   0  0  0  0  0  0  0  0  0  0  0  0
  -13.1670  -26.0890   12.3240 Br  0  0  0  0  0  0  0  0  0  0  0  0
  -11.8980  -23.9880   10.8670 C   0  0  0  0  0  0  0  0  0  0  0  0
  -11.3827  -21.1625   11.6528 H   0  0  0  0  0  0  0  0  0  0  0  0
  -11.0378  -20.0091   10.3195 H   0  0  0  0  0  0  0  0  0  0  0  0
  -12.5676  -20.9505   10.3195 H   0  0  0  0  0  0  0  0  0  0  0  0
   -8.8316  -21.4111   10.0296 H   0  0  0  0  0  0  0  0  0  0  0  0
   -9.1381  -22.5520    8.6709 H   0  0  0  0  0  0  0  0  0  0  0  0
   -8.9386  -19.3454   10.7322 H   0  0  0  0  0  0  0  0  0  0  0  0
   -7.5747  -19.8030    9.5904 H   0  0  0  0  0  0  0  0  0  0  0  0
   -8.5312  -16.9526    9.8897 H   0  0  0  0  0  0  0  0  0  0  0  0
   -7.2649  -17.7196   10.9752 H   0  0  0  0  0  0  0  0  0  0  0  0
   -5.7218  -17.1277    9.5181 H   0  0  0  0  0  0  0  0  0  0  0  0
   -6.5028  -18.2848    8.3388 H   0  0  0  0  0  0  0  0  0  0  0  0
   -7.8560  -15.8470    8.4020 H   0  0  0  0  0  0  0  0  0  0  0  0
   -6.2650  -15.5200    8.1100 H   0  0  0  0  0  0  0  0  0  0  0  0
   -7.3175  -15.6526    6.0281 H   0  0  0  0  0  0  0  0  0  0  0  0
   -6.3857  -17.1873    6.2240 H   0  0  0  0  0  0  0  0  0  0  0  0
  -10.0073  -15.2302    6.3425 H   0  0  0  0  0  0  0  0  0  0  0  0
  -12.7553  -16.2361    9.5136 H   0  0  0  0  0  0  0  0  0  0  0  0
  -11.5057  -18.3498    9.9400 H   0  0  0  0  0  0  0  0  0  0  0  0
  -11.1531  -23.5030    7.6010 H   0  0  0  0  0  0  0  0  0  0  0  0
  -12.2229  -25.7330    7.4230 H   0  0  0  0  0  0  0  0  0  0  0  0
  -13.1228  -26.8596    9.4617 H   0  0  0  0  0  0  0  0  0  0  0  0
  -11.7997  -23.5208   11.8580 H   0  0  0  0  0  0  0  0  0  0  0  0
  1  2  1  0
  2  3  1  0
  3  4  1  0
  4  5  2  0
  4  6  1  0
  6  7  1  0
  7  8  1  0
  8  9  1  0
  9 10  1  0
 10 11  1  0
 11 12  1  0
 12 13  2  0
 12 14  1  0
 14 15  2  0
 15 16  1  0
 16 17  1  0
 16 18  2  0
 18 19  1  0
 19 20  2  0
  2 21  1  0
 21 22  2  0
 22 23  1  0
 23 24  2  0
 24 25  1  0
 25 26  1  0
 25 27  2  0
 20  6  1  0
 27 21  1  0
 20 14  1  0
  1 28  1  0
  1 29  1  0
  1 30  1  0
  3 31  1  0
  3 32  1  0
  7 33  1  0
  7 34  1  0
  8 35  1  0
  8 36  1  0
  9 37  1  0
  9 38  1  0
 10 39  1  0
 10 40  1  0
 11 41  1  0
 11 42  1  0
 15 43  1  0
 18 44  1  0
 19 45  1  0
 22 46  1  0
 23 47  1  0
 24 48  1  0
 27 49  1  0
M  CHG  1  10   1
M  END
>  <meeko>  (9) 
{"is_sidechain": [false], "free_energy": -4.69, "intermolecular_energy": -8.317, "internal_energy": -0.668}

$$$$
