GEN_QRDMPGSIPKNLPR__M_PUB_ALL__e8__s20260927
     RDKit          3D

 37 39  0  0  0  0  0  0  0  0999 V2000
   16.9400  -10.3740   12.6580 O   0  0  0  0  0  0  0  0  0  0  0  0
   17.3220   -8.9920   12.8250 S   0  0  0  0  0  0  0  0  0  0  0  0
   17.8160   -8.1920   11.7290 O   0  0  0  0  0  0  0  0  0  0  0  0
   18.4340   -8.8940   14.1480 C   0  0  0  0  0  0  0  0  0  0  0  0
   19.1150   -7.7660   14.4060 C   0  0  0  0  0  0  0  0  0  0  0  0
   20.1280   -7.7940   15.4420 C   0  0  0  0  0  0  0  0  0  0  0  0
   20.2650   -8.8060   16.3130 C   0  0  0  0  0  0  0  0  0  0  0  0
   19.3040   -9.8720   16.2990 N   0  0  0  0  0  0  0  0  0  0  0  0
   18.6870  -10.1370   14.9360 C   0  0  0  0  0  0  0  0  0  0  0  0
   15.8880   -8.1470   13.2070 N   0  0  0  0  0  0  0  0  0  0  0  0
   15.5690   -7.1070   12.2720 C   0  0  0  0  0  0  0  0  0  0  0  0
   14.6200   -7.3540   11.3580 C   0  0  0  0  0  0  0  0  0  0  0  0
   13.9910   -8.6500   11.2990 C   0  0  0  0  0  0  0  0  0  0  0  0
   14.1250   -9.4730   12.3510 C   0  0  0  0  0  0  0  0  0  0  0  0
   13.6340  -10.8630   12.4030 C   0  0  0  0  0  0  0  0  0  0  0  0
   14.1260  -11.8260   11.5060 C   0  0  0  0  0  0  0  0  0  0  0  0
   13.6060  -13.1240   11.4920 C   0  0  0  0  0  0  0  0  0  0  0  0
   12.5860  -13.4770   12.3700 C   0  0  0  0  0  0  0  0  0  0  0  0
   12.0880  -12.5380   13.2680 C   0  0  0  0  0  0  0  0  0  0  0  0
   12.6050  -11.2390   13.2830 C   0  0  0  0  0  0  0  0  0  0  0  0
   14.7890   -9.0470   13.5070 O   0  0  0  0  0  0  0  0  0  0  0  0
   18.9090   -6.8428   13.8445 H   0  0  0  0  0  0  0  0  0  0  0  0
   20.8200   -6.9423   15.5184 H   0  0  0  0  0  0  0  0  0  0  0  0
   21.1016   -8.8182   17.0271 H   0  0  0  0  0  0  0  0  0  0  0  0
   19.7340  -10.7470   16.6430 H   0  0  0  0  0  0  0  0  0  0  0  0
   18.5580   -9.6670   16.9860 H   0  0  0  0  0  0  0  0  0  0  0  0
   19.3709  -10.7802   14.3627 H   0  0  0  0  0  0  0  0  0  0  0  0
   17.7121  -10.6164   15.1084 H   0  0  0  0  0  0  0  0  0  0  0  0
   16.1850   -7.7030   14.0840 H   0  0  0  0  0  0  0  0  0  0  0  0
   16.0869   -6.1371   12.3040 H   0  0  0  0  0  0  0  0  0  0  0  0
   14.3205   -6.5660   10.6513 H   0  0  0  0  0  0  0  0  0  0  0  0
   13.4153   -8.9569   10.4134 H   0  0  0  0  0  0  0  0  0  0  0  0
   14.9303  -11.5555   10.8060 H   0  0  0  0  0  0  0  0  0  0  0  0
   14.0041  -13.8673   10.7856 H   0  0  0  0  0  0  0  0  0  0  0  0
   12.1739  -14.4968   12.3543 H   0  0  0  0  0  0  0  0  0  0  0  0
   11.2863  -12.8181   13.9672 H   0  0  0  0  0  0  0  0  0  0  0  0
   12.2011  -10.5020   13.9927 H   0  0  0  0  0  0  0  0  0  0  0  0
  1  2  2  0
  2  3  2  0
  2  4  1  0
  4  5  2  0
  5  6  1  0
  6  7  2  0
  7  8  1  0
  8  9  1  0
  2 10  1  0
 10 11  1  0
 11 12  2  0
 12 13  1  0
 13 14  2  0
 14 15  1  0
 15 16  2  0
 16 17  1  0
 17 18  2  0
 18 19  1  0
 19 20  2  0
 14 21  1  0
  9  4  1  0
 21 10  1  0
 20 15  1  0
  5 22  1  0
  6 23  1  0
  7 24  1  0
  8 25  1  0
  8 26  1  0
  9 27  1  0
  9 28  1  0
 10 29  1  0
 11 30  1  0
 12 31  1  0
 13 32  1  0
 16 33  1  0
 17 34  1  0
 18 35  1  0
 19 36  1  0
 20 37  1  0
M  CHG  2   8   1  10   1
M  END
>  <meeko>  (1) 
{"is_sidechain": [false], "free_energy": -7.115, "intermolecular_energy": -8.363, "internal_energy": -0.202}

$$$$
GEN_QRDMPGSIPKNLPR__M_PUB_ALL__e8__s20260927
     RDKit          3D

 37 39  0  0  0  0  0  0  0  0999 V2000
    0.9360  -13.0130   -0.9320 O   0  0  0  0  0  0  0  0  0  0  0  0
    0.9900  -13.4190    0.4530 S   0  0  0  0  0  0  0  0  0  0  0  0
    2.1680  -14.0200    1.0320 O   0  0  0  0  0  0  0  0  0  0  0  0
   -0.3810  -14.4260    0.7770 C   0  0  0  0  0  0  0  0  0  0  0  0
   -1.3420  -14.6120   -0.1420 C   0  0  0  0  0  0  0  0  0  0  0  0
   -2.5260  -15.3550    0.2400 C   0  0  0  0  0  0  0  0  0  0  0  0
   -2.6180  -16.0620    1.3770 C   0  0  0  0  0  0  0  0  0  0  0  0
   -1.4610  -16.1860    2.2160 N   0  0  0  0  0  0  0  0  0  0  0  0
   -0.5120  -15.0010    2.1480 C   0  0  0  0  0  0  0  0  0  0  0  0
    0.8870  -11.9830    1.3710 N   0  0  0  0  0  0  0  0  0  0  0  0
    1.3610  -10.8220    0.6740 C   0  0  0  0  0  0  0  0  0  0  0  0
    0.4510   -9.9910    0.1470 C   0  0  0  0  0  0  0  0  0  0  0  0
   -0.9540  -10.3020    0.2410 C   0  0  0  0  0  0  0  0  0  0  0  0
   -1.3430  -11.2330    1.1260 C   0  0  0  0  0  0  0  0  0  0  0  0
   -2.7220  -11.7380    1.2680 C   0  0  0  0  0  0  0  0  0  0  0  0
   -3.1400  -12.3450    2.4640 C   0  0  0  0  0  0  0  0  0  0  0  0
   -4.4180  -12.9010    2.5770 C   0  0  0  0  0  0  0  0  0  0  0  0
   -5.2950  -12.8620    1.4980 C   0  0  0  0  0  0  0  0  0  0  0  0
   -4.9010  -12.2620    0.3060 C   0  0  0  0  0  0  0  0  0  0  0  0
   -3.6230  -11.7060    0.1890 C   0  0  0  0  0  0  0  0  0  0  0  0
   -0.4150  -11.8250    1.9900 O   0  0  0  0  0  0  0  0  0  0  0  0
   -1.2332  -14.2101   -1.1602 H   0  0  0  0  0  0  0  0  0  0  0  0
   -3.3934  -15.3387   -0.4363 H   0  0  0  0  0  0  0  0  0  0  0  0
   -3.5671  -16.5396    1.6616 H   0  0  0  0  0  0  0  0  0  0  0  0
   -1.7440  -16.3250    3.2010 H   0  0  0  0  0  0  0  0  0  0  0  0
   -0.9540  -17.0540    1.9710 H   0  0  0  0  0  0  0  0  0  0  0  0
   -0.8857  -14.2156    2.8215 H   0  0  0  0  0  0  0  0  0  0  0  0
    0.4831  -15.3637    2.4450 H   0  0  0  0  0  0  0  0  0  0  0  0
    1.5660  -12.2080    2.1090 H   0  0  0  0  0  0  0  0  0  0  0  0
    2.4378  -10.6201    0.5752 H   0  0  0  0  0  0  0  0  0  0  0  0
    0.7766   -9.0698   -0.3583 H   0  0  0  0  0  0  0  0  0  0  0  0
   -1.6887   -9.7889   -0.3969 H   0  0  0  0  0  0  0  0  0  0  0  0
   -2.4532  -12.3834    3.3224 H   0  0  0  0  0  0  0  0  0  0  0  0
   -4.7306  -13.3704    3.5214 H   0  0  0  0  0  0  0  0  0  0  0  0
   -6.2981  -13.3046    1.5869 H   0  0  0  0  0  0  0  0  0  0  0  0
   -5.5959  -12.2249   -0.5459 H   0  0  0  0  0  0  0  0  0  0  0  0
   -3.3190  -11.2379   -0.7589 H   0  0  0  0  0  0  0  0  0  0  0  0
  1  2  2  0
  2  3  2  0
  2  4  1  0
  4  5  2  0
  5  6  1  0
  6  7  2  0
  7  8  1  0
  8  9  1  0
  2 10  1  0
 10 11  1  0
 11 12  2  0
 12 13  1  0
 13 14  2  0
 14 15  1  0
 15 16  2  0
 16 17  1  0
 17 18  2  0
 18 19  1  0
 19 20  2  0
 14 21  1  0
  9  4  1  0
 21 10  1  0
 20 15  1  0
  5 22  1  0
  6 23  1  0
  7 24  1  0
  8 25  1  0
  8 26  1  0
  9 27  1  0
  9 28  1  0
 10 29  1  0
 11 30  1  0
 12 31  1  0
 13 32  1  0
 16 33  1  0
 17 34  1  0
 18 35  1  0
 19 36  1  0
 20 37  1  0
M  CHG  2   8   1  10   1
M  END
>  <meeko>  (2) 
{"is_sidechain": [false], "free_energy": -7.027, "intermolecular_energy": -7.299, "internal_energy": -1.162}

$$$$
GEN_QRDMPGSIPKNLPR__M_PUB_ALL__e8__s20260927
     RDKit          3D

 37 39  0  0  0  0  0  0  0  0999 V2000
   -1.9270  -15.2870   -1.1170 O   0  0  0  0  0  0  0  0  0  0  0  0
   -1.9120  -15.6760    0.2740 S   0  0  0  0  0  0  0  0  0  0  0  0
   -2.1140  -17.0420    0.6920 O   0  0  0  0  0  0  0  0  0  0  0  0
   -3.0060  -14.6480    1.1350 C   0  0  0  0  0  0  0  0  0  0  0  0
   -3.6430  -13.6360    0.5220 C   0  0  0  0  0  0  0  0  0  0  0  0
   -4.4380  -12.7330    1.3290 C   0  0  0  0  0  0  0  0  0  0  0  0
   -4.7650  -12.9780    2.6070 C   0  0  0  0  0  0  0  0  0  0  0  0
   -4.4060  -14.2400    3.1880 N   0  0  0  0  0  0  0  0  0  0  0  0
   -3.1450  -14.8580    2.6070 C   0  0  0  0  0  0  0  0  0  0  0  0
   -0.3160  -15.4140    0.8210 N   0  0  0  0  0  0  0  0  0  0  0  0
    0.6710  -15.5260   -0.2160 C   0  0  0  0  0  0  0  0  0  0  0  0
    1.1660  -14.3940   -0.7350 C   0  0  0  0  0  0  0  0  0  0  0  0
    0.6700  -13.1160   -0.2920 C   0  0  0  0  0  0  0  0  0  0  0  0
   -0.0340  -13.0650    0.8500 C   0  0  0  0  0  0  0  0  0  0  0  0
   -0.6960  -11.8590    1.3800 C   0  0  0  0  0  0  0  0  0  0  0  0
   -0.9910  -11.7500    2.7490 C   0  0  0  0  0  0  0  0  0  0  0  0
   -1.6940  -10.6490    3.2470 C   0  0  0  0  0  0  0  0  0  0  0  0
   -2.1150   -9.6410    2.3840 C   0  0  0  0  0  0  0  0  0  0  0  0
   -1.8290   -9.7290    1.0240 C   0  0  0  0  0  0  0  0  0  0  0  0
   -1.1280  -10.8310    0.5250 C   0  0  0  0  0  0  0  0  0  0  0  0
   -0.2070  -14.2140    1.6290 O   0  0  0  0  0  0  0  0  0  0  0  0
   -3.5627  -13.4966   -0.5662 H   0  0  0  0  0  0  0  0  0  0  0  0
   -4.7919  -11.7980    0.8702 H   0  0  0  0  0  0  0  0  0  0  0  0
   -5.3005  -12.2225    3.2007 H   0  0  0  0  0  0  0  0  0  0  0  0
   -4.2850  -14.1440    4.2100 H   0  0  0  0  0  0  0  0  0  0  0  0
   -5.1960  -14.9000    3.0850 H   0  0  0  0  0  0  0  0  0  0  0  0
   -2.2742  -14.4090    3.1071 H   0  0  0  0  0  0  0  0  0  0  0  0
   -3.2074  -15.9432    2.7759 H   0  0  0  0  0  0  0  0  0  0  0  0
   -0.2160  -16.2270    1.4400 H   0  0  0  0  0  0  0  0  0  0  0  0
    1.0100  -16.5097   -0.5730 H   0  0  0  0  0  0  0  0  0  0  0  0
    1.9535  -14.4407   -1.5016 H   0  0  0  0  0  0  0  0  0  0  0  0
    0.8635  -12.2038   -0.8755 H   0  0  0  0  0  0  0  0  0  0  0  0
   -0.6643  -12.5420    3.4389 H   0  0  0  0  0  0  0  0  0  0  0  0
   -1.9148  -10.5791    4.3223 H   0  0  0  0  0  0  0  0  0  0  0  0
   -2.6722   -8.7771    2.7755 H   0  0  0  0  0  0  0  0  0  0  0  0
   -2.1550   -8.9304    0.3414 H   0  0  0  0  0  0  0  0  0  0  0  0
   -0.9117  -10.8941   -0.5517 H   0  0  0  0  0  0  0  0  0  0  0  0
  1  2  2  0
  2  3  2  0
  2  4  1  0
  4  5  2  0
  5  6  1  0
  6  7  2  0
  7  8  1  0
  8  9  1  0
  2 10  1  0
 10 11  1  0
 11 12  2  0
 12 13  1  0
 13 14  2  0
 14 15  1  0
 15 16  2  0
 16 17  1  0
 17 18  2  0
 18 19  1  0
 19 20  2  0
 14 21  1  0
  9  4  1  0
 21 10  1  0
 20 15  1  0
  5 22  1  0
  6 23  1  0
  7 24  1  0
  8 25  1  0
  8 26  1  0
  9 27  1  0
  9 28  1  0
 10 29  1  0
 11 30  1  0
 12 31  1  0
 13 32  1  0
 16 33  1  0
 17 34  1  0
 18 35  1  0
 19 36  1  0
 20 37  1  0
M  CHG  2   8   1  10   1
M  END
>  <meeko>  (3) 
{"is_sidechain": [false], "free_energy": -6.821, "intermolecular_energy": -7.047, "internal_energy": -1.173}

$$$$
GEN_QRDMPGSIPKNLPR__M_PUB_ALL__e8__s20260927
     RDKit          3D

 37 39  0  0  0  0  0  0  0  0999 V2000
    0.3990  -14.2150    2.2480 O   0  0  0  0  0  0  0  0  0  0  0  0
    0.5360  -13.1760    1.2550 S   0  0  0  0  0  0  0  0  0  0  0  0
    1.8180  -12.7980    0.7100 O   0  0  0  0  0  0  0  0  0  0  0  0
   -0.2760  -11.7620    1.8360 C   0  0  0  0  0  0  0  0  0  0  0  0
   -1.1370  -11.8250    2.8650 C   0  0  0  0  0  0  0  0  0  0  0  0
   -1.8830  -10.6330    3.2120 C   0  0  0  0  0  0  0  0  0  0  0  0
   -1.6000   -9.4150    2.7230 C   0  0  0  0  0  0  0  0  0  0  0  0
   -0.4400   -9.2500    1.8960 N   0  0  0  0  0  0  0  0  0  0  0  0
   -0.0660  -10.4850    1.0920 C   0  0  0  0  0  0  0  0  0  0  0  0
   -0.2420  -13.7580   -0.1500 N   0  0  0  0  0  0  0  0  0  0  0  0
    0.1770  -15.0760   -0.5320 C   0  0  0  0  0  0  0  0  0  0  0  0
   -0.6300  -16.1030   -0.2320 C   0  0  0  0  0  0  0  0  0  0  0  0
   -1.8490  -15.8750    0.5030 C   0  0  0  0  0  0  0  0  0  0  0  0
   -2.3180  -14.6200    0.5880 C   0  0  0  0  0  0  0  0  0  0  0  0
   -3.4880  -14.2090    1.3870 C   0  0  0  0  0  0  0  0  0  0  0  0
   -4.4460  -13.3340    0.8500 C   0  0  0  0  0  0  0  0  0  0  0  0
   -5.5120  -12.8720    1.6280 C   0  0  0  0  0  0  0  0  0  0  0  0
   -5.6340  -13.2750    2.9550 C   0  0  0  0  0  0  0  0  0  0  0  0
   -4.6960  -14.1440    3.5040 C   0  0  0  0  0  0  0  0  0  0  0  0
   -3.6290  -14.6060    2.7280 C   0  0  0  0  0  0  0  0  0  0  0  0
   -1.6800  -13.5750   -0.0900 O   0  0  0  0  0  0  0  0  0  0  0  0
   -1.2722  -12.7589    3.4303 H   0  0  0  0  0  0  0  0  0  0  0  0
   -2.7253  -10.7307    3.9127 H   0  0  0  0  0  0  0  0  0  0  0  0
   -2.2481   -8.5566    2.9532 H   0  0  0  0  0  0  0  0  0  0  0  0
   -0.5730   -8.4600    1.2430 H   0  0  0  0  0  0  0  0  0  0  0  0
    0.3610   -8.9630    2.4850 H   0  0  0  0  0  0  0  0  0  0  0  0
   -0.6812  -10.5072    0.1804 H   0  0  0  0  0  0  0  0  0  0  0  0
    1.0083  -10.4131    0.8666 H   0  0  0  0  0  0  0  0  0  0  0  0
    0.1360  -13.0940   -0.8370 H   0  0  0  0  0  0  0  0  0  0  0  0
    1.1310  -15.2385   -1.0549 H   0  0  0  0  0  0  0  0  0  0  0  0
   -0.3617  -17.1221   -0.5473 H   0  0  0  0  0  0  0  0  0  0  0  0
   -2.3820  -16.7092    0.9826 H   0  0  0  0  0  0  0  0  0  0  0  0
   -4.3567  -13.0077   -0.1967 H   0  0  0  0  0  0  0  0  0  0  0  0
   -6.2554  -12.1891    1.1909 H   0  0  0  0  0  0  0  0  0  0  0  0
   -6.4700  -12.9073    3.5681 H   0  0  0  0  0  0  0  0  0  0  0  0
   -4.7943  -14.4680    4.5506 H   0  0  0  0  0  0  0  0  0  0  0  0
   -2.8902  -15.2890    3.1725 H   0  0  0  0  0  0  0  0  0  0  0  0
  1  2  2  0
  2  3  2  0
  2  4  1  0
  4  5  2  0
  5  6  1  0
  6  7  2  0
  7  8  1  0
  8  9  1  0
  2 10  1  0
 10 11  1  0
 11 12  2  0
 12 13  1  0
 13 14  2  0
 14 15  1  0
 15 16  2  0
 16 17  1  0
 17 18  2  0
 18 19  1  0
 19 20  2  0
 14 21  1  0
  9  4  1  0
 21 10  1  0
 20 15  1  0
  5 22  1  0
  6 23  1  0
  7 24  1  0
  8 25  1  0
  8 26  1  0
  9 27  1  0
  9 28  1  0
 10 29  1  0
 11 30  1  0
 12 31  1  0
 13 32  1  0
 16 33  1  0
 17 34  1  0
 18 35  1  0
 19 36  1  0
 20 37  1  0
M  CHG  2   8   1  10   1
M  END
>  <meeko>  (4) 
{"is_sidechain": [false], "free_energy": -6.771, "intermolecular_energy": -7.2, "internal_energy": -0.96}

$$$$
GEN_QRDMPGSIPKNLPR__M_PUB_ALL__e8__s20260927
     RDKit          3D

 37 39  0  0  0  0  0  0  0  0999 V2000
   11.0340  -11.8260   -3.1350 O   0  0  0  0  0  0  0  0  0  0  0  0
   12.4470  -12.1070   -3.2250 S   0  0  0  0  0  0  0  0  0  0  0  0
   13.4170  -11.0820   -3.5260 O   0  0  0  0  0  0  0  0  0  0  0  0
   12.6660  -13.4360   -4.3130 C   0  0  0  0  0  0  0  0  0  0  0  0
   11.6330  -14.2060   -4.6910 C   0  0  0  0  0  0  0  0  0  0  0  0
   11.9070  -15.3810   -5.4940 C   0  0  0  0  0  0  0  0  0  0  0  0
   13.0930  -15.6180   -6.0750 C   0  0  0  0  0  0  0  0  0  0  0  0
   14.1200  -14.6190   -5.9950 N   0  0  0  0  0  0  0  0  0  0  0  0
   14.0590  -13.7620   -4.7410 C   0  0  0  0  0  0  0  0  0  0  0  0
   12.9430  -12.5550   -1.6540 N   0  0  0  0  0  0  0  0  0  0  0  0
   12.8800  -11.4800   -0.7050 C   0  0  0  0  0  0  0  0  0  0  0  0
   11.8420  -11.4510    0.1420 C   0  0  0  0  0  0  0  0  0  0  0  0
   10.8020  -12.4450    0.0490 C   0  0  0  0  0  0  0  0  0  0  0  0
   11.0480  -13.5610   -0.6550 C   0  0  0  0  0  0  0  0  0  0  0  0
   10.0590  -14.6200   -0.9320 C   0  0  0  0  0  0  0  0  0  0  0  0
   10.4690  -15.8680   -1.4270 C   0  0  0  0  0  0  0  0  0  0  0  0
    9.5320  -16.8460   -1.7720 C   0  0  0  0  0  0  0  0  0  0  0  0
    8.1710  -16.5910   -1.6310 C   0  0  0  0  0  0  0  0  0  0  0  0
    7.7450  -15.3600   -1.1390 C   0  0  0  0  0  0  0  0  0  0  0  0
    8.6800  -14.3800   -0.7950 C   0  0  0  0  0  0  0  0  0  0  0  0
   12.3120  -13.7860   -1.2140 O   0  0  0  0  0  0  0  0  0  0  0  0
   10.6037  -13.9512   -4.3983 H   0  0  0  0  0  0  0  0  0  0  0  0
   11.1011  -16.1164   -5.6344 H   0  0  0  0  0  0  0  0  0  0  0  0
   13.2754  -16.5645   -6.6050 H   0  0  0  0  0  0  0  0  0  0  0  0
   15.0540  -15.0580   -6.0490 H   0  0  0  0  0  0  0  0  0  0  0  0
   14.0730  -14.0140   -6.8330 H   0  0  0  0  0  0  0  0  0  0  0  0
   14.5571  -14.3040   -3.9236 H   0  0  0  0  0  0  0  0  0  0  0  0
   14.5586  -12.8100   -4.9735 H   0  0  0  0  0  0  0  0  0  0  0  0
   13.9330  -12.7540   -1.8410 H   0  0  0  0  0  0  0  0  0  0  0  0
   13.6593  -10.7043   -0.6740 H   0  0  0  0  0  0  0  0  0  0  0  0
   11.7833  -10.6663    0.9106 H   0  0  0  0  0  0  0  0  0  0  0  0
    9.8309  -12.2926    0.5427 H   0  0  0  0  0  0  0  0  0  0  0  0
   11.5421  -16.0790   -1.5449 H   0  0  0  0  0  0  0  0  0  0  0  0
    9.8710  -17.8195   -2.1559 H   0  0  0  0  0  0  0  0  0  0  0  0
    7.4342  -17.3596   -1.9074 H   0  0  0  0  0  0  0  0  0  0  0  0
    6.6701  -15.1585   -1.0208 H   0  0  0  0  0  0  0  0  0  0  0  0
    8.3331  -13.4088   -0.4123 H   0  0  0  0  0  0  0  0  0  0  0  0
  1  2  2  0
  2  3  2  0
  2  4  1  0
  4  5  2  0
  5  6  1  0
  6  7  2  0
  7  8  1  0
  8  9  1  0
  2 10  1  0
 10 11  1  0
 11 12  2  0
 12 13  1  0
 13 14  2  0
 14 15  1  0
 15 16  2  0
 16 17  1  0
 17 18  2  0
 18 19  1  0
 19 20  2  0
 14 21  1  0
  9  4  1  0
 21 10  1  0
 20 15  1  0
  5 22  1  0
  6 23  1  0
  7 24  1  0
  8 25  1  0
  8 26  1  0
  9 27  1  0
  9 28  1  0
 10 29  1  0
 11 30  1  0
 12 31  1  0
 13 32  1  0
 16 33  1  0
 17 34  1  0
 18 35  1  0
 19 36  1  0
 20 37  1  0
M  CHG  2   8   1  10   1
M  END
>  <meeko>  (5) 
{"is_sidechain": [false], "free_energy": -6.621, "intermolecular_energy": -7.354, "internal_energy": -0.631}

$$$$
GEN_QRDMPGSIPKNLPR__M_PUB_ALL__e8__s20260927
     RDKit          3D

 37 39  0  0  0  0  0  0  0  0999 V2000
   11.0230  -11.9650   -2.8060 O   0  0  0  0  0  0  0  0  0  0  0  0
   12.4630  -12.0770   -2.8350 S   0  0  0  0  0  0  0  0  0  0  0  0
   13.3110  -10.9730   -3.2150 O   0  0  0  0  0  0  0  0  0  0  0  0
   12.8780  -13.4670   -3.7800 C   0  0  0  0  0  0  0  0  0  0  0  0
   13.0800  -13.3760   -5.1040 C   0  0  0  0  0  0  0  0  0  0  0  0
   13.2910  -14.5970   -5.8550 C   0  0  0  0  0  0  0  0  0  0  0  0
   13.5270  -15.7860   -5.2780 C   0  0  0  0  0  0  0  0  0  0  0  0
   13.6870  -15.8500   -3.8540 N   0  0  0  0  0  0  0  0  0  0  0  0
   12.9080  -14.7910   -3.0910 C   0  0  0  0  0  0  0  0  0  0  0  0
   12.9530  -12.3070   -1.2160 N   0  0  0  0  0  0  0  0  0  0  0  0
   13.5350  -11.1370   -0.6220 C   0  0  0  0  0  0  0  0  0  0  0  0
   12.7740  -10.4090    0.2070 C   0  0  0  0  0  0  0  0  0  0  0  0
   11.4000  -10.7760    0.4390 C   0  0  0  0  0  0  0  0  0  0  0  0
   11.0000  -12.0080    0.0860 C   0  0  0  0  0  0  0  0  0  0  0  0
    9.6100  -12.4970    0.1580 C   0  0  0  0  0  0  0  0  0  0  0  0
    8.6850  -11.8910    1.0240 C   0  0  0  0  0  0  0  0  0  0  0  0
    7.3910  -12.4010    1.1620 C   0  0  0  0  0  0  0  0  0  0  0  0
    7.0020  -13.5260    0.4400 C   0  0  0  0  0  0  0  0  0  0  0  0
    7.9030  -14.1380   -0.4260 C   0  0  0  0  0  0  0  0  0  0  0  0
    9.1990  -13.6310   -0.5640 C   0  0  0  0  0  0  0  0  0  0  0  0
   11.9180  -12.9360   -0.4180 O   0  0  0  0  0  0  0  0  0  0  0  0
   13.0852  -12.3977   -5.6068 H   0  0  0  0  0  0  0  0  0  0  0  0
   13.2561  -14.5472   -6.9533 H   0  0  0  0  0  0  0  0  0  0  0  0
   13.5967  -16.6983   -5.8887 H   0  0  0  0  0  0  0  0  0  0  0  0
   13.4080  -16.7820   -3.5030 H   0  0  0  0  0  0  0  0  0  0  0  0
   14.6920  -15.7790   -3.6200 H   0  0  0  0  0  0  0  0  0  0  0  0
   11.8732  -15.1422   -2.9650 H   0  0  0  0  0  0  0  0  0  0  0  0
   13.4171  -14.6444   -2.1270 H   0  0  0  0  0  0  0  0  0  0  0  0
   13.7030  -12.9920   -1.3650 H   0  0  0  0  0  0  0  0  0  0  0  0
   14.5733  -10.8469   -0.8404 H   0  0  0  0  0  0  0  0  0  0  0  0
   13.1994   -9.5290    0.7116 H   0  0  0  0  0  0  0  0  0  0  0  0
   10.6959  -10.0640    0.8943 H   0  0  0  0  0  0  0  0  0  0  0  0
    8.9829  -11.0033    1.6012 H   0  0  0  0  0  0  0  0  0  0  0  0
    6.6783  -11.9124    1.8427 H   0  0  0  0  0  0  0  0  0  0  0  0
    5.9852  -13.9300    0.5538 H   0  0  0  0  0  0  0  0  0  0  0  0
    7.5952  -15.0224   -1.0032 H   0  0  0  0  0  0  0  0  0  0  0  0
    9.9058  -14.1259   -1.2462 H   0  0  0  0  0  0  0  0  0  0  0  0
  1  2  2  0
  2  3  2  0
  2  4  1  0
  4  5  2  0
  5  6  1  0
  6  7  2  0
  7  8  1  0
  8  9  1  0
  2 10  1  0
 10 11  1  0
 11 12  2  0
 12 13  1  0
 13 14  2  0
 14 15  1  0
 15 16  2  0
 16 17  1  0
 17 18  2  0
 18 19  1  0
 19 20  2  0
 14 21  1  0
  9  4  1  0
 21 10  1  0
 20 15  1  0
  5 22  1  0
  6 23  1  0
  7 24  1  0
  8 25  1  0
  8 26  1  0
  9 27  1  0
  9 28  1  0
 10 29  1  0
 11 30  1  0
 12 31  1  0
 13 32  1  0
 16 33  1  0
 17 34  1  0
 18 35  1  0
 19 36  1  0
 20 37  1  0
M  CHG  2   8   1  10   1
M  END
>  <meeko>  (6) 
{"is_sidechain": [false], "free_energy": -6.602, "intermolecular_energy": -7.803, "internal_energy": -0.158}

$$$$
GEN_QRDMPGSIPKNLPR__M_PUB_ALL__e8__s20260927
     RDKit          3D

 37 39  0  0  0  0  0  0  0  0999 V2000
   -1.2070  -16.2530    0.8470 O   0  0  0  0  0  0  0  0  0  0  0  0
   -2.1880  -15.9590    1.8650 S   0  0  0  0  0  0  0  0  0  0  0  0
   -3.1220  -16.9500    2.3420 O   0  0  0  0  0  0  0  0  0  0  0  0
   -3.0560  -14.5400    1.3850 C   0  0  0  0  0  0  0  0  0  0  0  0
   -2.7680  -13.8980    0.2420 C   0  0  0  0  0  0  0  0  0  0  0  0
   -3.4390  -12.6440   -0.0320 C   0  0  0  0  0  0  0  0  0  0  0  0
   -4.4950  -12.2030    0.6690 C   0  0  0  0  0  0  0  0  0  0  0  0
   -5.0660  -13.0510    1.6750 N   0  0  0  0  0  0  0  0  0  0  0  0
   -4.0720  -13.9940    2.3330 C   0  0  0  0  0  0  0  0  0  0  0  0
   -1.3070  -15.6460    3.2940 N   0  0  0  0  0  0  0  0  0  0  0  0
   -0.0290  -16.2980    3.3330 C   0  0  0  0  0  0  0  0  0  0  0  0
    1.0590  -15.5620    3.0640 C   0  0  0  0  0  0  0  0  0  0  0  0
    0.9230  -14.1760    2.6930 C   0  0  0  0  0  0  0  0  0  0  0  0
   -0.2450  -13.5610    2.9400 C   0  0  0  0  0  0  0  0  0  0  0  0
   -0.5780  -12.1850    2.5270 C   0  0  0  0  0  0  0  0  0  0  0  0
   -1.5140  -11.4290    3.2530 C   0  0  0  0  0  0  0  0  0  0  0  0
   -1.8980  -10.1560    2.8200 C   0  0  0  0  0  0  0  0  0  0  0  0
   -1.3550   -9.6210    1.6560 C   0  0  0  0  0  0  0  0  0  0  0  0
   -0.4230  -10.3520    0.9260 C   0  0  0  0  0  0  0  0  0  0  0  0
   -0.0400  -11.6260    1.3550 C   0  0  0  0  0  0  0  0  0  0  0  0
   -1.2730  -14.2310    3.6140 O   0  0  0  0  0  0  0  0  0  0  0  0
   -2.0398  -14.3143   -0.4696 H   0  0  0  0  0  0  0  0  0  0  0  0
   -3.0637  -12.0210   -0.8572 H   0  0  0  0  0  0  0  0  0  0  0  0
   -4.9165  -11.2057    0.4749 H   0  0  0  0  0  0  0  0  0  0  0  0
   -5.5180  -12.4830    2.4100 H   0  0  0  0  0  0  0  0  0  0  0  0
   -5.8420  -13.5970    1.2610 H   0  0  0  0  0  0  0  0  0  0  0  0
   -3.5469  -13.4467    3.1297 H   0  0  0  0  0  0  0  0  0  0  0  0
   -4.6443  -14.8485    2.7233 H   0  0  0  0  0  0  0  0  0  0  0  0
   -1.9200  -16.1120    3.9730 H   0  0  0  0  0  0  0  0  0  0  0  0
    0.0552  -17.3675    3.5759 H   0  0  0  0  0  0  0  0  0  0  0  0
    2.0583  -16.0174    3.1267 H   0  0  0  0  0  0  0  0  0  0  0  0
    1.7555  -13.6352    2.2192 H   0  0  0  0  0  0  0  0  0  0  0  0
   -1.9502  -11.8439    4.1737 H   0  0  0  0  0  0  0  0  0  0  0  0
   -2.6307   -9.5765    3.4007 H   0  0  0  0  0  0  0  0  0  0  0  0
   -1.6620   -8.6218    1.3135 H   0  0  0  0  0  0  0  0  0  0  0  0
    0.0130   -9.9268    0.0100 H   0  0  0  0  0  0  0  0  0  0  0  0
    0.6924  -12.1989    0.7674 H   0  0  0  0  0  0  0  0  0  0  0  0
  1  2  2  0
  2  3  2  0
  2  4  1  0
  4  5  2  0
  5  6  1  0
  6  7  2  0
  7  8  1  0
  8  9  1  0
  2 10  1  0
 10 11  1  0
 11 12  2  0
 12 13  1  0
 13 14  2  0
 14 15  1  0
 15 16  2  0
 16 17  1  0
 17 18  2  0
 18 19  1  0
 19 20  2  0
 14 21  1  0
  9  4  1  0
 21 10  1  0
 20 15  1  0
  5 22  1  0
  6 23  1  0
  7 24  1  0
  8 25  1  0
  8 26  1  0
  9 27  1  0
  9 28  1  0
 10 29  1  0
 11 30  1  0
 12 31  1  0
 13 32  1  0
 16 33  1  0
 17 34  1  0
 18 35  1  0
 19 36  1  0
 20 37  1  0
M  CHG  2   8   1  10   1
M  END
>  <meeko>  (7) 
{"is_sidechain": [false], "free_energy": -6.511, "intermolecular_energy": -6.743, "internal_energy": -1.112}

$$$$
GEN_QRDMPGSIPKNLPR__M_PUB_ALL__e8__s20260927
     RDKit          3D

 37 39  0  0  0  0  0  0  0  0999 V2000
   -0.5530  -15.1000    5.6650 O   0  0  0  0  0  0  0  0  0  0  0  0
    0.2240  -15.3350    4.4710 S   0  0  0  0  0  0  0  0  0  0  0  0
    1.6080  -15.7390    4.5210 O   0  0  0  0  0  0  0  0  0  0  0  0
    0.0710  -13.9490    3.4440 C   0  0  0  0  0  0  0  0  0  0  0  0
   -0.7350  -12.9250    3.7690 C   0  0  0  0  0  0  0  0  0  0  0  0
   -0.9200  -11.8610    2.8040 C   0  0  0  0  0  0  0  0  0  0  0  0
   -0.1600  -11.7190    1.7070 C   0  0  0  0  0  0  0  0  0  0  0  0
    0.9620  -12.5930    1.5190 N   0  0  0  0  0  0  0  0  0  0  0  0
    0.7880  -13.9710    2.1350 C   0  0  0  0  0  0  0  0  0  0  0  0
   -0.4730  -16.6980    3.7140 N   0  0  0  0  0  0  0  0  0  0  0  0
   -1.0770  -17.6180    4.6350 C   0  0  0  0  0  0  0  0  0  0  0  0
   -2.4120  -17.5950    4.7590 C   0  0  0  0  0  0  0  0  0  0  0  0
   -3.1910  -16.6310    4.0240 C   0  0  0  0  0  0  0  0  0  0  0  0
   -2.6140  -15.9970    2.9910 C   0  0  0  0  0  0  0  0  0  0  0  0
   -3.2390  -14.9130    2.2100 C   0  0  0  0  0  0  0  0  0  0  0  0
   -2.8520  -14.6780    0.8810 C   0  0  0  0  0  0  0  0  0  0  0  0
   -3.3770  -13.6000    0.1610 C   0  0  0  0  0  0  0  0  0  0  0  0
   -4.2940  -12.7400    0.7600 C   0  0  0  0  0  0  0  0  0  0  0  0
   -4.6920  -12.9590    2.0750 C   0  0  0  0  0  0  0  0  0  0  0  0
   -4.1660  -14.0350    2.7970 C   0  0  0  0  0  0  0  0  0  0  0  0
   -1.3140  -16.3270    2.5920 O   0  0  0  0  0  0  0  0  0  0  0  0
   -1.2424  -12.8952    4.7445 H   0  0  0  0  0  0  0  0  0  0  0  0
   -1.7247  -11.1318    2.9792 H   0  0  0  0  0  0  0  0  0  0  0  0
   -0.3940  -10.9436    0.9627 H   0  0  0  0  0  0  0  0  0  0  0  0
    1.1650  -12.7050    0.5120 H   0  0  0  0  0  0  0  0  0  0  0  0
    1.8110  -12.1440    1.9030 H   0  0  0  0  0  0  0  0  0  0  0  0
    0.2154  -14.5964    1.4343 H   0  0  0  0  0  0  0  0  0  0  0  0
    1.7949  -14.3721    2.3230 H   0  0  0  0  0  0  0  0  0  0  0  0
    0.3800  -17.1360    3.3440 H   0  0  0  0  0  0  0  0  0  0  0  0
   -0.4645  -18.3195    5.2204 H   0  0  0  0  0  0  0  0  0  0  0  0
   -2.9137  -18.3138    5.4235 H   0  0  0  0  0  0  0  0  0  0  0  0
   -4.2339  -16.4196    4.3028 H   0  0  0  0  0  0  0  0  0  0  0  0
   -2.1265  -15.3504    0.3998 H   0  0  0  0  0  0  0  0  0  0  0  0
   -3.0650  -13.4312   -0.8802 H   0  0  0  0  0  0  0  0  0  0  0  0
   -4.7027  -11.8895    0.1947 H   0  0  0  0  0  0  0  0  0  0  0  0
   -5.4215  -12.2848    2.5475 H   0  0  0  0  0  0  0  0  0  0  0  0
   -4.4821  -14.1962    3.8382 H   0  0  0  0  0  0  0  0  0  0  0  0
  1  2  2  0
  2  3  2  0
  2  4  1  0
  4  5  2  0
  5  6  1  0
  6  7  2  0
  7  8  1  0
  8  9  1  0
  2 10  1  0
 10 11  1  0
 11 12  2  0
 12 13  1  0
 13 14  2  0
 14 15  1  0
 15 16  2  0
 16 17  1  0
 17 18  2  0
 18 19  1  0
 19 20  2  0
 14 21  1  0
  9  4  1  0
 21 10  1  0
 20 15  1  0
  5 22  1  0
  6 23  1  0
  7 24  1  0
  8 25  1  0
  8 26  1  0
  9 27  1  0
  9 28  1  0
 10 29  1  0
 11 30  1  0
 12 31  1  0
 13 32  1  0
 16 33  1  0
 17 34  1  0
 18 35  1  0
 19 36  1  0
 20 37  1  0
M  CHG  2   8   1  10   1
M  END
>  <meeko>  (8) 
{"is_sidechain": [false], "free_energy": -6.502, "intermolecular_energy": -6.677, "internal_energy": -1.167}

$$$$
GEN_QRDMPGSIPKNLPR__M_PUB_ALL__e8__s20260927
     RDKit          3D

 37 39  0  0  0  0  0  0  0  0999 V2000
    0.6030  -14.5620    2.3020 O   0  0  0  0  0  0  0  0  0  0  0  0
    0.4760  -14.9040    0.9050 S   0  0  0  0  0  0  0  0  0  0  0  0
    1.0550  -16.1040    0.3520 O   0  0  0  0  0  0  0  0  0  0  0  0
    0.9820  -13.5400   -0.0340 C   0  0  0  0  0  0  0  0  0  0  0  0
    1.0010  -12.3030    0.4860 C   0  0  0  0  0  0  0  0  0  0  0  0
    1.3050  -11.1910   -0.3920 C   0  0  0  0  0  0  0  0  0  0  0  0
    1.7930  -11.3420   -1.6330 C   0  0  0  0  0  0  0  0  0  0  0  0
    2.1360  -12.6580   -2.0910 N   0  0  0  0  0  0  0  0  0  0  0  0
    1.3020  -13.7690   -1.4740 C   0  0  0  0  0  0  0  0  0  0  0  0
   -1.1840  -15.2070    0.6420 N   0  0  0  0  0  0  0  0  0  0  0  0
   -1.7520  -16.1350    1.5780 C   0  0  0  0  0  0  0  0  0  0  0  0
   -2.4870  -15.6400    2.5840 C   0  0  0  0  0  0  0  0  0  0  0  0
   -2.6410  -14.2150    2.7360 C   0  0  0  0  0  0  0  0  0  0  0  0
   -2.3290  -13.4250    1.6960 C   0  0  0  0  0  0  0  0  0  0  0  0
   -2.3310  -11.9500    1.7270 C   0  0  0  0  0  0  0  0  0  0  0  0
   -2.7100  -11.2140    0.5920 C   0  0  0  0  0  0  0  0  0  0  0  0
   -2.6340   -9.8180    0.5850 C   0  0  0  0  0  0  0  0  0  0  0  0
   -2.1750   -9.1370    1.7090 C   0  0  0  0  0  0  0  0  0  0  0  0
   -1.7980   -9.8490    2.8440 C   0  0  0  0  0  0  0  0  0  0  0  0
   -1.8720  -11.2450    2.8530 C   0  0  0  0  0  0  0  0  0  0  0  0
   -1.9410  -13.9810    0.4720 O   0  0  0  0  0  0  0  0  0  0  0  0
    0.7909  -12.1372    1.5529 H   0  0  0  0  0  0  0  0  0  0  0  0
    1.1266  -10.1705   -0.0222 H   0  0  0  0  0  0  0  0  0  0  0  0
    1.9281  -10.4698   -2.2895 H   0  0  0  0  0  0  0  0  0  0  0  0
    2.0510  -12.7140   -3.1190 H   0  0  0  0  0  0  0  0  0  0  0  0
    3.1390  -12.8320   -1.9070 H   0  0  0  0  0  0  0  0  0  0  0  0
    0.3578  -13.8476   -2.0328 H   0  0  0  0  0  0  0  0  0  0  0  0
    1.8973  -14.6922   -1.5316 H   0  0  0  0  0  0  0  0  0  0  0  0
   -1.1250  -15.6750   -0.2710 H   0  0  0  0  0  0  0  0  0  0  0  0
   -1.5894  -17.2179    1.4733 H   0  0  0  0  0  0  0  0  0  0  0  0
   -2.9739  -16.3233    3.2954 H   0  0  0  0  0  0  0  0  0  0  0  0
   -3.0052  -13.7852    3.6808 H   0  0  0  0  0  0  0  0  0  0  0  0
   -3.0711  -11.7427   -0.3025 H   0  0  0  0  0  0  0  0  0  0  0  0
   -2.9376   -9.2564   -0.3108 H   0  0  0  0  0  0  0  0  0  0  0  0
   -2.1104   -8.0389    1.7002 H   0  0  0  0  0  0  0  0  0  0  0  0
   -1.4412   -9.3123    3.7355 H   0  0  0  0  0  0  0  0  0  0  0  0
   -1.5670  -11.7989    3.7531 H   0  0  0  0  0  0  0  0  0  0  0  0
  1  2  2  0
  2  3  2  0
  2  4  1  0
  4  5  2  0
  5  6  1  0
  6  7  2  0
  7  8  1  0
  8  9  1  0
  2 10  1  0
 10 11  1  0
 11 12  2  0
 12 13  1  0
 13 14  2  0
 14 15  1  0
 15 16  2  0
 16 17  1  0
 17 18  2  0
 18 19  1  0
 19 20  2  0
 14 21  1  0
  9  4  1  0
 21 10  1  0
 20 15  1  0
  5 22  1  0
  6 23  1  0
  7 24  1  0
  8 25  1  0
  8 26  1  0
  9 27  1  0
  9 28  1  0
 10 29  1  0
 11 30  1  0
 12 31  1  0
 13 32  1  0
 16 33  1  0
 17 34  1  0
 18 35  1  0
 19 36  1  0
 20 37  1  0
M  CHG  2   8   1  10   1
M  END
>  <meeko>  (9) 
{"is_sidechain": [false], "free_energy": -6.302, "intermolecular_energy": -6.666, "internal_energy": -0.944}

$$$$
