GEN_VKHGWFHYWMHWQH__M_PUB_ALL__e8__s20260927
     RDKit          3D

 35 36  0  0  0  0  0  0  0  0999 V2000
   19.0710   -3.6130   12.6430 C   0  0  0  0  0  0  0  0  0  0  0  0
   17.8830   -2.9160   13.2490 C   0  0  0  0  0  0  0  0  0  0  0  0
   18.1040   -1.7150   13.9480 C   0  0  0  0  0  0  0  0  0  0  0  0
   17.0460   -1.0220   14.5330 C   0  0  0  0  0  0  0  0  0  0  0  0
   15.7550   -1.5210   14.4240 C   0  0  0  0  0  0  0  0  0  0  0  0
   15.5190   -2.7120   13.7320 C   0  0  0  0  0  0  0  0  0  0  0  0
   16.5680   -3.4250   13.1400 C   0  0  0  0  0  0  0  0  0  0  0  0
   16.3640   -4.6310   12.4300 N   0  0  0  0  0  0  0  0  0  0  0  0
   15.8820   -5.8440   12.9040 C   0  0  0  0  0  0  0  0  0  0  0  0
   15.5770   -6.0810   14.0650 O   0  0  0  0  0  0  0  0  0  0  0  0
   15.7920   -6.7560   11.8640 N   0  0  0  0  0  0  0  0  0  0  0  0
   15.4240   -8.1220   11.8980 C   0  0  0  0  0  0  0  0  0  0  0  0
   14.1830   -8.5740   11.4350 C   0  0  0  0  0  0  0  0  0  0  0  0
   13.8350   -9.9260   11.5130 C   0  0  0  0  0  0  0  0  0  0  0  0
   14.7210  -10.8470   12.0620 C   0  0  0  0  0  0  0  0  0  0  0  0
   15.9650  -10.4230   12.5250 C   0  0  0  0  0  0  0  0  0  0  0  0
   16.3350   -9.0690   12.4330 C   0  0  0  0  0  0  0  0  0  0  0  0
   17.6850   -8.6290   12.9080 C   0  0  0  0  0  0  0  0  0  0  0  0
   17.8920   -8.5070   14.2540 N   0  0  0  0  0  0  0  0  0  0  0  0
   18.6080   -8.4200   12.1250 O   0  0  0  0  0  0  0  0  0  0  0  0
   19.7207   -3.9942   13.4446 H   0  0  0  0  0  0  0  0  0  0  0  0
   18.7259   -4.4518   12.0207 H   0  0  0  0  0  0  0  0  0  0  0  0
   19.6349   -2.9025   12.0207 H   0  0  0  0  0  0  0  0  0  0  0  0
   19.1261   -1.3176   14.0339 H   0  0  0  0  0  0  0  0  0  0  0  0
   17.2326   -0.0849   15.0780 H   0  0  0  0  0  0  0  0  0  0  0  0
   14.9160   -0.9777   14.8833 H   0  0  0  0  0  0  0  0  0  0  0  0
   14.4913   -3.0957   13.6512 H   0  0  0  0  0  0  0  0  0  0  0  0
   16.6230   -4.6240   11.4560 H   0  0  0  0  0  0  0  0  0  0  0  0
   16.0150   -6.4080   10.9340 H   0  0  0  0  0  0  0  0  0  0  0  0
   13.4710   -7.8551   11.0034 H   0  0  0  0  0  0  0  0  0  0  0  0
   12.8569  -10.2625   11.1388 H   0  0  0  0  0  0  0  0  0  0  0  0
   14.4401  -11.9083   12.1306 H   0  0  0  0  0  0  0  0  0  0  0  0
   16.6619  -11.1515   12.9651 H   0  0  0  0  0  0  0  0  0  0  0  0
   17.2220   -8.7660   14.9630 H   0  0  0  0  0  0  0  0  0  0  0  0
   18.8130   -8.2200   14.5580 H   0  0  0  0  0  0  0  0  0  0  0  0
  1  2  1  0
  2  3  2  0
  3  4  1  0
  4  5  2  0
  5  6  1  0
  6  7  2  0
  7  8  1  0
  8  9  1  0
  9 10  2  0
  9 11  1  0
 11 12  1  0
 12 13  2  0
 13 14  1  0
 14 15  2  0
 15 16  1  0
 16 17  2  0
 17 18  1  0
 18 19  1  0
 18 20  2  0
  7  2  1  0
 17 12  1  0
  1 21  1  0
  1 22  1  0
  1 23  1  0
  3 24  1  0
  4 25  1  0
  5 26  1  0
  6 27  1  0
  8 28  1  0
 11 29  1  0
 13 30  1  0
 14 31  1  0
 15 32  1  0
 16 33  1  0
 19 34  1  0
 19 35  1  0
M  END
>  <meeko>  (1) 
{"is_sidechain": [false], "free_energy": -6.935, "intermolecular_energy": -8.151, "internal_energy": -0.662}

$$$$
GEN_VKHGWFHYWMHWQH__M_PUB_ALL__e8__s20260927
     RDKit          3D

 35 36  0  0  0  0  0  0  0  0999 V2000
    7.3420  -10.0580    0.9740 C   0  0  0  0  0  0  0  0  0  0  0  0
    6.7590  -11.4350    1.1490 C   0  0  0  0  0  0  0  0  0  0  0  0
    5.4010  -11.5400    1.5030 C   0  0  0  0  0  0  0  0  0  0  0  0
    4.8020  -12.7860    1.6810 C   0  0  0  0  0  0  0  0  0  0  0  0
    5.5550  -13.9400    1.5070 C   0  0  0  0  0  0  0  0  0  0  0  0
    6.9050  -13.8520    1.1560 C   0  0  0  0  0  0  0  0  0  0  0  0
    7.5260  -12.6110    0.9750 C   0  0  0  0  0  0  0  0  0  0  0  0
    8.8880  -12.4850    0.6170 N   0  0  0  0  0  0  0  0  0  0  0  0
    9.4480  -12.4080   -0.6520 C   0  0  0  0  0  0  0  0  0  0  0  0
    8.8280  -12.4760   -1.7050 O   0  0  0  0  0  0  0  0  0  0  0  0
   10.8190  -12.2410   -0.5550 N   0  0  0  0  0  0  0  0  0  0  0  0
   11.7920  -12.1890   -1.5820 C   0  0  0  0  0  0  0  0  0  0  0  0
   11.6470  -12.8900   -2.7850 C   0  0  0  0  0  0  0  0  0  0  0  0
   12.6420  -12.8470   -3.7660 C   0  0  0  0  0  0  0  0  0  0  0  0
   13.8010  -12.1070   -3.5580 C   0  0  0  0  0  0  0  0  0  0  0  0
   13.9660  -11.3960   -2.3710 C   0  0  0  0  0  0  0  0  0  0  0  0
   12.9640  -11.4140   -1.3840 C   0  0  0  0  0  0  0  0  0  0  0  0
   13.1400  -10.6250   -0.1240 C   0  0  0  0  0  0  0  0  0  0  0  0
   14.3980  -10.5070    0.3980 N   0  0  0  0  0  0  0  0  0  0  0  0
   12.1970  -10.0540    0.4160 O   0  0  0  0  0  0  0  0  0  0  0  0
    7.5310   -9.6116    1.9614 H   0  0  0  0  0  0  0  0  0  0  0  0
    8.2876  -10.1283    0.4163 H   0  0  0  0  0  0  0  0  0  0  0  0
    6.6334   -9.4280    0.4163 H   0  0  0  0  0  0  0  0  0  0  0  0
    4.8041  -10.6264    1.6411 H   0  0  0  0  0  0  0  0  0  0  0  0
    3.7396  -12.8549    1.9575 H   0  0  0  0  0  0  0  0  0  0  0  0
    5.0876  -14.9260    1.6458 H   0  0  0  0  0  0  0  0  0  0  0  0
    7.4894  -14.7739    1.0197 H   0  0  0  0  0  0  0  0  0  0  0  0
    9.5490  -12.4720    1.3780 H   0  0  0  0  0  0  0  0  0  0  0  0
   11.1990  -12.1340    0.3840 H   0  0  0  0  0  0  0  0  0  0  0  0
   10.7374  -13.4830   -2.9608 H   0  0  0  0  0  0  0  0  0  0  0  0
   12.5076  -13.4010   -4.7068 H   0  0  0  0  0  0  0  0  0  0  0  0
   14.5856  -12.0830   -4.3286 H   0  0  0  0  0  0  0  0  0  0  0  0
   14.8862  -10.8167   -2.2047 H   0  0  0  0  0  0  0  0  0  0  0  0
   15.2370  -10.8510   -0.0450 H   0  0  0  0  0  0  0  0  0  0  0  0
   14.5010   -9.9610    1.2430 H   0  0  0  0  0  0  0  0  0  0  0  0
  1  2  1  0
  2  3  2  0
  3  4  1  0
  4  5  2  0
  5  6  1  0
  6  7  2  0
  7  8  1  0
  8  9  1  0
  9 10  2  0
  9 11  1  0
 11 12  1  0
 12 13  2  0
 13 14  1  0
 14 15  2  0
 15 16  1  0
 16 17  2  0
 17 18  1  0
 18 19  1  0
 18 20  2  0
  7  2  1  0
 17 12  1  0
  1 21  1  0
  1 22  1  0
  1 23  1  0
  3 24  1  0
  4 25  1  0
  5 26  1  0
  6 27  1  0
  8 28  1  0
 11 29  1  0
 13 30  1  0
 14 31  1  0
 15 32  1  0
 16 33  1  0
 19 34  1  0
 19 35  1  0
M  END
>  <meeko>  (2) 
{"is_sidechain": [false], "free_energy": -6.796, "intermolecular_energy": -8.301, "internal_energy": -0.349}

$$$$
GEN_VKHGWFHYWMHWQH__M_PUB_ALL__e8__s20260927
     RDKit          3D

 35 36  0  0  0  0  0  0  0  0999 V2000
   13.4570   -7.6830   10.9170 C   0  0  0  0  0  0  0  0  0  0  0  0
   14.4270   -8.6650   11.5180 C   0  0  0  0  0  0  0  0  0  0  0  0
   14.0460  -10.0180   11.5850 C   0  0  0  0  0  0  0  0  0  0  0  0
   14.8990  -10.9750   12.1310 C   0  0  0  0  0  0  0  0  0  0  0  0
   16.1420  -10.5900   12.6160 C   0  0  0  0  0  0  0  0  0  0  0  0
   16.5350   -9.2500   12.5570 C   0  0  0  0  0  0  0  0  0  0  0  0
   15.6920   -8.2730   12.0140 C   0  0  0  0  0  0  0  0  0  0  0  0
   16.0590   -6.9090   11.9360 N   0  0  0  0  0  0  0  0  0  0  0  0
   16.2350   -5.9980   12.9690 C   0  0  0  0  0  0  0  0  0  0  0  0
   16.0600   -6.2320   14.1580 O   0  0  0  0  0  0  0  0  0  0  0  0
   16.6440   -4.7770   12.4590 N   0  0  0  0  0  0  0  0  0  0  0  0
   16.8690   -3.5520   13.1320 C   0  0  0  0  0  0  0  0  0  0  0  0
   15.8230   -2.7900   13.6670 C   0  0  0  0  0  0  0  0  0  0  0  0
   16.0750   -1.5680   14.2980 C   0  0  0  0  0  0  0  0  0  0  0  0
   17.3740   -1.0840   14.3970 C   0  0  0  0  0  0  0  0  0  0  0  0
   18.4330   -1.8270   13.8770 C   0  0  0  0  0  0  0  0  0  0  0  0
   18.1960   -3.0690   13.2590 C   0  0  0  0  0  0  0  0  0  0  0  0
   19.3440   -3.8710   12.7290 C   0  0  0  0  0  0  0  0  0  0  0  0
   20.1710   -3.2900   11.8080 N   0  0  0  0  0  0  0  0  0  0  0  0
   19.5760   -5.0070   13.1310 O   0  0  0  0  0  0  0  0  0  0  0  0
   12.9298   -7.1493   11.7215 H   0  0  0  0  0  0  0  0  0  0  0  0
   14.0052   -6.9599   10.2952 H   0  0  0  0  0  0  0  0  0  0  0  0
   12.7272   -8.2223   10.2952 H   0  0  0  0  0  0  0  0  0  0  0  0
   13.0617  -10.3242   11.2012 H   0  0  0  0  0  0  0  0  0  0  0  0
   14.5895  -12.0295   12.1776 H   0  0  0  0  0  0  0  0  0  0  0  0
   16.8191  -11.3417   13.0478 H   0  0  0  0  0  0  0  0  0  0  0  0
   17.5227   -8.9583   12.9435 H   0  0  0  0  0  0  0  0  0  0  0  0
   16.1880   -6.5350   11.0090 H   0  0  0  0  0  0  0  0  0  0  0  0
   16.8150   -4.7370   11.4560 H   0  0  0  0  0  0  0  0  0  0  0  0
   14.7892   -3.1578   13.5898 H   0  0  0  0  0  0  0  0  0  0  0  0
   15.2409   -0.9868   14.7182 H   0  0  0  0  0  0  0  0  0  0  0  0
   17.5662   -0.1169   14.8845 H   0  0  0  0  0  0  0  0  0  0  0  0
   19.4601   -1.4400   13.9502 H   0  0  0  0  0  0  0  0  0  0  0  0
   20.1130   -2.3280   11.5120 H   0  0  0  0  0  0  0  0  0  0  0  0
   20.9480   -3.8430   11.4690 H   0  0  0  0  0  0  0  0  0  0  0  0
  1  2  1  0
  2  3  2  0
  3  4  1  0
  4  5  2  0
  5  6  1  0
  6  7  2  0
  7  8  1  0
  8  9  1  0
  9 10  2  0
  9 11  1  0
 11 12  1  0
 12 13  2  0
 13 14  1  0
 14 15  2  0
 15 16  1  0
 16 17  2  0
 17 18  1  0
 18 19  1  0
 18 20  2  0
  7  2  1  0
 17 12  1  0
  1 21  1  0
  1 22  1  0
  1 23  1  0
  3 24  1  0
  4 25  1  0
  5 26  1  0
  6 27  1  0
  8 28  1  0
 11 29  1  0
 13 30  1  0
 14 31  1  0
 15 32  1  0
 16 33  1  0
 19 34  1  0
 19 35  1  0
M  END
>  <meeko>  (3) 
{"is_sidechain": [false], "free_energy": -6.761, "intermolecular_energy": -7.854, "internal_energy": -0.755}

$$$$
GEN_VKHGWFHYWMHWQH__M_PUB_ALL__e8__s20260927
     RDKit          3D

 35 36  0  0  0  0  0  0  0  0999 V2000
   11.7490  -14.2180   -7.0810 C   0  0  0  0  0  0  0  0  0  0  0  0
   10.2730  -14.4370   -6.8800 C   0  0  0  0  0  0  0  0  0  0  0  0
    9.4740  -14.6560   -8.0180 C   0  0  0  0  0  0  0  0  0  0  0  0
    8.1010  -14.8640   -7.8980 C   0  0  0  0  0  0  0  0  0  0  0  0
    7.5120  -14.8560   -6.6410 C   0  0  0  0  0  0  0  0  0  0  0  0
    8.2930  -14.6390   -5.5010 C   0  0  0  0  0  0  0  0  0  0  0  0
    9.6720  -14.4260   -5.6000 C   0  0  0  0  0  0  0  0  0  0  0  0
   10.4920  -14.2070   -4.4680 N   0  0  0  0  0  0  0  0  0  0  0  0
   10.4430  -13.1650   -3.5520 C   0  0  0  0  0  0  0  0  0  0  0  0
    9.6740  -12.2140   -3.6000 O   0  0  0  0  0  0  0  0  0  0  0  0
   11.3960  -13.3580   -2.5640 N   0  0  0  0  0  0  0  0  0  0  0  0
   11.7480  -12.5190   -1.4800 C   0  0  0  0  0  0  0  0  0  0  0  0
   11.0510  -12.5330   -0.2660 C   0  0  0  0  0  0  0  0  0  0  0  0
   11.4020  -11.6670    0.7740 C   0  0  0  0  0  0  0  0  0  0  0  0
   12.4510  -10.7690    0.6150 C   0  0  0  0  0  0  0  0  0  0  0  0
   13.1640  -10.7390   -0.5820 C   0  0  0  0  0  0  0  0  0  0  0  0
   12.8350  -11.6190   -1.6290 C   0  0  0  0  0  0  0  0  0  0  0  0
   13.6260  -11.5980   -2.9000 C   0  0  0  0  0  0  0  0  0  0  0  0
   14.9700  -11.8390   -2.8330 N   0  0  0  0  0  0  0  0  0  0  0  0
   13.0900  -11.4130   -3.9900 O   0  0  0  0  0  0  0  0  0  0  0  0
   12.2454  -14.1443   -6.1021 H   0  0  0  0  0  0  0  0  0  0  0  0
   12.1718  -15.0632   -7.6439 H   0  0  0  0  0  0  0  0  0  0  0  0
   11.9082  -13.2864   -7.6439 H   0  0  0  0  0  0  0  0  0  0  0  0
    9.9391  -14.6631   -9.0148 H   0  0  0  0  0  0  0  0  0  0  0  0
    7.4872  -15.0337   -8.7949 H   0  0  0  0  0  0  0  0  0  0  0  0
    6.4290  -15.0206   -6.5412 H   0  0  0  0  0  0  0  0  0  0  0  0
    7.8149  -14.6358   -4.5103 H   0  0  0  0  0  0  0  0  0  0  0  0
   11.2260  -14.8790   -4.3130 H   0  0  0  0  0  0  0  0  0  0  0  0
   11.9260  -14.2260   -2.6070 H   0  0  0  0  0  0  0  0  0  0  0  0
   10.2155  -13.2351   -0.1284 H   0  0  0  0  0  0  0  0  0  0  0  0
   10.8455  -11.6964    1.7224 H   0  0  0  0  0  0  0  0  0  0  0  0
   12.7179  -10.0832    1.4326 H   0  0  0  0  0  0  0  0  0  0  0  0
   13.9892  -10.0228   -0.7089 H   0  0  0  0  0  0  0  0  0  0  0  0
   15.4630  -12.1080   -1.9950 H   0  0  0  0  0  0  0  0  0  0  0  0
   15.4860  -11.8320   -3.7030 H   0  0  0  0  0  0  0  0  0  0  0  0
  1  2  1  0
  2  3  2  0
  3  4  1  0
  4  5  2  0
  5  6  1  0
  6  7  2  0
  7  8  1  0
  8  9  1  0
  9 10  2  0
  9 11  1  0
 11 12  1  0
 12 13  2  0
 13 14  1  0
 14 15  2  0
 15 16  1  0
 16 17  2  0
 17 18  1  0
 18 19  1  0
 18 20  2  0
  7  2  1  0
 17 12  1  0
  1 21  1  0
  1 22  1  0
  1 23  1  0
  3 24  1  0
  4 25  1  0
  5 26  1  0
  6 27  1  0
  8 28  1  0
 11 29  1  0
 13 30  1  0
 14 31  1  0
 15 32  1  0
 16 33  1  0
 19 34  1  0
 19 35  1  0
M  END
>  <meeko>  (4) 
{"is_sidechain": [false], "free_energy": -6.57, "intermolecular_energy": -7.768, "internal_energy": -0.616}

$$$$
GEN_VKHGWFHYWMHWQH__M_PUB_ALL__e8__s20260927
     RDKit          3D

 35 36  0  0  0  0  0  0  0  0999 V2000
   10.7730  -10.4530   13.9850 C   0  0  0  0  0  0  0  0  0  0  0  0
   11.2130  -11.7130   13.2880 C   0  0  0  0  0  0  0  0  0  0  0  0
   10.2580  -12.7250   13.0800 C   0  0  0  0  0  0  0  0  0  0  0  0
   10.6030  -13.9150   12.4410 C   0  0  0  0  0  0  0  0  0  0  0  0
   11.9070  -14.1050   12.0030 C   0  0  0  0  0  0  0  0  0  0  0  0
   12.8670  -13.1090   12.2020 C   0  0  0  0  0  0  0  0  0  0  0  0
   12.5420  -11.9080   12.8430 C   0  0  0  0  0  0  0  0  0  0  0  0
   13.4870  -10.8790   13.0570 N   0  0  0  0  0  0  0  0  0  0  0  0
   14.0670  -10.0270   12.1270 C   0  0  0  0  0  0  0  0  0  0  0  0
   13.8710  -10.0560   10.9200 O   0  0  0  0  0  0  0  0  0  0  0  0
   14.9060   -9.1290   12.7660 N   0  0  0  0  0  0  0  0  0  0  0  0
   15.7510   -8.1380   12.2110 C   0  0  0  0  0  0  0  0  0  0  0  0
   15.2480   -6.9980   11.5730 C   0  0  0  0  0  0  0  0  0  0  0  0
   16.1080   -6.0530   11.0050 C   0  0  0  0  0  0  0  0  0  0  0  0
   17.4850   -6.2370   11.0580 C   0  0  0  0  0  0  0  0  0  0  0  0
   18.0110   -7.3620   11.6920 C   0  0  0  0  0  0  0  0  0  0  0  0
   17.1570   -8.3090   12.2870 C   0  0  0  0  0  0  0  0  0  0  0  0
   17.7340   -9.4980   12.9900 C   0  0  0  0  0  0  0  0  0  0  0  0
   18.4870   -9.2870   14.1120 N   0  0  0  0  0  0  0  0  0  0  0  0
   17.5120  -10.6440   12.6070 O   0  0  0  0  0  0  0  0  0  0  0  0
   10.8241  -10.5994   15.0740 H   0  0  0  0  0  0  0  0  0  0  0  0
   11.4346   -9.6234   13.6951 H   0  0  0  0  0  0  0  0  0  0  0  0
    9.7388  -10.2156   13.6951 H   0  0  0  0  0  0  0  0  0  0  0  0
    9.2248  -12.5752   13.4264 H   0  0  0  0  0  0  0  0  0  0  0  0
    9.8470  -14.6986   12.2847 H   0  0  0  0  0  0  0  0  0  0  0  0
   12.1851  -15.0419   11.4981 H   0  0  0  0  0  0  0  0  0  0  0  0
   13.8959  -13.2718   11.8487 H   0  0  0  0  0  0  0  0  0  0  0  0
   13.8040  -10.7560   14.0060 H   0  0  0  0  0  0  0  0  0  0  0  0
   14.9270   -9.1710   13.7840 H   0  0  0  0  0  0  0  0  0  0  0  0
   14.1603   -6.8434   11.5177 H   0  0  0  0  0  0  0  0  0  0  0  0
   15.6933   -5.1602   10.5142 H   0  0  0  0  0  0  0  0  0  0  0  0
   18.1581   -5.4967   10.6008 H   0  0  0  0  0  0  0  0  0  0  0  0
   19.1004   -7.5102   11.7273 H   0  0  0  0  0  0  0  0  0  0  0  0
   18.6220   -8.3890   14.5510 H   0  0  0  0  0  0  0  0  0  0  0  0
   18.8590  -10.1030   14.5800 H   0  0  0  0  0  0  0  0  0  0  0  0
  1  2  1  0
  2  3  2  0
  3  4  1  0
  4  5  2  0
  5  6  1  0
  6  7  2  0
  7  8  1  0
  8  9  1  0
  9 10  2  0
  9 11  1  0
 11 12  1  0
 12 13  2  0
 13 14  1  0
 14 15  2  0
 15 16  1  0
 16 17  2  0
 17 18  1  0
 18 19  1  0
 18 20  2  0
  7  2  1  0
 17 12  1  0
  1 21  1  0
  1 22  1  0
  1 23  1  0
  3 24  1  0
  4 25  1  0
  5 26  1  0
  6 27  1  0
  8 28  1  0
 11 29  1  0
 13 30  1  0
 14 31  1  0
 15 32  1  0
 16 33  1  0
 19 34  1  0
 19 35  1  0
M  END
>  <meeko>  (5) 
{"is_sidechain": [false], "free_energy": -6.569, "intermolecular_energy": -7.637, "internal_energy": -0.747}

$$$$
GEN_VKHGWFHYWMHWQH__M_PUB_ALL__e8__s20260927
     RDKit          3D

 35 36  0  0  0  0  0  0  0  0999 V2000
   17.6460   -9.7750   13.1120 C   0  0  0  0  0  0  0  0  0  0  0  0
   17.4320   -8.5340   12.2880 C   0  0  0  0  0  0  0  0  0  0  0  0
   18.5220   -8.0260   11.5580 C   0  0  0  0  0  0  0  0  0  0  0  0
   18.3880   -6.8800   10.7760 C   0  0  0  0  0  0  0  0  0  0  0  0
   17.1620   -6.2300   10.7150 C   0  0  0  0  0  0  0  0  0  0  0  0
   16.0690   -6.7230   11.4340 C   0  0  0  0  0  0  0  0  0  0  0  0
   16.1840   -7.8710   12.2270 C   0  0  0  0  0  0  0  0  0  0  0  0
   15.0990   -8.3980   12.9650 N   0  0  0  0  0  0  0  0  0  0  0  0
   14.0470   -9.1870   12.5170 C   0  0  0  0  0  0  0  0  0  0  0  0
   13.8670   -9.5350   11.3570 O   0  0  0  0  0  0  0  0  0  0  0  0
   13.2260   -9.5280   13.5780 N   0  0  0  0  0  0  0  0  0  0  0  0
   12.0080  -10.2510   13.5750 C   0  0  0  0  0  0  0  0  0  0  0  0
   11.9600  -11.6330   13.3570 C   0  0  0  0  0  0  0  0  0  0  0  0
   10.7390  -12.3130   13.3270 C   0  0  0  0  0  0  0  0  0  0  0  0
    9.5460  -11.6220   13.5060 C   0  0  0  0  0  0  0  0  0  0  0  0
    9.5690  -10.2470   13.7300 C   0  0  0  0  0  0  0  0  0  0  0  0
   10.7910   -9.5530   13.7850 C   0  0  0  0  0  0  0  0  0  0  0  0
   10.8040   -8.0800   14.0540 C   0  0  0  0  0  0  0  0  0  0  0  0
    9.8360   -7.3070   13.4760 N   0  0  0  0  0  0  0  0  0  0  0  0
   11.6300   -7.5690   14.8050 O   0  0  0  0  0  0  0  0  0  0  0  0
   17.6016   -9.5178   14.1806 H   0  0  0  0  0  0  0  0  0  0  0  0
   16.8613  -10.5098   12.8789 H   0  0  0  0  0  0  0  0  0  0  0  0
   18.6315  -10.2045   12.8789 H   0  0  0  0  0  0  0  0  0  0  0  0
   19.4933   -8.5402   11.6050 H   0  0  0  0  0  0  0  0  0  0  0  0
   19.2482   -6.4926   10.2104 H   0  0  0  0  0  0  0  0  0  0  0  0
   17.0508   -5.3251   10.0995 H   0  0  0  0  0  0  0  0  0  0  0  0
   15.1029   -6.2003   11.3757 H   0  0  0  0  0  0  0  0  0  0  0  0
   15.0650   -8.1540   13.9420 H   0  0  0  0  0  0  0  0  0  0  0  0
   13.5280   -9.2260   14.5030 H   0  0  0  0  0  0  0  0  0  0  0  0
   12.8958  -12.1914   13.2073 H   0  0  0  0  0  0  0  0  0  0  0  0
   10.7221  -13.4003   13.1609 H   0  0  0  0  0  0  0  0  0  0  0  0
    8.5867  -12.1592   13.4709 H   0  0  0  0  0  0  0  0  0  0  0  0
    8.6242   -9.7001   13.8649 H   0  0  0  0  0  0  0  0  0  0  0  0
    9.0610   -7.6640   12.9390 H   0  0  0  0  0  0  0  0  0  0  0  0
    9.8530   -6.3150   13.6780 H   0  0  0  0  0  0  0  0  0  0  0  0
  1  2  1  0
  2  3  2  0
  3  4  1  0
  4  5  2  0
  5  6  1  0
  6  7  2  0
  7  8  1  0
  8  9  1  0
  9 10  2  0
  9 11  1  0
 11 12  1  0
 12 13  2  0
 13 14  1  0
 14 15  2  0
 15 16  1  0
 16 17  2  0
 17 18  1  0
 18 19  1  0
 18 20  2  0
  7  2  1  0
 17 12  1  0
  1 21  1  0
  1 22  1  0
  1 23  1  0
  3 24  1  0
  4 25  1  0
  5 26  1  0
  6 27  1  0
  8 28  1  0
 11 29  1  0
 13 30  1  0
 14 31  1  0
 15 32  1  0
 16 33  1  0
 19 34  1  0
 19 35  1  0
M  END
>  <meeko>  (6) 
{"is_sidechain": [false], "free_energy": -6.566, "intermolecular_energy": -7.643, "internal_energy": -0.737}

$$$$
GEN_VKHGWFHYWMHWQH__M_PUB_ALL__e8__s20260927
     RDKit          3D

 35 36  0  0  0  0  0  0  0  0999 V2000
   -8.3910  -19.7480   10.2330 C   0  0  0  0  0  0  0  0  0  0  0  0
   -8.9890  -19.6260    8.8570 C   0  0  0  0  0  0  0  0  0  0  0  0
   -8.8480  -18.4010    8.1780 C   0  0  0  0  0  0  0  0  0  0  0  0
   -9.3800  -18.2250    6.9020 C   0  0  0  0  0  0  0  0  0  0  0  0
  -10.0570  -19.2710    6.2900 C   0  0  0  0  0  0  0  0  0  0  0  0
  -10.2060  -20.4940    6.9510 C   0  0  0  0  0  0  0  0  0  0  0  0
   -9.6810  -20.6910    8.2340 C   0  0  0  0  0  0  0  0  0  0  0  0
   -9.8100  -21.9150    8.9300 N   0  0  0  0  0  0  0  0  0  0  0  0
  -10.9120  -22.4130    9.6120 C   0  0  0  0  0  0  0  0  0  0  0  0
  -11.9800  -21.8310    9.7540 O   0  0  0  0  0  0  0  0  0  0  0  0
  -10.6310  -23.6740   10.1110 N   0  0  0  0  0  0  0  0  0  0  0  0
  -11.4260  -24.5160   10.9240 C   0  0  0  0  0  0  0  0  0  0  0  0
  -11.2320  -24.6210   12.3070 C   0  0  0  0  0  0  0  0  0  0  0  0
  -12.0130  -25.4870   13.0780 C   0  0  0  0  0  0  0  0  0  0  0  0
  -12.9950  -26.2680   12.4790 C   0  0  0  0  0  0  0  0  0  0  0  0
  -13.2100  -26.1780   11.1050 C   0  0  0  0  0  0  0  0  0  0  0  0
  -12.4470  -25.2940   10.3200 C   0  0  0  0  0  0  0  0  0  0  0  0
  -12.7070  -25.1850    8.8500 C   0  0  0  0  0  0  0  0  0  0  0  0
  -13.7270  -24.3790    8.4290 N   0  0  0  0  0  0  0  0  0  0  0  0
  -12.0040  -25.7640    8.0270 O   0  0  0  0  0  0  0  0  0  0  0  0
   -9.1742  -19.5882   10.9887 H   0  0  0  0  0  0  0  0  0  0  0  0
   -7.9604  -20.7525   10.3579 H   0  0  0  0  0  0  0  0  0  0  0  0
   -7.6014  -18.9925   10.3579 H   0  0  0  0  0  0  0  0  0  0  0  0
   -8.3107  -17.5716    8.6610 H   0  0  0  0  0  0  0  0  0  0  0  0
   -9.2641  -17.2623    6.3826 H   0  0  0  0  0  0  0  0  0  0  0  0
  -10.4774  -19.1373    5.2823 H   0  0  0  0  0  0  0  0  0  0  0  0
  -10.7445  -21.3149    6.4549 H   0  0  0  0  0  0  0  0  0  0  0  0
   -8.9890  -22.4990    8.9590 H   0  0  0  0  0  0  0  0  0  0  0  0
   -9.7260  -24.0690    9.8630 H   0  0  0  0  0  0  0  0  0  0  0  0
  -10.4544  -24.0137   12.7933 H   0  0  0  0  0  0  0  0  0  0  0  0
  -11.8498  -25.5508   14.1640 H   0  0  0  0  0  0  0  0  0  0  0  0
  -13.6007  -26.9552   13.0880 H   0  0  0  0  0  0  0  0  0  0  0  0
  -13.9816  -26.8024   10.6309 H   0  0  0  0  0  0  0  0  0  0  0  0
  -14.2770  -23.7860    9.0340 H   0  0  0  0  0  0  0  0  0  0  0  0
  -13.8820  -24.3080    7.4320 H   0  0  0  0  0  0  0  0  0  0  0  0
  1  2  1  0
  2  3  2  0
  3  4  1  0
  4  5  2  0
  5  6  1  0
  6  7  2  0
  7  8  1  0
  8  9  1  0
  9 10  2  0
  9 11  1  0
 11 12  1  0
 12 13  2  0
 13 14  1  0
 14 15  2  0
 15 16  1  0
 16 17  2  0
 17 18  1  0
 18 19  1  0
 18 20  2  0
  7  2  1  0
 17 12  1  0
  1 21  1  0
  1 22  1  0
  1 23  1  0
  3 24  1  0
  4 25  1  0
  5 26  1  0
  6 27  1  0
  8 28  1  0
 11 29  1  0
 13 30  1  0
 14 31  1  0
 15 32  1  0
 16 33  1  0
 19 34  1  0
 19 35  1  0
M  END
>  <meeko>  (7) 
{"is_sidechain": [false], "free_energy": -6.536, "intermolecular_energy": -7.558, "internal_energy": -0.787}

$$$$
GEN_VKHGWFHYWMHWQH__M_PUB_ALL__e8__s20260927
     RDKit          3D

 35 36  0  0  0  0  0  0  0  0999 V2000
   13.4550   -9.2030   12.3520 C   0  0  0  0  0  0  0  0  0  0  0  0
   13.2480  -10.6940   12.3960 C   0  0  0  0  0  0  0  0  0  0  0  0
   14.1850  -11.5130   11.7390 C   0  0  0  0  0  0  0  0  0  0  0  0
   14.0500  -12.9000   11.7420 C   0  0  0  0  0  0  0  0  0  0  0  0
   12.9760  -13.4830   12.4030 C   0  0  0  0  0  0  0  0  0  0  0  0
   12.0370  -12.6830   13.0610 C   0  0  0  0  0  0  0  0  0  0  0  0
   12.1540  -11.2880   13.0670 C   0  0  0  0  0  0  0  0  0  0  0  0
   11.2250  -10.4490   13.7240 N   0  0  0  0  0  0  0  0  0  0  0  0
    9.8380  -10.4660   13.6500 C   0  0  0  0  0  0  0  0  0  0  0  0
    9.1750  -11.2180   12.9490 O   0  0  0  0  0  0  0  0  0  0  0  0
    9.3080   -9.5030   14.4930 N   0  0  0  0  0  0  0  0  0  0  0  0
    7.9580   -9.1200   14.6810 C   0  0  0  0  0  0  0  0  0  0  0  0
    7.0360   -9.9340   15.3510 C   0  0  0  0  0  0  0  0  0  0  0  0
    5.7010   -9.5430   15.4910 C   0  0  0  0  0  0  0  0  0  0  0  0
    5.2640   -8.3360   14.9580 C   0  0  0  0  0  0  0  0  0  0  0  0
    6.1640   -7.5060   14.2920 C   0  0  0  0  0  0  0  0  0  0  0  0
    7.5150   -7.8770   14.1620 C   0  0  0  0  0  0  0  0  0  0  0  0
    8.4780   -6.9640   13.4690 C   0  0  0  0  0  0  0  0  0  0  0  0
    8.1790   -6.5470   12.2010 N   0  0  0  0  0  0  0  0  0  0  0  0
    9.4930   -6.5560   14.0250 O   0  0  0  0  0  0  0  0  0  0  0  0
   13.5096   -8.8100   13.3779 H   0  0  0  0  0  0  0  0  0  0  0  0
   14.3929   -8.9785   11.8230 H   0  0  0  0  0  0  0  0  0  0  0  0
   12.6137   -8.7315   11.8230 H   0  0  0  0  0  0  0  0  0  0  0  0
   15.0357  -11.0520   11.2158 H   0  0  0  0  0  0  0  0  0  0  0  0
   14.7890  -13.5292   11.2244 H   0  0  0  0  0  0  0  0  0  0  0  0
   12.8641  -14.5773   12.4087 H   0  0  0  0  0  0  0  0  0  0  0  0
   11.1926  -13.1574   13.5824 H   0  0  0  0  0  0  0  0  0  0  0  0
   11.6130   -9.7240   14.3070 H   0  0  0  0  0  0  0  0  0  0  0  0
    9.9700   -8.9890   15.0710 H   0  0  0  0  0  0  0  0  0  0  0  0
    7.3669  -10.8944   15.7730 H   0  0  0  0  0  0  0  0  0  0  0  0
    4.9932  -10.1936   16.0255 H   0  0  0  0  0  0  0  0  0  0  0  0
    4.2106   -8.0366   15.0616 H   0  0  0  0  0  0  0  0  0  0  0  0
    5.8156   -6.5540   13.8649 H   0  0  0  0  0  0  0  0  0  0  0  0
    7.3150   -6.7480   11.7200 H   0  0  0  0  0  0  0  0  0  0  0  0
    8.8360   -5.9220   11.7520 H   0  0  0  0  0  0  0  0  0  0  0  0
  1  2  1  0
  2  3  2  0
  3  4  1  0
  4  5  2  0
  5  6  1  0
  6  7  2  0
  7  8  1  0
  8  9  1  0
  9 10  2  0
  9 11  1  0
 11 12  1  0
 12 13  2  0
 13 14  1  0
 14 15  2  0
 15 16  1  0
 16 17  2  0
 17 18  1  0
 18 19  1  0
 18 20  2  0
  7  2  1  0
 17 12  1  0
  1 21  1  0
  1 22  1  0
  1 23  1  0
  3 24  1  0
  4 25  1  0
  5 26  1  0
  6 27  1  0
  8 28  1  0
 11 29  1  0
 13 30  1  0
 14 31  1  0
 15 32  1  0
 16 33  1  0
 19 34  1  0
 19 35  1  0
M  END
>  <meeko>  (8) 
{"is_sidechain": [false], "free_energy": -6.51, "intermolecular_energy": -7.715, "internal_energy": -0.599}

$$$$
GEN_VKHGWFHYWMHWQH__M_PUB_ALL__e8__s20260927
     RDKit          3D

 35 36  0  0  0  0  0  0  0  0999 V2000
    5.8510  -15.2930   -1.5790 C   0  0  0  0  0  0  0  0  0  0  0  0
    5.6640  -14.7030   -0.2070 C   0  0  0  0  0  0  0  0  0  0  0  0
    4.3600  -14.6530    0.3210 C   0  0  0  0  0  0  0  0  0  0  0  0
    4.1200  -14.1170    1.5850 C   0  0  0  0  0  0  0  0  0  0  0  0
    5.1810  -13.6270    2.3350 C   0  0  0  0  0  0  0  0  0  0  0  0
    6.4820  -13.6700    1.8250 C   0  0  0  0  0  0  0  0  0  0  0  0
    6.7430  -14.2010    0.5570 C   0  0  0  0  0  0  0  0  0  0  0  0
    8.0460  -14.2620    0.0110 N   0  0  0  0  0  0  0  0  0  0  0  0
    8.7800  -13.2520   -0.5980 C   0  0  0  0  0  0  0  0  0  0  0  0
    8.3850  -12.1110   -0.7970 O   0  0  0  0  0  0  0  0  0  0  0  0
   10.0350  -13.7240   -0.9470 N   0  0  0  0  0  0  0  0  0  0  0  0
   11.0760  -13.0690   -1.6480 C   0  0  0  0  0  0  0  0  0  0  0  0
   11.2920  -13.2630   -3.0180 C   0  0  0  0  0  0  0  0  0  0  0  0
   12.3500  -12.6290   -3.6750 C   0  0  0  0  0  0  0  0  0  0  0  0
   13.2140  -11.7960   -2.9730 C   0  0  0  0  0  0  0  0  0  0  0  0
   13.0170  -11.5830   -1.6100 C   0  0  0  0  0  0  0  0  0  0  0  0
   11.9430  -12.1980   -0.9400 C   0  0  0  0  0  0  0  0  0  0  0  0
   11.7240  -11.9400    0.5180 C   0  0  0  0  0  0  0  0  0  0  0  0
   11.4800  -10.6560    0.9200 N   0  0  0  0  0  0  0  0  0  0  0  0
   11.7180  -12.8510    1.3410 O   0  0  0  0  0  0  0  0  0  0  0  0
    6.1822  -16.3379   -1.4868 H   0  0  0  0  0  0  0  0  0  0  0  0
    4.8976  -15.2575   -2.1265 H   0  0  0  0  0  0  0  0  0  0  0  0
    6.6099  -14.7148   -2.1265 H   0  0  0  0  0  0  0  0  0  0  0  0
    3.5192  -15.0422   -0.2720 H   0  0  0  0  0  0  0  0  0  0  0  0
    3.0963  -14.0823    1.9861 H   0  0  0  0  0  0  0  0  0  0  0  0
    4.9972  -13.2037    3.3335 H   0  0  0  0  0  0  0  0  0  0  0  0
    7.3137  -13.2802    2.4302 H   0  0  0  0  0  0  0  0  0  0  0  0
    8.5010  -15.1620    0.0430 H   0  0  0  0  0  0  0  0  0  0  0  0
   10.2590  -14.6750   -0.6630 H   0  0  0  0  0  0  0  0  0  0  0  0
   10.6195  -13.9236   -3.5849 H   0  0  0  0  0  0  0  0  0  0  0  0
   12.5000  -12.7898   -4.7528 H   0  0  0  0  0  0  0  0  0  0  0  0
   14.0510  -11.3063   -3.4922 H   0  0  0  0  0  0  0  0  0  0  0  0
   13.7056  -10.9298   -1.0540 H   0  0  0  0  0  0  0  0  0  0  0  0
   11.3590   -9.8720    0.2960 H   0  0  0  0  0  0  0  0  0  0  0  0
   11.3230  -10.5010    1.9080 H   0  0  0  0  0  0  0  0  0  0  0  0
  1  2  1  0
  2  3  2  0
  3  4  1  0
  4  5  2  0
  5  6  1  0
  6  7  2  0
  7  8  1  0
  8  9  1  0
  9 10  2  0
  9 11  1  0
 11 12  1  0
 12 13  2  0
 13 14  1  0
 14 15  2  0
 15 16  1  0
 16 17  2  0
 17 18  1  0
 18 19  1  0
 18 20  2  0
  7  2  1  0
 17 12  1  0
  1 21  1  0
  1 22  1  0
  1 23  1  0
  3 24  1  0
  4 25  1  0
  5 26  1  0
  6 27  1  0
  8 28  1  0
 11 29  1  0
 13 30  1  0
 14 31  1  0
 15 32  1  0
 16 33  1  0
 19 34  1  0
 19 35  1  0
M  END
>  <meeko>  (9) 
{"is_sidechain": [false], "free_energy": -6.377, "intermolecular_energy": -7.419, "internal_energy": -0.738}

$$$$
