GEN_MXEVTEPPWHDMMK__M_PUB_ALL__e8__s20260927
     RDKit          3D

 43 45  0  0  0  0  0  0  0  0999 V2000
   -1.2460  -19.7490    5.4830 C   0  0  0  0  0  0  0  0  0  0  0  0
   -1.5420  -18.6340    4.6570 O   0  0  0  0  0  0  0  0  0  0  0  0
   -1.3810  -17.3640    5.1850 C   0  0  0  0  0  0  0  0  0  0  0  0
   -0.3340  -16.9740    5.9450 C   0  0  0  0  0  0  0  0  0  0  0  0
   -0.0860  -15.6740    6.5420 C   0  0  0  0  0  0  0  0  0  0  0  0
    0.2730  -14.5310    5.9370 C   0  0  0  0  0  0  0  0  0  0  0  0
    0.4840  -14.3240    4.5180 C   0  0  0  0  0  0  0  0  0  0  0  0
   -0.2150  -13.4240    3.8120 C   0  0  0  0  0  0  0  0  0  0  0  0
   -0.0640  -13.1650    2.3380 C   0  0  0  0  0  0  0  0  0  0  0  0
    0.8150  -13.7980    1.7440 O   0  0  0  0  0  0  0  0  0  0  0  0
   -0.9880  -12.2720    1.5780 C   0  0  0  0  0  0  0  0  0  0  0  0
   -0.4870  -10.9720    1.3540 C   0  0  0  0  0  0  0  0  0  0  0  0
   -1.2440  -10.0200    0.6830 C   0  0  0  0  0  0  0  0  0  0  0  0
   -2.5160  -10.3580    0.2450 C   0  0  0  0  0  0  0  0  0  0  0  0
   -3.0260  -11.6400    0.4840 C   0  0  0  0  0  0  0  0  0  0  0  0
   -2.2920  -12.6460    1.1550 C   0  0  0  0  0  0  0  0  0  0  0  0
   -2.7710  -13.8940    1.4260 N   0  0  0  0  0  0  0  0  0  0  0  0
   -3.7860  -14.0420    2.3150 C   0  0  0  0  0  0  0  0  0  0  0  0
   -4.8920  -13.1760    2.2070 C   0  0  0  0  0  0  0  0  0  0  0  0
   -5.9700  -13.2340    3.0920 C   0  0  0  0  0  0  0  0  0  0  0  0
   -5.9700  -14.1600    4.1270 C   0  0  0  0  0  0  0  0  0  0  0  0
   -4.8840  -15.0210    4.2760 C   0  0  0  0  0  0  0  0  0  0  0  0
   -3.7880  -14.9660    3.3940 C   0  0  0  0  0  0  0  0  0  0  0  0
   -2.7050  -15.9330    3.6440 C   0  0  0  0  0  0  0  0  0  0  0  0
   -2.4890  -16.4790    4.8510 C   0  0  0  0  0  0  0  0  0  0  0  0
   -1.3244  -19.4536    6.5397 H   0  0  0  0  0  0  0  0  0  0  0  0
   -1.9601  -20.5594    5.2748 H   0  0  0  0  0  0  0  0  0  0  0  0
   -0.2240  -20.0985    5.2748 H   0  0  0  0  0  0  0  0  0  0  0  0
    0.4302  -17.7417    6.1364 H   0  0  0  0  0  0  0  0  0  0  0  0
   -0.2084  -15.6186    7.6338 H   0  0  0  0  0  0  0  0  0  0  0  0
    0.4233  -13.6572    6.5881 H   0  0  0  0  0  0  0  0  0  0  0  0
    1.2453  -14.9273    4.0017 H   0  0  0  0  0  0  0  0  0  0  0  0
   -0.9607  -12.8253    4.3556 H   0  0  0  0  0  0  0  0  0  0  0  0
    0.5178  -10.7086    1.7161 H   0  0  0  0  0  0  0  0  0  0  0  0
   -0.8406   -9.0128    0.5016 H   0  0  0  0  0  0  0  0  0  0  0  0
   -3.1260   -9.6166   -0.2918 H   0  0  0  0  0  0  0  0  0  0  0  0
   -4.0422  -11.8752    0.1346 H   0  0  0  0  0  0  0  0  0  0  0  0
   -4.9066  -12.4298    1.3989 H   0  0  0  0  0  0  0  0  0  0  0  0
   -6.8196  -12.5461    2.9696 H   0  0  0  0  0  0  0  0  0  0  0  0
   -6.8199  -14.2135    4.8233 H   0  0  0  0  0  0  0  0  0  0  0  0
   -4.8833  -15.7548    5.0954 H   0  0  0  0  0  0  0  0  0  0  0  0
   -2.0480  -16.2186    2.8092 H   0  0  0  0  0  0  0  0  0  0  0  0
   -3.2050  -16.2394    5.6510 H   0  0  0  0  0  0  0  0  0  0  0  0
  1  2  1  0
  2  3  1  0
  3  4  2  0
  4  5  1  0
  5  6  2  0
  6  7  1  0
  7  8  2  0
  8  9  1  0
  9 10  2  0
  9 11  1  0
 11 12  2  0
 12 13  1  0
 13 14  2  0
 14 15  1  0
 15 16  2  0
 16 17  1  0
 17 18  1  0
 18 19  2  0
 19 20  1  0
 20 21  2  0
 21 22  1  0
 22 23  2  0
 23 24  1  0
 24 25  2  0
 25  3  1  0
 16 11  1  0
 23 18  1  0
  1 26  1  0
  1 27  1  0
  1 28  1  0
  4 29  1  0
  5 30  1  0
  6 31  1  0
  7 32  1  0
  8 33  1  0
 12 34  1  0
 13 35  1  0
 14 36  1  0
 15 37  1  0
 19 38  1  0
 20 39  1  0
 21 40  1  0
 22 41  1  0
 24 42  1  0
 25 43  1  0
M  CHG  1  17  -1
M  END
>  <meeko>  (1) 
{"is_sidechain": [false], "free_energy": -5.553, "intermolecular_energy": -8.15, "internal_energy": -0.794}

$$$$
GEN_MXEVTEPPWHDMMK__M_PUB_ALL__e8__s20260927
     RDKit          3D

 43 45  0  0  0  0  0  0  0  0999 V2000
    1.8820  -13.2370   -3.4730 C   0  0  0  0  0  0  0  0  0  0  0  0
    1.8470  -12.0550   -2.6900 O   0  0  0  0  0  0  0  0  0  0  0  0
    2.4830  -12.0610   -1.4600 C   0  0  0  0  0  0  0  0  0  0  0  0
    3.7130  -12.5750   -1.2330 C   0  0  0  0  0  0  0  0  0  0  0  0
    4.4520  -12.6300    0.0140 C   0  0  0  0  0  0  0  0  0  0  0  0
    4.3040  -13.4870    1.0370 C   0  0  0  0  0  0  0  0  0  0  0  0
    3.3620  -14.5850    1.1260 C   0  0  0  0  0  0  0  0  0  0  0  0
    2.1390  -14.4410    1.6560 C   0  0  0  0  0  0  0  0  0  0  0  0
    1.1180  -15.5420    1.8180 C   0  0  0  0  0  0  0  0  0  0  0  0
    1.4850  -16.5920    2.3550 O   0  0  0  0  0  0  0  0  0  0  0  0
   -0.3160  -15.3510    1.4460 C   0  0  0  0  0  0  0  0  0  0  0  0
   -0.8300  -16.3460    0.5880 C   0  0  0  0  0  0  0  0  0  0  0  0
   -2.1430  -16.2900    0.1340 C   0  0  0  0  0  0  0  0  0  0  0  0
   -2.9440  -15.2270    0.5240 C   0  0  0  0  0  0  0  0  0  0  0  0
   -2.4320  -14.2260    1.3580 C   0  0  0  0  0  0  0  0  0  0  0  0
   -1.1060  -14.2430    1.8530 C   0  0  0  0  0  0  0  0  0  0  0  0
   -0.5700  -13.2690    2.6430 N   0  0  0  0  0  0  0  0  0  0  0  0
   -0.7540  -11.9650    2.3160 C   0  0  0  0  0  0  0  0  0  0  0  0
   -1.5500  -11.1750    3.1680 C   0  0  0  0  0  0  0  0  0  0  0  0
   -1.8180   -9.8310    2.9000 C   0  0  0  0  0  0  0  0  0  0  0  0
   -1.3020   -9.2350    1.7560 C   0  0  0  0  0  0  0  0  0  0  0  0
   -0.5250   -9.9910    0.8810 C   0  0  0  0  0  0  0  0  0  0  0  0
   -0.2550  -11.3480    1.1380 C   0  0  0  0  0  0  0  0  0  0  0  0
    0.5880  -12.0410    0.1470 C   0  0  0  0  0  0  0  0  0  0  0  0
    1.6680  -11.4690   -0.4090 C   0  0  0  0  0  0  0  0  0  0  0  0
    1.9080  -14.1149   -2.8107 H   0  0  0  0  0  0  0  0  0  0  0  0
    0.9848  -13.2830   -4.1078 H   0  0  0  0  0  0  0  0  0  0  0  0
    2.7803  -13.2298   -4.1078 H   0  0  0  0  0  0  0  0  0  0  0  0
    4.2193  -13.0080   -2.1083 H   0  0  0  0  0  0  0  0  0  0  0  0
    5.2370  -11.8695    0.1379 H   0  0  0  0  0  0  0  0  0  0  0  0
    4.9693  -13.3400    1.9006 H   0  0  0  0  0  0  0  0  0  0  0  0
    3.6615  -15.5724    0.7448 H   0  0  0  0  0  0  0  0  0  0  0  0
    1.8552  -13.4362    2.0021 H   0  0  0  0  0  0  0  0  0  0  0  0
   -0.1827  -17.1780    0.2737 H   0  0  0  0  0  0  0  0  0  0  0  0
   -2.5403  -17.0766   -0.5243 H   0  0  0  0  0  0  0  0  0  0  0  0
   -3.9861  -15.1702    0.1765 H   0  0  0  0  0  0  0  0  0  0  0  0
   -3.0886  -13.3900    1.6409 H   0  0  0  0  0  0  0  0  0  0  0  0
   -1.9745  -11.6317    4.0742 H   0  0  0  0  0  0  0  0  0  0  0  0
   -2.4374   -9.2444    3.5944 H   0  0  0  0  0  0  0  0  0  0  0  0
   -1.5052   -8.1751    1.5429 H   0  0  0  0  0  0  0  0  0  0  0  0
   -0.1161   -9.5198   -0.0250 H   0  0  0  0  0  0  0  0  0  0  0  0
    0.3219  -13.0666   -0.1485 H   0  0  0  0  0  0  0  0  0  0  0  0
    1.9601  -10.4743   -0.0413 H   0  0  0  0  0  0  0  0  0  0  0  0
  1  2  1  0
  2  3  1  0
  3  4  2  0
  4  5  1  0
  5  6  2  0
  6  7  1  0
  7  8  2  0
  8  9  1  0
  9 10  2  0
  9 11  1  0
 11 12  2  0
 12 13  1  0
 13 14  2  0
 14 15  1  0
 15 16  2  0
 16 17  1  0
 17 18  1  0
 18 19  2  0
 19 20  1  0
 20 21  2  0
 21 22  1  0
 22 23  2  0
 23 24  1  0
 24 25  2  0
 25  3  1  0
 16 11  1  0
 23 18  1  0
  1 26  1  0
  1 27  1  0
  1 28  1  0
  4 29  1  0
  5 30  1  0
  6 31  1  0
  7 32  1  0
  8 33  1  0
 12 34  1  0
 13 35  1  0
 14 36  1  0
 15 37  1  0
 19 38  1  0
 20 39  1  0
 21 40  1  0
 22 41  1  0
 24 42  1  0
 25 43  1  0
M  CHG  1  17  -1
M  END
>  <meeko>  (2) 
{"is_sidechain": [false], "free_energy": -5.265, "intermolecular_energy": -7.756, "internal_energy": -0.766}

$$$$
GEN_MXEVTEPPWHDMMK__M_PUB_ALL__e8__s20260927
     RDKit          3D

 43 45  0  0  0  0  0  0  0  0999 V2000
    6.2210  -14.1080    2.0370 C   0  0  0  0  0  0  0  0  0  0  0  0
    7.2610  -13.1800    1.7750 O   0  0  0  0  0  0  0  0  0  0  0  0
    7.2590  -12.5150    0.5600 C   0  0  0  0  0  0  0  0  0  0  0  0
    6.1730  -12.3590   -0.2300 C   0  0  0  0  0  0  0  0  0  0  0  0
    6.0770  -11.6870   -1.5120 C   0  0  0  0  0  0  0  0  0  0  0  0
    6.4690  -12.1260   -2.7190 C   0  0  0  0  0  0  0  0  0  0  0  0
    7.0770  -13.4060   -3.0250 C   0  0  0  0  0  0  0  0  0  0  0  0
    8.3490  -13.5180   -3.4320 C   0  0  0  0  0  0  0  0  0  0  0  0
    9.0490  -14.7970   -3.7850 C   0  0  0  0  0  0  0  0  0  0  0  0
    8.7820  -15.3120   -4.8750 O   0  0  0  0  0  0  0  0  0  0  0  0
   10.1120  -15.3870   -2.9170 C   0  0  0  0  0  0  0  0  0  0  0  0
    9.9320  -16.7560   -2.6290 C   0  0  0  0  0  0  0  0  0  0  0  0
   10.8250  -17.4380   -1.8120 C   0  0  0  0  0  0  0  0  0  0  0  0
   11.8970  -16.7490   -1.2650 C   0  0  0  0  0  0  0  0  0  0  0  0
   12.0690  -15.3850   -1.5310 C   0  0  0  0  0  0  0  0  0  0  0  0
   11.1910  -14.6490   -2.3630 C   0  0  0  0  0  0  0  0  0  0  0  0
   11.3160  -13.3150   -2.6190 N   0  0  0  0  0  0  0  0  0  0  0  0
   11.7050  -12.4770   -1.6240 C   0  0  0  0  0  0  0  0  0  0  0  0
   12.9730  -11.8720   -1.7270 C   0  0  0  0  0  0  0  0  0  0  0  0
   13.4700  -11.0170   -0.7420 C   0  0  0  0  0  0  0  0  0  0  0  0
   12.7120  -10.7480    0.3900 C   0  0  0  0  0  0  0  0  0  0  0  0
   11.4600  -11.3420    0.5350 C   0  0  0  0  0  0  0  0  0  0  0  0
   10.9530  -12.2120   -0.4490 C   0  0  0  0  0  0  0  0  0  0  0  0
    9.6130  -12.7710   -0.1920 C   0  0  0  0  0  0  0  0  0  0  0  0
    8.5770  -12.0120    0.1990 C   0  0  0  0  0  0  0  0  0  0  0  0
    6.0951  -14.2204    3.1240 H   0  0  0  0  0  0  0  0  0  0  0  0
    5.2827  -13.7416    1.5951 H   0  0  0  0  0  0  0  0  0  0  0  0
    6.4786  -15.0818    1.5951 H   0  0  0  0  0  0  0  0  0  0  0  0
    5.2392  -12.7997    0.1493 H   0  0  0  0  0  0  0  0  0  0  0  0
    5.6230  -10.6852   -1.4929 H   0  0  0  0  0  0  0  0  0  0  0  0
    6.3121  -11.4415   -3.5657 H   0  0  0  0  0  0  0  0  0  0  0  0
    6.4722  -14.3187   -2.9193 H   0  0  0  0  0  0  0  0  0  0  0  0
    8.9320  -12.5888   -3.5146 H   0  0  0  0  0  0  0  0  0  0  0  0
    9.0720  -17.2915   -3.0576 H   0  0  0  0  0  0  0  0  0  0  0  0
   10.6838  -18.5085   -1.6021 H   0  0  0  0  0  0  0  0  0  0  0  0
   12.6151  -17.2761   -0.6196 H   0  0  0  0  0  0  0  0  0  0  0  0
   12.9227  -14.8630   -1.0741 H   0  0  0  0  0  0  0  0  0  0  0  0
   13.5916  -12.0802   -2.6125 H   0  0  0  0  0  0  0  0  0  0  0  0
   14.4617  -10.5565   -0.8624 H   0  0  0  0  0  0  0  0  0  0  0  0
   13.0972  -10.0709    1.1666 H   0  0  0  0  0  0  0  0  0  0  0  0
   10.8590  -11.1281    1.4312 H   0  0  0  0  0  0  0  0  0  0  0  0
    9.4562  -13.8515   -0.3258 H   0  0  0  0  0  0  0  0  0  0  0  0
    8.7362  -10.9248    0.2507 H   0  0  0  0  0  0  0  0  0  0  0  0
  1  2  1  0
  2  3  1  0
  3  4  2  0
  4  5  1  0
  5  6  2  0
  6  7  1  0
  7  8  2  0
  8  9  1  0
  9 10  2  0
  9 11  1  0
 11 12  2  0
 12 13  1  0
 13 14  2  0
 14 15  1  0
 15 16  2  0
 16 17  1  0
 17 18  1  0
 18 19  2  0
 19 20  1  0
 20 21  2  0
 21 22  1  0
 22 23  2  0
 23 24  1  0
 24 25  2  0
 25  3  1  0
 16 11  1  0
 23 18  1  0
  1 26  1  0
  1 27  1  0
  1 28  1  0
  4 29  1  0
  5 30  1  0
  6 31  1  0
  7 32  1  0
  8 33  1  0
 12 34  1  0
 13 35  1  0
 14 36  1  0
 15 37  1  0
 19 38  1  0
 20 39  1  0
 21 40  1  0
 22 41  1  0
 24 42  1  0
 25 43  1  0
M  CHG  1  17  -1
M  END
>  <meeko>  (3) 
{"is_sidechain": [false], "free_energy": -5.235, "intermolecular_energy": -7.561, "internal_energy": -0.917}

$$$$
GEN_MXEVTEPPWHDMMK__M_PUB_ALL__e8__s20260927
     RDKit          3D

 43 45  0  0  0  0  0  0  0  0999 V2000
    5.8790  -12.0060   -2.2600 C   0  0  0  0  0  0  0  0  0  0  0  0
    4.7880  -11.1010   -2.2740 O   0  0  0  0  0  0  0  0  0  0  0  0
    3.5660  -11.5500   -2.7470 C   0  0  0  0  0  0  0  0  0  0  0  0
    3.3700  -12.1120   -3.9600 C   0  0  0  0  0  0  0  0  0  0  0  0
    2.1340  -12.6060   -4.5390 C   0  0  0  0  0  0  0  0  0  0  0  0
    1.4440  -13.7120   -4.2190 C   0  0  0  0  0  0  0  0  0  0  0  0
    1.7740  -14.6790   -3.1910 C   0  0  0  0  0  0  0  0  0  0  0  0
    1.0660  -14.7920   -2.0580 C   0  0  0  0  0  0  0  0  0  0  0  0
    1.3660  -15.7600   -0.9680 C   0  0  0  0  0  0  0  0  0  0  0  0
    2.4190  -16.3990   -1.0590 O   0  0  0  0  0  0  0  0  0  0  0  0
    0.4970  -15.9160    0.2370 C   0  0  0  0  0  0  0  0  0  0  0  0
   -0.3800  -17.0190    0.1820 C   0  0  0  0  0  0  0  0  0  0  0  0
   -1.2690  -17.2780    1.2190 C   0  0  0  0  0  0  0  0  0  0  0  0
   -1.2950  -16.4250    2.3120 C   0  0  0  0  0  0  0  0  0  0  0  0
   -0.4400  -15.3160    2.3620 C   0  0  0  0  0  0  0  0  0  0  0  0
    0.4870  -15.0150    1.3360 C   0  0  0  0  0  0  0  0  0  0  0  0
    1.3120  -13.9290    1.3430 N   0  0  0  0  0  0  0  0  0  0  0  0
    0.7830  -12.6850    1.2180 C   0  0  0  0  0  0  0  0  0  0  0  0
   -0.3500  -12.3680    1.9930 C   0  0  0  0  0  0  0  0  0  0  0  0
   -0.9800  -11.1250    1.9140 C   0  0  0  0  0  0  0  0  0  0  0  0
   -0.5000  -10.1580    1.0410 C   0  0  0  0  0  0  0  0  0  0  0  0
    0.6090  -10.4430    0.2450 C   0  0  0  0  0  0  0  0  0  0  0  0
    1.2470  -11.6950    0.3120 C   0  0  0  0  0  0  0  0  0  0  0  0
    2.4140  -11.8760   -0.5690 C   0  0  0  0  0  0  0  0  0  0  0  0
    2.4860  -11.3320   -1.7940 C   0  0  0  0  0  0  0  0  0  0  0  0
    6.1533  -12.2335   -1.2193 H   0  0  0  0  0  0  0  0  0  0  0  0
    5.5917  -12.9346   -2.7749 H   0  0  0  0  0  0  0  0  0  0  0  0
    6.7386  -11.5521   -2.7749 H   0  0  0  0  0  0  0  0  0  0  0  0
    4.2651  -12.2078   -4.5921 H   0  0  0  0  0  0  0  0  0  0  0  0
    1.7065  -11.9933   -5.3464 H   0  0  0  0  0  0  0  0  0  0  0  0
    0.5298  -13.9053   -4.7994 H   0  0  0  0  0  0  0  0  0  0  0  0
    2.6363  -15.3441   -3.3459 H   0  0  0  0  0  0  0  0  0  0  0  0
    0.2033  -14.1226   -1.9248 H   0  0  0  0  0  0  0  0  0  0  0  0
   -0.3604  -17.6840   -0.6940 H   0  0  0  0  0  0  0  0  0  0  0  0
   -1.9420  -18.1469    1.1732 H   0  0  0  0  0  0  0  0  0  0  0  0
   -1.9893  -16.6196    3.1427 H   0  0  0  0  0  0  0  0  0  0  0  0
   -0.4916  -14.6507    3.2365 H   0  0  0  0  0  0  0  0  0  0  0  0
   -0.7513  -13.1249    2.6830 H   0  0  0  0  0  0  0  0  0  0  0  0
   -1.8566  -10.9116    2.5433 H   0  0  0  0  0  0  0  0  0  0  0  0
   -0.9903   -9.1754    0.9777 H   0  0  0  0  0  0  0  0  0  0  0  0
    0.9908   -9.6770   -0.4460 H   0  0  0  0  0  0  0  0  0  0  0  0
    3.2594  -12.4806   -0.2088 H   0  0  0  0  0  0  0  0  0  0  0  0
    1.6643  -10.6690   -2.1027 H   0  0  0  0  0  0  0  0  0  0  0  0
  1  2  1  0
  2  3  1  0
  3  4  2  0
  4  5  1  0
  5  6  2  0
  6  7  1  0
  7  8  2  0
  8  9  1  0
  9 10  2  0
  9 11  1  0
 11 12  2  0
 12 13  1  0
 13 14  2  0
 14 15  1  0
 15 16  2  0
 16 17  1  0
 17 18  1  0
 18 19  2  0
 19 20  1  0
 20 21  2  0
 21 22  1  0
 22 23  2  0
 23 24  1  0
 24 25  2  0
 25  3  1  0
 16 11  1  0
 23 18  1  0
  1 26  1  0
  1 27  1  0
  1 28  1  0
  4 29  1  0
  5 30  1  0
  6 31  1  0
  7 32  1  0
  8 33  1  0
 12 34  1  0
 13 35  1  0
 14 36  1  0
 15 37  1  0
 19 38  1  0
 20 39  1  0
 21 40  1  0
 22 41  1  0
 24 42  1  0
 25 43  1  0
M  CHG  1  17  -1
M  END
>  <meeko>  (4) 
{"is_sidechain": [false], "free_energy": -5.211, "intermolecular_energy": -7.618, "internal_energy": -0.824}

$$$$
GEN_MXEVTEPPWHDMMK__M_PUB_ALL__e8__s20260927
     RDKit          3D

 43 45  0  0  0  0  0  0  0  0999 V2000
   12.0220  -14.2920   -6.1920 C   0  0  0  0  0  0  0  0  0  0  0  0
   12.9840  -14.0370   -5.1810 O   0  0  0  0  0  0  0  0  0  0  0  0
   12.9840  -14.8430   -4.0550 C   0  0  0  0  0  0  0  0  0  0  0  0
   13.0910  -16.1910   -4.0740 C   0  0  0  0  0  0  0  0  0  0  0  0
   13.0960  -17.1120   -2.9530 C   0  0  0  0  0  0  0  0  0  0  0  0
   12.0590  -17.5310   -2.2090 C   0  0  0  0  0  0  0  0  0  0  0  0
   10.6670  -17.1620   -2.3680 C   0  0  0  0  0  0  0  0  0  0  0  0
   10.0340  -16.3580   -1.5020 C   0  0  0  0  0  0  0  0  0  0  0  0
    8.6050  -15.9300   -1.5970 C   0  0  0  0  0  0  0  0  0  0  0  0
    7.7410  -16.7540   -1.2810 O   0  0  0  0  0  0  0  0  0  0  0  0
    8.2160  -14.5270   -1.9310 C   0  0  0  0  0  0  0  0  0  0  0  0
    7.2730  -14.4190   -2.9750 C   0  0  0  0  0  0  0  0  0  0  0  0
    6.8340  -13.1760   -3.4160 C   0  0  0  0  0  0  0  0  0  0  0  0
    7.3480  -12.0320   -2.8240 C   0  0  0  0  0  0  0  0  0  0  0  0
    8.2990  -12.1340   -1.8020 C   0  0  0  0  0  0  0  0  0  0  0  0
    8.7720  -13.3750   -1.3130 C   0  0  0  0  0  0  0  0  0  0  0  0
    9.7170  -13.5060   -0.3390 N   0  0  0  0  0  0  0  0  0  0  0  0
   10.7520  -12.6290   -0.2880 C   0  0  0  0  0  0  0  0  0  0  0  0
   10.8300  -11.7620    0.8200 C   0  0  0  0  0  0  0  0  0  0  0  0
   11.8420  -10.8080    0.9470 C   0  0  0  0  0  0  0  0  0  0  0  0
   12.8060  -10.6840   -0.0440 C   0  0  0  0  0  0  0  0  0  0  0  0
   12.7510  -11.5130   -1.1640 C   0  0  0  0  0  0  0  0  0  0  0  0
   11.7310  -12.4730   -1.3050 C   0  0  0  0  0  0  0  0  0  0  0  0
   11.7820  -13.2980   -2.5240 C   0  0  0  0  0  0  0  0  0  0  0  0
   12.8320  -14.0800   -2.8240 C   0  0  0  0  0  0  0  0  0  0  0  0
   11.0590  -14.5473   -5.7258 H   0  0  0  0  0  0  0  0  0  0  0  0
   11.9004  -13.3951   -6.8171 H   0  0  0  0  0  0  0  0  0  0  0  0
   12.3607  -15.1314   -6.8171 H   0  0  0  0  0  0  0  0  0  0  0  0
   13.1868  -16.6490   -5.0695 H   0  0  0  0  0  0  0  0  0  0  0  0
   14.0787  -17.5212   -2.6757 H   0  0  0  0  0  0  0  0  0  0  0  0
   12.2916  -18.2291   -1.3914 H   0  0  0  0  0  0  0  0  0  0  0  0
   10.1094  -17.5558   -3.2305 H   0  0  0  0  0  0  0  0  0  0  0  0
   10.6161  -15.9809   -0.6482 H   0  0  0  0  0  0  0  0  0  0  0  0
    6.8796  -15.3315   -3.4467 H   0  0  0  0  0  0  0  0  0  0  0  0
    6.0899  -13.1008   -4.2226 H   0  0  0  0  0  0  0  0  0  0  0  0
    7.0072  -11.0411   -3.1587 H   0  0  0  0  0  0  0  0  0  0  0  0
    8.6963  -11.2087   -1.3594 H   0  0  0  0  0  0  0  0  0  0  0  0
   10.0691  -11.8391    1.6106 H   0  0  0  0  0  0  0  0  0  0  0  0
   11.8751  -10.1553    1.8318 H   0  0  0  0  0  0  0  0  0  0  0  0
   13.6076   -9.9371    0.0534 H   0  0  0  0  0  0  0  0  0  0  0  0
   13.5157  -11.4154   -1.9487 H   0  0  0  0  0  0  0  0  0  0  0  0
   10.9270  -13.2727   -3.2156 H   0  0  0  0  0  0  0  0  0  0  0  0
   13.6406  -14.1496   -2.0815 H   0  0  0  0  0  0  0  0  0  0  0  0
  1  2  1  0
  2  3  1  0
  3  4  2  0
  4  5  1  0
  5  6  2  0
  6  7  1  0
  7  8  2  0
  8  9  1  0
  9 10  2  0
  9 11  1  0
 11 12  2  0
 12 13  1  0
 13 14  2  0
 14 15  1  0
 15 16  2  0
 16 17  1  0
 17 18  1  0
 18 19  2  0
 19 20  1  0
 20 21  2  0
 21 22  1  0
 22 23  2  0
 23 24  1  0
 24 25  2  0
 25  3  1  0
 16 11  1  0
 23 18  1  0
  1 26  1  0
  1 27  1  0
  1 28  1  0
  4 29  1  0
  5 30  1  0
  6 31  1  0
  7 32  1  0
  8 33  1  0
 12 34  1  0
 13 35  1  0
 14 36  1  0
 15 37  1  0
 19 38  1  0
 20 39  1  0
 21 40  1  0
 22 41  1  0
 24 42  1  0
 25 43  1  0
M  CHG  1  17  -1
M  END
>  <meeko>  (5) 
{"is_sidechain": [false], "free_energy": -5.156, "intermolecular_energy": -7.456, "internal_energy": -0.906}

$$$$
GEN_MXEVTEPPWHDMMK__M_PUB_ALL__e8__s20260927
     RDKit          3D

 43 45  0  0  0  0  0  0  0  0999 V2000
   -1.9960   -8.9410    2.6040 C   0  0  0  0  0  0  0  0  0  0  0  0
   -1.6750   -9.8700    1.5820 O   0  0  0  0  0  0  0  0  0  0  0  0
   -2.2470  -11.1300    1.6360 C   0  0  0  0  0  0  0  0  0  0  0  0
   -3.2950  -11.5330    0.8830 C   0  0  0  0  0  0  0  0  0  0  0  0
   -3.9590  -12.8230    0.8750 C   0  0  0  0  0  0  0  0  0  0  0  0
   -3.5140  -13.9900    0.3810 C   0  0  0  0  0  0  0  0  0  0  0  0
   -2.2360  -14.2360   -0.2570 C   0  0  0  0  0  0  0  0  0  0  0  0
   -1.3020  -15.0270    0.2890 C   0  0  0  0  0  0  0  0  0  0  0  0
    0.0390  -15.3000   -0.3200 C   0  0  0  0  0  0  0  0  0  0  0  0
    0.3330  -14.6650   -1.3370 O   0  0  0  0  0  0  0  0  0  0  0  0
    1.0360  -16.2210    0.3030 C   0  0  0  0  0  0  0  0  0  0  0  0
    1.0680  -17.5120   -0.2650 C   0  0  0  0  0  0  0  0  0  0  0  0
    1.9270  -18.4880    0.2270 C   0  0  0  0  0  0  0  0  0  0  0  0
    2.7480  -18.1820    1.3010 C   0  0  0  0  0  0  0  0  0  0  0  0
    2.7040  -16.9080    1.8820 C   0  0  0  0  0  0  0  0  0  0  0  0
    1.8540  -15.8790    1.4130 C   0  0  0  0  0  0  0  0  0  0  0  0
    1.7680  -14.6390    1.9740 N   0  0  0  0  0  0  0  0  0  0  0  0
    1.1580  -14.4900    3.1780 C   0  0  0  0  0  0  0  0  0  0  0  0
    1.5690  -15.3240    4.2360 C   0  0  0  0  0  0  0  0  0  0  0  0
    0.9820  -15.2630    5.5010 C   0  0  0  0  0  0  0  0  0  0  0  0
   -0.0500  -14.3670    5.7450 C   0  0  0  0  0  0  0  0  0  0  0  0
   -0.4950  -13.5380    4.7170 C   0  0  0  0  0  0  0  0  0  0  0  0
    0.0850  -13.5960    3.4350 C   0  0  0  0  0  0  0  0  0  0  0  0
   -0.4610  -12.6640    2.4330 C   0  0  0  0  0  0  0  0  0  0  0  0
   -1.6070  -11.9900    2.6230 C   0  0  0  0  0  0  0  0  0  0  0  0
   -1.8349   -9.4073    3.5872 H   0  0  0  0  0  0  0  0  0  0  0  0
   -1.3522   -8.0542    2.5088 H   0  0  0  0  0  0  0  0  0  0  0  0
   -3.0500   -8.6408    2.5088 H   0  0  0  0  0  0  0  0  0  0  0  0
   -3.6972  -10.7844    0.1845 H   0  0  0  0  0  0  0  0  0  0  0  0
   -4.9584  -12.8486    1.3339 H   0  0  0  0  0  0  0  0  0  0  0  0
   -4.1922  -14.8515    0.4702 H   0  0  0  0  0  0  0  0  0  0  0  0
   -2.0251  -13.7562   -1.2241 H   0  0  0  0  0  0  0  0  0  0  0  0
   -1.5361  -15.5086    1.2499 H   0  0  0  0  0  0  0  0  0  0  0  0
    0.4039  -17.7497   -1.1091 H   0  0  0  0  0  0  0  0  0  0  0  0
    1.9547  -19.4885   -0.2294 H   0  0  0  0  0  0  0  0  0  0  0  0
    3.4365  -18.9422    1.6985 H   0  0  0  0  0  0  0  0  0  0  0  0
    3.3591  -16.6986    2.7405 H   0  0  0  0  0  0  0  0  0  0  0  0
    2.3790  -16.0470    4.0597 H   0  0  0  0  0  0  0  0  0  0  0  0
    1.3371  -15.9249    6.3046 H   0  0  0  0  0  0  0  0  0  0  0  0
   -0.5126  -14.3119    6.7415 H   0  0  0  0  0  0  0  0  0  0  0  0
   -1.3121  -12.8272    4.9099 H   0  0  0  0  0  0  0  0  0  0  0  0
    0.0911  -12.5145    1.4934 H   0  0  0  0  0  0  0  0  0  0  0  0
   -2.1011  -12.0954    3.6001 H   0  0  0  0  0  0  0  0  0  0  0  0
  1  2  1  0
  2  3  1  0
  3  4  2  0
  4  5  1  0
  5  6  2  0
  6  7  1  0
  7  8  2  0
  8  9  1  0
  9 10  2  0
  9 11  1  0
 11 12  2  0
 12 13  1  0
 13 14  2  0
 14 15  1  0
 15 16  2  0
 16 17  1  0
 17 18  1  0
 18 19  2  0
 19 20  1  0
 20 21  2  0
 21 22  1  0
 22 23  2  0
 23 24  1  0
 24 25  2  0
 25  3  1  0
 16 11  1  0
 23 18  1  0
  1 26  1  0
  1 27  1  0
  1 28  1  0
  4 29  1  0
  5 30  1  0
  6 31  1  0
  7 32  1  0
  8 33  1  0
 12 34  1  0
 13 35  1  0
 14 36  1  0
 15 37  1  0
 19 38  1  0
 20 39  1  0
 21 40  1  0
 22 41  1  0
 24 42  1  0
 25 43  1  0
M  CHG  1  17  -1
M  END
>  <meeko>  (6) 
{"is_sidechain": [false], "free_energy": -5.015, "intermolecular_energy": -7.373, "internal_energy": -0.781}

$$$$
GEN_MXEVTEPPWHDMMK__M_PUB_ALL__e8__s20260927
     RDKit          3D

 43 45  0  0  0  0  0  0  0  0999 V2000
   -0.4830  -10.6070    0.8780 C   0  0  0  0  0  0  0  0  0  0  0  0
    0.6650  -11.3840    1.1780 O   0  0  0  0  0  0  0  0  0  0  0  0
    0.7780  -12.6390    0.6040 C   0  0  0  0  0  0  0  0  0  0  0  0
    0.3190  -13.7830    1.1590 C   0  0  0  0  0  0  0  0  0  0  0  0
    0.3960  -15.1350    0.6370 C   0  0  0  0  0  0  0  0  0  0  0  0
    1.4760  -15.9220    0.5090 C   0  0  0  0  0  0  0  0  0  0  0  0
    2.8380  -15.6010    0.8840 C   0  0  0  0  0  0  0  0  0  0  0  0
    3.8560  -15.6620    0.0140 C   0  0  0  0  0  0  0  0  0  0  0  0
    5.2780  -15.3620    0.3320 C   0  0  0  0  0  0  0  0  0  0  0  0
    5.9980  -16.3160    0.6460 O   0  0  0  0  0  0  0  0  0  0  0  0
    5.8650  -13.9980    0.1800 C   0  0  0  0  0  0  0  0  0  0  0  0
    6.6550  -13.5800    1.2720 C   0  0  0  0  0  0  0  0  0  0  0  0
    7.2470  -12.3220    1.2850 C   0  0  0  0  0  0  0  0  0  0  0  0
    7.0390  -11.4690    0.2130 C   0  0  0  0  0  0  0  0  0  0  0  0
    6.2390  -11.8710   -0.8640 C   0  0  0  0  0  0  0  0  0  0  0  0
    5.6210  -13.1430   -0.9290 C   0  0  0  0  0  0  0  0  0  0  0  0
    4.8150  -13.5530   -1.9490 N   0  0  0  0  0  0  0  0  0  0  0  0
    4.1990  -12.6280   -2.7280 C   0  0  0  0  0  0  0  0  0  0  0  0
    4.6740  -12.4460   -4.0420 C   0  0  0  0  0  0  0  0  0  0  0  0
    4.1220  -11.5000   -4.9080 C   0  0  0  0  0  0  0  0  0  0  0  0
    3.0770  -10.6930   -4.4780 C   0  0  0  0  0  0  0  0  0  0  0  0
    2.5920  -10.8320   -3.1780 C   0  0  0  0  0  0  0  0  0  0  0  0
    3.1470  -11.7780   -2.2950 C   0  0  0  0  0  0  0  0  0  0  0  0
    2.5450  -11.8410   -0.9510 C   0  0  0  0  0  0  0  0  0  0  0  0
    1.4760  -12.6050   -0.6750 C   0  0  0  0  0  0  0  0  0  0  0  0
   -0.9614  -10.2832    1.8141 H   0  0  0  0  0  0  0  0  0  0  0  0
   -0.1855   -9.7238    0.2936 H   0  0  0  0  0  0  0  0  0  0  0  0
   -1.1924  -11.2114    0.2936 H   0  0  0  0  0  0  0  0  0  0  0  0
   -0.1781  -13.6750    2.1343 H   0  0  0  0  0  0  0  0  0  0  0  0
   -0.5561  -15.5725    0.3021 H   0  0  0  0  0  0  0  0  0  0  0  0
    1.3088  -16.9177    0.0724 H   0  0  0  0  0  0  0  0  0  0  0  0
    3.0444  -15.2961    1.9205 H   0  0  0  0  0  0  0  0  0  0  0  0
    3.6208  -15.9579   -1.0190 H   0  0  0  0  0  0  0  0  0  0  0  0
    6.8045  -14.2587    2.1246 H   0  0  0  0  0  0  0  0  0  0  0  0
    7.8717  -12.0083    2.1343 H   0  0  0  0  0  0  0  0  0  0  0  0
    7.5041  -10.4722    0.2079 H   0  0  0  0  0  0  0  0  0  0  0  0
    6.0841  -11.1678   -1.6956 H   0  0  0  0  0  0  0  0  0  0  0  0
    5.5074  -13.0699   -4.3974 H   0  0  0  0  0  0  0  0  0  0  0  0
    4.5146  -11.3941   -5.9301 H   0  0  0  0  0  0  0  0  0  0  0  0
    2.6351   -9.9496   -5.1578 H   0  0  0  0  0  0  0  0  0  0  0  0
    1.7637  -10.1933   -2.8374 H   0  0  0  0  0  0  0  0  0  0  0  0
    2.9883  -11.2394   -0.1438 H   0  0  0  0  0  0  0  0  0  0  0  0
    1.0974  -13.2561   -1.4767 H   0  0  0  0  0  0  0  0  0  0  0  0
  1  2  1  0
  2  3  1  0
  3  4  2  0
  4  5  1  0
  5  6  2  0
  6  7  1  0
  7  8  2  0
  8  9  1  0
  9 10  2  0
  9 11  1  0
 11 12  2  0
 12 13  1  0
 13 14  2  0
 14 15  1  0
 15 16  2  0
 16 17  1  0
 17 18  1  0
 18 19  2  0
 19 20  1  0
 20 21  2  0
 21 22  1  0
 22 23  2  0
 23 24  1  0
 24 25  2  0
 25  3  1  0
 16 11  1  0
 23 18  1  0
  1 26  1  0
  1 27  1  0
  1 28  1  0
  4 29  1  0
  5 30  1  0
  6 31  1  0
  7 32  1  0
  8 33  1  0
 12 34  1  0
 13 35  1  0
 14 36  1  0
 15 37  1  0
 19 38  1  0
 20 39  1  0
 21 40  1  0
 22 41  1  0
 24 42  1  0
 25 43  1  0
M  CHG  1  17  -1
M  END
>  <meeko>  (7) 
{"is_sidechain": [false], "free_energy": -4.813, "intermolecular_energy": -7.187, "internal_energy": -0.671}

$$$$
GEN_MXEVTEPPWHDMMK__M_PUB_ALL__e8__s20260927
     RDKit          3D

 43 45  0  0  0  0  0  0  0  0999 V2000
    5.8800  -14.4960   -3.1100 C   0  0  0  0  0  0  0  0  0  0  0  0
    6.7380  -15.5820   -3.4160 O   0  0  0  0  0  0  0  0  0  0  0  0
    7.5020  -16.1240   -2.3960 C   0  0  0  0  0  0  0  0  0  0  0  0
    7.6650  -17.4480   -2.1770 C   0  0  0  0  0  0  0  0  0  0  0  0
    8.4370  -18.1040   -1.1380 C   0  0  0  0  0  0  0  0  0  0  0  0
    9.7590  -18.3350   -1.0980 C   0  0  0  0  0  0  0  0  0  0  0  0
   10.7400  -17.9610   -2.0960 C   0  0  0  0  0  0  0  0  0  0  0  0
   11.7450  -17.1140   -1.8330 C   0  0  0  0  0  0  0  0  0  0  0  0
   12.7810  -16.6610   -2.8070 C   0  0  0  0  0  0  0  0  0  0  0  0
   13.4940  -17.5180   -3.3400 O   0  0  0  0  0  0  0  0  0  0  0  0
   12.8820  -15.2320   -3.2310 C   0  0  0  0  0  0  0  0  0  0  0  0
   13.3030  -15.0510   -4.5650 C   0  0  0  0  0  0  0  0  0  0  0  0
   13.4690  -13.7770   -5.0960 C   0  0  0  0  0  0  0  0  0  0  0  0
   13.2290  -12.6760   -4.2880 C   0  0  0  0  0  0  0  0  0  0  0  0
   12.8310  -12.8510   -2.9570 C   0  0  0  0  0  0  0  0  0  0  0  0
   12.6410  -14.1260   -2.3730 C   0  0  0  0  0  0  0  0  0  0  0  0
   12.2810  -14.3290   -1.0740 N   0  0  0  0  0  0  0  0  0  0  0  0
   11.3330  -13.5370   -0.5110 C   0  0  0  0  0  0  0  0  0  0  0  0
   11.7480  -12.5730    0.4280 C   0  0  0  0  0  0  0  0  0  0  0  0
   10.8430  -11.7320    1.0790 C   0  0  0  0  0  0  0  0  0  0  0  0
    9.4840  -11.8390    0.8170 C   0  0  0  0  0  0  0  0  0  0  0  0
    9.0340  -12.7940   -0.0940 C   0  0  0  0  0  0  0  0  0  0  0  0
    9.9380  -13.6520   -0.7500 C   0  0  0  0  0  0  0  0  0  0  0  0
    9.3470  -14.6120   -1.6990 C   0  0  0  0  0  0  0  0  0  0  0  0
    8.1060  -15.1030   -1.5500 C   0  0  0  0  0  0  0  0  0  0  0  0
    5.7968  -14.3908   -2.0182 H   0  0  0  0  0  0  0  0  0  0  0  0
    6.2934  -13.5705   -3.5372 H   0  0  0  0  0  0  0  0  0  0  0  0
    4.8839  -14.6840   -3.5372 H   0  0  0  0  0  0  0  0  0  0  0  0
    7.1439  -18.1159   -2.8787 H   0  0  0  0  0  0  0  0  0  0  0  0
    7.8636  -18.4587   -0.2688 H   0  0  0  0  0  0  0  0  0  0  0  0
   10.1379  -18.8654   -0.2119 H   0  0  0  0  0  0  0  0  0  0  0  0
   10.6572  -18.3876   -3.1065 H   0  0  0  0  0  0  0  0  0  0  0  0
   11.8121  -16.7179   -0.8090 H   0  0  0  0  0  0  0  0  0  0  0  0
   13.5029  -15.9308   -5.1943 H   0  0  0  0  0  0  0  0  0  0  0  0
   13.7858  -13.6444   -6.1410 H   0  0  0  0  0  0  0  0  0  0  0  0
   13.3518  -11.6611   -4.6942 H   0  0  0  0  0  0  0  0  0  0  0  0
   12.6584  -11.9582   -2.3381 H   0  0  0  0  0  0  0  0  0  0  0  0
   12.8200  -12.4794    0.6561 H   0  0  0  0  0  0  0  0  0  0  0  0
   11.2070  -10.9847    1.7994 H   0  0  0  0  0  0  0  0  0  0  0  0
    8.7678  -11.1757    1.3240 H   0  0  0  0  0  0  0  0  0  0  0  0
    7.9574  -12.8785   -0.3033 H   0  0  0  0  0  0  0  0  0  0  0  0
    9.9452  -14.9389   -2.5623 H   0  0  0  0  0  0  0  0  0  0  0  0
    7.4981  -14.7032   -0.7250 H   0  0  0  0  0  0  0  0  0  0  0  0
  1  2  1  0
  2  3  1  0
  3  4  2  0
  4  5  1  0
  5  6  2  0
  6  7  1  0
  7  8  2  0
  8  9  1  0
  9 10  2  0
  9 11  1  0
 11 12  2  0
 12 13  1  0
 13 14  2  0
 14 15  1  0
 15 16  2  0
 16 17  1  0
 17 18  1  0
 18 19  2  0
 19 20  1  0
 20 21  2  0
 21 22  1  0
 22 23  2  0
 23 24  1  0
 24 25  2  0
 25  3  1  0
 16 11  1  0
 23 18  1  0
  1 26  1  0
  1 27  1  0
  1 28  1  0
  4 29  1  0
  5 30  1  0
  6 31  1  0
  7 32  1  0
  8 33  1  0
 12 34  1  0
 13 35  1  0
 14 36  1  0
 15 37  1  0
 19 38  1  0
 20 39  1  0
 21 40  1  0
 22 41  1  0
 24 42  1  0
 25 43  1  0
M  CHG  1  17  -1
M  END
>  <meeko>  (8) 
{"is_sidechain": [false], "free_energy": -4.73, "intermolecular_energy": -7.028, "internal_energy": -0.708}

$$$$
GEN_MXEVTEPPWHDMMK__M_PUB_ALL__e8__s20260927
     RDKit          3D

 43 45  0  0  0  0  0  0  0  0999 V2000
    5.1420  -18.4020   -0.7920 C   0  0  0  0  0  0  0  0  0  0  0  0
    3.7520  -18.4050   -1.0730 O   0  0  0  0  0  0  0  0  0  0  0  0
    2.9610  -17.4280   -0.4920 C   0  0  0  0  0  0  0  0  0  0  0  0
    2.4550  -17.4910    0.7600 C   0  0  0  0  0  0  0  0  0  0  0  0
    1.6180  -16.5240    1.4460 C   0  0  0  0  0  0  0  0  0  0  0  0
    1.9860  -15.3960    2.0750 C   0  0  0  0  0  0  0  0  0  0  0  0
    3.3300  -14.8670    2.2010 C   0  0  0  0  0  0  0  0  0  0  0  0
    3.6890  -13.6880    1.6740 C   0  0  0  0  0  0  0  0  0  0  0  0
    5.0560  -13.0730    1.7610 C   0  0  0  0  0  0  0  0  0  0  0  0
    5.5760  -12.9900    2.8780 O   0  0  0  0  0  0  0  0  0  0  0  0
    5.8220  -12.6650    0.5450 C   0  0  0  0  0  0  0  0  0  0  0  0
    7.2220  -12.6450    0.7200 C   0  0  0  0  0  0  0  0  0  0  0  0
    8.0660  -12.2610   -0.3150 C   0  0  0  0  0  0  0  0  0  0  0  0
    7.5130  -11.8790   -1.5280 C   0  0  0  0  0  0  0  0  0  0  0  0
    6.1230  -11.8770   -1.7000 C   0  0  0  0  0  0  0  0  0  0  0  0
    5.2220  -12.2670   -0.6800 C   0  0  0  0  0  0  0  0  0  0  0  0
    3.8650  -12.2490   -0.8070 N   0  0  0  0  0  0  0  0  0  0  0  0
    3.2970  -12.6740   -1.9650 C   0  0  0  0  0  0  0  0  0  0  0  0
    2.8790  -11.6990   -2.8930 C   0  0  0  0  0  0  0  0  0  0  0  0
    2.2610  -12.0380   -4.0980 C   0  0  0  0  0  0  0  0  0  0  0  0
    2.0290  -13.3720   -4.4080 C   0  0  0  0  0  0  0  0  0  0  0  0
    2.4120  -14.3620   -3.5060 C   0  0  0  0  0  0  0  0  0  0  0  0
    3.0300  -14.0310   -2.2850 C   0  0  0  0  0  0  0  0  0  0  0  0
    3.4000  -15.1640   -1.4180 C   0  0  0  0  0  0  0  0  0  0  0  0
    2.7040  -16.3120   -1.3930 C   0  0  0  0  0  0  0  0  0  0  0  0
    5.2959  -18.4017    0.2972 H   0  0  0  0  0  0  0  0  0  0  0  0
    5.6061  -19.2991   -1.2276 H   0  0  0  0  0  0  0  0  0  0  0  0
    5.6022  -17.5029   -1.2276 H   0  0  0  0  0  0  0  0  0  0  0  0
    2.7113  -18.3936    1.3341 H   0  0  0  0  0  0  0  0  0  0  0  0
    0.5402  -16.7440    1.4514 H   0  0  0  0  0  0  0  0  0  0  0  0
    1.1817  -14.8108    2.5449 H   0  0  0  0  0  0  0  0  0  0  0  0
    4.0819  -15.4541    2.7486 H   0  0  0  0  0  0  0  0  0  0  0  0
    2.9165  -13.1230    1.1317 H   0  0  0  0  0  0  0  0  0  0  0  0
    7.6514  -12.9376    1.6895 H   0  0  0  0  0  0  0  0  0  0  0  0
    9.1569  -12.2601   -0.1742 H   0  0  0  0  0  0  0  0  0  0  0  0
    8.1684  -11.5765   -2.3580 H   0  0  0  0  0  0  0  0  0  0  0  0
    5.7135  -11.5585   -2.6700 H   0  0  0  0  0  0  0  0  0  0  0  0
    3.0451  -10.6368   -2.6603 H   0  0  0  0  0  0  0  0  0  0  0  0
    1.9578  -11.2489   -4.8018 H   0  0  0  0  0  0  0  0  0  0  0  0
    1.5466  -13.6445   -5.3583 H   0  0  0  0  0  0  0  0  0  0  0  0
    2.2288  -15.4185   -3.7514 H   0  0  0  0  0  0  0  0  0  0  0  0
    4.2805  -15.0653   -0.7661 H   0  0  0  0  0  0  0  0  0  0  0  0
    1.8752  -16.4183   -2.1084 H   0  0  0  0  0  0  0  0  0  0  0  0
  1  2  1  0
  2  3  1  0
  3  4  2  0
  4  5  1  0
  5  6  2  0
  6  7  1  0
  7  8  2  0
  8  9  1  0
  9 10  2  0
  9 11  1  0
 11 12  2  0
 12 13  1  0
 13 14  2  0
 14 15  1  0
 15 16  2  0
 16 17  1  0
 17 18  1  0
 18 19  2  0
 19 20  1  0
 20 21  2  0
 21 22  1  0
 22 23  2  0
 23 24  1  0
 24 25  2  0
 25  3  1  0
 16 11  1  0
 23 18  1  0
  1 26  1  0
  1 27  1  0
  1 28  1  0
  4 29  1  0
  5 30  1  0
  6 31  1  0
  7 32  1  0
  8 33  1  0
 12 34  1  0
 13 35  1  0
 14 36  1  0
 15 37  1  0
 19 38  1  0
 20 39  1  0
 21 40  1  0
 22 41  1  0
 24 42  1  0
 25 43  1  0
M  CHG  1  17  -1
M  END
>  <meeko>  (9) 
{"is_sidechain": [false], "free_energy": -4.59, "intermolecular_energy": -6.955, "internal_energy": -0.576}

$$$$
