
     RDKit          3D

 49 52  0  0  0  0  0  0  0  0999 V2000
   -1.5998   -1.1056   -2.3209 C   0  0  0  0  0  0  0  0  0  0  0  0
   -2.3880   -0.1513   -1.6111 O   0  0  0  0  0  0  0  0  0  0  0  0
   -3.6090   -0.5543   -1.1442 C   0  0  0  0  0  0  0  0  0  0  0  0
   -4.2613   -1.7301   -1.5202 C   0  0  0  0  0  0  0  0  0  0  0  0
   -5.5145   -2.0387   -0.9839 C   0  0  0  0  0  0  0  0  0  0  0  0
   -6.1155   -1.1716   -0.0760 C   0  0  0  0  0  0  0  0  0  0  0  0
   -7.6575   -1.5538    0.5819 Cl  0  0  0  0  0  0  0  0  0  0  0  0
   -5.4753    0.0061    0.3066 C   0  0  0  0  0  0  0  0  0  0  0  0
   -4.2138    0.3242   -0.2218 C   0  0  0  0  0  0  0  0  0  0  0  0
   -3.5091    1.5923    0.1996 C   0  0  0  0  0  0  0  0  0  0  0  0
   -2.1787    1.3564    0.8249 N   0  0  2  0  0  0  0  0  0  0  0  0
   -2.1916    0.6182    2.1193 C   0  0  0  0  0  0  0  0  0  0  0  0
   -1.2899    2.5809    0.8708 C   0  0  0  0  0  0  0  0  0  0  0  0
    0.1582    2.1246    0.8576 C   0  0  0  0  0  0  0  0  0  0  0  0
    0.9912    2.5876    1.7361 N   0  0  0  0  0  0  0  0  0  0  0  0
    2.2270    2.0454    1.6273 C   0  0  0  0  0  0  0  0  0  0  0  0
    3.5224    2.5339    2.6121 S   0  0  0  0  0  0  0  0  0  0  0  0
    4.5764    1.4125    1.8662 C   0  0  0  0  0  0  0  0  0  0  0  0
    3.9520    0.6595    0.8850 C   0  0  0  0  0  0  0  0  0  0  0  0
    4.7127   -0.3337    0.1327 C   0  0  0  0  0  0  0  0  0  0  0  0
    4.7493   -0.2873   -1.2654 C   0  0  0  0  0  0  0  0  0  0  0  0
    5.4999   -1.2196   -1.9858 C   0  0  0  0  0  0  0  0  0  0  0  0
    6.2221   -2.2045   -1.3139 C   0  0  0  0  0  0  0  0  0  0  0  0
    6.1906   -2.2619    0.0784 C   0  0  0  0  0  0  0  0  0  0  0  0
    5.4389   -1.3308    0.7996 C   0  0  0  0  0  0  0  0  0  0  0  0
    2.5732    1.0466    0.7451 C   0  0  0  0  0  0  0  0  0  0  0  0
    1.5223    0.5462   -0.1366 C   0  0  0  0  0  0  0  0  0  0  0  0
    1.6904   -0.4291   -0.8598 O   0  0  0  0  0  0  0  0  0  0  0  0
    0.3616    1.2132   -0.1026 N   0  0  0  0  0  0  0  0  0  0  0  0
   -0.6319   -0.6457   -2.5386 H   0  0  0  0  0  0  0  0  0  0  0  0
   -1.4229   -1.9992   -1.7135 H   0  0  0  0  0  0  0  0  0  0  0  0
   -2.0673   -1.3623   -3.2767 H   0  0  0  0  0  0  0  0  0  0  0  0
   -3.8246   -2.4235   -2.2330 H   0  0  0  0  0  0  0  0  0  0  0  0
   -6.0155   -2.9564   -1.2833 H   0  0  0  0  0  0  0  0  0  0  0  0
   -5.9631    0.6705    1.0165 H   0  0  0  0  0  0  0  0  0  0  0  0
   -4.1037    2.1653    0.9207 H   0  0  0  0  0  0  0  0  0  0  0  0
   -3.3640    2.2210   -0.6873 H   0  0  0  0  0  0  0  0  0  0  0  0
   -1.6469    0.7642    0.1534 H   0  0  0  0  0  0  0  0  0  0  0  0
   -1.1645    0.4437    2.4493 H   0  0  0  0  0  0  0  0  0  0  0  0
   -2.7344    1.2187    2.8543 H   0  0  0  0  0  0  0  0  0  0  0  0
   -2.6855   -0.3450    1.9698 H   0  0  0  0  0  0  0  0  0  0  0  0
   -1.5367    3.1530    1.7704 H   0  0  0  0  0  0  0  0  0  0  0  0
   -1.4825    3.1852   -0.0227 H   0  0  0  0  0  0  0  0  0  0  0  0
    5.6097    1.3665    2.1812 H   0  0  0  0  0  0  0  0  0  0  0  0
    4.1793    0.4680   -1.8020 H   0  0  0  0  0  0  0  0  0  0  0  0
    5.5100   -1.1783   -3.0713 H   0  0  0  0  0  0  0  0  0  0  0  0
    6.8011   -2.9316   -1.8763 H   0  0  0  0  0  0  0  0  0  0  0  0
    6.7453   -3.0342    0.6038 H   0  0  0  0  0  0  0  0  0  0  0  0
    5.4140   -1.3957    1.8843 H   0  0  0  0  0  0  0  0  0  0  0  0
  1  2  1  0
  2  3  1  0
  3  4  2  0
  4  5  1  0
  5  6  2  0
  6  7  1  0
  6  8  1  0
  8  9  2  0
  9 10  1  0
 10 11  1  0
 11 12  1  0
 11 13  1  0
 13 14  1  0
 14 15  2  0
 15 16  1  0
 16 17  1  0
 17 18  1  0
 18 19  2  0
 19 20  1  0
 20 21  2  0
 21 22  1  0
 22 23  2  0
 23 24  1  0
 24 25  2  0
 19 26  1  0
 26 27  1  0
 27 28  2  0
 27 29  1  0
  9  3  1  0
 29 14  1  0
 26 16  2  0
 25 20  1  0
  1 30  1  0
  1 31  1  0
  1 32  1  0
  4 33  1  0
  5 34  1  0
  8 35  1  0
 10 36  1  0
 10 37  1  0
 11 38  1  6
 12 39  1  0
 12 40  1  0
 12 41  1  0
 13 42  1  0
 13 43  1  0
 18 44  1  0
 21 45  1  0
 22 46  1  0
 23 47  1  0
 24 48  1  0
 25 49  1  0
M  CHG  2  11   1  29  -1
M  END
$$$$
