
     RDKit          3D

 49 52  0  0  0  0  0  0  0  0999 V2000
   -1.5346   -2.1411   -1.4903 C   0  0  0  0  0  0  0  0  0  0  0  0
   -2.3421   -1.6104   -0.4404 O   0  0  0  0  0  0  0  0  0  0  0  0
   -3.5753   -1.1192   -0.7703 C   0  0  0  0  0  0  0  0  0  0  0  0
   -4.2162   -1.3209   -1.9941 C   0  0  0  0  0  0  0  0  0  0  0  0
   -5.4836   -0.7766   -2.2197 C   0  0  0  0  0  0  0  0  0  0  0  0
   -6.1098   -0.0349   -1.2222 C   0  0  0  0  0  0  0  0  0  0  0  0
   -7.6690    0.6337   -1.5026 Cl  0  0  0  0  0  0  0  0  0  0  0  0
   -5.4812    0.1727    0.0046 C   0  0  0  0  0  0  0  0  0  0  0  0
   -4.2060   -0.3654    0.2408 C   0  0  0  0  0  0  0  0  0  0  0  0
   -3.5131   -0.1325    1.5628 C   0  0  0  0  0  0  0  0  0  0  0  0
   -2.2063    0.5697    1.4351 N   0  0  1  0  0  0  0  0  0  0  0  0
   -2.2681    1.9682    0.9257 C   0  0  0  0  0  0  0  0  0  0  0  0
   -1.3109    0.4388    2.6483 C   0  0  0  0  0  0  0  0  0  0  0  0
    0.1360    0.5385    2.1974 C   0  0  0  0  0  0  0  0  0  0  0  0
    0.9591    1.3133    2.8310 N   0  0  0  0  0  0  0  0  0  0  0  0
    2.1994    1.3217    2.2881 C   0  0  0  0  0  0  0  0  0  0  0  0
    3.4828    2.1994    2.9736 S   0  0  0  0  0  0  0  0  0  0  0  0
    4.5528    1.6932    1.7395 C   0  0  0  0  0  0  0  0  0  0  0  0
    3.9462    0.8620    0.8121 C   0  0  0  0  0  0  0  0  0  0  0  0
    4.7166    0.3478   -0.3149 C   0  0  0  0  0  0  0  0  0  0  0  0
    4.3118    0.6089   -1.6283 C   0  0  0  0  0  0  0  0  0  0  0  0
    5.0666    0.1422   -2.7072 C   0  0  0  0  0  0  0  0  0  0  0  0
    6.2331   -0.5868   -2.4806 C   0  0  0  0  0  0  0  0  0  0  0  0
    6.6437   -0.8548   -1.1757 C   0  0  0  0  0  0  0  0  0  0  0  0
    5.8886   -0.3897   -0.0962 C   0  0  0  0  0  0  0  0  0  0  0  0
    2.5615    0.6518    1.1409 C   0  0  0  0  0  0  0  0  0  0  0  0
    1.5259   -0.1333    0.4750 C   0  0  0  0  0  0  0  0  0  0  0  0
    1.7155   -0.6742   -0.6086 O   0  0  0  0  0  0  0  0  0  0  0  0
    0.3517   -0.2181    1.1133 N   0  0  0  0  0  0  0  0  0  0  0  0
   -0.5613   -2.4021   -1.0655 H   0  0  0  0  0  0  0  0  0  0  0  0
   -1.9762   -3.0571   -1.8953 H   0  0  0  0  0  0  0  0  0  0  0  0
   -1.3739   -1.3970   -2.2771 H   0  0  0  0  0  0  0  0  0  0  0  0
   -3.7595   -1.9023   -2.7898 H   0  0  0  0  0  0  0  0  0  0  0  0
   -5.9757   -0.9397   -3.1757 H   0  0  0  0  0  0  0  0  0  0  0  0
   -5.9888    0.7543    0.7711 H   0  0  0  0  0  0  0  0  0  0  0  0
   -3.3350   -1.1045    2.0387 H   0  0  0  0  0  0  0  0  0  0  0  0
   -4.1309    0.4636    2.2445 H   0  0  0  0  0  0  0  0  0  0  0  0
   -1.6550    0.0258    0.7387 H   0  0  0  0  0  0  0  0  0  0  0  0
   -2.8361    2.5713    1.6392 H   0  0  0  0  0  0  0  0  0  0  0  0
   -1.2540    2.3601    0.8142 H   0  0  0  0  0  0  0  0  0  0  0  0
   -2.7581    1.9652   -0.0510 H   0  0  0  0  0  0  0  0  0  0  0  0
   -1.4753   -0.5466    3.0984 H   0  0  0  0  0  0  0  0  0  0  0  0
   -1.5781    1.2249    3.3611 H   0  0  0  0  0  0  0  0  0  0  0  0
    5.5774    2.0382    1.7508 H   0  0  0  0  0  0  0  0  0  0  0  0
    3.3953    1.1631   -1.8166 H   0  0  0  0  0  0  0  0  0  0  0  0
    4.7347    0.3409   -3.7222 H   0  0  0  0  0  0  0  0  0  0  0  0
    6.8155   -0.9543   -3.3208 H   0  0  0  0  0  0  0  0  0  0  0  0
    7.5467   -1.4316   -0.9965 H   0  0  0  0  0  0  0  0  0  0  0  0
    6.2132   -0.6166    0.9163 H   0  0  0  0  0  0  0  0  0  0  0  0
  1  2  1  0
  2  3  1  0
  3  4  2  0
  4  5  1  0
  5  6  2  0
  6  7  1  0
  6  8  1  0
  8  9  2  0
  9 10  1  0
 10 11  1  0
 11 12  1  0
 11 13  1  0
 13 14  1  0
 14 15  2  0
 15 16  1  0
 16 17  1  0
 17 18  1  0
 18 19  2  0
 19 20  1  0
 20 21  2  0
 21 22  1  0
 22 23  2  0
 23 24  1  0
 24 25  2  0
 19 26  1  0
 26 27  1  0
 27 28  2  0
 27 29  1  0
  9  3  1  0
 29 14  1  0
 26 16  2  0
 25 20  1  0
  1 30  1  0
  1 31  1  0
  1 32  1  0
  4 33  1  0
  5 34  1  0
  8 35  1  0
 10 36  1  0
 10 37  1  0
 11 38  1  6
 12 39  1  0
 12 40  1  0
 12 41  1  0
 13 42  1  0
 13 43  1  0
 18 44  1  0
 21 45  1  0
 22 46  1  0
 23 47  1  0
 24 48  1  0
 25 49  1  0
M  CHG  2  11   1  29  -1
M  END
$$$$
