
     RDKit          3D

 42 44  0  0  0  0  0  0  0  0999 V2000
   -0.5709    1.4674    0.5003 C   0  0  0  0  0  0  0  0  0  0  0  0
   -0.3281    0.0215    0.8049 N   0  0  2  0  0  0  0  0  0  0  0  0
   -1.5726   -0.7202    1.2176 C   0  0  0  0  0  0  0  0  0  0  0  0
   -2.5923   -0.8434    0.1128 C   0  0  0  0  0  0  0  0  0  0  0  0
   -2.3402   -1.7379   -0.9446 C   0  0  0  0  0  0  0  0  0  0  0  0
   -3.2502   -1.8724   -1.9894 C   0  0  0  0  0  0  0  0  0  0  0  0
   -4.4171   -1.1168   -1.9911 C   0  0  0  0  0  0  0  0  0  0  0  0
   -4.6809   -0.2229   -0.9506 C   0  0  0  0  0  0  0  0  0  0  0  0
   -3.7767   -0.0767    0.1058 C   0  0  0  0  0  0  0  0  0  0  0  0
   -3.9328    0.7818    1.1594 O   0  0  0  0  0  0  0  0  0  0  0  0
   -5.1404    1.5359    1.2443 C   0  0  0  0  0  0  0  0  0  0  0  0
   -6.2129    0.7258    1.3082 F   0  0  0  0  0  0  0  0  0  0  0  0
   -5.0871    2.2732    2.3731 F   0  0  0  0  0  0  0  0  0  0  0  0
   -5.2466    2.3739    0.1948 F   0  0  0  0  0  0  0  0  0  0  0  0
    0.7942   -0.1901    1.7767 C   0  0  0  0  0  0  0  0  0  0  0  0
    2.0587    0.1527    1.1775 N   0  0  0  0  0  0  0  0  0  0  0  0
    2.8142    1.0831    1.8219 N   0  0  0  0  0  0  0  0  0  0  0  0
    3.9541    1.3905    1.4122 N   0  0  0  0  0  0  0  0  0  0  0  0
    4.5056    0.7354    0.3024 C   0  0  0  0  0  0  0  0  0  0  0  0
    5.7989    1.0685   -0.1118 C   0  0  0  0  0  0  0  0  0  0  0  0
    6.3786    0.4373   -1.2171 C   0  0  0  0  0  0  0  0  0  0  0  0
    5.6683   -0.5353   -1.9213 C   0  0  0  0  0  0  0  0  0  0  0  0
    4.3785   -0.8772   -1.5210 C   0  0  0  0  0  0  0  0  0  0  0  0
    3.8183   -0.2351   -0.4128 C   0  0  0  0  0  0  0  0  0  0  0  0
    2.4737   -0.5384    0.0591 C   0  0  0  0  0  0  0  0  0  0  0  0
    1.7303   -1.3235   -0.5263 O   0  0  0  0  0  0  0  0  0  0  0  0
    0.3701    1.9244    0.1839 H   0  0  0  0  0  0  0  0  0  0  0  0
   -1.2892    1.5383   -0.3195 H   0  0  0  0  0  0  0  0  0  0  0  0
   -0.9538    1.9549    1.4009 H   0  0  0  0  0  0  0  0  0  0  0  0
    0.0042   -0.4351   -0.0608 H   0  0  0  0  0  0  0  0  0  0  0  0
   -1.2682   -1.7314    1.5162 H   0  0  0  0  0  0  0  0  0  0  0  0
   -1.9643   -0.2286    2.1148 H   0  0  0  0  0  0  0  0  0  0  0  0
   -1.4381   -2.3490   -0.9636 H   0  0  0  0  0  0  0  0  0  0  0  0
   -3.0558   -2.5702   -2.8021 H   0  0  0  0  0  0  0  0  0  0  0  0
   -5.1311   -1.2247   -2.8064 H   0  0  0  0  0  0  0  0  0  0  0  0
   -5.6101    0.3394   -1.0097 H   0  0  0  0  0  0  0  0  0  0  0  0
    0.8193   -1.2542    2.0375 H   0  0  0  0  0  0  0  0  0  0  0  0
    0.5937    0.4103    2.6712 H   0  0  0  0  0  0  0  0  0  0  0  0
    6.3644    1.8252    0.4290 H   0  0  0  0  0  0  0  0  0  0  0  0
    7.3872    0.7049   -1.5280 H   0  0  0  0  0  0  0  0  0  0  0  0
    6.1235   -1.0251   -2.7803 H   0  0  0  0  0  0  0  0  0  0  0  0
    3.8238   -1.6361   -2.0680 H   0  0  0  0  0  0  0  0  0  0  0  0
  1  2  1  0
  2  3  1  0
  3  4  1  0
  4  5  2  0
  5  6  1  0
  6  7  2  0
  7  8  1  0
  8  9  2  0
  9 10  1  0
 10 11  1  0
 11 12  1  0
 11 13  1  0
 11 14  1  0
  2 15  1  0
 15 16  1  0
 16 17  1  0
 17 18  2  0
 18 19  1  0
 19 20  2  0
 20 21  1  0
 21 22  2  0
 22 23  1  0
 23 24  2  0
 24 25  1  0
 25 26  2  0
  9  4  1  0
 25 16  1  0
 24 19  1  0
  1 27  1  0
  1 28  1  0
  1 29  1  0
  2 30  1  6
  3 31  1  0
  3 32  1  0
  5 33  1  0
  6 34  1  0
  7 35  1  0
  8 36  1  0
 15 37  1  0
 15 38  1  0
 20 39  1  0
 21 40  1  0
 22 41  1  0
 23 42  1  0
M  CHG  1   2   1
M  END
$$$$
