
     RDKit          3D

 62 65  0  0  0  0  0  0  0  0999 V2000
    3.1067    0.2631   -3.5006 C   0  0  0  0  0  0  0  0  0  0  0  0
    2.3874    1.2314   -2.6065 C   0  0  0  0  0  0  0  0  0  0  0  0
    1.7124    2.3283   -3.1543 C   0  0  0  0  0  0  0  0  0  0  0  0
    1.0022    3.2012   -2.3315 C   0  0  0  0  0  0  0  0  0  0  0  0
    0.9531    2.9763   -0.9567 C   0  0  0  0  0  0  0  0  0  0  0  0
    1.6246    1.8888   -0.3975 C   0  0  0  0  0  0  0  0  0  0  0  0
    1.4581    1.7250    0.9491 O   0  0  0  0  0  0  0  0  0  0  0  0
    2.6039    1.2461    1.6578 C   0  0  0  0  0  0  0  0  0  0  0  0
    2.1958    1.1306    3.1308 C   0  0  0  0  0  0  0  0  0  0  0  0
    0.9961    0.2245    3.2992 N   0  0  2  0  0  0  0  0  0  0  0  0
    0.2483    0.4451    4.5655 C   0  0  0  0  0  0  0  0  0  0  0  0
    1.2601   -1.2178    3.0097 C   0  0  0  0  0  0  0  0  0  0  0  0
    0.7463   -1.4681    1.6826 N   0  0  0  0  0  0  0  0  0  0  0  0
   -0.4355   -0.8496    1.3442 N   0  0  0  0  0  0  0  0  0  0  0  0
   -0.9362   -1.0555    0.1594 C   0  0  0  0  0  0  0  0  0  0  0  0
   -2.1939   -0.3423   -0.1694 C   0  0  0  0  0  0  0  0  0  0  0  0
   -2.1225    0.7351   -1.0631 C   0  0  0  0  0  0  0  0  0  0  0  0
   -3.2737    1.4576   -1.3890 C   0  0  0  0  0  0  0  0  0  0  0  0
   -3.1960    2.6282   -2.3243 C   0  0  0  0  0  0  0  0  0  0  0  0
   -4.4853    1.1076   -0.7844 C   0  0  0  0  0  0  0  0  0  0  0  0
   -4.5535    0.0356    0.1117 C   0  0  0  0  0  0  0  0  0  0  0  0
   -3.4102   -0.7105    0.4275 C   0  0  0  0  0  0  0  0  0  0  0  0
   -3.5118   -1.8504    1.3998 C   0  0  0  0  0  0  0  0  0  0  0  0
   -0.3081   -1.9449   -0.8444 C   0  0  0  0  0  0  0  0  0  0  0  0
   -0.8674   -2.2018   -2.1026 C   0  0  0  0  0  0  0  0  0  0  0  0
   -0.2103   -3.0479   -3.0001 C   0  0  0  0  0  0  0  0  0  0  0  0
    0.9979   -3.6459   -2.6457 C   0  0  0  0  0  0  0  0  0  0  0  0
    1.5503   -3.4045   -1.3888 C   0  0  0  0  0  0  0  0  0  0  0  0
    0.8908   -2.5565   -0.4901 C   0  0  0  0  0  0  0  0  0  0  0  0
    1.4622   -2.3081    0.8433 C   0  0  0  0  0  0  0  0  0  0  0  0
    2.5332   -2.8098    1.1717 O   0  0  0  0  0  0  0  0  0  0  0  0
    2.3305    1.0112   -1.2222 C   0  0  0  0  0  0  0  0  0  0  0  0
    2.4219   -0.5280   -3.8210 H   0  0  0  0  0  0  0  0  0  0  0  0
    3.9554   -0.1927   -2.9799 H   0  0  0  0  0  0  0  0  0  0  0  0
    3.5032    0.7698   -4.3867 H   0  0  0  0  0  0  0  0  0  0  0  0
    1.7352    2.5084   -4.2278 H   0  0  0  0  0  0  0  0  0  0  0  0
    0.4823    4.0529   -2.7639 H   0  0  0  0  0  0  0  0  0  0  0  0
    0.3850    3.6535   -0.3239 H   0  0  0  0  0  0  0  0  0  0  0  0
    2.9355    0.2701    1.2936 H   0  0  0  0  0  0  0  0  0  0  0  0
    3.4266    1.9640    1.5610 H   0  0  0  0  0  0  0  0  0  0  0  0
    1.8909    2.1167    3.4984 H   0  0  0  0  0  0  0  0  0  0  0  0
    3.0050    0.7438    3.7583 H   0  0  0  0  0  0  0  0  0  0  0  0
    0.3434    0.4394    2.5184 H   0  0  0  0  0  0  0  0  0  0  0  0
   -0.0270    1.5015    4.6236 H   0  0  0  0  0  0  0  0  0  0  0  0
    0.8926    0.1637    5.4025 H   0  0  0  0  0  0  0  0  0  0  0  0
   -0.6585   -0.1660    4.5455 H   0  0  0  0  0  0  0  0  0  0  0  0
    0.6974   -1.8406    3.7136 H   0  0  0  0  0  0  0  0  0  0  0  0
    2.3298   -1.4226    3.1144 H   0  0  0  0  0  0  0  0  0  0  0  0
   -1.1700    1.0106   -1.5095 H   0  0  0  0  0  0  0  0  0  0  0  0
   -2.9339    3.5339   -1.7686 H   0  0  0  0  0  0  0  0  0  0  0  0
   -2.4418    2.4567   -3.0996 H   0  0  0  0  0  0  0  0  0  0  0  0
   -4.1528    2.7891   -2.8318 H   0  0  0  0  0  0  0  0  0  0  0  0
   -5.3917    1.6685   -1.0081 H   0  0  0  0  0  0  0  0  0  0  0  0
   -5.5149   -0.2106    0.5600 H   0  0  0  0  0  0  0  0  0  0  0  0
   -3.0107   -2.7411    1.0073 H   0  0  0  0  0  0  0  0  0  0  0  0
   -4.5560   -2.1254    1.5831 H   0  0  0  0  0  0  0  0  0  0  0  0
   -3.0625   -1.5715    2.3580 H   0  0  0  0  0  0  0  0  0  0  0  0
   -1.8131   -1.7629   -2.4111 H   0  0  0  0  0  0  0  0  0  0  0  0
   -0.6454   -3.2449   -3.9786 H   0  0  0  0  0  0  0  0  0  0  0  0
    1.5041   -4.3071   -3.3467 H   0  0  0  0  0  0  0  0  0  0  0  0
    2.4883   -3.8840   -1.1145 H   0  0  0  0  0  0  0  0  0  0  0  0
    2.8262    0.1328   -0.8231 H   0  0  0  0  0  0  0  0  0  0  0  0
  1  2  1  0
  2  3  2  0
  3  4  1  0
  4  5  2  0
  5  6  1  0
  6  7  1  0
  7  8  1  0
  8  9  1  0
  9 10  1  0
 10 11  1  0
 10 12  1  0
 12 13  1  0
 13 14  1  0
 14 15  2  0
 15 16  1  0
 16 17  2  0
 17 18  1  0
 18 19  1  0
 18 20  2  0
 20 21  1  0
 21 22  2  0
 22 23  1  0
 15 24  1  0
 24 25  2  0
 25 26  1  0
 26 27  2  0
 27 28  1  0
 28 29  2  0
 29 30  1  0
 30 31  2  0
  6 32  2  0
 32  2  1  0
 30 13  1  0
 22 16  1  0
 29 24  1  0
  1 33  1  0
  1 34  1  0
  1 35  1  0
  3 36  1  0
  4 37  1  0
  5 38  1  0
  8 39  1  0
  8 40  1  0
  9 41  1  0
  9 42  1  0
 10 43  1  6
 11 44  1  0
 11 45  1  0
 11 46  1  0
 12 47  1  0
 12 48  1  0
 17 49  1  0
 19 50  1  0
 19 51  1  0
 19 52  1  0
 20 53  1  0
 21 54  1  0
 23 55  1  0
 23 56  1  0
 23 57  1  0
 25 58  1  0
 26 59  1  0
 27 60  1  0
 28 61  1  0
 32 62  1  0
M  CHG  1  10   1
M  END
$$$$
