
     RDKit          3D

 62 65  0  0  0  0  0  0  0  0999 V2000
    7.9954    0.3299   -2.4891 C   0  0  0  0  0  0  0  0  0  0  0  0
    7.2377    0.5315   -1.2097 C   0  0  0  0  0  0  0  0  0  0  0  0
    7.9046    0.5107    0.0182 C   0  0  0  0  0  0  0  0  0  0  0  0
    7.2039    0.7371    1.2025 C   0  0  0  0  0  0  0  0  0  0  0  0
    5.8309    0.9943    1.1729 C   0  0  0  0  0  0  0  0  0  0  0  0
    5.1544    1.0278   -0.0462 C   0  0  0  0  0  0  0  0  0  0  0  0
    3.8185    1.2675   -0.2189 O   0  0  0  0  0  0  0  0  0  0  0  0
    3.0353    1.4581    0.9578 C   0  0  0  0  0  0  0  0  0  0  0  0
    1.5719    1.6649    0.5452 C   0  0  0  0  0  0  0  0  0  0  0  0
    0.9199    0.4229   -0.0022 N   0  0  1  0  0  0  0  0  0  0  0  0
    1.4467   -0.0649   -1.3124 C   0  0  0  0  0  0  0  0  0  0  0  0
    0.6999   -0.6725    0.9838 C   0  0  0  0  0  0  0  0  0  0  0  0
   -0.6765   -1.0937    0.8441 N   0  0  0  0  0  0  0  0  0  0  0  0
   -1.5495   -0.2562    0.1806 N   0  0  0  0  0  0  0  0  0  0  0  0
   -2.7993   -0.6100    0.0861 C   0  0  0  0  0  0  0  0  0  0  0  0
   -3.7001    0.3136   -0.6380 C   0  0  0  0  0  0  0  0  0  0  0  0
   -4.3600    1.2973    0.1102 C   0  0  0  0  0  0  0  0  0  0  0  0
   -5.2144    2.2021   -0.5266 C   0  0  0  0  0  0  0  0  0  0  0  0
   -5.9639    3.2331    0.2658 C   0  0  0  0  0  0  0  0  0  0  0  0
   -5.4087    2.0935   -1.9084 C   0  0  0  0  0  0  0  0  0  0  0  0
   -4.7394    1.1154   -2.6516 C   0  0  0  0  0  0  0  0  0  0  0  0
   -3.8667    0.2147   -2.0287 C   0  0  0  0  0  0  0  0  0  0  0  0
   -3.1654   -0.8324   -2.8448 C   0  0  0  0  0  0  0  0  0  0  0  0
   -3.3412   -1.8605    0.6619 C   0  0  0  0  0  0  0  0  0  0  0  0
   -4.6852   -2.2372    0.5457 C   0  0  0  0  0  0  0  0  0  0  0  0
   -5.1248   -3.4339    1.1177 C   0  0  0  0  0  0  0  0  0  0  0  0
   -4.2308   -4.2547    1.8045 C   0  0  0  0  0  0  0  0  0  0  0  0
   -2.8922   -3.8820    1.9214 C   0  0  0  0  0  0  0  0  0  0  0  0
   -2.4519   -2.6836    1.3472 C   0  0  0  0  0  0  0  0  0  0  0  0
   -1.0407   -2.2816    1.4641 C   0  0  0  0  0  0  0  0  0  0  0  0
   -0.2346   -2.9698    2.0824 O   0  0  0  0  0  0  0  0  0  0  0  0
    5.8635    0.8046   -1.2312 C   0  0  0  0  0  0  0  0  0  0  0  0
    8.8502   -0.3371   -2.3359 H   0  0  0  0  0  0  0  0  0  0  0  0
    8.3591    1.2915   -2.8639 H   0  0  0  0  0  0  0  0  0  0  0  0
    7.3579   -0.1296   -3.2517 H   0  0  0  0  0  0  0  0  0  0  0  0
    8.9758    0.3218    0.0599 H   0  0  0  0  0  0  0  0  0  0  0  0
    7.7346    0.7189    2.1521 H   0  0  0  0  0  0  0  0  0  0  0  0
    5.3347    1.1719    2.1204 H   0  0  0  0  0  0  0  0  0  0  0  0
    3.1212    0.5933    1.6254 H   0  0  0  0  0  0  0  0  0  0  0  0
    3.3754    2.3611    1.4786 H   0  0  0  0  0  0  0  0  0  0  0  0
    1.4880    2.4261   -0.2382 H   0  0  0  0  0  0  0  0  0  0  0  0
    0.9699    1.9818    1.4037 H   0  0  0  0  0  0  0  0  0  0  0  0
   -0.0725    0.6613   -0.1824 H   0  0  0  0  0  0  0  0  0  0  0  0
    1.5460    0.7902   -1.9858 H   0  0  0  0  0  0  0  0  0  0  0  0
    2.4067   -0.5608   -1.1535 H   0  0  0  0  0  0  0  0  0  0  0  0
    0.7250   -0.7751   -1.7263 H   0  0  0  0  0  0  0  0  0  0  0  0
    0.8346   -0.2834    1.9989 H   0  0  0  0  0  0  0  0  0  0  0  0
    1.4041   -1.4909    0.7993 H   0  0  0  0  0  0  0  0  0  0  0  0
   -4.2135    1.3558    1.1866 H   0  0  0  0  0  0  0  0  0  0  0  0
   -6.9247    2.8257    0.5951 H   0  0  0  0  0  0  0  0  0  0  0  0
   -6.1459    4.1306   -0.3346 H   0  0  0  0  0  0  0  0  0  0  0  0
   -5.3898    3.5421    1.1457 H   0  0  0  0  0  0  0  0  0  0  0  0
   -6.0881    2.7739   -2.4206 H   0  0  0  0  0  0  0  0  0  0  0  0
   -4.9143    1.0647   -3.7254 H   0  0  0  0  0  0  0  0  0  0  0  0
   -3.5129   -1.8310   -2.5623 H   0  0  0  0  0  0  0  0  0  0  0  0
   -2.0820   -0.7689   -2.7016 H   0  0  0  0  0  0  0  0  0  0  0  0
   -3.3598   -0.7028   -3.9148 H   0  0  0  0  0  0  0  0  0  0  0  0
   -5.4107   -1.6230    0.0174 H   0  0  0  0  0  0  0  0  0  0  0  0
   -6.1694   -3.7283    1.0284 H   0  0  0  0  0  0  0  0  0  0  0  0
   -4.5781   -5.1857    2.2492 H   0  0  0  0  0  0  0  0  0  0  0  0
   -2.2001   -4.5278    2.4592 H   0  0  0  0  0  0  0  0  0  0  0  0
    5.3415    0.8479   -2.1845 H   0  0  0  0  0  0  0  0  0  0  0  0
  1  2  1  0
  2  3  2  0
  3  4  1  0
  4  5  2  0
  5  6  1  0
  6  7  1  0
  7  8  1  0
  8  9  1  0
  9 10  1  0
 10 11  1  0
 10 12  1  0
 12 13  1  0
 13 14  1  0
 14 15  2  0
 15 16  1  0
 16 17  2  0
 17 18  1  0
 18 19  1  0
 18 20  2  0
 20 21  1  0
 21 22  2  0
 22 23  1  0
 15 24  1  0
 24 25  2  0
 25 26  1  0
 26 27  2  0
 27 28  1  0
 28 29  2  0
 29 30  1  0
 30 31  2  0
  6 32  2  0
 32  2  1  0
 30 13  1  0
 22 16  1  0
 29 24  1  0
  1 33  1  0
  1 34  1  0
  1 35  1  0
  3 36  1  0
  4 37  1  0
  5 38  1  0
  8 39  1  0
  8 40  1  0
  9 41  1  0
  9 42  1  0
 10 43  1  6
 11 44  1  0
 11 45  1  0
 11 46  1  0
 12 47  1  0
 12 48  1  0
 17 49  1  0
 19 50  1  0
 19 51  1  0
 19 52  1  0
 20 53  1  0
 21 54  1  0
 23 55  1  0
 23 56  1  0
 23 57  1  0
 25 58  1  0
 26 59  1  0
 27 60  1  0
 28 61  1  0
 32 62  1  0
M  CHG  1  10   1
M  END
$$$$
