
     RDKit          3D

 42 44  0  0  0  0  0  0  0  0999 V2000
    1.5360    1.8953   -1.7206 C   0  0  0  0  0  0  0  0  0  0  0  0
    0.4899    1.2616   -0.8585 N   0  0  1  0  0  0  0  0  0  0  0  0
    1.0464    0.6603    0.4073 C   0  0  0  0  0  0  0  0  0  0  0  0
    1.9457   -0.5260    0.1602 C   0  0  0  0  0  0  0  0  0  0  0  0
    1.3648   -1.7439   -0.2411 C   0  0  0  0  0  0  0  0  0  0  0  0
    2.1601   -2.8591   -0.4896 C   0  0  0  0  0  0  0  0  0  0  0  0
    3.5396   -2.7708   -0.3419 C   0  0  0  0  0  0  0  0  0  0  0  0
    4.1317   -1.5690    0.0535 C   0  0  0  0  0  0  0  0  0  0  0  0
    3.3464   -0.4402    0.3065 C   0  0  0  0  0  0  0  0  0  0  0  0
    3.8295    0.7843    0.6787 O   0  0  0  0  0  0  0  0  0  0  0  0
    5.2297    0.9157    0.9150 C   0  0  0  0  0  0  0  0  0  0  0  0
    5.9213    0.6893   -0.2189 F   0  0  0  0  0  0  0  0  0  0  0  0
    5.4638    2.1850    1.3088 F   0  0  0  0  0  0  0  0  0  0  0  0
    5.6370    0.0799    1.8877 F   0  0  0  0  0  0  0  0  0  0  0  0
   -0.6625    2.1881   -0.6096 C   0  0  0  0  0  0  0  0  0  0  0  0
   -1.8035    1.4788   -0.0855 N   0  0  0  0  0  0  0  0  0  0  0  0
   -2.3600    1.9741    1.0539 N   0  0  0  0  0  0  0  0  0  0  0  0
   -3.3944    1.4726    1.5436 N   0  0  0  0  0  0  0  0  0  0  0  0
   -4.0460    0.4190    0.8883 C   0  0  0  0  0  0  0  0  0  0  0  0
   -5.2256   -0.0970    1.4336 C   0  0  0  0  0  0  0  0  0  0  0  0
   -5.8997   -1.1503    0.8073 C   0  0  0  0  0  0  0  0  0  0  0  0
   -5.3989   -1.6997   -0.3732 C   0  0  0  0  0  0  0  0  0  0  0  0
   -4.2242   -1.1967   -0.9279 C   0  0  0  0  0  0  0  0  0  0  0  0
   -3.5667   -0.1428   -0.2863 C   0  0  0  0  0  0  0  0  0  0  0  0
   -2.3308    0.4279   -0.8051 C   0  0  0  0  0  0  0  0  0  0  0  0
   -1.7587   -0.0308   -1.7919 O   0  0  0  0  0  0  0  0  0  0  0  0
    2.2642    1.1344   -2.0102 H   0  0  0  0  0  0  0  0  0  0  0  0
    2.0114    2.7030   -1.1576 H   0  0  0  0  0  0  0  0  0  0  0  0
    1.0514    2.2841   -2.6206 H   0  0  0  0  0  0  0  0  0  0  0  0
    0.0735    0.4918   -1.4110 H   0  0  0  0  0  0  0  0  0  0  0  0
    0.2031    0.3244    1.0221 H   0  0  0  0  0  0  0  0  0  0  0  0
    1.5391    1.4664    0.9619 H   0  0  0  0  0  0  0  0  0  0  0  0
    0.2862   -1.8430   -0.3561 H   0  0  0  0  0  0  0  0  0  0  0  0
    1.7074   -3.8013   -0.7936 H   0  0  0  0  0  0  0  0  0  0  0  0
    4.1618   -3.6440   -0.5325 H   0  0  0  0  0  0  0  0  0  0  0  0
    5.2151   -1.5637    0.1504 H   0  0  0  0  0  0  0  0  0  0  0  0
   -0.9487    2.6285   -1.5714 H   0  0  0  0  0  0  0  0  0  0  0  0
   -0.3275    2.9725    0.0785 H   0  0  0  0  0  0  0  0  0  0  0  0
   -5.6279    0.3231    2.3537 H   0  0  0  0  0  0  0  0  0  0  0  0
   -6.8185   -1.5414    1.2414 H   0  0  0  0  0  0  0  0  0  0  0  0
   -5.9278   -2.5181   -0.8586 H   0  0  0  0  0  0  0  0  0  0  0  0
   -3.8337   -1.6224   -1.8494 H   0  0  0  0  0  0  0  0  0  0  0  0
  1  2  1  0
  2  3  1  0
  3  4  1  0
  4  5  2  0
  5  6  1  0
  6  7  2  0
  7  8  1  0
  8  9  2  0
  9 10  1  0
 10 11  1  0
 11 12  1  0
 11 13  1  0
 11 14  1  0
  2 15  1  0
 15 16  1  0
 16 17  1  0
 17 18  2  0
 18 19  1  0
 19 20  2  0
 20 21  1  0
 21 22  2  0
 22 23  1  0
 23 24  2  0
 24 25  1  0
 25 26  2  0
  9  4  1  0
 25 16  1  0
 24 19  1  0
  1 27  1  0
  1 28  1  0
  1 29  1  0
  2 30  1  6
  3 31  1  0
  3 32  1  0
  5 33  1  0
  6 34  1  0
  7 35  1  0
  8 36  1  0
 15 37  1  0
 15 38  1  0
 20 39  1  0
 21 40  1  0
 22 41  1  0
 23 42  1  0
M  CHG  1   2   1
M  END
$$$$
