REF_CHEMBL115__H_AF__e8__s20260927
     RDKit          3D

 94 98  0  0  0  0  0  0  0  0999 V2000
    9.8640  -11.5580   -0.5610 C   0  0  0  0  0  0  0  0  0  0  0  0
   10.0100  -12.6880   -1.5940 C   0  0  0  0  0  0  0  0  0  0  0  0
   10.8740  -13.7950   -0.9690 C   0  0  0  0  0  0  0  0  0  0  0  0
   10.6980  -12.1170   -2.8430 C   0  0  0  0  0  0  0  0  0  0  0  0
    8.6590  -13.1960   -1.9370 N   0  0  0  0  0  0  0  0  0  0  0  0
    7.6030  -13.2350   -1.0650 C   0  0  0  0  0  0  0  0  0  0  0  0
    7.6520  -12.8720    0.1140 O   0  0  0  0  0  0  0  0  0  0  0  0
    6.2990  -13.8730   -1.5800 C   0  0  2  0  0  0  0  0  0  0  0  0
    6.6480  -14.6630   -2.8780 C   0  0  0  0  0  0  0  0  0  0  0  0
    7.0970  -13.7250   -4.0070 N   0  0  0  0  0  0  0  0  0  0  0  0
    7.5690  -14.4860   -5.2350 C   0  0  0  0  0  0  0  0  0  0  0  0
    9.0580  -14.6110   -5.3110 C   0  0  0  0  0  0  0  0  0  0  0  0
    9.7640  -15.5230   -4.5190 C   0  0  0  0  0  0  0  0  0  0  0  0
   11.1550  -15.5720   -4.5980 C   0  0  0  0  0  0  0  0  0  0  0  0
   11.7950  -14.6980   -5.4580 C   0  0  0  0  0  0  0  0  0  0  0  0
   11.1400  -13.8050   -6.2280 N   0  0  0  0  0  0  0  0  0  0  0  0
    9.7950  -13.7950   -6.1620 C   0  0  0  0  0  0  0  0  0  0  0  0
    6.0750  -12.6350   -4.3120 C   0  0  0  0  0  0  0  0  0  0  0  0
    5.6690  -11.8540   -3.0350 C   0  0  0  0  0  0  0  0  0  0  0  0
    5.2310  -12.8020   -1.9280 N   0  0  0  0  0  0  0  0  0  0  0  0
    4.7080  -12.0920   -0.6800 C   0  0  0  0  0  0  0  0  0  0  0  0
    4.0650  -13.1370    0.2560 C   0  0  1  0  0  0  0  0  0  0  0  0
    4.0790  -12.5540    1.5820 O   0  0  0  0  0  0  0  0  0  0  0  0
    2.6210  -13.5410   -0.0990 C   0  0  0  0  0  0  0  0  0  0  0  0
    1.8680  -12.5470   -1.0080 C   0  0  1  0  0  0  0  0  0  0  0  0
    1.4470  -13.2130   -2.3330 C   0  0  0  0  0  0  0  0  0  0  0  0
    1.9720  -12.4930   -3.5500 C   0  0  0  0  0  0  0  0  0  0  0  0
    2.3440  -13.2090   -4.6970 C   0  0  0  0  0  0  0  0  0  0  0  0
    2.8140  -12.5400   -5.8270 C   0  0  0  0  0  0  0  0  0  0  0  0
    2.9210  -11.1520   -5.8250 C   0  0  0  0  0  0  0  0  0  0  0  0
    2.5620  -10.4300   -4.6880 C   0  0  0  0  0  0  0  0  0  0  0  0
    2.0920  -11.0960   -3.5560 C   0  0  0  0  0  0  0  0  0  0  0  0
    0.6790  -11.9570   -0.2480 C   0  0  0  0  0  0  0  0  0  0  0  0
    0.4110  -10.7590   -0.3490 O   0  0  0  0  0  0  0  0  0  0  0  0
    0.0700  -12.7750    0.6660 N   0  0  0  0  0  0  0  0  0  0  0  0
   -1.0990  -12.3500    1.4150 C   0  0  1  0  0  0  0  0  0  0  0  0
   -2.3850  -12.8480    0.8100 C   0  0  0  0  0  0  0  0  0  0  0  0
   -2.7650  -12.8660   -0.5260 C   0  0  0  0  0  0  0  0  0  0  0  0
   -4.0380  -13.3420   -0.8510 C   0  0  0  0  0  0  0  0  0  0  0  0
   -4.9200  -13.7700    0.1510 C   0  0  0  0  0  0  0  0  0  0  0  0
   -4.5460  -13.7210    1.4940 C   0  0  0  0  0  0  0  0  0  0  0  0
   -3.2780  -13.2610    1.8090 C   0  0  0  0  0  0  0  0  0  0  0  0
   -2.7000  -13.0620    3.1770 C   0  0  0  0  0  0  0  0  0  0  0  0
   -1.1990  -12.9530    2.8550 C   0  0  1  0  0  0  0  0  0  0  0  0
   -0.5940  -14.2720    2.9490 O   0  0  0  0  0  0  0  0  0  0  0  0
    9.9185  -11.9794    0.4536 H   0  0  0  0  0  0  0  0  0  0  0  0
   10.6753  -10.8281   -0.6989 H   0  0  0  0  0  0  0  0  0  0  0  0
    8.8938  -11.0583   -0.6989 H   0  0  0  0  0  0  0  0  0  0  0  0
   10.8206  -13.7266    0.1276 H   0  0  0  0  0  0  0  0  0  0  0  0
   10.5018  -14.7779   -1.2936 H   0  0  0  0  0  0  0  0  0  0  0  0
   11.9179  -13.6727   -1.2936 H   0  0  0  0  0  0  0  0  0  0  0  0
   11.5111  -11.4421   -2.5375 H   0  0  0  0  0  0  0  0  0  0  0  0
   11.1114  -12.9411   -3.4430 H   0  0  0  0  0  0  0  0  0  0  0  0
    9.9642  -11.5589   -3.4430 H   0  0  0  0  0  0  0  0  0  0  0  0
    8.5620  -13.5690   -2.8800 H   0  0  0  0  0  0  0  0  0  0  0  0
    5.8837  -14.5222   -0.7951 H   0  0  0  0  0  0  0  0  0  0  0  0
    7.4607  -15.3707   -2.6575 H   0  0  0  0  0  0  0  0  0  0  0  0
    5.7441  -15.1941   -3.2110 H   0  0  0  0  0  0  0  0  0  0  0  0
    7.9490  -13.2450   -3.6410 H   0  0  0  0  0  0  0  0  0  0  0  0
    7.1336  -15.4959   -5.2099 H   0  0  0  0  0  0  0  0  0  0  0  0
    7.2417  -13.9185   -6.1187 H   0  0  0  0  0  0  0  0  0  0  0  0
    9.2246  -16.1976   -3.8378 H   0  0  0  0  0  0  0  0  0  0  0  0
   11.7292  -16.2879   -3.9915 H   0  0  0  0  0  0  0  0  0  0  0  0
   12.8929  -14.7329   -5.5169 H   0  0  0  0  0  0  0  0  0  0  0  0
    9.2485  -13.1020   -6.8185 H   0  0  0  0  0  0  0  0  0  0  0  0
    6.5103  -11.9312   -5.0367 H   0  0  0  0  0  0  0  0  0  0  0  0
    5.1737  -13.1154   -4.7206 H   0  0  0  0  0  0  0  0  0  0  0  0
    6.5302  -11.2662   -2.6845 H   0  0  0  0  0  0  0  0  0  0  0  0
    4.8250  -11.1937   -3.2833 H   0  0  0  0  0  0  0  0  0  0  0  0
    4.3620  -13.2740   -2.2520 H   0  0  0  0  0  0  0  0  0  0  0  0
    5.5410  -11.5946   -0.1616 H   0  0  0  0  0  0  0  0  0  0  0  0
    3.9606  -11.3372   -0.9658 H   0  0  0  0  0  0  0  0  0  0  0  0
    4.6460  -14.0668    0.1667 H   0  0  0  0  0  0  0  0  0  0  0  0
    3.1900  -12.7080    1.9730 H   0  0  0  0  0  0  0  0  0  0  0  0
    2.6556  -14.5133   -0.6123 H   0  0  0  0  0  0  0  0  0  0  0  0
    2.0676  -13.5668    0.8513 H   0  0  0  0  0  0  0  0  0  0  0  0
    2.5414  -11.7205   -1.2791 H   0  0  0  0  0  0  0  0  0  0  0  0
    1.8301  -14.2441   -2.3438 H   0  0  0  0  0  0  0  0  0  0  0  0
    0.3485  -13.1813   -2.3816 H   0  0  0  0  0  0  0  0  0  0  0  0
    2.2645  -14.3061   -4.7056 H   0  0  0  0  0  0  0  0  0  0  0  0
    3.1010  -13.1108   -6.7224 H   0  0  0  0  0  0  0  0  0  0  0  0
    3.2881  -10.6262   -6.7187 H   0  0  0  0  0  0  0  0  0  0  0  0
    2.6494   -9.3335   -4.6834 H   0  0  0  0  0  0  0  0  0  0  0  0
    1.8133  -10.5206   -2.6609 H   0  0  0  0  0  0  0  0  0  0  0  0
    0.3120  -13.7560    0.7100 H   0  0  0  0  0  0  0  0  0  0  0  0
   -0.9768  -11.2568    1.4118 H   0  0  0  0  0  0  0  0  0  0  0  0
   -2.0792  -12.5135   -1.3105 H   0  0  0  0  0  0  0  0  0  0  0  0
   -4.3514  -13.3813   -1.9047 H   0  0  0  0  0  0  0  0  0  0  0  0
   -5.9158  -14.1478   -0.1242 H   0  0  0  0  0  0  0  0  0  0  0  0
   -5.2416  -14.0401    2.2842 H   0  0  0  0  0  0  0  0  0  0  0  0
   -3.0797  -12.1417    3.6450 H   0  0  0  0  0  0  0  0  0  0  0  0
   -2.9512  -13.8582    3.8932 H   0  0  0  0  0  0  0  0  0  0  0  0
   -0.6580  -12.3060    3.5612 H   0  0  0  0  0  0  0  0  0  0  0  0
    0.3550  -14.0880    3.1090 H   0  0  0  0  0  0  0  0  0  0  0  0
  1  2  1  0
  2  3  1  0
  2  4  1  0
  2  5  1  0
  5  6  1  0
  6  7  2  0
  6  8  1  0
  8  9  1  0
  9 10  1  0
 10 11  1  0
 11 12  1  0
 12 13  2  0
 13 14  1  0
 14 15  2  0
 15 16  1  0
 16 17  2  0
 10 18  1  0
 18 19  1  0
 19 20  1  0
 20 21  1  0
 21 22  1  0
 22 23  1  0
 22 24  1  0
 24 25  1  0
 25 26  1  0
 26 27  1  0
 27 28  2  0
 28 29  1  0
 29 30  2  0
 30 31  1  0
 31 32  2  0
 25 33  1  0
 33 34  2  0
 33 35  1  0
 35 36  1  0
 36 37  1  0
 37 38  2  0
 38 39  1  0
 39 40  2  0
 40 41  1  0
 41 42  2  0
 42 43  1  0
 43 44  1  0
 44 45  1  0
 20  8  1  0
 32 27  1  0
 44 36  1  0
 17 12  1  0
 42 37  1  0
  1 46  1  0
  1 47  1  0
  1 48  1  0
  3 49  1  0
  3 50  1  0
  3 51  1  0
  4 52  1  0
  4 53  1  0
  4 54  1  0
  5 55  1  0
  8 56  1  1
  9 57  1  0
  9 58  1  0
 10 59  1  0
 11 60  1  0
 11 61  1  0
 13 62  1  0
 14 63  1  0
 15 64  1  0
 17 65  1  0
 18 66  1  0
 18 67  1  0
 19 68  1  0
 19 69  1  0
 20 70  1  0
 21 71  1  0
 21 72  1  0
 22 73  1  1
 23 74  1  0
 24 75  1  0
 24 76  1  0
 25 77  1  6
 26 78  1  0
 26 79  1  0
 28 80  1  0
 29 81  1  0
 30 82  1  0
 31 83  1  0
 32 84  1  0
 35 85  1  0
 36 86  1  1
 38 87  1  0
 39 88  1  0
 40 89  1  0
 41 90  1  0
 43 91  1  0
 43 92  1  0
 44 93  1  1
 45 94  1  0
M  CHG  2  10   1  20   1
M  END
>  <meeko>  (1) 
{"is_sidechain": [false], "free_energy": -10.192, "intermolecular_energy": -17.939, "internal_energy": -1.703}

$$$$
REF_CHEMBL115__H_AF__e8__s20260927
     RDKit          3D

 94 98  0  0  0  0  0  0  0  0999 V2000
   10.0550  -16.2180   -4.0580 C   0  0  0  0  0  0  0  0  0  0  0  0
    8.7390  -16.7300   -3.4470 C   0  0  0  0  0  0  0  0  0  0  0  0
    9.0640  -17.3730   -2.0880 C   0  0  0  0  0  0  0  0  0  0  0  0
    8.1360  -17.7740   -4.3990 C   0  0  0  0  0  0  0  0  0  0  0  0
    7.8120  -15.5830   -3.2840 N   0  0  0  0  0  0  0  0  0  0  0  0
    6.7300  -15.5750   -2.4440 C   0  0  0  0  0  0  0  0  0  0  0  0
    6.3840  -16.5260   -1.7370 O   0  0  0  0  0  0  0  0  0  0  0  0
    5.8380  -14.3210   -2.4710 C   0  0  2  0  0  0  0  0  0  0  0  0
    6.5030  -13.2950   -3.4390 C   0  0  0  0  0  0  0  0  0  0  0  0
    7.8530  -12.8030   -2.8980 N   0  0  0  0  0  0  0  0  0  0  0  0
    8.5790  -11.9070   -3.8890 C   0  0  0  0  0  0  0  0  0  0  0  0
   10.0190  -12.2730   -4.0640 C   0  0  0  0  0  0  0  0  0  0  0  0
   10.9630  -12.0640   -3.0510 C   0  0  0  0  0  0  0  0  0  0  0  0
   12.3000  -12.3840   -3.2790 C   0  0  0  0  0  0  0  0  0  0  0  0
   12.6530  -12.8920   -4.5160 C   0  0  0  0  0  0  0  0  0  0  0  0
   11.7660  -13.0960   -5.5120 N   0  0  0  0  0  0  0  0  0  0  0  0
   10.4740  -12.8120   -5.2620 C   0  0  0  0  0  0  0  0  0  0  0  0
    7.7490  -12.2130   -1.4960 C   0  0  0  0  0  0  0  0  0  0  0  0
    7.0500  -13.1880   -0.5130 C   0  0  0  0  0  0  0  0  0  0  0  0
    5.7170  -13.6670   -1.0700 N   0  0  0  0  0  0  0  0  0  0  0  0
    4.9220  -14.5400   -0.0990 C   0  0  0  0  0  0  0  0  0  0  0  0
    3.5690  -14.9000   -0.7460 C   0  0  1  0  0  0  0  0  0  0  0  0
    3.4080  -16.3310   -0.5770 O   0  0  0  0  0  0  0  0  0  0  0  0
    2.3410  -14.1840   -0.1500 C   0  0  0  0  0  0  0  0  0  0  0  0
    1.7880  -13.0200   -0.9990 C   0  0  1  0  0  0  0  0  0  0  0  0
    1.3460  -13.5080   -2.3930 C   0  0  0  0  0  0  0  0  0  0  0  0
    2.0600  -12.8030   -3.5190 C   0  0  0  0  0  0  0  0  0  0  0  0
    1.7640  -13.1120   -4.8550 C   0  0  0  0  0  0  0  0  0  0  0  0
    2.4120  -12.4470   -5.8960 C   0  0  0  0  0  0  0  0  0  0  0  0
    3.3660  -11.4710   -5.6150 C   0  0  0  0  0  0  0  0  0  0  0  0
    3.6750  -11.1620   -4.2920 C   0  0  0  0  0  0  0  0  0  0  0  0
    3.0280  -11.8250   -3.2490 C   0  0  0  0  0  0  0  0  0  0  0  0
    0.6560  -12.3250   -0.2390 C   0  0  0  0  0  0  0  0  0  0  0  0
    0.4580  -11.1190   -0.3880 O   0  0  0  0  0  0  0  0  0  0  0  0
    0.0220  -13.0640    0.7250 N   0  0  0  0  0  0  0  0  0  0  0  0
   -1.0990  -12.5360    1.4800 C   0  0  1  0  0  0  0  0  0  0  0  0
   -2.4290  -12.9610    0.9140 C   0  0  0  0  0  0  0  0  0  0  0  0
   -2.8360  -12.9940   -0.4140 C   0  0  0  0  0  0  0  0  0  0  0  0
   -4.1440  -13.3890   -0.7010 C   0  0  0  0  0  0  0  0  0  0  0  0
   -5.0340  -13.7240    0.3300 C   0  0  0  0  0  0  0  0  0  0  0  0
   -4.6310  -13.6590    1.6640 C   0  0  0  0  0  0  0  0  0  0  0  0
   -3.3280  -13.2800    1.9410 C   0  0  0  0  0  0  0  0  0  0  0  0
   -2.7110  -13.0790    3.2920 C   0  0  0  0  0  0  0  0  0  0  0  0
   -1.2120  -13.0850    2.9410 C   0  0  1  0  0  0  0  0  0  0  0  0
   -0.6990  -14.4400    3.0660 O   0  0  0  0  0  0  0  0  0  0  0  0
   10.7524  -15.9467   -3.2518 H   0  0  0  0  0  0  0  0  0  0  0  0
   10.5024  -17.0077   -4.6795 H   0  0  0  0  0  0  0  0  0  0  0  0
    9.8511  -15.3336   -4.6795 H   0  0  0  0  0  0  0  0  0  0  0  0
    8.7281  -16.7085   -1.2783 H   0  0  0  0  0  0  0  0  0  0  0  0
    8.5466  -18.3403   -2.0069 H   0  0  0  0  0  0  0  0  0  0  0  0
   10.1497  -17.5300   -2.0069 H   0  0  0  0  0  0  0  0  0  0  0  0
    7.6706  -18.5797   -3.8123 H   0  0  0  0  0  0  0  0  0  0  0  0
    7.3751  -17.2957   -5.0332 H   0  0  0  0  0  0  0  0  0  0  0  0
    8.9305  -18.1941   -5.0332 H   0  0  0  0  0  0  0  0  0  0  0  0
    8.0040  -14.7820   -3.8840 H   0  0  0  0  0  0  0  0  0  0  0  0
    4.8280  -14.6093   -2.7977 H   0  0  0  0  0  0  0  0  0  0  0  0
    6.6633  -13.7766   -4.4149 H   0  0  0  0  0  0  0  0  0  0  0  0
    5.8333  -12.4276   -3.5351 H   0  0  0  0  0  0  0  0  0  0  0  0
    8.4460  -13.6590   -2.8220 H   0  0  0  0  0  0  0  0  0  0  0  0
    8.0768  -11.9847   -4.8646 H   0  0  0  0  0  0  0  0  0  0  0  0
    8.5467  -10.8824   -3.4901 H   0  0  0  0  0  0  0  0  0  0  0  0
   10.6510  -11.6497   -2.0810 H   0  0  0  0  0  0  0  0  0  0  0  0
   13.0563  -12.2361   -2.4941 H   0  0  0  0  0  0  0  0  0  0  0  0
   13.7089  -13.1420   -4.6967 H   0  0  0  0  0  0  0  0  0  0  0  0
    9.7359  -13.0183   -6.0510 H   0  0  0  0  0  0  0  0  0  0  0  0
    8.7615  -11.9972   -1.1242 H   0  0  0  0  0  0  0  0  0  0  0  0
    7.1461  -11.2948   -1.5545 H   0  0  0  0  0  0  0  0  0  0  0  0
    7.7023  -14.0576   -0.3451 H   0  0  0  0  0  0  0  0  0  0  0  0
    6.8627  -12.6565    0.4317 H   0  0  0  0  0  0  0  0  0  0  0  0
    5.0920  -12.8370   -1.1280 H   0  0  0  0  0  0  0  0  0  0  0  0
    5.4850  -15.4601    0.1164 H   0  0  0  0  0  0  0  0  0  0  0  0
    4.7528  -13.9941    0.8409 H   0  0  0  0  0  0  0  0  0  0  0  0
    3.6037  -14.5714   -1.7952 H   0  0  0  0  0  0  0  0  0  0  0  0
    4.0730  -16.7650   -1.1560 H   0  0  0  0  0  0  0  0  0  0  0  0
    1.5394  -14.9271   -0.0268 H   0  0  0  0  0  0  0  0  0  0  0  0
    2.6752  -13.7399    0.7993 H   0  0  0  0  0  0  0  0  0  0  0  0
    2.5865  -12.2829   -1.1694 H   0  0  0  0  0  0  0  0  0  0  0  0
    1.5516  -14.5860   -2.4683 H   0  0  0  0  0  0  0  0  0  0  0  0
    0.2734  -13.2860   -2.4940 H   0  0  0  0  0  0  0  0  0  0  0  0
    1.0151  -13.8847   -5.0834 H   0  0  0  0  0  0  0  0  0  0  0  0
    2.1695  -12.6934   -6.9403 H   0  0  0  0  0  0  0  0  0  0  0  0
    3.8745  -10.9452   -6.4366 H   0  0  0  0  0  0  0  0  0  0  0  0
    4.4304  -10.3940   -4.0696 H   0  0  0  0  0  0  0  0  0  0  0  0
    3.2791  -11.5787   -2.2067 H   0  0  0  0  0  0  0  0  0  0  0  0
    0.2060  -14.0550    0.8070 H   0  0  0  0  0  0  0  0  0  0  0  0
   -0.9011  -11.4547    1.4392 H   0  0  0  0  0  0  0  0  0  0  0  0
   -2.1430  -12.7151   -1.2214 H   0  0  0  0  0  0  0  0  0  0  0  0
   -4.4803  -13.4380   -1.7472 H   0  0  0  0  0  0  0  0  0  0  0  0
   -6.0585  -14.0407    0.0846 H   0  0  0  0  0  0  0  0  0  0  0  0
   -5.3314  -13.9029    2.4764 H   0  0  0  0  0  0  0  0  0  0  0  0
   -3.0170  -12.1203    3.7362 H   0  0  0  0  0  0  0  0  0  0  0  0
   -3.0027  -13.8330    4.0379 H   0  0  0  0  0  0  0  0  0  0  0  0
   -0.6138  -12.4559    3.6166 H   0  0  0  0  0  0  0  0  0  0  0  0
   -1.0160  -14.7350    3.9450 H   0  0  0  0  0  0  0  0  0  0  0  0
  1  2  1  0
  2  3  1  0
  2  4  1  0
  2  5  1  0
  5  6  1  0
  6  7  2  0
  6  8  1  0
  8  9  1  0
  9 10  1  0
 10 11  1  0
 11 12  1  0
 12 13  2  0
 13 14  1  0
 14 15  2  0
 15 16  1  0
 16 17  2  0
 10 18  1  0
 18 19  1  0
 19 20  1  0
 20 21  1  0
 21 22  1  0
 22 23  1  0
 22 24  1  0
 24 25  1  0
 25 26  1  0
 26 27  1  0
 27 28  2  0
 28 29  1  0
 29 30  2  0
 30 31  1  0
 31 32  2  0
 25 33  1  0
 33 34  2  0
 33 35  1  0
 35 36  1  0
 36 37  1  0
 37 38  2  0
 38 39  1  0
 39 40  2  0
 40 41  1  0
 41 42  2  0
 42 43  1  0
 43 44  1  0
 44 45  1  0
 20  8  1  0
 32 27  1  0
 44 36  1  0
 17 12  1  0
 42 37  1  0
  1 46  1  0
  1 47  1  0
  1 48  1  0
  3 49  1  0
  3 50  1  0
  3 51  1  0
  4 52  1  0
  4 53  1  0
  4 54  1  0
  5 55  1  0
  8 56  1  6
  9 57  1  0
  9 58  1  0
 10 59  1  0
 11 60  1  0
 11 61  1  0
 13 62  1  0
 14 63  1  0
 15 64  1  0
 17 65  1  0
 18 66  1  0
 18 67  1  0
 19 68  1  0
 19 69  1  0
 20 70  1  0
 21 71  1  0
 21 72  1  0
 22 73  1  6
 23 74  1  0
 24 75  1  0
 24 76  1  0
 25 77  1  6
 26 78  1  0
 26 79  1  0
 28 80  1  0
 29 81  1  0
 30 82  1  0
 31 83  1  0
 32 84  1  0
 35 85  1  0
 36 86  1  1
 38 87  1  0
 39 88  1  0
 40 89  1  0
 41 90  1  0
 43 91  1  0
 43 92  1  0
 44 93  1  1
 45 94  1  0
M  CHG  2  10   1  20   1
M  END
>  <meeko>  (2) 
{"is_sidechain": [false], "free_energy": -9.878, "intermolecular_energy": -17.509, "internal_energy": -1.58}

$$$$
REF_CHEMBL115__H_AF__e8__s20260927
     RDKit          3D

 94 98  0  0  0  0  0  0  0  0999 V2000
    2.1940  -11.9180   -3.6470 C   0  0  0  0  0  0  0  0  0  0  0  0
    1.8710  -11.7010   -2.1590 C   0  0  0  0  0  0  0  0  0  0  0  0
    0.7350  -10.6680   -2.0650 C   0  0  0  0  0  0  0  0  0  0  0  0
    3.1320  -11.1700   -1.4610 C   0  0  0  0  0  0  0  0  0  0  0  0
    1.4600  -12.9980   -1.5670 N   0  0  0  0  0  0  0  0  0  0  0  0
    0.6220  -13.1270   -0.4910 C   0  0  0  0  0  0  0  0  0  0  0  0
    0.1250  -12.1820    0.1280 O   0  0  0  0  0  0  0  0  0  0  0  0
    0.3760  -14.5550    0.0300 C   0  0  2  0  0  0  0  0  0  0  0  0
   -0.6540  -14.4550    1.1970 C   0  0  0  0  0  0  0  0  0  0  0  0
   -0.0740  -13.6950    2.3980 N   0  0  0  0  0  0  0  0  0  0  0  0
   -1.1060  -13.4700    3.4910 C   0  0  0  0  0  0  0  0  0  0  0  0
   -2.5040  -13.3680    2.9650 C   0  0  0  0  0  0  0  0  0  0  0  0
   -2.9480  -12.2420    2.2620 C   0  0  0  0  0  0  0  0  0  0  0  0
   -4.2710  -12.1790    1.8290 C   0  0  0  0  0  0  0  0  0  0  0  0
   -5.1110  -13.2380    2.1230 C   0  0  0  0  0  0  0  0  0  0  0  0
   -4.7110  -14.3320    2.8050 N   0  0  0  0  0  0  0  0  0  0  0  0
   -3.4210  -14.3890    3.1870 C   0  0  0  0  0  0  0  0  0  0  0  0
    1.2350  -14.2940    2.9010 C   0  0  0  0  0  0  0  0  0  0  0  0
    2.2720  -14.4510    1.7580 C   0  0  0  0  0  0  0  0  0  0  0  0
    1.6760  -15.2030    0.5770 N   0  0  0  0  0  0  0  0  0  0  0  0
    2.6800  -15.4940   -0.5380 C   0  0  0  0  0  0  0  0  0  0  0  0
    4.0870  -15.6300    0.0810 C   0  0  1  0  0  0  0  0  0  0  0  0
    4.5290  -16.9790   -0.2130 O   0  0  0  0  0  0  0  0  0  0  0  0
    5.1380  -14.6330   -0.4450 C   0  0  0  0  0  0  0  0  0  0  0  0
    5.7450  -14.9860   -1.8190 C   0  0  1  0  0  0  0  0  0  0  0  0
    5.1780  -14.0780   -2.9280 C   0  0  0  0  0  0  0  0  0  0  0  0
    5.8590  -14.2750   -4.2590 C   0  0  0  0  0  0  0  0  0  0  0  0
    6.2320  -15.5570   -4.6870 C   0  0  0  0  0  0  0  0  0  0  0  0
    6.8470  -15.7390   -5.9260 C   0  0  0  0  0  0  0  0  0  0  0  0
    7.1000  -14.6450   -6.7490 C   0  0  0  0  0  0  0  0  0  0  0  0
    6.7420  -13.3650   -6.3310 C   0  0  0  0  0  0  0  0  0  0  0  0
    6.1260  -13.1790   -5.0930 C   0  0  0  0  0  0  0  0  0  0  0  0
    7.2710  -14.9230   -1.7360 C   0  0  0  0  0  0  0  0  0  0  0  0
    7.9340  -15.9600   -1.6940 O   0  0  0  0  0  0  0  0  0  0  0  0
    7.8220  -13.6860   -1.5290 N   0  0  0  0  0  0  0  0  0  0  0  0
    9.2590  -13.4860   -1.4810 C   0  0  1  0  0  0  0  0  0  0  0  0
    9.8560  -13.2600   -2.8460 C   0  0  0  0  0  0  0  0  0  0  0  0
    9.5970  -13.9390   -4.0290 C   0  0  0  0  0  0  0  0  0  0  0  0
   10.3100  -13.5780   -5.1750 C   0  0  0  0  0  0  0  0  0  0  0  0
   11.2810  -12.5670   -5.1260 C   0  0  0  0  0  0  0  0  0  0  0  0
   11.5600  -11.9090   -3.9280 C   0  0  0  0  0  0  0  0  0  0  0  0
   10.8410  -12.2630   -2.7990 C   0  0  0  0  0  0  0  0  0  0  0  0
   11.0240  -11.7380   -1.4070 C   0  0  0  0  0  0  0  0  0  0  0  0
    9.7070  -12.1810   -0.7440 C   0  0  1  0  0  0  0  0  0  0  0  0
    8.7300  -11.1110   -0.8640 O   0  0  0  0  0  0  0  0  0  0  0  0
    3.1039  -12.5293   -3.7393 H   0  0  0  0  0  0  0  0  0  0  0  0
    1.3537  -12.4355   -4.1329 H   0  0  0  0  0  0  0  0  0  0  0  0
    2.3554  -10.9444   -4.1329 H   0  0  0  0  0  0  0  0  0  0  0  0
    0.5111  -10.4644   -1.0074 H   0  0  0  0  0  0  0  0  0  0  0  0
    1.0450   -9.7360   -2.5602 H   0  0  0  0  0  0  0  0  0  0  0  0
   -0.1635  -11.0650   -2.5602 H   0  0  0  0  0  0  0  0  0  0  0  0
    2.9987  -11.2261   -0.3706 H   0  0  0  0  0  0  0  0  0  0  0  0
    3.9988  -11.7795   -1.7563 H   0  0  0  0  0  0  0  0  0  0  0  0
    3.3016  -10.1240   -1.7563 H   0  0  0  0  0  0  0  0  0  0  0  0
    1.8830  -13.8220   -1.9930 H   0  0  0  0  0  0  0  0  0  0  0  0
    0.0097  -15.1789   -0.7986 H   0  0  0  0  0  0  0  0  0  0  0  0
   -1.5496  -13.9264    0.8386 H   0  0  0  0  0  0  0  0  0  0  0  0
   -0.9047  -15.4751    1.5234 H   0  0  0  0  0  0  0  0  0  0  0  0
    0.1500  -12.7410    2.0360 H   0  0  0  0  0  0  0  0  0  0  0  0
   -1.0579  -14.3122    4.1970 H   0  0  0  0  0  0  0  0  0  0  0  0
   -0.8669  -12.5123    3.9765 H   0  0  0  0  0  0  0  0  0  0  0  0
   -2.2570  -11.4121    2.0527 H   0  0  0  0  0  0  0  0  0  0  0  0
   -4.6386  -11.3079    1.2668 H   0  0  0  0  0  0  0  0  0  0  0  0
   -6.1563  -13.1860    1.7844 H   0  0  0  0  0  0  0  0  0  0  0  0
   -3.0729  -15.2952    3.7043 H   0  0  0  0  0  0  0  0  0  0  0  0
    1.6547  -13.6342    3.6747 H   0  0  0  0  0  0  0  0  0  0  0  0
    1.0203  -15.2930    3.3082 H   0  0  0  0  0  0  0  0  0  0  0  0
    2.5922  -13.4531    1.4239 H   0  0  0  0  0  0  0  0  0  0  0  0
    3.1294  -15.0243    2.1405 H   0  0  0  0  0  0  0  0  0  0  0  0
    1.4700  -16.1710    0.8990 H   0  0  0  0  0  0  0  0  0  0  0  0
    2.4074  -16.4312   -1.0453 H   0  0  0  0  0  0  0  0  0  0  0  0
    2.6723  -14.6735   -1.2706 H   0  0  0  0  0  0  0  0  0  0  0  0
    4.0017  -15.4079    1.1550 H   0  0  0  0  0  0  0  0  0  0  0  0
    4.0560  -17.2660   -1.0250 H   0  0  0  0  0  0  0  0  0  0  0  0
    4.6600  -13.6457   -0.5271 H   0  0  0  0  0  0  0  0  0  0  0  0
    5.9707  -14.6582    0.2734 H   0  0  0  0  0  0  0  0  0  0  0  0
    5.4620  -16.0142   -2.0886 H   0  0  0  0  0  0  0  0  0  0  0  0
    4.1067  -14.2977   -3.0468 H   0  0  0  0  0  0  0  0  0  0  0  0
    5.3530  -13.0364   -2.6208 H   0  0  0  0  0  0  0  0  0  0  0  0
    6.0383  -16.4260   -4.0410 H   0  0  0  0  0  0  0  0  0  0  0  0
    7.1327  -16.7495   -6.2535 H   0  0  0  0  0  0  0  0  0  0  0  0
    7.5815  -14.7908   -7.7272 H   0  0  0  0  0  0  0  0  0  0  0  0
    6.9454  -12.4993   -6.9784 H   0  0  0  0  0  0  0  0  0  0  0  0
    5.8476  -12.1655   -4.7685 H   0  0  0  0  0  0  0  0  0  0  0  0
    7.2440  -12.8580   -1.5820 H   0  0  0  0  0  0  0  0  0  0  0  0
    9.5921  -14.4036   -0.9740 H   0  0  0  0  0  0  0  0  0  0  0  0
    8.8472  -14.7432   -4.0632 H   0  0  0  0  0  0  0  0  0  0  0  0
   10.1076  -14.0923   -6.1261 H   0  0  0  0  0  0  0  0  0  0  0  0
   11.8271  -12.2906   -6.0400 H   0  0  0  0  0  0  0  0  0  0  0  0
   12.3328  -11.1276   -3.8814 H   0  0  0  0  0  0  0  0  0  0  0  0
   11.8960  -12.1943   -0.9156 H   0  0  0  0  0  0  0  0  0  0  0  0
   11.2140  -10.6558   -1.3543 H   0  0  0  0  0  0  0  0  0  0  0  0
    9.8194  -12.3878    0.3305 H   0  0  0  0  0  0  0  0  0  0  0  0
    9.0670  -10.5610   -1.6010 H   0  0  0  0  0  0  0  0  0  0  0  0
  1  2  1  0
  2  3  1  0
  2  4  1  0
  2  5  1  0
  5  6  1  0
  6  7  2  0
  6  8  1  0
  8  9  1  0
  9 10  1  0
 10 11  1  0
 11 12  1  0
 12 13  2  0
 13 14  1  0
 14 15  2  0
 15 16  1  0
 16 17  2  0
 10 18  1  0
 18 19  1  0
 19 20  1  0
 20 21  1  0
 21 22  1  0
 22 23  1  0
 22 24  1  0
 24 25  1  0
 25 26  1  0
 26 27  1  0
 27 28  2  0
 28 29  1  0
 29 30  2  0
 30 31  1  0
 31 32  2  0
 25 33  1  0
 33 34  2  0
 33 35  1  0
 35 36  1  0
 36 37  1  0
 37 38  2  0
 38 39  1  0
 39 40  2  0
 40 41  1  0
 41 42  2  0
 42 43  1  0
 43 44  1  0
 44 45  1  0
 20  8  1  0
 32 27  1  0
 44 36  1  0
 17 12  1  0
 42 37  1  0
  1 46  1  0
  1 47  1  0
  1 48  1  0
  3 49  1  0
  3 50  1  0
  3 51  1  0
  4 52  1  0
  4 53  1  0
  4 54  1  0
  5 55  1  0
  8 56  1  6
  9 57  1  0
  9 58  1  0
 10 59  1  0
 11 60  1  0
 11 61  1  0
 13 62  1  0
 14 63  1  0
 15 64  1  0
 17 65  1  0
 18 66  1  0
 18 67  1  0
 19 68  1  0
 19 69  1  0
 20 70  1  0
 21 71  1  0
 21 72  1  0
 22 73  1  1
 23 74  1  0
 24 75  1  0
 24 76  1  0
 25 77  1  6
 26 78  1  0
 26 79  1  0
 28 80  1  0
 29 81  1  0
 30 82  1  0
 31 83  1  0
 32 84  1  0
 35 85  1  0
 36 86  1  1
 38 87  1  0
 39 88  1  0
 40 89  1  0
 41 90  1  0
 43 91  1  0
 43 92  1  0
 44 93  1  1
 45 94  1  0
M  CHG  2  10   1  20   1
M  END
>  <meeko>  (3) 
{"is_sidechain": [false], "free_energy": -9.516, "intermolecular_energy": -16.403, "internal_energy": -2.049}

$$$$
REF_CHEMBL115__H_AF__e8__s20260927
     RDKit          3D

 94 98  0  0  0  0  0  0  0  0999 V2000
    1.6900  -12.9440   -5.2270 C   0  0  0  0  0  0  0  0  0  0  0  0
    2.9760  -12.1130   -5.0730 C   0  0  0  0  0  0  0  0  0  0  0  0
    2.5870  -10.7370   -4.5070 C   0  0  0  0  0  0  0  0  0  0  0  0
    3.6200  -11.9550   -6.4580 C   0  0  0  0  0  0  0  0  0  0  0  0
    3.8960  -12.8260   -4.1540 N   0  0  0  0  0  0  0  0  0  0  0  0
    3.7310  -12.8980   -2.7960 C   0  0  0  0  0  0  0  0  0  0  0  0
    2.8100  -12.3640   -2.1710 O   0  0  0  0  0  0  0  0  0  0  0  0
    4.8350  -13.6170   -1.9980 C   0  0  2  0  0  0  0  0  0  0  0  0
    4.1350  -14.6020   -1.0130 C   0  0  0  0  0  0  0  0  0  0  0  0
    3.3140  -13.8520    0.0460 N   0  0  0  0  0  0  0  0  0  0  0  0
    2.5170  -14.7950    0.9310 C   0  0  0  0  0  0  0  0  0  0  0  0
    1.0460  -14.5220    0.9050 C   0  0  0  0  0  0  0  0  0  0  0  0
    0.3250  -14.2460    2.0730 C   0  0  0  0  0  0  0  0  0  0  0  0
   -1.0510  -14.0390    2.0000 C   0  0  0  0  0  0  0  0  0  0  0  0
   -1.6640  -14.1260    0.7620 C   0  0  0  0  0  0  0  0  0  0  0  0
   -0.9950  -14.3970   -0.3770 N   0  0  0  0  0  0  0  0  0  0  0  0
    0.3380  -14.5620   -0.2910 C   0  0  0  0  0  0  0  0  0  0  0  0
    4.1390  -12.8290    0.8200 C   0  0  0  0  0  0  0  0  0  0  0  0
    4.8890  -11.8580   -0.1300 C   0  0  0  0  0  0  0  0  0  0  0  0
    5.6920  -12.6210   -1.1730 N   0  0  0  0  0  0  0  0  0  0  0  0
    6.5470  -11.7250   -2.0680 C   0  0  0  0  0  0  0  0  0  0  0  0
    8.0330  -11.9310   -1.7080 C   0  0  1  0  0  0  0  0  0  0  0  0
    8.3070  -11.0410   -0.5970 O   0  0  0  0  0  0  0  0  0  0  0  0
    8.4210  -13.3670   -1.3060 C   0  0  0  0  0  0  0  0  0  0  0  0
    9.3400  -14.1000   -2.3060 C   0  0  1  0  0  0  0  0  0  0  0  0
   10.8000  -14.1140   -1.8120 C   0  0  0  0  0  0  0  0  0  0  0  0
   11.6690  -13.0940   -2.5040 C   0  0  0  0  0  0  0  0  0  0  0  0
   11.9500  -11.8640   -1.8930 C   0  0  0  0  0  0  0  0  0  0  0  0
   12.7680  -10.9280   -2.5280 C   0  0  0  0  0  0  0  0  0  0  0  0
   13.3090  -11.2080   -3.7810 C   0  0  0  0  0  0  0  0  0  0  0  0
   13.0290  -12.4240   -4.4020 C   0  0  0  0  0  0  0  0  0  0  0  0
   12.2130  -13.3620   -3.7700 C   0  0  0  0  0  0  0  0  0  0  0  0
    8.7980  -15.5070   -2.5640 C   0  0  0  0  0  0  0  0  0  0  0  0
    7.6260  -15.6670   -2.9070 O   0  0  0  0  0  0  0  0  0  0  0  0
    9.6150  -16.5510   -2.2190 N   0  0  0  0  0  0  0  0  0  0  0  0
    9.2360  -17.9320   -2.4600 C   0  0  1  0  0  0  0  0  0  0  0  0
    9.9390  -18.5230   -3.6540 C   0  0  0  0  0  0  0  0  0  0  0  0
   10.1540  -17.9560   -4.9030 C   0  0  0  0  0  0  0  0  0  0  0  0
   10.8000  -18.7170   -5.8790 C   0  0  0  0  0  0  0  0  0  0  0  0
   11.2030  -20.0330   -5.6110 C   0  0  0  0  0  0  0  0  0  0  0  0
   10.9580  -20.6100   -4.3650 C   0  0  0  0  0  0  0  0  0  0  0  0
   10.3290  -19.8460   -3.3970 C   0  0  0  0  0  0  0  0  0  0  0  0
    9.9100  -20.2840   -2.0260 C   0  0  0  0  0  0  0  0  0  0  0  0
    9.6750  -18.9280   -1.3360 C   0  0  1  0  0  0  0  0  0  0  0  0
   10.9000  -18.5130   -0.6720 O   0  0  0  0  0  0  0  0  0  0  0  0
    1.2964  -13.1983   -4.2318 H   0  0  0  0  0  0  0  0  0  0  0  0
    0.9397  -12.3595   -5.7796 H   0  0  0  0  0  0  0  0  0  0  0  0
    1.9146  -13.8682   -5.7796 H   0  0  0  0  0  0  0  0  0  0  0  0
    2.5981  -10.7762   -3.4078 H   0  0  0  0  0  0  0  0  0  0  0  0
    3.3066   -9.9809   -4.8542 H   0  0  0  0  0  0  0  0  0  0  0  0
    1.5781  -10.4696   -4.8542 H   0  0  0  0  0  0  0  0  0  0  0  0
    4.6822  -11.6944   -6.3409 H   0  0  0  0  0  0  0  0  0  0  0  0
    3.5335  -12.9010   -7.0126 H   0  0  0  0  0  0  0  0  0  0  0  0
    3.1055  -11.1564   -7.0126 H   0  0  0  0  0  0  0  0  0  0  0  0
    4.7140  -13.2420   -4.5960 H   0  0  0  0  0  0  0  0  0  0  0  0
    5.5029  -14.1364   -2.7009 H   0  0  0  0  0  0  0  0  0  0  0  0
    3.4646  -15.2616   -1.5836 H   0  0  0  0  0  0  0  0  0  0  0  0
    4.9127  -15.1845   -0.4973 H   0  0  0  0  0  0  0  0  0  0  0  0
    2.5980  -13.3150   -0.4930 H   0  0  0  0  0  0  0  0  0  0  0  0
    2.6878  -15.8259    0.5873 H   0  0  0  0  0  0  0  0  0  0  0  0
    2.8605  -14.6432    1.9649 H   0  0  0  0  0  0  0  0  0  0  0  0
    0.8418  -14.1929    3.0426 H   0  0  0  0  0  0  0  0  0  0  0  0
   -1.6356  -13.8121    2.9037 H   0  0  0  0  0  0  0  0  0  0  0  0
   -2.7508  -13.9661    0.7045 H   0  0  0  0  0  0  0  0  0  0  0  0
    0.8995  -14.7386   -1.2202 H   0  0  0  0  0  0  0  0  0  0  0  0
    3.4675  -12.2462    1.4676 H   0  0  0  0  0  0  0  0  0  0  0  0
    4.8877  -13.3724    1.4151 H   0  0  0  0  0  0  0  0  0  0  0  0
    4.1552  -11.2168   -0.6403 H   0  0  0  0  0  0  0  0  0  0  0  0
    5.5835  -11.2508    0.4692 H   0  0  0  0  0  0  0  0  0  0  0  0
    6.4370  -13.1430   -0.6670 H   0  0  0  0  0  0  0  0  0  0  0  0
    6.3822  -11.9913   -3.1225 H   0  0  0  0  0  0  0  0  0  0  0  0
    6.2691  -10.6717   -1.9152 H   0  0  0  0  0  0  0  0  0  0  0  0
    8.6265  -11.7214   -2.6101 H   0  0  0  0  0  0  0  0  0  0  0  0
    8.4630  -11.6050    0.1920 H   0  0  0  0  0  0  0  0  0  0  0  0
    8.9393  -13.3215   -0.3368 H   0  0  0  0  0  0  0  0  0  0  0  0
    7.4830  -13.9407   -1.2740 H   0  0  0  0  0  0  0  0  0  0  0  0
    9.3431  -13.5570   -3.2627 H   0  0  0  0  0  0  0  0  0  0  0  0
   10.8062  -13.9042   -0.7322 H   0  0  0  0  0  0  0  0  0  0  0  0
   11.2141  -15.1070   -2.0412 H   0  0  0  0  0  0  0  0  0  0  0  0
   11.5226  -11.6347   -0.9057 H   0  0  0  0  0  0  0  0  0  0  0  0
   12.9859   -9.9675   -2.0382 H   0  0  0  0  0  0  0  0  0  0  0  0
   13.9558  -10.4708   -4.2792 H   0  0  0  0  0  0  0  0  0  0  0  0
   13.4526  -12.6444   -5.3929 H   0  0  0  0  0  0  0  0  0  0  0  0
   11.9942  -14.3186   -4.2671 H   0  0  0  0  0  0  0  0  0  0  0  0
   10.5750  -16.3770   -1.9530 H   0  0  0  0  0  0  0  0  0  0  0  0
    8.1438  -17.8476   -2.5593 H   0  0  0  0  0  0  0  0  0  0  0  0
    9.8226  -16.9296   -5.1188 H   0  0  0  0  0  0  0  0  0  0  0  0
   10.9950  -18.2794   -6.8692 H   0  0  0  0  0  0  0  0  0  0  0  0
   11.7168  -20.6153   -6.3901 H   0  0  0  0  0  0  0  0  0  0  0  0
   11.2575  -21.6477   -4.1564 H   0  0  0  0  0  0  0  0  0  0  0  0
    8.9888  -20.8843   -2.0588 H   0  0  0  0  0  0  0  0  0  0  0  0
   10.6406  -20.9289   -1.5158 H   0  0  0  0  0  0  0  0  0  0  0  0
    8.8952  -18.9730   -0.5614 H   0  0  0  0  0  0  0  0  0  0  0  0
   10.7470  -18.7340    0.2710 H   0  0  0  0  0  0  0  0  0  0  0  0
  1  2  1  0
  2  3  1  0
  2  4  1  0
  2  5  1  0
  5  6  1  0
  6  7  2  0
  6  8  1  0
  8  9  1  0
  9 10  1  0
 10 11  1  0
 11 12  1  0
 12 13  2  0
 13 14  1  0
 14 15  2  0
 15 16  1  0
 16 17  2  0
 10 18  1  0
 18 19  1  0
 19 20  1  0
 20 21  1  0
 21 22  1  0
 22 23  1  0
 22 24  1  0
 24 25  1  0
 25 26  1  0
 26 27  1  0
 27 28  2  0
 28 29  1  0
 29 30  2  0
 30 31  1  0
 31 32  2  0
 25 33  1  0
 33 34  2  0
 33 35  1  0
 35 36  1  0
 36 37  1  0
 37 38  2  0
 38 39  1  0
 39 40  2  0
 40 41  1  0
 41 42  2  0
 42 43  1  0
 43 44  1  0
 44 45  1  0
 20  8  1  0
 32 27  1  0
 44 36  1  0
 17 12  1  0
 42 37  1  0
  1 46  1  0
  1 47  1  0
  1 48  1  0
  3 49  1  0
  3 50  1  0
  3 51  1  0
  4 52  1  0
  4 53  1  0
  4 54  1  0
  5 55  1  0
  8 56  1  6
  9 57  1  0
  9 58  1  0
 10 59  1  0
 11 60  1  0
 11 61  1  0
 13 62  1  0
 14 63  1  0
 15 64  1  0
 17 65  1  0
 18 66  1  0
 18 67  1  0
 19 68  1  0
 19 69  1  0
 20 70  1  0
 21 71  1  0
 21 72  1  0
 22 73  1  6
 23 74  1  0
 24 75  1  0
 24 76  1  0
 25 77  1  6
 26 78  1  0
 26 79  1  0
 28 80  1  0
 29 81  1  0
 30 82  1  0
 31 83  1  0
 32 84  1  0
 35 85  1  0
 36 86  1  6
 38 87  1  0
 39 88  1  0
 40 89  1  0
 41 90  1  0
 43 91  1  0
 43 92  1  0
 44 93  1  1
 45 94  1  0
M  CHG  2  10   1  20   1
M  END
>  <meeko>  (4) 
{"is_sidechain": [false], "free_energy": -9.104, "intermolecular_energy": -16.207, "internal_energy": -1.52}

$$$$
REF_CHEMBL115__H_AF__e8__s20260927
     RDKit          3D

 94 98  0  0  0  0  0  0  0  0999 V2000
   12.1490  -13.4210   -3.8200 C   0  0  0  0  0  0  0  0  0  0  0  0
   11.3100  -13.2150   -2.5460 C   0  0  0  0  0  0  0  0  0  0  0  0
   11.5350  -11.7750   -2.0570 C   0  0  0  0  0  0  0  0  0  0  0  0
   11.7860  -14.2180   -1.4840 C   0  0  0  0  0  0  0  0  0  0  0  0
    9.8820  -13.4490   -2.8740 N   0  0  0  0  0  0  0  0  0  0  0  0
    8.8550  -13.3420   -1.9740 C   0  0  0  0  0  0  0  0  0  0  0  0
    8.9930  -13.0590   -0.7810 O   0  0  0  0  0  0  0  0  0  0  0  0
    7.4460  -13.7010   -2.4830 C   0  0  2  0  0  0  0  0  0  0  0  0
    7.6100  -14.3540   -3.8890 C   0  0  0  0  0  0  0  0  0  0  0  0
    8.1520  -13.3510   -4.9170 N   0  0  0  0  0  0  0  0  0  0  0  0
    8.4450  -14.0030   -6.2590 C   0  0  0  0  0  0  0  0  0  0  0  0
    9.7490  -14.7350   -6.2820 C   0  0  0  0  0  0  0  0  0  0  0  0
   10.8170  -14.3190   -7.0870 C   0  0  0  0  0  0  0  0  0  0  0  0
   11.9970  -15.0590   -7.1040 C   0  0  0  0  0  0  0  0  0  0  0  0
   12.0690  -16.1990   -6.3240 C   0  0  0  0  0  0  0  0  0  0  0  0
   11.0530  -16.6270   -5.5440 N   0  0  0  0  0  0  0  0  0  0  0  0
    9.9340  -15.8810   -5.5170 C   0  0  0  0  0  0  0  0  0  0  0  0
    7.3020  -12.0890   -5.0180 C   0  0  0  0  0  0  0  0  0  0  0  0
    7.0780  -11.4340   -3.6290 C   0  0  0  0  0  0  0  0  0  0  0  0
    6.5460  -12.4460   -2.6250 N   0  0  0  0  0  0  0  0  0  0  0  0
    6.1940  -11.8390   -1.2670 C   0  0  0  0  0  0  0  0  0  0  0  0
    5.4590  -12.9000   -0.4220 C   0  0  1  0  0  0  0  0  0  0  0  0
    5.2340  -12.2970    0.8770 O   0  0  0  0  0  0  0  0  0  0  0  0
    4.1100  -13.3790   -0.9920 C   0  0  0  0  0  0  0  0  0  0  0  0
    2.8640  -12.7070   -0.3780 C   0  0  1  0  0  0  0  0  0  0  0  0
    2.3190  -11.5980   -1.2990 C   0  0  0  0  0  0  0  0  0  0  0  0
    2.3880  -11.9580   -2.7620 C   0  0  0  0  0  0  0  0  0  0  0  0
    1.5480  -12.9470   -3.2940 C   0  0  0  0  0  0  0  0  0  0  0  0
    1.6010  -13.2670   -4.6510 C   0  0  0  0  0  0  0  0  0  0  0  0
    2.4960  -12.6080   -5.4910 C   0  0  0  0  0  0  0  0  0  0  0  0
    3.3420  -11.6300   -4.9720 C   0  0  0  0  0  0  0  0  0  0  0  0
    3.2910  -11.3070   -3.6160 C   0  0  0  0  0  0  0  0  0  0  0  0
    1.8120  -13.7720   -0.0600 C   0  0  0  0  0  0  0  0  0  0  0  0
    2.0990  -14.9670   -0.1290 O   0  0  0  0  0  0  0  0  0  0  0  0
    0.5280  -13.3290    0.1150 N   0  0  0  0  0  0  0  0  0  0  0  0
   -0.5520  -14.2330    0.4700 C   0  0  1  0  0  0  0  0  0  0  0  0
   -0.9610  -14.1060    1.9140 C   0  0  0  0  0  0  0  0  0  0  0  0
   -0.1540  -14.0050    3.0390 C   0  0  0  0  0  0  0  0  0  0  0  0
   -0.7630  -13.9370    4.2940 C   0  0  0  0  0  0  0  0  0  0  0  0
   -2.1590  -13.9920    4.4160 C   0  0  0  0  0  0  0  0  0  0  0  0
   -2.9660  -14.1250    3.2860 C   0  0  0  0  0  0  0  0  0  0  0  0
   -2.3560  -14.1780    2.0440 C   0  0  0  0  0  0  0  0  0  0  0  0
   -3.0200  -14.3860    0.7160 C   0  0  0  0  0  0  0  0  0  0  0  0
   -1.9090  -13.9340   -0.2490 C   0  0  1  0  0  0  0  0  0  0  0  0
   -2.0810  -12.5220   -0.5460 O   0  0  0  0  0  0  0  0  0  0  0  0
   13.1824  -13.6747   -3.5414 H   0  0  0  0  0  0  0  0  0  0  0  0
   11.7179  -14.2400   -4.4145 H   0  0  0  0  0  0  0  0  0  0  0  0
   12.1462  -12.4955   -4.4145 H   0  0  0  0  0  0  0  0  0  0  0  0
   11.5377  -11.7575   -0.9571 H   0  0  0  0  0  0  0  0  0  0  0  0
   12.5015  -11.4072   -2.4320 H   0  0  0  0  0  0  0  0  0  0  0  0
   10.7267  -11.1299   -2.4320 H   0  0  0  0  0  0  0  0  0  0  0  0
   11.5922  -13.8097   -0.4811 H   0  0  0  0  0  0  0  0  0  0  0  0
   11.2419  -15.1663   -1.6053 H   0  0  0  0  0  0  0  0  0  0  0  0
   12.8647  -14.3961   -1.6053 H   0  0  0  0  0  0  0  0  0  0  0  0
    9.7000  -13.7460   -3.8310 H   0  0  0  0  0  0  0  0  0  0  0  0
    6.9676  -14.3795   -1.7613 H   0  0  0  0  0  0  0  0  0  0  0  0
    8.3100  -15.1989   -3.8109 H   0  0  0  0  0  0  0  0  0  0  0  0
    6.6205  -14.6943   -4.2283 H   0  0  0  0  0  0  0  0  0  0  0  0
    9.0840  -13.0580   -4.5480 H   0  0  0  0  0  0  0  0  0  0  0  0
    7.6388  -14.7163   -6.4854 H   0  0  0  0  0  0  0  0  0  0  0  0
    8.5058  -13.1998   -7.0082 H   0  0  0  0  0  0  0  0  0  0  0  0
   10.7244  -13.4123   -7.7028 H   0  0  0  0  0  0  0  0  0  0  0  0
   12.8506  -14.7445   -7.7225 H   0  0  0  0  0  0  0  0  0  0  0  0
   12.9993  -16.7857   -6.3398 H   0  0  0  0  0  0  0  0  0  0  0  0
    9.1175  -16.1961   -4.8506 H   0  0  0  0  0  0  0  0  0  0  0  0
    7.8115  -11.3678   -5.6740 H   0  0  0  0  0  0  0  0  0  0  0  0
    6.3200  -12.3693   -5.4269 H   0  0  0  0  0  0  0  0  0  0  0  0
    8.0345  -11.0332   -3.2625 H   0  0  0  0  0  0  0  0  0  0  0  0
    6.3373  -10.6281   -3.7383 H   0  0  0  0  0  0  0  0  0  0  0  0
    5.6000  -12.7340   -2.9510 H   0  0  0  0  0  0  0  0  0  0  0  0
    7.1147  -11.5288   -0.7512 H   0  0  0  0  0  0  0  0  0  0  0  0
    5.5473  -10.9603   -1.4074 H   0  0  0  0  0  0  0  0  0  0  0  0
    6.0891  -13.8013   -0.3974 H   0  0  0  0  0  0  0  0  0  0  0  0
    4.2840  -12.4270    1.0940 H   0  0  0  0  0  0  0  0  0  0  0  0
    4.1068  -13.1789   -2.0736 H   0  0  0  0  0  0  0  0  0  0  0  0
    4.0350  -14.4480   -0.7438 H   0  0  0  0  0  0  0  0  0  0  0  0
    3.1436  -12.2141    0.5648 H   0  0  0  0  0  0  0  0  0  0  0  0
    1.2684  -11.4078   -1.0343 H   0  0  0  0  0  0  0  0  0  0  0  0
    2.9485  -10.7084   -1.1497 H   0  0  0  0  0  0  0  0  0  0  0  0
    0.8417  -13.4747   -2.6362 H   0  0  0  0  0  0  0  0  0  0  0  0
    0.9346  -14.0414   -5.0586 H   0  0  0  0  0  0  0  0  0  0  0  0
    2.5347  -12.8591   -6.5613 H   0  0  0  0  0  0  0  0  0  0  0  0
    4.0518  -11.1114   -5.6332 H   0  0  0  0  0  0  0  0  0  0  0  0
    3.9640  -10.5358   -3.2130 H   0  0  0  0  0  0  0  0  0  0  0  0
    0.3360  -12.3380    0.1770 H   0  0  0  0  0  0  0  0  0  0  0  0
   -0.1230  -15.2074    0.1935 H   0  0  0  0  0  0  0  0  0  0  0  0
    0.9416  -13.9791    2.9440 H   0  0  0  0  0  0  0  0  0  0  0  0
   -0.1412  -13.8393    5.1961 H   0  0  0  0  0  0  0  0  0  0  0  0
   -2.6219  -13.9297    5.4119 H   0  0  0  0  0  0  0  0  0  0  0  0
   -4.0603  -14.1863    3.3793 H   0  0  0  0  0  0  0  0  0  0  0  0
   -3.2851  -15.4420    0.5590 H   0  0  0  0  0  0  0  0  0  0  0  0
   -3.9695  -13.8436    0.5965 H   0  0  0  0  0  0  0  0  0  0  0  0
   -1.9388  -14.4655   -1.2116 H   0  0  0  0  0  0  0  0  0  0  0  0
   -1.8900  -12.0740    0.3040 H   0  0  0  0  0  0  0  0  0  0  0  0
  1  2  1  0
  2  3  1  0
  2  4  1  0
  2  5  1  0
  5  6  1  0
  6  7  2  0
  6  8  1  0
  8  9  1  0
  9 10  1  0
 10 11  1  0
 11 12  1  0
 12 13  2  0
 13 14  1  0
 14 15  2  0
 15 16  1  0
 16 17  2  0
 10 18  1  0
 18 19  1  0
 19 20  1  0
 20 21  1  0
 21 22  1  0
 22 23  1  0
 22 24  1  0
 24 25  1  0
 25 26  1  0
 26 27  1  0
 27 28  2  0
 28 29  1  0
 29 30  2  0
 30 31  1  0
 31 32  2  0
 25 33  1  0
 33 34  2  0
 33 35  1  0
 35 36  1  0
 36 37  1  0
 37 38  2  0
 38 39  1  0
 39 40  2  0
 40 41  1  0
 41 42  2  0
 42 43  1  0
 43 44  1  0
 44 45  1  0
 20  8  1  0
 32 27  1  0
 44 36  1  0
 17 12  1  0
 42 37  1  0
  1 46  1  0
  1 47  1  0
  1 48  1  0
  3 49  1  0
  3 50  1  0
  3 51  1  0
  4 52  1  0
  4 53  1  0
  4 54  1  0
  5 55  1  0
  8 56  1  1
  9 57  1  0
  9 58  1  0
 10 59  1  0
 11 60  1  0
 11 61  1  0
 13 62  1  0
 14 63  1  0
 15 64  1  0
 17 65  1  0
 18 66  1  0
 18 67  1  0
 19 68  1  0
 19 69  1  0
 20 70  1  0
 21 71  1  0
 21 72  1  0
 22 73  1  1
 23 74  1  0
 24 75  1  0
 24 76  1  0
 25 77  1  1
 26 78  1  0
 26 79  1  0
 28 80  1  0
 29 81  1  0
 30 82  1  0
 31 83  1  0
 32 84  1  0
 35 85  1  0
 36 86  1  1
 38 87  1  0
 39 88  1  0
 40 89  1  0
 41 90  1  0
 43 91  1  0
 43 92  1  0
 44 93  1  6
 45 94  1  0
M  CHG  2  10   1  20   1
M  END
>  <meeko>  (5) 
{"is_sidechain": [false], "free_energy": -9.065, "intermolecular_energy": -16.587, "internal_energy": -1.07}

$$$$
REF_CHEMBL115__H_AF__e8__s20260927
     RDKit          3D

 94 98  0  0  0  0  0  0  0  0999 V2000
    3.8850  -12.1670   -6.3350 C   0  0  0  0  0  0  0  0  0  0  0  0
    3.1310  -12.1980   -4.9940 C   0  0  0  0  0  0  0  0  0  0  0  0
    1.8100  -12.9550   -5.2080 C   0  0  0  0  0  0  0  0  0  0  0  0
    2.8510  -10.7510   -4.5610 C   0  0  0  0  0  0  0  0  0  0  0  0
    3.9790  -12.8830   -3.9870 N   0  0  0  0  0  0  0  0  0  0  0  0
    3.6540  -13.0150   -2.6630 C   0  0  0  0  0  0  0  0  0  0  0  0
    2.6290  -12.5640   -2.1430 O   0  0  0  0  0  0  0  0  0  0  0  0
    4.6990  -13.6880   -1.7550 C   0  0  2  0  0  0  0  0  0  0  0  0
    3.9440  -14.7060   -0.8470 C   0  0  0  0  0  0  0  0  0  0  0  0
    2.9850  -13.9970    0.1200 N   0  0  0  0  0  0  0  0  0  0  0  0
    2.1420  -14.9770    0.9180 C   0  0  0  0  0  0  0  0  0  0  0  0
    0.6910  -14.6130    0.9490 C   0  0  0  0  0  0  0  0  0  0  0  0
    0.0320  -14.3050    2.1450 C   0  0  0  0  0  0  0  0  0  0  0  0
   -1.3310  -14.0120    2.1250 C   0  0  0  0  0  0  0  0  0  0  0  0
   -1.9930  -14.0470    0.9110 C   0  0  0  0  0  0  0  0  0  0  0  0
   -1.3840  -14.3470   -0.2550 N   0  0  0  0  0  0  0  0  0  0  0  0
   -0.0610  -14.5960   -0.2200 C   0  0  0  0  0  0  0  0  0  0  0  0
    3.6810  -12.9430    0.9760 C   0  0  0  0  0  0  0  0  0  0  0  0
    4.4820  -11.9370    0.1090 C   0  0  0  0  0  0  0  0  0  0  0  0
    5.4220  -12.6600   -0.8450 N   0  0  0  0  0  0  0  0  0  0  0  0
    6.3260  -11.7250   -1.6460 C   0  0  0  0  0  0  0  0  0  0  0  0
    7.7190  -11.6890   -0.9850 C   0  0  1  0  0  0  0  0  0  0  0  0
    7.6540  -12.5940    0.1450 O   0  0  0  0  0  0  0  0  0  0  0  0
    8.8920  -12.1060   -1.8930 C   0  0  0  0  0  0  0  0  0  0  0  0
    8.5030  -12.9800   -3.1040 C   0  0  1  0  0  0  0  0  0  0  0  0
    9.3790  -12.6560   -4.3290 C   0  0  0  0  0  0  0  0  0  0  0  0
    8.8870  -13.3060   -5.5980 C   0  0  0  0  0  0  0  0  0  0  0  0
    9.7950  -13.8120   -6.5390 C   0  0  0  0  0  0  0  0  0  0  0  0
    9.3370  -14.4280   -7.7040 C   0  0  0  0  0  0  0  0  0  0  0  0
    7.9700  -14.5430   -7.9440 C   0  0  0  0  0  0  0  0  0  0  0  0
    7.0580  -14.0370   -7.0200 C   0  0  0  0  0  0  0  0  0  0  0  0
    7.5120  -13.4200   -5.8540 C   0  0  0  0  0  0  0  0  0  0  0  0
    8.5720  -14.4570   -2.7120 C   0  0  0  0  0  0  0  0  0  0  0  0
    7.7380  -14.9340   -1.9410 O   0  0  0  0  0  0  0  0  0  0  0  0
    9.6880  -15.1440   -3.1090 N   0  0  0  0  0  0  0  0  0  0  0  0
    9.8490  -16.5630   -2.8430 C   0  0  1  0  0  0  0  0  0  0  0  0
   10.3730  -17.3180   -4.0360 C   0  0  0  0  0  0  0  0  0  0  0  0
    9.9890  -17.2140   -5.3660 C   0  0  0  0  0  0  0  0  0  0  0  0
   10.5930  -18.0560   -6.3030 C   0  0  0  0  0  0  0  0  0  0  0  0
   11.5500  -19.0010   -5.9050 C   0  0  0  0  0  0  0  0  0  0  0  0
   11.9100  -19.1240   -4.5630 C   0  0  0  0  0  0  0  0  0  0  0  0
   11.3180  -18.2770   -3.6410 C   0  0  0  0  0  0  0  0  0  0  0  0
   11.5050  -18.2820   -2.1540 C   0  0  0  0  0  0  0  0  0  0  0  0
   10.9420  -16.9000   -1.7760 C   0  0  1  0  0  0  0  0  0  0  0  0
   12.0260  -15.9310   -1.7640 O   0  0  0  0  0  0  0  0  0  0  0  0
    4.9677  -12.1225   -6.1459 H   0  0  0  0  0  0  0  0  0  0  0  0
    3.6500  -13.0756   -6.9089 H   0  0  0  0  0  0  0  0  0  0  0  0
    3.5763  -11.2808   -6.9089 H   0  0  0  0  0  0  0  0  0  0  0  0
    1.3697  -13.2073   -4.2320 H   0  0  0  0  0  0  0  0  0  0  0  0
    1.1110  -12.3204   -5.7725 H   0  0  0  0  0  0  0  0  0  0  0  0
    2.0041  -13.8789   -5.7725 H   0  0  0  0  0  0  0  0  0  0  0  0
    2.8397  -10.6926   -3.4626 H   0  0  0  0  0  0  0  0  0  0  0  0
    3.6382  -10.0915   -4.9552 H   0  0  0  0  0  0  0  0  0  0  0  0
    1.8746  -10.4327   -4.9552 H   0  0  0  0  0  0  0  0  0  0  0  0
    4.8720  -13.2290   -4.3350 H   0  0  0  0  0  0  0  0  0  0  0  0
    5.4580  -14.1744   -2.3853 H   0  0  0  0  0  0  0  0  0  0  0  0
    3.3664  -15.3923   -1.4836 H   0  0  0  0  0  0  0  0  0  0  0  0
    4.6888  -15.2553   -0.2523 H   0  0  0  0  0  0  0  0  0  0  0  0
    2.3070  -13.4890   -0.4910 H   0  0  0  0  0  0  0  0  0  0  0  0
    2.2431  -15.9748    0.4661 H   0  0  0  0  0  0  0  0  0  0  0  0
    2.5078  -14.9558    1.9552 H   0  0  0  0  0  0  0  0  0  0  0  0
    0.5863  -14.2942    3.0951 H   0  0  0  0  0  0  0  0  0  0  0  0
   -1.8667  -13.7592    3.0519 H   0  0  0  0  0  0  0  0  0  0  0  0
   -3.0690  -13.8190    0.8954 H   0  0  0  0  0  0  0  0  0  0  0  0
    0.4541  -14.7975   -1.1709 H   0  0  0  0  0  0  0  0  0  0  0  0
    2.9217  -12.3925    1.5509 H   0  0  0  0  0  0  0  0  0  0  0  0
    4.3868  -13.4565    1.6454 H   0  0  0  0  0  0  0  0  0  0  0  0
    3.7778  -11.3263   -0.4751 H   0  0  0  0  0  0  0  0  0  0  0  0
    5.0833  -11.3028    0.7769 H   0  0  0  0  0  0  0  0  0  0  0  0
    6.1320  -13.1520   -0.2630 H   0  0  0  0  0  0  0  0  0  0  0  0
    6.4166  -12.0939   -2.6783 H   0  0  0  0  0  0  0  0  0  0  0  0
    5.8949  -10.7131   -1.6619 H   0  0  0  0  0  0  0  0  0  0  0  0
    7.9315  -10.6443   -0.7141 H   0  0  0  0  0  0  0  0  0  0  0  0
    7.6720  -12.0410    0.9570 H   0  0  0  0  0  0  0  0  0  0  0  0
    9.3711  -11.1915   -2.2725 H   0  0  0  0  0  0  0  0  0  0  0  0
    9.5572  -12.7228   -1.2708 H   0  0  0  0  0  0  0  0  0  0  0  0
    7.4674  -12.7541   -3.3979 H   0  0  0  0  0  0  0  0  0  0  0  0
    9.3872  -11.5657   -4.4748 H   0  0  0  0  0  0  0  0  0  0  0  0
   10.3848  -13.0526   -4.1265 H   0  0  0  0  0  0  0  0  0  0  0  0
   10.8762  -13.7226   -6.3574 H   0  0  0  0  0  0  0  0  0  0  0  0
   10.0575  -14.8239   -8.4349 H   0  0  0  0  0  0  0  0  0  0  0  0
    7.6109  -15.0324   -8.8613 H   0  0  0  0  0  0  0  0  0  0  0  0
    5.9781  -14.1242   -7.2103 H   0  0  0  0  0  0  0  0  0  0  0  0
    6.7868  -13.0200   -5.1300 H   0  0  0  0  0  0  0  0  0  0  0  0
   10.3430  -14.7200   -3.7520 H   0  0  0  0  0  0  0  0  0  0  0  0
    8.8344  -16.8449   -2.5252 H   0  0  0  0  0  0  0  0  0  0  0  0
    9.2259  -16.4846   -5.6753 H   0  0  0  0  0  0  0  0  0  0  0  0
   10.3150  -17.9770   -7.3644 H   0  0  0  0  0  0  0  0  0  0  0  0
   12.0207  -19.6507   -6.6576 H   0  0  0  0  0  0  0  0  0  0  0  0
   12.6468  -19.8761   -4.2445 H   0  0  0  0  0  0  0  0  0  0  0  0
   10.9341  -19.0933   -1.6788 H   0  0  0  0  0  0  0  0  0  0  0  0
   12.5428  -18.4501   -1.8305 H   0  0  0  0  0  0  0  0  0  0  0  0
   10.4918  -16.8827   -0.7725 H   0  0  0  0  0  0  0  0  0  0  0  0
   11.9890  -15.5430   -0.8650 H   0  0  0  0  0  0  0  0  0  0  0  0
  1  2  1  0
  2  3  1  0
  2  4  1  0
  2  5  1  0
  5  6  1  0
  6  7  2  0
  6  8  1  0
  8  9  1  0
  9 10  1  0
 10 11  1  0
 11 12  1  0
 12 13  2  0
 13 14  1  0
 14 15  2  0
 15 16  1  0
 16 17  2  0
 10 18  1  0
 18 19  1  0
 19 20  1  0
 20 21  1  0
 21 22  1  0
 22 23  1  0
 22 24  1  0
 24 25  1  0
 25 26  1  0
 26 27  1  0
 27 28  2  0
 28 29  1  0
 29 30  2  0
 30 31  1  0
 31 32  2  0
 25 33  1  0
 33 34  2  0
 33 35  1  0
 35 36  1  0
 36 37  1  0
 37 38  2  0
 38 39  1  0
 39 40  2  0
 40 41  1  0
 41 42  2  0
 42 43  1  0
 43 44  1  0
 44 45  1  0
 20  8  1  0
 32 27  1  0
 44 36  1  0
 17 12  1  0
 42 37  1  0
  1 46  1  0
  1 47  1  0
  1 48  1  0
  3 49  1  0
  3 50  1  0
  3 51  1  0
  4 52  1  0
  4 53  1  0
  4 54  1  0
  5 55  1  0
  8 56  1  6
  9 57  1  0
  9 58  1  0
 10 59  1  0
 11 60  1  0
 11 61  1  0
 13 62  1  0
 14 63  1  0
 15 64  1  0
 17 65  1  0
 18 66  1  0
 18 67  1  0
 19 68  1  0
 19 69  1  0
 20 70  1  0
 21 71  1  0
 21 72  1  0
 22 73  1  1
 23 74  1  0
 24 75  1  0
 24 76  1  0
 25 77  1  6
 26 78  1  0
 26 79  1  0
 28 80  1  0
 29 81  1  0
 30 82  1  0
 31 83  1  0
 32 84  1  0
 35 85  1  0
 36 86  1  1
 38 87  1  0
 39 88  1  0
 40 89  1  0
 41 90  1  0
 43 91  1  0
 43 92  1  0
 44 93  1  1
 45 94  1  0
M  CHG  2  10   1  20   1
M  END
>  <meeko>  (6) 
{"is_sidechain": [false], "free_energy": -8.905, "intermolecular_energy": -14.944, "internal_energy": -2.433}

$$$$
REF_CHEMBL115__H_AF__e8__s20260927
     RDKit          3D

 94 98  0  0  0  0  0  0  0  0999 V2000
    2.2850  -12.5030   -2.3670 C   0  0  0  0  0  0  0  0  0  0  0  0
    2.8500  -12.5650   -3.7970 C   0  0  0  0  0  0  0  0  0  0  0  0
    3.1370  -11.1270   -4.2590 C   0  0  0  0  0  0  0  0  0  0  0  0
    1.7980  -13.2160   -4.7070 C   0  0  0  0  0  0  0  0  0  0  0  0
    4.0920  -13.3770   -3.7830 N   0  0  0  0  0  0  0  0  0  0  0  0
    5.0260  -13.3800   -4.7850 C   0  0  0  0  0  0  0  0  0  0  0  0
    4.9390  -12.7260   -5.8280 O   0  0  0  0  0  0  0  0  0  0  0  0
    6.2120  -14.3500   -4.6260 C   0  0  2  0  0  0  0  0  0  0  0  0
    6.6770  -14.2800   -3.1400 C   0  0  0  0  0  0  0  0  0  0  0  0
    7.2520  -12.9000   -2.7930 N   0  0  0  0  0  0  0  0  0  0  0  0
    7.5860  -12.7700   -1.3160 C   0  0  0  0  0  0  0  0  0  0  0  0
    6.3790  -12.8360   -0.4340 C   0  0  0  0  0  0  0  0  0  0  0  0
    5.9720  -14.0300    0.1740 C   0  0  0  0  0  0  0  0  0  0  0  0
    4.8170  -14.0480    0.9530 C   0  0  0  0  0  0  0  0  0  0  0  0
    4.0990  -12.8730    1.0910 C   0  0  0  0  0  0  0  0  0  0  0  0
    4.4650  -11.7110    0.5110 N   0  0  0  0  0  0  0  0  0  0  0  0
    5.6000  -11.7060   -0.2120 C   0  0  0  0  0  0  0  0  0  0  0  0
    8.3880  -12.4820   -3.7200 C   0  0  0  0  0  0  0  0  0  0  0  0
    7.9780  -12.5820   -5.2130 C   0  0  0  0  0  0  0  0  0  0  0  0
    7.4060  -13.9550   -5.5340 N   0  0  0  0  0  0  0  0  0  0  0  0
    7.0890  -14.1590   -7.0150 C   0  0  0  0  0  0  0  0  0  0  0  0
    8.1820  -15.0500   -7.6420 C   0  0  1  0  0  0  0  0  0  0  0  0
    7.4950  -15.9690   -8.5280 O   0  0  0  0  0  0  0  0  0  0  0  0
    9.2670  -14.3010   -8.4400 C   0  0  0  0  0  0  0  0  0  0  0  0
   10.5740  -15.0900   -8.6640 C   0  0  1  0  0  0  0  0  0  0  0  0
   11.5990  -14.2530   -9.4560 C   0  0  0  0  0  0  0  0  0  0  0  0
   11.3070  -14.2060  -10.9350 C   0  0  0  0  0  0  0  0  0  0  0  0
   10.7560  -13.0550  -11.5170 C   0  0  0  0  0  0  0  0  0  0  0  0
   10.5020  -13.0070  -12.8880 C   0  0  0  0  0  0  0  0  0  0  0  0
   10.7900  -14.1070  -13.6920 C   0  0  0  0  0  0  0  0  0  0  0  0
   11.3290  -15.2590  -13.1240 C   0  0  0  0  0  0  0  0  0  0  0  0
   11.5850  -15.3110  -11.7530 C   0  0  0  0  0  0  0  0  0  0  0  0
   11.1240  -15.5640   -7.3180 C   0  0  0  0  0  0  0  0  0  0  0  0
   11.2040  -16.7670   -7.0700 O   0  0  0  0  0  0  0  0  0  0  0  0
   11.3370  -14.5990   -6.3700 N   0  0  0  0  0  0  0  0  0  0  0  0
   11.9030  -14.9150   -5.0700 C   0  0  1  0  0  0  0  0  0  0  0  0
   12.0290  -13.7020   -4.1850 C   0  0  0  0  0  0  0  0  0  0  0  0
   12.4900  -12.4340   -4.5120 C   0  0  0  0  0  0  0  0  0  0  0  0
   12.5570  -11.4680   -3.5040 C   0  0  0  0  0  0  0  0  0  0  0  0
   12.1870  -11.7800   -2.1880 C   0  0  0  0  0  0  0  0  0  0  0  0
   11.7540  -13.0640   -1.8570 C   0  0  0  0  0  0  0  0  0  0  0  0
   11.6780  -14.0130   -2.8640 C   0  0  0  0  0  0  0  0  0  0  0  0
   11.3080  -15.4580   -2.7200 C   0  0  0  0  0  0  0  0  0  0  0  0
   11.0060  -15.8370   -4.1810 C   0  0  1  0  0  0  0  0  0  0  0  0
    9.5880  -15.6490   -4.4390 O   0  0  0  0  0  0  0  0  0  0  0  0
    3.1084  -12.5934   -1.6432 H   0  0  0  0  0  0  0  0  0  0  0  0
    1.7693  -11.5429   -2.2178 H   0  0  0  0  0  0  0  0  0  0  0  0
    1.5734  -13.3285   -2.2178 H   0  0  0  0  0  0  0  0  0  0  0  0
    3.2664  -10.4784   -3.3800 H   0  0  0  0  0  0  0  0  0  0  0  0
    4.0557  -11.1126   -4.8638 H   0  0  0  0  0  0  0  0  0  0  0  0
    2.2942  -10.7611   -4.8638 H   0  0  0  0  0  0  0  0  0  0  0  0
    1.0243  -13.6948   -4.0888 H   0  0  0  0  0  0  0  0  0  0  0  0
    1.3355  -12.4460   -5.3420 H   0  0  0  0  0  0  0  0  0  0  0  0
    2.2807  -13.9735   -5.3420 H   0  0  0  0  0  0  0  0  0  0  0  0
    4.2010  -13.9890   -2.9750 H   0  0  0  0  0  0  0  0  0  0  0  0
    5.8877  -15.3609   -4.9141 H   0  0  0  0  0  0  0  0  0  0  0  0
    5.8157  -14.4826   -2.4864 H   0  0  0  0  0  0  0  0  0  0  0  0
    7.4678  -15.0299   -2.9910 H   0  0  0  0  0  0  0  0  0  0  0  0
    6.4690  -12.2290   -2.9540 H   0  0  0  0  0  0  0  0  0  0  0  0
    8.2681  -13.5870   -1.0379 H   0  0  0  0  0  0  0  0  0  0  0  0
    8.0463  -11.7818   -1.1692 H   0  0  0  0  0  0  0  0  0  0  0  0
    6.5611  -14.9489    0.0373 H   0  0  0  0  0  0  0  0  0  0  0  0
    4.4841  -14.9732    1.4461 H   0  0  0  0  0  0  0  0  0  0  0  0
    3.1853  -12.8870    1.7034 H   0  0  0  0  0  0  0  0  0  0  0  0
    5.9302  -10.7536   -0.6524 H   0  0  0  0  0  0  0  0  0  0  0  0
    8.6663  -11.4417   -3.4959 H   0  0  0  0  0  0  0  0  0  0  0  0
    9.2357  -13.1624   -3.5513 H   0  0  0  0  0  0  0  0  0  0  0  0
    7.2177  -11.8168   -5.4287 H   0  0  0  0  0  0  0  0  0  0  0  0
    8.8732  -12.4233   -5.8322 H   0  0  0  0  0  0  0  0  0  0  0  0
    8.1760  -14.6450   -5.4120 H   0  0  0  0  0  0  0  0  0  0  0  0
    6.1092  -14.6482   -7.1189 H   0  0  0  0  0  0  0  0  0  0  0  0
    7.0616  -13.1862   -7.5277 H   0  0  0  0  0  0  0  0  0  0  0  0
    8.7258  -15.5384   -6.8200 H   0  0  0  0  0  0  0  0  0  0  0  0
    7.4250  -15.5270   -9.4020 H   0  0  0  0  0  0  0  0  0  0  0  0
    8.8501  -14.0448   -9.4252 H   0  0  0  0  0  0  0  0  0  0  0  0
    9.5386  -13.4212   -7.8381 H   0  0  0  0  0  0  0  0  0  0  0  0
   10.3622  -15.9794   -9.2756 H   0  0  0  0  0  0  0  0  0  0  0  0
   11.5893  -13.2252   -9.0643 H   0  0  0  0  0  0  0  0  0  0  0  0
   12.5812  -14.7320   -9.3303 H   0  0  0  0  0  0  0  0  0  0  0  0
   10.5224  -12.1835  -10.8877 H   0  0  0  0  0  0  0  0  0  0  0  0
   10.0732  -12.0980  -13.3350 H   0  0  0  0  0  0  0  0  0  0  0  0
   10.5923  -14.0662  -14.7733 H   0  0  0  0  0  0  0  0  0  0  0  0
   11.5534  -16.1298  -13.7575 H   0  0  0  0  0  0  0  0  0  0  0  0
   12.0078  -16.2251  -11.3108 H   0  0  0  0  0  0  0  0  0  0  0  0
   11.2720  -13.6210   -6.6180 H   0  0  0  0  0  0  0  0  0  0  0  0
   12.8568  -15.3844   -5.3529 H   0  0  0  0  0  0  0  0  0  0  0  0
   12.7957  -12.1949   -5.5413 H   0  0  0  0  0  0  0  0  0  0  0  0
   12.9036  -10.4524   -3.7456 H   0  0  0  0  0  0  0  0  0  0  0  0
   12.2387  -11.0048   -1.4092 H   0  0  0  0  0  0  0  0  0  0  0  0
   11.4796  -13.3170   -0.8222 H   0  0  0  0  0  0  0  0  0  0  0  0
   12.1423  -16.0492   -2.3145 H   0  0  0  0  0  0  0  0  0  0  0  0
   10.4762  -15.6437   -2.0245 H   0  0  0  0  0  0  0  0  0  0  0  0
   11.2306  -16.8907   -4.4027 H   0  0  0  0  0  0  0  0  0  0  0  0
    9.4520  -16.0420   -5.3270 H   0  0  0  0  0  0  0  0  0  0  0  0
  1  2  1  0
  2  3  1  0
  2  4  1  0
  2  5  1  0
  5  6  1  0
  6  7  2  0
  6  8  1  0
  8  9  1  0
  9 10  1  0
 10 11  1  0
 11 12  1  0
 12 13  2  0
 13 14  1  0
 14 15  2  0
 15 16  1  0
 16 17  2  0
 10 18  1  0
 18 19  1  0
 19 20  1  0
 20 21  1  0
 21 22  1  0
 22 23  1  0
 22 24  1  0
 24 25  1  0
 25 26  1  0
 26 27  1  0
 27 28  2  0
 28 29  1  0
 29 30  2  0
 30 31  1  0
 31 32  2  0
 25 33  1  0
 33 34  2  0
 33 35  1  0
 35 36  1  0
 36 37  1  0
 37 38  2  0
 38 39  1  0
 39 40  2  0
 40 41  1  0
 41 42  2  0
 42 43  1  0
 43 44  1  0
 44 45  1  0
 20  8  1  0
 32 27  1  0
 44 36  1  0
 17 12  1  0
 42 37  1  0
  1 46  1  0
  1 47  1  0
  1 48  1  0
  3 49  1  0
  3 50  1  0
  3 51  1  0
  4 52  1  0
  4 53  1  0
  4 54  1  0
  5 55  1  0
  8 56  1  6
  9 57  1  0
  9 58  1  0
 10 59  1  0
 11 60  1  0
 11 61  1  0
 13 62  1  0
 14 63  1  0
 15 64  1  0
 17 65  1  0
 18 66  1  0
 18 67  1  0
 19 68  1  0
 19 69  1  0
 20 70  1  0
 21 71  1  0
 21 72  1  0
 22 73  1  1
 23 74  1  0
 24 75  1  0
 24 76  1  0
 25 77  1  6
 26 78  1  0
 26 79  1  0
 28 80  1  0
 29 81  1  0
 30 82  1  0
 31 83  1  0
 32 84  1  0
 35 85  1  0
 36 86  1  6
 38 87  1  0
 39 88  1  0
 40 89  1  0
 41 90  1  0
 43 91  1  0
 43 92  1  0
 44 93  1  1
 45 94  1  0
M  CHG  2  10   1  20   1
M  END
>  <meeko>  (7) 
{"is_sidechain": [false], "free_energy": -8.829, "intermolecular_energy": -15.68, "internal_energy": -1.563}

$$$$
REF_CHEMBL115__H_AF__e8__s20260927
     RDKit          3D

 94 98  0  0  0  0  0  0  0  0999 V2000
    1.4500  -13.2130   -5.0580 C   0  0  0  0  0  0  0  0  0  0  0  0
    2.6070  -12.3350   -4.5520 C   0  0  0  0  0  0  0  0  0  0  0  0
    2.0610  -11.4210   -3.4430 C   0  0  0  0  0  0  0  0  0  0  0  0
    3.1290  -11.4940   -5.7260 C   0  0  0  0  0  0  0  0  0  0  0  0
    3.6810  -13.2170   -4.0330 N   0  0  0  0  0  0  0  0  0  0  0  0
    4.8510  -12.7680   -3.4780 C   0  0  0  0  0  0  0  0  0  0  0  0
    5.1620  -11.5800   -3.3620 O   0  0  0  0  0  0  0  0  0  0  0  0
    5.8810  -13.8380   -3.0680 C   0  0  2  0  0  0  0  0  0  0  0  0
    5.1760  -14.8080   -2.0720 C   0  0  0  0  0  0  0  0  0  0  0  0
    4.8050  -14.1000   -0.7620 N   0  0  0  0  0  0  0  0  0  0  0  0
    3.9980  -14.9930    0.1670 C   0  0  0  0  0  0  0  0  0  0  0  0
    2.5590  -14.5930    0.2600 C   0  0  0  0  0  0  0  0  0  0  0  0
    1.8820  -14.0140   -0.8200 C   0  0  0  0  0  0  0  0  0  0  0  0
    0.5530  -13.6220   -0.6690 C   0  0  0  0  0  0  0  0  0  0  0  0
   -0.0530  -13.8110    0.5610 C   0  0  0  0  0  0  0  0  0  0  0  0
    0.5790  -14.3600    1.6200 N   0  0  0  0  0  0  0  0  0  0  0  0
    1.8520  -14.7610    1.4450 C   0  0  0  0  0  0  0  0  0  0  0  0
    6.0010  -13.4330   -0.0900 C   0  0  0  0  0  0  0  0  0  0  0  0
    6.7570  -12.4930   -1.0650 C   0  0  0  0  0  0  0  0  0  0  0  0
    7.1110  -13.2130   -2.3580 N   0  0  0  0  0  0  0  0  0  0  0  0
    7.9590  -12.3760   -3.3160 C   0  0  0  0  0  0  0  0  0  0  0  0
    8.2790  -13.2210   -4.5670 C   0  0  1  0  0  0  0  0  0  0  0  0
    9.1650  -12.4150   -5.3830 O   0  0  0  0  0  0  0  0  0  0  0  0
    8.9490  -14.5810   -4.2910 C   0  0  0  0  0  0  0  0  0  0  0  0
   10.4460  -14.6580   -4.6570 C   0  0  1  0  0  0  0  0  0  0  0  0
   11.3310  -14.5900   -3.3970 C   0  0  0  0  0  0  0  0  0  0  0  0
   11.9530  -13.2320   -3.1850 C   0  0  0  0  0  0  0  0  0  0  0  0
   12.8050  -12.6780   -4.1510 C   0  0  0  0  0  0  0  0  0  0  0  0
   13.3660  -11.4150   -3.9600 C   0  0  0  0  0  0  0  0  0  0  0  0
   13.0870  -10.6940   -2.8020 C   0  0  0  0  0  0  0  0  0  0  0  0
   12.2490  -11.2370   -1.8310 C   0  0  0  0  0  0  0  0  0  0  0  0
   11.6860  -12.5000   -2.0180 C   0  0  0  0  0  0  0  0  0  0  0  0
   10.7060  -15.9180   -5.4850 C   0  0  0  0  0  0  0  0  0  0  0  0
    9.8890  -16.8390   -5.4860 O   0  0  0  0  0  0  0  0  0  0  0  0
   11.9470  -16.0320   -6.0530 N   0  0  0  0  0  0  0  0  0  0  0  0
   12.3000  -17.1560   -6.9020 C   0  0  1  0  0  0  0  0  0  0  0  0
   13.3910  -16.8170   -7.8850 C   0  0  0  0  0  0  0  0  0  0  0  0
   13.5290  -15.6790   -8.6690 C   0  0  0  0  0  0  0  0  0  0  0  0
   14.6120  -15.6020   -9.5480 C   0  0  0  0  0  0  0  0  0  0  0  0
   15.5270  -16.6600   -9.6520 C   0  0  0  0  0  0  0  0  0  0  0  0
   15.3670  -17.8140   -8.8850 C   0  0  0  0  0  0  0  0  0  0  0  0
   14.2990  -17.8780   -8.0060 C   0  0  0  0  0  0  0  0  0  0  0  0
   13.9020  -19.0390   -7.1450 C   0  0  0  0  0  0  0  0  0  0  0  0
   12.9510  -18.3600   -6.1440 C   0  0  1  0  0  0  0  0  0  0  0  0
   13.7080  -17.9380   -4.9770 O   0  0  0  0  0  0  0  0  0  0  0  0
    0.9024  -13.6286   -4.1993 H   0  0  0  0  0  0  0  0  0  0  0  0
    0.7671  -12.6037   -5.6683 H   0  0  0  0  0  0  0  0  0  0  0  0
    1.8530  -14.0347   -5.6683 H   0  0  0  0  0  0  0  0  0  0  0  0
    2.3144  -11.8453   -2.4603 H   0  0  0  0  0  0  0  0  0  0  0  0
    2.5100  -10.4213   -3.5376 H   0  0  0  0  0  0  0  0  0  0  0  0
    0.9679  -11.3425   -3.5376 H   0  0  0  0  0  0  0  0  0  0  0  0
    3.6718  -10.6195   -5.3378 H   0  0  0  0  0  0  0  0  0  0  0  0
    3.8077  -12.1037   -6.3406 H   0  0  0  0  0  0  0  0  0  0  0  0
    2.2815  -11.1564   -6.3406 H   0  0  0  0  0  0  0  0  0  0  0  0
    3.5180  -14.2160   -4.1510 H   0  0  0  0  0  0  0  0  0  0  0  0
    6.2378  -14.3546   -3.9712 H   0  0  0  0  0  0  0  0  0  0  0  0
    4.2594  -15.1963   -2.5401 H   0  0  0  0  0  0  0  0  0  0  0  0
    5.8730  -15.6257   -1.8361 H   0  0  0  0  0  0  0  0  0  0  0  0
    4.1510  -13.3350   -1.0400 H   0  0  0  0  0  0  0  0  0  0  0  0
    4.0510  -16.0262   -0.2068 H   0  0  0  0  0  0  0  0  0  0  0  0
    4.4314  -14.8971    1.1735 H   0  0  0  0  0  0  0  0  0  0  0  0
    2.3958  -13.8693   -1.7818 H   0  0  0  0  0  0  0  0  0  0  0  0
   -0.0008  -13.1734   -1.5069 H   0  0  0  0  0  0  0  0  0  0  0  0
   -1.1008  -13.4986    0.6815 H   0  0  0  0  0  0  0  0  0  0  0  0
    2.3621  -15.2497    2.2882 H   0  0  0  0  0  0  0  0  0  0  0  0
    5.6450  -12.8444    0.7684 H   0  0  0  0  0  0  0  0  0  0  0  0
    6.6961  -14.2217    0.2336 H   0  0  0  0  0  0  0  0  0  0  0  0
    6.1178  -11.6288   -1.2987 H   0  0  0  0  0  0  0  0  0  0  0  0
    7.6892  -12.1656   -0.5815 H   0  0  0  0  0  0  0  0  0  0  0  0
    7.7890  -13.9640   -2.1170 H   0  0  0  0  0  0  0  0  0  0  0  0
    7.4017  -11.4748   -3.6115 H   0  0  0  0  0  0  0  0  0  0  0  0
    8.8936  -12.0742   -2.8205 H   0  0  0  0  0  0  0  0  0  0  0  0
    7.3246  -13.4726   -5.0526 H   0  0  0  0  0  0  0  0  0  0  0  0
    8.6920  -12.2290   -6.2240 H   0  0  0  0  0  0  0  0  0  0  0  0
    8.8488  -14.7989   -3.2175 H   0  0  0  0  0  0  0  0  0  0  0  0
    8.4376  -15.3114   -4.9352 H   0  0  0  0  0  0  0  0  0  0  0  0
   10.7162  -13.7861   -5.2708 H   0  0  0  0  0  0  0  0  0  0  0  0
   10.7120  -14.8325   -2.5206 H   0  0  0  0  0  0  0  0  0  0  0  0
   12.1517  -15.3098   -3.5326 H   0  0  0  0  0  0  0  0  0  0  0  0
   13.0328  -13.2436   -5.0665 H   0  0  0  0  0  0  0  0  0  0  0  0
   14.0301  -10.9879   -4.7258 H   0  0  0  0  0  0  0  0  0  0  0  0
   13.5277   -9.6970   -2.6542 H   0  0  0  0  0  0  0  0  0  0  0  0
   12.0305  -10.6690   -0.9147 H   0  0  0  0  0  0  0  0  0  0  0  0
   11.0284  -12.9247   -1.2453 H   0  0  0  0  0  0  0  0  0  0  0  0
   12.5850  -15.2480   -6.0390 H   0  0  0  0  0  0  0  0  0  0  0  0
   11.3283  -17.4046   -7.3537 H   0  0  0  0  0  0  0  0  0  0  0  0
   12.8018  -14.8566   -8.5994 H   0  0  0  0  0  0  0  0  0  0  0  0
   14.7487  -14.7019  -10.1653 H   0  0  0  0  0  0  0  0  0  0  0  0
   16.3780  -16.5790  -10.3443 H   0  0  0  0  0  0  0  0  0  0  0  0
   16.0724  -18.6531   -8.9762 H   0  0  0  0  0  0  0  0  0  0  0  0
   13.3852  -19.8151   -7.7286 H   0  0  0  0  0  0  0  0  0  0  0  0
   14.7483  -19.5637   -6.6777 H   0  0  0  0  0  0  0  0  0  0  0  0
   12.1620  -19.0352   -5.7813 H   0  0  0  0  0  0  0  0  0  0  0  0
   13.7090  -16.9590   -5.0330 H   0  0  0  0  0  0  0  0  0  0  0  0
  1  2  1  0
  2  3  1  0
  2  4  1  0
  2  5  1  0
  5  6  1  0
  6  7  2  0
  6  8  1  0
  8  9  1  0
  9 10  1  0
 10 11  1  0
 11 12  1  0
 12 13  2  0
 13 14  1  0
 14 15  2  0
 15 16  1  0
 16 17  2  0
 10 18  1  0
 18 19  1  0
 19 20  1  0
 20 21  1  0
 21 22  1  0
 22 23  1  0
 22 24  1  0
 24 25  1  0
 25 26  1  0
 26 27  1  0
 27 28  2  0
 28 29  1  0
 29 30  2  0
 30 31  1  0
 31 32  2  0
 25 33  1  0
 33 34  2  0
 33 35  1  0
 35 36  1  0
 36 37  1  0
 37 38  2  0
 38 39  1  0
 39 40  2  0
 40 41  1  0
 41 42  2  0
 42 43  1  0
 43 44  1  0
 44 45  1  0
 20  8  1  0
 32 27  1  0
 44 36  1  0
 17 12  1  0
 42 37  1  0
  1 46  1  0
  1 47  1  0
  1 48  1  0
  3 49  1  0
  3 50  1  0
  3 51  1  0
  4 52  1  0
  4 53  1  0
  4 54  1  0
  5 55  1  0
  8 56  1  6
  9 57  1  0
  9 58  1  0
 10 59  1  0
 11 60  1  0
 11 61  1  0
 13 62  1  0
 14 63  1  0
 15 64  1  0
 17 65  1  0
 18 66  1  0
 18 67  1  0
 19 68  1  0
 19 69  1  0
 20 70  1  0
 21 71  1  0
 21 72  1  0
 22 73  1  6
 23 74  1  0
 24 75  1  0
 24 76  1  0
 25 77  1  6
 26 78  1  0
 26 79  1  0
 28 80  1  0
 29 81  1  0
 30 82  1  0
 31 83  1  0
 32 84  1  0
 35 85  1  0
 36 86  1  6
 38 87  1  0
 39 88  1  0
 40 89  1  0
 41 90  1  0
 43 91  1  0
 43 92  1  0
 44 93  1  1
 45 94  1  0
M  CHG  2  10   1  20   1
M  END
>  <meeko>  (8) 
{"is_sidechain": [false], "free_energy": -8.806, "intermolecular_energy": -15.896, "internal_energy": -1.306}

$$$$
REF_CHEMBL115__H_AF__e8__s20260927
     RDKit          3D

 94 98  0  0  0  0  0  0  0  0999 V2000
   12.0050  -13.7820   -3.0210 C   0  0  0  0  0  0  0  0  0  0  0  0
   11.9430  -12.2630   -3.2600 C   0  0  0  0  0  0  0  0  0  0  0  0
   13.2110  -11.8510   -4.0260 C   0  0  0  0  0  0  0  0  0  0  0  0
   11.8920  -11.5580   -1.8960 C   0  0  0  0  0  0  0  0  0  0  0  0
   10.7230  -11.9550   -4.0460 N   0  0  0  0  0  0  0  0  0  0  0  0
    9.4450  -12.2060   -3.6210 C   0  0  0  0  0  0  0  0  0  0  0  0
    9.1540  -12.7360   -2.5450 O   0  0  0  0  0  0  0  0  0  0  0  0
    8.3090  -11.8890   -4.6120 C   0  0  2  0  0  0  0  0  0  0  0  0
    7.1450  -11.2480   -3.7970 C   0  0  0  0  0  0  0  0  0  0  0  0
    6.5320  -12.2470   -2.8060 N   0  0  0  0  0  0  0  0  0  0  0  0
    5.4870  -11.6030   -1.9100 C   0  0  0  0  0  0  0  0  0  0  0  0
    5.1360  -12.4420   -0.7220 C   0  0  0  0  0  0  0  0  0  0  0  0
    3.8160  -12.8270   -0.4530 C   0  0  0  0  0  0  0  0  0  0  0  0
    3.5360  -13.5750    0.6890 C   0  0  0  0  0  0  0  0  0  0  0  0
    4.5820  -13.9040    1.5330 C   0  0  0  0  0  0  0  0  0  0  0  0
    5.8610  -13.5400    1.3020 N   0  0  0  0  0  0  0  0  0  0  0  0
    6.1170  -12.8460    0.1770 C   0  0  0  0  0  0  0  0  0  0  0  0
    6.0600  -13.5330   -3.4770 C   0  0  0  0  0  0  0  0  0  0  0  0
    7.1790  -14.1780   -4.3350 C   0  0  0  0  0  0  0  0  0  0  0  0
    7.7760  -13.1700   -5.3070 N   0  0  0  0  0  0  0  0  0  0  0  0
    8.8050  -13.7710   -6.2630 C   0  0  0  0  0  0  0  0  0  0  0  0
    8.0700  -14.6320   -7.3120 C   0  0  1  0  0  0  0  0  0  0  0  0
    7.4230  -13.7020   -8.2160 O   0  0  0  0  0  0  0  0  0  0  0  0
    8.9650  -15.5840   -8.1280 C   0  0  0  0  0  0  0  0  0  0  0  0
   10.4680  -15.5220   -7.7870 C   0  0  1  0  0  0  0  0  0  0  0  0
   11.0270  -16.9250   -7.4780 C   0  0  0  0  0  0  0  0  0  0  0  0
   11.3500  -17.1240   -6.0180 C   0  0  0  0  0  0  0  0  0  0  0  0
   10.3310  -17.1270   -5.0550 C   0  0  0  0  0  0  0  0  0  0  0  0
   10.6300  -17.3280   -3.7070 C   0  0  0  0  0  0  0  0  0  0  0  0
   11.9490  -17.5240   -3.3050 C   0  0  0  0  0  0  0  0  0  0  0  0
   12.9720  -17.5150   -4.2520 C   0  0  0  0  0  0  0  0  0  0  0  0
   12.6760  -17.3140   -5.6000 C   0  0  0  0  0  0  0  0  0  0  0  0
   11.2240  -14.8310   -8.9240 C   0  0  0  0  0  0  0  0  0  0  0  0
   12.4190  -14.5630   -8.8010 O   0  0  0  0  0  0  0  0  0  0  0  0
   10.4690  -14.3760   -9.9720 N   0  0  0  0  0  0  0  0  0  0  0  0
   11.0720  -13.7490  -11.1340 C   0  0  1  0  0  0  0  0  0  0  0  0
   11.1510  -14.6780  -12.3170 C   0  0  0  0  0  0  0  0  0  0  0  0
   11.5410  -16.0100  -12.3490 C   0  0  0  0  0  0  0  0  0  0  0  0
   11.5760  -16.6660  -13.5820 C   0  0  0  0  0  0  0  0  0  0  0  0
   11.2450  -15.9870  -14.7640 C   0  0  0  0  0  0  0  0  0  0  0  0
   10.8840  -14.6400  -14.7310 C   0  0  0  0  0  0  0  0  0  0  0  0
   10.8390  -14.0000  -13.5040 C   0  0  0  0  0  0  0  0  0  0  0  0
   10.5460  -12.5530  -13.2480 C   0  0  0  0  0  0  0  0  0  0  0  0
   10.2380  -12.5710  -11.7400 C   0  0  1  0  0  0  0  0  0  0  0  0
    8.8080  -12.7470  -11.5470 O   0  0  0  0  0  0  0  0  0  0  0  0
   12.0132  -13.9830   -1.9395 H   0  0  0  0  0  0  0  0  0  0  0  0
   11.1257  -14.2610   -3.4763 H   0  0  0  0  0  0  0  0  0  0  0  0
   12.9205  -14.1878   -3.4763 H   0  0  0  0  0  0  0  0  0  0  0  0
   14.0047  -11.5931   -3.3094 H   0  0  0  0  0  0  0  0  0  0  0  0
   13.5452  -12.6868   -4.6583 H   0  0  0  0  0  0  0  0  0  0  0  0
   12.9901  -10.9784   -4.6583 H   0  0  0  0  0  0  0  0  0  0  0  0
   11.9463  -12.3081   -1.0933 H   0  0  0  0  0  0  0  0  0  0  0  0
   12.7424  -10.8657   -1.8090 H   0  0  0  0  0  0  0  0  0  0  0  0
   10.9508  -10.9953   -1.8090 H   0  0  0  0  0  0  0  0  0  0  0  0
   10.8910  -11.5690   -4.9740 H   0  0  0  0  0  0  0  0  0  0  0  0
    8.6923  -11.2152   -5.3925 H   0  0  0  0  0  0  0  0  0  0  0  0
    7.5340  -10.3840   -3.2383 H   0  0  0  0  0  0  0  0  0  0  0  0
    6.3604  -10.9384   -4.5031 H   0  0  0  0  0  0  0  0  0  0  0  0
    7.3130  -12.5120   -2.1660 H   0  0  0  0  0  0  0  0  0  0  0  0
    5.8774  -10.6381   -1.5543 H   0  0  0  0  0  0  0  0  0  0  0  0
    4.5718  -11.4814   -2.5080 H   0  0  0  0  0  0  0  0  0  0  0  0
    3.0054  -12.5405   -1.1392 H   0  0  0  0  0  0  0  0  0  0  0  0
    2.5083  -13.8961    0.9140 H   0  0  0  0  0  0  0  0  0  0  0  0
    4.3603  -14.4910    2.4365 H   0  0  0  0  0  0  0  0  0  0  0  0
    7.1622  -12.5835   -0.0437 H   0  0  0  0  0  0  0  0  0  0  0  0
    5.7504  -14.2474   -2.6999 H   0  0  0  0  0  0  0  0  0  0  0  0
    5.2197  -13.2838   -4.1417 H   0  0  0  0  0  0  0  0  0  0  0  0
    7.9727  -14.5489   -3.6698 H   0  0  0  0  0  0  0  0  0  0  0  0
    6.7417  -15.0045   -4.9144 H   0  0  0  0  0  0  0  0  0  0  0  0
    7.0250  -12.9100   -5.9810 H   0  0  0  0  0  0  0  0  0  0  0  0
    9.3554  -12.9636   -6.7681 H   0  0  0  0  0  0  0  0  0  0  0  0
    9.5160  -14.3945   -5.7012 H   0  0  0  0  0  0  0  0  0  0  0  0
    7.3754  -15.2933   -6.7733 H   0  0  0  0  0  0  0  0  0  0  0  0
    8.0520  -12.9630   -8.3660 H   0  0  0  0  0  0  0  0  0  0  0  0
    8.6178  -16.6128   -7.9519 H   0  0  0  0  0  0  0  0  0  0  0  0
    8.8754  -15.2649   -9.1769 H   0  0  0  0  0  0  0  0  0  0  0  0
   10.6089  -14.9254   -6.8736 H   0  0  0  0  0  0  0  0  0  0  0  0
   10.2785  -17.6738   -7.7763 H   0  0  0  0  0  0  0  0  0  0  0  0
   11.9661  -17.0354   -8.0401 H   0  0  0  0  0  0  0  0  0  0  0  0
    9.2873  -16.9696   -5.3647 H   0  0  0  0  0  0  0  0  0  0  0  0
    9.8223  -17.3317   -2.9603 H   0  0  0  0  0  0  0  0  0  0  0  0
   12.1831  -17.6856   -2.2424 H   0  0  0  0  0  0  0  0  0  0  0  0
   14.0145  -17.6667   -3.9355 H   0  0  0  0  0  0  0  0  0  0  0  0
   13.4885  -17.3043   -6.3415 H   0  0  0  0  0  0  0  0  0  0  0  0
    9.4920  -14.6290  -10.0410 H   0  0  0  0  0  0  0  0  0  0  0  0
   12.0436  -13.4277  -10.7305 H   0  0  0  0  0  0  0  0  0  0  0  0
   11.8164  -16.5374  -11.4238 H   0  0  0  0  0  0  0  0  0  0  0  0
   11.8662  -17.7261  -13.6264 H   0  0  0  0  0  0  0  0  0  0  0  0
   11.2703  -16.5213  -15.7252 H   0  0  0  0  0  0  0  0  0  0  0  0
   10.6409  -14.0992  -15.6575 H   0  0  0  0  0  0  0  0  0  0  0  0
   11.4165  -11.9196  -13.4739 H   0  0  0  0  0  0  0  0  0  0  0  0
    9.7370  -12.1401  -13.8685 H   0  0  0  0  0  0  0  0  0  0  0  0
   10.5116  -11.6310  -11.2385 H   0  0  0  0  0  0  0  0  0  0  0  0
    8.5730  -13.4780  -12.1550 H   0  0  0  0  0  0  0  0  0  0  0  0
  1  2  1  0
  2  3  1  0
  2  4  1  0
  2  5  1  0
  5  6  1  0
  6  7  2  0
  6  8  1  0
  8  9  1  0
  9 10  1  0
 10 11  1  0
 11 12  1  0
 12 13  2  0
 13 14  1  0
 14 15  2  0
 15 16  1  0
 16 17  2  0
 10 18  1  0
 18 19  1  0
 19 20  1  0
 20 21  1  0
 21 22  1  0
 22 23  1  0
 22 24  1  0
 24 25  1  0
 25 26  1  0
 26 27  1  0
 27 28  2  0
 28 29  1  0
 29 30  2  0
 30 31  1  0
 31 32  2  0
 25 33  1  0
 33 34  2  0
 33 35  1  0
 35 36  1  0
 36 37  1  0
 37 38  2  0
 38 39  1  0
 39 40  2  0
 40 41  1  0
 41 42  2  0
 42 43  1  0
 43 44  1  0
 44 45  1  0
 20  8  1  0
 32 27  1  0
 44 36  1  0
 17 12  1  0
 42 37  1  0
  1 46  1  0
  1 47  1  0
  1 48  1  0
  3 49  1  0
  3 50  1  0
  3 51  1  0
  4 52  1  0
  4 53  1  0
  4 54  1  0
  5 55  1  0
  8 56  1  6
  9 57  1  0
  9 58  1  0
 10 59  1  0
 11 60  1  0
 11 61  1  0
 13 62  1  0
 14 63  1  0
 15 64  1  0
 17 65  1  0
 18 66  1  0
 18 67  1  0
 19 68  1  0
 19 69  1  0
 20 70  1  0
 21 71  1  0
 21 72  1  0
 22 73  1  1
 23 74  1  0
 24 75  1  0
 24 76  1  0
 25 77  1  1
 26 78  1  0
 26 79  1  0
 28 80  1  0
 29 81  1  0
 30 82  1  0
 31 83  1  0
 32 84  1  0
 35 85  1  0
 36 86  1  1
 38 87  1  0
 39 88  1  0
 40 89  1  0
 41 90  1  0
 43 91  1  0
 43 92  1  0
 44 93  1  1
 45 94  1  0
M  CHG  2  10   1  20   1
M  END
>  <meeko>  (9) 
{"is_sidechain": [false], "free_energy": -8.768, "intermolecular_energy": -15.087, "internal_energy": -2.048}

$$$$
