
     RDKit          3D

 94 98  0  0  0  0  0  0  0  0999 V2000
    0.2059   -3.6262    1.2499 C   0  0  0  0  0  0  0  0  0  0  0  0
    1.5460   -2.9576    0.8957 C   0  0  0  0  0  0  0  0  0  0  0  0
    2.4728   -4.0341    0.3069 C   0  0  0  0  0  0  0  0  0  0  0  0
    2.1537   -2.3776    2.1825 C   0  0  0  0  0  0  0  0  0  0  0  0
    1.2925   -1.8765   -0.0876 N   0  0  0  0  0  0  0  0  0  0  0  0
    2.2724   -1.1133   -0.6669 C   0  0  0  0  0  0  0  0  0  0  0  0
    3.4777   -1.2169   -0.4262 O   0  0  0  0  0  0  0  0  0  0  0  0
    1.8079    0.0160   -1.6059 C   0  0  2  0  0  0  0  0  0  0  0  0
    2.9211    0.2175   -2.6791 C   0  0  0  0  0  0  0  0  0  0  0  0
    4.2213    0.7407   -2.0523 N   0  0  0  0  0  0  0  0  0  0  0  0
    5.3571    0.8156   -3.0593 C   0  0  0  0  0  0  0  0  0  0  0  0
    6.6906    1.0458   -2.4222 C   0  0  0  0  0  0  0  0  0  0  0  0
    7.3112    0.0704   -1.6319 C   0  0  0  0  0  0  0  0  0  0  0  0
    8.5350    0.3487   -1.0272 C   0  0  0  0  0  0  0  0  0  0  0  0
    9.0951    1.5986   -1.2219 C   0  0  0  0  0  0  0  0  0  0  0  0
    8.5161    2.5603   -1.9721 N   0  0  0  0  0  0  0  0  0  0  0  0
    7.3505    2.2611   -2.5741 C   0  0  0  0  0  0  0  0  0  0  0  0
    4.0186    2.0247   -1.2541 C   0  0  0  0  0  0  0  0  0  0  0  0
    2.8856    1.8774   -0.2046 C   0  0  0  0  0  0  0  0  0  0  0  0
    1.6086    1.3541   -0.8458 N   0  0  0  0  0  0  0  0  0  0  0  0
    0.4190    1.2950    0.1114 C   0  0  0  0  0  0  0  0  0  0  0  0
   -0.1593    2.7160    0.2765 C   0  0  1  0  0  0  0  0  0  0  0  0
    0.1615    3.4279   -0.9437 O   0  0  0  0  0  0  0  0  0  0  0  0
   -1.6802    2.7861    0.5132 C   0  0  0  0  0  0  0  0  0  0  0  0
   -2.1998    1.9288    1.6859 C   0  0  1  0  0  0  0  0  0  0  0  0
   -3.5016    2.5145    2.2683 C   0  0  0  0  0  0  0  0  0  0  0  0
   -4.0261    1.7327    3.4475 C   0  0  0  0  0  0  0  0  0  0  0  0
   -5.1949    0.9675    3.3328 C   0  0  0  0  0  0  0  0  0  0  0  0
   -5.6693    0.2321    4.4201 C   0  0  0  0  0  0  0  0  0  0  0  0
   -4.9845    0.2573    5.6326 C   0  0  0  0  0  0  0  0  0  0  0  0
   -3.8273    1.0214    5.7614 C   0  0  0  0  0  0  0  0  0  0  0  0
   -3.3500    1.7571    4.6757 C   0  0  0  0  0  0  0  0  0  0  0  0
   -2.3658    0.4789    1.2267 C   0  0  0  0  0  0  0  0  0  0  0  0
   -1.5053   -0.3592    1.4964 O   0  0  0  0  0  0  0  0  0  0  0  0
   -3.4019    0.2241    0.3677 N   0  0  0  0  0  0  0  0  0  0  0  0
   -3.6954   -1.1188   -0.1002 C   0  0  1  0  0  0  0  0  0  0  0  0
   -4.8475   -1.1541   -1.0695 C   0  0  0  0  0  0  0  0  0  0  0  0
   -6.0671   -0.4953   -0.9923 C   0  0  0  0  0  0  0  0  0  0  0  0
   -7.0091   -0.7139   -2.0001 C   0  0  0  0  0  0  0  0  0  0  0  0
   -6.7368   -1.5971   -3.0547 C   0  0  0  0  0  0  0  0  0  0  0  0
   -5.5225   -2.2814   -3.1135 C   0  0  0  0  0  0  0  0  0  0  0  0
   -4.5880   -2.0488   -2.1176 C   0  0  0  0  0  0  0  0  0  0  0  0
   -3.2587   -2.7212   -1.9488 C   0  0  0  0  0  0  0  0  0  0  0  0
   -2.5616   -1.7635   -0.9649 C   0  0  1  0  0  0  0  0  0  0  0  0
   -1.8054   -0.7762   -1.7159 O   0  0  0  0  0  0  0  0  0  0  0  0
   -0.2707   -4.0502    0.3586 H   0  0  0  0  0  0  0  0  0  0  0  0
   -0.4940   -2.9057    1.6865 H   0  0  0  0  0  0  0  0  0  0  0  0
    0.3423   -4.4373    1.9741 H   0  0  0  0  0  0  0  0  0  0  0  0
    3.4784   -3.6504    0.1092 H   0  0  0  0  0  0  0  0  0  0  0  0
    2.0765   -4.4174   -0.6404 H   0  0  0  0  0  0  0  0  0  0  0  0
    2.5809   -4.8810    0.9942 H   0  0  0  0  0  0  0  0  0  0  0  0
    2.2740   -3.1526    2.9478 H   0  0  0  0  0  0  0  0  0  0  0  0
    3.1400   -1.9363    2.0066 H   0  0  0  0  0  0  0  0  0  0  0  0
    1.5141   -1.5899    2.5974 H   0  0  0  0  0  0  0  0  0  0  0  0
    0.3113   -1.6948   -0.2900 H   0  0  0  0  0  0  0  0  0  0  0  0
    0.8596   -0.2336   -2.0905 H   0  0  0  0  0  0  0  0  0  0  0  0
    2.6146    0.9563   -3.4276 H   0  0  0  0  0  0  0  0  0  0  0  0
    3.1639   -0.7295   -3.1733 H   0  0  0  0  0  0  0  0  0  0  0  0
    4.5110    0.0049   -1.3705 H   0  0  0  0  0  0  0  0  0  0  0  0
    5.0973    1.6060   -3.7729 H   0  0  0  0  0  0  0  0  0  0  0  0
    5.3721   -0.1383   -3.5994 H   0  0  0  0  0  0  0  0  0  0  0  0
    6.8724   -0.9151   -1.4884 H   0  0  0  0  0  0  0  0  0  0  0  0
    9.0493   -0.3928   -0.4226 H   0  0  0  0  0  0  0  0  0  0  0  0
   10.0500    1.8659   -0.7745 H   0  0  0  0  0  0  0  0  0  0  0  0
    6.9558    3.0664   -3.1898 H   0  0  0  0  0  0  0  0  0  0  0  0
    3.7783    2.8118   -1.9769 H   0  0  0  0  0  0  0  0  0  0  0  0
    4.9572    2.2611   -0.7458 H   0  0  0  0  0  0  0  0  0  0  0  0
    2.6598    2.8529    0.2366 H   0  0  0  0  0  0  0  0  0  0  0  0
    3.1663    1.1830    0.5934 H   0  0  0  0  0  0  0  0  0  0  0  0
    1.2767    2.0827   -1.5110 H   0  0  0  0  0  0  0  0  0  0  0  0
   -0.3097    0.6692   -0.3986 H   0  0  0  0  0  0  0  0  0  0  0  0
    0.7405    0.8410    1.0526 H   0  0  0  0  0  0  0  0  0  0  0  0
    0.3666    3.2272    1.0908 H   0  0  0  0  0  0  0  0  0  0  0  0
   -0.2879    4.2998   -0.8947 H   0  0  0  0  0  0  0  0  0  0  0  0
   -1.9294    3.8412    0.6892 H   0  0  0  0  0  0  0  0  0  0  0  0
   -2.1985    2.5265   -0.4193 H   0  0  0  0  0  0  0  0  0  0  0  0
   -1.4434    1.9281    2.4825 H   0  0  0  0  0  0  0  0  0  0  0  0
   -4.2769    2.5938    1.4965 H   0  0  0  0  0  0  0  0  0  0  0  0
   -3.3214    3.5450    2.6029 H   0  0  0  0  0  0  0  0  0  0  0  0
   -5.7582    0.9401    2.4040 H   0  0  0  0  0  0  0  0  0  0  0  0
   -6.5806   -0.3546    4.3279 H   0  0  0  0  0  0  0  0  0  0  0  0
   -5.3602   -0.3094    6.4817 H   0  0  0  0  0  0  0  0  0  0  0  0
   -3.3035    1.0499    6.7142 H   0  0  0  0  0  0  0  0  0  0  0  0
   -2.4530    2.3572    4.8071 H   0  0  0  0  0  0  0  0  0  0  0  0
   -4.0940    0.9370    0.1816 H   0  0  0  0  0  0  0  0  0  0  0  0
   -3.9272   -1.7600    0.7590 H   0  0  0  0  0  0  0  0  0  0  0  0
   -6.3134    0.1607   -0.1635 H   0  0  0  0  0  0  0  0  0  0  0  0
   -7.9750   -0.2131   -1.9597 H   0  0  0  0  0  0  0  0  0  0  0  0
   -7.4919   -1.7676   -3.8204 H   0  0  0  0  0  0  0  0  0  0  0  0
   -5.3335   -2.9898   -3.9153 H   0  0  0  0  0  0  0  0  0  0  0  0
   -3.4067   -3.7092   -1.5010 H   0  0  0  0  0  0  0  0  0  0  0  0
   -2.7232   -2.8024   -2.8991 H   0  0  0  0  0  0  0  0  0  0  0  0
   -1.8380   -2.2941   -0.3442 H   0  0  0  0  0  0  0  0  0  0  0  0
   -2.4806   -0.3211   -2.2614 H   0  0  0  0  0  0  0  0  0  0  0  0
  1  2  1  0
  2  3  1  0
  2  4  1  0
  2  5  1  0
  5  6  1  0
  6  7  2  0
  6  8  1  0
  8  9  1  0
  9 10  1  0
 10 11  1  0
 11 12  1  0
 12 13  2  0
 13 14  1  0
 14 15  2  0
 15 16  1  0
 16 17  2  0
 10 18  1  0
 18 19  1  0
 19 20  1  0
 20 21  1  0
 21 22  1  0
 22 23  1  0
 22 24  1  0
 24 25  1  0
 25 26  1  0
 26 27  1  0
 27 28  2  0
 28 29  1  0
 29 30  2  0
 30 31  1  0
 31 32  2  0
 25 33  1  0
 33 34  2  0
 33 35  1  0
 35 36  1  0
 36 37  1  0
 37 38  2  0
 38 39  1  0
 39 40  2  0
 40 41  1  0
 41 42  2  0
 42 43  1  0
 43 44  1  0
 44 45  1  0
 20  8  1  0
 32 27  1  0
 44 36  1  0
 17 12  1  0
 42 37  1  0
  1 46  1  0
  1 47  1  0
  1 48  1  0
  3 49  1  0
  3 50  1  0
  3 51  1  0
  4 52  1  0
  4 53  1  0
  4 54  1  0
  5 55  1  0
  8 56  1  6
  9 57  1  0
  9 58  1  0
 10 59  1  0
 11 60  1  0
 11 61  1  0
 13 62  1  0
 14 63  1  0
 15 64  1  0
 17 65  1  0
 18 66  1  0
 18 67  1  0
 19 68  1  0
 19 69  1  0
 20 70  1  0
 21 71  1  0
 21 72  1  0
 22 73  1  1
 23 74  1  0
 24 75  1  0
 24 76  1  0
 25 77  1  1
 26 78  1  0
 26 79  1  0
 28 80  1  0
 29 81  1  0
 30 82  1  0
 31 83  1  0
 32 84  1  0
 35 85  1  0
 36 86  1  1
 38 87  1  0
 39 88  1  0
 40 89  1  0
 41 90  1  0
 43 91  1  0
 43 92  1  0
 44 93  1  1
 45 94  1  0
M  CHG  2  10   1  20   1
M  END
$$$$
