LIB_YWDIXVZCRMMQQY__M_PUB_ALL__e8__s20260927
     RDKit          3D

 55 59  0  0  0  0  0  0  0  0999 V2000
    4.1060  -13.2590   -6.4390 O   0  0  0  0  0  0  0  0  0  0  0  0
    5.1420  -12.9550   -5.8610 C   0  0  0  0  0  0  0  0  0  0  0  0
    5.2080  -12.1970   -4.7010 N   0  0  0  0  0  0  0  0  0  0  0  0
    4.1320  -11.7540   -3.9000 C   0  0  0  0  0  0  0  0  0  0  0  0
    3.4720  -10.5880   -4.3050 C   0  0  0  0  0  0  0  0  0  0  0  0
    2.4040  -10.0850   -3.5630 C   0  0  0  0  0  0  0  0  0  0  0  0
    1.9860  -10.7450   -2.4090 C   0  0  0  0  0  0  0  0  0  0  0  0
    2.6270  -11.9160   -1.9800 C   0  0  0  0  0  0  0  0  0  0  0  0
    2.1700  -12.5890   -0.7380 C   0  0  0  0  0  0  0  0  0  0  0  0
    3.0320  -13.3330   -0.0140 C   0  0  0  0  0  0  0  0  0  0  0  0
    2.5620  -13.9530    1.1210 N   0  0  0  0  0  0  0  0  0  0  0  0
    3.1630  -14.7560    2.0510 C   0  0  0  0  0  0  0  0  0  0  0  0
    2.1660  -15.0680    2.9530 C   0  0  0  0  0  0  0  0  0  0  0  0
    0.9720  -14.4830    2.6000 N   0  0  0  0  0  0  0  0  0  0  0  0
    1.2560  -13.8200    1.4960 C   0  0  0  0  0  0  0  0  0  0  0  0
    0.3510  -13.0160    0.6870 C   0  0  0  0  0  0  0  0  0  0  0  0
   -0.9640  -12.9200    1.1010 N   0  0  0  0  0  0  0  0  0  0  0  0
   -2.0450  -12.1900    0.5840 C   0  0  0  0  0  0  0  0  0  0  0  0
   -3.1590  -12.9020    0.1070 C   0  0  0  0  0  0  0  0  0  0  0  0
   -4.2680  -12.2470   -0.4380 C   0  0  0  0  0  0  0  0  0  0  0  0
   -4.2820  -10.8590   -0.5190 C   0  0  0  0  0  0  0  0  0  0  0  0
   -3.1880  -10.1340   -0.0570 C   0  0  0  0  0  0  0  0  0  0  0  0
   -2.0810  -10.7960    0.4860 C   0  0  0  0  0  0  0  0  0  0  0  0
    0.8300  -12.4410   -0.3920 N   0  0  0  0  0  0  0  0  0  0  0  0
    3.7140  -12.3990   -2.7320 C   0  0  0  0  0  0  0  0  0  0  0  0
    6.4170  -13.3130   -6.2750 N   0  0  0  0  0  0  0  0  0  0  0  0
    6.7820  -13.9900   -7.4580 C   0  0  0  0  0  0  0  0  0  0  0  0
    7.1440  -15.3380   -7.3350 C   0  0  0  0  0  0  0  0  0  0  0  0
    7.5200  -16.0830   -8.4540 C   0  0  0  0  0  0  0  0  0  0  0  0
    7.5430  -15.4850   -9.7120 C   0  0  0  0  0  0  0  0  0  0  0  0
    7.1980  -14.1340   -9.8580 C   0  0  0  0  0  0  0  0  0  0  0  0
    7.2040  -13.4740  -11.2160 C   0  0  0  0  0  0  0  0  0  0  0  0
    8.4060  -13.5710  -11.8530 F   0  0  0  0  0  0  0  0  0  0  0  0
    6.2910  -14.0210  -12.0650 F   0  0  0  0  0  0  0  0  0  0  0  0
    6.9220  -12.1440  -11.1630 F   0  0  0  0  0  0  0  0  0  0  0  0
    6.8130  -13.3980   -8.7220 C   0  0  0  0  0  0  0  0  0  0  0  0
    6.1190  -11.8530   -4.4400 H   0  0  0  0  0  0  0  0  0  0  0  0
    3.7984  -10.0644   -5.2157 H   0  0  0  0  0  0  0  0  0  0  0  0
    1.8916   -9.1676   -3.8884 H   0  0  0  0  0  0  0  0  0  0  0  0
    1.1432  -10.3426   -1.8278 H   0  0  0  0  0  0  0  0  0  0  0  0
    4.0822  -13.4410   -0.3228 H   0  0  0  0  0  0  0  0  0  0  0  0
    4.2132  -15.0824    2.0749 H   0  0  0  0  0  0  0  0  0  0  0  0
    2.3079  -15.7028    3.8401 H   0  0  0  0  0  0  0  0  0  0  0  0
   -1.1650  -13.4610    1.9370 H   0  0  0  0  0  0  0  0  0  0  0  0
   -3.1586  -14.0005    0.1637 H   0  0  0  0  0  0  0  0  0  0  0  0
   -5.1277  -12.8289   -0.8019 H   0  0  0  0  0  0  0  0  0  0  0  0
   -5.1518  -10.3378   -0.9453 H   0  0  0  0  0  0  0  0  0  0  0  0
   -3.1932   -9.0358   -0.1188 H   0  0  0  0  0  0  0  0  0  0  0  0
   -1.2225  -10.2080    0.8426 H   0  0  0  0  0  0  0  0  0  0  0  0
    4.2450  -13.3013   -2.3944 H   0  0  0  0  0  0  0  0  0  0  0  0
    7.1650  -13.1250   -5.6270 H   0  0  0  0  0  0  0  0  0  0  0  0
    7.1317  -15.8153   -6.3440 H   0  0  0  0  0  0  0  0  0  0  0  0
    7.7979  -17.1415   -8.3425 H   0  0  0  0  0  0  0  0  0  0  0  0
    7.8329  -16.0750  -10.5940 H   0  0  0  0  0  0  0  0  0  0  0  0
    6.5322  -12.3401   -8.8316 H   0  0  0  0  0  0  0  0  0  0  0  0
  1  2  2  0
  2  3  1  0
  3  4  1  0
  4  5  2  0
  5  6  1  0
  6  7  2  0
  7  8  1  0
  8  9  1  0
  9 10  2  0
 10 11  1  0
 11 12  1  0
 12 13  2  0
 13 14  1  0
 14 15  2  0
 15 16  1  0
 16 17  1  0
 17 18  1  0
 18 19  2  0
 19 20  1  0
 20 21  2  0
 21 22  1  0
 22 23  2  0
 16 24  2  0
  8 25  2  0
  2 26  1  0
 26 27  1  0
 27 28  2  0
 28 29  1  0
 29 30  2  0
 30 31  1  0
 31 32  1  0
 32 33  1  0
 32 34  1  0
 32 35  1  0
 31 36  2  0
 25  4  1  0
 36 27  1  0
 24  9  1  0
 15 11  1  0
 23 18  1  0
  3 37  1  0
  5 38  1  0
  6 39  1  0
  7 40  1  0
 10 41  1  0
 12 42  1  0
 13 43  1  0
 17 44  1  0
 19 45  1  0
 20 46  1  0
 21 47  1  0
 22 48  1  0
 23 49  1  0
 25 50  1  0
 26 51  1  0
 28 52  1  0
 29 53  1  0
 30 54  1  0
 36 55  1  0
M  END
>  <meeko>  (1) 
{"is_sidechain": [false], "free_energy": -10.075, "intermolecular_energy": -13.02, "internal_energy": -0.971}

$$$$
LIB_YWDIXVZCRMMQQY__M_PUB_ALL__e8__s20260927
     RDKit          3D

 55 59  0  0  0  0  0  0  0  0999 V2000
    6.0940  -12.4670   -5.4780 O   0  0  0  0  0  0  0  0  0  0  0  0
    5.1960  -12.8310   -6.2260 C   0  0  0  0  0  0  0  0  0  0  0  0
    3.8570  -12.9190   -5.8720 N   0  0  0  0  0  0  0  0  0  0  0  0
    3.2560  -12.4900   -4.6680 C   0  0  0  0  0  0  0  0  0  0  0  0
    3.3040  -11.1200   -4.3830 C   0  0  0  0  0  0  0  0  0  0  0  0
    2.7370  -10.6210   -3.2100 C   0  0  0  0  0  0  0  0  0  0  0  0
    2.1170  -11.4890   -2.3120 C   0  0  0  0  0  0  0  0  0  0  0  0
    2.0520  -12.8650   -2.5730 C   0  0  0  0  0  0  0  0  0  0  0  0
    1.3990  -13.7670   -1.5910 C   0  0  0  0  0  0  0  0  0  0  0  0
    1.6240  -15.0960   -1.6390 C   0  0  0  0  0  0  0  0  0  0  0  0
    0.9850  -15.8970   -0.7200 N   0  0  0  0  0  0  0  0  0  0  0  0
    0.9980  -17.2480   -0.5040 C   0  0  0  0  0  0  0  0  0  0  0  0
    0.1470  -17.4490    0.5620 C   0  0  0  0  0  0  0  0  0  0  0  0
   -0.3900  -16.2620    1.0040 N   0  0  0  0  0  0  0  0  0  0  0  0
    0.1420  -15.3550    0.2080 C   0  0  0  0  0  0  0  0  0  0  0  0
   -0.0830  -13.9170    0.2260 C   0  0  0  0  0  0  0  0  0  0  0  0
   -0.9510  -13.4170    1.1770 N   0  0  0  0  0  0  0  0  0  0  0  0
   -1.3260  -12.1010    1.4870 C   0  0  0  0  0  0  0  0  0  0  0  0
   -1.1450  -11.6520    2.8060 C   0  0  0  0  0  0  0  0  0  0  0  0
   -1.5100  -10.3590    3.1960 C   0  0  0  0  0  0  0  0  0  0  0  0
   -2.0690   -9.4870    2.2680 C   0  0  0  0  0  0  0  0  0  0  0  0
   -2.2610   -9.9120    0.9570 C   0  0  0  0  0  0  0  0  0  0  0  0
   -1.8950  -11.2080    0.5740 C   0  0  0  0  0  0  0  0  0  0  0  0
    0.5390  -13.1820   -0.6660 N   0  0  0  0  0  0  0  0  0  0  0  0
    2.6440  -13.3520   -3.7530 C   0  0  0  0  0  0  0  0  0  0  0  0
    5.3710  -13.2220   -7.5460 N   0  0  0  0  0  0  0  0  0  0  0  0
    6.5860  -13.3730   -8.2470 C   0  0  0  0  0  0  0  0  0  0  0  0
    7.4660  -14.3630   -7.7920 C   0  0  0  0  0  0  0  0  0  0  0  0
    8.6900  -14.5790   -8.4270 C   0  0  0  0  0  0  0  0  0  0  0  0
    9.0510  -13.8020   -9.5250 C   0  0  0  0  0  0  0  0  0  0  0  0
    8.1930  -12.7960   -9.9910 C   0  0  0  0  0  0  0  0  0  0  0  0
    8.5620  -11.9540  -11.1880 C   0  0  0  0  0  0  0  0  0  0  0  0
    8.5790  -12.6590  -12.3550 F   0  0  0  0  0  0  0  0  0  0  0  0
    7.6920  -10.9270  -11.3900 F   0  0  0  0  0  0  0  0  0  0  0  0
    9.7960  -11.3900  -11.0820 F   0  0  0  0  0  0  0  0  0  0  0  0
    6.9590  -12.5950   -9.3460 C   0  0  0  0  0  0  0  0  0  0  0  0
    3.2560  -13.4160   -6.5090 H   0  0  0  0  0  0  0  0  0  0  0  0
    3.7923  -10.4322   -5.0890 H   0  0  0  0  0  0  0  0  0  0  0  0
    2.7790   -9.5433   -2.9937 H   0  0  0  0  0  0  0  0  0  0  0  0
    1.6737  -11.0895   -1.3880 H   0  0  0  0  0  0  0  0  0  0  0  0
    2.2997  -15.5279   -2.3920 H   0  0  0  0  0  0  0  0  0  0  0  0
    1.5647  -18.0091   -1.0604 H   0  0  0  0  0  0  0  0  0  0  0  0
   -0.0742  -18.4323    1.0026 H   0  0  0  0  0  0  0  0  0  0  0  0
   -1.3700  -14.1360    1.7600 H   0  0  0  0  0  0  0  0  0  0  0  0
   -0.7059  -12.3333    3.5496 H   0  0  0  0  0  0  0  0  0  0  0  0
   -1.3551  -10.0326    4.2350 H   0  0  0  0  0  0  0  0  0  0  0  0
   -2.3573   -8.4688    2.5682 H   0  0  0  0  0  0  0  0  0  0  0  0
   -2.7023   -9.2267    0.2183 H   0  0  0  0  0  0  0  0  0  0  0  0
   -2.0582  -11.5298   -0.4651 H   0  0  0  0  0  0  0  0  0  0  0  0
    2.6249  -14.4322   -3.9596 H   0  0  0  0  0  0  0  0  0  0  0  0
    4.5320  -13.3510   -8.0870 H   0  0  0  0  0  0  0  0  0  0  0  0
    7.1890  -14.9781   -6.9232 H   0  0  0  0  0  0  0  0  0  0  0  0
    9.3693  -15.3627   -8.0604 H   0  0  0  0  0  0  0  0  0  0  0  0
   10.0130  -13.9783  -10.0285 H   0  0  0  0  0  0  0  0  0  0  0  0
    6.2773  -11.8133   -9.7125 H   0  0  0  0  0  0  0  0  0  0  0  0
  1  2  2  0
  2  3  1  0
  3  4  1  0
  4  5  2  0
  5  6  1  0
  6  7  2  0
  7  8  1  0
  8  9  1  0
  9 10  2  0
 10 11  1  0
 11 12  1  0
 12 13  2  0
 13 14  1  0
 14 15  2  0
 15 16  1  0
 16 17  1  0
 17 18  1  0
 18 19  2  0
 19 20  1  0
 20 21  2  0
 21 22  1  0
 22 23  2  0
 16 24  2  0
  8 25  2  0
  2 26  1  0
 26 27  1  0
 27 28  2  0
 28 29  1  0
 29 30  2  0
 30 31  1  0
 31 32  1  0
 32 33  1  0
 32 34  1  0
 32 35  1  0
 31 36  2  0
 25  4  1  0
 36 27  1  0
 24  9  1  0
 15 11  1  0
 23 18  1  0
  3 37  1  0
  5 38  1  0
  6 39  1  0
  7 40  1  0
 10 41  1  0
 12 42  1  0
 13 43  1  0
 17 44  1  0
 19 45  1  0
 20 46  1  0
 21 47  1  0
 22 48  1  0
 23 49  1  0
 25 50  1  0
 26 51  1  0
 28 52  1  0
 29 53  1  0
 30 54  1  0
 36 55  1  0
M  END
>  <meeko>  (2) 
{"is_sidechain": [false], "free_energy": -9.383, "intermolecular_energy": -12.353, "internal_energy": -0.743}

$$$$
LIB_YWDIXVZCRMMQQY__M_PUB_ALL__e8__s20260927
     RDKit          3D

 55 59  0  0  0  0  0  0  0  0999 V2000
    7.0140  -10.8340   -2.0990 O   0  0  0  0  0  0  0  0  0  0  0  0
    6.8350  -12.0390   -2.2190 C   0  0  0  0  0  0  0  0  0  0  0  0
    5.5930  -12.6580   -2.2380 N   0  0  0  0  0  0  0  0  0  0  0  0
    4.3240  -12.0390   -2.2610 C   0  0  0  0  0  0  0  0  0  0  0  0
    3.9680  -11.3570   -3.4310 C   0  0  0  0  0  0  0  0  0  0  0  0
    2.7330  -10.7150   -3.5290 C   0  0  0  0  0  0  0  0  0  0  0  0
    1.8440  -10.7500   -2.4560 C   0  0  0  0  0  0  0  0  0  0  0  0
    2.1730  -11.4270   -1.2730 C   0  0  0  0  0  0  0  0  0  0  0  0
    1.2120  -11.4340   -0.1410 C   0  0  0  0  0  0  0  0  0  0  0  0
    0.5570  -10.3040    0.1980 C   0  0  0  0  0  0  0  0  0  0  0  0
   -0.3130  -10.3520    1.2640 N   0  0  0  0  0  0  0  0  0  0  0  0
   -1.1110   -9.4080    1.8480 C   0  0  0  0  0  0  0  0  0  0  0  0
   -1.7450  -10.0640    2.8830 C   0  0  0  0  0  0  0  0  0  0  0  0
   -1.3560  -11.3820    2.9510 N   0  0  0  0  0  0  0  0  0  0  0  0
   -0.4980  -11.5130    1.9590 C   0  0  0  0  0  0  0  0  0  0  0  0
    0.2320  -12.7120    1.5690 C   0  0  0  0  0  0  0  0  0  0  0  0
    0.0190  -13.8590    2.3090 N   0  0  0  0  0  0  0  0  0  0  0  0
    0.5130  -15.1630    2.1560 C   0  0  0  0  0  0  0  0  0  0  0  0
   -0.3280  -16.1280    1.5740 C   0  0  0  0  0  0  0  0  0  0  0  0
    0.0870  -17.4530    1.4040 C   0  0  0  0  0  0  0  0  0  0  0  0
    1.3570  -17.8410    1.8170 C   0  0  0  0  0  0  0  0  0  0  0  0
    2.2040  -16.9030    2.3990 C   0  0  0  0  0  0  0  0  0  0  0  0
    1.7830  -15.5790    2.5680 C   0  0  0  0  0  0  0  0  0  0  0  0
    1.0560  -12.6310    0.5510 N   0  0  0  0  0  0  0  0  0  0  0  0
    3.4300  -12.0540   -1.1870 C   0  0  0  0  0  0  0  0  0  0  0  0
    7.8440  -12.9820   -2.3500 N   0  0  0  0  0  0  0  0  0  0  0  0
    9.2370  -12.7720   -2.2730 C   0  0  0  0  0  0  0  0  0  0  0  0
    9.9480  -12.7600   -3.4810 C   0  0  0  0  0  0  0  0  0  0  0  0
   11.3290  -12.5600   -3.4960 C   0  0  0  0  0  0  0  0  0  0  0  0
   12.0190  -12.3740   -2.3010 C   0  0  0  0  0  0  0  0  0  0  0  0
   11.3320  -12.3950   -1.0790 C   0  0  0  0  0  0  0  0  0  0  0  0
   12.0610  -12.1810    0.2250 C   0  0  0  0  0  0  0  0  0  0  0  0
   11.4020  -11.3450    1.0770 F   0  0  0  0  0  0  0  0  0  0  0  0
   12.2460  -13.3400    0.9150 F   0  0  0  0  0  0  0  0  0  0  0  0
   13.2980  -11.6370    0.0610 F   0  0  0  0  0  0  0  0  0  0  0  0
    9.9380  -12.5900   -1.0790 C   0  0  0  0  0  0  0  0  0  0  0  0
    5.5890  -13.6610   -2.1420 H   0  0  0  0  0  0  0  0  0  0  0  0
    4.6674  -11.3271   -4.2795 H   0  0  0  0  0  0  0  0  0  0  0  0
    2.4613  -10.1819   -4.4520 H   0  0  0  0  0  0  0  0  0  0  0  0
    0.8726  -10.2404   -2.5383 H   0  0  0  0  0  0  0  0  0  0  0  0
    0.7138   -9.3702   -0.3619 H   0  0  0  0  0  0  0  0  0  0  0  0
   -1.2233   -8.3535    1.5559 H   0  0  0  0  0  0  0  0  0  0  0  0
   -2.4682   -9.5940    3.5657 H   0  0  0  0  0  0  0  0  0  0  0  0
   -0.6240  -13.7270    3.0840 H   0  0  0  0  0  0  0  0  0  0  0  0
   -1.3356  -15.8342    1.2448 H   0  0  0  0  0  0  0  0  0  0  0  0
   -0.5906  -18.1874    0.9441 H   0  0  0  0  0  0  0  0  0  0  0  0
    1.6893  -18.8812    1.6846 H   0  0  0  0  0  0  0  0  0  0  0  0
    3.2097  -17.2036    2.7280 H   0  0  0  0  0  0  0  0  0  0  0  0
    2.4641  -14.8516    3.0338 H   0  0  0  0  0  0  0  0  0  0  0  0
    3.7144  -12.5660   -0.2559 H   0  0  0  0  0  0  0  0  0  0  0  0
    7.5530  -13.9160   -2.5920 H   0  0  0  0  0  0  0  0  0  0  0  0
    9.4106  -12.9101   -4.4290 H   0  0  0  0  0  0  0  0  0  0  0  0
   11.8726  -12.5493   -4.4522 H   0  0  0  0  0  0  0  0  0  0  0  0
   13.1066  -12.2101   -2.3157 H   0  0  0  0  0  0  0  0  0  0  0  0
    9.3924  -12.5992   -0.1239 H   0  0  0  0  0  0  0  0  0  0  0  0
  1  2  2  0
  2  3  1  0
  3  4  1  0
  4  5  2  0
  5  6  1  0
  6  7  2  0
  7  8  1  0
  8  9  1  0
  9 10  2  0
 10 11  1  0
 11 12  1  0
 12 13  2  0
 13 14  1  0
 14 15  2  0
 15 16  1  0
 16 17  1  0
 17 18  1  0
 18 19  2  0
 19 20  1  0
 20 21  2  0
 21 22  1  0
 22 23  2  0
 16 24  2  0
  8 25  2  0
  2 26  1  0
 26 27  1  0
 27 28  2  0
 28 29  1  0
 29 30  2  0
 30 31  1  0
 31 32  1  0
 32 33  1  0
 32 34  1  0
 32 35  1  0
 31 36  2  0
 25  4  1  0
 36 27  1  0
 24  9  1  0
 15 11  1  0
 23 18  1  0
  3 37  1  0
  5 38  1  0
  6 39  1  0
  7 40  1  0
 10 41  1  0
 12 42  1  0
 13 43  1  0
 17 44  1  0
 19 45  1  0
 20 46  1  0
 21 47  1  0
 22 48  1  0
 23 49  1  0
 25 50  1  0
 26 51  1  0
 28 52  1  0
 29 53  1  0
 30 54  1  0
 36 55  1  0
M  END
>  <meeko>  (3) 
{"is_sidechain": [false], "free_energy": -9.382, "intermolecular_energy": -12.091, "internal_energy": -1.004}

$$$$
LIB_YWDIXVZCRMMQQY__M_PUB_ALL__e8__s20260927
     RDKit          3D

 55 59  0  0  0  0  0  0  0  0999 V2000
    2.7900  -14.0190   -1.4930 O   0  0  0  0  0  0  0  0  0  0  0  0
    2.0940  -14.5770   -2.3310 C   0  0  0  0  0  0  0  0  0  0  0  0
    1.3040  -15.6930   -2.0900 N   0  0  0  0  0  0  0  0  0  0  0  0
    1.0410  -16.3070   -0.8460 C   0  0  0  0  0  0  0  0  0  0  0  0
    1.9430  -17.2870   -0.4150 C   0  0  0  0  0  0  0  0  0  0  0  0
    1.7480  -17.9430    0.8010 C   0  0  0  0  0  0  0  0  0  0  0  0
    0.6480  -17.6240    1.5950 C   0  0  0  0  0  0  0  0  0  0  0  0
   -0.2710  -16.6450    1.1900 C   0  0  0  0  0  0  0  0  0  0  0  0
   -1.4410  -16.3370    2.0490 C   0  0  0  0  0  0  0  0  0  0  0  0
   -1.8340  -17.2120    2.9980 C   0  0  0  0  0  0  0  0  0  0  0  0
   -2.9340  -16.8930    3.7610 N   0  0  0  0  0  0  0  0  0  0  0  0
   -3.5730  -17.5460    4.7790 C   0  0  0  0  0  0  0  0  0  0  0  0
   -4.6180  -16.7190    5.1360 C   0  0  0  0  0  0  0  0  0  0  0  0
   -4.6400  -15.5800    4.3650 N   0  0  0  0  0  0  0  0  0  0  0  0
   -3.6090  -15.7240    3.5540 C   0  0  0  0  0  0  0  0  0  0  0  0
   -3.1620  -14.8060    2.5160 C   0  0  0  0  0  0  0  0  0  0  0  0
   -3.8830  -13.6420    2.3370 N   0  0  0  0  0  0  0  0  0  0  0  0
   -3.6800  -12.5500    1.4800 C   0  0  0  0  0  0  0  0  0  0  0  0
   -2.7250  -11.5860    1.8480 C   0  0  0  0  0  0  0  0  0  0  0  0
   -2.4770  -10.4610    1.0540 C   0  0  0  0  0  0  0  0  0  0  0  0
   -3.1870  -10.2770   -0.1270 C   0  0  0  0  0  0  0  0  0  0  0  0
   -4.1400  -11.2160   -0.5080 C   0  0  0  0  0  0  0  0  0  0  0  0
   -4.3830  -12.3390    0.2910 C   0  0  0  0  0  0  0  0  0  0  0  0
   -2.1120  -15.1430    1.8040 N   0  0  0  0  0  0  0  0  0  0  0  0
   -0.0660  -16.0060   -0.0480 C   0  0  0  0  0  0  0  0  0  0  0  0
    1.9860  -14.1900   -3.6590 N   0  0  0  0  0  0  0  0  0  0  0  0
    2.7050  -13.1730   -4.3230 C   0  0  0  0  0  0  0  0  0  0  0  0
    2.4190  -11.8500   -3.9610 C   0  0  0  0  0  0  0  0  0  0  0  0
    3.0830  -10.7830   -4.5690 C   0  0  0  0  0  0  0  0  0  0  0  0
    4.0400  -11.0270   -5.5510 C   0  0  0  0  0  0  0  0  0  0  0  0
    4.3330  -12.3420   -5.9400 C   0  0  0  0  0  0  0  0  0  0  0  0
    5.3760  -12.6250   -6.9930 C   0  0  0  0  0  0  0  0  0  0  0  0
    4.8930  -13.3440   -8.0460 F   0  0  0  0  0  0  0  0  0  0  0  0
    5.8960  -11.4880   -7.5310 F   0  0  0  0  0  0  0  0  0  0  0  0
    6.4340  -13.3370   -6.5170 F   0  0  0  0  0  0  0  0  0  0  0  0
    3.6610  -13.4080   -5.3130 C   0  0  0  0  0  0  0  0  0  0  0  0
    0.9410  -16.1700   -2.9000 H   0  0  0  0  0  0  0  0  0  0  0  0
    2.8119  -17.5418   -1.0396 H   0  0  0  0  0  0  0  0  0  0  0  0
    2.4619  -18.7113    1.1326 H   0  0  0  0  0  0  0  0  0  0  0  0
    0.4987  -18.1466    2.5513 H   0  0  0  0  0  0  0  0  0  0  0  0
   -1.2900  -18.1547    3.1574 H   0  0  0  0  0  0  0  0  0  0  0  0
   -3.3105  -18.5198    5.2180 H   0  0  0  0  0  0  0  0  0  0  0  0
   -5.3408  -16.9418    5.9347 H   0  0  0  0  0  0  0  0  0  0  0  0
   -4.6880  -13.5660    2.9530 H   0  0  0  0  0  0  0  0  0  0  0  0
   -2.1595  -11.7194    2.7821 H   0  0  0  0  0  0  0  0  0  0  0  0
   -1.7218   -9.7236    1.3636 H   0  0  0  0  0  0  0  0  0  0  0  0
   -2.9965   -9.3949   -0.7559 H   0  0  0  0  0  0  0  0  0  0  0  0
   -4.7050  -11.0752   -1.4413 H   0  0  0  0  0  0  0  0  0  0  0  0
   -5.1425  -13.0701   -0.0232 H   0  0  0  0  0  0  0  0  0  0  0  0
   -0.7916  -15.2550   -0.3938 H   0  0  0  0  0  0  0  0  0  0  0  0
    1.2650  -14.6430   -4.1990 H   0  0  0  0  0  0  0  0  0  0  0  0
    1.6621  -11.6496   -3.1884 H   0  0  0  0  0  0  0  0  0  0  0  0
    2.8503   -9.7496   -4.2725 H   0  0  0  0  0  0  0  0  0  0  0  0
    4.5678  -10.1853   -6.0231 H   0  0  0  0  0  0  0  0  0  0  0  0
    3.8926  -14.4422   -5.6075 H   0  0  0  0  0  0  0  0  0  0  0  0
  1  2  2  0
  2  3  1  0
  3  4  1  0
  4  5  2  0
  5  6  1  0
  6  7  2  0
  7  8  1  0
  8  9  1  0
  9 10  2  0
 10 11  1  0
 11 12  1  0
 12 13  2  0
 13 14  1  0
 14 15  2  0
 15 16  1  0
 16 17  1  0
 17 18  1  0
 18 19  2  0
 19 20  1  0
 20 21  2  0
 21 22  1  0
 22 23  2  0
 16 24  2  0
  8 25  2  0
  2 26  1  0
 26 27  1  0
 27 28  2  0
 28 29  1  0
 29 30  2  0
 30 31  1  0
 31 32  1  0
 32 33  1  0
 32 34  1  0
 32 35  1  0
 31 36  2  0
 25  4  1  0
 36 27  1  0
 24  9  1  0
 15 11  1  0
 23 18  1  0
  3 37  1  0
  5 38  1  0
  6 39  1  0
  7 40  1  0
 10 41  1  0
 12 42  1  0
 13 43  1  0
 17 44  1  0
 19 45  1  0
 20 46  1  0
 21 47  1  0
 22 48  1  0
 23 49  1  0
 25 50  1  0
 26 51  1  0
 28 52  1  0
 29 53  1  0
 30 54  1  0
 36 55  1  0
M  END
>  <meeko>  (4) 
{"is_sidechain": [false], "free_energy": -9.248, "intermolecular_energy": -11.827, "internal_energy": -1.096}

$$$$
LIB_YWDIXVZCRMMQQY__M_PUB_ALL__e8__s20260927
     RDKit          3D

 55 59  0  0  0  0  0  0  0  0999 V2000
   -1.6690  -13.9510    3.0750 O   0  0  0  0  0  0  0  0  0  0  0  0
   -0.6700  -13.2930    3.3350 C   0  0  0  0  0  0  0  0  0  0  0  0
    0.3980  -13.7430    4.0980 N   0  0  0  0  0  0  0  0  0  0  0  0
    0.6100  -15.0480    4.5950 C   0  0  0  0  0  0  0  0  0  0  0  0
    1.4480  -15.8870    3.8500 C   0  0  0  0  0  0  0  0  0  0  0  0
    1.7020  -17.1920    4.2740 C   0  0  0  0  0  0  0  0  0  0  0  0
    1.1190  -17.6690    5.4470 C   0  0  0  0  0  0  0  0  0  0  0  0
    0.2780  -16.8510    6.2140 C   0  0  0  0  0  0  0  0  0  0  0  0
   -0.3410  -17.3900    7.4510 C   0  0  0  0  0  0  0  0  0  0  0  0
    0.3440  -18.2540    8.2300 C   0  0  0  0  0  0  0  0  0  0  0  0
   -0.2740  -18.7420    9.3590 N   0  0  0  0  0  0  0  0  0  0  0  0
    0.1360  -19.6090   10.3330 C   0  0  0  0  0  0  0  0  0  0  0  0
   -0.9350  -19.7080   11.1980 C   0  0  0  0  0  0  0  0  0  0  0  0
   -1.9890  -18.9290   10.7790 N   0  0  0  0  0  0  0  0  0  0  0  0
   -1.5480  -18.3640    9.6730 C   0  0  0  0  0  0  0  0  0  0  0  0
   -2.2600  -17.4360    8.8060 C   0  0  0  0  0  0  0  0  0  0  0  0
   -3.5500  -17.0910    9.1600 N   0  0  0  0  0  0  0  0  0  0  0  0
   -4.4610  -16.1960    8.5790 C   0  0  0  0  0  0  0  0  0  0  0  0
   -4.8030  -15.0370    9.2980 C   0  0  0  0  0  0  0  0  0  0  0  0
   -5.7160  -14.1060    8.7930 C   0  0  0  0  0  0  0  0  0  0  0  0
   -6.3100  -14.3180    7.5540 C   0  0  0  0  0  0  0  0  0  0  0  0
   -5.9890  -15.4610    6.8270 C   0  0  0  0  0  0  0  0  0  0  0  0
   -5.0750  -16.3900    7.3380 C   0  0  0  0  0  0  0  0  0  0  0  0
   -1.6430  -16.9920    7.7350 N   0  0  0  0  0  0  0  0  0  0  0  0
    0.0210  -15.5430    5.7620 C   0  0  0  0  0  0  0  0  0  0  0  0
   -0.4460  -11.9900    2.9160 N   0  0  0  0  0  0  0  0  0  0  0  0
   -1.3310  -11.1440    2.2150 C   0  0  0  0  0  0  0  0  0  0  0  0
   -1.3300   -9.7880    2.5650 C   0  0  0  0  0  0  0  0  0  0  0  0
   -2.1760   -8.8820    1.9220 C   0  0  0  0  0  0  0  0  0  0  0  0
   -3.0380   -9.3240    0.9220 C   0  0  0  0  0  0  0  0  0  0  0  0
   -3.0660  -10.6790    0.5620 C   0  0  0  0  0  0  0  0  0  0  0  0
   -3.9840  -11.1730   -0.5290 C   0  0  0  0  0  0  0  0  0  0  0  0
   -3.8670  -10.4660   -1.6890 F   0  0  0  0  0  0  0  0  0  0  0  0
   -3.7450  -12.4710   -0.8630 F   0  0  0  0  0  0  0  0  0  0  0  0
   -5.3000  -11.1060   -0.1900 F   0  0  0  0  0  0  0  0  0  0  0  0
   -2.2030  -11.5790    1.2140 C   0  0  0  0  0  0  0  0  0  0  0  0
    1.0590  -13.0460    4.4020 H   0  0  0  0  0  0  0  0  0  0  0  0
    1.9095  -15.5145    2.9236 H   0  0  0  0  0  0  0  0  0  0  0  0
    2.3619  -17.8440    3.6829 H   0  0  0  0  0  0  0  0  0  0  0  0
    1.3213  -18.6994    5.7745 H   0  0  0  0  0  0  0  0  0  0  0  0
    1.3681  -18.5597    7.9696 H   0  0  0  0  0  0  0  0  0  0  0  0
    1.1084  -20.1174   10.4106 H   0  0  0  0  0  0  0  0  0  0  0  0
   -0.9447  -20.3296   12.1055 H   0  0  0  0  0  0  0  0  0  0  0  0
   -3.8780  -17.5600    9.9990 H   0  0  0  0  0  0  0  0  0  0  0  0
   -4.3416  -14.8586   10.2805 H   0  0  0  0  0  0  0  0  0  0  0  0
   -5.9641  -13.2065    9.3756 H   0  0  0  0  0  0  0  0  0  0  0  0
   -7.0279  -13.5883    7.1513 H   0  0  0  0  0  0  0  0  0  0  0  0
   -6.4558  -15.6350    5.8463 H   0  0  0  0  0  0  0  0  0  0  0  0
   -4.8353  -17.2896    6.7521 H   0  0  0  0  0  0  0  0  0  0  0  0
   -0.6572  -14.8971    6.3389 H   0  0  0  0  0  0  0  0  0  0  0  0
    0.4790  -11.6230    3.0740 H   0  0  0  0  0  0  0  0  0  0  0  0
   -0.6542   -9.4320    3.3565 H   0  0  0  0  0  0  0  0  0  0  0  0
   -2.1614   -7.8193    2.2055 H   0  0  0  0  0  0  0  0  0  0  0  0
   -3.6994   -8.6078    0.4125 H   0  0  0  0  0  0  0  0  0  0  0  0
   -2.2151  -12.6419    0.9310 H   0  0  0  0  0  0  0  0  0  0  0  0
  1  2  2  0
  2  3  1  0
  3  4  1  0
  4  5  2  0
  5  6  1  0
  6  7  2  0
  7  8  1  0
  8  9  1  0
  9 10  2  0
 10 11  1  0
 11 12  1  0
 12 13  2  0
 13 14  1  0
 14 15  2  0
 15 16  1  0
 16 17  1  0
 17 18  1  0
 18 19  2  0
 19 20  1  0
 20 21  2  0
 21 22  1  0
 22 23  2  0
 16 24  2  0
  8 25  2  0
  2 26  1  0
 26 27  1  0
 27 28  2  0
 28 29  1  0
 29 30  2  0
 30 31  1  0
 31 32  1  0
 32 33  1  0
 32 34  1  0
 32 35  1  0
 31 36  2  0
 25  4  1  0
 36 27  1  0
 24  9  1  0
 15 11  1  0
 23 18  1  0
  3 37  1  0
  5 38  1  0
  6 39  1  0
  7 40  1  0
 10 41  1  0
 12 42  1  0
 13 43  1  0
 17 44  1  0
 19 45  1  0
 20 46  1  0
 21 47  1  0
 22 48  1  0
 23 49  1  0
 25 50  1  0
 26 51  1  0
 28 52  1  0
 29 53  1  0
 30 54  1  0
 36 55  1  0
M  END
>  <meeko>  (5) 
{"is_sidechain": [false], "free_energy": -9.207, "intermolecular_energy": -12.037, "internal_energy": -0.832}

$$$$
LIB_YWDIXVZCRMMQQY__M_PUB_ALL__e8__s20260927
     RDKit          3D

 55 59  0  0  0  0  0  0  0  0999 V2000
    8.2480  -11.7660   -0.1150 O   0  0  0  0  0  0  0  0  0  0  0  0
    8.6180  -12.9170    0.0790 C   0  0  0  0  0  0  0  0  0  0  0  0
    7.8030  -13.9460    0.5300 N   0  0  0  0  0  0  0  0  0  0  0  0
    6.4040  -13.9150    0.7180 C   0  0  0  0  0  0  0  0  0  0  0  0
    5.9390  -13.7380    2.0260 C   0  0  0  0  0  0  0  0  0  0  0  0
    4.5700  -13.7030    2.2930 C   0  0  0  0  0  0  0  0  0  0  0  0
    3.6540  -13.8440    1.2520 C   0  0  0  0  0  0  0  0  0  0  0  0
    4.0910  -14.0210   -0.0690 C   0  0  0  0  0  0  0  0  0  0  0  0
    3.0930  -14.1840   -1.1560 C   0  0  0  0  0  0  0  0  0  0  0  0
    3.4160  -13.8610   -2.4260 C   0  0  0  0  0  0  0  0  0  0  0  0
    2.4540  -14.0130   -3.3990 N   0  0  0  0  0  0  0  0  0  0  0  0
    2.4610  -13.7820   -4.7470 C   0  0  0  0  0  0  0  0  0  0  0  0
    1.1940  -14.1210   -5.1750 C   0  0  0  0  0  0  0  0  0  0  0  0
    0.4110  -14.5490   -4.1280 N   0  0  0  0  0  0  0  0  0  0  0  0
    1.2080  -14.4710   -3.0810 C   0  0  0  0  0  0  0  0  0  0  0  0
    0.8920  -14.8020   -1.6980 C   0  0  0  0  0  0  0  0  0  0  0  0
   -0.3850  -15.2520   -1.4240 N   0  0  0  0  0  0  0  0  0  0  0  0
   -0.9710  -15.6990   -0.2310 C   0  0  0  0  0  0  0  0  0  0  0  0
   -0.5980  -16.9620    0.2610 C   0  0  0  0  0  0  0  0  0  0  0  0
   -1.1510  -17.4840    1.4350 C   0  0  0  0  0  0  0  0  0  0  0  0
   -2.0970  -16.7490    2.1420 C   0  0  0  0  0  0  0  0  0  0  0  0
   -2.4850  -15.4990    1.6710 C   0  0  0  0  0  0  0  0  0  0  0  0
   -1.9280  -14.9820    0.4950 C   0  0  0  0  0  0  0  0  0  0  0  0
    1.8300  -14.6430   -0.7940 N   0  0  0  0  0  0  0  0  0  0  0  0
    5.4760  -14.0700   -0.3160 C   0  0  0  0  0  0  0  0  0  0  0  0
    9.9130  -13.3780   -0.1140 N   0  0  0  0  0  0  0  0  0  0  0  0
   11.0540  -12.6260   -0.4630 C   0  0  0  0  0  0  0  0  0  0  0  0
   11.4480  -11.6160    0.4240 C   0  0  0  0  0  0  0  0  0  0  0  0
   12.5660  -10.8240    0.1560 C   0  0  0  0  0  0  0  0  0  0  0  0
   13.3000  -11.0290   -1.0100 C   0  0  0  0  0  0  0  0  0  0  0  0
   12.9170  -12.0240   -1.9190 C   0  0  0  0  0  0  0  0  0  0  0  0
   13.7100  -12.2690   -3.1800 C   0  0  0  0  0  0  0  0  0  0  0  0
   14.9610  -11.7280   -3.1410 F   0  0  0  0  0  0  0  0  0  0  0  0
   13.8890  -13.5950   -3.4330 F   0  0  0  0  0  0  0  0  0  0  0  0
   13.1190  -11.7490   -4.2910 F   0  0  0  0  0  0  0  0  0  0  0  0
   11.7930  -12.8210   -1.6320 C   0  0  0  0  0  0  0  0  0  0  0  0
    8.2680  -14.7860    0.8370 H   0  0  0  0  0  0  0  0  0  0  0  0
    6.6586  -13.6256    2.8503 H   0  0  0  0  0  0  0  0  0  0  0  0
    4.2138  -13.5642    3.3244 H   0  0  0  0  0  0  0  0  0  0  0  0
    2.5760  -13.8161    1.4689 H   0  0  0  0  0  0  0  0  0  0  0  0
    4.4196  -13.4868   -2.6766 H   0  0  0  0  0  0  0  0  0  0  0  0
    3.2958  -13.4072   -5.3575 H   0  0  0  0  0  0  0  0  0  0  0  0
    0.8537  -14.0573   -6.2191 H   0  0  0  0  0  0  0  0  0  0  0  0
   -0.9890  -15.2770   -2.2410 H   0  0  0  0  0  0  0  0  0  0  0  0
    0.1469  -17.5542   -0.2907 H   0  0  0  0  0  0  0  0  0  0  0  0
   -0.8384  -18.4740    1.7985 H   0  0  0  0  0  0  0  0  0  0  0  0
   -2.5349  -17.1532    3.0666 H   0  0  0  0  0  0  0  0  0  0  0  0
   -3.2333  -14.9136    2.2253 H   0  0  0  0  0  0  0  0  0  0  0  0
   -2.2490  -13.9933    0.1352 H   0  0  0  0  0  0  0  0  0  0  0  0
    5.8351  -14.2335   -1.3428 H   0  0  0  0  0  0  0  0  0  0  0  0
   10.0430  -14.3760   -0.0610 H   0  0  0  0  0  0  0  0  0  0  0  0
   10.8691  -11.4447    1.3435 H   0  0  0  0  0  0  0  0  0  0  0  0
   12.8670  -10.0387    0.8650 H   0  0  0  0  0  0  0  0  0  0  0  0
   14.1835  -10.4075   -1.2178 H   0  0  0  0  0  0  0  0  0  0  0  0
   11.4923  -13.6087   -2.3385 H   0  0  0  0  0  0  0  0  0  0  0  0
  1  2  2  0
  2  3  1  0
  3  4  1  0
  4  5  2  0
  5  6  1  0
  6  7  2  0
  7  8  1  0
  8  9  1  0
  9 10  2  0
 10 11  1  0
 11 12  1  0
 12 13  2  0
 13 14  1  0
 14 15  2  0
 15 16  1  0
 16 17  1  0
 17 18  1  0
 18 19  2  0
 19 20  1  0
 20 21  2  0
 21 22  1  0
 22 23  2  0
 16 24  2  0
  8 25  2  0
  2 26  1  0
 26 27  1  0
 27 28  2  0
 28 29  1  0
 29 30  2  0
 30 31  1  0
 31 32  1  0
 32 33  1  0
 32 34  1  0
 32 35  1  0
 31 36  2  0
 25  4  1  0
 36 27  1  0
 24  9  1  0
 15 11  1  0
 23 18  1  0
  3 37  1  0
  5 38  1  0
  6 39  1  0
  7 40  1  0
 10 41  1  0
 12 42  1  0
 13 43  1  0
 17 44  1  0
 19 45  1  0
 20 46  1  0
 21 47  1  0
 22 48  1  0
 23 49  1  0
 25 50  1  0
 26 51  1  0
 28 52  1  0
 29 53  1  0
 30 54  1  0
 36 55  1  0
M  END
>  <meeko>  (6) 
{"is_sidechain": [false], "free_energy": -9.179, "intermolecular_energy": -11.938, "internal_energy": -0.895}

$$$$
LIB_YWDIXVZCRMMQQY__M_PUB_ALL__e8__s20260927
     RDKit          3D

 55 59  0  0  0  0  0  0  0  0999 V2000
    7.2320  -11.4780   -1.3300 O   0  0  0  0  0  0  0  0  0  0  0  0
    7.1680  -12.4970   -2.0050 C   0  0  0  0  0  0  0  0  0  0  0  0
    5.9960  -13.1820   -2.2970 N   0  0  0  0  0  0  0  0  0  0  0  0
    4.6730  -12.7840   -2.0080 C   0  0  0  0  0  0  0  0  0  0  0  0
    4.0800  -11.8580   -2.8750 C   0  0  0  0  0  0  0  0  0  0  0  0
    2.7770  -11.4120   -2.6530 C   0  0  0  0  0  0  0  0  0  0  0  0
    2.0560  -11.8890   -1.5590 C   0  0  0  0  0  0  0  0  0  0  0  0
    2.6230  -12.8170   -0.6750 C   0  0  0  0  0  0  0  0  0  0  0  0
    1.8360  -13.2950    0.4900 C   0  0  0  0  0  0  0  0  0  0  0  0
    2.4240  -14.0540    1.4390 C   0  0  0  0  0  0  0  0  0  0  0  0
    1.6530  -14.4890    2.4930 N   0  0  0  0  0  0  0  0  0  0  0  0
    1.9380  -15.2530    3.5910 C   0  0  0  0  0  0  0  0  0  0  0  0
    0.7460  -15.3480    4.2800 C   0  0  0  0  0  0  0  0  0  0  0  0
   -0.2600  -14.6670    3.6340 N   0  0  0  0  0  0  0  0  0  0  0  0
    0.3290  -14.1640    2.5670 C   0  0  0  0  0  0  0  0  0  0  0  0
   -0.2740  -13.3490    1.5220 C   0  0  0  0  0  0  0  0  0  0  0  0
   -1.6190  -13.0550    1.6360 N   0  0  0  0  0  0  0  0  0  0  0  0
   -2.4620  -12.2630    0.8430 C   0  0  0  0  0  0  0  0  0  0  0  0
   -2.2530  -10.8730    0.8340 C   0  0  0  0  0  0  0  0  0  0  0  0
   -3.0630  -10.0150    0.0830 C   0  0  0  0  0  0  0  0  0  0  0  0
   -4.1060  -10.5340   -0.6750 C   0  0  0  0  0  0  0  0  0  0  0  0
   -4.3350  -11.9070   -0.6770 C   0  0  0  0  0  0  0  0  0  0  0  0
   -3.5210  -12.7590    0.0770 C   0  0  0  0  0  0  0  0  0  0  0  0
    0.4880  -12.9540    0.5290 N   0  0  0  0  0  0  0  0  0  0  0  0
    3.9450  -13.2430   -0.9060 C   0  0  0  0  0  0  0  0  0  0  0  0
    8.2560  -13.1380   -2.5800 N   0  0  0  0  0  0  0  0  0  0  0  0
    9.6220  -12.8200   -2.4320 C   0  0  0  0  0  0  0  0  0  0  0  0
   10.3900  -12.7480   -3.6010 C   0  0  0  0  0  0  0  0  0  0  0  0
   11.7510  -12.4400   -3.5460 C   0  0  0  0  0  0  0  0  0  0  0  0
   12.3620  -12.2060   -2.3160 C   0  0  0  0  0  0  0  0  0  0  0  0
   11.6170  -12.2860   -1.1320 C   0  0  0  0  0  0  0  0  0  0  0  0
   12.2600  -12.0220    0.2080 C   0  0  0  0  0  0  0  0  0  0  0  0
   13.4570  -11.3770    0.1100 F   0  0  0  0  0  0  0  0  0  0  0  0
   11.4860  -11.2420    1.0130 F   0  0  0  0  0  0  0  0  0  0  0  0
   12.5110  -13.1590    0.9120 F   0  0  0  0  0  0  0  0  0  0  0  0
   10.2440  -12.5890   -1.2030 C   0  0  0  0  0  0  0  0  0  0  0  0
    6.1010  -14.1040   -2.6880 H   0  0  0  0  0  0  0  0  0  0  0  0
    4.6464  -11.4791   -3.7385 H   0  0  0  0  0  0  0  0  0  0  0  0
    2.3190  -10.6851   -3.3400 H   0  0  0  0  0  0  0  0  0  0  0  0
    1.0296  -11.5325   -1.3877 H   0  0  0  0  0  0  0  0  0  0  0  0
    3.4898  -14.3175    1.3718 H   0  0  0  0  0  0  0  0  0  0  0  0
    2.9069  -15.6956    3.8654 H   0  0  0  0  0  0  0  0  0  0  0  0
    0.6168  -15.8975    5.2241 H   0  0  0  0  0  0  0  0  0  0  0  0
   -2.0570  -13.4760    2.4500 H   0  0  0  0  0  0  0  0  0  0  0  0
   -1.4325  -10.4498    1.4321 H   0  0  0  0  0  0  0  0  0  0  0  0
   -2.8749   -8.9312    0.0923 H   0  0  0  0  0  0  0  0  0  0  0  0
   -4.7458   -9.8647   -1.2689 H   0  0  0  0  0  0  0  0  0  0  0  0
   -5.1595  -12.3238   -1.2740 H   0  0  0  0  0  0  0  0  0  0  0  0
   -3.7182  -13.8411    0.0669 H   0  0  0  0  0  0  0  0  0  0  0  0
    4.4140  -13.9504   -0.2062 H   0  0  0  0  0  0  0  0  0  0  0  0
    8.0440  -13.8780   -3.2310 H   0  0  0  0  0  0  0  0  0  0  0  0
    9.9150  -12.9365   -4.5751 H   0  0  0  0  0  0  0  0  0  0  0  0
   12.3402  -12.3822   -4.4731 H   0  0  0  0  0  0  0  0  0  0  0  0
   13.4328  -11.9576   -2.2742 H   0  0  0  0  0  0  0  0  0  0  0  0
    9.6526  -12.6446   -0.2772 H   0  0  0  0  0  0  0  0  0  0  0  0
  1  2  2  0
  2  3  1  0
  3  4  1  0
  4  5  2  0
  5  6  1  0
  6  7  2  0
  7  8  1  0
  8  9  1  0
  9 10  2  0
 10 11  1  0
 11 12  1  0
 12 13  2  0
 13 14  1  0
 14 15  2  0
 15 16  1  0
 16 17  1  0
 17 18  1  0
 18 19  2  0
 19 20  1  0
 20 21  2  0
 21 22  1  0
 22 23  2  0
 16 24  2  0
  8 25  2  0
  2 26  1  0
 26 27  1  0
 27 28  2  0
 28 29  1  0
 29 30  2  0
 30 31  1  0
 31 32  1  0
 32 33  1  0
 32 34  1  0
 32 35  1  0
 31 36  2  0
 25  4  1  0
 36 27  1  0
 24  9  1  0
 15 11  1  0
 23 18  1  0
  3 37  1  0
  5 38  1  0
  6 39  1  0
  7 40  1  0
 10 41  1  0
 12 42  1  0
 13 43  1  0
 17 44  1  0
 19 45  1  0
 20 46  1  0
 21 47  1  0
 22 48  1  0
 23 49  1  0
 25 50  1  0
 26 51  1  0
 28 52  1  0
 29 53  1  0
 30 54  1  0
 36 55  1  0
M  END
>  <meeko>  (7) 
{"is_sidechain": [false], "free_energy": -9.108, "intermolecular_energy": -11.9, "internal_energy": -0.842}

$$$$
LIB_YWDIXVZCRMMQQY__M_PUB_ALL__e8__s20260927
     RDKit          3D

 55 59  0  0  0  0  0  0  0  0999 V2000
    7.3080  -11.3360   -0.5290 O   0  0  0  0  0  0  0  0  0  0  0  0
    7.4500  -12.5280   -0.2910 C   0  0  0  0  0  0  0  0  0  0  0  0
    6.4120  -13.4190   -0.0560 N   0  0  0  0  0  0  0  0  0  0  0  0
    5.0260  -13.1750   -0.1780 C   0  0  0  0  0  0  0  0  0  0  0  0
    4.6030  -12.4370   -1.2900 C   0  0  0  0  0  0  0  0  0  0  0  0
    3.2510  -12.1500   -1.4770 C   0  0  0  0  0  0  0  0  0  0  0  0
    2.3090  -12.6010   -0.5530 C   0  0  0  0  0  0  0  0  0  0  0  0
    2.7040  -13.3430    0.5690 C   0  0  0  0  0  0  0  0  0  0  0  0
    1.6810  -13.7970    1.5450 C   0  0  0  0  0  0  0  0  0  0  0  0
    2.0160  -14.6610    2.5250 C   0  0  0  0  0  0  0  0  0  0  0  0
    1.0330  -15.0680    3.3980 N   0  0  0  0  0  0  0  0  0  0  0  0
    1.0440  -15.9130    4.4730 C   0  0  0  0  0  0  0  0  0  0  0  0
   -0.2550  -15.9190    4.9380 C   0  0  0  0  0  0  0  0  0  0  0  0
   -1.0610  -15.1040    4.1780 N   0  0  0  0  0  0  0  0  0  0  0  0
   -0.2470  -14.6100    3.2660 C   0  0  0  0  0  0  0  0  0  0  0  0
   -0.5750  -13.6830    2.1920 C   0  0  0  0  0  0  0  0  0  0  0  0
   -1.8850  -13.2570    2.0930 N   0  0  0  0  0  0  0  0  0  0  0  0
   -2.4960  -12.3400    1.2240 C   0  0  0  0  0  0  0  0  0  0  0  0
   -3.7210  -12.6980    0.6350 C   0  0  0  0  0  0  0  0  0  0  0  0
   -4.3820  -11.8450   -0.2550 C   0  0  0  0  0  0  0  0  0  0  0  0
   -3.8260  -10.6120   -0.5760 C   0  0  0  0  0  0  0  0  0  0  0  0
   -2.6120  -10.2390   -0.0070 C   0  0  0  0  0  0  0  0  0  0  0  0
   -1.9550  -11.0970    0.8820 C   0  0  0  0  0  0  0  0  0  0  0  0
    0.3850  -13.3190    1.3750 N   0  0  0  0  0  0  0  0  0  0  0  0
    4.0750  -13.6080    0.7490 C   0  0  0  0  0  0  0  0  0  0  0  0
    8.6710  -13.1810   -0.2080 N   0  0  0  0  0  0  0  0  0  0  0  0
    9.9610  -12.6120   -0.2800 C   0  0  0  0  0  0  0  0  0  0  0  0
   10.4160  -11.9200    0.8500 C   0  0  0  0  0  0  0  0  0  0  0  0
   11.6790  -11.3260    0.8650 C   0  0  0  0  0  0  0  0  0  0  0  0
   12.5020  -11.4130   -0.2550 C   0  0  0  0  0  0  0  0  0  0  0  0
   12.0640  -12.0900   -1.4020 C   0  0  0  0  0  0  0  0  0  0  0  0
   12.9480  -12.2060   -2.6200 C   0  0  0  0  0  0  0  0  0  0  0  0
   14.1120  -11.5040   -2.5060 F   0  0  0  0  0  0  0  0  0  0  0  0
   13.3160  -13.4920   -2.8760 F   0  0  0  0  0  0  0  0  0  0  0  0
   12.3530  -11.7490   -3.7560 F   0  0  0  0  0  0  0  0  0  0  0  0
   10.7910  -12.6910   -1.4000 C   0  0  0  0  0  0  0  0  0  0  0  0
    6.6670  -14.3170    0.3210 H   0  0  0  0  0  0  0  0  0  0  0  0
    5.3428  -12.0807   -2.0220 H   0  0  0  0  0  0  0  0  0  0  0  0
    2.9280  -11.5682   -2.3529 H   0  0  0  0  0  0  0  0  0  0  0  0
    1.2441  -12.3720   -0.7062 H   0  0  0  0  0  0  0  0  0  0  0  0
    3.0474  -15.0305    2.6239 H   0  0  0  0  0  0  0  0  0  0  0  0
    1.9026  -16.4679    4.8791 H   0  0  0  0  0  0  0  0  0  0  0  0
   -0.6014  -16.5007    5.8050 H   0  0  0  0  0  0  0  0  0  0  0  0
   -2.4990  -13.6720    2.7880 H   0  0  0  0  0  0  0  0  0  0  0  0
   -4.1704  -13.6718    0.8797 H   0  0  0  0  0  0  0  0  0  0  0  0
   -5.3406  -12.1495   -0.7003 H   0  0  0  0  0  0  0  0  0  0  0  0
   -4.3416   -9.9364   -1.2743 H   0  0  0  0  0  0  0  0  0  0  0  0
   -2.1667   -9.2648   -0.2573 H   0  0  0  0  0  0  0  0  0  0  0  0
   -0.9946  -10.7876    1.3201 H   0  0  0  0  0  0  0  0  0  0  0  0
    4.4038  -14.1672    1.6374 H   0  0  0  0  0  0  0  0  0  0  0  0
    8.6370  -14.1870   -0.1560 H   0  0  0  0  0  0  0  0  0  0  0  0
    9.7696  -11.8438    1.7368 H   0  0  0  0  0  0  0  0  0  0  0  0
   12.0241  -10.7894    1.7611 H   0  0  0  0  0  0  0  0  0  0  0  0
   13.4992  -10.9490   -0.2397 H   0  0  0  0  0  0  0  0  0  0  0  0
   10.4451  -13.2308   -2.2939 H   0  0  0  0  0  0  0  0  0  0  0  0
  1  2  2  0
  2  3  1  0
  3  4  1  0
  4  5  2  0
  5  6  1  0
  6  7  2  0
  7  8  1  0
  8  9  1  0
  9 10  2  0
 10 11  1  0
 11 12  1  0
 12 13  2  0
 13 14  1  0
 14 15  2  0
 15 16  1  0
 16 17  1  0
 17 18  1  0
 18 19  2  0
 19 20  1  0
 20 21  2  0
 21 22  1  0
 22 23  2  0
 16 24  2  0
  8 25  2  0
  2 26  1  0
 26 27  1  0
 27 28  2  0
 28 29  1  0
 29 30  2  0
 30 31  1  0
 31 32  1  0
 32 33  1  0
 32 34  1  0
 32 35  1  0
 31 36  2  0
 25  4  1  0
 36 27  1  0
 24  9  1  0
 15 11  1  0
 23 18  1  0
  3 37  1  0
  5 38  1  0
  6 39  1  0
  7 40  1  0
 10 41  1  0
 12 42  1  0
 13 43  1  0
 17 44  1  0
 19 45  1  0
 20 46  1  0
 21 47  1  0
 22 48  1  0
 23 49  1  0
 25 50  1  0
 26 51  1  0
 28 52  1  0
 29 53  1  0
 30 54  1  0
 36 55  1  0
M  END
>  <meeko>  (8) 
{"is_sidechain": [false], "free_energy": -8.922, "intermolecular_energy": -11.966, "internal_energy": -0.535}

$$$$
LIB_YWDIXVZCRMMQQY__M_PUB_ALL__e8__s20260927
     RDKit          3D

 55 59  0  0  0  0  0  0  0  0999 V2000
    9.2910  -13.9650   -3.2010 O   0  0  0  0  0  0  0  0  0  0  0  0
    9.7800  -14.7510   -2.4020 C   0  0  0  0  0  0  0  0  0  0  0  0
    9.1890  -15.9400   -1.9960 N   0  0  0  0  0  0  0  0  0  0  0  0
    8.0130  -16.5330   -2.5070 C   0  0  0  0  0  0  0  0  0  0  0  0
    8.1650  -17.4640   -3.5410 C   0  0  0  0  0  0  0  0  0  0  0  0
    7.0510  -18.0890   -4.1010 C   0  0  0  0  0  0  0  0  0  0  0  0
    5.7740  -17.7870   -3.6300 C   0  0  0  0  0  0  0  0  0  0  0  0
    5.5920  -16.8600   -2.5940 C   0  0  0  0  0  0  0  0  0  0  0  0
    4.2190  -16.5460   -2.1230 C   0  0  0  0  0  0  0  0  0  0  0  0
    3.5400  -17.4390   -1.3730 C   0  0  0  0  0  0  0  0  0  0  0  0
    2.2640  -17.1140   -0.9720 N   0  0  0  0  0  0  0  0  0  0  0  0
    1.3330  -17.7800   -0.2230 C   0  0  0  0  0  0  0  0  0  0  0  0
    0.2430  -16.9360   -0.1730 C   0  0  0  0  0  0  0  0  0  0  0  0
    0.4770  -15.7750   -0.8720 N   0  0  0  0  0  0  0  0  0  0  0  0
    1.7040  -15.9220   -1.3330 C   0  0  0  0  0  0  0  0  0  0  0  0
    2.4630  -14.9850   -2.1500 C   0  0  0  0  0  0  0  0  0  0  0  0
    1.8500  -13.7980   -2.4990 N   0  0  0  0  0  0  0  0  0  0  0  0
    2.3240  -12.6870   -3.2120 C   0  0  0  0  0  0  0  0  0  0  0  0
    2.8760  -12.9020   -4.4870 C   0  0  0  0  0  0  0  0  0  0  0  0
    3.3850  -11.8470   -5.2520 C   0  0  0  0  0  0  0  0  0  0  0  0
    3.3540  -10.5500   -4.7510 C   0  0  0  0  0  0  0  0  0  0  0  0
    2.8170  -10.3150   -3.4900 C   0  0  0  0  0  0  0  0  0  0  0  0
    2.3100  -11.3750   -2.7290 C   0  0  0  0  0  0  0  0  0  0  0  0
    3.6750  -15.3280   -2.5180 N   0  0  0  0  0  0  0  0  0  0  0  0
    6.7270  -16.2280   -2.0530 C   0  0  0  0  0  0  0  0  0  0  0  0
   11.0020  -14.5810   -1.7660 N   0  0  0  0  0  0  0  0  0  0  0  0
   11.8570  -13.4600   -1.8260 C   0  0  0  0  0  0  0  0  0  0  0  0
   12.6250  -13.3070   -2.9880 C   0  0  0  0  0  0  0  0  0  0  0  0
   13.4980  -12.2270   -3.1300 C   0  0  0  0  0  0  0  0  0  0  0  0
   13.6180  -11.2890   -2.1080 C   0  0  0  0  0  0  0  0  0  0  0  0
   12.8700  -11.4290   -0.9310 C   0  0  0  0  0  0  0  0  0  0  0  0
   12.9770  -10.4140    0.1820 C   0  0  0  0  0  0  0  0  0  0  0  0
   12.1100  -10.6500    1.2070 F   0  0  0  0  0  0  0  0  0  0  0  0
   14.2160  -10.3870    0.7450 F   0  0  0  0  0  0  0  0  0  0  0  0
   12.7200   -9.1420   -0.2300 F   0  0  0  0  0  0  0  0  0  0  0  0
   11.9870  -12.5180   -0.8040 C   0  0  0  0  0  0  0  0  0  0  0  0
    9.5960  -16.3940   -1.1940 H   0  0  0  0  0  0  0  0  0  0  0  0
    9.1711  -17.7047   -3.9150 H   0  0  0  0  0  0  0  0  0  0  0  0
    7.1798  -18.8194   -4.9134 H   0  0  0  0  0  0  0  0  0  0  0  0
    4.8989  -18.2819   -4.0765 H   0  0  0  0  0  0  0  0  0  0  0  0
    3.9938  -18.4002   -1.0899 H   0  0  0  0  0  0  0  0  0  0  0  0
    1.4321  -18.7732    0.2392 H   0  0  0  0  0  0  0  0  0  0  0  0
   -0.6934  -17.1626    0.3579 H   0  0  0  0  0  0  0  0  0  0  0  0
    0.8960  -13.7190   -2.1560 H   0  0  0  0  0  0  0  0  0  0  0  0
    2.9085  -13.9239   -4.8927 H   0  0  0  0  0  0  0  0  0  0  0  0
    3.8089  -12.0430   -6.2479 H   0  0  0  0  0  0  0  0  0  0  0  0
    3.7514   -9.7160   -5.3480 H   0  0  0  0  0  0  0  0  0  0  0  0
    2.7905   -9.2912   -3.0885 H   0  0  0  0  0  0  0  0  0  0  0  0
    1.8925  -11.1718   -1.7318 H   0  0  0  0  0  0  0  0  0  0  0  0
    6.5995  -15.4793   -1.2573 H   0  0  0  0  0  0  0  0  0  0  0  0
   11.3510  -15.3730   -1.2510 H   0  0  0  0  0  0  0  0  0  0  0  0
   12.5390  -14.0465   -3.7977 H   0  0  0  0  0  0  0  0  0  0  0  0
   14.0914  -12.1170   -4.0497 H   0  0  0  0  0  0  0  0  0  0  0  0
   14.3020  -10.4354   -2.2247 H   0  0  0  0  0  0  0  0  0  0  0  0
   11.3908  -12.6283    0.1138 H   0  0  0  0  0  0  0  0  0  0  0  0
  1  2  2  0
  2  3  1  0
  3  4  1  0
  4  5  2  0
  5  6  1  0
  6  7  2  0
  7  8  1  0
  8  9  1  0
  9 10  2  0
 10 11  1  0
 11 12  1  0
 12 13  2  0
 13 14  1  0
 14 15  2  0
 15 16  1  0
 16 17  1  0
 17 18  1  0
 18 19  2  0
 19 20  1  0
 20 21  2  0
 21 22  1  0
 22 23  2  0
 16 24  2  0
  8 25  2  0
  2 26  1  0
 26 27  1  0
 27 28  2  0
 28 29  1  0
 29 30  2  0
 30 31  1  0
 31 32  1  0
 32 33  1  0
 32 34  1  0
 32 35  1  0
 31 36  2  0
 25  4  1  0
 36 27  1  0
 24  9  1  0
 15 11  1  0
 23 18  1  0
  3 37  1  0
  5 38  1  0
  6 39  1  0
  7 40  1  0
 10 41  1  0
 12 42  1  0
 13 43  1  0
 17 44  1  0
 19 45  1  0
 20 46  1  0
 21 47  1  0
 22 48  1  0
 23 49  1  0
 25 50  1  0
 26 51  1  0
 28 52  1  0
 29 53  1  0
 30 54  1  0
 36 55  1  0
M  END
>  <meeko>  (9) 
{"is_sidechain": [false], "free_energy": -8.858, "intermolecular_energy": -11.58, "internal_energy": -0.838}

$$$$
