LIB_ZNDXPRCORYDEAP__H_AF__e8__s20260927
     RDKit          3D

 57 61  0  0  0  0  0  0  0  0999 V2000
    1.1830  -12.9890   -0.2140 O   0  0  0  0  0  0  0  0  0  0  0  0
    1.1250  -14.2090   -0.1260 C   0  0  0  0  0  0  0  0  0  0  0  0
    2.2160  -15.0630   -0.1910 N   0  0  0  0  0  0  0  0  0  0  0  0
    3.5830  -14.7100   -0.2340 C   0  0  0  0  0  0  0  0  0  0  0  0
    4.1090  -14.0540    0.8840 C   0  0  0  0  0  0  0  0  0  0  0  0
    5.4490  -13.6680    0.9150 C   0  0  0  0  0  0  0  0  0  0  0  0
    6.2760  -13.9360   -0.1750 C   0  0  0  0  0  0  0  0  0  0  0  0
    5.7760  -14.5940   -1.3080 C   0  0  0  0  0  0  0  0  0  0  0  0
    6.6760  -14.8530   -2.4610 C   0  0  0  0  0  0  0  0  0  0  0  0
    6.1680  -15.3320   -3.6170 C   0  0  0  0  0  0  0  0  0  0  0  0
    7.0330  -15.5720   -4.6620 N   0  0  0  0  0  0  0  0  0  0  0  0
    6.8400  -16.0410   -5.9330 C   0  0  0  0  0  0  0  0  0  0  0  0
    8.0960  -16.0610   -6.5010 C   0  0  0  0  0  0  0  0  0  0  0  0
    9.0530  -15.6200   -5.6170 N   0  0  0  0  0  0  0  0  0  0  0  0
    8.3720  -15.3370   -4.5260 C   0  0  0  0  0  0  0  0  0  0  0  0
    8.8770  -14.8320   -3.2610 C   0  0  0  0  0  0  0  0  0  0  0  0
   10.2180  -14.5900   -3.0970 N   0  0  0  0  0  0  0  0  0  0  0  0
   10.8030  -14.0690   -1.8930 C   0  0  0  0  0  0  0  0  0  0  0  0
   11.6110  -12.8390   -2.2160 C   0  0  0  0  0  0  0  0  0  0  0  0
   12.3250  -12.7460   -3.4140 C   0  0  0  0  0  0  0  0  0  0  0  0
   13.0320  -11.5830   -3.6770 C   0  0  0  0  0  0  0  0  0  0  0  0
   13.0700  -10.5220   -2.8430 N   0  0  0  0  0  0  0  0  0  0  0  0
   12.3610  -10.6250   -1.7000 C   0  0  0  0  0  0  0  0  0  0  0  0
   11.6240  -11.7440   -1.3460 C   0  0  0  0  0  0  0  0  0  0  0  0
    8.0350  -14.6110   -2.2770 N   0  0  0  0  0  0  0  0  0  0  0  0
    4.4180  -14.9600   -1.3280 C   0  0  0  0  0  0  0  0  0  0  0  0
   -0.0460  -14.9330    0.0480 N   0  0  0  0  0  0  0  0  0  0  0  0
   -1.3690  -14.4450    0.0610 C   0  0  0  0  0  0  0  0  0  0  0  0
   -2.0220  -14.3430   -1.1760 C   0  0  0  0  0  0  0  0  0  0  0  0
   -3.3320  -13.8650   -1.2500 C   0  0  0  0  0  0  0  0  0  0  0  0
   -3.9910  -13.4830   -0.0890 C   0  0  0  0  0  0  0  0  0  0  0  0
   -5.2470  -13.0270   -0.1820 F   0  0  0  0  0  0  0  0  0  0  0  0
   -3.3680  -13.5660    1.1520 C   0  0  0  0  0  0  0  0  0  0  0  0
   -4.1210  -13.1380    2.3750 C   0  0  0  0  0  0  0  0  0  0  0  0
   -4.4310  -11.8100    2.3830 F   0  0  0  0  0  0  0  0  0  0  0  0
   -3.4290  -13.3580    3.5260 F   0  0  0  0  0  0  0  0  0  0  0  0
   -5.3100  -13.7880    2.5170 F   0  0  0  0  0  0  0  0  0  0  0  0
   -2.0490  -14.0500    1.2180 C   0  0  0  0  0  0  0  0  0  0  0  0
    2.0140  -16.0440   -0.3000 H   0  0  0  0  0  0  0  0  0  0  0  0
    3.4601  -13.8407    1.7463 H   0  0  0  0  0  0  0  0  0  0  0  0
    5.8530  -13.1525    1.7988 H   0  0  0  0  0  0  0  0  0  0  0  0
    7.3316  -13.6281   -0.1460 H   0  0  0  0  0  0  0  0  0  0  0  0
    5.0903  -15.5257   -3.7216 H   0  0  0  0  0  0  0  0  0  0  0  0
    5.8892  -16.3376   -6.4000 H   0  0  0  0  0  0  0  0  0  0  0  0
    8.3060  -16.3880   -7.5301 H   0  0  0  0  0  0  0  0  0  0  0  0
   10.8180  -14.7750   -3.8950 H   0  0  0  0  0  0  0  0  0  0  0  0
   10.0056  -13.8071   -1.1819 H   0  0  0  0  0  0  0  0  0  0  0  0
   11.4589  -14.8305   -1.4459 H   0  0  0  0  0  0  0  0  0  0  0  0
   12.3259  -13.5784   -4.1331 H   0  0  0  0  0  0  0  0  0  0  0  0
   13.5948  -11.5210   -4.6201 H   0  0  0  0  0  0  0  0  0  0  0  0
   12.3683   -9.7701   -1.0079 H   0  0  0  0  0  0  0  0  0  0  0  0
   11.0614  -11.7704   -0.4011 H   0  0  0  0  0  0  0  0  0  0  0  0
    4.0049  -15.4521   -2.2208 H   0  0  0  0  0  0  0  0  0  0  0  0
    0.0660  -15.9140    0.2540 H   0  0  0  0  0  0  0  0  0  0  0  0
   -1.4978  -14.6421   -2.0957 H   0  0  0  0  0  0  0  0  0  0  0  0
   -3.8394  -13.7914   -2.2232 H   0  0  0  0  0  0  0  0  0  0  0  0
   -1.5450  -14.1189    2.1933 H   0  0  0  0  0  0  0  0  0  0  0  0
  1  2  2  0
  2  3  1  0
  3  4  1  0
  4  5  2  0
  5  6  1  0
  6  7  2  0
  7  8  1  0
  8  9  1  0
  9 10  2  0
 10 11  1  0
 11 12  1  0
 12 13  2  0
 13 14  1  0
 14 15  2  0
 15 16  1  0
 16 17  1  0
 17 18  1  0
 18 19  1  0
 19 20  2  0
 20 21  1  0
 21 22  2  0
 22 23  1  0
 23 24  2  0
 16 25  2  0
  8 26  2  0
  2 27  1  0
 27 28  1  0
 28 29  2  0
 29 30  1  0
 30 31  2  0
 31 32  1  0
 31 33  1  0
 33 34  1  0
 34 35  1  0
 34 36  1  0
 34 37  1  0
 33 38  2  0
 26  4  1  0
 38 28  1  0
 25  9  1  0
 15 11  1  0
 24 19  1  0
  3 39  1  0
  5 40  1  0
  6 41  1  0
  7 42  1  0
 10 43  1  0
 12 44  1  0
 13 45  1  0
 17 46  1  0
 18 47  1  0
 18 48  1  0
 20 49  1  0
 21 50  1  0
 23 51  1  0
 24 52  1  0
 26 53  1  0
 27 54  1  0
 29 55  1  0
 30 56  1  0
 38 57  1  0
M  END
>  <meeko>  (1) 
{"is_sidechain": [false], "free_energy": -10.923, "intermolecular_energy": -14.755, "internal_energy": -1.111}

$$$$
LIB_ZNDXPRCORYDEAP__H_AF__e8__s20260927
     RDKit          3D

 57 61  0  0  0  0  0  0  0  0999 V2000
    1.0790  -11.9650   -1.2700 O   0  0  0  0  0  0  0  0  0  0  0  0
    0.7990  -13.0690   -1.7180 C   0  0  0  0  0  0  0  0  0  0  0  0
    1.2500  -13.5720   -2.9290 N   0  0  0  0  0  0  0  0  0  0  0  0
    2.1990  -12.9940   -3.8010 C   0  0  0  0  0  0  0  0  0  0  0  0
    1.7240  -12.4790   -5.0120 C   0  0  0  0  0  0  0  0  0  0  0  0
    2.6000  -11.8970   -5.9280 C   0  0  0  0  0  0  0  0  0  0  0  0
    3.9620  -11.8250   -5.6390 C   0  0  0  0  0  0  0  0  0  0  0  0
    4.4660  -12.3310   -4.4320 C   0  0  0  0  0  0  0  0  0  0  0  0
    5.9230  -12.2540   -4.1570 C   0  0  0  0  0  0  0  0  0  0  0  0
    6.8070  -12.6900   -5.0810 C   0  0  0  0  0  0  0  0  0  0  0  0
    8.1510  -12.6150   -4.7880 N   0  0  0  0  0  0  0  0  0  0  0  0
    9.2710  -12.9600   -5.4940 C   0  0  0  0  0  0  0  0  0  0  0  0
   10.3260  -12.6460   -4.6640 C   0  0  0  0  0  0  0  0  0  0  0  0
    9.8870  -12.1200   -3.4720 N   0  0  0  0  0  0  0  0  0  0  0  0
    8.5750  -12.1190   -3.5890 C   0  0  0  0  0  0  0  0  0  0  0  0
    7.5910  -11.6710   -2.6190 C   0  0  0  0  0  0  0  0  0  0  0  0
    7.9910  -11.1710   -1.4050 N   0  0  0  0  0  0  0  0  0  0  0  0
    7.0910  -10.6850   -0.3970 C   0  0  0  0  0  0  0  0  0  0  0  0
    6.1410  -11.7830    0.0040 C   0  0  0  0  0  0  0  0  0  0  0  0
    6.6210  -13.0360    0.3990 C   0  0  0  0  0  0  0  0  0  0  0  0
    5.7080  -14.0050    0.7840 C   0  0  0  0  0  0  0  0  0  0  0  0
    4.3720  -13.8130    0.8070 N   0  0  0  0  0  0  0  0  0  0  0  0
    3.9300  -12.5920    0.4380 C   0  0  0  0  0  0  0  0  0  0  0  0
    4.7610  -11.5580    0.0370 C   0  0  0  0  0  0  0  0  0  0  0  0
    6.3140  -11.7530   -2.9180 N   0  0  0  0  0  0  0  0  0  0  0  0
    3.5690  -12.9290   -3.5280 C   0  0  0  0  0  0  0  0  0  0  0  0
   -0.0220  -13.9930   -1.0860 N   0  0  0  0  0  0  0  0  0  0  0  0
   -0.7540  -13.8240    0.1080 C   0  0  0  0  0  0  0  0  0  0  0  0
   -0.0510  -13.9730    1.3110 C   0  0  0  0  0  0  0  0  0  0  0  0
   -0.7040  -13.8260    2.5370 C   0  0  0  0  0  0  0  0  0  0  0  0
   -2.0610  -13.5320    2.5630 C   0  0  0  0  0  0  0  0  0  0  0  0
   -2.6690  -13.3950    3.7480 F   0  0  0  0  0  0  0  0  0  0  0  0
   -2.7870  -13.3840    1.3850 C   0  0  0  0  0  0  0  0  0  0  0  0
   -4.2500  -13.0710    1.4660 C   0  0  0  0  0  0  0  0  0  0  0  0
   -4.8580  -13.0040    0.2470 F   0  0  0  0  0  0  0  0  0  0  0  0
   -4.5040  -11.8760    2.0660 F   0  0  0  0  0  0  0  0  0  0  0  0
   -4.9520  -14.0050    2.1680 F   0  0  0  0  0  0  0  0  0  0  0  0
   -2.1220  -13.5340    0.1550 C   0  0  0  0  0  0  0  0  0  0  0  0
    0.7950  -14.4050   -3.2690 H   0  0  0  0  0  0  0  0  0  0  0  0
    0.6501  -12.5336   -5.2437 H   0  0  0  0  0  0  0  0  0  0  0  0
    2.2167  -11.4952   -6.8775 H   0  0  0  0  0  0  0  0  0  0  0  0
    4.6488  -11.3663   -6.3656 H   0  0  0  0  0  0  0  0  0  0  0  0
    6.4620  -13.0950   -6.0438 H   0  0  0  0  0  0  0  0  0  0  0  0
    9.3192  -13.3935   -6.5038 H   0  0  0  0  0  0  0  0  0  0  0  0
   11.3845  -12.7971   -4.9225 H   0  0  0  0  0  0  0  0  0  0  0  0
    8.9910  -11.1290   -1.2340 H   0  0  0  0  0  0  0  0  0  0  0  0
    7.6669  -10.3600    0.4821 H   0  0  0  0  0  0  0  0  0  0  0  0
    6.5189   -9.8350   -0.7972 H   0  0  0  0  0  0  0  0  0  0  0  0
    7.7004  -13.2478    0.4040 H   0  0  0  0  0  0  0  0  0  0  0  0
    6.0948  -14.9886    1.0888 H   0  0  0  0  0  0  0  0  0  0  0  0
    2.8459  -12.4068    0.4567 H   0  0  0  0  0  0  0  0  0  0  0  0
    4.3441  -10.5811   -0.2492 H   0  0  0  0  0  0  0  0  0  0  0  0
    3.9526  -13.3535   -2.5885 H   0  0  0  0  0  0  0  0  0  0  0  0
   -0.0470  -14.9160   -1.4930 H   0  0  0  0  0  0  0  0  0  0  0  0
    1.0235  -14.2076    1.2897 H   0  0  0  0  0  0  0  0  0  0  0  0
   -0.1459  -13.9426    3.4777 H   0  0  0  0  0  0  0  0  0  0  0  0
   -2.6852  -13.4218   -0.7832 H   0  0  0  0  0  0  0  0  0  0  0  0
  1  2  2  0
  2  3  1  0
  3  4  1  0
  4  5  2  0
  5  6  1  0
  6  7  2  0
  7  8  1  0
  8  9  1  0
  9 10  2  0
 10 11  1  0
 11 12  1  0
 12 13  2  0
 13 14  1  0
 14 15  2  0
 15 16  1  0
 16 17  1  0
 17 18  1  0
 18 19  1  0
 19 20  2  0
 20 21  1  0
 21 22  2  0
 22 23  1  0
 23 24  2  0
 16 25  2  0
  8 26  2  0
  2 27  1  0
 27 28  1  0
 28 29  2  0
 29 30  1  0
 30 31  2  0
 31 32  1  0
 31 33  1  0
 33 34  1  0
 34 35  1  0
 34 36  1  0
 34 37  1  0
 33 38  2  0
 26  4  1  0
 38 28  1  0
 25  9  1  0
 15 11  1  0
 24 19  1  0
  3 39  1  0
  5 40  1  0
  6 41  1  0
  7 42  1  0
 10 43  1  0
 12 44  1  0
 13 45  1  0
 17 46  1  0
 18 47  1  0
 18 48  1  0
 20 49  1  0
 21 50  1  0
 23 51  1  0
 24 52  1  0
 26 53  1  0
 27 54  1  0
 29 55  1  0
 30 56  1  0
 38 57  1  0
M  END
>  <meeko>  (2) 
{"is_sidechain": [false], "free_energy": -10.701, "intermolecular_energy": -14.456, "internal_energy": -1.11}

$$$$
LIB_ZNDXPRCORYDEAP__H_AF__e8__s20260927
     RDKit          3D

 57 61  0  0  0  0  0  0  0  0999 V2000
    7.1750  -11.9420   -3.5200 O   0  0  0  0  0  0  0  0  0  0  0  0
    7.1150  -12.4560   -4.6290 C   0  0  0  0  0  0  0  0  0  0  0  0
    5.9410  -12.7710   -5.2960 N   0  0  0  0  0  0  0  0  0  0  0  0
    4.6200  -12.4520   -4.9100 C   0  0  0  0  0  0  0  0  0  0  0  0
    3.8870  -11.6210   -5.7650 C   0  0  0  0  0  0  0  0  0  0  0  0
    2.5790  -11.2560   -5.4490 C   0  0  0  0  0  0  0  0  0  0  0  0
    1.9900  -11.7210   -4.2740 C   0  0  0  0  0  0  0  0  0  0  0  0
    2.7000  -12.5570   -3.4010 C   0  0  0  0  0  0  0  0  0  0  0  0
    2.0530  -13.0250   -2.1480 C   0  0  0  0  0  0  0  0  0  0  0  0
    0.9450  -12.4040   -1.6900 C   0  0  0  0  0  0  0  0  0  0  0  0
    0.3780  -12.8560   -0.5180 N   0  0  0  0  0  0  0  0  0  0  0  0
   -0.7210  -12.4570    0.1910 C   0  0  0  0  0  0  0  0  0  0  0  0
   -0.7700  -13.3010    1.2800 C   0  0  0  0  0  0  0  0  0  0  0  0
    0.2660  -14.2060    1.2600 N   0  0  0  0  0  0  0  0  0  0  0  0
    0.9310  -13.9030    0.1630 C   0  0  0  0  0  0  0  0  0  0  0  0
    2.1290  -14.5360   -0.3600 C   0  0  0  0  0  0  0  0  0  0  0  0
    2.7060  -15.5870    0.3070 N   0  0  0  0  0  0  0  0  0  0  0  0
    3.8750  -16.2870   -0.1460 C   0  0  0  0  0  0  0  0  0  0  0  0
    5.0410  -15.3350   -0.2070 C   0  0  0  0  0  0  0  0  0  0  0  0
    5.9650  -15.4010   -1.2550 C   0  0  0  0  0  0  0  0  0  0  0  0
    7.0060  -14.4870   -1.2810 C   0  0  0  0  0  0  0  0  0  0  0  0
    7.1840  -13.5240   -0.3520 N   0  0  0  0  0  0  0  0  0  0  0  0
    6.2730  -13.4670    0.6420 C   0  0  0  0  0  0  0  0  0  0  0  0
    5.1980  -14.3340    0.7560 C   0  0  0  0  0  0  0  0  0  0  0  0
    2.6540  -14.0870   -1.4780 N   0  0  0  0  0  0  0  0  0  0  0  0
    4.0240  -12.9010   -3.7270 C   0  0  0  0  0  0  0  0  0  0  0  0
    8.2170  -12.8120   -5.3950 N   0  0  0  0  0  0  0  0  0  0  0  0
    9.5780  -12.7500   -5.0310 C   0  0  0  0  0  0  0  0  0  0  0  0
   10.5040  -13.2780   -5.9400 C   0  0  0  0  0  0  0  0  0  0  0  0
   11.8710  -13.2590   -5.6530 C   0  0  0  0  0  0  0  0  0  0  0  0
   12.3140  -12.7160   -4.4540 C   0  0  0  0  0  0  0  0  0  0  0  0
   13.6290  -12.7080   -4.1970 F   0  0  0  0  0  0  0  0  0  0  0  0
   11.4180  -12.1910   -3.5290 C   0  0  0  0  0  0  0  0  0  0  0  0
   11.9460  -11.6200   -2.2470 C   0  0  0  0  0  0  0  0  0  0  0  0
   12.9020  -10.6650   -2.4330 F   0  0  0  0  0  0  0  0  0  0  0  0
   12.5200  -12.5590   -1.4460 F   0  0  0  0  0  0  0  0  0  0  0  0
   10.9780  -11.0210   -1.4980 F   0  0  0  0  0  0  0  0  0  0  0  0
   10.0440  -12.2130   -3.8260 C   0  0  0  0  0  0  0  0  0  0  0  0
    6.0280  -13.3620   -6.1080 H   0  0  0  0  0  0  0  0  0  0  0  0
    4.3467  -11.2528   -6.6940 H   0  0  0  0  0  0  0  0  0  0  0  0
    2.0117  -10.6011   -6.1268 H   0  0  0  0  0  0  0  0  0  0  0  0
    0.9580  -11.4290   -4.0296 H   0  0  0  0  0  0  0  0  0  0  0  0
    0.5056  -11.5580   -2.2389 H   0  0  0  0  0  0  0  0  0  0  0  0
   -1.4154  -11.6399   -0.0543 H   0  0  0  0  0  0  0  0  0  0  0  0
   -1.5394  -13.2565    2.0649 H   0  0  0  0  0  0  0  0  0  0  0  0
    2.2510  -15.8910    1.1630 H   0  0  0  0  0  0  0  0  0  0  0  0
    4.1060  -17.1047    0.5526 H   0  0  0  0  0  0  0  0  0  0  0  0
    3.6881  -16.7010   -1.1478 H   0  0  0  0  0  0  0  0  0  0  0  0
    5.8672  -16.1629   -2.0424 H   0  0  0  0  0  0  0  0  0  0  0  0
    7.7297  -14.5498   -2.1070 H   0  0  0  0  0  0  0  0  0  0  0  0
    6.3908  -12.6857    1.4074 H   0  0  0  0  0  0  0  0  0  0  0  0
    4.4834  -14.2366    1.5866 H   0  0  0  0  0  0  0  0  0  0  0  0
    4.6019  -13.5352   -3.0386 H   0  0  0  0  0  0  0  0  0  0  0  0
    8.0250  -13.0870   -6.3460 H   0  0  0  0  0  0  0  0  0  0  0  0
   10.1517  -13.7112   -6.8877 H   0  0  0  0  0  0  0  0  0  0  0  0
   12.5928  -13.6720   -6.3730 H   0  0  0  0  0  0  0  0  0  0  0  0
    9.3256  -11.8025   -3.1012 H   0  0  0  0  0  0  0  0  0  0  0  0
  1  2  2  0
  2  3  1  0
  3  4  1  0
  4  5  2  0
  5  6  1  0
  6  7  2  0
  7  8  1  0
  8  9  1  0
  9 10  2  0
 10 11  1  0
 11 12  1  0
 12 13  2  0
 13 14  1  0
 14 15  2  0
 15 16  1  0
 16 17  1  0
 17 18  1  0
 18 19  1  0
 19 20  2  0
 20 21  1  0
 21 22  2  0
 22 23  1  0
 23 24  2  0
 16 25  2  0
  8 26  2  0
  2 27  1  0
 27 28  1  0
 28 29  2  0
 29 30  1  0
 30 31  2  0
 31 32  1  0
 31 33  1  0
 33 34  1  0
 34 35  1  0
 34 36  1  0
 34 37  1  0
 33 38  2  0
 26  4  1  0
 38 28  1  0
 25  9  1  0
 15 11  1  0
 24 19  1  0
  3 39  1  0
  5 40  1  0
  6 41  1  0
  7 42  1  0
 10 43  1  0
 12 44  1  0
 13 45  1  0
 17 46  1  0
 18 47  1  0
 18 48  1  0
 20 49  1  0
 21 50  1  0
 23 51  1  0
 24 52  1  0
 26 53  1  0
 27 54  1  0
 29 55  1  0
 30 56  1  0
 38 57  1  0
M  END
>  <meeko>  (3) 
{"is_sidechain": [false], "free_energy": -10.409, "intermolecular_energy": -14.546, "internal_energy": -0.625}

$$$$
LIB_ZNDXPRCORYDEAP__H_AF__e8__s20260927
     RDKit          3D

 57 61  0  0  0  0  0  0  0  0999 V2000
    1.0620  -12.3950   -0.6060 O   0  0  0  0  0  0  0  0  0  0  0  0
    0.6110  -13.2330   -1.3760 C   0  0  0  0  0  0  0  0  0  0  0  0
    1.1040  -13.4900   -2.6470 N   0  0  0  0  0  0  0  0  0  0  0  0
    2.2670  -12.9550   -3.2430 C   0  0  0  0  0  0  0  0  0  0  0  0
    2.0990  -12.1980   -4.4080 C   0  0  0  0  0  0  0  0  0  0  0  0
    3.2000  -11.6420   -5.0580 C   0  0  0  0  0  0  0  0  0  0  0  0
    4.4820  -11.8360   -4.5450 C   0  0  0  0  0  0  0  0  0  0  0  0
    4.6800  -12.5870   -3.3780 C   0  0  0  0  0  0  0  0  0  0  0  0
    6.0590  -12.7910   -2.8640 C   0  0  0  0  0  0  0  0  0  0  0  0
    6.5610  -11.9520   -1.9320 C   0  0  0  0  0  0  0  0  0  0  0  0
    7.8470  -12.1630   -1.4860 N   0  0  0  0  0  0  0  0  0  0  0  0
    8.6260  -11.5120   -0.5690 C   0  0  0  0  0  0  0  0  0  0  0  0
    9.8210  -12.1990   -0.5630 C   0  0  0  0  0  0  0  0  0  0  0  0
    9.7990  -13.2510   -1.4500 N   0  0  0  0  0  0  0  0  0  0  0  0
    8.5950  -13.1930   -1.9820 C   0  0  0  0  0  0  0  0  0  0  0  0
    8.0200  -14.0650   -2.9910 C   0  0  0  0  0  0  0  0  0  0  0  0
    8.7520  -15.1050   -3.5070 N   0  0  0  0  0  0  0  0  0  0  0  0
    8.2580  -16.0300   -4.4890 C   0  0  0  0  0  0  0  0  0  0  0  0
    8.5350  -15.4970   -5.8700 C   0  0  0  0  0  0  0  0  0  0  0  0
    7.5420  -15.5080   -6.8540 C   0  0  0  0  0  0  0  0  0  0  0  0
    7.8380  -14.9820   -8.1020 C   0  0  0  0  0  0  0  0  0  0  0  0
    9.0350  -14.4500   -8.4290 N   0  0  0  0  0  0  0  0  0  0  0  0
    9.9750  -14.4340   -7.4610 C   0  0  0  0  0  0  0  0  0  0  0  0
    9.7770  -14.9340   -6.1830 C   0  0  0  0  0  0  0  0  0  0  0  0
    6.7920  -13.8450   -3.4040 N   0  0  0  0  0  0  0  0  0  0  0  0
    3.5590  -13.1550   -2.7460 C   0  0  0  0  0  0  0  0  0  0  0  0
   -0.4710  -14.0580   -1.1010 N   0  0  0  0  0  0  0  0  0  0  0  0
   -1.3050  -14.0370    0.0360 C   0  0  0  0  0  0  0  0  0  0  0  0
   -0.7500  -14.4900    1.2400 C   0  0  0  0  0  0  0  0  0  0  0  0
   -1.5110  -14.5060    2.4110 C   0  0  0  0  0  0  0  0  0  0  0  0
   -2.8310  -14.0730    2.3800 C   0  0  0  0  0  0  0  0  0  0  0  0
   -3.5440  -14.0970    3.5130 F   0  0  0  0  0  0  0  0  0  0  0  0
   -3.4110  -13.6250    1.1980 C   0  0  0  0  0  0  0  0  0  0  0  0
   -4.8400  -13.1720    1.2150 C   0  0  0  0  0  0  0  0  0  0  0  0
   -5.3540  -12.9530   -0.0290 F   0  0  0  0  0  0  0  0  0  0  0  0
   -5.0170  -12.0050    1.8930 F   0  0  0  0  0  0  0  0  0  0  0  0
   -5.6740  -14.0790    1.7960 F   0  0  0  0  0  0  0  0  0  0  0  0
   -2.6380  -13.6110    0.0230 C   0  0  0  0  0  0  0  0  0  0  0  0
    0.5290  -14.0600   -3.2470 H   0  0  0  0  0  0  0  0  0  0  0  0
    1.0891  -12.0402   -4.8146 H   0  0  0  0  0  0  0  0  0  0  0  0
    3.0575  -11.0509   -5.9746 H   0  0  0  0  0  0  0  0  0  0  0  0
    5.3473  -11.3950   -5.0616 H   0  0  0  0  0  0  0  0  0  0  0  0
    5.9576  -11.1206   -1.5388 H   0  0  0  0  0  0  0  0  0  0  0  0
    8.3571  -10.6314    0.0329 H   0  0  0  0  0  0  0  0  0  0  0  0
   10.6824  -11.9395    0.0700 H   0  0  0  0  0  0  0  0  0  0  0  0
    9.6920  -15.2270   -3.1460 H   0  0  0  0  0  0  0  0  0  0  0  0
    8.7608  -17.0003   -4.3635 H   0  0  0  0  0  0  0  0  0  0  0  0
    7.1733  -16.1574   -4.3575 H   0  0  0  0  0  0  0  0  0  0  0  0
    6.5465  -15.9254   -6.6424 H   0  0  0  0  0  0  0  0  0  0  0  0
    7.0515  -14.9991   -8.8709 H   0  0  0  0  0  0  0  0  0  0  0  0
   10.9565  -13.9985   -7.6999 H   0  0  0  0  0  0  0  0  0  0  0  0
   10.5790  -14.8890   -5.4315 H   0  0  0  0  0  0  0  0  0  0  0  0
    3.7012  -13.7681   -1.8438 H   0  0  0  0  0  0  0  0  0  0  0  0
   -0.6410  -14.8010   -1.7620 H   0  0  0  0  0  0  0  0  0  0  0  0
    0.2939  -14.8360    1.2632 H   0  0  0  0  0  0  0  0  0  0  0  0
   -1.0675  -14.8597    3.3534 H   0  0  0  0  0  0  0  0  0  0  0  0
   -3.0869  -13.2607   -0.9182 H   0  0  0  0  0  0  0  0  0  0  0  0
  1  2  2  0
  2  3  1  0
  3  4  1  0
  4  5  2  0
  5  6  1  0
  6  7  2  0
  7  8  1  0
  8  9  1  0
  9 10  2  0
 10 11  1  0
 11 12  1  0
 12 13  2  0
 13 14  1  0
 14 15  2  0
 15 16  1  0
 16 17  1  0
 17 18  1  0
 18 19  1  0
 19 20  2  0
 20 21  1  0
 21 22  2  0
 22 23  1  0
 23 24  2  0
 16 25  2  0
  8 26  2  0
  2 27  1  0
 27 28  1  0
 28 29  2  0
 29 30  1  0
 30 31  2  0
 31 32  1  0
 31 33  1  0
 33 34  1  0
 34 35  1  0
 34 36  1  0
 34 37  1  0
 33 38  2  0
 26  4  1  0
 38 28  1  0
 25  9  1  0
 15 11  1  0
 24 19  1  0
  3 39  1  0
  5 40  1  0
  6 41  1  0
  7 42  1  0
 10 43  1  0
 12 44  1  0
 13 45  1  0
 17 46  1  0
 18 47  1  0
 18 48  1  0
 20 49  1  0
 21 50  1  0
 23 51  1  0
 24 52  1  0
 26 53  1  0
 27 54  1  0
 29 55  1  0
 30 56  1  0
 38 57  1  0
M  END
>  <meeko>  (4) 
{"is_sidechain": [false], "free_energy": -10.404, "intermolecular_energy": -14.065, "internal_energy": -1.1}

$$$$
LIB_ZNDXPRCORYDEAP__H_AF__e8__s20260927
     RDKit          3D

 57 61  0  0  0  0  0  0  0  0999 V2000
    0.9400  -12.1670   -0.6600 O   0  0  0  0  0  0  0  0  0  0  0  0
    0.5830  -13.1180   -1.3410 C   0  0  0  0  0  0  0  0  0  0  0  0
    1.1470  -13.4830   -2.5550 N   0  0  0  0  0  0  0  0  0  0  0  0
    2.2970  -12.9360   -3.1670 C   0  0  0  0  0  0  0  0  0  0  0  0
    2.1050  -12.1870   -4.3330 C   0  0  0  0  0  0  0  0  0  0  0  0
    3.1920  -11.6200   -4.9990 C   0  0  0  0  0  0  0  0  0  0  0  0
    4.4820  -11.7970   -4.5010 C   0  0  0  0  0  0  0  0  0  0  0  0
    4.7040  -12.5400   -3.3340 C   0  0  0  0  0  0  0  0  0  0  0  0
    6.0910  -12.7260   -2.8350 C   0  0  0  0  0  0  0  0  0  0  0  0
    6.5880  -11.8880   -1.9000 C   0  0  0  0  0  0  0  0  0  0  0  0
    7.8820  -12.0810   -1.4690 N   0  0  0  0  0  0  0  0  0  0  0  0
    8.6590  -11.4260   -0.5530 C   0  0  0  0  0  0  0  0  0  0  0  0
    9.8660  -12.0920   -0.5670 C   0  0  0  0  0  0  0  0  0  0  0  0
    9.8530  -13.1350   -1.4640 N   0  0  0  0  0  0  0  0  0  0  0  0
    8.6430  -13.0920   -1.9840 C   0  0  0  0  0  0  0  0  0  0  0  0
    8.0730  -13.9630   -2.9960 C   0  0  0  0  0  0  0  0  0  0  0  0
    8.8170  -14.9850   -3.5310 N   0  0  0  0  0  0  0  0  0  0  0  0
    8.3290  -15.9080   -4.5180 C   0  0  0  0  0  0  0  0  0  0  0  0
    8.6170  -15.3730   -5.8960 C   0  0  0  0  0  0  0  0  0  0  0  0
    7.5900  -15.2180   -6.8330 C   0  0  0  0  0  0  0  0  0  0  0  0
    7.9010  -14.6970   -8.0790 C   0  0  0  0  0  0  0  0  0  0  0  0
    9.1440  -14.3210   -8.4470 N   0  0  0  0  0  0  0  0  0  0  0  0
   10.1180  -14.4620   -7.5240 C   0  0  0  0  0  0  0  0  0  0  0  0
    9.9090  -14.9730   -6.2530 C   0  0  0  0  0  0  0  0  0  0  0  0
    6.8370  -13.7600   -3.3940 N   0  0  0  0  0  0  0  0  0  0  0  0
    3.5970  -13.1190   -2.6860 C   0  0  0  0  0  0  0  0  0  0  0  0
   -0.4520  -13.9830   -1.0100 N   0  0  0  0  0  0  0  0  0  0  0  0
   -1.3350  -13.8930    0.0850 C   0  0  0  0  0  0  0  0  0  0  0  0
   -2.6880  -13.6660   -0.2060 C   0  0  0  0  0  0  0  0  0  0  0  0
   -3.6260  -13.5600    0.8230 C   0  0  0  0  0  0  0  0  0  0  0  0
   -3.2150  -13.6750    2.1450 C   0  0  0  0  0  0  0  0  0  0  0  0
   -4.1300  -13.5700    3.1160 F   0  0  0  0  0  0  0  0  0  0  0  0
   -1.8790  -13.8930    2.4640 C   0  0  0  0  0  0  0  0  0  0  0  0
   -1.4840  -14.0070    3.9060 C   0  0  0  0  0  0  0  0  0  0  0  0
   -0.1370  -14.1100    4.0920 F   0  0  0  0  0  0  0  0  0  0  0  0
   -2.0220  -15.0980    4.5170 F   0  0  0  0  0  0  0  0  0  0  0  0
   -1.8710  -12.9290    4.6460 F   0  0  0  0  0  0  0  0  0  0  0  0
   -0.9400  -14.0000    1.4230 C   0  0  0  0  0  0  0  0  0  0  0  0
    0.6400  -14.1590   -3.1030 H   0  0  0  0  0  0  0  0  0  0  0  0
    1.0884  -12.0439   -4.7280 H   0  0  0  0  0  0  0  0  0  0  0  0
    3.0313  -11.0340   -5.9159 H   0  0  0  0  0  0  0  0  0  0  0  0
    5.3354  -11.3482   -5.0303 H   0  0  0  0  0  0  0  0  0  0  0  0
    5.9744  -11.0711   -1.4924 H   0  0  0  0  0  0  0  0  0  0  0  0
    8.3810  -10.5568    0.0612 H   0  0  0  0  0  0  0  0  0  0  0  0
   10.7295  -11.8236    0.0593 H   0  0  0  0  0  0  0  0  0  0  0  0
    9.7630  -15.0940   -3.1800 H   0  0  0  0  0  0  0  0  0  0  0  0
    8.8296  -16.8791   -4.3903 H   0  0  0  0  0  0  0  0  0  0  0  0
    7.2433  -16.0345   -4.3947 H   0  0  0  0  0  0  0  0  0  0  0  0
    6.5569  -15.5037   -6.5860 H   0  0  0  0  0  0  0  0  0  0  0  0
    7.0875  -14.5833   -8.8106 H   0  0  0  0  0  0  0  0  0  0  0  0
   11.1380  -14.1531   -7.7965 H   0  0  0  0  0  0  0  0  0  0  0  0
   10.7417  -15.0622   -5.5397 H   0  0  0  0  0  0  0  0  0  0  0  0
    3.7576  -13.7273   -1.7837 H   0  0  0  0  0  0  0  0  0  0  0  0
   -0.5410  -14.8080   -1.5840 H   0  0  0  0  0  0  0  0  0  0  0  0
   -3.0127  -13.5707   -1.2526 H   0  0  0  0  0  0  0  0  0  0  0  0
   -4.6864  -13.3861    0.5877 H   0  0  0  0  0  0  0  0  0  0  0  0
    0.1197  -14.1702    1.6638 H   0  0  0  0  0  0  0  0  0  0  0  0
  1  2  2  0
  2  3  1  0
  3  4  1  0
  4  5  2  0
  5  6  1  0
  6  7  2  0
  7  8  1  0
  8  9  1  0
  9 10  2  0
 10 11  1  0
 11 12  1  0
 12 13  2  0
 13 14  1  0
 14 15  2  0
 15 16  1  0
 16 17  1  0
 17 18  1  0
 18 19  1  0
 19 20  2  0
 20 21  1  0
 21 22  2  0
 22 23  1  0
 23 24  2  0
 16 25  2  0
  8 26  2  0
  2 27  1  0
 27 28  1  0
 28 29  2  0
 29 30  1  0
 30 31  2  0
 31 32  1  0
 31 33  1  0
 33 34  1  0
 34 35  1  0
 34 36  1  0
 34 37  1  0
 33 38  2  0
 26  4  1  0
 38 28  1  0
 25  9  1  0
 15 11  1  0
 24 19  1  0
  3 39  1  0
  5 40  1  0
  6 41  1  0
  7 42  1  0
 10 43  1  0
 12 44  1  0
 13 45  1  0
 17 46  1  0
 18 47  1  0
 18 48  1  0
 20 49  1  0
 21 50  1  0
 23 51  1  0
 24 52  1  0
 26 53  1  0
 27 54  1  0
 29 55  1  0
 30 56  1  0
 38 57  1  0
M  END
>  <meeko>  (5) 
{"is_sidechain": [false], "free_energy": -10.24, "intermolecular_energy": -13.747, "internal_energy": -1.196}

$$$$
LIB_ZNDXPRCORYDEAP__H_AF__e8__s20260927
     RDKit          3D

 57 61  0  0  0  0  0  0  0  0999 V2000
    1.9370  -12.4010   -0.6430 O   0  0  0  0  0  0  0  0  0  0  0  0
    2.3680  -13.2750    0.0970 C   0  0  0  0  0  0  0  0  0  0  0  0
    3.6960  -13.6660    0.1740 N   0  0  0  0  0  0  0  0  0  0  0  0
    4.8070  -13.0680   -0.4610 C   0  0  0  0  0  0  0  0  0  0  0  0
    5.2280  -11.8250    0.0240 C   0  0  0  0  0  0  0  0  0  0  0  0
    6.3140  -11.1680   -0.5540 C   0  0  0  0  0  0  0  0  0  0  0  0
    6.9900  -11.7520   -1.6250 C   0  0  0  0  0  0  0  0  0  0  0  0
    6.5930  -12.9980   -2.1290 C   0  0  0  0  0  0  0  0  0  0  0  0
    7.3220  -13.5890   -3.2800 C   0  0  0  0  0  0  0  0  0  0  0  0
    6.6720  -13.8250   -4.4400 C   0  0  0  0  0  0  0  0  0  0  0  0
    7.3760  -14.3850   -5.4830 N   0  0  0  0  0  0  0  0  0  0  0  0
    7.0190  -14.7360   -6.7560 C   0  0  0  0  0  0  0  0  0  0  0  0
    8.1680  -15.2500   -7.3210 C   0  0  0  0  0  0  0  0  0  0  0  0
    9.2170  -15.2260   -6.4320 N   0  0  0  0  0  0  0  0  0  0  0  0
    8.6980  -14.6990   -5.3410 C   0  0  0  0  0  0  0  0  0  0  0  0
    9.3560  -14.4380   -4.0730 C   0  0  0  0  0  0  0  0  0  0  0  0
   10.6820  -14.7470   -3.9030 N   0  0  0  0  0  0  0  0  0  0  0  0
   11.4200  -14.5030   -2.6950 C   0  0  0  0  0  0  0  0  0  0  0  0
   11.9960  -13.1120   -2.7280 C   0  0  0  0  0  0  0  0  0  0  0  0
   12.6910  -12.6510   -3.8510 C   0  0  0  0  0  0  0  0  0  0  0  0
   13.1800  -11.3550   -3.8430 C   0  0  0  0  0  0  0  0  0  0  0  0
   13.0220  -10.4980   -2.8110 N   0  0  0  0  0  0  0  0  0  0  0  0
   12.3340  -10.9550   -1.7440 C   0  0  0  0  0  0  0  0  0  0  0  0
   11.8060  -12.2340   -1.6560 C   0  0  0  0  0  0  0  0  0  0  0  0
    8.6650  -13.9050   -3.0900 N   0  0  0  0  0  0  0  0  0  0  0  0
    5.4850  -13.6370   -1.5440 C   0  0  0  0  0  0  0  0  0  0  0  0
    1.5930  -14.0190    0.9760 N   0  0  0  0  0  0  0  0  0  0  0  0
    0.1900  -13.9950    1.1230 C   0  0  0  0  0  0  0  0  0  0  0  0
   -0.3100  -13.8830    2.4270 C   0  0  0  0  0  0  0  0  0  0  0  0
   -1.6870  -13.8560    2.6590 C   0  0  0  0  0  0  0  0  0  0  0  0
   -2.5670  -13.9460    1.5880 C   0  0  0  0  0  0  0  0  0  0  0  0
   -3.8840  -13.9190    1.8320 F   0  0  0  0  0  0  0  0  0  0  0  0
   -2.1000  -14.0640    0.2830 C   0  0  0  0  0  0  0  0  0  0  0  0
   -3.0900  -14.1610   -0.8380 C   0  0  0  0  0  0  0  0  0  0  0  0
   -3.6190  -12.9570   -1.1990 F   0  0  0  0  0  0  0  0  0  0  0  0
   -4.1560  -14.9520   -0.5360 F   0  0  0  0  0  0  0  0  0  0  0  0
   -2.5470  -14.6740   -1.9780 F   0  0  0  0  0  0  0  0  0  0  0  0
   -0.7120  -14.0890    0.0580 C   0  0  0  0  0  0  0  0  0  0  0  0
    3.8870  -14.5200    0.6750 H   0  0  0  0  0  0  0  0  0  0  0  0
    4.6976  -11.3617    0.8690 H   0  0  0  0  0  0  0  0  0  0  0  0
    6.6369  -10.1907   -0.1658 H   0  0  0  0  0  0  0  0  0  0  0  0
    7.8444  -11.2288   -2.0792 H   0  0  0  0  0  0  0  0  0  0  0  0
    5.6061  -13.5760   -4.5492 H   0  0  0  0  0  0  0  0  0  0  0  0
    6.0305  -14.6312   -7.2270 H   0  0  0  0  0  0  0  0  0  0  0  0
    8.2363  -15.6304   -8.3509 H   0  0  0  0  0  0  0  0  0  0  0  0
   11.1630  -15.1520   -4.7000 H   0  0  0  0  0  0  0  0  0  0  0  0
   10.7483  -14.6008   -1.8294 H   0  0  0  0  0  0  0  0  0  0  0  0
   12.2368  -15.2350   -2.6114 H   0  0  0  0  0  0  0  0  0  0  0  0
   12.8460  -13.3041   -4.7224 H   0  0  0  0  0  0  0  0  0  0  0  0
   13.7291  -11.0032   -4.7289 H   0  0  0  0  0  0  0  0  0  0  0  0
   12.1832  -10.2729   -0.8943 H   0  0  0  0  0  0  0  0  0  0  0  0
   11.2494  -12.5515   -0.7619 H   0  0  0  0  0  0  0  0  0  0  0  0
    5.1451  -14.6029   -1.9460 H   0  0  0  0  0  0  0  0  0  0  0  0
    2.0970  -14.5980    1.6300 H   0  0  0  0  0  0  0  0  0  0  0  0
    0.3875  -13.8158    3.2749 H   0  0  0  0  0  0  0  0  0  0  0  0
   -2.0728  -13.7639    3.6850 H   0  0  0  0  0  0  0  0  0  0  0  0
   -0.3305  -14.1838   -0.9694 H   0  0  0  0  0  0  0  0  0  0  0  0
  1  2  2  0
  2  3  1  0
  3  4  1  0
  4  5  2  0
  5  6  1  0
  6  7  2  0
  7  8  1  0
  8  9  1  0
  9 10  2  0
 10 11  1  0
 11 12  1  0
 12 13  2  0
 13 14  1  0
 14 15  2  0
 15 16  1  0
 16 17  1  0
 17 18  1  0
 18 19  1  0
 19 20  2  0
 20 21  1  0
 21 22  2  0
 22 23  1  0
 23 24  2  0
 16 25  2  0
  8 26  2  0
  2 27  1  0
 27 28  1  0
 28 29  2  0
 29 30  1  0
 30 31  2  0
 31 32  1  0
 31 33  1  0
 33 34  1  0
 34 35  1  0
 34 36  1  0
 34 37  1  0
 33 38  2  0
 26  4  1  0
 38 28  1  0
 25  9  1  0
 15 11  1  0
 24 19  1  0
  3 39  1  0
  5 40  1  0
  6 41  1  0
  7 42  1  0
 10 43  1  0
 12 44  1  0
 13 45  1  0
 17 46  1  0
 18 47  1  0
 18 48  1  0
 20 49  1  0
 21 50  1  0
 23 51  1  0
 24 52  1  0
 26 53  1  0
 27 54  1  0
 29 55  1  0
 30 56  1  0
 38 57  1  0
M  END
>  <meeko>  (6) 
{"is_sidechain": [false], "free_energy": -10.188, "intermolecular_energy": -13.907, "internal_energy": -0.966}

$$$$
LIB_ZNDXPRCORYDEAP__H_AF__e8__s20260927
     RDKit          3D

 57 61  0  0  0  0  0  0  0  0999 V2000
    1.0080  -12.9770   -1.9380 O   0  0  0  0  0  0  0  0  0  0  0  0
    1.3530  -13.8460   -1.1480 C   0  0  0  0  0  0  0  0  0  0  0  0
    2.6250  -14.3950   -1.0770 N   0  0  0  0  0  0  0  0  0  0  0  0
    3.7790  -13.9850   -1.7810 C   0  0  0  0  0  0  0  0  0  0  0  0
    3.7230  -12.7500   -2.4360 C   0  0  0  0  0  0  0  0  0  0  0  0
    4.8200  -12.2800   -3.1580 C   0  0  0  0  0  0  0  0  0  0  0  0
    5.9860  -13.0420   -3.2290 C   0  0  0  0  0  0  0  0  0  0  0  0
    6.0710  -14.2820   -2.5800 C   0  0  0  0  0  0  0  0  0  0  0  0
    7.3190  -15.0800   -2.6850 C   0  0  0  0  0  0  0  0  0  0  0  0
    7.3900  -16.2980   -2.1070 C   0  0  0  0  0  0  0  0  0  0  0  0
    8.5670  -17.0060   -2.2140 N   0  0  0  0  0  0  0  0  0  0  0  0
    8.9510  -18.2370   -1.7560 C   0  0  0  0  0  0  0  0  0  0  0  0
   10.2530  -18.3880   -2.1850 C   0  0  0  0  0  0  0  0  0  0  0  0
   10.6790  -17.2860   -2.8900 N   0  0  0  0  0  0  0  0  0  0  0  0
    9.6360  -16.4810   -2.8840 C   0  0  0  0  0  0  0  0  0  0  0  0
    9.5200  -15.1630   -3.4820 C   0  0  0  0  0  0  0  0  0  0  0  0
   10.5800  -14.6120   -4.1570 N   0  0  0  0  0  0  0  0  0  0  0  0
   10.5480  -13.3270   -4.7990 C   0  0  0  0  0  0  0  0  0  0  0  0
   11.4630  -12.3770   -4.0710 C   0  0  0  0  0  0  0  0  0  0  0  0
   11.1760  -11.9680   -2.7640 C   0  0  0  0  0  0  0  0  0  0  0  0
   12.0610  -11.1130   -2.1270 C   0  0  0  0  0  0  0  0  0  0  0  0
   13.1970  -10.6500   -2.6920 N   0  0  0  0  0  0  0  0  0  0  0  0
   13.4640  -11.0690   -3.9470 C   0  0  0  0  0  0  0  0  0  0  0  0
   12.6430  -11.9220   -4.6670 C   0  0  0  0  0  0  0  0  0  0  0  0
    8.3890  -14.5040   -3.3660 N   0  0  0  0  0  0  0  0  0  0  0  0
    4.9480  -14.7480   -1.8710 C   0  0  0  0  0  0  0  0  0  0  0  0
    0.5230  -14.4260   -0.1990 N   0  0  0  0  0  0  0  0  0  0  0  0
   -0.8600  -14.2160   -0.0190 C   0  0  0  0  0  0  0  0  0  0  0  0
   -1.6890  -14.4530   -1.1240 C   0  0  0  0  0  0  0  0  0  0  0  0
   -3.0700  -14.2640   -1.0290 C   0  0  0  0  0  0  0  0  0  0  0  0
   -3.6240  -13.8340    0.1700 C   0  0  0  0  0  0  0  0  0  0  0  0
   -4.9500  -13.6590    0.2400 F   0  0  0  0  0  0  0  0  0  0  0  0
   -2.8270  -13.5850    1.2820 C   0  0  0  0  0  0  0  0  0  0  0  0
   -3.4730  -13.1190    2.5520 C   0  0  0  0  0  0  0  0  0  0  0  0
   -2.5880  -12.9260    3.5710 F   0  0  0  0  0  0  0  0  0  0  0  0
   -4.3950  -13.9990    3.0300 F   0  0  0  0  0  0  0  0  0  0  0  0
   -4.1230  -11.9300    2.4080 F   0  0  0  0  0  0  0  0  0  0  0  0
   -1.4370  -13.7780    1.1780 C   0  0  0  0  0  0  0  0  0  0  0  0
    2.7260  -15.2290   -0.5210 H   0  0  0  0  0  0  0  0  0  0  0  0
    2.8062  -12.1446   -2.3811 H   0  0  0  0  0  0  0  0  0  0  0  0
    4.7655  -11.3086   -3.6713 H   0  0  0  0  0  0  0  0  0  0  0  0
    6.8478  -12.6663   -3.8000 H   0  0  0  0  0  0  0  0  0  0  0  0
    6.5291  -16.7149   -1.5639 H   0  0  0  0  0  0  0  0  0  0  0  0
    8.3514  -18.9511   -1.1724 H   0  0  0  0  0  0  0  0  0  0  0  0
   10.8718  -19.2760   -1.9886 H   0  0  0  0  0  0  0  0  0  0  0  0
   11.4250  -15.1710   -4.2170 H   0  0  0  0  0  0  0  0  0  0  0  0
   10.8818  -13.4302   -5.8420 H   0  0  0  0  0  0  0  0  0  0  0  0
    9.5210  -12.9334   -4.7790 H   0  0  0  0  0  0  0  0  0  0  0  0
   10.2669  -12.3179   -2.2529 H   0  0  0  0  0  0  0  0  0  0  0  0
   11.8246  -10.7927   -1.1016 H   0  0  0  0  0  0  0  0  0  0  0  0
   14.3876  -10.7124   -4.4264 H   0  0  0  0  0  0  0  0  0  0  0  0
   12.9140  -12.2346   -5.6862 H   0  0  0  0  0  0  0  0  0  0  0  0
    4.9904  -15.7306   -1.3784 H   0  0  0  0  0  0  0  0  0  0  0  0
    0.9730  -15.0180    0.4820 H   0  0  0  0  0  0  0  0  0  0  0  0
   -1.2487  -14.7906   -2.0738 H   0  0  0  0  0  0  0  0  0  0  0  0
   -3.7153  -14.4547   -1.8992 H   0  0  0  0  0  0  0  0  0  0  0  0
   -0.7953  -13.5818    2.0497 H   0  0  0  0  0  0  0  0  0  0  0  0
  1  2  2  0
  2  3  1  0
  3  4  1  0
  4  5  2  0
  5  6  1  0
  6  7  2  0
  7  8  1  0
  8  9  1  0
  9 10  2  0
 10 11  1  0
 11 12  1  0
 12 13  2  0
 13 14  1  0
 14 15  2  0
 15 16  1  0
 16 17  1  0
 17 18  1  0
 18 19  1  0
 19 20  2  0
 20 21  1  0
 21 22  2  0
 22 23  1  0
 23 24  2  0
 16 25  2  0
  8 26  2  0
  2 27  1  0
 27 28  1  0
 28 29  2  0
 29 30  1  0
 30 31  2  0
 31 32  1  0
 31 33  1  0
 33 34  1  0
 34 35  1  0
 34 36  1  0
 34 37  1  0
 33 38  2  0
 26  4  1  0
 38 28  1  0
 25  9  1  0
 15 11  1  0
 24 19  1  0
  3 39  1  0
  5 40  1  0
  6 41  1  0
  7 42  1  0
 10 43  1  0
 12 44  1  0
 13 45  1  0
 17 46  1  0
 18 47  1  0
 18 48  1  0
 20 49  1  0
 21 50  1  0
 23 51  1  0
 24 52  1  0
 26 53  1  0
 27 54  1  0
 29 55  1  0
 30 56  1  0
 38 57  1  0
M  END
>  <meeko>  (7) 
{"is_sidechain": [false], "free_energy": -10.079, "intermolecular_energy": -14.257, "internal_energy": -0.468}

$$$$
LIB_ZNDXPRCORYDEAP__H_AF__e8__s20260927
     RDKit          3D

 57 61  0  0  0  0  0  0  0  0999 V2000
    1.0030  -12.0760   -0.7020 O   0  0  0  0  0  0  0  0  0  0  0  0
    0.6510  -13.0360   -1.3740 C   0  0  0  0  0  0  0  0  0  0  0  0
    1.2650  -13.4530   -2.5460 N   0  0  0  0  0  0  0  0  0  0  0  0
    2.4610  -12.9600   -3.1130 C   0  0  0  0  0  0  0  0  0  0  0  0
    2.3490  -12.2200   -4.2950 C   0  0  0  0  0  0  0  0  0  0  0  0
    3.4850  -11.7040   -4.9190 C   0  0  0  0  0  0  0  0  0  0  0  0
    4.7450  -11.9230   -4.3630 C   0  0  0  0  0  0  0  0  0  0  0  0
    4.8860  -12.6590   -3.1780 C   0  0  0  0  0  0  0  0  0  0  0  0
    6.2420  -12.8900   -2.6160 C   0  0  0  0  0  0  0  0  0  0  0  0
    6.8010  -11.9670   -1.8050 C   0  0  0  0  0  0  0  0  0  0  0  0
    8.0650  -12.2080   -1.3120 N   0  0  0  0  0  0  0  0  0  0  0  0
    8.8860  -11.4930   -0.4840 C   0  0  0  0  0  0  0  0  0  0  0  0
   10.0250  -12.2610   -0.3600 C   0  0  0  0  0  0  0  0  0  0  0  0
    9.9270  -13.4240   -1.0880 N   0  0  0  0  0  0  0  0  0  0  0  0
    8.7340  -13.3520   -1.6430 C   0  0  0  0  0  0  0  0  0  0  0  0
    8.1000  -14.3130   -2.5280 C   0  0  0  0  0  0  0  0  0  0  0  0
    8.7520  -15.4690   -2.8790 N   0  0  0  0  0  0  0  0  0  0  0  0
    8.1940  -16.4850   -3.7260 C   0  0  0  0  0  0  0  0  0  0  0  0
    8.7950  -17.8210   -3.3740 C   0  0  0  0  0  0  0  0  0  0  0  0
    9.2190  -18.0930   -2.0700 C   0  0  0  0  0  0  0  0  0  0  0  0
    9.7410  -19.3460   -1.7900 C   0  0  0  0  0  0  0  0  0  0  0  0
    9.8620  -20.3320   -2.7040 N   0  0  0  0  0  0  0  0  0  0  0  0
    9.4310  -20.0550   -3.9530 C   0  0  0  0  0  0  0  0  0  0  0  0
    8.8950  -18.8350   -4.3320 C   0  0  0  0  0  0  0  0  0  0  0  0
    6.8950  -14.0630   -2.9880 N   0  0  0  0  0  0  0  0  0  0  0  0
    3.7310  -13.1860   -2.5720 C   0  0  0  0  0  0  0  0  0  0  0  0
   -0.4260  -13.8590   -1.0730 N   0  0  0  0  0  0  0  0  0  0  0  0
   -1.3600  -13.7100   -0.0280 C   0  0  0  0  0  0  0  0  0  0  0  0
   -2.6860  -13.4380   -0.3940 C   0  0  0  0  0  0  0  0  0  0  0  0
   -3.6720  -13.2720    0.5820 C   0  0  0  0  0  0  0  0  0  0  0  0
   -3.3340  -13.3740    1.9250 C   0  0  0  0  0  0  0  0  0  0  0  0
   -4.2940  -13.2110    2.8450 F   0  0  0  0  0  0  0  0  0  0  0  0
   -2.0260  -13.6360    2.3190 C   0  0  0  0  0  0  0  0  0  0  0  0
   -1.7120  -13.7330    3.7820 C   0  0  0  0  0  0  0  0  0  0  0  0
   -0.4090  -14.0450    4.0360 F   0  0  0  0  0  0  0  0  0  0  0  0
   -2.4460  -14.6860    4.4190 F   0  0  0  0  0  0  0  0  0  0  0  0
   -1.9410  -12.5670    4.4490 F   0  0  0  0  0  0  0  0  0  0  0  0
   -1.0390  -13.8030    1.3310 C   0  0  0  0  0  0  0  0  0  0  0  0
    0.7650  -14.1300   -3.1010 H   0  0  0  0  0  0  0  0  0  0  0  0
    1.3569  -12.0436   -4.7360 H   0  0  0  0  0  0  0  0  0  0  0  0
    3.3869  -11.1248   -5.8490 H   0  0  0  0  0  0  0  0  0  0  0  0
    5.6375  -11.5141   -4.8592 H   0  0  0  0  0  0  0  0  0  0  0  0
    6.2607  -11.0450   -1.5441 H   0  0  0  0  0  0  0  0  0  0  0  0
    8.6822  -10.5175   -0.0182 H   0  0  0  0  0  0  0  0  0  0  0  0
   10.9001  -11.9794    0.2440 H   0  0  0  0  0  0  0  0  0  0  0  0
    9.6780  -15.6080   -2.4870 H   0  0  0  0  0  0  0  0  0  0  0  0
    7.1042  -16.5242   -3.5819 H   0  0  0  0  0  0  0  0  0  0  0  0
    8.4176  -16.2487   -4.7768 H   0  0  0  0  0  0  0  0  0  0  0  0
    9.1400  -17.3287   -1.2828 H   0  0  0  0  0  0  0  0  0  0  0  0
   10.0765  -19.5490   -0.7623 H   0  0  0  0  0  0  0  0  0  0  0  0
    9.5101  -20.8446   -4.7148 H   0  0  0  0  0  0  0  0  0  0  0  0
    8.5552  -18.6674   -5.3647 H   0  0  0  0  0  0  0  0  0  0  0  0
    3.8284  -13.7869   -1.6558 H   0  0  0  0  0  0  0  0  0  0  0  0
   -0.5110  -14.6980   -1.6270 H   0  0  0  0  0  0  0  0  0  0  0  0
   -2.9521  -13.3546   -1.4581 H   0  0  0  0  0  0  0  0  0  0  0  0
   -4.7109  -13.0616    0.2880 H   0  0  0  0  0  0  0  0  0  0  0  0
   -0.0009  -14.0095    1.6305 H   0  0  0  0  0  0  0  0  0  0  0  0
  1  2  2  0
  2  3  1  0
  3  4  1  0
  4  5  2  0
  5  6  1  0
  6  7  2  0
  7  8  1  0
  8  9  1  0
  9 10  2  0
 10 11  1  0
 11 12  1  0
 12 13  2  0
 13 14  1  0
 14 15  2  0
 15 16  1  0
 16 17  1  0
 17 18  1  0
 18 19  1  0
 19 20  2  0
 20 21  1  0
 21 22  2  0
 22 23  1  0
 23 24  2  0
 16 25  2  0
  8 26  2  0
  2 27  1  0
 27 28  1  0
 28 29  2  0
 29 30  1  0
 30 31  2  0
 31 32  1  0
 31 33  1  0
 33 34  1  0
 34 35  1  0
 34 36  1  0
 34 37  1  0
 33 38  2  0
 26  4  1  0
 38 28  1  0
 25  9  1  0
 15 11  1  0
 24 19  1  0
  3 39  1  0
  5 40  1  0
  6 41  1  0
  7 42  1  0
 10 43  1  0
 12 44  1  0
 13 45  1  0
 17 46  1  0
 18 47  1  0
 18 48  1  0
 20 49  1  0
 21 50  1  0
 23 51  1  0
 24 52  1  0
 26 53  1  0
 27 54  1  0
 29 55  1  0
 30 56  1  0
 38 57  1  0
M  END
>  <meeko>  (8) 
{"is_sidechain": [false], "free_energy": -10.049, "intermolecular_energy": -13.617, "internal_energy": -1.069}

$$$$
LIB_ZNDXPRCORYDEAP__H_AF__e8__s20260927
     RDKit          3D

 57 61  0  0  0  0  0  0  0  0999 V2000
    3.7210  -12.0860   -2.3620 O   0  0  0  0  0  0  0  0  0  0  0  0
    2.9400  -12.6950   -3.0820 C   0  0  0  0  0  0  0  0  0  0  0  0
    3.2600  -13.2490   -4.3120 N   0  0  0  0  0  0  0  0  0  0  0  0
    4.5380  -13.3420   -4.9070 C   0  0  0  0  0  0  0  0  0  0  0  0
    4.7430  -12.6340   -6.0960 C   0  0  0  0  0  0  0  0  0  0  0  0
    5.9760  -12.6810   -6.7460 C   0  0  0  0  0  0  0  0  0  0  0  0
    7.0180  -13.4380   -6.2100 C   0  0  0  0  0  0  0  0  0  0  0  0
    6.8410  -14.1550   -5.0190 C   0  0  0  0  0  0  0  0  0  0  0  0
    7.9630  -14.9660   -4.4790 C   0  0  0  0  0  0  0  0  0  0  0  0
    8.1400  -16.2360   -4.9020 C   0  0  0  0  0  0  0  0  0  0  0  0
    9.1830  -16.9630   -4.3720 N   0  0  0  0  0  0  0  0  0  0  0  0
    9.6240  -18.2400   -4.5880 C   0  0  0  0  0  0  0  0  0  0  0  0
   10.7130  -18.3880   -3.7560 C   0  0  0  0  0  0  0  0  0  0  0  0
   10.9520  -17.2420   -3.0350 N   0  0  0  0  0  0  0  0  0  0  0  0
   10.0110  -16.4120   -3.4360 C   0  0  0  0  0  0  0  0  0  0  0  0
    9.7780  -15.0460   -3.0010 C   0  0  0  0  0  0  0  0  0  0  0  0
   10.5930  -14.4690   -2.0590 N   0  0  0  0  0  0  0  0  0  0  0  0
   10.4520  -13.1200   -1.5880 C   0  0  0  0  0  0  0  0  0  0  0  0
   11.5300  -12.2580   -2.1940 C   0  0  0  0  0  0  0  0  0  0  0  0
   12.0040  -11.1270   -1.5220 C   0  0  0  0  0  0  0  0  0  0  0  0
   13.0140  -10.3820   -2.1090 C   0  0  0  0  0  0  0  0  0  0  0  0
   13.5790  -10.6840   -3.2970 N   0  0  0  0  0  0  0  0  0  0  0  0
   13.1190  -11.7890   -3.9220 C   0  0  0  0  0  0  0  0  0  0  0  0
   12.1130  -12.5990   -3.4180 C   0  0  0  0  0  0  0  0  0  0  0  0
    8.7760  -14.3710   -3.5180 N   0  0  0  0  0  0  0  0  0  0  0  0
    5.5850  -14.1100   -4.3870 C   0  0  0  0  0  0  0  0  0  0  0  0
    1.6040  -12.9230   -2.7820 N   0  0  0  0  0  0  0  0  0  0  0  0
    0.8710  -12.4370   -1.6800 C   0  0  0  0  0  0  0  0  0  0  0  0
    0.9390  -11.0600   -1.4280 C   0  0  0  0  0  0  0  0  0  0  0  0
    0.2460  -10.5000   -0.3520 C   0  0  0  0  0  0  0  0  0  0  0  0
   -0.5130  -11.3160    0.4770 C   0  0  0  0  0  0  0  0  0  0  0  0
   -1.1690  -10.7600    1.5030 F   0  0  0  0  0  0  0  0  0  0  0  0
   -0.5940  -12.6870    0.2560 C   0  0  0  0  0  0  0  0  0  0  0  0
   -1.4240  -13.5260    1.1810 C   0  0  0  0  0  0  0  0  0  0  0  0
   -2.7410  -13.1740    1.1970 F   0  0  0  0  0  0  0  0  0  0  0  0
   -1.0110  -13.4510    2.4760 F   0  0  0  0  0  0  0  0  0  0  0  0
   -1.4060  -14.8480    0.8530 F   0  0  0  0  0  0  0  0  0  0  0  0
    0.1060  -13.2430   -0.8300 C   0  0  0  0  0  0  0  0  0  0  0  0
    2.4890  -13.5500   -4.8860 H   0  0  0  0  0  0  0  0  0  0  0  0
    3.9246  -12.0350   -6.5219 H   0  0  0  0  0  0  0  0  0  0  0  0
    6.1268  -12.1214   -7.6809 H   0  0  0  0  0  0  0  0  0  0  0  0
    7.9881  -13.4724   -6.7273 H   0  0  0  0  0  0  0  0  0  0  0  0
    7.4678  -16.6792   -5.6515 H   0  0  0  0  0  0  0  0  0  0  0  0
    9.2012  -18.9866   -5.2763 H   0  0  0  0  0  0  0  0  0  0  0  0
   11.3142  -19.3059   -3.6788 H   0  0  0  0  0  0  0  0  0  0  0  0
   11.3520  -15.0390   -1.7000 H   0  0  0  0  0  0  0  0  0  0  0  0
    9.4652  -12.7315   -1.8800 H   0  0  0  0  0  0  0  0  0  0  0  0
   10.5442  -13.1040   -0.4920 H   0  0  0  0  0  0  0  0  0  0  0  0
   11.5840  -10.8350   -0.5482 H   0  0  0  0  0  0  0  0  0  0  0  0
   13.3770   -9.4914   -1.5751 H   0  0  0  0  0  0  0  0  0  0  0  0
   13.5689  -12.0626   -4.8878 H   0  0  0  0  0  0  0  0  0  0  0  0
   11.7807  -13.4909   -3.9694 H   0  0  0  0  0  0  0  0  0  0  0  0
    5.4232  -14.6898   -3.4663 H   0  0  0  0  0  0  0  0  0  0  0  0
    1.1160  -13.5630   -3.3900 H   0  0  0  0  0  0  0  0  0  0  0  0
    1.5431  -10.4148   -2.0829 H   0  0  0  0  0  0  0  0  0  0  0  0
    0.3012   -9.4179   -0.1622 H   0  0  0  0  0  0  0  0  0  0  0  0
    0.0512  -14.3262   -1.0135 H   0  0  0  0  0  0  0  0  0  0  0  0
  1  2  2  0
  2  3  1  0
  3  4  1  0
  4  5  2  0
  5  6  1  0
  6  7  2  0
  7  8  1  0
  8  9  1  0
  9 10  2  0
 10 11  1  0
 11 12  1  0
 12 13  2  0
 13 14  1  0
 14 15  2  0
 15 16  1  0
 16 17  1  0
 17 18  1  0
 18 19  1  0
 19 20  2  0
 20 21  1  0
 21 22  2  0
 22 23  1  0
 23 24  2  0
 16 25  2  0
  8 26  2  0
  2 27  1  0
 27 28  1  0
 28 29  2  0
 29 30  1  0
 30 31  2  0
 31 32  1  0
 31 33  1  0
 33 34  1  0
 34 35  1  0
 34 36  1  0
 34 37  1  0
 33 38  2  0
 26  4  1  0
 38 28  1  0
 25  9  1  0
 15 11  1  0
 24 19  1  0
  3 39  1  0
  5 40  1  0
  6 41  1  0
  7 42  1  0
 10 43  1  0
 12 44  1  0
 13 45  1  0
 17 46  1  0
 18 47  1  0
 18 48  1  0
 20 49  1  0
 21 50  1  0
 23 51  1  0
 24 52  1  0
 26 53  1  0
 27 54  1  0
 29 55  1  0
 30 56  1  0
 38 57  1  0
M  END
>  <meeko>  (9) 
{"is_sidechain": [false], "free_energy": -9.877, "intermolecular_energy": -13.559, "internal_energy": -0.892}

$$$$
