DES_YAZKHWIVYWHKHW
     RDKit          3D

 52 56  0  0  0  0  0  0  0  0999 V2000
    4.2126    0.0050   -2.9930 C   0  0  0  0  0  0  0  0  0  0  0  0
    2.8441   -0.2851   -2.4499 C   0  0  0  0  0  0  0  0  0  0  0  0
    1.8716   -0.8607   -3.2694 C   0  0  0  0  0  0  0  0  0  0  0  0
    0.6006   -1.1201   -2.7587 C   0  0  0  0  0  0  0  0  0  0  0  0
    0.3220   -0.7983   -1.4377 C   0  0  0  0  0  0  0  0  0  0  0  0
   -0.9618   -1.0906   -0.9630 N   0  0  0  0  0  0  0  0  0  0  0  0
   -1.4197   -0.8405    0.3098 C   0  0  0  0  0  0  0  0  0  0  0  0
   -0.8528   -0.2818    1.2370 O   0  0  0  0  0  0  0  0  0  0  0  0
   -2.8302   -1.3574    0.5261 C   0  0  0  0  0  0  0  0  0  0  0  0
   -3.9575   -0.4067    0.1291 C   0  0  0  0  0  0  0  0  0  0  0  0
   -4.6366   -0.5379   -1.1088 C   0  0  0  0  0  0  0  0  0  0  0  0
   -5.6721    0.3267   -1.4797 C   0  0  0  0  0  0  0  0  0  0  0  0
   -6.0168    1.3239   -0.5991 C   0  0  0  0  0  0  0  0  0  0  0  0
   -5.3714    1.4784    0.6035 C   0  0  0  0  0  0  0  0  0  0  0  0
   -4.3458    0.6402    0.9877 C   0  0  0  0  0  0  0  0  0  0  0  0
   -5.8649    2.5142    1.3326 O   0  0  0  0  0  0  0  0  0  0  0  0
   -6.9017    2.9634    0.4521 C   0  0  0  0  0  0  0  0  0  0  0  0
   -8.0884    2.8638    1.0991 F   0  0  0  0  0  0  0  0  0  0  0  0
   -6.6984    4.2728    0.1704 F   0  0  0  0  0  0  0  0  0  0  0  0
   -6.9989    2.2426   -0.7862 O   0  0  0  0  0  0  0  0  0  0  0  0
   -3.0583   -2.2212    1.7666 C   0  0  0  0  0  0  0  0  0  0  0  0
   -3.0688   -2.8637    0.4179 C   0  0  0  0  0  0  0  0  0  0  0  0
    1.2423   -0.2446   -0.6337 N   0  0  0  0  0  0  0  0  0  0  0  0
    2.4864   -0.0079   -1.1252 C   0  0  0  0  0  0  0  0  0  0  0  0
    3.4170    0.5543   -0.1386 C   0  0  0  0  0  0  0  0  0  0  0  0
    3.2962    1.8847    0.2892 C   0  0  0  0  0  0  0  0  0  0  0  0
    4.1787    2.4212    1.2300 C   0  0  0  0  0  0  0  0  0  0  0  0
    5.1836    1.6263    1.7788 C   0  0  0  0  0  0  0  0  0  0  0  0
    5.3029    0.2888    1.3877 C   0  0  0  0  0  0  0  0  0  0  0  0
    6.3159   -0.6184    1.9827 C   0  0  0  0  0  0  0  0  0  0  0  0
    6.7263   -0.3406    3.2582 N   0  0  0  0  0  0  0  0  0  0  0  0
    6.7218   -1.6106    1.3877 O   0  0  0  0  0  0  0  0  0  0  0  0
    4.4351   -0.2349    0.4204 C   0  0  0  0  0  0  0  0  0  0  0  0
    4.4964    1.0397   -2.7857 H   0  0  0  0  0  0  0  0  0  0  0  0
    4.9530   -0.6663   -2.5494 H   0  0  0  0  0  0  0  0  0  0  0  0
    4.2450   -0.1250   -4.0758 H   0  0  0  0  0  0  0  0  0  0  0  0
    2.0960   -1.1102   -4.3033 H   0  0  0  0  0  0  0  0  0  0  0  0
   -0.1467   -1.5722   -3.4006 H   0  0  0  0  0  0  0  0  0  0  0  0
   -1.5876   -1.5600   -1.5970 H   0  0  0  0  0  0  0  0  0  0  0  0
   -4.3598   -1.3386   -1.7896 H   0  0  0  0  0  0  0  0  0  0  0  0
   -6.1873    0.2085   -2.4253 H   0  0  0  0  0  0  0  0  0  0  0  0
   -3.8443    0.7829    1.9422 H   0  0  0  0  0  0  0  0  0  0  0  0
   -4.0000   -2.1339    2.2952 H   0  0  0  0  0  0  0  0  0  0  0  0
   -2.2133   -2.3963    2.4186 H   0  0  0  0  0  0  0  0  0  0  0  0
   -4.0220   -3.2273    0.0493 H   0  0  0  0  0  0  0  0  0  0  0  0
   -2.2319   -3.5081    0.1739 H   0  0  0  0  0  0  0  0  0  0  0  0
    2.4987    2.5066   -0.1119 H   0  0  0  0  0  0  0  0  0  0  0  0
    4.0735    3.4568    1.5389 H   0  0  0  0  0  0  0  0  0  0  0  0
    5.8691    2.0620    2.4989 H   0  0  0  0  0  0  0  0  0  0  0  0
    7.2345   -1.0856    3.7148 H   0  0  0  0  0  0  0  0  0  0  0  0
    6.1808    0.2597    3.8615 H   0  0  0  0  0  0  0  0  0  0  0  0
    4.5327   -1.2781    0.1215 H   0  0  0  0  0  0  0  0  0  0  0  0
  1  2  1  0
  2  3  2  0
  3  4  1  0
  4  5  2  0
  5  6  1  0
  6  7  1  0
  7  8  2  0
  7  9  1  0
  9 10  1  0
 10 11  2  0
 11 12  1  0
 12 13  2  0
 13 14  1  0
 14 15  2  0
 14 16  1  0
 16 17  1  0
 17 18  1  0
 17 19  1  0
 17 20  1  0
  9 21  1  0
 21 22  1  0
  5 23  1  0
 23 24  2  0
 24 25  1  0
 25 26  2  0
 26 27  1  0
 27 28  2  0
 28 29  1  0
 29 30  1  0
 30 31  1  0
 30 32  2  0
 29 33  2  0
 24  2  1  0
 33 25  1  0
 22  9  1  0
 15 10  1  0
 20 13  1  0
  1 34  1  0
  1 35  1  0
  1 36  1  0
  3 37  1  0
  4 38  1  0
  6 39  1  0
 11 40  1  0
 12 41  1  0
 15 42  1  0
 21 43  1  0
 21 44  1  0
 22 45  1  0
 22 46  1  0
 26 47  1  0
 27 48  1  0
 28 49  1  0
 31 50  1  0
 31 51  1  0
 33 52  1  0
M  END
>  <compound_id>
DES_YAZKHWIVYWHKHW

>  <parent_id>
LIB_CHEMBL2103870

>  <parent_name>
LUMACAFTOR

>  <parent_chembl_id>
CHEMBL2103870

>  <parent_source_url>
https://www.ebi.ac.uk/chembl/api/data/molecule/CHEMBL2103870.json

>  <parent_source_smiles>
Cc1ccc(NC(=O)C2(c3ccc4c(c3)OC(F)(F)O4)CC2)nc1-c1cccc(C(=O)O)c1

>  <parent_inchikey>
UFSKUSARDNFIRC-UHFFFAOYSA-N

>  <design_method>
acid_to_amide_template_v1

>  <variant>
primary_amide

>  <transformation_reason>
remove carboxylate charge while retaining carbonyl H-bonding

>  <route_hypothesis>
Parent benzoic acid -> activated acid -> coupling with NH3; conceptual route, not executed

>  <original_candidate_smiles>
Cc1ccc(NC(=O)C2(c3ccc4c(c3)OC(F)(F)O4)CC2)nc1-c1cccc(C(=O)N)c1

>  <standardized_isomeric_smiles>
Cc1ccc(NC(=O)C2(c3ccc4c(c3)OC(F)(F)O4)CC2)nc1-c1cccc(C(N)=O)c1

>  <inchikey>
YAZKHWIVYWHKHW-UHFFFAOYSA-N

>  <parent_ecfp4_tanimoto>
0.8571

>  <parent_median_vina_kcal_mol>
-9.34

>  <parent_worst_vina_kcal_mol>
-9.284

>  <parent_qc_context_count>
6

>  <docking_neighborhood_prior_kcal_mol>
-9.054

>  <mw>
451.429

>  <clogp>
4.148

>  <tpsa_A2>
103.54

>  <hbd>
2

>  <hba>
5

>  <rotatable_bonds>
5

>  <heavy_atoms>
33

>  <formal_charge>
0

>  <qed>
0.6067

>  <sa_score>
2.784

>  <pains_alerts>


>  <brenk_alerts>


>  <parent_pains_alerts>


>  <parent_brenk_alerts>


>  <constraint_status>
pass

>  <constraint_reasons>


>  <public_exact_structure_status>
not_yet_searched

>  <evidence_class>
newly_enumerated_structure; no TMC1 bioactivity measured

>  <fixed_list_order>
1

>  <conformer_seed>
20260930

>  <MMFF_energy_kcal_mol>
22.462

$$$$
DES_JMWNSKZCTCNWSL
     RDKit          3D

 55 59  0  0  0  0  0  0  0  0999 V2000
    8.0077   -1.2337   -2.5925 C   0  0  0  0  0  0  0  0  0  0  0  0
    6.7936   -1.5959   -1.9053 N   0  0  0  0  0  0  0  0  0  0  0  0
    6.2322   -0.7385   -0.9807 C   0  0  0  0  0  0  0  0  0  0  0  0
    6.7461    0.3193   -0.6355 O   0  0  0  0  0  0  0  0  0  0  0  0
    4.9117   -1.1419   -0.4255 C   0  0  0  0  0  0  0  0  0  0  0  0
    4.5472   -2.4857   -0.2877 C   0  0  0  0  0  0  0  0  0  0  0  0
    3.2986   -2.8147    0.2385 C   0  0  0  0  0  0  0  0  0  0  0  0
    2.4214   -1.8042    0.6398 C   0  0  0  0  0  0  0  0  0  0  0  0
    2.7771   -0.4483    0.5388 C   0  0  0  0  0  0  0  0  0  0  0  0
    1.8422    0.6014    0.9745 C   0  0  0  0  0  0  0  0  0  0  0  0
    0.6516    0.5780    0.3168 N   0  0  0  0  0  0  0  0  0  0  0  0
   -0.2741    1.5096    0.6221 C   0  0  0  0  0  0  0  0  0  0  0  0
   -1.4424    1.3854   -0.1251 N   0  0  0  0  0  0  0  0  0  0  0  0
   -2.5787    2.1476   -0.0622 C   0  0  0  0  0  0  0  0  0  0  0  0
   -2.8021    3.0969    0.6758 O   0  0  0  0  0  0  0  0  0  0  0  0
   -3.6436    1.6989   -1.0389 C   0  0  0  0  0  0  0  0  0  0  0  0
   -4.5694    0.5903   -0.5421 C   0  0  0  0  0  0  0  0  0  0  0  0
   -5.6466    0.8912    0.3319 C   0  0  0  0  0  0  0  0  0  0  0  0
   -6.5079   -0.0981    0.8194 C   0  0  0  0  0  0  0  0  0  0  0  0
   -6.2751   -1.3945    0.4245 C   0  0  0  0  0  0  0  0  0  0  0  0
   -5.2352   -1.7146   -0.4158 C   0  0  0  0  0  0  0  0  0  0  0  0
   -4.3732   -0.7552   -0.9081 C   0  0  0  0  0  0  0  0  0  0  0  0
   -5.1720   -3.0464   -0.6830 O   0  0  0  0  0  0  0  0  0  0  0  0
   -6.2913   -3.5072    0.0873 C   0  0  0  0  0  0  0  0  0  0  0  0
   -7.1572   -4.1353   -0.7461 F   0  0  0  0  0  0  0  0  0  0  0  0
   -5.8489   -4.4235    0.9835 F   0  0  0  0  0  0  0  0  0  0  0  0
   -7.0013   -2.4819    0.7948 O   0  0  0  0  0  0  0  0  0  0  0  0
   -4.2657    2.7763   -1.9274 C   0  0  0  0  0  0  0  0  0  0  0  0
   -3.3276    1.7823   -2.5317 C   0  0  0  0  0  0  0  0  0  0  0  0
   -0.0618    2.4843    1.5798 C   0  0  0  0  0  0  0  0  0  0  0  0
    1.1529    2.4962    2.2607 C   0  0  0  0  0  0  0  0  0  0  0  0
    2.1288    1.5362    1.9766 C   0  0  0  0  0  0  0  0  0  0  0  0
    3.4275    1.5603    2.7285 C   0  0  0  0  0  0  0  0  0  0  0  0
    4.0316   -0.1334   -0.0080 C   0  0  0  0  0  0  0  0  0  0  0  0
    7.7680   -0.4953   -3.3623 H   0  0  0  0  0  0  0  0  0  0  0  0
    8.7282   -0.8064   -1.8899 H   0  0  0  0  0  0  0  0  0  0  0  0
    8.4253   -2.1303   -3.0562 H   0  0  0  0  0  0  0  0  0  0  0  0
    6.2040   -2.2974   -2.3321 H   0  0  0  0  0  0  0  0  0  0  0  0
    5.2303   -3.2843   -0.5625 H   0  0  0  0  0  0  0  0  0  0  0  0
    3.0074   -3.8569    0.3451 H   0  0  0  0  0  0  0  0  0  0  0  0
    1.4473   -2.0749    1.0455 H   0  0  0  0  0  0  0  0  0  0  0  0
   -1.4053    0.6142   -0.7757 H   0  0  0  0  0  0  0  0  0  0  0  0
   -5.8042    1.9254    0.6401 H   0  0  0  0  0  0  0  0  0  0  0  0
   -7.3253    0.1507    1.4875 H   0  0  0  0  0  0  0  0  0  0  0  0
   -3.5604   -1.0432   -1.5672 H   0  0  0  0  0  0  0  0  0  0  0  0
   -5.3173    2.7017   -2.1807 H   0  0  0  0  0  0  0  0  0  0  0  0
   -3.9214    3.7981   -1.8038 H   0  0  0  0  0  0  0  0  0  0  0  0
   -3.7503    1.0459   -3.2060 H   0  0  0  0  0  0  0  0  0  0  0  0
   -2.3510    2.1418   -2.8388 H   0  0  0  0  0  0  0  0  0  0  0  0
   -0.8055    3.2348    1.8188 H   0  0  0  0  0  0  0  0  0  0  0  0
    1.3270    3.2574    3.0179 H   0  0  0  0  0  0  0  0  0  0  0  0
    3.3311    2.1254    3.6622 H   0  0  0  0  0  0  0  0  0  0  0  0
    3.7418    0.5490    3.0058 H   0  0  0  0  0  0  0  0  0  0  0  0
    4.2076    2.0345    2.1256 H   0  0  0  0  0  0  0  0  0  0  0  0
    4.3266    0.9088   -0.1241 H   0  0  0  0  0  0  0  0  0  0  0  0
  1  2  1  0
  2  3  1  0
  3  4  2  0
  3  5  1  0
  5  6  2  0
  6  7  1  0
  7  8  2  0
  8  9  1  0
  9 10  1  0
 10 11  2  0
 11 12  1  0
 12 13  1  0
 13 14  1  0
 14 15  2  0
 14 16  1  0
 16 17  1  0
 17 18  2  0
 18 19  1  0
 19 20  2  0
 20 21  1  0
 21 22  2  0
 21 23  1  0
 23 24  1  0
 24 25  1  0
 24 26  1  0
 24 27  1  0
 16 28  1  0
 28 29  1  0
 12 30  2  0
 30 31  1  0
 31 32  2  0
 32 33  1  0
  9 34  2  0
 34  5  1  0
 32 10  1  0
 29 16  1  0
 22 17  1  0
 27 20  1  0
  1 35  1  0
  1 36  1  0
  1 37  1  0
  2 38  1  0
  6 39  1  0
  7 40  1  0
  8 41  1  0
 13 42  1  0
 18 43  1  0
 19 44  1  0
 22 45  1  0
 28 46  1  0
 28 47  1  0
 29 48  1  0
 29 49  1  0
 30 50  1  0
 31 51  1  0
 33 52  1  0
 33 53  1  0
 33 54  1  0
 34 55  1  0
M  END
>  <compound_id>
DES_JMWNSKZCTCNWSL

>  <parent_id>
LIB_CHEMBL2103870

>  <parent_name>
LUMACAFTOR

>  <parent_chembl_id>
CHEMBL2103870

>  <parent_source_url>
https://www.ebi.ac.uk/chembl/api/data/molecule/CHEMBL2103870.json

>  <parent_source_smiles>
Cc1ccc(NC(=O)C2(c3ccc4c(c3)OC(F)(F)O4)CC2)nc1-c1cccc(C(=O)O)c1

>  <parent_inchikey>
UFSKUSARDNFIRC-UHFFFAOYSA-N

>  <design_method>
acid_to_amide_template_v1

>  <variant>
methylamide

>  <transformation_reason>
probe small neutral amide substituent

>  <route_hypothesis>
Parent benzoic acid -> activated acid -> coupling with methylamine; conceptual route, not executed

>  <original_candidate_smiles>
Cc1ccc(NC(=O)C2(c3ccc4c(c3)OC(F)(F)O4)CC2)nc1-c1cccc(C(=O)NC)c1

>  <standardized_isomeric_smiles>
CNC(=O)c1cccc(-c2nc(NC(=O)C3(c4ccc5c(c4)OC(F)(F)O5)CC3)ccc2C)c1

>  <inchikey>
JMWNSKZCTCNWSL-UHFFFAOYSA-N

>  <parent_ecfp4_tanimoto>
0.8438

>  <parent_median_vina_kcal_mol>
-9.34

>  <parent_worst_vina_kcal_mol>
-9.284

>  <parent_qc_context_count>
6

>  <docking_neighborhood_prior_kcal_mol>
-9.028

>  <mw>
465.456

>  <clogp>
4.408

>  <tpsa_A2>
89.55

>  <hbd>
2

>  <hba>
5

>  <rotatable_bonds>
5

>  <heavy_atoms>
34

>  <formal_charge>
0

>  <qed>
0.5828

>  <sa_score>
2.79

>  <pains_alerts>


>  <brenk_alerts>


>  <parent_pains_alerts>


>  <parent_brenk_alerts>


>  <constraint_status>
pass

>  <constraint_reasons>


>  <public_exact_structure_status>
not_yet_searched

>  <evidence_class>
newly_enumerated_structure; no TMC1 bioactivity measured

>  <fixed_list_order>
2

>  <conformer_seed>
20260931

>  <MMFF_energy_kcal_mol>
15.738

$$$$
DES_AFGHMHSPPSRMJL
     RDKit          3D

 59 63  0  0  0  0  0  0  0  0999 V2000
   -2.5058    2.3396    2.8298 C   0  0  0  0  0  0  0  0  0  0  0  0
   -1.2892    2.0800    1.9902 C   0  0  0  0  0  0  0  0  0  0  0  0
   -0.2470    3.0118    1.9855 C   0  0  0  0  0  0  0  0  0  0  0  0
    0.8937    2.7844    1.2200 C   0  0  0  0  0  0  0  0  0  0  0  0
    0.9666    1.6255    0.4690 C   0  0  0  0  0  0  0  0  0  0  0  0
    2.0500    1.2781   -0.3337 N   0  0  0  0  0  0  0  0  0  0  0  0
    3.2194    1.9642   -0.5294 C   0  0  0  0  0  0  0  0  0  0  0  0
    3.5541    3.0284   -0.0283 O   0  0  0  0  0  0  0  0  0  0  0  0
    4.1647    1.2593   -1.4774 C   0  0  0  0  0  0  0  0  0  0  0  0
    5.0890    0.2245   -0.8389 C   0  0  0  0  0  0  0  0  0  0  0  0
    4.7865   -1.1614   -0.8744 C   0  0  0  0  0  0  0  0  0  0  0  0
    5.6189   -2.1173   -0.2804 C   0  0  0  0  0  0  0  0  0  0  0  0
    6.7546   -1.6687    0.3531 C   0  0  0  0  0  0  0  0  0  0  0  0
    7.0683   -0.3317    0.4075 C   0  0  0  0  0  0  0  0  0  0  0  0
    6.2622    0.6273   -0.1705 C   0  0  0  0  0  0  0  0  0  0  0  0
    8.2263   -0.0950    1.0797 O   0  0  0  0  0  0  0  0  0  0  0  0
    8.5886   -1.4372    1.4307 C   0  0  0  0  0  0  0  0  0  0  0  0
    8.6925   -1.5183    2.7801 F   0  0  0  0  0  0  0  0  0  0  0  0
    9.8117   -1.7039    0.9096 F   0  0  0  0  0  0  0  0  0  0  0  0
    7.6735   -2.4472    0.9827 O   0  0  0  0  0  0  0  0  0  0  0  0
    3.7082    1.0481   -2.9205 C   0  0  0  0  0  0  0  0  0  0  0  0
    4.7386    2.0895   -2.6258 C   0  0  0  0  0  0  0  0  0  0  0  0
   -0.0264    0.7134    0.4430 N   0  0  0  0  0  0  0  0  0  0  0  0
   -1.1450    0.9464    1.1814 C   0  0  0  0  0  0  0  0  0  0  0  0
   -2.1657   -0.1062    1.0537 C   0  0  0  0  0  0  0  0  0  0  0  0
   -1.8650   -1.4343    1.4019 C   0  0  0  0  0  0  0  0  0  0  0  0
   -2.8233   -2.4452    1.2960 C   0  0  0  0  0  0  0  0  0  0  0  0
   -4.1011   -2.1479    0.8238 C   0  0  0  0  0  0  0  0  0  0  0  0
   -4.4148   -0.8384    0.4428 C   0  0  0  0  0  0  0  0  0  0  0  0
   -5.7639   -0.4694   -0.0667 C   0  0  0  0  0  0  0  0  0  0  0  0
   -6.1871    0.6703    0.0865 O   0  0  0  0  0  0  0  0  0  0  0  0
   -6.4605   -1.4627   -0.7267 N   0  0  0  0  0  0  0  0  0  0  0  0
   -7.7015   -1.1576   -1.4132 C   0  0  0  0  0  0  0  0  0  0  0  0
   -8.6220   -2.3713   -1.5114 C   0  0  0  0  0  0  0  0  0  0  0  0
   -9.8055   -2.0574   -2.2347 O   0  0  0  0  0  0  0  0  0  0  0  0
   -3.4518    0.1734    0.5641 C   0  0  0  0  0  0  0  0  0  0  0  0
   -2.8404    1.4268    3.3331 H   0  0  0  0  0  0  0  0  0  0  0  0
   -3.3171    2.7359    2.2117 H   0  0  0  0  0  0  0  0  0  0  0  0
   -2.2919    3.0710    3.6170 H   0  0  0  0  0  0  0  0  0  0  0  0
   -0.3109    3.9194    2.5818 H   0  0  0  0  0  0  0  0  0  0  0  0
    1.6912    3.5174    1.2349 H   0  0  0  0  0  0  0  0  0  0  0  0
    1.9151    0.3964   -0.8061 H   0  0  0  0  0  0  0  0  0  0  0  0
    3.8822   -1.5001   -1.3774 H   0  0  0  0  0  0  0  0  0  0  0  0
    5.3762   -3.1738   -0.3168 H   0  0  0  0  0  0  0  0  0  0  0  0
    6.5263    1.6796   -0.1042 H   0  0  0  0  0  0  0  0  0  0  0  0
    4.0347    0.1638   -3.4562 H   0  0  0  0  0  0  0  0  0  0  0  0
    2.7214    1.3926   -3.2114 H   0  0  0  0  0  0  0  0  0  0  0  0
    5.7569    1.9025   -2.9483 H   0  0  0  0  0  0  0  0  0  0  0  0
    4.4482    3.1331   -2.6928 H   0  0  0  0  0  0  0  0  0  0  0  0
   -0.8694   -1.6805    1.7693 H   0  0  0  0  0  0  0  0  0  0  0  0
   -2.5716   -3.4612    1.5906 H   0  0  0  0  0  0  0  0  0  0  0  0
   -4.8434   -2.9395    0.7814 H   0  0  0  0  0  0  0  0  0  0  0  0
   -5.9274   -2.2514   -1.0699 H   0  0  0  0  0  0  0  0  0  0  0  0
   -7.4470   -0.7919   -2.4146 H   0  0  0  0  0  0  0  0  0  0  0  0
   -8.2219   -0.3371   -0.9062 H   0  0  0  0  0  0  0  0  0  0  0  0
   -8.1184   -3.1937   -2.0301 H   0  0  0  0  0  0  0  0  0  0  0  0
   -8.9044   -2.7317   -0.5164 H   0  0  0  0  0  0  0  0  0  0  0  0
  -10.2729   -1.3590   -1.7432 H   0  0  0  0  0  0  0  0  0  0  0  0
   -3.7073    1.1881    0.2609 H   0  0  0  0  0  0  0  0  0  0  0  0
  1  2  1  0
  2  3  2  0
  3  4  1  0
  4  5  2  0
  5  6  1  0
  6  7  1  0
  7  8  2  0
  7  9  1  0
  9 10  1  0
 10 11  2  0
 11 12  1  0
 12 13  2  0
 13 14  1  0
 14 15  2  0
 14 16  1  0
 16 17  1  0
 17 18  1  0
 17 19  1  0
 17 20  1  0
  9 21  1  0
 21 22  1  0
  5 23  1  0
 23 24  2  0
 24 25  1  0
 25 26  2  0
 26 27  1  0
 27 28  2  0
 28 29  1  0
 29 30  1  0
 30 31  2  0
 30 32  1  0
 32 33  1  0
 33 34  1  0
 34 35  1  0
 29 36  2  0
 24  2  1  0
 36 25  1  0
 22  9  1  0
 15 10  1  0
 20 13  1  0
  1 37  1  0
  1 38  1  0
  1 39  1  0
  3 40  1  0
  4 41  1  0
  6 42  1  0
 11 43  1  0
 12 44  1  0
 15 45  1  0
 21 46  1  0
 21 47  1  0
 22 48  1  0
 22 49  1  0
 26 50  1  0
 27 51  1  0
 28 52  1  0
 32 53  1  0
 33 54  1  0
 33 55  1  0
 34 56  1  0
 34 57  1  0
 35 58  1  0
 36 59  1  0
M  END
>  <compound_id>
DES_AFGHMHSPPSRMJL

>  <parent_id>
LIB_CHEMBL2103870

>  <parent_name>
LUMACAFTOR

>  <parent_chembl_id>
CHEMBL2103870

>  <parent_source_url>
https://www.ebi.ac.uk/chembl/api/data/molecule/CHEMBL2103870.json

>  <parent_source_smiles>
Cc1ccc(NC(=O)C2(c3ccc4c(c3)OC(F)(F)O4)CC2)nc1-c1cccc(C(=O)O)c1

>  <parent_inchikey>
UFSKUSARDNFIRC-UHFFFAOYSA-N

>  <design_method>
acid_to_amide_template_v1

>  <variant>
hydroxyethylamide

>  <transformation_reason>
recover terminal polarity after acid neutralization

>  <route_hypothesis>
Parent benzoic acid -> activated acid -> coupling with ethanolamine; conceptual route, not executed

>  <original_candidate_smiles>
Cc1ccc(NC(=O)C2(c3ccc4c(c3)OC(F)(F)O4)CC2)nc1-c1cccc(C(=O)NCCO)c1

>  <standardized_isomeric_smiles>
Cc1ccc(NC(=O)C2(c3ccc4c(c3)OC(F)(F)O4)CC2)nc1-c1cccc(C(=O)NCCO)c1

>  <inchikey>
AFGHMHSPPSRMJL-UHFFFAOYSA-N

>  <parent_ecfp4_tanimoto>
0.7826

>  <parent_median_vina_kcal_mol>
-9.34

>  <parent_worst_vina_kcal_mol>
-9.284

>  <parent_qc_context_count>
6

>  <docking_neighborhood_prior_kcal_mol>
-8.905

>  <mw>
495.482

>  <clogp>
3.771

>  <tpsa_A2>
109.78

>  <hbd>
3

>  <hba>
6

>  <rotatable_bonds>
7

>  <heavy_atoms>
36

>  <formal_charge>
0

>  <qed>
0.4605

>  <sa_score>
2.833

>  <pains_alerts>


>  <brenk_alerts>


>  <parent_pains_alerts>


>  <parent_brenk_alerts>


>  <constraint_status>
pass

>  <constraint_reasons>


>  <public_exact_structure_status>
not_yet_searched

>  <evidence_class>
newly_enumerated_structure; no TMC1 bioactivity measured

>  <fixed_list_order>
3

>  <conformer_seed>
20260932

>  <MMFF_energy_kcal_mol>
34.917

$$$$
DES_TWTKMJWAXOPXSX
     RDKit          3D

 60 65  0  0  0  0  0  0  0  0999 V2000
   -6.5003   -4.1238   -0.4215 O   0  0  0  0  0  0  0  0  0  0  0  0
   -5.9920   -3.0402   -0.1608 C   0  0  0  0  0  0  0  0  0  0  0  0
   -6.7746   -1.9334    0.0518 N   0  0  0  0  0  0  0  0  0  0  0  0
   -6.2489   -0.7945    0.7736 C   0  0  0  0  0  0  0  0  0  0  0  0
   -4.8436   -0.3250    0.2732 C   0  0  0  0  0  0  0  0  0  0  0  0
   -4.3017    0.6787    1.3352 C   0  0  0  0  0  0  0  0  0  0  0  0
   -4.8312    2.0910    1.0989 C   0  0  0  0  0  0  0  0  0  0  0  0
   -4.3851    2.6466   -0.2537 C   0  0  0  0  0  0  0  0  0  0  0  0
   -4.1068    1.5690   -1.3015 C   0  0  0  0  0  0  0  0  0  0  0  0
   -5.0050    0.3480   -1.1231 C   0  0  0  0  0  0  0  0  0  0  0  0
   -4.0110   -1.5437    0.1408 N   0  0  0  0  0  0  0  0  0  0  0  0
   -4.5743   -2.7968   -0.0609 C   0  0  0  0  0  0  0  0  0  0  0  0
   -3.5361   -3.7046   -0.1694 C   0  0  0  0  0  0  0  0  0  0  0  0
   -2.3229   -2.9825   -0.1071 C   0  0  0  0  0  0  0  0  0  0  0  0
   -0.9710   -3.2825   -0.1924 C   0  0  0  0  0  0  0  0  0  0  0  0
   -0.0596   -2.2864   -0.1261 N   0  0  0  0  0  0  0  0  0  0  0  0
   -0.4753   -1.0126    0.0144 C   0  0  0  0  0  0  0  0  0  0  0  0
    0.4334    0.0300    0.0745 N   0  0  0  0  0  0  0  0  0  0  0  0
    1.8085    0.1356    0.0128 C   0  0  0  0  0  0  0  0  0  0  0  0
    2.6756   -0.9349   -0.1300 C   0  0  0  0  0  0  0  0  0  0  0  0
    4.0590   -0.7139   -0.1828 C   0  0  0  0  0  0  0  0  0  0  0  0
    4.5957    0.5699   -0.0918 C   0  0  0  0  0  0  0  0  0  0  0  0
    5.9544    0.8210   -0.1454 N   0  0  0  0  0  0  0  0  0  0  0  0
    6.9190   -0.1945   -0.5981 C   0  0  0  0  0  0  0  0  0  0  0  0
    8.2066    0.4757   -1.1308 C   0  0  0  0  0  0  0  0  0  0  0  0
    8.9065    1.3564   -0.1765 N   0  0  0  0  0  0  0  0  0  0  0  0
    7.9849    1.8795    0.8458 C   0  0  0  0  0  0  0  0  0  0  0  0
    6.5188    2.0706    0.3916 C   0  0  0  0  0  0  0  0  0  0  0  0
    3.6333    1.5719    0.0478 C   0  0  0  0  0  0  0  0  0  0  0  0
    2.2851    1.3933    0.1035 N   0  0  0  0  0  0  0  0  0  0  0  0
   -1.7615   -0.6356    0.1088 N   0  0  0  0  0  0  0  0  0  0  0  0
   -2.6427   -1.6446    0.0547 C   0  0  0  0  0  0  0  0  0  0  0  0
   -7.7612   -2.1546    0.1117 H   0  0  0  0  0  0  0  0  0  0  0  0
   -6.1962   -1.1069    1.8249 H   0  0  0  0  0  0  0  0  0  0  0  0
   -6.9925    0.0069    0.7082 H   0  0  0  0  0  0  0  0  0  0  0  0
   -3.2113    0.7409    1.3360 H   0  0  0  0  0  0  0  0  0  0  0  0
   -4.5675    0.3497    2.3476 H   0  0  0  0  0  0  0  0  0  0  0  0
   -5.9264    2.0891    1.1493 H   0  0  0  0  0  0  0  0  0  0  0  0
   -4.4899    2.7592    1.8982 H   0  0  0  0  0  0  0  0  0  0  0  0
   -3.4788    3.2508   -0.1249 H   0  0  0  0  0  0  0  0  0  0  0  0
   -5.1570    3.3328   -0.6226 H   0  0  0  0  0  0  0  0  0  0  0  0
   -4.2465    1.9926   -2.3030 H   0  0  0  0  0  0  0  0  0  0  0  0
   -3.0557    1.2666   -1.2442 H   0  0  0  0  0  0  0  0  0  0  0  0
   -6.0416    0.6800   -1.2676 H   0  0  0  0  0  0  0  0  0  0  0  0
   -4.8047   -0.3659   -1.9322 H   0  0  0  0  0  0  0  0  0  0  0  0
   -3.6573   -4.7702   -0.3219 H   0  0  0  0  0  0  0  0  0  0  0  0
   -0.5870   -4.2871   -0.3220 H   0  0  0  0  0  0  0  0  0  0  0  0
   -0.0191    0.9236    0.1753 H   0  0  0  0  0  0  0  0  0  0  0  0
    2.3098   -1.9522   -0.1989 H   0  0  0  0  0  0  0  0  0  0  0  0
    4.7002   -1.5847   -0.2758 H   0  0  0  0  0  0  0  0  0  0  0  0
    6.5018   -0.7909   -1.4183 H   0  0  0  0  0  0  0  0  0  0  0  0
    7.1602   -0.8716    0.2302 H   0  0  0  0  0  0  0  0  0  0  0  0
    8.9075   -0.2959   -1.4668 H   0  0  0  0  0  0  0  0  0  0  0  0
    7.9428    1.0718   -2.0144 H   0  0  0  0  0  0  0  0  0  0  0  0
    9.3154    2.1314   -0.6972 H   0  0  0  0  0  0  0  0  0  0  0  0
    8.3775    2.8311    1.2214 H   0  0  0  0  0  0  0  0  0  0  0  0
    8.0012    1.1841    1.6945 H   0  0  0  0  0  0  0  0  0  0  0  0
    5.9494    2.4142    1.2639 H   0  0  0  0  0  0  0  0  0  0  0  0
    6.4679    2.8503   -0.3779 H   0  0  0  0  0  0  0  0  0  0  0  0
    3.9215    2.6173    0.1040 H   0  0  0  0  0  0  0  0  0  0  0  0
  1  2  2  0
  2  3  1  0
  3  4  1  0
  4  5  1  0
  5  6  1  0
  6  7  1  0
  7  8  1  0
  8  9  1  0
  9 10  1  0
  5 11  1  0
 11 12  1  0
 12 13  2  0
 13 14  1  0
 14 15  2  0
 15 16  1  0
 16 17  2  0
 17 18  1  0
 18 19  1  0
 19 20  2  0
 20 21  1  0
 21 22  2  0
 22 23  1  0
 23 24  1  0
 24 25  1  0
 25 26  1  0
 26 27  1  0
 27 28  1  0
 22 29  1  0
 29 30  2  0
 17 31  1  0
 31 32  2  0
 12  2  1  0
 32 14  1  0
 10  5  1  0
 32 11  1  0
 30 19  1  0
 28 23  1  0
  3 33  1  0
  4 34  1  0
  4 35  1  0
  6 36  1  0
  6 37  1  0
  7 38  1  0
  7 39  1  0
  8 40  1  0
  8 41  1  0
  9 42  1  0
  9 43  1  0
 10 44  1  0
 10 45  1  0
 13 46  1  0
 15 47  1  0
 18 48  1  0
 20 49  1  0
 21 50  1  0
 24 51  1  0
 24 52  1  0
 25 53  1  0
 25 54  1  0
 26 55  1  0
 27 56  1  0
 27 57  1  0
 28 58  1  0
 28 59  1  0
 29 60  1  0
M  END
>  <compound_id>
DES_TWTKMJWAXOPXSX

>  <parent_id>
LIB_CHEMBL3894860

>  <parent_name>
TRILACICLIB

>  <parent_chembl_id>
CHEMBL3894860

>  <parent_source_url>
https://www.ebi.ac.uk/chembl/api/data/molecule/CHEMBL3894860.json

>  <parent_source_smiles>
CN1CCN(c2ccc(Nc3ncc4cc5n(c4n3)C3(CCCCC3)CNC5=O)nc2)CC1

>  <parent_inchikey>
PDGKHKMBHVFCMG-UHFFFAOYSA-N

>  <design_method>
piperazine_N_substitution_template_v1

>  <variant>
desmethyl

>  <transformation_reason>
compare terminal piperazine basicity and size

>  <route_hypothesis>
N-dealkylation or assemble from N-unsubstituted piperazine precursor; conceptual route, not executed

>  <original_candidate_smiles>
N1CCN(c2ccc(Nc3ncc4cc5n(c4n3)C3(CCCCC3)CNC5=O)nc2)CC1

>  <standardized_isomeric_smiles>
O=C1NCC2(CCCCC2)n2c1cc1cnc(Nc3ccc(N4CCNCC4)cn3)nc12

>  <inchikey>
TWTKMJWAXOPXSX-UHFFFAOYSA-N

>  <parent_ecfp4_tanimoto>
0.8281

>  <parent_median_vina_kcal_mol>
-8.764

>  <parent_worst_vina_kcal_mol>
-8.73

>  <parent_qc_context_count>
6

>  <docking_neighborhood_prior_kcal_mol>
-8.42

>  <mw>
432.532

>  <clogp>
2.382

>  <tpsa_A2>
100.0

>  <hbd>
3

>  <hba>
7

>  <rotatable_bonds>
3

>  <heavy_atoms>
32

>  <formal_charge>
0

>  <qed>
0.5843

>  <sa_score>
3.598

>  <pains_alerts>


>  <brenk_alerts>


>  <parent_pains_alerts>


>  <parent_brenk_alerts>


>  <constraint_status>
pass

>  <constraint_reasons>


>  <public_exact_structure_status>
not_yet_searched

>  <evidence_class>
newly_enumerated_structure; no TMC1 bioactivity measured

>  <fixed_list_order>
4

>  <conformer_seed>
20260933

>  <MMFF_energy_kcal_mol>
23.897

$$$$
DES_JWEMMDYMRYGOAJ
     RDKit          3D

 67 72  0  0  0  0  0  0  0  0999 V2000
   -7.7822    3.9635   -0.3806 O   0  0  0  0  0  0  0  0  0  0  0  0
   -7.2340    2.8696   -0.4414 C   0  0  0  0  0  0  0  0  0  0  0  0
   -7.9756    1.7189   -0.5425 N   0  0  0  0  0  0  0  0  0  0  0  0
   -7.3731    0.4862   -1.0072 C   0  0  0  0  0  0  0  0  0  0  0  0
   -6.0056    0.1593   -0.3293 C   0  0  0  0  0  0  0  0  0  0  0  0
   -6.2110   -0.2313    1.1597 C   0  0  0  0  0  0  0  0  0  0  0  0
   -6.7107   -1.6634    1.3294 C   0  0  0  0  0  0  0  0  0  0  0  0
   -5.7758   -2.6979    0.7040 C   0  0  0  0  0  0  0  0  0  0  0  0
   -4.7580   -2.1013   -0.2642 C   0  0  0  0  0  0  0  0  0  0  0  0
   -5.3779   -1.0147   -1.1422 C   0  0  0  0  0  0  0  0  0  0  0  0
   -5.2091    1.4085   -0.3764 N   0  0  0  0  0  0  0  0  0  0  0  0
   -5.8078    2.6593   -0.4120 C   0  0  0  0  0  0  0  0  0  0  0  0
   -4.7949    3.6020   -0.3956 C   0  0  0  0  0  0  0  0  0  0  0  0
   -3.5629    2.9119   -0.3222 C   0  0  0  0  0  0  0  0  0  0  0  0
   -2.2203    3.2552   -0.2595 C   0  0  0  0  0  0  0  0  0  0  0  0
   -1.2848    2.2822   -0.1776 N   0  0  0  0  0  0  0  0  0  0  0  0
   -1.6678    0.9902   -0.1516 C   0  0  0  0  0  0  0  0  0  0  0  0
   -0.7333   -0.0274   -0.0646 N   0  0  0  0  0  0  0  0  0  0  0  0
    0.6438   -0.0889    0.0101 C   0  0  0  0  0  0  0  0  0  0  0  0
    1.4829    1.0129    0.0132 C   0  0  0  0  0  0  0  0  0  0  0  0
    2.8714    0.8354    0.0897 C   0  0  0  0  0  0  0  0  0  0  0  0
    3.4410   -0.4356    0.1635 C   0  0  0  0  0  0  0  0  0  0  0  0
    4.8060   -0.6392    0.2357 N   0  0  0  0  0  0  0  0  0  0  0  0
    5.7367    0.4377    0.6055 C   0  0  0  0  0  0  0  0  0  0  0  0
    7.0354   -0.1282    1.2334 C   0  0  0  0  0  0  0  0  0  0  0  0
    7.7587   -1.1438    0.4370 N   0  0  0  0  0  0  0  0  0  0  0  0
    8.9662   -0.6213   -0.2155 C   0  0  0  0  0  0  0  0  0  0  0  0
   10.1330   -0.3887    0.7572 C   0  0  0  0  0  0  0  0  0  0  0  0
   11.2700    0.1117    0.0561 O   0  0  0  0  0  0  0  0  0  0  0  0
    6.8648   -1.7773   -0.5567 C   0  0  0  0  0  0  0  0  0  0  0  0
    5.4067   -1.9476   -0.0726 C   0  0  0  0  0  0  0  0  0  0  0  0
    2.5049   -1.4713    0.1561 C   0  0  0  0  0  0  0  0  0  0  0  0
    1.1526   -1.3351    0.0813 N   0  0  0  0  0  0  0  0  0  0  0  0
   -2.9432    0.5709   -0.2076 N   0  0  0  0  0  0  0  0  0  0  0  0
   -3.8466    1.5566   -0.2971 C   0  0  0  0  0  0  0  0  0  0  0  0
   -8.9606    1.8925   -0.7028 H   0  0  0  0  0  0  0  0  0  0  0  0
   -7.2386    0.6061   -2.0907 H   0  0  0  0  0  0  0  0  0  0  0  0
   -8.1049   -0.3133   -0.8540 H   0  0  0  0  0  0  0  0  0  0  0  0
   -6.9118    0.4563    1.6492 H   0  0  0  0  0  0  0  0  0  0  0  0
   -5.2666   -0.1292    1.7119 H   0  0  0  0  0  0  0  0  0  0  0  0
   -6.8381   -1.8862    2.3955 H   0  0  0  0  0  0  0  0  0  0  0  0
   -7.7070   -1.7618    0.8829 H   0  0  0  0  0  0  0  0  0  0  0  0
   -6.3809   -3.4515    0.1849 H   0  0  0  0  0  0  0  0  0  0  0  0
   -5.2378   -3.2355    1.4942 H   0  0  0  0  0  0  0  0  0  0  0  0
   -3.9164   -1.6989    0.3080 H   0  0  0  0  0  0  0  0  0  0  0  0
   -4.3466   -2.8977   -0.8952 H   0  0  0  0  0  0  0  0  0  0  0  0
   -6.1530   -1.5061   -1.7468 H   0  0  0  0  0  0  0  0  0  0  0  0
   -4.6391   -0.6513   -1.8660 H   0  0  0  0  0  0  0  0  0  0  0  0
   -4.9454    4.6748   -0.4167 H   0  0  0  0  0  0  0  0  0  0  0  0
   -1.8619    4.2774   -0.2681 H   0  0  0  0  0  0  0  0  0  0  0  0
   -1.1623   -0.9382   -0.0524 H   0  0  0  0  0  0  0  0  0  0  0  0
    1.0909    2.0209   -0.0479 H   0  0  0  0  0  0  0  0  0  0  0  0
    3.4907    1.7266    0.0670 H   0  0  0  0  0  0  0  0  0  0  0  0
    5.2847    1.1062    1.3481 H   0  0  0  0  0  0  0  0  0  0  0  0
    5.9813    1.0309   -0.2839 H   0  0  0  0  0  0  0  0  0  0  0  0
    6.7626   -0.6137    2.1798 H   0  0  0  0  0  0  0  0  0  0  0  0
    7.6837    0.7107    1.5104 H   0  0  0  0  0  0  0  0  0  0  0  0
    8.7490    0.3003   -0.7715 H   0  0  0  0  0  0  0  0  0  0  0  0
    9.3239   -1.3387   -0.9669 H   0  0  0  0  0  0  0  0  0  0  0  0
    9.8824    0.3290    1.5437 H   0  0  0  0  0  0  0  0  0  0  0  0
   10.4237   -1.3291    1.2367 H   0  0  0  0  0  0  0  0  0  0  0  0
   11.0378    0.9916   -0.2862 H   0  0  0  0  0  0  0  0  0  0  0  0
    7.2693   -2.7631   -0.8151 H   0  0  0  0  0  0  0  0  0  0  0  0
    6.8444   -1.1817   -1.4803 H   0  0  0  0  0  0  0  0  0  0  0  0
    5.3749   -2.5874    0.8177 H   0  0  0  0  0  0  0  0  0  0  0  0
    4.8540   -2.4510   -0.8750 H   0  0  0  0  0  0  0  0  0  0  0  0
    2.8188   -2.5080    0.2328 H   0  0  0  0  0  0  0  0  0  0  0  0
  1  2  2  0
  2  3  1  0
  3  4  1  0
  4  5  1  0
  5  6  1  0
  6  7  1  0
  7  8  1  0
  8  9  1  0
  9 10  1  0
  5 11  1  0
 11 12  1  0
 12 13  2  0
 13 14  1  0
 14 15  2  0
 15 16  1  0
 16 17  2  0
 17 18  1  0
 18 19  1  0
 19 20  2  0
 20 21  1  0
 21 22  2  0
 22 23  1  0
 23 24  1  0
 24 25  1  0
 25 26  1  0
 26 27  1  0
 27 28  1  0
 28 29  1  0
 26 30  1  0
 30 31  1  0
 22 32  1  0
 32 33  2  0
 17 34  1  0
 34 35  2  0
 12  2  1  0
 35 14  1  0
 10  5  1  0
 35 11  1  0
 33 19  1  0
 31 23  1  0
  3 36  1  0
  4 37  1  0
  4 38  1  0
  6 39  1  0
  6 40  1  0
  7 41  1  0
  7 42  1  0
  8 43  1  0
  8 44  1  0
  9 45  1  0
  9 46  1  0
 10 47  1  0
 10 48  1  0
 13 49  1  0
 15 50  1  0
 18 51  1  0
 20 52  1  0
 21 53  1  0
 24 54  1  0
 24 55  1  0
 25 56  1  0
 25 57  1  0
 27 58  1  0
 27 59  1  0
 28 60  1  0
 28 61  1  0
 29 62  1  0
 30 63  1  0
 30 64  1  0
 31 65  1  0
 31 66  1  0
 32 67  1  0
M  END
>  <compound_id>
DES_JWEMMDYMRYGOAJ

>  <parent_id>
LIB_CHEMBL3894860

>  <parent_name>
TRILACICLIB

>  <parent_chembl_id>
CHEMBL3894860

>  <parent_source_url>
https://www.ebi.ac.uk/chembl/api/data/molecule/CHEMBL3894860.json

>  <parent_source_smiles>
CN1CCN(c2ccc(Nc3ncc4cc5n(c4n3)C3(CCCCC3)CNC5=O)nc2)CC1

>  <parent_inchikey>
PDGKHKMBHVFCMG-UHFFFAOYSA-N

>  <design_method>
piperazine_N_substitution_template_v1

>  <variant>
hydroxyethyl

>  <transformation_reason>
increase terminal aqueous polarity with small H-bond donor

>  <route_hypothesis>
alkylate N-unsubstituted piperazine precursor with protected 2-hydroxyethyl electrophile; conceptual route, not executed

>  <original_candidate_smiles>
OCCN1CCN(c2ccc(Nc3ncc4cc5n(c4n3)C3(CCCCC3)CNC5=O)nc2)CC1

>  <standardized_isomeric_smiles>
O=C1NCC2(CCCCC2)n2c1cc1cnc(Nc3ccc(N4CCN(CCO)CC4)cn3)nc12

>  <inchikey>
JWEMMDYMRYGOAJ-UHFFFAOYSA-N

>  <parent_ecfp4_tanimoto>
0.8088

>  <parent_median_vina_kcal_mol>
-8.764

>  <parent_worst_vina_kcal_mol>
-8.73

>  <parent_qc_context_count>
6

>  <docking_neighborhood_prior_kcal_mol>
-8.382

>  <mw>
476.585

>  <clogp>
2.087

>  <tpsa_A2>
111.44

>  <hbd>
3

>  <hba>
8

>  <rotatable_bonds>
5

>  <heavy_atoms>
35

>  <formal_charge>
0

>  <qed>
0.5134

>  <sa_score>
3.561

>  <pains_alerts>


>  <brenk_alerts>


>  <parent_pains_alerts>


>  <parent_brenk_alerts>


>  <constraint_status>
pass

>  <constraint_reasons>


>  <public_exact_structure_status>
not_yet_searched

>  <evidence_class>
newly_enumerated_structure; no TMC1 bioactivity measured

>  <fixed_list_order>
5

>  <conformer_seed>
20260934

>  <MMFF_energy_kcal_mol>
46.826

$$$$
DES_FBGMOLGYPGIRPG
     RDKit          3D

 65 70  0  0  0  0  0  0  0  0999 V2000
   10.1840    0.4437    0.2741 C   0  0  0  0  0  0  0  0  0  0  0  0
    9.2552    1.5224   -0.2247 C   0  0  0  0  0  0  0  0  0  0  0  0
    9.7065    2.5851   -0.6500 O   0  0  0  0  0  0  0  0  0  0  0  0
    7.8988    1.2555   -0.1724 N   0  0  0  0  0  0  0  0  0  0  0  0
    7.3148    0.0182    0.3551 C   0  0  0  0  0  0  0  0  0  0  0  0
    5.8193    0.1438    0.7072 C   0  0  0  0  0  0  0  0  0  0  0  0
    5.0377    0.6618   -0.4280 N   0  0  0  0  0  0  0  0  0  0  0  0
    3.6955    0.3571   -0.5774 C   0  0  0  0  0  0  0  0  0  0  0  0
    3.0179    0.5322   -1.7850 C   0  0  0  0  0  0  0  0  0  0  0  0
    1.6641    0.1985   -1.9137 C   0  0  0  0  0  0  0  0  0  0  0  0
    0.9685   -0.3192   -0.8260 C   0  0  0  0  0  0  0  0  0  0  0  0
   -0.3845   -0.6447   -1.0063 N   0  0  0  0  0  0  0  0  0  0  0  0
   -1.2032   -1.3300   -0.1073 C   0  0  0  0  0  0  0  0  0  0  0  0
   -0.7302   -2.3954    0.5683 N   0  0  0  0  0  0  0  0  0  0  0  0
   -1.5502   -3.0752    1.3974 C   0  0  0  0  0  0  0  0  0  0  0  0
   -2.8728   -2.6777    1.5303 C   0  0  0  0  0  0  0  0  0  0  0  0
   -4.0109   -3.1312    2.2368 C   0  0  0  0  0  0  0  0  0  0  0  0
   -5.0722   -2.3085    1.9028 C   0  0  0  0  0  0  0  0  0  0  0  0
   -4.5821   -1.3249    1.0584 N   0  0  0  0  0  0  0  0  0  0  0  0
   -3.2580   -1.5745    0.7854 C   0  0  0  0  0  0  0  0  0  0  0  0
   -2.4734   -0.8855   -0.0586 N   0  0  0  0  0  0  0  0  0  0  0  0
   -5.4503   -0.2713    0.4847 C   0  0  0  0  0  0  0  0  0  0  0  0
   -4.7528    1.1149    0.4432 C   0  0  0  0  0  0  0  0  0  0  0  0
   -5.6262    2.2096   -0.1778 C   0  0  0  0  0  0  0  0  0  0  0  0
   -6.4147    1.7370   -1.4002 C   0  0  0  0  0  0  0  0  0  0  0  0
   -5.8813    0.4303   -1.9715 C   0  0  0  0  0  0  0  0  0  0  0  0
   -5.9042   -0.7025   -0.9403 C   0  0  0  0  0  0  0  0  0  0  0  0
   -6.6887   -0.1359    1.4287 C   0  0  0  0  0  0  0  0  0  0  0  0
   -7.2553   -1.4014    1.8469 N   0  0  0  0  0  0  0  0  0  0  0  0
   -6.4522   -2.4160    2.3019 C   0  0  0  0  0  0  0  0  0  0  0  0
   -6.9178   -3.3243    2.9799 O   0  0  0  0  0  0  0  0  0  0  0  0
    1.5830   -0.4893    0.3557 N   0  0  0  0  0  0  0  0  0  0  0  0
    2.8988   -0.1598    0.4474 C   0  0  0  0  0  0  0  0  0  0  0  0
    5.7182    1.5881   -1.3522 C   0  0  0  0  0  0  0  0  0  0  0  0
    6.9550    2.2394   -0.7074 C   0  0  0  0  0  0  0  0  0  0  0  0
    9.9552   -0.5130   -0.2028 H   0  0  0  0  0  0  0  0  0  0  0  0
   11.2148    0.7081    0.0187 H   0  0  0  0  0  0  0  0  0  0  0  0
   10.1069    0.3578    1.3612 H   0  0  0  0  0  0  0  0  0  0  0  0
    7.4476   -0.7453   -0.4215 H   0  0  0  0  0  0  0  0  0  0  0  0
    7.8738   -0.3052    1.2389 H   0  0  0  0  0  0  0  0  0  0  0  0
    5.4720   -0.8522    1.0066 H   0  0  0  0  0  0  0  0  0  0  0  0
    5.6958    0.8195    1.5624 H   0  0  0  0  0  0  0  0  0  0  0  0
    3.5327    0.9019   -2.6663 H   0  0  0  0  0  0  0  0  0  0  0  0
    1.1709    0.3225   -2.8723 H   0  0  0  0  0  0  0  0  0  0  0  0
   -0.9191    0.1389   -1.3505 H   0  0  0  0  0  0  0  0  0  0  0  0
   -1.1212   -3.9232    1.9165 H   0  0  0  0  0  0  0  0  0  0  0  0
   -4.0738   -3.9912    2.8928 H   0  0  0  0  0  0  0  0  0  0  0  0
   -3.8352    1.0698   -0.1521 H   0  0  0  0  0  0  0  0  0  0  0  0
   -4.4371    1.4232    1.4485 H   0  0  0  0  0  0  0  0  0  0  0  0
   -4.9812    3.0502   -0.4618 H   0  0  0  0  0  0  0  0  0  0  0  0
   -6.3235    2.6083    0.5688 H   0  0  0  0  0  0  0  0  0  0  0  0
   -7.4686    1.6051   -1.1250 H   0  0  0  0  0  0  0  0  0  0  0  0
   -6.3984    2.5167   -2.1707 H   0  0  0  0  0  0  0  0  0  0  0  0
   -4.8543    0.5800   -2.3281 H   0  0  0  0  0  0  0  0  0  0  0  0
   -6.4730    0.1369   -2.8464 H   0  0  0  0  0  0  0  0  0  0  0  0
   -5.2769   -1.5150   -1.3292 H   0  0  0  0  0  0  0  0  0  0  0  0
   -6.9194   -1.1178   -0.9018 H   0  0  0  0  0  0  0  0  0  0  0  0
   -7.4985    0.4348    0.9641 H   0  0  0  0  0  0  0  0  0  0  0  0
   -6.4055    0.3856    2.3525 H   0  0  0  0  0  0  0  0  0  0  0  0
   -8.1862   -1.4275    2.2457 H   0  0  0  0  0  0  0  0  0  0  0  0
    3.2989   -0.3230    1.4432 H   0  0  0  0  0  0  0  0  0  0  0  0
    5.0439    2.3948   -1.6629 H   0  0  0  0  0  0  0  0  0  0  0  0
    6.0243    1.0319   -2.2463 H   0  0  0  0  0  0  0  0  0  0  0  0
    7.4508    2.8882   -1.4372 H   0  0  0  0  0  0  0  0  0  0  0  0
    6.6476    2.8687    0.1369 H   0  0  0  0  0  0  0  0  0  0  0  0
  1  2  1  0
  2  3  2  0
  2  4  1  0
  4  5  1  0
  5  6  1  0
  6  7  1  0
  7  8  1  0
  8  9  2  0
  9 10  1  0
 10 11  2  0
 11 12  1  0
 12 13  1  0
 13 14  2  0
 14 15  1  0
 15 16  2  0
 16 17  1  0
 17 18  2  0
 18 19  1  0
 19 20  1  0
 20 21  2  0
 19 22  1  0
 22 23  1  0
 23 24  1  0
 24 25  1  0
 25 26  1  0
 26 27  1  0
 22 28  1  0
 28 29  1  0
 29 30  1  0
 30 31  2  0
 11 32  1  0
 32 33  2  0
  7 34  1  0
 34 35  1  0
 35  4  1  0
 33  8  1  0
 21 13  1  0
 27 22  1  0
 20 16  1  0
 30 18  1  0
  1 36  1  0
  1 37  1  0
  1 38  1  0
  5 39  1  0
  5 40  1  0
  6 41  1  0
  6 42  1  0
  9 43  1  0
 10 44  1  0
 12 45  1  0
 15 46  1  0
 17 47  1  0
 23 48  1  0
 23 49  1  0
 24 50  1  0
 24 51  1  0
 25 52  1  0
 25 53  1  0
 26 54  1  0
 26 55  1  0
 27 56  1  0
 27 57  1  0
 28 58  1  0
 28 59  1  0
 29 60  1  0
 33 61  1  0
 34 62  1  0
 34 63  1  0
 35 64  1  0
 35 65  1  0
M  END
>  <compound_id>
DES_FBGMOLGYPGIRPG

>  <parent_id>
LIB_CHEMBL3894860

>  <parent_name>
TRILACICLIB

>  <parent_chembl_id>
CHEMBL3894860

>  <parent_source_url>
https://www.ebi.ac.uk/chembl/api/data/molecule/CHEMBL3894860.json

>  <parent_source_smiles>
CN1CCN(c2ccc(Nc3ncc4cc5n(c4n3)C3(CCCCC3)CNC5=O)nc2)CC1

>  <parent_inchikey>
PDGKHKMBHVFCMG-UHFFFAOYSA-N

>  <design_method>
piperazine_N_substitution_template_v1

>  <variant>
acetyl

>  <transformation_reason>
neutralize distal piperazine nitrogen and add carbonyl acceptor

>  <route_hypothesis>
acylate N-unsubstituted piperazine precursor with acetyl reagent; conceptual route, not executed

>  <original_candidate_smiles>
CC(=O)N1CCN(c2ccc(Nc3ncc4cc5n(c4n3)C3(CCCCC3)CNC5=O)nc2)CC1

>  <standardized_isomeric_smiles>
CC(=O)N1CCN(c2ccc(Nc3ncc4cc5n(c4n3)C3(CCCCC3)CNC5=O)nc2)CC1

>  <inchikey>
FBGMOLGYPGIRPG-UHFFFAOYSA-N

>  <parent_ecfp4_tanimoto>
0.8209

>  <parent_median_vina_kcal_mol>
-8.764

>  <parent_worst_vina_kcal_mol>
-8.73

>  <parent_qc_context_count>
6

>  <docking_neighborhood_prior_kcal_mol>
-8.406

>  <mw>
474.569

>  <clogp>
2.641

>  <tpsa_A2>
108.28

>  <hbd>
2

>  <hba>
7

>  <rotatable_bonds>
3

>  <heavy_atoms>
35

>  <formal_charge>
0

>  <qed>
0.6008

>  <sa_score>
3.54

>  <pains_alerts>


>  <brenk_alerts>


>  <parent_pains_alerts>


>  <parent_brenk_alerts>


>  <constraint_status>
pass

>  <constraint_reasons>


>  <public_exact_structure_status>
not_yet_searched

>  <evidence_class>
newly_enumerated_structure; no TMC1 bioactivity measured

>  <fixed_list_order>
6

>  <conformer_seed>
20260935

>  <MMFF_energy_kcal_mol>
4.886

$$$$
DES_LYIDGSVTVBVLGU
     RDKit          3D

 66 71  0  0  0  0  0  0  0  0999 V2000
    9.9672   -1.3345    1.3551 C   0  0  0  0  0  0  0  0  0  0  0  0
    9.0502   -0.4165    0.5543 C   0  0  0  0  0  0  0  0  0  0  0  0
    7.7361   -0.2631    1.1853 N   0  0  0  0  0  0  0  0  0  0  0  0
    6.8800   -1.4637    1.0639 C   0  0  0  0  0  0  0  0  0  0  0  0
    5.7032   -1.3669    0.0607 C   0  0  0  0  0  0  0  0  0  0  0  0
    4.8573   -0.1969    0.3391 N   0  0  0  0  0  0  0  0  0  0  0  0
    3.5325   -0.1336   -0.0492 C   0  0  0  0  0  0  0  0  0  0  0  0
    2.9776   -1.0091   -0.9834 C   0  0  0  0  0  0  0  0  0  0  0  0
    1.6329   -0.9105   -1.3617 C   0  0  0  0  0  0  0  0  0  0  0  0
    0.8197    0.0690   -0.7990 C   0  0  0  0  0  0  0  0  0  0  0  0
   -0.5169    0.1313   -1.2213 N   0  0  0  0  0  0  0  0  0  0  0  0
   -1.4650    1.1008   -0.8903 C   0  0  0  0  0  0  0  0  0  0  0  0
   -1.1139    2.3948   -0.7674 N   0  0  0  0  0  0  0  0  0  0  0  0
   -2.0541    3.3146   -0.4637 C   0  0  0  0  0  0  0  0  0  0  0  0
   -3.3764    2.9203   -0.3197 C   0  0  0  0  0  0  0  0  0  0  0  0
   -4.6040    3.5490   -0.0068 C   0  0  0  0  0  0  0  0  0  0  0  0
   -5.5906    2.5788   -0.0127 C   0  0  0  0  0  0  0  0  0  0  0  0
   -4.9855    1.3772   -0.3506 N   0  0  0  0  0  0  0  0  0  0  0  0
   -3.6353    1.5720   -0.5067 C   0  0  0  0  0  0  0  0  0  0  0  0
   -2.7231    0.6307   -0.7906 N   0  0  0  0  0  0  0  0  0  0  0  0
   -5.7471    0.1071   -0.4150 C   0  0  0  0  0  0  0  0  0  0  0  0
   -5.6444   -0.5945    0.9666 C   0  0  0  0  0  0  0  0  0  0  0  0
   -6.0951   -2.0523    0.9237 C   0  0  0  0  0  0  0  0  0  0  0  0
   -5.3159   -2.8887   -0.0911 C   0  0  0  0  0  0  0  0  0  0  0  0
   -4.5039   -2.0567   -1.0792 C   0  0  0  0  0  0  0  0  0  0  0  0
   -5.2856   -0.8376   -1.5672 C   0  0  0  0  0  0  0  0  0  0  0  0
   -7.2260    0.4966   -0.7266 C   0  0  0  0  0  0  0  0  0  0  0  0
   -7.7314    1.5762    0.0957 N   0  0  0  0  0  0  0  0  0  0  0  0
   -6.9952    2.7199    0.2814 C   0  0  0  0  0  0  0  0  0  0  0  0
   -7.5313    3.7516    0.6684 O   0  0  0  0  0  0  0  0  0  0  0  0
    1.3156    0.9211    0.1116 N   0  0  0  0  0  0  0  0  0  0  0  0
    2.6265    0.8032    0.4540 C   0  0  0  0  0  0  0  0  0  0  0  0
    5.5260    0.9594    0.9604 C   0  0  0  0  0  0  0  0  0  0  0  0
    7.0451    0.9382    0.6703 C   0  0  0  0  0  0  0  0  0  0  0  0
   10.9623   -1.3565    0.9000 H   0  0  0  0  0  0  0  0  0  0  0  0
   10.0796   -0.9758    2.3839 H   0  0  0  0  0  0  0  0  0  0  0  0
    9.5986   -2.3637    1.3893 H   0  0  0  0  0  0  0  0  0  0  0  0
    9.5475    0.5606    0.5043 H   0  0  0  0  0  0  0  0  0  0  0  0
    8.9553   -0.7800   -0.4760 H   0  0  0  0  0  0  0  0  0  0  0  0
    6.4541   -1.6419    2.0600 H   0  0  0  0  0  0  0  0  0  0  0  0
    7.4621   -2.3611    0.8275 H   0  0  0  0  0  0  0  0  0  0  0  0
    6.0910   -1.3042   -0.9635 H   0  0  0  0  0  0  0  0  0  0  0  0
    5.1248   -2.2946    0.1507 H   0  0  0  0  0  0  0  0  0  0  0  0
    3.5830   -1.7713   -1.4637 H   0  0  0  0  0  0  0  0  0  0  0  0
    1.2367   -1.5900   -2.1089 H   0  0  0  0  0  0  0  0  0  0  0  0
   -0.9811   -0.7620   -1.1595 H   0  0  0  0  0  0  0  0  0  0  0  0
   -1.7132    4.3357   -0.3468 H   0  0  0  0  0  0  0  0  0  0  0  0
   -4.7641    4.5969    0.2169 H   0  0  0  0  0  0  0  0  0  0  0  0
   -6.2323   -0.0568    1.7207 H   0  0  0  0  0  0  0  0  0  0  0  0
   -4.6076   -0.5664    1.3294 H   0  0  0  0  0  0  0  0  0  0  0  0
   -7.1643   -2.1015    0.6849 H   0  0  0  0  0  0  0  0  0  0  0  0
   -5.9912   -2.4990    1.9199 H   0  0  0  0  0  0  0  0  0  0  0  0
   -6.0219   -3.5243   -0.6401 H   0  0  0  0  0  0  0  0  0  0  0  0
   -4.6399   -3.5732    0.4349 H   0  0  0  0  0  0  0  0  0  0  0  0
   -3.5688   -1.7477   -0.6021 H   0  0  0  0  0  0  0  0  0  0  0  0
   -4.2205   -2.6810   -1.9341 H   0  0  0  0  0  0  0  0  0  0  0  0
   -4.7017   -0.2965   -2.3206 H   0  0  0  0  0  0  0  0  0  0  0  0
   -6.1617   -1.2237   -2.1070 H   0  0  0  0  0  0  0  0  0  0  0  0
   -7.9054   -0.3529   -0.6044 H   0  0  0  0  0  0  0  0  0  0  0  0
   -7.3140    0.8418   -1.7658 H   0  0  0  0  0  0  0  0  0  0  0  0
   -8.7292    1.7301    0.1717 H   0  0  0  0  0  0  0  0  0  0  0  0
    2.9292    1.5269    1.2056 H   0  0  0  0  0  0  0  0  0  0  0  0
    5.3480    0.9472    2.0426 H   0  0  0  0  0  0  0  0  0  0  0  0
    5.1311    1.9012    0.5599 H   0  0  0  0  0  0  0  0  0  0  0  0
    7.5024    1.8277    1.1194 H   0  0  0  0  0  0  0  0  0  0  0  0
    7.1824    1.0163   -0.4175 H   0  0  0  0  0  0  0  0  0  0  0  0
  1  2  1  0
  2  3  1  0
  3  4  1  0
  4  5  1  0
  5  6  1  0
  6  7  1  0
  7  8  2  0
  8  9  1  0
  9 10  2  0
 10 11  1  0
 11 12  1  0
 12 13  2  0
 13 14  1  0
 14 15  2  0
 15 16  1  0
 16 17  2  0
 17 18  1  0
 18 19  1  0
 19 20  2  0
 18 21  1  0
 21 22  1  0
 22 23  1  0
 23 24  1  0
 24 25  1  0
 25 26  1  0
 21 27  1  0
 27 28  1  0
 28 29  1  0
 29 30  2  0
 10 31  1  0
 31 32  2  0
  6 33  1  0
 33 34  1  0
 34  3  1  0
 32  7  1  0
 20 12  1  0
 26 21  1  0
 19 15  1  0
 29 17  1  0
  1 35  1  0
  1 36  1  0
  1 37  1  0
  2 38  1  0
  2 39  1  0
  4 40  1  0
  4 41  1  0
  5 42  1  0
  5 43  1  0
  8 44  1  0
  9 45  1  0
 11 46  1  0
 14 47  1  0
 16 48  1  0
 22 49  1  0
 22 50  1  0
 23 51  1  0
 23 52  1  0
 24 53  1  0
 24 54  1  0
 25 55  1  0
 25 56  1  0
 26 57  1  0
 26 58  1  0
 27 59  1  0
 27 60  1  0
 28 61  1  0
 32 62  1  0
 33 63  1  0
 33 64  1  0
 34 65  1  0
 34 66  1  0
M  END
>  <compound_id>
DES_LYIDGSVTVBVLGU

>  <parent_id>
LIB_CHEMBL3894860

>  <parent_name>
TRILACICLIB

>  <parent_chembl_id>
CHEMBL3894860

>  <parent_source_url>
https://www.ebi.ac.uk/chembl/api/data/molecule/CHEMBL3894860.json

>  <parent_source_smiles>
CN1CCN(c2ccc(Nc3ncc4cc5n(c4n3)C3(CCCCC3)CNC5=O)nc2)CC1

>  <parent_inchikey>
PDGKHKMBHVFCMG-UHFFFAOYSA-N

>  <design_method>
piperazine_N_substitution_template_v1

>  <variant>
ethyl

>  <transformation_reason>
one-carbon homologation of N-methyl substituent

>  <route_hypothesis>
alkylate N-unsubstituted piperazine precursor with ethyl electrophile; conceptual route, not executed

>  <original_candidate_smiles>
CCN1CCN(c2ccc(Nc3ncc4cc5n(c4n3)C3(CCCCC3)CNC5=O)nc2)CC1

>  <standardized_isomeric_smiles>
CCN1CCN(c2ccc(Nc3ncc4cc5n(c4n3)C3(CCCCC3)CNC5=O)nc2)CC1

>  <inchikey>
LYIDGSVTVBVLGU-UHFFFAOYSA-N

>  <parent_ecfp4_tanimoto>
0.8333

>  <parent_median_vina_kcal_mol>
-8.764

>  <parent_worst_vina_kcal_mol>
-8.73

>  <parent_qc_context_count>
6

>  <docking_neighborhood_prior_kcal_mol>
-8.431

>  <mw>
460.586

>  <clogp>
3.115

>  <tpsa_A2>
91.21

>  <hbd>
2

>  <hba>
7

>  <rotatable_bonds>
4

>  <heavy_atoms>
34

>  <formal_charge>
0

>  <qed>
0.6181

>  <sa_score>
3.523

>  <pains_alerts>


>  <brenk_alerts>


>  <parent_pains_alerts>


>  <parent_brenk_alerts>


>  <constraint_status>
pass

>  <constraint_reasons>


>  <public_exact_structure_status>
not_yet_searched

>  <evidence_class>
newly_enumerated_structure; no TMC1 bioactivity measured

>  <fixed_list_order>
7

>  <conformer_seed>
20260936

>  <MMFF_energy_kcal_mol>
35.185

$$$$
