
     RDKit          3D

 57 61  0  0  0  0  0  0  0  0999 V2000
    3.4951   -0.1525    0.1436 O   0  0  0  0  0  0  0  0  0  0  0  0
    3.8323   -1.2182    0.6420 C   0  0  0  0  0  0  0  0  0  0  0  0
    3.0873   -2.3887    0.5921 N   0  0  0  0  0  0  0  0  0  0  0  0
    1.7778   -2.5542    0.0909 C   0  0  0  0  0  0  0  0  0  0  0  0
    1.2883   -3.8626    0.0034 C   0  0  0  0  0  0  0  0  0  0  0  0
    0.0017   -4.1081   -0.4759 C   0  0  0  0  0  0  0  0  0  0  0  0
   -0.8072   -3.0447   -0.8741 C   0  0  0  0  0  0  0  0  0  0  0  0
   -0.3425   -1.7242   -0.8006 C   0  0  0  0  0  0  0  0  0  0  0  0
   -1.2308   -0.6103   -1.2189 C   0  0  0  0  0  0  0  0  0  0  0  0
   -0.7167    0.4514   -1.8755 C   0  0  0  0  0  0  0  0  0  0  0  0
   -1.5732    1.4591   -2.2608 N   0  0  0  0  0  0  0  0  0  0  0  0
   -1.3704    2.6397   -2.9214 C   0  0  0  0  0  0  0  0  0  0  0  0
   -2.6200    3.2171   -3.0133 C   0  0  0  0  0  0  0  0  0  0  0  0
   -3.5810    2.4246   -2.4304 N   0  0  0  0  0  0  0  0  0  0  0  0
   -2.9101    1.3790   -1.9907 C   0  0  0  0  0  0  0  0  0  0  0  0
   -3.4227    0.2135   -1.2924 C   0  0  0  0  0  0  0  0  0  0  0  0
   -4.7605    0.1053   -1.0122 N   0  0  0  0  0  0  0  0  0  0  0  0
   -5.3805   -1.0503   -0.4118 C   0  0  0  0  0  0  0  0  0  0  0  0
   -6.7529   -0.6937    0.1221 C   0  0  0  0  0  0  0  0  0  0  0  0
   -6.8733   -0.0063    1.3299 C   0  0  0  0  0  0  0  0  0  0  0  0
   -8.1422    0.3411    1.7842 C   0  0  0  0  0  0  0  0  0  0  0  0
   -9.2536    0.0027    1.0225 C   0  0  0  0  0  0  0  0  0  0  0  0
   -9.0490   -0.6698   -0.1700 C   0  0  0  0  0  0  0  0  0  0  0  0
   -7.8306   -1.0206   -0.6371 N   0  0  0  0  0  0  0  0  0  0  0  0
   -2.5883   -0.7367   -0.9337 N   0  0  0  0  0  0  0  0  0  0  0  0
    0.9517   -1.4948   -0.2979 C   0  0  0  0  0  0  0  0  0  0  0  0
    5.0171   -1.4312    1.3332 N   0  0  0  0  0  0  0  0  0  0  0  0
    6.0846   -0.5274    1.5168 C   0  0  0  0  0  0  0  0  0  0  0  0
    7.1402   -0.9459    2.3368 C   0  0  0  0  0  0  0  0  0  0  0  0
    8.2366   -0.1139    2.5715 C   0  0  0  0  0  0  0  0  0  0  0  0
    8.2923    1.1472    1.9831 C   0  0  0  0  0  0  0  0  0  0  0  0
    7.2542    1.5830    1.1484 C   0  0  0  0  0  0  0  0  0  0  0  0
    7.2913    2.9516    0.5141 C   0  0  0  0  0  0  0  0  0  0  0  0
    8.5358    3.5095    0.5149 F   0  0  0  0  0  0  0  0  0  0  0  0
    6.4857    3.8438    1.1530 F   0  0  0  0  0  0  0  0  0  0  0  0
    6.8925    2.9470   -0.7879 F   0  0  0  0  0  0  0  0  0  0  0  0
    6.1515    0.7367    0.9264 C   0  0  0  0  0  0  0  0  0  0  0  0
    3.5584   -3.2339    0.8731 H   0  0  0  0  0  0  0  0  0  0  0  0
    1.8988   -4.7098    0.3035 H   0  0  0  0  0  0  0  0  0  0  0  0
   -0.3736   -5.1261   -0.5404 H   0  0  0  0  0  0  0  0  0  0  0  0
   -1.8101   -3.2486   -1.2453 H   0  0  0  0  0  0  0  0  0  0  0  0
    0.3284    0.5689   -2.1309 H   0  0  0  0  0  0  0  0  0  0  0  0
   -0.3940    2.9583   -3.2557 H   0  0  0  0  0  0  0  0  0  0  0  0
   -2.8776    4.1643   -3.4703 H   0  0  0  0  0  0  0  0  0  0  0  0
   -5.3707    0.8280   -1.3830 H   0  0  0  0  0  0  0  0  0  0  0  0
   -5.4737   -1.8481   -1.1574 H   0  0  0  0  0  0  0  0  0  0  0  0
   -4.7756   -1.4438    0.4140 H   0  0  0  0  0  0  0  0  0  0  0  0
   -5.9910    0.2621    1.9035 H   0  0  0  0  0  0  0  0  0  0  0  0
   -8.2606    0.8768    2.7217 H   0  0  0  0  0  0  0  0  0  0  0  0
  -10.2550    0.2613    1.3472 H   0  0  0  0  0  0  0  0  0  0  0  0
   -9.8853   -0.9517   -0.8034 H   0  0  0  0  0  0  0  0  0  0  0  0
    1.2922   -0.4699   -0.1924 H   0  0  0  0  0  0  0  0  0  0  0  0
    5.1009   -2.3134    1.8129 H   0  0  0  0  0  0  0  0  0  0  0  0
    7.1238   -1.9240    2.8109 H   0  0  0  0  0  0  0  0  0  0  0  0
    9.0462   -0.4495    3.2154 H   0  0  0  0  0  0  0  0  0  0  0  0
    9.1502    1.7900    2.1756 H   0  0  0  0  0  0  0  0  0  0  0  0
    5.3576    1.0968    0.2765 H   0  0  0  0  0  0  0  0  0  0  0  0
  1  2  2  0
  2  3  1  0
  3  4  1  0
  4  5  2  0
  5  6  1  0
  6  7  2  0
  7  8  1  0
  8  9  1  0
  9 10  2  0
 10 11  1  0
 11 12  1  0
 12 13  2  0
 13 14  1  0
 14 15  2  0
 15 16  1  0
 16 17  1  0
 17 18  1  0
 18 19  1  0
 19 20  2  0
 20 21  1  0
 21 22  2  0
 22 23  1  0
 23 24  2  0
 16 25  2  0
  8 26  2  0
  2 27  1  0
 27 28  1  0
 28 29  2  0
 29 30  1  0
 30 31  2  0
 31 32  1  0
 32 33  1  0
 33 34  1  0
 33 35  1  0
 33 36  1  0
 32 37  2  0
 26  4  1  0
 37 28  1  0
 25  9  1  0
 15 11  1  0
 24 19  1  0
  3 38  1  0
  5 39  1  0
  6 40  1  0
  7 41  1  0
 10 42  1  0
 12 43  1  0
 13 44  1  0
 17 45  1  0
 18 46  1  0
 18 47  1  0
 20 48  1  0
 21 49  1  0
 22 50  1  0
 23 51  1  0
 26 52  1  0
 27 53  1  0
 29 54  1  0
 30 55  1  0
 31 56  1  0
 37 57  1  0
M  END
$$$$
