
     RDKit          3D

 93 99  0  0  0  0  0  0  0  0999 V2000
  -11.3829    3.2502   -1.4618 C   0  0  0  0  0  0  0  0  0  0  0  0
  -12.3306    2.1145   -1.0964 C   0  0  0  0  0  0  0  0  0  0  0  0
  -11.7840    1.2235    0.0361 C   0  0  1  0  0  0  0  0  0  0  0  0
  -12.8551    0.2086    0.5097 C   0  0  2  0  0  0  0  0  0  0  0  0
  -12.3925   -0.6290    1.6967 C   0  0  0  0  0  0  0  0  0  0  0  0
  -13.2281   -0.6784   -0.5489 O   0  0  0  0  0  0  0  0  0  0  0  0
  -10.5623    0.5417   -0.3829 N   0  0  0  0  0  0  0  0  0  0  0  0
  -10.5306   -0.4072   -1.3738 N   0  0  0  0  0  0  0  0  0  0  0  0
   -9.2762   -0.7317   -1.4381 C   0  0  0  0  0  0  0  0  0  0  0  0
   -8.4487   -0.0937   -0.5792 N   0  0  0  0  0  0  0  0  0  0  0  0
   -7.0492   -0.2647   -0.4454 C   0  0  0  0  0  0  0  0  0  0  0  0
   -6.3023    0.4776    0.4734 C   0  0  0  0  0  0  0  0  0  0  0  0
   -4.9148    0.2995    0.6012 C   0  0  0  0  0  0  0  0  0  0  0  0
   -4.2084   -0.6259   -0.1742 C   0  0  0  0  0  0  0  0  0  0  0  0
   -2.8359   -0.7747   -0.0290 N   0  0  0  0  0  0  0  0  0  0  0  0
   -2.3048   -1.0138    1.3311 C   0  0  0  0  0  0  0  0  0  0  0  0
   -0.8133   -0.6271    1.4425 C   0  0  0  0  0  0  0  0  0  0  0  0
   -0.0083   -1.2406    0.3695 N   0  0  0  0  0  0  0  0  0  0  0  0
    1.3673   -1.3809    0.5134 C   0  0  0  0  0  0  0  0  0  0  0  0
    2.1157   -0.6285    1.4293 C   0  0  0  0  0  0  0  0  0  0  0  0
    3.5042   -0.7873    1.5635 C   0  0  0  0  0  0  0  0  0  0  0  0
    4.1816   -1.7165    0.7815 C   0  0  0  0  0  0  0  0  0  0  0  0
    5.5235   -1.9715    0.8071 O   0  0  0  0  0  0  0  0  0  0  0  0
    6.3147   -1.2021    1.7120 C   0  0  0  0  0  0  0  0  0  0  0  0
    7.7809   -1.6118    1.5349 C   0  0  2  0  0  0  0  0  0  0  0  0
    8.6942   -0.7376    2.3589 C   0  0  0  0  0  0  0  0  0  0  0  0
    8.9260    0.4276    1.5615 O   0  0  0  0  0  0  0  0  0  0  0  0
    8.8881    0.0703    0.1556 C   0  0  1  0  0  0  0  0  0  0  0  0
    7.9381    1.0385   -0.5940 C   0  0  0  0  0  0  0  0  0  0  0  0
    8.2968    2.4387   -0.4904 N   0  0  0  0  0  0  0  0  0  0  0  0
    9.1429    3.1469   -1.2878 C   0  0  0  0  0  0  0  0  0  0  0  0
    9.1405    4.4083   -0.9234 N   0  0  0  0  0  0  0  0  0  0  0  0
    8.2360    4.4277    0.0993 C   0  0  0  0  0  0  0  0  0  0  0  0
    7.6709    3.2520    0.3835 N   0  0  0  0  0  0  0  0  0  0  0  0
   10.3013    0.1177   -0.4294 C   0  0  0  0  0  0  0  0  0  0  0  0
   11.3777    0.6804    0.2795 C   0  0  0  0  0  0  0  0  0  0  0  0
   12.6561    0.7246   -0.2829 C   0  0  0  0  0  0  0  0  0  0  0  0
   12.8672    0.2118   -1.5571 C   0  0  0  0  0  0  0  0  0  0  0  0
   14.0940    0.2566   -2.0917 F   0  0  0  0  0  0  0  0  0  0  0  0
   11.8249   -0.3389   -2.2857 C   0  0  0  0  0  0  0  0  0  0  0  0
   10.5563   -0.3772   -1.7190 C   0  0  0  0  0  0  0  0  0  0  0  0
    9.5503   -0.8893   -2.4421 F   0  0  0  0  0  0  0  0  0  0  0  0
    8.3231   -1.3716    0.1327 C   0  0  0  0  0  0  0  0  0  0  0  0
    3.4567   -2.4833   -0.1266 C   0  0  0  0  0  0  0  0  0  0  0  0
    2.0723   -2.3177   -0.2551 C   0  0  0  0  0  0  0  0  0  0  0  0
   -0.5357   -0.9962   -0.9896 C   0  0  0  0  0  0  0  0  0  0  0  0
   -2.0272   -1.3826   -1.1031 C   0  0  0  0  0  0  0  0  0  0  0  0
   -4.9584   -1.3567   -1.1000 C   0  0  0  0  0  0  0  0  0  0  0  0
   -6.3478   -1.1862   -1.2330 C   0  0  0  0  0  0  0  0  0  0  0  0
   -9.2752    0.7583    0.1356 C   0  0  0  0  0  0  0  0  0  0  0  0
   -9.0074    1.5442    1.0319 O   0  0  0  0  0  0  0  0  0  0  0  0
  -10.4411    2.8706   -1.8695 H   0  0  0  0  0  0  0  0  0  0  0  0
  -11.1569    3.8692   -0.5878 H   0  0  0  0  0  0  0  0  0  0  0  0
  -11.8407    3.8915   -2.2218 H   0  0  0  0  0  0  0  0  0  0  0  0
  -13.2861    2.5524   -0.7829 H   0  0  0  0  0  0  0  0  0  0  0  0
  -12.5313    1.5197   -1.9956 H   0  0  0  0  0  0  0  0  0  0  0  0
  -11.5321    1.8687    0.8873 H   0  0  0  0  0  0  0  0  0  0  0  0
  -13.7603    0.7520    0.8039 H   0  0  0  0  0  0  0  0  0  0  0  0
  -13.2019   -1.2872    2.0312 H   0  0  0  0  0  0  0  0  0  0  0  0
  -11.5564   -1.2829    1.4271 H   0  0  0  0  0  0  0  0  0  0  0  0
  -12.0907    0.0040    2.5365 H   0  0  0  0  0  0  0  0  0  0  0  0
  -12.3930   -0.8789   -1.0253 H   0  0  0  0  0  0  0  0  0  0  0  0
   -8.8845   -1.4762   -2.1386 H   0  0  0  0  0  0  0  0  0  0  0  0
   -6.7597    1.2253    1.1150 H   0  0  0  0  0  0  0  0  0  0  0  0
   -4.3861    0.9339    1.3090 H   0  0  0  0  0  0  0  0  0  0  0  0
   -2.4221   -2.0796    1.5669 H   0  0  0  0  0  0  0  0  0  0  0  0
   -2.8512   -0.4534    2.0971 H   0  0  0  0  0  0  0  0  0  0  0  0
   -0.7164    0.4648    1.3898 H   0  0  0  0  0  0  0  0  0  0  0  0
   -0.4606   -0.9550    2.4280 H   0  0  0  0  0  0  0  0  0  0  0  0
    1.6355    0.1234    2.0493 H   0  0  0  0  0  0  0  0  0  0  0  0
    4.0155   -0.1626    2.2881 H   0  0  0  0  0  0  0  0  0  0  0  0
    6.0080   -1.4192    2.7431 H   0  0  0  0  0  0  0  0  0  0  0  0
    6.1834   -0.1320    1.5227 H   0  0  0  0  0  0  0  0  0  0  0  0
    7.8762   -2.6695    1.8066 H   0  0  0  0  0  0  0  0  0  0  0  0
    9.6598   -1.2254    2.5351 H   0  0  0  0  0  0  0  0  0  0  0  0
    8.2744   -0.4442    3.3253 H   0  0  0  0  0  0  0  0  0  0  0  0
    6.9174    0.9612   -0.2050 H   0  0  0  0  0  0  0  0  0  0  0  0
    7.8852    0.8036   -1.6639 H   0  0  0  0  0  0  0  0  0  0  0  0
    9.7184    2.7129   -2.0931 H   0  0  0  0  0  0  0  0  0  0  0  0
    7.9763    5.3252    0.6457 H   0  0  0  0  0  0  0  0  0  0  0  0
   11.2294    1.1000    1.2740 H   0  0  0  0  0  0  0  0  0  0  0  0
   13.4858    1.1613    0.2656 H   0  0  0  0  0  0  0  0  0  0  0  0
   11.9972   -0.7288   -3.2819 H   0  0  0  0  0  0  0  0  0  0  0  0
    7.5857   -1.5306   -0.6612 H   0  0  0  0  0  0  0  0  0  0  0  0
    9.1245   -2.1022   -0.0429 H   0  0  0  0  0  0  0  0  0  0  0  0
    3.9656   -3.2248   -0.7368 H   0  0  0  0  0  0  0  0  0  0  0  0
    1.5423   -2.9622   -0.9512 H   0  0  0  0  0  0  0  0  0  0  0  0
    0.0118   -1.5551   -1.7561 H   0  0  0  0  0  0  0  0  0  0  0  0
   -0.4179    0.0702   -1.2224 H   0  0  0  0  0  0  0  0  0  0  0  0
   -2.3785   -1.0512   -2.0879 H   0  0  0  0  0  0  0  0  0  0  0  0
   -2.1243   -2.4746   -1.0550 H   0  0  0  0  0  0  0  0  0  0  0  0
   -4.4811   -2.1019   -1.7307 H   0  0  0  0  0  0  0  0  0  0  0  0
   -6.8415   -1.8086   -1.9719 H   0  0  0  0  0  0  0  0  0  0  0  0
  1  2  1  0
  2  3  1  0
  3  4  1  0
  4  5  1  0
  4  6  1  0
  3  7  1  0
  7  8  1  0
  8  9  2  0
  9 10  1  0
 10 11  1  0
 11 12  2  0
 12 13  1  0
 13 14  2  0
 14 15  1  0
 15 16  1  0
 16 17  1  0
 17 18  1  0
 18 19  1  0
 19 20  2  0
 20 21  1  0
 21 22  2  0
 22 23  1  0
 23 24  1  0
 24 25  1  0
 25 26  1  0
 26 27  1  0
 27 28  1  0
 28 29  1  6
 29 30  1  0
 30 31  1  0
 31 32  2  0
 32 33  1  0
 33 34  2  0
 28 35  1  0
 35 36  2  0
 36 37  1  0
 37 38  2  0
 38 39  1  0
 38 40  1  0
 40 41  2  0
 41 42  1  0
 28 43  1  0
 22 44  1  0
 44 45  2  0
 18 46  1  0
 46 47  1  0
 14 48  1  0
 48 49  2  0
 10 50  1  0
 50 51  2  0
 50  7  1  0
 49 11  1  0
 47 15  1  0
 45 19  1  0
 43 25  1  0
 34 30  1  0
 41 35  1  0
  1 52  1  0
  1 53  1  0
  1 54  1  0
  2 55  1  0
  2 56  1  0
  3 57  1  1
  4 58  1  1
  5 59  1  0
  5 60  1  0
  5 61  1  0
  6 62  1  0
  9 63  1  0
 12 64  1  0
 13 65  1  0
 16 66  1  0
 16 67  1  0
 17 68  1  0
 17 69  1  0
 20 70  1  0
 21 71  1  0
 24 72  1  0
 24 73  1  0
 25 74  1  1
 26 75  1  0
 26 76  1  0
 29 77  1  0
 29 78  1  0
 31 79  1  0
 33 80  1  0
 36 81  1  0
 37 82  1  0
 40 83  1  0
 43 84  1  0
 43 85  1  0
 44 86  1  0
 45 87  1  0
 46 88  1  0
 46 89  1  0
 47 90  1  0
 47 91  1  0
 48 92  1  0
 49 93  1  0
M  END
$$$$
