REF_CHEMBL1397__M_PUB_ALL__e8__s20260927
     RDKit          3D

 93 99  0  0  0  0  0  0  0  0999 V2000
  -11.8560  -15.0490    8.0880 C   0  0  0  0  0  0  0  0  0  0  0  0
  -11.2310  -16.4370    8.1440 C   0  0  0  0  0  0  0  0  0  0  0  0
   -9.7240  -16.3990    8.4670 C   0  0  1  0  0  0  0  0  0  0  0  0
   -9.3410  -17.5270    9.4580 C   0  0  2  0  0  0  0  0  0  0  0  0
  -10.5300  -18.0320   10.2680 C   0  0  0  0  0  0  0  0  0  0  0  0
   -8.3290  -17.0880   10.3700 O   0  0  0  0  0  0  0  0  0  0  0  0
   -8.9280  -16.4780    7.2450 N   0  0  0  0  0  0  0  0  0  0  0  0
   -9.2230  -17.3280    6.2080 N   0  0  0  0  0  0  0  0  0  0  0  0
   -8.2970  -17.0690    5.3370 C   0  0  0  0  0  0  0  0  0  0  0  0
   -7.3960  -16.1230    5.6860 N   0  0  0  0  0  0  0  0  0  0  0  0
   -6.2950  -15.6600    4.9230 C   0  0  0  0  0  0  0  0  0  0  0  0
   -5.1180  -16.4030    4.8030 C   0  0  0  0  0  0  0  0  0  0  0  0
   -4.0330  -15.9380    4.0430 C   0  0  0  0  0  0  0  0  0  0  0  0
   -4.0700  -14.7140    3.3640 C   0  0  0  0  0  0  0  0  0  0  0  0
   -2.9790  -14.2780    2.6250 N   0  0  0  0  0  0  0  0  0  0  0  0
   -1.7110  -15.0300    2.7520 C   0  0  0  0  0  0  0  0  0  0  0  0
   -0.4920  -14.1730    2.3440 C   0  0  0  0  0  0  0  0  0  0  0  0
   -0.6840  -13.5420    1.0250 N   0  0  0  0  0  0  0  0  0  0  0  0
    0.4090  -13.0970    0.2900 C   0  0  0  0  0  0  0  0  0  0  0  0
    1.2260  -12.0380    0.7110 C   0  0  0  0  0  0  0  0  0  0  0  0
    2.3300  -11.6060   -0.0410 C   0  0  0  0  0  0  0  0  0  0  0  0
    2.6470  -12.2320   -1.2420 C   0  0  0  0  0  0  0  0  0  0  0  0
    3.6850  -11.9160   -2.0710 O   0  0  0  0  0  0  0  0  0  0  0  0
    4.7070  -12.8990   -2.2400 C   0  0  0  0  0  0  0  0  0  0  0  0
    6.0660  -12.1920   -2.1950 C   0  0  2  0  0  0  0  0  0  0  0  0
    7.0590  -12.8640   -3.1100 C   0  0  0  0  0  0  0  0  0  0  0  0
    7.6020  -13.9500   -2.3510 O   0  0  0  0  0  0  0  0  0  0  0  0
    7.6220  -13.5950   -0.9440 C   0  0  1  0  0  0  0  0  0  0  0  0
    6.9680  -14.7330   -0.1190 C   0  0  0  0  0  0  0  0  0  0  0  0
    6.1620  -14.2820    0.9990 N   0  0  0  0  0  0  0  0  0  0  0  0
    6.5750  -13.6270    2.1180 C   0  0  0  0  0  0  0  0  0  0  0  0
    5.5350  -13.3150    2.8560 N   0  0  0  0  0  0  0  0  0  0  0  0
    4.4870  -13.7810    2.1170 C   0  0  0  0  0  0  0  0  0  0  0  0
    4.8160  -14.3570    0.9580 N   0  0  0  0  0  0  0  0  0  0  0  0
    9.0620  -13.3430   -0.4930 C   0  0  0  0  0  0  0  0  0  0  0  0
    9.4140  -12.2130    0.2670 C   0  0  0  0  0  0  0  0  0  0  0  0
   10.7400  -11.9990    0.6530 C   0  0  0  0  0  0  0  0  0  0  0  0
   11.7220  -12.9080    0.2810 C   0  0  0  0  0  0  0  0  0  0  0  0
   12.9920  -12.6980    0.6540 F   0  0  0  0  0  0  0  0  0  0  0  0
   11.4100  -14.0260   -0.4770 C   0  0  0  0  0  0  0  0  0  0  0  0
   10.0890  -14.2300   -0.8590 C   0  0  0  0  0  0  0  0  0  0  0  0
    9.8020  -15.3000   -1.6130 F   0  0  0  0  0  0  0  0  0  0  0  0
    6.7740  -12.3020   -0.8530 C   0  0  0  0  0  0  0  0  0  0  0  0
    1.8570  -13.2940   -1.6740 C   0  0  0  0  0  0  0  0  0  0  0  0
    0.7570  -13.7190   -0.9170 C   0  0  0  0  0  0  0  0  0  0  0  0
   -1.9490  -12.7850    0.9020 C   0  0  0  0  0  0  0  0  0  0  0  0
   -3.1690  -13.6400    1.3080 C   0  0  0  0  0  0  0  0  0  0  0  0
   -5.2450  -13.9680    3.4980 C   0  0  0  0  0  0  0  0  0  0  0  0
   -6.3360  -14.4290    4.2560 C   0  0  0  0  0  0  0  0  0  0  0  0
   -7.7880  -15.7130    6.9490 C   0  0  0  0  0  0  0  0  0  0  0  0
   -7.2950  -14.8800    7.6940 O   0  0  0  0  0  0  0  0  0  0  0  0
  -12.0221  -14.6801    9.1109 H   0  0  0  0  0  0  0  0  0  0  0  0
  -11.1797  -14.3635    7.5563 H   0  0  0  0  0  0  0  0  0  0  0  0
  -12.8176  -15.1010    7.5563 H   0  0  0  0  0  0  0  0  0  0  0  0
  -11.7429  -17.0222    8.9221 H   0  0  0  0  0  0  0  0  0  0  0  0
  -11.3460  -16.8932    7.1497 H   0  0  0  0  0  0  0  0  0  0  0  0
   -9.5029  -15.4368    8.9521 H   0  0  0  0  0  0  0  0  0  0  0  0
   -8.9652  -18.3533    8.8367 H   0  0  0  0  0  0  0  0  0  0  0  0
  -10.3088  -17.9381   11.3414 H   0  0  0  0  0  0  0  0  0  0  0  0
  -11.4206  -17.4345   10.0235 H   0  0  0  0  0  0  0  0  0  0  0  0
  -10.7184  -19.0878   10.0235 H   0  0  0  0  0  0  0  0  0  0  0  0
   -8.8110  -16.8140   11.1800 H   0  0  0  0  0  0  0  0  0  0  0  0
   -8.2476  -17.5896    4.3692 H   0  0  0  0  0  0  0  0  0  0  0  0
   -5.0397  -17.3734    5.3151 H   0  0  0  0  0  0  0  0  0  0  0  0
   -3.1246  -16.5551    3.9789 H   0  0  0  0  0  0  0  0  0  0  0  0
   -1.5887  -15.3477    3.7980 H   0  0  0  0  0  0  0  0  0  0  0  0
   -1.7595  -15.8980    2.0781 H   0  0  0  0  0  0  0  0  0  0  0  0
   -0.3421  -13.3855    3.0972 H   0  0  0  0  0  0  0  0  0  0  0  0
    0.3856  -14.8333    2.2830 H   0  0  0  0  0  0  0  0  0  0  0  0
    0.9949  -11.5304    1.6591 H   0  0  0  0  0  0  0  0  0  0  0  0
    2.9463  -10.7698    0.3207 H   0  0  0  0  0  0  0  0  0  0  0  0
    4.6468  -13.6413   -1.4304 H   0  0  0  0  0  0  0  0  0  0  0  0
    4.5803  -13.4162   -3.2025 H   0  0  0  0  0  0  0  0  0  0  0  0
    5.8146  -11.1534   -2.4561 H   0  0  0  0  0  0  0  0  0  0  0  0
    6.5566  -13.2395   -4.0137 H   0  0  0  0  0  0  0  0  0  0  0  0
    7.8419  -12.1679   -3.4454 H   0  0  0  0  0  0  0  0  0  0  0  0
    6.3242  -15.3183   -0.7920 H   0  0  0  0  0  0  0  0  0  0  0  0
    7.7930  -15.3214    0.3089 H   0  0  0  0  0  0  0  0  0  0  0  0
    7.6210  -13.3944    2.3664 H   0  0  0  0  0  0  0  0  0  0  0  0
    3.4435  -13.6886    2.4526 H   0  0  0  0  0  0  0  0  0  0  0  0
    8.6380  -11.4907    0.5604 H   0  0  0  0  0  0  0  0  0  0  0  0
   11.0051  -11.1136    1.2495 H   0  0  0  0  0  0  0  0  0  0  0  0
   12.1941  -14.7393   -0.7711 H   0  0  0  0  0  0  0  0  0  0  0  0
    6.0415  -12.3782   -0.0359 H   0  0  0  0  0  0  0  0  0  0  0  0
    7.3943  -11.4183   -0.6426 H   0  0  0  0  0  0  0  0  0  0  0  0
    2.0986  -13.8041   -2.6182 H   0  0  0  0  0  0  0  0  0  0  0  0
    0.1510  -14.5625   -1.2793 H   0  0  0  0  0  0  0  0  0  0  0  0
   -1.9002  -11.9011    1.5549 H   0  0  0  0  0  0  0  0  0  0  0  0
   -2.0716  -12.4915   -0.1510 H   0  0  0  0  0  0  0  0  0  0  0  0
   -4.0581  -12.9937    1.3507 H   0  0  0  0  0  0  0  0  0  0  0  0
   -3.2931  -14.4353    0.5582 H   0  0  0  0  0  0  0  0  0  0  0  0
   -5.3181  -12.9920    2.9958 H   0  0  0  0  0  0  0  0  0  0  0  0
   -7.2419  -13.8090    4.3267 H   0  0  0  0  0  0  0  0  0  0  0  0
  1  2  1  0
  2  3  1  0
  3  4  1  0
  4  5  1  0
  4  6  1  0
  3  7  1  0
  7  8  1  0
  8  9  2  0
  9 10  1  0
 10 11  1  0
 11 12  2  0
 12 13  1  0
 13 14  2  0
 14 15  1  0
 15 16  1  0
 16 17  1  0
 17 18  1  0
 18 19  1  0
 19 20  2  0
 20 21  1  0
 21 22  2  0
 22 23  1  0
 23 24  1  0
 24 25  1  0
 25 26  1  0
 26 27  1  0
 27 28  1  0
 28 29  1  1
 29 30  1  0
 30 31  1  0
 31 32  2  0
 32 33  1  0
 33 34  2  0
 28 35  1  0
 35 36  2  0
 36 37  1  0
 37 38  2  0
 38 39  1  0
 38 40  1  0
 40 41  2  0
 41 42  1  0
 28 43  1  0
 22 44  1  0
 44 45  2  0
 18 46  1  0
 46 47  1  0
 14 48  1  0
 48 49  2  0
 10 50  1  0
 50 51  2  0
 50  7  1  0
 49 11  1  0
 47 15  1  0
 45 19  1  0
 43 25  1  0
 34 30  1  0
 41 35  1  0
  1 52  1  0
  1 53  1  0
  1 54  1  0
  2 55  1  0
  2 56  1  0
  3 57  1  1
  4 58  1  6
  5 59  1  0
  5 60  1  0
  5 61  1  0
  6 62  1  0
  9 63  1  0
 12 64  1  0
 13 65  1  0
 16 66  1  0
 16 67  1  0
 17 68  1  0
 17 69  1  0
 20 70  1  0
 21 71  1  0
 24 72  1  0
 24 73  1  0
 25 74  1  6
 26 75  1  0
 26 76  1  0
 29 77  1  0
 29 78  1  0
 31 79  1  0
 33 80  1  0
 36 81  1  0
 37 82  1  0
 40 83  1  0
 43 84  1  0
 43 85  1  0
 44 86  1  0
 45 87  1  0
 46 88  1  0
 46 89  1  0
 47 90  1  0
 47 91  1  0
 48 92  1  0
 49 93  1  0
M  END
>  <meeko>  (1) 
{"is_sidechain": [false], "free_energy": -8.71, "intermolecular_energy": -15.074, "internal_energy": -1.895}

$$$$
REF_CHEMBL1397__M_PUB_ALL__e8__s20260927
     RDKit          3D

 93 99  0  0  0  0  0  0  0  0999 V2000
  -11.8820  -14.9230    8.1180 C   0  0  0  0  0  0  0  0  0  0  0  0
  -11.1290  -16.1690    7.6700 C   0  0  0  0  0  0  0  0  0  0  0  0
   -9.6170  -16.0880    7.9610 C   0  0  1  0  0  0  0  0  0  0  0  0
   -9.1510  -17.2920    8.8170 C   0  0  2  0  0  0  0  0  0  0  0  0
  -10.2460  -17.8230    9.7360 C   0  0  0  0  0  0  0  0  0  0  0  0
   -8.0190  -16.9450    9.6200 O   0  0  0  0  0  0  0  0  0  0  0  0
   -8.8530  -15.9960    6.7200 N   0  0  0  0  0  0  0  0  0  0  0  0
   -9.3450  -16.3950    5.5020 N   0  0  0  0  0  0  0  0  0  0  0  0
   -8.3720  -16.1290    4.6850 C   0  0  0  0  0  0  0  0  0  0  0  0
   -7.2610  -15.5890    5.2340 N   0  0  0  0  0  0  0  0  0  0  0  0
   -6.0680  -15.2120    4.5690 C   0  0  0  0  0  0  0  0  0  0  0  0
   -4.9120  -15.9940    4.6320 C   0  0  0  0  0  0  0  0  0  0  0  0
   -3.7350  -15.6140    3.9680 C   0  0  0  0  0  0  0  0  0  0  0  0
   -3.6540  -14.4420    3.2080 C   0  0  0  0  0  0  0  0  0  0  0  0
   -2.4740  -14.0890    2.5670 N   0  0  0  0  0  0  0  0  0  0  0  0
   -1.9920  -14.9620    1.4750 C   0  0  0  0  0  0  0  0  0  0  0  0
   -0.4750  -14.7910    1.2300 C   0  0  0  0  0  0  0  0  0  0  0  0
   -0.1040  -13.3730    1.0700 N   0  0  0  0  0  0  0  0  0  0  0  0
    1.0820  -13.0220    0.4360 C   0  0  0  0  0  0  0  0  0  0  0  0
    1.1280  -12.1460   -0.6580 C   0  0  0  0  0  0  0  0  0  0  0  0
    2.3360  -11.7980   -1.2820 C   0  0  0  0  0  0  0  0  0  0  0  0
    3.5400  -12.3200   -0.8180 C   0  0  0  0  0  0  0  0  0  0  0  0
    4.7810  -12.0690   -1.3290 O   0  0  0  0  0  0  0  0  0  0  0  0
    5.8840  -12.7360   -0.7130 C   0  0  0  0  0  0  0  0  0  0  0  0
    7.0940  -11.7960   -0.7520 C   0  0  2  0  0  0  0  0  0  0  0  0
    7.3600  -11.3070   -2.1540 C   0  0  0  0  0  0  0  0  0  0  0  0
    8.1410  -12.3340   -2.7730 O   0  0  0  0  0  0  0  0  0  0  0  0
    8.9620  -12.9890   -1.7720 C   0  0  1  0  0  0  0  0  0  0  0  0
    8.7820  -14.5250   -1.8850 C   0  0  0  0  0  0  0  0  0  0  0  0
    7.8460  -14.9500   -2.9080 N   0  0  0  0  0  0  0  0  0  0  0  0
    8.0950  -15.1730   -4.2280 C   0  0  0  0  0  0  0  0  0  0  0  0
    7.0100  -15.6290   -4.8090 N   0  0  0  0  0  0  0  0  0  0  0  0
    6.1180  -15.7000   -3.7780 C   0  0  0  0  0  0  0  0  0  0  0  0
    6.5910  -15.3210   -2.5880 N   0  0  0  0  0  0  0  0  0  0  0  0
   10.4270  -12.5890   -1.9610 C   0  0  0  0  0  0  0  0  0  0  0  0
   11.2420  -12.2230   -0.8740 C   0  0  0  0  0  0  0  0  0  0  0  0
   12.5720  -11.8470   -1.0760 C   0  0  0  0  0  0  0  0  0  0  0  0
   13.0980  -11.8320   -2.3620 C   0  0  0  0  0  0  0  0  0  0  0  0
   14.3740  -11.4720   -2.5500 F   0  0  0  0  0  0  0  0  0  0  0  0
   12.3190  -12.1780   -3.4550 C   0  0  0  0  0  0  0  0  0  0  0  0
   10.9950  -12.5480   -3.2450 C   0  0  0  0  0  0  0  0  0  0  0  0
   10.2430  -12.8550   -4.3120 F   0  0  0  0  0  0  0  0  0  0  0  0
    8.4140  -12.4760   -0.4170 C   0  0  0  0  0  0  0  0  0  0  0  0
    3.5190  -13.1830    0.2740 C   0  0  0  0  0  0  0  0  0  0  0  0
    2.3090  -13.5250    0.8910 C   0  0  0  0  0  0  0  0  0  0  0  0
   -0.5810  -12.5020    2.1660 C   0  0  0  0  0  0  0  0  0  0  0  0
   -2.0970  -12.6710    2.4120 C   0  0  0  0  0  0  0  0  0  0  0  0
   -4.8090  -13.6560    3.1590 C   0  0  0  0  0  0  0  0  0  0  0  0
   -5.9930  -14.0310    3.8210 C   0  0  0  0  0  0  0  0  0  0  0  0
   -7.5500  -15.4900    6.5860 C   0  0  0  0  0  0  0  0  0  0  0  0
   -6.8670  -15.0690    7.5070 O   0  0  0  0  0  0  0  0  0  0  0  0
  -11.9055  -14.8841    9.2171 H   0  0  0  0  0  0  0  0  0  0  0  0
  -11.3735  -14.0280    7.7302 H   0  0  0  0  0  0  0  0  0  0  0  0
  -12.9108  -14.9571    7.7302 H   0  0  0  0  0  0  0  0  0  0  0  0
  -11.5430  -17.0397    8.1996 H   0  0  0  0  0  0  0  0  0  0  0  0
  -11.2531  -16.2582    6.5807 H   0  0  0  0  0  0  0  0  0  0  0  0
   -9.4300  -15.1724    8.5413 H   0  0  0  0  0  0  0  0  0  0  0  0
   -8.8836  -18.0811    8.0988 H   0  0  0  0  0  0  0  0  0  0  0  0
   -9.9469  -17.6780   10.7846 H   0  0  0  0  0  0  0  0  0  0  0  0
  -11.1824  -17.2789    9.5432 H   0  0  0  0  0  0  0  0  0  0  0  0
  -10.3986  -18.8952    9.5432 H   0  0  0  0  0  0  0  0  0  0  0  0
   -7.8530  -17.7300   10.1860 H   0  0  0  0  0  0  0  0  0  0  0  0
   -8.4473  -16.3316    3.6065 H   0  0  0  0  0  0  0  0  0  0  0  0
   -4.9244  -16.9272    5.2142 H   0  0  0  0  0  0  0  0  0  0  0  0
   -2.8473  -16.2587    4.0478 H   0  0  0  0  0  0  0  0  0  0  0  0
   -2.1937  -16.0100    1.7417 H   0  0  0  0  0  0  0  0  0  0  0  0
   -2.5211  -14.6797    0.5529 H   0  0  0  0  0  0  0  0  0  0  0  0
    0.0736  -15.2083    2.0872 H   0  0  0  0  0  0  0  0  0  0  0  0
   -0.2164  -15.3197    0.3007 H   0  0  0  0  0  0  0  0  0  0  0  0
    0.1887  -11.7185   -1.0387 H   0  0  0  0  0  0  0  0  0  0  0  0
    2.3313  -11.1104   -2.1406 H   0  0  0  0  0  0  0  0  0  0  0  0
    5.6358  -12.9805    0.3304 H   0  0  0  0  0  0  0  0  0  0  0  0
    6.1107  -13.6698   -1.2484 H   0  0  0  0  0  0  0  0  0  0  0  0
    6.8243  -11.0149   -0.0260 H   0  0  0  0  0  0  0  0  0  0  0  0
    6.4144  -11.1625   -2.6971 H   0  0  0  0  0  0  0  0  0  0  0  0
    7.8815  -10.3385   -2.1573 H   0  0  0  0  0  0  0  0  0  0  0  0
    9.7624  -14.9695   -2.1111 H   0  0  0  0  0  0  0  0  0  0  0  0
    8.3667  -14.8616   -0.9236 H   0  0  0  0  0  0  0  0  0  0  0  0
    9.0578  -14.9979   -4.7304 H   0  0  0  0  0  0  0  0  0  0  0  0
    5.0829  -16.0450   -3.9176 H   0  0  0  0  0  0  0  0  0  0  0  0
   10.8277  -12.2331    0.1449 H   0  0  0  0  0  0  0  0  0  0  0  0
   13.2012  -11.5636   -0.2194 H   0  0  0  0  0  0  0  0  0  0  0  0
   12.7407  -12.1602   -4.4708 H   0  0  0  0  0  0  0  0  0  0  0  0
    8.2509  -13.3149    0.2756 H   0  0  0  0  0  0  0  0  0  0  0  0
    9.1167  -11.7888    0.0770 H   0  0  0  0  0  0  0  0  0  0  0  0
    4.4622  -13.6006    0.6562 H   0  0  0  0  0  0  0  0  0  0  0  0
    2.3217  -14.2058    1.7549 H   0  0  0  0  0  0  0  0  0  0  0  0
   -0.0393  -12.7602    3.0879 H   0  0  0  0  0  0  0  0  0  0  0  0
   -0.3948  -11.4566    1.8789 H   0  0  0  0  0  0  0  0  0  0  0  0
   -2.3714  -12.1278    3.3283 H   0  0  0  0  0  0  0  0  0  0  0  0
   -2.6312  -12.2695    1.5382 H   0  0  0  0  0  0  0  0  0  0  0  0
   -4.7919  -12.7170    2.5863 H   0  0  0  0  0  0  0  0  0  0  0  0
   -6.8784  -13.3823    3.7491 H   0  0  0  0  0  0  0  0  0  0  0  0
  1  2  1  0
  2  3  1  0
  3  4  1  0
  4  5  1  0
  4  6  1  0
  3  7  1  0
  7  8  1  0
  8  9  2  0
  9 10  1  0
 10 11  1  0
 11 12  2  0
 12 13  1  0
 13 14  2  0
 14 15  1  0
 15 16  1  0
 16 17  1  0
 17 18  1  0
 18 19  1  0
 19 20  2  0
 20 21  1  0
 21 22  2  0
 22 23  1  0
 23 24  1  0
 24 25  1  0
 25 26  1  0
 26 27  1  0
 27 28  1  0
 28 29  1  1
 29 30  1  0
 30 31  1  0
 31 32  2  0
 32 33  1  0
 33 34  2  0
 28 35  1  0
 35 36  2  0
 36 37  1  0
 37 38  2  0
 38 39  1  0
 38 40  1  0
 40 41  2  0
 41 42  1  0
 28 43  1  0
 22 44  1  0
 44 45  2  0
 18 46  1  0
 46 47  1  0
 14 48  1  0
 48 49  2  0
 10 50  1  0
 50 51  2  0
 50  7  1  0
 49 11  1  0
 47 15  1  0
 45 19  1  0
 43 25  1  0
 34 30  1  0
 41 35  1  0
  1 52  1  0
  1 53  1  0
  1 54  1  0
  2 55  1  0
  2 56  1  0
  3 57  1  1
  4 58  1  6
  5 59  1  0
  5 60  1  0
  5 61  1  0
  6 62  1  0
  9 63  1  0
 12 64  1  0
 13 65  1  0
 16 66  1  0
 16 67  1  0
 17 68  1  0
 17 69  1  0
 20 70  1  0
 21 71  1  0
 24 72  1  0
 24 73  1  0
 25 74  1  1
 26 75  1  0
 26 76  1  0
 29 77  1  0
 29 78  1  0
 31 79  1  0
 33 80  1  0
 36 81  1  0
 37 82  1  0
 40 83  1  0
 43 84  1  0
 43 85  1  0
 44 86  1  0
 45 87  1  0
 46 88  1  0
 46 89  1  0
 47 90  1  0
 47 91  1  0
 48 92  1  0
 49 93  1  0
M  END
>  <meeko>  (2) 
{"is_sidechain": [false], "free_energy": -8.663, "intermolecular_energy": -15.041, "internal_energy": -1.847}

$$$$
REF_CHEMBL1397__M_PUB_ALL__e8__s20260927
     RDKit          3D

 93 99  0  0  0  0  0  0  0  0999 V2000
  -11.7710  -15.0920    8.0450 C   0  0  0  0  0  0  0  0  0  0  0  0
  -11.3870  -16.4880    8.5200 C   0  0  0  0  0  0  0  0  0  0  0  0
   -9.8780  -16.6270    8.8020 C   0  0  1  0  0  0  0  0  0  0  0  0
   -9.5890  -17.8760    9.6720 C   0  0  2  0  0  0  0  0  0  0  0  0
  -10.8100  -18.7730    9.8420 C   0  0  0  0  0  0  0  0  0  0  0  0
   -9.1210  -17.5010   10.9710 O   0  0  0  0  0  0  0  0  0  0  0  0
   -9.1170  -16.6640    7.5570 N   0  0  0  0  0  0  0  0  0  0  0  0
   -9.3940  -17.5330    6.5310 N   0  0  0  0  0  0  0  0  0  0  0  0
   -8.5110  -17.2240    5.6300 C   0  0  0  0  0  0  0  0  0  0  0  0
   -7.6550  -16.2270    5.9500 N   0  0  0  0  0  0  0  0  0  0  0  0
   -6.6070  -15.7040    5.1530 C   0  0  0  0  0  0  0  0  0  0  0  0
   -5.4160  -16.4060    4.9510 C   0  0  0  0  0  0  0  0  0  0  0  0
   -4.3840  -15.8820    4.1580 C   0  0  0  0  0  0  0  0  0  0  0  0
   -4.4890  -14.6380    3.5250 C   0  0  0  0  0  0  0  0  0  0  0  0
   -3.4480  -14.1430    2.7520 N   0  0  0  0  0  0  0  0  0  0  0  0
   -3.6220  -12.8130    2.1260 C   0  0  0  0  0  0  0  0  0  0  0  0
   -2.6900  -12.6250    0.9080 C   0  0  0  0  0  0  0  0  0  0  0  0
   -1.2900  -12.9530    1.2360 N   0  0  0  0  0  0  0  0  0  0  0  0
   -0.2500  -12.4640    0.4550 C   0  0  0  0  0  0  0  0  0  0  0  0
   -0.1330  -11.1100    0.1050 C   0  0  0  0  0  0  0  0  0  0  0  0
    0.9270  -10.6330   -0.6800 C   0  0  0  0  0  0  0  0  0  0  0  0
    1.9100  -11.5070   -1.1360 C   0  0  0  0  0  0  0  0  0  0  0  0
    2.9900  -11.1800   -1.9040 O   0  0  0  0  0  0  0  0  0  0  0  0
    3.8270  -12.2530   -2.3390 C   0  0  0  0  0  0  0  0  0  0  0  0
    5.2590  -11.7220   -2.4660 C   0  0  2  0  0  0  0  0  0  0  0  0
    6.1510  -12.7230   -3.1600 C   0  0  0  0  0  0  0  0  0  0  0  0
    6.5780  -13.6260   -2.1350 O   0  0  0  0  0  0  0  0  0  0  0  0
    6.6660  -12.9190   -0.8710 C   0  0  1  0  0  0  0  0  0  0  0  0
    5.9010  -13.7160    0.2160 C   0  0  0  0  0  0  0  0  0  0  0  0
    5.5930  -15.0870   -0.1430 N   0  0  0  0  0  0  0  0  0  0  0  0
    6.3690  -16.1910    0.0310 C   0  0  0  0  0  0  0  0  0  0  0  0
    5.7050  -17.2600   -0.3440 N   0  0  0  0  0  0  0  0  0  0  0  0
    4.4950  -16.7510   -0.7160 C   0  0  0  0  0  0  0  0  0  0  0  0
    4.3660  -15.4290   -0.5850 N   0  0  0  0  0  0  0  0  0  0  0  0
    8.1340  -12.7280   -0.4850 C   0  0  0  0  0  0  0  0  0  0  0  0
    9.1750  -13.3550   -1.1940 C   0  0  0  0  0  0  0  0  0  0  0  0
   10.5070  -13.1760   -0.8130 C   0  0  0  0  0  0  0  0  0  0  0  0
   10.8090  -12.3720    0.2800 C   0  0  0  0  0  0  0  0  0  0  0  0
   12.0880  -12.2030    0.6410 F   0  0  0  0  0  0  0  0  0  0  0  0
    9.8070  -11.7480    1.0060 C   0  0  0  0  0  0  0  0  0  0  0  0
    8.4840  -11.9350    0.6210 C   0  0  0  0  0  0  0  0  0  0  0  0
    7.5210  -11.3470    1.3440 F   0  0  0  0  0  0  0  0  0  0  0  0
    5.9760  -11.5580   -1.1330 C   0  0  0  0  0  0  0  0  0  0  0  0
    1.8210  -12.8530   -0.7910 C   0  0  0  0  0  0  0  0  0  0  0  0
    0.7590  -13.3200   -0.0070 C   0  0  0  0  0  0  0  0  0  0  0  0
   -1.1160  -14.2850    1.8550 C   0  0  0  0  0  0  0  0  0  0  0  0
   -2.0470  -14.4750    3.0730 C   0  0  0  0  0  0  0  0  0  0  0  0
   -5.6770  -13.9340    3.7410 C   0  0  0  0  0  0  0  0  0  0  0  0
   -6.7170  -14.4530    4.5330 C   0  0  0  0  0  0  0  0  0  0  0  0
   -8.0320  -15.8360    7.2250 C   0  0  0  0  0  0  0  0  0  0  0  0
   -7.5650  -14.9730    7.9520 O   0  0  0  0  0  0  0  0  0  0  0  0
  -11.9491  -14.4444    8.9161 H   0  0  0  0  0  0  0  0  0  0  0  0
  -10.9546  -14.6737    7.4380 H   0  0  0  0  0  0  0  0  0  0  0  0
  -12.6865  -15.1501    7.4380 H   0  0  0  0  0  0  0  0  0  0  0  0
  -11.9396  -16.7092    9.4450 H   0  0  0  0  0  0  0  0  0  0  0  0
  -11.6408  -17.1939    7.7154 H   0  0  0  0  0  0  0  0  0  0  0  0
   -9.5542  -15.7415    9.3686 H   0  0  0  0  0  0  0  0  0  0  0  0
   -8.8129  -18.4400    9.1338 H   0  0  0  0  0  0  0  0  0  0  0  0
  -11.0105  -18.9203   10.9135 H   0  0  0  0  0  0  0  0  0  0  0  0
  -11.6820  -18.2992    9.3676 H   0  0  0  0  0  0  0  0  0  0  0  0
  -10.6185  -19.7468    9.3676 H   0  0  0  0  0  0  0  0  0  0  0  0
   -9.5750  -16.6550   11.1760 H   0  0  0  0  0  0  0  0  0  0  0  0
   -8.4622  -17.7437    4.6617 H   0  0  0  0  0  0  0  0  0  0  0  0
   -5.2846  -17.3905    5.4238 H   0  0  0  0  0  0  0  0  0  0  0  0
   -3.4620  -16.4681    4.0295 H   0  0  0  0  0  0  0  0  0  0  0  0
   -4.6658  -12.7093    1.7948 H   0  0  0  0  0  0  0  0  0  0  0  0
   -3.3661  -12.0475    2.8734 H   0  0  0  0  0  0  0  0  0  0  0  0
   -3.0292  -13.2835    0.0947 H   0  0  0  0  0  0  0  0  0  0  0  0
   -2.7323  -11.5687    0.6040 H   0  0  0  0  0  0  0  0  0  0  0  0
   -0.8964  -10.4007    0.4573 H   0  0  0  0  0  0  0  0  0  0  0  0
    0.9818   -9.5647   -0.9362 H   0  0  0  0  0  0  0  0  0  0  0  0
    3.7968  -13.0705   -1.6036 H   0  0  0  0  0  0  0  0  0  0  0  0
    3.4774  -12.6388   -3.3080 H   0  0  0  0  0  0  0  0  0  0  0  0
    5.1240  -10.7667   -2.9943 H   0  0  0  0  0  0  0  0  0  0  0  0
    5.5917  -13.2617   -3.9391 H   0  0  0  0  0  0  0  0  0  0  0  0
    7.0029  -12.2362   -3.6574 H   0  0  0  0  0  0  0  0  0  0  0  0
    6.5166  -13.7304    1.1275 H   0  0  0  0  0  0  0  0  0  0  0  0
    4.9360  -13.2063    0.3540 H   0  0  0  0  0  0  0  0  0  0  0  0
    7.3958  -16.1884    0.4256 H   0  0  0  0  0  0  0  0  0  0  0  0
    3.6820  -17.3862   -1.0975 H   0  0  0  0  0  0  0  0  0  0  0  0
    8.9374  -13.9932   -2.0579 H   0  0  0  0  0  0  0  0  0  0  0  0
   11.3134  -13.6692   -1.3755 H   0  0  0  0  0  0  0  0  0  0  0  0
   10.0539  -11.1158    1.8717 H   0  0  0  0  0  0  0  0  0  0  0  0
    5.2557  -11.3308   -0.3333 H   0  0  0  0  0  0  0  0  0  0  0  0
    6.6987  -10.7290   -1.1550 H   0  0  0  0  0  0  0  0  0  0  0  0
    2.5925  -13.5563   -1.1377 H   0  0  0  0  0  0  0  0  0  0  0  0
    0.7154  -14.3878    0.2534 H   0  0  0  0  0  0  0  0  0  0  0  0
   -1.3452  -15.0584    1.1071 H   0  0  0  0  0  0  0  0  0  0  0  0
   -0.0756  -14.3685    2.2023 H   0  0  0  0  0  0  0  0  0  0  0  0
   -1.9960  -15.5243    3.3992 H   0  0  0  0  0  0  0  0  0  0  0  0
   -1.7095  -13.7951    3.8692 H   0  0  0  0  0  0  0  0  0  0  0  0
   -5.8024  -12.9443    3.2776 H   0  0  0  0  0  0  0  0  0  0  0  0
   -7.6361  -13.8640    4.6683 H   0  0  0  0  0  0  0  0  0  0  0  0
  1  2  1  0
  2  3  1  0
  3  4  1  0
  4  5  1  0
  4  6  1  0
  3  7  1  0
  7  8  1  0
  8  9  2  0
  9 10  1  0
 10 11  1  0
 11 12  2  0
 12 13  1  0
 13 14  2  0
 14 15  1  0
 15 16  1  0
 16 17  1  0
 17 18  1  0
 18 19  1  0
 19 20  2  0
 20 21  1  0
 21 22  2  0
 22 23  1  0
 23 24  1  0
 24 25  1  0
 25 26  1  0
 26 27  1  0
 27 28  1  0
 28 29  1  1
 29 30  1  0
 30 31  1  0
 31 32  2  0
 32 33  1  0
 33 34  2  0
 28 35  1  0
 35 36  2  0
 36 37  1  0
 37 38  2  0
 38 39  1  0
 38 40  1  0
 40 41  2  0
 41 42  1  0
 28 43  1  0
 22 44  1  0
 44 45  2  0
 18 46  1  0
 46 47  1  0
 14 48  1  0
 48 49  2  0
 10 50  1  0
 50 51  2  0
 50  7  1  0
 49 11  1  0
 47 15  1  0
 45 19  1  0
 43 25  1  0
 34 30  1  0
 41 35  1  0
  1 52  1  0
  1 53  1  0
  1 54  1  0
  2 55  1  0
  2 56  1  0
  3 57  1  1
  4 58  1  6
  5 59  1  0
  5 60  1  0
  5 61  1  0
  6 62  1  0
  9 63  1  0
 12 64  1  0
 13 65  1  0
 16 66  1  0
 16 67  1  0
 17 68  1  0
 17 69  1  0
 20 70  1  0
 21 71  1  0
 24 72  1  0
 24 73  1  0
 25 74  1  6
 26 75  1  0
 26 76  1  0
 29 77  1  0
 29 78  1  0
 31 79  1  0
 33 80  1  0
 36 81  1  0
 37 82  1  0
 40 83  1  0
 43 84  1  0
 43 85  1  0
 44 86  1  0
 45 87  1  0
 46 88  1  0
 46 89  1  0
 47 90  1  0
 47 91  1  0
 48 92  1  0
 49 93  1  0
M  END
>  <meeko>  (3) 
{"is_sidechain": [false], "free_energy": -8.647, "intermolecular_energy": -14.785, "internal_energy": -2.076}

$$$$
REF_CHEMBL1397__M_PUB_ALL__e8__s20260927
     RDKit          3D

 93 99  0  0  0  0  0  0  0  0999 V2000
  -12.8580  -15.4140    8.8580 C   0  0  0  0  0  0  0  0  0  0  0  0
  -11.7470  -15.1520    7.8490 C   0  0  0  0  0  0  0  0  0  0  0  0
  -10.4510  -15.9190    8.1760 C   0  0  1  0  0  0  0  0  0  0  0  0
  -10.7680  -17.3120    8.7780 C   0  0  2  0  0  0  0  0  0  0  0  0
   -9.7410  -17.7550    9.8150 C   0  0  0  0  0  0  0  0  0  0  0  0
  -10.8350  -18.3100    7.7550 O   0  0  0  0  0  0  0  0  0  0  0  0
   -9.6030  -16.0360    6.9940 N   0  0  0  0  0  0  0  0  0  0  0  0
  -10.0900  -16.3210    5.7430 N   0  0  0  0  0  0  0  0  0  0  0  0
   -9.0270  -16.3140    4.9980 C   0  0  0  0  0  0  0  0  0  0  0  0
   -7.8590  -16.0530    5.6270 N   0  0  0  0  0  0  0  0  0  0  0  0
   -6.5670  -15.9880    5.0510 C   0  0  0  0  0  0  0  0  0  0  0  0
   -6.0870  -14.8210    4.4510 C   0  0  0  0  0  0  0  0  0  0  0  0
   -4.8030  -14.7650    3.8840 C   0  0  0  0  0  0  0  0  0  0  0  0
   -3.9370  -15.8640    3.8900 C   0  0  0  0  0  0  0  0  0  0  0  0
   -2.6770  -15.7800    3.3170 N   0  0  0  0  0  0  0  0  0  0  0  0
   -2.5790  -15.8660    1.8430 C   0  0  0  0  0  0  0  0  0  0  0  0
   -1.1680  -16.2990    1.3840 C   0  0  0  0  0  0  0  0  0  0  0  0
   -0.1150  -15.4750    2.0060 N   0  0  0  0  0  0  0  0  0  0  0  0
    1.1500  -15.4000    1.4350 C   0  0  0  0  0  0  0  0  0  0  0  0
    1.3530  -15.1690    0.0670 C   0  0  0  0  0  0  0  0  0  0  0  0
    2.6380  -15.0900   -0.4920 C   0  0  0  0  0  0  0  0  0  0  0  0
    3.7630  -15.2370    0.3150 C   0  0  0  0  0  0  0  0  0  0  0  0
    5.0640  -15.1840   -0.0940 O   0  0  0  0  0  0  0  0  0  0  0  0
    5.3030  -15.1060   -1.4990 C   0  0  0  0  0  0  0  0  0  0  0  0
    6.7950  -15.3510   -1.7480 C   0  0  2  0  0  0  0  0  0  0  0  0
    7.5730  -15.3290   -0.4550 C   0  0  0  0  0  0  0  0  0  0  0  0
    7.8440  -13.9480   -0.1970 O   0  0  0  0  0  0  0  0  0  0  0  0
    7.9800  -13.2380   -1.4560 C   0  0  1  0  0  0  0  0  0  0  0  0
    7.0810  -11.9750   -1.4310 C   0  0  0  0  0  0  0  0  0  0  0  0
    6.5820  -11.6140   -0.1190 N   0  0  0  0  0  0  0  0  0  0  0  0
    7.1280  -10.7410    0.7730 C   0  0  0  0  0  0  0  0  0  0  0  0
    6.3360  -10.6200    1.8120 N   0  0  0  0  0  0  0  0  0  0  0  0
    5.2830  -11.4260    1.4890 C   0  0  0  0  0  0  0  0  0  0  0  0
    5.3740  -12.0360    0.3040 N   0  0  0  0  0  0  0  0  0  0  0  0
    9.4460  -12.8680   -1.6870 C   0  0  0  0  0  0  0  0  0  0  0  0
   10.0170  -12.8690   -2.9720 C   0  0  0  0  0  0  0  0  0  0  0  0
   11.3640  -12.5420   -3.1540 C   0  0  0  0  0  0  0  0  0  0  0  0
   12.1490  -12.2140   -2.0560 C   0  0  0  0  0  0  0  0  0  0  0  0
   13.4380  -11.9010   -2.2360 F   0  0  0  0  0  0  0  0  0  0  0  0
   11.6190  -12.2140   -0.7750 C   0  0  0  0  0  0  0  0  0  0  0  0
   10.2790  -12.5430   -0.6030 C   0  0  0  0  0  0  0  0  0  0  0  0
    9.7830  -12.5650    0.6420 F   0  0  0  0  0  0  0  0  0  0  0  0
    7.4810  -14.2390   -2.5280 C   0  0  0  0  0  0  0  0  0  0  0  0
    3.5850  -15.4550    1.6780 C   0  0  0  0  0  0  0  0  0  0  0  0
    2.2990  -15.5320    2.2270 C   0  0  0  0  0  0  0  0  0  0  0  0
   -0.2090  -15.3950    3.4800 C   0  0  0  0  0  0  0  0  0  0  0  0
   -1.6190  -14.9620    3.9400 C   0  0  0  0  0  0  0  0  0  0  0  0
   -4.4270  -17.0330    4.4800 C   0  0  0  0  0  0  0  0  0  0  0  0
   -5.7110  -17.0970    5.0520 C   0  0  0  0  0  0  0  0  0  0  0  0
   -8.2090  -15.8650    6.9550 C   0  0  0  0  0  0  0  0  0  0  0  0
   -7.5110  -15.6090    7.9230 O   0  0  0  0  0  0  0  0  0  0  0  0
  -12.4569  -15.3194    9.8779 H   0  0  0  0  0  0  0  0  0  0  0  0
  -13.6658  -14.6817    8.7123 H   0  0  0  0  0  0  0  0  0  0  0  0
  -13.2535  -16.4300    8.7123 H   0  0  0  0  0  0  0  0  0  0  0  0
  -12.0967  -15.4611    6.8529 H   0  0  0  0  0  0  0  0  0  0  0  0
  -11.5140  -14.0775    7.8841 H   0  0  0  0  0  0  0  0  0  0  0  0
   -9.8965  -15.3447    8.9327 H   0  0  0  0  0  0  0  0  0  0  0  0
  -11.7436  -17.2070    9.2751 H   0  0  0  0  0  0  0  0  0  0  0  0
  -10.1416  -17.5822   10.8248 H   0  0  0  0  0  0  0  0  0  0  0  0
   -9.5261  -18.8258    9.6840 H   0  0  0  0  0  0  0  0  0  0  0  0
   -8.8147  -17.1764    9.6840 H   0  0  0  0  0  0  0  0  0  0  0  0
  -11.4550  -17.9520    7.0830 H   0  0  0  0  0  0  0  0  0  0  0  0
   -9.0738  -16.5093    3.9165 H   0  0  0  0  0  0  0  0  0  0  0  0
   -6.7279  -13.9275    4.4220 H   0  0  0  0  0  0  0  0  0  0  0  0
   -4.4672  -13.8260    3.4199 H   0  0  0  0  0  0  0  0  0  0  0  0
   -3.3123  -16.6012    1.4800 H   0  0  0  0  0  0  0  0  0  0  0  0
   -2.7809  -14.8671    1.4288 H   0  0  0  0  0  0  0  0  0  0  0  0
   -1.0093  -17.3509    1.6639 H   0  0  0  0  0  0  0  0  0  0  0  0
   -1.1069  -16.1675    0.2936 H   0  0  0  0  0  0  0  0  0  0  0  0
    0.4782  -15.0459   -0.5884 H   0  0  0  0  0  0  0  0  0  0  0  0
    2.7566  -14.9114   -1.5709 H   0  0  0  0  0  0  0  0  0  0  0  0
    4.7085  -15.8707   -2.0204 H   0  0  0  0  0  0  0  0  0  0  0  0
    5.0134  -14.1148   -1.8781 H   0  0  0  0  0  0  0  0  0  0  0  0
    6.8028  -16.3109   -2.2852 H   0  0  0  0  0  0  0  0  0  0  0  0
    6.9759  -15.7628    0.3607 H   0  0  0  0  0  0  0  0  0  0  0  0
    8.4976  -15.9209   -0.5242 H   0  0  0  0  0  0  0  0  0  0  0  0
    7.6672  -11.1292   -1.8195 H   0  0  0  0  0  0  0  0  0  0  0  0
    6.1993  -12.2084   -2.0459 H   0  0  0  0  0  0  0  0  0  0  0  0
    8.0865  -10.2175    0.6421 H   0  0  0  0  0  0  0  0  0  0  0  0
    4.4202  -11.5636    2.1573 H   0  0  0  0  0  0  0  0  0  0  0  0
    9.3976  -13.1297   -3.8428 H   0  0  0  0  0  0  0  0  0  0  0  0
   11.8008  -12.5444   -4.1635 H   0  0  0  0  0  0  0  0  0  0  0  0
   12.2478  -11.9581    0.0906 H   0  0  0  0  0  0  0  0  0  0  0  0
    6.7694  -13.7507   -3.2100 H   0  0  0  0  0  0  0  0  0  0  0  0
    8.3049  -14.6206   -3.1489 H   0  0  0  0  0  0  0  0  0  0  0  0
    4.4633  -15.5680    2.3306 H   0  0  0  0  0  0  0  0  0  0  0  0
    2.1876  -15.7005    3.3083 H   0  0  0  0  0  0  0  0  0  0  0  0
    0.0169  -16.3838    3.9058 H   0  0  0  0  0  0  0  0  0  0  0  0
    0.5121  -14.6413    3.8292 H   0  0  0  0  0  0  0  0  0  0  0  0
   -1.6846  -15.0683    5.0329 H   0  0  0  0  0  0  0  0  0  0  0  0
   -1.7714  -13.9168    3.6330 H   0  0  0  0  0  0  0  0  0  0  0  0
   -3.7897  -17.9294    4.4976 H   0  0  0  0  0  0  0  0  0  0  0  0
   -6.0499  -18.0380    5.5098 H   0  0  0  0  0  0  0  0  0  0  0  0
  1  2  1  0
  2  3  1  0
  3  4  1  0
  4  5  1  0
  4  6  1  0
  3  7  1  0
  7  8  1  0
  8  9  2  0
  9 10  1  0
 10 11  1  0
 11 12  2  0
 12 13  1  0
 13 14  2  0
 14 15  1  0
 15 16  1  0
 16 17  1  0
 17 18  1  0
 18 19  1  0
 19 20  2  0
 20 21  1  0
 21 22  2  0
 22 23  1  0
 23 24  1  0
 24 25  1  0
 25 26  1  0
 26 27  1  0
 27 28  1  0
 28 29  1  1
 29 30  1  0
 30 31  1  0
 31 32  2  0
 32 33  1  0
 33 34  2  0
 28 35  1  0
 35 36  2  0
 36 37  1  0
 37 38  2  0
 38 39  1  0
 38 40  1  0
 40 41  2  0
 41 42  1  0
 28 43  1  0
 22 44  1  0
 44 45  2  0
 18 46  1  0
 46 47  1  0
 14 48  1  0
 48 49  2  0
 10 50  1  0
 50 51  2  0
 50  7  1  0
 49 11  1  0
 47 15  1  0
 45 19  1  0
 43 25  1  0
 34 30  1  0
 41 35  1  0
  1 52  1  0
  1 53  1  0
  1 54  1  0
  2 55  1  0
  2 56  1  0
  3 57  1  1
  4 58  1  1
  5 59  1  0
  5 60  1  0
  5 61  1  0
  6 62  1  0
  9 63  1  0
 12 64  1  0
 13 65  1  0
 16 66  1  0
 16 67  1  0
 17 68  1  0
 17 69  1  0
 20 70  1  0
 21 71  1  0
 24 72  1  0
 24 73  1  0
 25 74  1  6
 26 75  1  0
 26 76  1  0
 29 77  1  0
 29 78  1  0
 31 79  1  0
 33 80  1  0
 36 81  1  0
 37 82  1  0
 40 83  1  0
 43 84  1  0
 43 85  1  0
 44 86  1  0
 45 87  1  0
 46 88  1  0
 46 89  1  0
 47 90  1  0
 47 91  1  0
 48 92  1  0
 49 93  1  0
M  END
>  <meeko>  (4) 
{"is_sidechain": [false], "free_energy": -8.628, "intermolecular_energy": -14.728, "internal_energy": -2.1}

$$$$
REF_CHEMBL1397__M_PUB_ALL__e8__s20260927
     RDKit          3D

 93 99  0  0  0  0  0  0  0  0999 V2000
  -11.1060  -19.8210    6.8610 C   0  0  0  0  0  0  0  0  0  0  0  0
  -11.1640  -18.8450    8.0300 C   0  0  0  0  0  0  0  0  0  0  0  0
  -11.0980  -17.3720    7.5810 C   0  0  1  0  0  0  0  0  0  0  0  0
  -11.8520  -16.4540    8.5750 C   0  0  2  0  0  0  0  0  0  0  0  0
  -11.8600  -14.9920    8.1420 C   0  0  0  0  0  0  0  0  0  0  0  0
  -11.2800  -16.5330    9.8840 O   0  0  0  0  0  0  0  0  0  0  0  0
   -9.7120  -16.9410    7.4130 N   0  0  0  0  0  0  0  0  0  0  0  0
   -8.8390  -16.7900    8.4610 N   0  0  0  0  0  0  0  0  0  0  0  0
   -7.7380  -16.4210    7.8820 C   0  0  0  0  0  0  0  0  0  0  0  0
   -7.7810  -16.3020    6.5350 N   0  0  0  0  0  0  0  0  0  0  0  0
   -6.7280  -15.9160    5.6710 C   0  0  0  0  0  0  0  0  0  0  0  0
   -5.5890  -16.7090    5.5000 C   0  0  0  0  0  0  0  0  0  0  0  0
   -4.5500  -16.3200    4.6390 C   0  0  0  0  0  0  0  0  0  0  0  0
   -4.5970  -15.1290    3.9060 C   0  0  0  0  0  0  0  0  0  0  0  0
   -3.5520  -14.7680    3.0670 N   0  0  0  0  0  0  0  0  0  0  0  0
   -2.8130  -15.8480    2.3780 C   0  0  0  0  0  0  0  0  0  0  0  0
   -1.4030  -15.3910    1.9400 C   0  0  0  0  0  0  0  0  0  0  0  0
   -1.4480  -14.1240    1.1870 N   0  0  0  0  0  0  0  0  0  0  0  0
   -0.3970  -13.7600    0.3550 C   0  0  0  0  0  0  0  0  0  0  0  0
    0.3030  -12.5530    0.4980 C   0  0  0  0  0  0  0  0  0  0  0  0
    1.3660  -12.2040   -0.3490 C   0  0  0  0  0  0  0  0  0  0  0  0
    1.7630  -13.0660   -1.3660 C   0  0  0  0  0  0  0  0  0  0  0  0
    2.7750  -12.8540   -2.2590 O   0  0  0  0  0  0  0  0  0  0  0  0
    3.8330  -11.9880   -1.8490 C   0  0  0  0  0  0  0  0  0  0  0  0
    5.0550  -12.2730   -2.7290 C   0  0  2  0  0  0  0  0  0  0  0  0
    5.5780  -13.6690   -2.4980 C   0  0  0  0  0  0  0  0  0  0  0  0
    6.4290  -13.5720   -1.3510 O   0  0  0  0  0  0  0  0  0  0  0  0
    7.0420  -12.2580   -1.3120 C   0  0  1  0  0  0  0  0  0  0  0  0
    6.8440  -11.6410    0.0960 C   0  0  0  0  0  0  0  0  0  0  0  0
    6.3050  -12.5540    1.0850 N   0  0  0  0  0  0  0  0  0  0  0  0
    5.0110  -12.6760    1.4930 C   0  0  0  0  0  0  0  0  0  0  0  0
    4.9100  -13.6730    2.3410 N   0  0  0  0  0  0  0  0  0  0  0  0
    6.1840  -14.1580    2.3970 C   0  0  0  0  0  0  0  0  0  0  0  0
    7.0700  -13.5240    1.6240 N   0  0  0  0  0  0  0  0  0  0  0  0
    8.5270  -12.3680   -1.6630 C   0  0  0  0  0  0  0  0  0  0  0  0
    9.5110  -12.5480   -0.6750 C   0  0  0  0  0  0  0  0  0  0  0  0
   10.8630  -12.6310   -1.0210 C   0  0  0  0  0  0  0  0  0  0  0  0
   11.2400  -12.5330   -2.3550 C   0  0  0  0  0  0  0  0  0  0  0  0
   12.5370  -12.6140   -2.6810 F   0  0  0  0  0  0  0  0  0  0  0  0
   10.2960  -12.3450   -3.3520 C   0  0  0  0  0  0  0  0  0  0  0  0
    8.9540  -12.2610   -2.9980 C   0  0  0  0  0  0  0  0  0  0  0  0
    8.0510  -12.0540   -3.9670 F   0  0  0  0  0  0  0  0  0  0  0  0
    6.2760  -11.4350   -2.3780 C   0  0  0  0  0  0  0  0  0  0  0  0
    1.0910  -14.2760   -1.5200 C   0  0  0  0  0  0  0  0  0  0  0  0
    0.0300  -14.6160   -0.6700 C   0  0  0  0  0  0  0  0  0  0  0  0
   -2.1820  -13.0430    1.8800 C   0  0  0  0  0  0  0  0  0  0  0  0
   -3.5920  -13.4970    2.3180 C   0  0  0  0  0  0  0  0  0  0  0  0
   -5.7320  -14.3340    4.0910 C   0  0  0  0  0  0  0  0  0  0  0  0
   -6.7780  -14.7170    4.9500 C   0  0  0  0  0  0  0  0  0  0  0  0
   -9.0810  -16.6400    6.1950 C   0  0  0  0  0  0  0  0  0  0  0  0
   -9.6210  -16.6840    5.1000 O   0  0  0  0  0  0  0  0  0  0  0  0
  -11.0449  -20.8499    7.2451 H   0  0  0  0  0  0  0  0  0  0  0  0
  -12.0122  -19.7120    6.2471 H   0  0  0  0  0  0  0  0  0  0  0  0
  -10.2191  -19.6055    6.2471 H   0  0  0  0  0  0  0  0  0  0  0  0
  -12.1061  -19.0046    8.5749 H   0  0  0  0  0  0  0  0  0  0  0  0
  -10.2875  -19.0373    8.6662 H   0  0  0  0  0  0  0  0  0  0  0  0
  -11.5981  -17.2908    6.6046 H   0  0  0  0  0  0  0  0  0  0  0  0
  -12.8893  -16.8200    8.5877 H   0  0  0  0  0  0  0  0  0  0  0  0
  -11.8635  -14.3459    9.0323 H   0  0  0  0  0  0  0  0  0  0  0  0
  -10.9630  -14.7828    7.5407 H   0  0  0  0  0  0  0  0  0  0  0  0
  -12.7592  -14.7926    7.5407 H   0  0  0  0  0  0  0  0  0  0  0  0
  -11.9500  -16.1390   10.4840 H   0  0  0  0  0  0  0  0  0  0  0  0
   -6.8211  -16.2164    8.4542 H   0  0  0  0  0  0  0  0  0  0  0  0
   -5.5051  -17.6572    6.0513 H   0  0  0  0  0  0  0  0  0  0  0  0
   -3.6705  -16.9729    4.5375 H   0  0  0  0  0  0  0  0  0  0  0  0
   -2.7133  -16.7036    3.0621 H   0  0  0  0  0  0  0  0  0  0  0  0
   -3.3774  -16.1263    1.4758 H   0  0  0  0  0  0  0  0  0  0  0  0
   -0.7797  -15.2512    2.8355 H   0  0  0  0  0  0  0  0  0  0  0  0
   -0.9813  -16.1652    1.2822 H   0  0  0  0  0  0  0  0  0  0  0  0
    0.0096  -11.8584    1.2989 H   0  0  0  0  0  0  0  0  0  0  0  0
    1.8871  -11.2455   -0.2082 H   0  0  0  0  0  0  0  0  0  0  0  0
    3.5237  -10.9394   -1.9701 H   0  0  0  0  0  0  0  0  0  0  0  0
    4.0782  -12.1630   -0.7910 H   0  0  0  0  0  0  0  0  0  0  0  0
    4.6823  -12.0729   -3.7444 H   0  0  0  0  0  0  0  0  0  0  0  0
    4.7476  -14.3636   -2.3033 H   0  0  0  0  0  0  0  0  0  0  0  0
    6.1176  -14.0538   -3.3759 H   0  0  0  0  0  0  0  0  0  0  0  0
    7.8208  -11.2843    0.4547 H   0  0  0  0  0  0  0  0  0  0  0  0
    6.1053  -10.8340   -0.0185 H   0  0  0  0  0  0  0  0  0  0  0  0
    4.1786  -12.0372    1.1626 H   0  0  0  0  0  0  0  0  0  0  0  0
    6.4619  -15.0109    3.0337 H   0  0  0  0  0  0  0  0  0  0  0  0
    9.2139  -12.6243    0.3814 H   0  0  0  0  0  0  0  0  0  0  0  0
   11.6251  -12.7733   -0.2407 H   0  0  0  0  0  0  0  0  0  0  0  0
   10.6030  -12.2636   -4.4051 H   0  0  0  0  0  0  0  0  0  0  0  0
    5.9703  -10.4615   -1.9671 H   0  0  0  0  0  0  0  0  0  0  0  0
    6.8982  -11.2260   -3.2607 H   0  0  0  0  0  0  0  0  0  0  0  0
    1.3958  -14.9712   -2.3161 H   0  0  0  0  0  0  0  0  0  0  0  0
   -0.4812  -15.5798   -0.8107 H   0  0  0  0  0  0  0  0  0  0  0  0
   -1.6125  -12.7403    2.7711 H   0  0  0  0  0  0  0  0  0  0  0  0
   -2.2954  -12.2027    1.1793 H   0  0  0  0  0  0  0  0  0  0  0  0
   -4.0328  -12.7197    2.9595 H   0  0  0  0  0  0  0  0  0  0  0  0
   -4.1968  -13.6533    1.4126 H   0  0  0  0  0  0  0  0  0  0  0  0
   -5.8094  -13.3802    3.5485 H   0  0  0  0  0  0  0  0  0  0  0  0
   -7.6540  -14.0604    5.0575 H   0  0  0  0  0  0  0  0  0  0  0  0
  1  2  1  0
  2  3  1  0
  3  4  1  0
  4  5  1  0
  4  6  1  0
  3  7  1  0
  7  8  1  0
  8  9  2  0
  9 10  1  0
 10 11  1  0
 11 12  2  0
 12 13  1  0
 13 14  2  0
 14 15  1  0
 15 16  1  0
 16 17  1  0
 17 18  1  0
 18 19  1  0
 19 20  2  0
 20 21  1  0
 21 22  2  0
 22 23  1  0
 23 24  1  0
 24 25  1  0
 25 26  1  0
 26 27  1  0
 27 28  1  0
 28 29  1  1
 29 30  1  0
 30 31  1  0
 31 32  2  0
 32 33  1  0
 33 34  2  0
 28 35  1  0
 35 36  2  0
 36 37  1  0
 37 38  2  0
 38 39  1  0
 38 40  1  0
 40 41  2  0
 41 42  1  0
 28 43  1  0
 22 44  1  0
 44 45  2  0
 18 46  1  0
 46 47  1  0
 14 48  1  0
 48 49  2  0
 10 50  1  0
 50 51  2  0
 50  7  1  0
 49 11  1  0
 47 15  1  0
 45 19  1  0
 43 25  1  0
 34 30  1  0
 41 35  1  0
  1 52  1  0
  1 53  1  0
  1 54  1  0
  2 55  1  0
  2 56  1  0
  3 57  1  6
  4 58  1  1
  5 59  1  0
  5 60  1  0
  5 61  1  0
  6 62  1  0
  9 63  1  0
 12 64  1  0
 13 65  1  0
 16 66  1  0
 16 67  1  0
 17 68  1  0
 17 69  1  0
 20 70  1  0
 21 71  1  0
 24 72  1  0
 24 73  1  0
 25 74  1  6
 26 75  1  0
 26 76  1  0
 29 77  1  0
 29 78  1  0
 31 79  1  0
 33 80  1  0
 36 81  1  0
 37 82  1  0
 40 83  1  0
 43 84  1  0
 43 85  1  0
 44 86  1  0
 45 87  1  0
 46 88  1  0
 46 89  1  0
 47 90  1  0
 47 91  1  0
 48 92  1  0
 49 93  1  0
M  END
>  <meeko>  (5) 
{"is_sidechain": [false], "free_energy": -8.516, "intermolecular_energy": -15.104, "internal_energy": -1.53}

$$$$
REF_CHEMBL1397__M_PUB_ALL__e8__s20260927
     RDKit          3D

 93 99  0  0  0  0  0  0  0  0999 V2000
   -6.6570  -14.1680    7.9500 C   0  0  0  0  0  0  0  0  0  0  0  0
   -6.3130  -15.6440    7.7900 C   0  0  0  0  0  0  0  0  0  0  0  0
   -6.7770  -16.2200    6.4380 C   0  0  1  0  0  0  0  0  0  0  0  0
   -8.2940  -15.9860    6.2260 C   0  0  2  0  0  0  0  0  0  0  0  0
   -9.1590  -16.8600    7.1280 C   0  0  0  0  0  0  0  0  0  0  0  0
   -8.6680  -16.2340    4.8670 O   0  0  0  0  0  0  0  0  0  0  0  0
   -5.9980  -15.6580    5.3380 N   0  0  0  0  0  0  0  0  0  0  0  0
   -6.3960  -14.5590    4.6190 N   0  0  0  0  0  0  0  0  0  0  0  0
   -5.4280  -14.3900    3.7710 C   0  0  0  0  0  0  0  0  0  0  0  0
   -4.4080  -15.2750    3.8440 N   0  0  0  0  0  0  0  0  0  0  0  0
   -3.2430  -15.3140    3.0390 C   0  0  0  0  0  0  0  0  0  0  0  0
   -2.2960  -14.2860    3.0670 C   0  0  0  0  0  0  0  0  0  0  0  0
   -1.1420  -14.3340    2.2680 C   0  0  0  0  0  0  0  0  0  0  0  0
   -0.8740  -15.4060    1.4090 C   0  0  0  0  0  0  0  0  0  0  0  0
    0.2720  -15.4210    0.6270 N   0  0  0  0  0  0  0  0  0  0  0  0
    0.3660  -16.4370   -0.4440 C   0  0  0  0  0  0  0  0  0  0  0  0
    1.8310  -16.7060   -0.8560 C   0  0  0  0  0  0  0  0  0  0  0  0
    2.5530  -15.4550   -1.1530 N   0  0  0  0  0  0  0  0  0  0  0  0
    3.7060  -15.4740   -1.9290 C   0  0  0  0  0  0  0  0  0  0  0  0
    3.9730  -14.5150   -2.9170 C   0  0  0  0  0  0  0  0  0  0  0  0
    5.1460  -14.5460   -3.6870 C   0  0  0  0  0  0  0  0  0  0  0  0
    6.0920  -15.5450   -3.4810 C   0  0  0  0  0  0  0  0  0  0  0  0
    7.2700  -15.6960   -4.1560 O   0  0  0  0  0  0  0  0  0  0  0  0
    8.4720  -15.6130   -3.3910 C   0  0  0  0  0  0  0  0  0  0  0  0
    8.6410  -14.1640   -2.9190 C   0  0  2  0  0  0  0  0  0  0  0  0
    9.6120  -13.4150   -3.7970 C   0  0  0  0  0  0  0  0  0  0  0  0
   10.9110  -13.7310   -3.2850 O   0  0  0  0  0  0  0  0  0  0  0  0
   10.8270  -13.9530   -1.8530 C   0  0  1  0  0  0  0  0  0  0  0  0
   11.5210  -15.2930   -1.5010 C   0  0  0  0  0  0  0  0  0  0  0  0
   12.2670  -15.8920   -2.5900 N   0  0  0  0  0  0  0  0  0  0  0  0
   13.5970  -15.7740   -2.8580 C   0  0  0  0  0  0  0  0  0  0  0  0
   13.9100  -16.5350   -3.8800 N   0  0  0  0  0  0  0  0  0  0  0  0
   12.7230  -17.1340   -4.1890 C   0  0  0  0  0  0  0  0  0  0  0  0
   11.6930  -16.7950   -3.4100 N   0  0  0  0  0  0  0  0  0  0  0  0
   11.4720  -12.7830   -1.1090 C   0  0  0  0  0  0  0  0  0  0  0  0
   10.9390  -12.2840    0.0940 C   0  0  0  0  0  0  0  0  0  0  0  0
   11.5390  -11.2040    0.7460 C   0  0  0  0  0  0  0  0  0  0  0  0
   12.6730  -10.6140    0.2030 C   0  0  0  0  0  0  0  0  0  0  0  0
   13.2450   -9.5790    0.8320 F   0  0  0  0  0  0  0  0  0  0  0  0
   13.2180  -11.0740   -0.9860 C   0  0  0  0  0  0  0  0  0  0  0  0
   12.6120  -12.1480   -1.6300 C   0  0  0  0  0  0  0  0  0  0  0  0
   13.1310  -12.5690   -2.7910 F   0  0  0  0  0  0  0  0  0  0  0  0
    9.3080  -14.0340   -1.5570 C   0  0  0  0  0  0  0  0  0  0  0  0
    5.8530  -16.5020   -2.4980 C   0  0  0  0  0  0  0  0  0  0  0  0
    4.6800  -16.4630   -1.7340 C   0  0  0  0  0  0  0  0  0  0  0  0
    2.4640  -14.4420   -0.0790 C   0  0  0  0  0  0  0  0  0  0  0  0
    1.0000  -14.1720    0.3330 C   0  0  0  0  0  0  0  0  0  0  0  0
   -1.8310  -16.4240    1.3760 C   0  0  0  0  0  0  0  0  0  0  0  0
   -2.9890  -16.3850    2.1740 C   0  0  0  0  0  0  0  0  0  0  0  0
   -4.7600  -16.1310    4.8750 C   0  0  0  0  0  0  0  0  0  0  0  0
   -4.1700  -17.1010    5.3270 O   0  0  0  0  0  0  0  0  0  0  0  0
   -6.7151  -13.9189    9.0199 H   0  0  0  0  0  0  0  0  0  0  0  0
   -5.8774  -13.5560    7.4728 H   0  0  0  0  0  0  0  0  0  0  0  0
   -7.6268  -13.9637    7.4728 H   0  0  0  0  0  0  0  0  0  0  0  0
   -5.2220  -15.7613    7.8666 H   0  0  0  0  0  0  0  0  0  0  0  0
   -6.8383  -16.1954    8.5837 H   0  0  0  0  0  0  0  0  0  0  0  0
   -6.6044  -17.3063    6.4532 H   0  0  0  0  0  0  0  0  0  0  0  0
   -8.4708  -14.9319    6.4859 H   0  0  0  0  0  0  0  0  0  0  0  0
   -8.9355  -16.6342    8.1811 H   0  0  0  0  0  0  0  0  0  0  0  0
  -10.2211  -16.6563    6.9268 H   0  0  0  0  0  0  0  0  0  0  0  0
   -8.9444  -17.9199    6.9268 H   0  0  0  0  0  0  0  0  0  0  0  0
   -8.8360  -15.3480    4.4790 H   0  0  0  0  0  0  0  0  0  0  0  0
   -5.4368  -13.5730    3.0345 H   0  0  0  0  0  0  0  0  0  0  0  0
   -2.4580  -13.4220    3.7283 H   0  0  0  0  0  0  0  0  0  0  0  0
   -0.4249  -13.5014    2.3190 H   0  0  0  0  0  0  0  0  0  0  0  0
   -0.0803  -17.3757   -0.0839 H   0  0  0  0  0  0  0  0  0  0  0  0
   -0.1711  -16.0549   -1.3246 H   0  0  0  0  0  0  0  0  0  0  0  0
    2.3429  -17.2261   -0.0330 H   0  0  0  0  0  0  0  0  0  0  0  0
    1.8231  -17.3218   -1.7674 H   0  0  0  0  0  0  0  0  0  0  0  0
    3.2404  -13.7138   -3.0939 H   0  0  0  0  0  0  0  0  0  0  0  0
    5.3179  -13.7781   -4.4556 H   0  0  0  0  0  0  0  0  0  0  0  0
    8.4065  -16.2827   -2.5208 H   0  0  0  0  0  0  0  0  0  0  0  0
    9.3338  -15.9157   -4.0039 H   0  0  0  0  0  0  0  0  0  0  0  0
    7.6106  -13.7791   -2.9241 H   0  0  0  0  0  0  0  0  0  0  0  0
    9.5196  -13.7457   -4.8420 H   0  0  0  0  0  0  0  0  0  0  0  0
    9.4209  -12.3318   -3.7861 H   0  0  0  0  0  0  0  0  0  0  0  0
   12.2165  -15.1106   -0.6685 H   0  0  0  0  0  0  0  0  0  0  0  0
   10.7189  -16.0014   -1.2467 H   0  0  0  0  0  0  0  0  0  0  0  0
   14.3015  -15.1377   -2.3023 H   0  0  0  0  0  0  0  0  0  0  0  0
   12.6221  -17.8460   -5.0214 H   0  0  0  0  0  0  0  0  0  0  0  0
   10.0405  -12.7493    0.5255 H   0  0  0  0  0  0  0  0  0  0  0  0
   11.1147  -10.8222    1.6863 H   0  0  0  0  0  0  0  0  0  0  0  0
   14.1135  -10.5983   -1.4125 H   0  0  0  0  0  0  0  0  0  0  0  0
    9.0832  -14.9111   -0.9324 H   0  0  0  0  0  0  0  0  0  0  0  0
    8.9493  -13.1517   -1.0067 H   0  0  0  0  0  0  0  0  0  0  0  0
    6.5928  -17.2963   -2.3199 H   0  0  0  0  0  0  0  0  0  0  0  0
    4.5188  -17.2285   -0.9607 H   0  0  0  0  0  0  0  0  0  0  0  0
    3.0203  -14.8032    0.7985 H   0  0  0  0  0  0  0  0  0  0  0  0
    2.8920  -13.5023   -0.4582 H   0  0  0  0  0  0  0  0  0  0  0  0
    0.9947  -13.5374    1.2314 H   0  0  0  0  0  0  0  0  0  0  0  0
    0.4957  -13.6733   -0.5078 H   0  0  0  0  0  0  0  0  0  0  0  0
   -1.6740  -17.2819    0.7056 H   0  0  0  0  0  0  0  0  0  0  0  0
   -3.7102  -17.2137    2.1170 H   0  0  0  0  0  0  0  0  0  0  0  0
  1  2  1  0
  2  3  1  0
  3  4  1  0
  4  5  1  0
  4  6  1  0
  3  7  1  0
  7  8  1  0
  8  9  2  0
  9 10  1  0
 10 11  1  0
 11 12  2  0
 12 13  1  0
 13 14  2  0
 14 15  1  0
 15 16  1  0
 16 17  1  0
 17 18  1  0
 18 19  1  0
 19 20  2  0
 20 21  1  0
 21 22  2  0
 22 23  1  0
 23 24  1  0
 24 25  1  0
 25 26  1  0
 26 27  1  0
 27 28  1  0
 28 29  1  6
 29 30  1  0
 30 31  1  0
 31 32  2  0
 32 33  1  0
 33 34  2  0
 28 35  1  0
 35 36  2  0
 36 37  1  0
 37 38  2  0
 38 39  1  0
 38 40  1  0
 40 41  2  0
 41 42  1  0
 28 43  1  0
 22 44  1  0
 44 45  2  0
 18 46  1  0
 46 47  1  0
 14 48  1  0
 48 49  2  0
 10 50  1  0
 50 51  2  0
 50  7  1  0
 49 11  1  0
 47 15  1  0
 45 19  1  0
 43 25  1  0
 34 30  1  0
 41 35  1  0
  1 52  1  0
  1 53  1  0
  1 54  1  0
  2 55  1  0
  2 56  1  0
  3 57  1  1
  4 58  1  1
  5 59  1  0
  5 60  1  0
  5 61  1  0
  6 62  1  0
  9 63  1  0
 12 64  1  0
 13 65  1  0
 16 66  1  0
 16 67  1  0
 17 68  1  0
 17 69  1  0
 20 70  1  0
 21 71  1  0
 24 72  1  0
 24 73  1  0
 25 74  1  1
 26 75  1  0
 26 76  1  0
 29 77  1  0
 29 78  1  0
 31 79  1  0
 33 80  1  0
 36 81  1  0
 37 82  1  0
 40 83  1  0
 43 84  1  0
 43 85  1  0
 44 86  1  0
 45 87  1  0
 46 88  1  0
 46 89  1  0
 47 90  1  0
 47 91  1  0
 48 92  1  0
 49 93  1  0
M  END
>  <meeko>  (6) 
{"is_sidechain": [false], "free_energy": -8.477, "intermolecular_energy": -14.576, "internal_energy": -1.991}

$$$$
REF_CHEMBL1397__M_PUB_ALL__e8__s20260927
     RDKit          3D

 93 99  0  0  0  0  0  0  0  0999 V2000
  -12.0820  -15.0040    8.0380 C   0  0  0  0  0  0  0  0  0  0  0  0
  -11.3520  -16.3330    7.8880 C   0  0  0  0  0  0  0  0  0  0  0  0
   -9.8490  -16.2270    8.2140 C   0  0  1  0  0  0  0  0  0  0  0  0
   -9.4050  -17.3680    9.1630 C   0  0  2  0  0  0  0  0  0  0  0  0
  -10.5390  -17.8770   10.0460 C   0  0  0  0  0  0  0  0  0  0  0  0
   -8.3310  -16.9460   10.0080 O   0  0  0  0  0  0  0  0  0  0  0  0
   -9.0510  -16.2180    6.9910 N   0  0  0  0  0  0  0  0  0  0  0  0
   -9.4780  -16.7720    5.8090 N   0  0  0  0  0  0  0  0  0  0  0  0
   -8.4960  -16.5330    4.9950 C   0  0  0  0  0  0  0  0  0  0  0  0
   -7.4370  -15.8700    5.5130 N   0  0  0  0  0  0  0  0  0  0  0  0
   -6.2480  -15.4900    4.8440 C   0  0  0  0  0  0  0  0  0  0  0  0
   -6.1480  -14.2810    4.1510 C   0  0  0  0  0  0  0  0  0  0  0  0
   -4.9640  -13.9110    3.4920 C   0  0  0  0  0  0  0  0  0  0  0  0
   -3.8250  -14.7240    3.4960 C   0  0  0  0  0  0  0  0  0  0  0  0
   -2.6710  -14.3340    2.8300 N   0  0  0  0  0  0  0  0  0  0  0  0
   -1.9530  -15.3530    2.0340 C   0  0  0  0  0  0  0  0  0  0  0  0
   -0.4730  -14.9710    1.8110 C   0  0  0  0  0  0  0  0  0  0  0  0
   -0.3350  -13.5990    1.2890 N   0  0  0  0  0  0  0  0  0  0  0  0
    0.8250  -13.2080    0.6320 C   0  0  0  0  0  0  0  0  0  0  0  0
    2.0590  -13.8460    0.8240 C   0  0  0  0  0  0  0  0  0  0  0  0
    3.2200  -13.4410    0.1460 C   0  0  0  0  0  0  0  0  0  0  0  0
    3.1720  -12.3800   -0.7520 C   0  0  0  0  0  0  0  0  0  0  0  0
    4.2180  -11.8830   -1.4750 O   0  0  0  0  0  0  0  0  0  0  0  0
    5.3200  -12.7600   -1.7130 C   0  0  0  0  0  0  0  0  0  0  0  0
    6.4950  -11.9240   -2.2330 C   0  0  2  0  0  0  0  0  0  0  0  0
    7.1270  -12.5680   -3.4420 C   0  0  0  0  0  0  0  0  0  0  0  0
    8.0460  -13.5340   -2.9230 O   0  0  0  0  0  0  0  0  0  0  0  0
    8.5690  -13.0700   -1.6510 C   0  0  1  0  0  0  0  0  0  0  0  0
    8.4270  -14.1980   -0.5960 C   0  0  0  0  0  0  0  0  0  0  0  0
    8.5360  -15.5410   -1.1300 N   0  0  0  0  0  0  0  0  0  0  0  0
    9.6700  -16.2350   -1.4240 C   0  0  0  0  0  0  0  0  0  0  0  0
    9.3550  -17.4510   -1.8060 N   0  0  0  0  0  0  0  0  0  0  0  0
    7.9950  -17.4640   -1.6960 C   0  0  0  0  0  0  0  0  0  0  0  0
    7.4480  -16.3260   -1.2590 N   0  0  0  0  0  0  0  0  0  0  0  0
   10.0300  -12.6470   -1.8140 C   0  0  0  0  0  0  0  0  0  0  0  0
   10.6610  -12.6320   -3.0720 C   0  0  0  0  0  0  0  0  0  0  0  0
   12.0010  -12.2560   -3.1920 C   0  0  0  0  0  0  0  0  0  0  0  0
   12.7210  -11.8950   -2.0600 C   0  0  0  0  0  0  0  0  0  0  0  0
   14.0050  -11.5350   -2.1810 F   0  0  0  0  0  0  0  0  0  0  0  0
   12.1320  -11.9100   -0.8050 C   0  0  0  0  0  0  0  0  0  0  0  0
   10.7990  -12.2880   -0.6940 C   0  0  0  0  0  0  0  0  0  0  0  0
   10.2460  -12.3230    0.5260 F   0  0  0  0  0  0  0  0  0  0  0  0
    7.6770  -11.8610   -1.2760 C   0  0  0  0  0  0  0  0  0  0  0  0
    1.9550  -11.7390   -0.9670 C   0  0  0  0  0  0  0  0  0  0  0  0
    0.8010  -12.1500   -0.2870 C   0  0  0  0  0  0  0  0  0  0  0  0
   -1.0480  -12.5800    2.0900 C   0  0  0  0  0  0  0  0  0  0  0  0
   -2.5280  -12.9600    2.3130 C   0  0  0  0  0  0  0  0  0  0  0  0
   -3.9350  -15.9380    4.1790 C   0  0  0  0  0  0  0  0  0  0  0  0
   -5.1170  -16.3150    4.8430 C   0  0  0  0  0  0  0  0  0  0  0  0
   -7.7770  -15.6480    6.8380 C   0  0  0  0  0  0  0  0  0  0  0  0
   -7.1510  -15.0910    7.7270 O   0  0  0  0  0  0  0  0  0  0  0  0
  -12.2085  -14.7737    9.1061 H   0  0  0  0  0  0  0  0  0  0  0  0
  -11.4950  -14.2070    7.5581 H   0  0  0  0  0  0  0  0  0  0  0  0
  -13.0695  -15.0718    7.5581 H   0  0  0  0  0  0  0  0  0  0  0  0
  -11.8093  -17.0645    8.5705 H   0  0  0  0  0  0  0  0  0  0  0  0
  -11.4426  -16.6447    6.8370 H   0  0  0  0  0  0  0  0  0  0  0  0
   -9.6796  -15.2730    8.7348 H   0  0  0  0  0  0  0  0  0  0  0  0
   -9.0765  -18.1883    8.5079 H   0  0  0  0  0  0  0  0  0  0  0  0
  -10.2638  -17.7535   11.1038 H   0  0  0  0  0  0  0  0  0  0  0  0
  -11.4535  -17.3030    9.8356 H   0  0  0  0  0  0  0  0  0  0  0  0
  -10.7179  -18.9418    9.8356 H   0  0  0  0  0  0  0  0  0  0  0  0
   -7.6270  -17.6200    9.8890 H   0  0  0  0  0  0  0  0  0  0  0  0
   -8.5233  -16.8518    3.9426 H   0  0  0  0  0  0  0  0  0  0  0  0
   -7.0149  -13.6045    4.1208 H   0  0  0  0  0  0  0  0  0  0  0  0
   -4.9310  -12.9513    2.9555 H   0  0  0  0  0  0  0  0  0  0  0  0
   -1.9959  -16.3150    2.5658 H   0  0  0  0  0  0  0  0  0  0  0  0
   -2.4395  -15.4223    1.0499 H   0  0  0  0  0  0  0  0  0  0  0  0
    0.0617  -15.0428    2.7696 H   0  0  0  0  0  0  0  0  0  0  0  0
   -0.0488  -15.6637    1.0692 H   0  0  0  0  0  0  0  0  0  0  0  0
    2.1193  -14.6896    1.5273 H   0  0  0  0  0  0  0  0  0  0  0  0
    4.1706  -13.9646    0.3257 H   0  0  0  0  0  0  0  0  0  0  0  0
    5.6056  -13.2614   -0.7765 H   0  0  0  0  0  0  0  0  0  0  0  0
    5.0427  -13.5261   -2.4521 H   0  0  0  0  0  0  0  0  0  0  0  0
    6.0406  -10.9379   -2.4094 H   0  0  0  0  0  0  0  0  0  0  0  0
    6.3613  -13.0591   -4.0605 H   0  0  0  0  0  0  0  0  0  0  0  0
    7.6300  -11.8286   -4.0825 H   0  0  0  0  0  0  0  0  0  0  0  0
    9.2163  -14.0636    0.1583 H   0  0  0  0  0  0  0  0  0  0  0  0
    7.4127  -14.1095   -0.1797 H   0  0  0  0  0  0  0  0  0  0  0  0
   10.6933  -15.8377   -1.3524 H   0  0  0  0  0  0  0  0  0  0  0  0
    7.3919  -18.3484   -1.9491 H   0  0  0  0  0  0  0  0  0  0  0  0
   10.0934  -12.9192   -3.9694 H   0  0  0  0  0  0  0  0  0  0  0  0
   12.4847  -12.2458   -4.1799 H   0  0  0  0  0  0  0  0  0  0  0  0
   12.7096  -11.6276    0.0875 H   0  0  0  0  0  0  0  0  0  0  0  0
    7.3343  -11.9432   -0.2340 H   0  0  0  0  0  0  0  0  0  0  0  0
    8.2209  -10.9083   -1.3572 H   0  0  0  0  0  0  0  0  0  0  0  0
    1.8989  -10.9014   -1.6779 H   0  0  0  0  0  0  0  0  0  0  0  0
   -0.1484  -11.6289   -0.4794 H   0  0  0  0  0  0  0  0  0  0  0  0
   -0.5533  -12.4853    3.0679 H   0  0  0  0  0  0  0  0  0  0  0  0
   -1.0181  -11.6286    1.5387 H   0  0  0  0  0  0  0  0  0  0  0  0
   -2.9698  -12.2597    3.0372 H   0  0  0  0  0  0  0  0  0  0  0  0
   -3.0440  -12.9052    1.3431 H   0  0  0  0  0  0  0  0  0  0  0  0
   -3.0717  -16.6195    4.1982 H   0  0  0  0  0  0  0  0  0  0  0  0
   -5.1531  -17.2785    5.3725 H   0  0  0  0  0  0  0  0  0  0  0  0
  1  2  1  0
  2  3  1  0
  3  4  1  0
  4  5  1  0
  4  6  1  0
  3  7  1  0
  7  8  1  0
  8  9  2  0
  9 10  1  0
 10 11  1  0
 11 12  2  0
 12 13  1  0
 13 14  2  0
 14 15  1  0
 15 16  1  0
 16 17  1  0
 17 18  1  0
 18 19  1  0
 19 20  2  0
 20 21  1  0
 21 22  2  0
 22 23  1  0
 23 24  1  0
 24 25  1  0
 25 26  1  0
 26 27  1  0
 27 28  1  0
 28 29  1  1
 29 30  1  0
 30 31  1  0
 31 32  2  0
 32 33  1  0
 33 34  2  0
 28 35  1  0
 35 36  2  0
 36 37  1  0
 37 38  2  0
 38 39  1  0
 38 40  1  0
 40 41  2  0
 41 42  1  0
 28 43  1  0
 22 44  1  0
 44 45  2  0
 18 46  1  0
 46 47  1  0
 14 48  1  0
 48 49  2  0
 10 50  1  0
 50 51  2  0
 50  7  1  0
 49 11  1  0
 47 15  1  0
 45 19  1  0
 43 25  1  0
 34 30  1  0
 41 35  1  0
  1 52  1  0
  1 53  1  0
  1 54  1  0
  2 55  1  0
  2 56  1  0
  3 57  1  1
  4 58  1  6
  5 59  1  0
  5 60  1  0
  5 61  1  0
  6 62  1  0
  9 63  1  0
 12 64  1  0
 13 65  1  0
 16 66  1  0
 16 67  1  0
 17 68  1  0
 17 69  1  0
 20 70  1  0
 21 71  1  0
 24 72  1  0
 24 73  1  0
 25 74  1  6
 26 75  1  0
 26 76  1  0
 29 77  1  0
 29 78  1  0
 31 79  1  0
 33 80  1  0
 36 81  1  0
 37 82  1  0
 40 83  1  0
 43 84  1  0
 43 85  1  0
 44 86  1  0
 45 87  1  0
 46 88  1  0
 46 89  1  0
 47 90  1  0
 47 91  1  0
 48 92  1  0
 49 93  1  0
M  END
>  <meeko>  (7) 
{"is_sidechain": [false], "free_energy": -8.426, "intermolecular_energy": -14.646, "internal_energy": -1.831}

$$$$
REF_CHEMBL1397__M_PUB_ALL__e8__s20260927
     RDKit          3D

 93 99  0  0  0  0  0  0  0  0999 V2000
  -11.3570  -15.1140    8.4570 C   0  0  0  0  0  0  0  0  0  0  0  0
  -11.2870  -16.4230    7.6820 C   0  0  0  0  0  0  0  0  0  0  0  0
   -9.8800  -17.0540    7.7030 C   0  0  1  0  0  0  0  0  0  0  0  0
   -9.9670  -18.6000    7.7700 C   0  0  2  0  0  0  0  0  0  0  0  0
  -11.1110  -19.0910    8.6500 C   0  0  0  0  0  0  0  0  0  0  0  0
   -8.7470  -19.1620    8.2630 O   0  0  0  0  0  0  0  0  0  0  0  0
   -9.0970  -16.6190    6.5500 N   0  0  0  0  0  0  0  0  0  0  0  0
   -9.6500  -16.3510    5.3230 N   0  0  0  0  0  0  0  0  0  0  0  0
   -8.6290  -15.9860    4.6090 C   0  0  0  0  0  0  0  0  0  0  0  0
   -7.4310  -15.9840    5.2360 N   0  0  0  0  0  0  0  0  0  0  0  0
   -6.1730  -15.6330    4.6870 C   0  0  0  0  0  0  0  0  0  0  0  0
   -5.9600  -14.4000    4.0640 C   0  0  0  0  0  0  0  0  0  0  0  0
   -4.7090  -14.0600    3.5250 C   0  0  0  0  0  0  0  0  0  0  0  0
   -3.6120  -14.9260    3.5830 C   0  0  0  0  0  0  0  0  0  0  0  0
   -2.3890  -14.5640    3.0360 N   0  0  0  0  0  0  0  0  0  0  0  0
   -1.6070  -15.6060    2.3370 C   0  0  0  0  0  0  0  0  0  0  0  0
   -0.1060  -15.2470    2.2640 C   0  0  0  0  0  0  0  0  0  0  0  0
    0.1060  -13.8870    1.7360 N   0  0  0  0  0  0  0  0  0  0  0  0
    1.3330  -13.5220    1.1970 C   0  0  0  0  0  0  0  0  0  0  0  0
    2.5110  -14.2470    1.4320 C   0  0  0  0  0  0  0  0  0  0  0  0
    3.7420  -13.8680    0.8740 C   0  0  0  0  0  0  0  0  0  0  0  0
    3.8240  -12.7450    0.0550 C   0  0  0  0  0  0  0  0  0  0  0  0
    4.9500  -12.2640   -0.5490 O   0  0  0  0  0  0  0  0  0  0  0  0
    5.8690  -13.2240   -1.0700 C   0  0  0  0  0  0  0  0  0  0  0  0
    6.5330  -12.6250   -2.3150 C   0  0  2  0  0  0  0  0  0  0  0  0
    5.6270  -11.6220   -2.9850 C   0  0  0  0  0  0  0  0  0  0  0  0
    4.7580  -12.3920   -3.8220 O   0  0  0  0  0  0  0  0  0  0  0  0
    5.4580  -13.5740   -4.2900 C   0  0  1  0  0  0  0  0  0  0  0  0
    4.5820  -14.8260   -4.0280 C   0  0  0  0  0  0  0  0  0  0  0  0
    3.1810  -14.5430   -3.7800 N   0  0  0  0  0  0  0  0  0  0  0  0
    2.2400  -14.1330   -4.6740 C   0  0  0  0  0  0  0  0  0  0  0  0
    1.0700  -14.0680   -4.0830 N   0  0  0  0  0  0  0  0  0  0  0  0
    1.3460  -14.4860   -2.8140 C   0  0  0  0  0  0  0  0  0  0  0  0
    2.6200  -14.8160   -2.5860 N   0  0  0  0  0  0  0  0  0  0  0  0
    5.7820  -13.4280   -5.7780 C   0  0  0  0  0  0  0  0  0  0  0  0
    5.2990  -12.3490   -6.5400 C   0  0  0  0  0  0  0  0  0  0  0  0
    5.5970  -12.2470   -7.9010 C   0  0  0  0  0  0  0  0  0  0  0  0
    6.3770  -13.2220   -8.5110 C   0  0  0  0  0  0  0  0  0  0  0  0
    6.6610  -13.1190   -9.8160 F   0  0  0  0  0  0  0  0  0  0  0  0
    6.8600  -14.3030   -7.7910 C   0  0  0  0  0  0  0  0  0  0  0  0
    6.5560  -14.3980   -6.4380 C   0  0  0  0  0  0  0  0  0  0  0  0
    7.0060  -15.4610   -5.7560 F   0  0  0  0  0  0  0  0  0  0  0  0
    6.7510  -13.6280   -3.4400 C   0  0  0  0  0  0  0  0  0  0  0  0
    2.6650  -12.0180   -0.2010 C   0  0  0  0  0  0  0  0  0  0  0  0
    1.4410  -12.4030    0.3590 C   0  0  0  0  0  0  0  0  0  0  0  0
   -0.6720  -12.8440    2.4400 C   0  0  0  0  0  0  0  0  0  0  0  0
   -2.1730  -13.2010    2.5130 C   0  0  0  0  0  0  0  0  0  0  0  0
   -3.8340  -16.1630    4.1950 C   0  0  0  0  0  0  0  0  0  0  0  0
   -5.0830  -16.5110    4.7400 C   0  0  0  0  0  0  0  0  0  0  0  0
   -7.7100  -16.4020    6.5270 C   0  0  0  0  0  0  0  0  0  0  0  0
   -6.9620  -16.5670    7.4780 O   0  0  0  0  0  0  0  0  0  0  0  0
  -11.3457  -15.3259    9.5363 H   0  0  0  0  0  0  0  0  0  0  0  0
  -10.4911  -14.4873    8.1972 H   0  0  0  0  0  0  0  0  0  0  0  0
  -12.2848  -14.5833    8.1972 H   0  0  0  0  0  0  0  0  0  0  0  0
  -11.9980  -17.1341    8.1278 H   0  0  0  0  0  0  0  0  0  0  0  0
  -11.5356  -16.2015    6.6336 H   0  0  0  0  0  0  0  0  0  0  0  0
   -9.3640  -16.7073    8.6105 H   0  0  0  0  0  0  0  0  0  0  0  0
  -10.1531  -18.9320    6.7379 H   0  0  0  0  0  0  0  0  0  0  0  0
  -10.8360  -18.9730    9.7085 H   0  0  0  0  0  0  0  0  0  0  0  0
  -12.0154  -18.5018    8.4382 H   0  0  0  0  0  0  0  0  0  0  0  0
  -11.3070  -20.1525    8.4382 H   0  0  0  0  0  0  0  0  0  0  0  0
   -8.0660  -18.4680    8.1230 H   0  0  0  0  0  0  0  0  0  0  0  0
   -8.7327  -15.6947    3.5533 H   0  0  0  0  0  0  0  0  0  0  0  0
   -6.7897  -13.6812    3.9946 H   0  0  0  0  0  0  0  0  0  0  0  0
   -4.5874  -13.0798    3.0409 H   0  0  0  0  0  0  0  0  0  0  0  0
   -1.7193  -16.5575    2.8773 H   0  0  0  0  0  0  0  0  0  0  0  0
   -1.9889  -15.6869    1.3086 H   0  0  0  0  0  0  0  0  0  0  0  0
    0.3243  -15.3078    3.2745 H   0  0  0  0  0  0  0  0  0  0  0  0
    0.3833  -15.9587    1.5827 H   0  0  0  0  0  0  0  0  0  0  0  0
    2.4686  -15.1398    2.0732 H   0  0  0  0  0  0  0  0  0  0  0  0
    4.6448  -14.4601    1.0845 H   0  0  0  0  0  0  0  0  0  0  0  0
    6.6344  -13.4550   -0.3145 H   0  0  0  0  0  0  0  0  0  0  0  0
    5.3408  -14.1530   -1.3309 H   0  0  0  0  0  0  0  0  0  0  0  0
    7.4764  -12.2177   -1.9224 H   0  0  0  0  0  0  0  0  0  0  0  0
    5.0455  -11.0672   -2.2340 H   0  0  0  0  0  0  0  0  0  0  0  0
    6.1966  -10.8786   -3.5619 H   0  0  0  0  0  0  0  0  0  0  0  0
    4.6487  -15.4816   -4.9088 H   0  0  0  0  0  0  0  0  0  0  0  0
    4.9722  -15.2926   -3.1115 H   0  0  0  0  0  0  0  0  0  0  0  0
    2.4310  -13.8929   -5.7303 H   0  0  0  0  0  0  0  0  0  0  0  0
    0.5735  -14.5470   -2.0333 H   0  0  0  0  0  0  0  0  0  0  0  0
    4.6800  -11.5772   -6.0592 H   0  0  0  0  0  0  0  0  0  0  0  0
    5.2157  -11.3982   -8.4876 H   0  0  0  0  0  0  0  0  0  0  0  0
    7.4735  -15.0728   -8.2818 H   0  0  0  0  0  0  0  0  0  0  0  0
    6.9022  -14.6382   -3.0319 H   0  0  0  0  0  0  0  0  0  0  0  0
    7.6443  -13.3891   -4.0358 H   0  0  0  0  0  0  0  0  0  0  0  0
    2.7113  -11.1313   -0.8504 H   0  0  0  0  0  0  0  0  0  0  0  0
    0.5404  -11.8122    0.1357 H   0  0  0  0  0  0  0  0  0  0  0  0
   -0.2810  -12.7372    3.4626 H   0  0  0  0  0  0  0  0  0  0  0  0
   -0.5706  -11.9036    1.8784 H   0  0  0  0  0  0  0  0  0  0  0  0
   -2.6779  -12.4819    3.1747 H   0  0  0  0  0  0  0  0  0  0  0  0
   -2.5840  -13.1576    1.4936 H   0  0  0  0  0  0  0  0  0  0  0  0
   -3.0070  -16.8860    4.2521 H   0  0  0  0  0  0  0  0  0  0  0  0
   -5.2065  -17.4939    5.2182 H   0  0  0  0  0  0  0  0  0  0  0  0
  1  2  1  0
  2  3  1  0
  3  4  1  0
  4  5  1  0
  4  6  1  0
  3  7  1  0
  7  8  1  0
  8  9  2  0
  9 10  1  0
 10 11  1  0
 11 12  2  0
 12 13  1  0
 13 14  2  0
 14 15  1  0
 15 16  1  0
 16 17  1  0
 17 18  1  0
 18 19  1  0
 19 20  2  0
 20 21  1  0
 21 22  2  0
 22 23  1  0
 23 24  1  0
 24 25  1  0
 25 26  1  0
 26 27  1  0
 27 28  1  0
 28 29  1  6
 29 30  1  0
 30 31  1  0
 31 32  2  0
 32 33  1  0
 33 34  2  0
 28 35  1  0
 35 36  2  0
 36 37  1  0
 37 38  2  0
 38 39  1  0
 38 40  1  0
 40 41  2  0
 41 42  1  0
 28 43  1  0
 22 44  1  0
 44 45  2  0
 18 46  1  0
 46 47  1  0
 14 48  1  0
 48 49  2  0
 10 50  1  0
 50 51  2  0
 50  7  1  0
 49 11  1  0
 47 15  1  0
 45 19  1  0
 43 25  1  0
 34 30  1  0
 41 35  1  0
  1 52  1  0
  1 53  1  0
  1 54  1  0
  2 55  1  0
  2 56  1  0
  3 57  1  1
  4 58  1  6
  5 59  1  0
  5 60  1  0
  5 61  1  0
  6 62  1  0
  9 63  1  0
 12 64  1  0
 13 65  1  0
 16 66  1  0
 16 67  1  0
 17 68  1  0
 17 69  1  0
 20 70  1  0
 21 71  1  0
 24 72  1  0
 24 73  1  0
 25 74  1  1
 26 75  1  0
 26 76  1  0
 29 77  1  0
 29 78  1  0
 31 79  1  0
 33 80  1  0
 36 81  1  0
 37 82  1  0
 40 83  1  0
 43 84  1  0
 43 85  1  0
 44 86  1  0
 45 87  1  0
 46 88  1  0
 46 89  1  0
 47 90  1  0
 47 91  1  0
 48 92  1  0
 49 93  1  0
M  END
>  <meeko>  (8) 
{"is_sidechain": [false], "free_energy": -8.361, "intermolecular_energy": -14.104, "internal_energy": -2.262}

$$$$
REF_CHEMBL1397__M_PUB_ALL__e8__s20260927
     RDKit          3D

 93 99  0  0  0  0  0  0  0  0999 V2000
  -11.7410  -15.0570    8.9820 C   0  0  0  0  0  0  0  0  0  0  0  0
  -12.0240  -16.3690    8.2620 C   0  0  0  0  0  0  0  0  0  0  0  0
  -10.7860  -17.2850    8.1830 C   0  0  1  0  0  0  0  0  0  0  0  0
  -11.2000  -18.7770    8.1670 C   0  0  2  0  0  0  0  0  0  0  0  0
  -10.4350  -19.6140    9.1870 C   0  0  0  0  0  0  0  0  0  0  0  0
  -11.0010  -19.3530    6.8720 O   0  0  0  0  0  0  0  0  0  0  0  0
   -9.9680  -16.9520    7.0200 N   0  0  0  0  0  0  0  0  0  0  0  0
  -10.4840  -16.7800    5.7600 N   0  0  0  0  0  0  0  0  0  0  0  0
   -9.4410  -16.4840    5.0470 C   0  0  0  0  0  0  0  0  0  0  0  0
   -8.2600  -16.4430    5.7040 N   0  0  0  0  0  0  0  0  0  0  0  0
   -6.9840  -16.1500    5.1630 C   0  0  0  0  0  0  0  0  0  0  0  0
   -5.9880  -17.1240    5.0580 C   0  0  0  0  0  0  0  0  0  0  0  0
   -4.7270  -16.8260    4.5180 C   0  0  0  0  0  0  0  0  0  0  0  0
   -4.3990  -15.5470    4.0540 C   0  0  0  0  0  0  0  0  0  0  0  0
   -3.1410  -15.2810    3.5310 N   0  0  0  0  0  0  0  0  0  0  0  0
   -2.9830  -14.0740    2.6900 C   0  0  0  0  0  0  0  0  0  0  0  0
   -1.7520  -14.1790    1.7610 C   0  0  0  0  0  0  0  0  0  0  0  0
   -0.5350  -14.5520    2.5060 N   0  0  0  0  0  0  0  0  0  0  0  0
    0.7230  -14.2930    1.9760 C   0  0  0  0  0  0  0  0  0  0  0  0
    1.0300  -13.1080    1.2920 C   0  0  0  0  0  0  0  0  0  0  0  0
    2.3080  -12.8610    0.7680 C   0  0  0  0  0  0  0  0  0  0  0  0
    3.3220  -13.8010    0.9230 C   0  0  0  0  0  0  0  0  0  0  0  0
    4.6040  -13.6920    0.4660 O   0  0  0  0  0  0  0  0  0  0  0  0
    4.9140  -12.5520   -0.3360 C   0  0  0  0  0  0  0  0  0  0  0  0
    5.8080  -13.0080   -1.4940 C   0  0  2  0  0  0  0  0  0  0  0  0
    6.5050  -11.8360   -2.1390 C   0  0  0  0  0  0  0  0  0  0  0  0
    5.5640  -11.3040   -3.0780 O   0  0  0  0  0  0  0  0  0  0  0  0
    4.7320  -12.3760   -3.5910 C   0  0  1  0  0  0  0  0  0  0  0  0
    3.2410  -11.9700   -3.4720 C   0  0  0  0  0  0  0  0  0  0  0  0
    2.3040  -13.0710   -3.5790 N   0  0  0  0  0  0  0  0  0  0  0  0
    1.7630  -13.8100   -2.5710 C   0  0  0  0  0  0  0  0  0  0  0  0
    0.8930  -14.6590   -3.0660 N   0  0  0  0  0  0  0  0  0  0  0  0
    0.9120  -14.3730   -4.4000 C   0  0  0  0  0  0  0  0  0  0  0  0
    1.7390  -13.3890   -4.7610 N   0  0  0  0  0  0  0  0  0  0  0  0
    5.1090  -12.6740   -5.0440 C   0  0  0  0  0  0  0  0  0  0  0  0
    5.9290  -13.7640   -5.3880 C   0  0  0  0  0  0  0  0  0  0  0  0
    6.2710  -14.0060   -6.7210 C   0  0  0  0  0  0  0  0  0  0  0  0
    5.7990  -13.1610   -7.7180 C   0  0  0  0  0  0  0  0  0  0  0  0
    6.1290  -13.3980   -8.9950 F   0  0  0  0  0  0  0  0  0  0  0  0
    4.9970  -12.0730   -7.4120 C   0  0  0  0  0  0  0  0  0  0  0  0
    4.6650  -11.8380   -6.0820 C   0  0  0  0  0  0  0  0  0  0  0  0
    3.9100  -10.7690   -5.7930 F   0  0  0  0  0  0  0  0  0  0  0  0
    5.0400  -13.5860   -2.6750 C   0  0  0  0  0  0  0  0  0  0  0  0
    3.0440  -14.9800    1.6090 C   0  0  0  0  0  0  0  0  0  0  0  0
    1.7650  -15.2180    2.1290 C   0  0  0  0  0  0  0  0  0  0  0  0
   -0.6930  -15.7620    3.3420 C   0  0  0  0  0  0  0  0  0  0  0  0
   -1.9220  -15.6590    4.2710 C   0  0  0  0  0  0  0  0  0  0  0  0
   -5.3940  -14.5720    4.1740 C   0  0  0  0  0  0  0  0  0  0  0  0
   -6.6610  -14.8640    4.7120 C   0  0  0  0  0  0  0  0  0  0  0  0
   -8.5780  -16.7510    7.0170 C   0  0  0  0  0  0  0  0  0  0  0  0
   -7.8570  -16.8450    7.9990 O   0  0  0  0  0  0  0  0  0  0  0  0
  -11.7762  -15.2204   10.0692 H   0  0  0  0  0  0  0  0  0  0  0  0
  -10.7432  -14.6909    8.6984 H   0  0  0  0  0  0  0  0  0  0  0  0
  -12.4991  -14.3122    8.6984 H   0  0  0  0  0  0  0  0  0  0  0  0
  -12.8214  -16.9012    8.8013 H   0  0  0  0  0  0  0  0  0  0  0  0
  -12.3220  -16.1244    7.2318 H   0  0  0  0  0  0  0  0  0  0  0  0
  -10.1778  -17.1163    9.0839 H   0  0  0  0  0  0  0  0  0  0  0  0
  -12.2674  -18.7915    8.4324 H   0  0  0  0  0  0  0  0  0  0  0  0
  -10.7190  -19.3033   10.2033 H   0  0  0  0  0  0  0  0  0  0  0  0
  -10.6801  -20.6771    9.0467 H   0  0  0  0  0  0  0  0  0  0  0  0
   -9.3542  -19.4653    9.0467 H   0  0  0  0  0  0  0  0  0  0  0  0
  -11.7230  -18.9910    6.3140 H   0  0  0  0  0  0  0  0  0  0  0  0
   -9.5136  -16.2781    3.9689 H   0  0  0  0  0  0  0  0  0  0  0  0
   -6.1964  -18.1465    5.4060 H   0  0  0  0  0  0  0  0  0  0  0  0
   -3.9721  -17.6237    4.4576 H   0  0  0  0  0  0  0  0  0  0  0  0
   -3.8851  -13.9493    2.0730 H   0  0  0  0  0  0  0  0  0  0  0  0
   -2.8367  -13.2103    3.3553 H   0  0  0  0  0  0  0  0  0  0  0  0
   -1.9485  -14.9429    0.9943 H   0  0  0  0  0  0  0  0  0  0  0  0
   -1.5841  -13.1933    1.3025 H   0  0  0  0  0  0  0  0  0  0  0  0
    0.2448  -12.3487    1.1622 H   0  0  0  0  0  0  0  0  0  0  0  0
    2.5089  -11.9211    0.2329 H   0  0  0  0  0  0  0  0  0  0  0  0
    3.9867  -12.1127   -0.7325 H   0  0  0  0  0  0  0  0  0  0  0  0
    5.4332  -11.7932    0.2679 H   0  0  0  0  0  0  0  0  0  0  0  0
    6.4719  -13.7454   -1.0192 H   0  0  0  0  0  0  0  0  0  0  0  0
    6.7648  -11.0795   -1.3838 H   0  0  0  0  0  0  0  0  0  0  0  0
    7.4443  -12.1363   -2.6265 H   0  0  0  0  0  0  0  0  0  0  0  0
    3.0938  -11.4884   -2.4941 H   0  0  0  0  0  0  0  0  0  0  0  0
    3.0323  -11.3003   -4.3194 H   0  0  0  0  0  0  0  0  0  0  0  0
    2.0164  -13.7106   -1.5052 H   0  0  0  0  0  0  0  0  0  0  0  0
    0.2896  -14.9152   -5.1271 H   0  0  0  0  0  0  0  0  0  0  0  0
    6.3048  -14.4327   -4.5996 H   0  0  0  0  0  0  0  0  0  0  0  0
    6.9113  -14.8620   -6.9801 H   0  0  0  0  0  0  0  0  0  0  0  0
    4.6296  -11.4072   -8.2068 H   0  0  0  0  0  0  0  0  0  0  0  0
    4.1072  -14.0590   -2.3342 H   0  0  0  0  0  0  0  0  0  0  0  0
    5.6162  -14.3624   -3.1996 H   0  0  0  0  0  0  0  0  0  0  0  0
    3.8357  -15.7316    1.7440 H   0  0  0  0  0  0  0  0  0  0  0  0
    1.5735  -16.1555    2.6716 H   0  0  0  0  0  0  0  0  0  0  0  0
   -0.8153  -16.6356    2.6849 H   0  0  0  0  0  0  0  0  0  0  0  0
    0.2040  -15.8635    3.9706 H   0  0  0  0  0  0  0  0  0  0  0  0
   -2.0864  -16.6342    4.7526 H   0  0  0  0  0  0  0  0  0  0  0  0
   -1.7202  -14.8769    5.0177 H   0  0  0  0  0  0  0  0  0  0  0  0
   -5.1800  -13.5467    3.8380 H   0  0  0  0  0  0  0  0  0  0  0  0
   -7.4140  -14.0650    4.7798 H   0  0  0  0  0  0  0  0  0  0  0  0
  1  2  1  0
  2  3  1  0
  3  4  1  0
  4  5  1  0
  4  6  1  0
  3  7  1  0
  7  8  1  0
  8  9  2  0
  9 10  1  0
 10 11  1  0
 11 12  2  0
 12 13  1  0
 13 14  2  0
 14 15  1  0
 15 16  1  0
 16 17  1  0
 17 18  1  0
 18 19  1  0
 19 20  2  0
 20 21  1  0
 21 22  2  0
 22 23  1  0
 23 24  1  0
 24 25  1  0
 25 26  1  0
 26 27  1  0
 27 28  1  0
 28 29  1  6
 29 30  1  0
 30 31  1  0
 31 32  2  0
 32 33  1  0
 33 34  2  0
 28 35  1  0
 35 36  2  0
 36 37  1  0
 37 38  2  0
 38 39  1  0
 38 40  1  0
 40 41  2  0
 41 42  1  0
 28 43  1  0
 22 44  1  0
 44 45  2  0
 18 46  1  0
 46 47  1  0
 14 48  1  0
 48 49  2  0
 10 50  1  0
 50 51  2  0
 50  7  1  0
 49 11  1  0
 47 15  1  0
 45 19  1  0
 43 25  1  0
 34 30  1  0
 41 35  1  0
  1 52  1  0
  1 53  1  0
  1 54  1  0
  2 55  1  0
  2 56  1  0
  3 57  1  1
  4 58  1  1
  5 59  1  0
  5 60  1  0
  5 61  1  0
  6 62  1  0
  9 63  1  0
 12 64  1  0
 13 65  1  0
 16 66  1  0
 16 67  1  0
 17 68  1  0
 17 69  1  0
 20 70  1  0
 21 71  1  0
 24 72  1  0
 24 73  1  0
 25 74  1  1
 26 75  1  0
 26 76  1  0
 29 77  1  0
 29 78  1  0
 31 79  1  0
 33 80  1  0
 36 81  1  0
 37 82  1  0
 40 83  1  0
 43 84  1  0
 43 85  1  0
 44 86  1  0
 45 87  1  0
 46 88  1  0
 46 89  1  0
 47 90  1  0
 47 91  1  0
 48 92  1  0
 49 93  1  0
M  END
>  <meeko>  (9) 
{"is_sidechain": [false], "free_energy": -8.333, "intermolecular_energy": -14.343, "internal_energy": -1.976}

$$$$
