REF_DENATONIUM_GTOP12433__M_PUB_ALL__e8__s20260927
     RDKit          3D

 53 54  0  0  0  0  0  0  0  0999 V2000
    4.4050  -12.9040    0.2140 C   0  0  0  0  0  0  0  0  0  0  0  0
    4.0260  -13.5280   -1.1200 C   0  0  0  0  0  0  0  0  0  0  0  0
    2.6340  -14.2080   -1.1190 N   0  0  0  0  0  0  0  0  0  0  0  0
    2.6790  -15.6440   -1.6720 C   0  0  0  0  0  0  0  0  0  0  0  0
    4.0540  -16.1040   -2.1290 C   0  0  0  0  0  0  0  0  0  0  0  0
    2.0680  -14.3120    0.3530 C   0  0  0  0  0  0  0  0  0  0  0  0
    0.7210  -13.6280    0.6460 C   0  0  0  0  0  0  0  0  0  0  0  0
   -0.3390  -14.1530    0.3200 O   0  0  0  0  0  0  0  0  0  0  0  0
    0.8640  -12.3850    1.2420 N   0  0  0  0  0  0  0  0  0  0  0  0
   -0.1770  -11.5330    1.6960 C   0  0  0  0  0  0  0  0  0  0  0  0
   -0.9450  -11.7700    2.8560 C   0  0  0  0  0  0  0  0  0  0  0  0
   -0.6930  -12.8730    3.8480 C   0  0  0  0  0  0  0  0  0  0  0  0
   -1.9970  -10.8890    3.1740 C   0  0  0  0  0  0  0  0  0  0  0  0
   -2.2480   -9.7570    2.4090 C   0  0  0  0  0  0  0  0  0  0  0  0
   -1.4450   -9.4790    1.3120 C   0  0  0  0  0  0  0  0  0  0  0  0
   -0.4080  -10.3510    0.9430 C   0  0  0  0  0  0  0  0  0  0  0  0
    0.3980   -9.9930   -0.2800 C   0  0  0  0  0  0  0  0  0  0  0  0
    1.6990  -13.2910   -1.9810 C   0  0  0  0  0  0  0  0  0  0  0  0
    2.3440  -12.4630   -3.0660 C   0  0  0  0  0  0  0  0  0  0  0  0
    2.8940  -13.0880   -4.1980 C   0  0  0  0  0  0  0  0  0  0  0  0
    3.5080  -12.3370   -5.2030 C   0  0  0  0  0  0  0  0  0  0  0  0
    3.5680  -10.9510   -5.0980 C   0  0  0  0  0  0  0  0  0  0  0  0
    3.0030  -10.3130   -3.9970 C   0  0  0  0  0  0  0  0  0  0  0  0
    2.3890  -11.0620   -2.9900 C   0  0  0  0  0  0  0  0  0  0  0  0
    4.0241  -13.5311    1.0335 H   0  0  0  0  0  0  0  0  0  0  0  0
    5.5002  -12.8310    0.2867 H   0  0  0  0  0  0  0  0  0  0  0  0
    3.9649  -11.8985    0.2867 H   0  0  0  0  0  0  0  0  0  0  0  0
    4.0253  -12.7375   -1.8850 H   0  0  0  0  0  0  0  0  0  0  0  0
    4.7666  -14.3143   -1.3279 H   0  0  0  0  0  0  0  0  0  0  0  0
    2.3340  -16.3269   -0.8816 H   0  0  0  0  0  0  0  0  0  0  0  0
    2.0347  -15.6548   -2.5635 H   0  0  0  0  0  0  0  0  0  0  0  0
    4.6813  -16.3139   -1.2501 H   0  0  0  0  0  0  0  0  0  0  0  0
    3.9529  -17.0172   -2.7338 H   0  0  0  0  0  0  0  0  0  0  0  0
    4.5228  -15.3137   -2.7338 H   0  0  0  0  0  0  0  0  0  0  0  0
    1.9527  -15.3806    0.5870 H   0  0  0  0  0  0  0  0  0  0  0  0
    2.7979  -13.7708    0.9729 H   0  0  0  0  0  0  0  0  0  0  0  0
    1.7760  -11.9480    1.2020 H   0  0  0  0  0  0  0  0  0  0  0  0
   -0.7839  -12.4752    4.8695 H   0  0  0  0  0  0  0  0  0  0  0  0
   -1.4310  -13.6751    3.6998 H   0  0  0  0  0  0  0  0  0  0  0  0
    0.3201  -13.2750    3.6998 H   0  0  0  0  0  0  0  0  0  0  0  0
   -2.6329  -11.1017    4.0460 H   0  0  0  0  0  0  0  0  0  0  0  0
   -3.0784   -9.0850    2.6713 H   0  0  0  0  0  0  0  0  0  0  0  0
   -1.6227   -8.5658    0.7251 H   0  0  0  0  0  0  0  0  0  0  0  0
    1.3628   -9.5645    0.0292 H   0  0  0  0  0  0  0  0  0  0  0  0
    0.5742  -10.8975   -0.8807 H   0  0  0  0  0  0  0  0  0  0  0  0
   -0.1550   -9.2559   -0.8807 H   0  0  0  0  0  0  0  0  0  0  0  0
    0.9525  -13.9404   -2.4617 H   0  0  0  0  0  0  0  0  0  0  0  0
    1.2942  -12.5557   -1.2701 H   0  0  0  0  0  0  0  0  0  0  0  0
    2.8403  -14.1825   -4.2939 H   0  0  0  0  0  0  0  0  0  0  0  0
    3.9442  -12.8416   -6.0777 H   0  0  0  0  0  0  0  0  0  0  0  0
    4.0612  -10.3600   -5.8838 H   0  0  0  0  0  0  0  0  0  0  0  0
    3.0401   -9.2163   -3.9198 H   0  0  0  0  0  0  0  0  0  0  0  0
    1.9363  -10.5487   -2.1289 H   0  0  0  0  0  0  0  0  0  0  0  0
  1  2  1  0
  2  3  1  0
  3  4  1  0
  4  5  1  0
  3  6  1  0
  6  7  1  0
  7  8  2  0
  7  9  1  0
  9 10  1  0
 10 11  2  0
 11 12  1  0
 11 13  1  0
 13 14  2  0
 14 15  1  0
 15 16  2  0
 16 17  1  0
  3 18  1  0
 18 19  1  0
 19 20  2  0
 20 21  1  0
 21 22  2  0
 22 23  1  0
 23 24  2  0
 16 10  1  0
 24 19  1  0
  1 25  1  0
  1 26  1  0
  1 27  1  0
  2 28  1  0
  2 29  1  0
  4 30  1  0
  4 31  1  0
  5 32  1  0
  5 33  1  0
  5 34  1  0
  6 35  1  0
  6 36  1  0
  9 37  1  0
 12 38  1  0
 12 39  1  0
 12 40  1  0
 13 41  1  0
 14 42  1  0
 15 43  1  0
 17 44  1  0
 17 45  1  0
 17 46  1  0
 18 47  1  0
 18 48  1  0
 20 49  1  0
 21 50  1  0
 22 51  1  0
 23 52  1  0
 24 53  1  0
M  CHG  1   3   1
M  END
>  <meeko>  (1) 
{"is_sidechain": [false], "free_energy": -6.397, "intermolecular_energy": -9.015, "internal_energy": -0.897}

$$$$
REF_DENATONIUM_GTOP12433__M_PUB_ALL__e8__s20260927
     RDKit          3D

 53 54  0  0  0  0  0  0  0  0999 V2000
   13.5890  -10.7010   16.5240 C   0  0  0  0  0  0  0  0  0  0  0  0
   13.9020   -9.9920   15.2170 C   0  0  0  0  0  0  0  0  0  0  0  0
   12.8160   -8.9770   14.7800 N   0  0  0  0  0  0  0  0  0  0  0  0
   11.6020   -8.9670   15.7280 C   0  0  0  0  0  0  0  0  0  0  0  0
   10.2590   -9.1530   15.0380 C   0  0  0  0  0  0  0  0  0  0  0  0
   13.3980   -7.5070   14.7820 C   0  0  0  0  0  0  0  0  0  0  0  0
   14.8730   -7.3270   14.3860 C   0  0  0  0  0  0  0  0  0  0  0  0
   15.7070   -6.9540   15.2040 O   0  0  0  0  0  0  0  0  0  0  0  0
   15.1050   -7.5740   13.0420 N   0  0  0  0  0  0  0  0  0  0  0  0
   16.3600   -7.5580   12.3770 C   0  0  0  0  0  0  0  0  0  0  0  0
   17.3080   -8.6020   12.4510 C   0  0  0  0  0  0  0  0  0  0  0  0
   17.0810   -9.9280   13.1240 C   0  0  0  0  0  0  0  0  0  0  0  0
   18.5480   -8.4500   11.8010 C   0  0  0  0  0  0  0  0  0  0  0  0
   18.8290   -7.3250   11.0340 C   0  0  0  0  0  0  0  0  0  0  0  0
   17.8700   -6.3320   10.8960 C   0  0  0  0  0  0  0  0  0  0  0  0
   16.6340   -6.4330   11.5560 C   0  0  0  0  0  0  0  0  0  0  0  0
   15.6590   -5.2960   11.3790 C   0  0  0  0  0  0  0  0  0  0  0  0
   12.4020   -9.3790   13.3230 C   0  0  0  0  0  0  0  0  0  0  0  0
   12.7830  -10.7610   12.8470 C   0  0  0  0  0  0  0  0  0  0  0  0
   12.0590  -11.8820   13.2840 C   0  0  0  0  0  0  0  0  0  0  0  0
   12.4090  -13.1670   12.8660 C   0  0  0  0  0  0  0  0  0  0  0  0
   13.4770  -13.3490   11.9930 C   0  0  0  0  0  0  0  0  0  0  0  0
   14.1890  -12.2460   11.5270 C   0  0  0  0  0  0  0  0  0  0  0  0
   13.8400  -10.9590   11.9450 C   0  0  0  0  0  0  0  0  0  0  0  0
   13.8737  -10.0560   17.3683 H   0  0  0  0  0  0  0  0  0  0  0  0
   12.5117  -10.9174   16.5749 H   0  0  0  0  0  0  0  0  0  0  0  0
   14.1550  -11.6428   16.5749 H   0  0  0  0  0  0  0  0  0  0  0  0
   14.8535   -9.4527   15.3343 H   0  0  0  0  0  0  0  0  0  0  0  0
   13.9498  -10.7657   14.4365 H   0  0  0  0  0  0  0  0  0  0  0  0
   11.7290   -9.7810   16.4569 H   0  0  0  0  0  0  0  0  0  0  0  0
   11.5781   -7.9709   16.1940 H   0  0  0  0  0  0  0  0  0  0  0  0
    9.4694   -9.2624   15.7960 H   0  0  0  0  0  0  0  0  0  0  0  0
   10.0451   -8.2759   14.4096 H   0  0  0  0  0  0  0  0  0  0  0  0
   10.2915  -10.0552   14.4096 H   0  0  0  0  0  0  0  0  0  0  0  0
   12.7937   -6.9124   14.0811 H   0  0  0  0  0  0  0  0  0  0  0  0
   13.3491   -7.1876   15.8335 H   0  0  0  0  0  0  0  0  0  0  0  0
   14.3040   -7.5970   12.4240 H   0  0  0  0  0  0  0  0  0  0  0  0
   17.1040   -9.7939   14.2156 H   0  0  0  0  0  0  0  0  0  0  0  0
   16.1013  -10.3283   12.8243 H   0  0  0  0  0  0  0  0  0  0  0  0
   17.8718  -10.6314   12.8243 H   0  0  0  0  0  0  0  0  0  0  0  0
   19.3096   -9.2372   11.9022 H   0  0  0  0  0  0  0  0  0  0  0  0
   19.8062   -7.2228   10.5394 H   0  0  0  0  0  0  0  0  0  0  0  0
   18.0796   -5.4568   10.2634 H   0  0  0  0  0  0  0  0  0  0  0  0
   15.3427   -4.9272   12.3659 H   0  0  0  0  0  0  0  0  0  0  0  0
   16.1434   -4.4811   10.8210 H   0  0  0  0  0  0  0  0  0  0  0  0
   14.7798   -5.6504   10.8210 H   0  0  0  0  0  0  0  0  0  0  0  0
   11.3070   -9.2979   13.2572 H   0  0  0  0  0  0  0  0  0  0  0  0
   12.9641   -8.6931   12.6721 H   0  0  0  0  0  0  0  0  0  0  0  0
   11.2053  -11.7458   13.9642 H   0  0  0  0  0  0  0  0  0  0  0  0
   11.8400  -14.0364   13.2271 H   0  0  0  0  0  0  0  0  0  0  0  0
   13.7588  -14.3624   11.6712 H   0  0  0  0  0  0  0  0  0  0  0  0
   15.0272  -12.3883   10.8290 H   0  0  0  0  0  0  0  0  0  0  0  0
   14.3994  -10.0922   11.5632 H   0  0  0  0  0  0  0  0  0  0  0  0
  1  2  1  0
  2  3  1  0
  3  4  1  0
  4  5  1  0
  3  6  1  0
  6  7  1  0
  7  8  2  0
  7  9  1  0
  9 10  1  0
 10 11  2  0
 11 12  1  0
 11 13  1  0
 13 14  2  0
 14 15  1  0
 15 16  2  0
 16 17  1  0
  3 18  1  0
 18 19  1  0
 19 20  2  0
 20 21  1  0
 21 22  2  0
 22 23  1  0
 23 24  2  0
 16 10  1  0
 24 19  1  0
  1 25  1  0
  1 26  1  0
  1 27  1  0
  2 28  1  0
  2 29  1  0
  4 30  1  0
  4 31  1  0
  5 32  1  0
  5 33  1  0
  5 34  1  0
  6 35  1  0
  6 36  1  0
  9 37  1  0
 12 38  1  0
 12 39  1  0
 12 40  1  0
 13 41  1  0
 14 42  1  0
 15 43  1  0
 17 44  1  0
 17 45  1  0
 17 46  1  0
 18 47  1  0
 18 48  1  0
 20 49  1  0
 21 50  1  0
 22 51  1  0
 23 52  1  0
 24 53  1  0
M  CHG  1   3   1
M  END
>  <meeko>  (2) 
{"is_sidechain": [false], "free_energy": -6.303, "intermolecular_energy": -8.703, "internal_energy": -1.077}

$$$$
REF_DENATONIUM_GTOP12433__M_PUB_ALL__e8__s20260927
     RDKit          3D

 53 54  0  0  0  0  0  0  0  0999 V2000
   17.3080  -10.2690   12.8780 C   0  0  0  0  0  0  0  0  0  0  0  0
   16.1060   -9.5880   13.5110 C   0  0  0  0  0  0  0  0  0  0  0  0
   15.5080   -8.4470   12.6510 N   0  0  0  0  0  0  0  0  0  0  0  0
   14.7630   -7.3980   13.4970 C   0  0  0  0  0  0  0  0  0  0  0  0
   14.7970   -7.6520   14.9950 C   0  0  0  0  0  0  0  0  0  0  0  0
   16.6530   -7.6730   11.8840 C   0  0  0  0  0  0  0  0  0  0  0  0
   17.4350   -6.6040   12.6660 C   0  0  0  0  0  0  0  0  0  0  0  0
   18.1140   -6.9050   13.6430 O   0  0  0  0  0  0  0  0  0  0  0  0
   17.2330   -5.3220   12.1800 N   0  0  0  0  0  0  0  0  0  0  0  0
   17.8550   -4.1300   12.6350 C   0  0  0  0  0  0  0  0  0  0  0  0
   19.1900   -3.7730   12.3450 C   0  0  0  0  0  0  0  0  0  0  0  0
   20.1010   -4.5230   11.4110 C   0  0  0  0  0  0  0  0  0  0  0  0
   19.7230   -2.5950   12.9050 C   0  0  0  0  0  0  0  0  0  0  0  0
   18.9410   -1.7450   13.6780 C   0  0  0  0  0  0  0  0  0  0  0  0
   17.6070   -2.0540   13.9010 C   0  0  0  0  0  0  0  0  0  0  0  0
   17.0490   -3.2360   13.3870 C   0  0  0  0  0  0  0  0  0  0  0  0
   15.6000   -3.5130   13.7020 C   0  0  0  0  0  0  0  0  0  0  0  0
   14.5510   -9.1340   11.6160 C   0  0  0  0  0  0  0  0  0  0  0  0
   13.7660  -10.3350   12.0860 C   0  0  0  0  0  0  0  0  0  0  0  0
   14.0200  -11.6030   11.5370 C   0  0  0  0  0  0  0  0  0  0  0  0
   13.2920  -12.7200   11.9500 C   0  0  0  0  0  0  0  0  0  0  0  0
   12.3110  -12.5900   12.9280 C   0  0  0  0  0  0  0  0  0  0  0  0
   12.0650  -11.3460   13.5040 C   0  0  0  0  0  0  0  0  0  0  0  0
   12.7920  -10.2260   13.0920 C   0  0  0  0  0  0  0  0  0  0  0  0
   17.9739  -10.6463   13.6681 H   0  0  0  0  0  0  0  0  0  0  0  0
   16.9674  -11.1083   12.2538 H   0  0  0  0  0  0  0  0  0  0  0  0
   17.8528   -9.5454   12.2538 H   0  0  0  0  0  0  0  0  0  0  0  0
   15.3248  -10.3450   13.6741 H   0  0  0  0  0  0  0  0  0  0  0  0
   16.4540   -9.1324   14.4498 H   0  0  0  0  0  0  0  0  0  0  0  0
   15.2195   -6.4157   13.3053 H   0  0  0  0  0  0  0  0  0  0  0  0
   13.7061   -7.4492   13.1964 H   0  0  0  0  0  0  0  0  0  0  0  0
   14.6696   -6.7001   15.5313 H   0  0  0  0  0  0  0  0  0  0  0  0
   13.9828   -8.3390   15.2690 H   0  0  0  0  0  0  0  0  0  0  0  0
   15.7632   -8.1007   15.2690 H   0  0  0  0  0  0  0  0  0  0  0  0
   17.3788   -8.4215   11.5334 H   0  0  0  0  0  0  0  0  0  0  0  0
   16.1320   -7.1153   11.0918 H   0  0  0  0  0  0  0  0  0  0  0  0
   16.4450   -5.1740   11.5620 H   0  0  0  0  0  0  0  0  0  0  0  0
   20.8199   -5.1148   11.9966 H   0  0  0  0  0  0  0  0  0  0  0  0
   19.5037   -5.1946   10.7768 H   0  0  0  0  0  0  0  0  0  0  0  0
   20.6454   -3.8078   10.7768 H   0  0  0  0  0  0  0  0  0  0  0  0
   20.7789   -2.3432   12.7269 H   0  0  0  0  0  0  0  0  0  0  0  0
   19.3772   -0.8325   14.1105 H   0  0  0  0  0  0  0  0  0  0  0  0
   16.9796   -1.3659   14.4866 H   0  0  0  0  0  0  0  0  0  0  0  0
   15.4605   -3.5397   14.7928 H   0  0  0  0  0  0  0  0  0  0  0  0
   14.9728   -2.7185   13.2715 H   0  0  0  0  0  0  0  0  0  0  0  0
   15.3101   -4.4828   13.2715 H   0  0  0  0  0  0  0  0  0  0  0  0
   13.8266   -8.3762   11.2829 H   0  0  0  0  0  0  0  0  0  0  0  0
   15.2174   -9.5229   10.8320 H   0  0  0  0  0  0  0  0  0  0  0  0
   14.8023  -11.7169   10.7722 H   0  0  0  0  0  0  0  0  0  0  0  0
   13.4941  -13.7040   11.5018 H   0  0  0  0  0  0  0  0  0  0  0  0
   11.7304  -13.4686   13.2459 H   0  0  0  0  0  0  0  0  0  0  0  0
   11.2968  -11.2449   14.2848 H   0  0  0  0  0  0  0  0  0  0  0  0
   12.5996   -9.2494   13.5602 H   0  0  0  0  0  0  0  0  0  0  0  0
  1  2  1  0
  2  3  1  0
  3  4  1  0
  4  5  1  0
  3  6  1  0
  6  7  1  0
  7  8  2  0
  7  9  1  0
  9 10  1  0
 10 11  2  0
 11 12  1  0
 11 13  1  0
 13 14  2  0
 14 15  1  0
 15 16  2  0
 16 17  1  0
  3 18  1  0
 18 19  1  0
 19 20  2  0
 20 21  1  0
 21 22  2  0
 22 23  1  0
 23 24  2  0
 16 10  1  0
 24 19  1  0
  1 25  1  0
  1 26  1  0
  1 27  1  0
  2 28  1  0
  2 29  1  0
  4 30  1  0
  4 31  1  0
  5 32  1  0
  5 33  1  0
  5 34  1  0
  6 35  1  0
  6 36  1  0
  9 37  1  0
 12 38  1  0
 12 39  1  0
 12 40  1  0
 13 41  1  0
 14 42  1  0
 15 43  1  0
 17 44  1  0
 17 45  1  0
 17 46  1  0
 18 47  1  0
 18 48  1  0
 20 49  1  0
 21 50  1  0
 22 51  1  0
 23 52  1  0
 24 53  1  0
M  CHG  1   3   1
M  END
>  <meeko>  (3) 
{"is_sidechain": [false], "free_energy": -6.267, "intermolecular_energy": -8.908, "internal_energy": -0.822}

$$$$
REF_DENATONIUM_GTOP12433__M_PUB_ALL__e8__s20260927
     RDKit          3D

 53 54  0  0  0  0  0  0  0  0999 V2000
    4.0250  -13.7210    0.6230 C   0  0  0  0  0  0  0  0  0  0  0  0
    3.5000  -13.5970   -0.7990 C   0  0  0  0  0  0  0  0  0  0  0  0
    2.2780  -14.5030   -1.0950 N   0  0  0  0  0  0  0  0  0  0  0  0
    2.6880  -15.9220   -1.5290 C   0  0  0  0  0  0  0  0  0  0  0  0
    4.0610  -16.0150   -2.1760 C   0  0  0  0  0  0  0  0  0  0  0  0
    1.3840  -14.6700    0.1970 C   0  0  0  0  0  0  0  0  0  0  0  0
    0.2770  -13.6290    0.4350 C   0  0  0  0  0  0  0  0  0  0  0  0
   -0.8170  -13.7330   -0.1100 O   0  0  0  0  0  0  0  0  0  0  0  0
    0.6810  -12.5870    1.2550 N   0  0  0  0  0  0  0  0  0  0  0  0
   -0.1170  -11.5070    1.7180 C   0  0  0  0  0  0  0  0  0  0  0  0
   -0.2640  -10.2820    1.0330 C   0  0  0  0  0  0  0  0  0  0  0  0
    0.2860   -9.9860   -0.3360 C   0  0  0  0  0  0  0  0  0  0  0  0
   -1.0310   -9.2560    1.6200 C   0  0  0  0  0  0  0  0  0  0  0  0
   -1.7000   -9.4520    2.8220 C   0  0  0  0  0  0  0  0  0  0  0  0
   -1.6210  -10.6820    3.4590 C   0  0  0  0  0  0  0  0  0  0  0  0
   -0.8390  -11.7180    2.9220 C   0  0  0  0  0  0  0  0  0  0  0  0
   -0.7800  -13.0130    3.6920 C   0  0  0  0  0  0  0  0  0  0  0  0
    1.4560  -13.7760   -2.2150 C   0  0  0  0  0  0  0  0  0  0  0  0
    2.1940  -12.7930   -3.0930 C   0  0  0  0  0  0  0  0  0  0  0  0
    2.8470  -13.2370   -4.2550 C   0  0  0  0  0  0  0  0  0  0  0  0
    3.5460  -12.3430   -5.0680 C   0  0  0  0  0  0  0  0  0  0  0  0
    3.5900  -10.9920   -4.7410 C   0  0  0  0  0  0  0  0  0  0  0  0
    2.9250  -10.5290   -3.6080 C   0  0  0  0  0  0  0  0  0  0  0  0
    2.2250  -11.4220   -2.7930 C   0  0  0  0  0  0  0  0  0  0  0  0
    3.2079  -13.5280    1.3337 H   0  0  0  0  0  0  0  0  0  0  0  0
    4.4170  -14.7364    0.7819 H   0  0  0  0  0  0  0  0  0  0  0  0
    4.8299  -12.9882    0.7819 H   0  0  0  0  0  0  0  0  0  0  0  0
    3.2060  -12.5510   -0.9703 H   0  0  0  0  0  0  0  0  0  0  0  0
    4.3096  -13.9215   -1.4692 H   0  0  0  0  0  0  0  0  0  0  0  0
    2.6841  -16.5676   -0.6384 H   0  0  0  0  0  0  0  0  0  0  0  0
    1.9617  -16.2360   -2.2932 H   0  0  0  0  0  0  0  0  0  0  0  0
    4.8323  -16.0672   -1.3935 H   0  0  0  0  0  0  0  0  0  0  0  0
    4.1112  -16.9186   -2.8013 H   0  0  0  0  0  0  0  0  0  0  0  0
    4.2326  -15.1264   -2.8013 H   0  0  0  0  0  0  0  0  0  0  0  0
    0.9011  -15.6566    0.1381 H   0  0  0  0  0  0  0  0  0  0  0  0
    2.0800  -14.5357    1.0382 H   0  0  0  0  0  0  0  0  0  0  0  0
    1.6750  -12.4690    1.4080 H   0  0  0  0  0  0  0  0  0  0  0  0
    1.2509   -9.4667   -0.2391 H   0  0  0  0  0  0  0  0  0  0  0  0
    0.4302  -10.9283   -0.8848 H   0  0  0  0  0  0  0  0  0  0  0  0
   -0.4210   -9.3466   -0.8848 H   0  0  0  0  0  0  0  0  0  0  0  0
   -1.1016   -8.2805    1.1167 H   0  0  0  0  0  0  0  0  0  0  0  0
   -2.2892   -8.6362    3.2662 H   0  0  0  0  0  0  0  0  0  0  0  0
   -2.1763  -10.8476    4.3940 H   0  0  0  0  0  0  0  0  0  0  0  0
   -0.7898  -12.7988    4.7709 H   0  0  0  0  0  0  0  0  0  0  0  0
   -1.6508  -13.6333    3.4334 H   0  0  0  0  0  0  0  0  0  0  0  0
    0.1436  -13.5516    3.4334 H   0  0  0  0  0  0  0  0  0  0  0  0
    1.0343  -14.5519   -2.8708 H   0  0  0  0  0  0  0  0  0  0  0  0
    0.7176  -13.1680   -1.6717 H   0  0  0  0  0  0  0  0  0  0  0  0
    2.8070  -14.3020   -4.5275 H   0  0  0  0  0  0  0  0  0  0  0  0
    4.0625  -12.7075   -5.9682 H   0  0  0  0  0  0  0  0  0  0  0  0
    4.1494  -10.2897   -5.3765 H   0  0  0  0  0  0  0  0  0  0  0  0
    2.9511   -9.4589   -3.3547 H   0  0  0  0  0  0  0  0  0  0  0  0
    1.6924  -11.0468   -1.9067 H   0  0  0  0  0  0  0  0  0  0  0  0
  1  2  1  0
  2  3  1  0
  3  4  1  0
  4  5  1  0
  3  6  1  0
  6  7  1  0
  7  8  2  0
  7  9  1  0
  9 10  1  0
 10 11  2  0
 11 12  1  0
 11 13  1  0
 13 14  2  0
 14 15  1  0
 15 16  2  0
 16 17  1  0
  3 18  1  0
 18 19  1  0
 19 20  2  0
 20 21  1  0
 21 22  2  0
 22 23  1  0
 23 24  2  0
 16 10  1  0
 24 19  1  0
  1 25  1  0
  1 26  1  0
  1 27  1  0
  2 28  1  0
  2 29  1  0
  4 30  1  0
  4 31  1  0
  5 32  1  0
  5 33  1  0
  5 34  1  0
  6 35  1  0
  6 36  1  0
  9 37  1  0
 12 38  1  0
 12 39  1  0
 12 40  1  0
 13 41  1  0
 14 42  1  0
 15 43  1  0
 17 44  1  0
 17 45  1  0
 17 46  1  0
 18 47  1  0
 18 48  1  0
 20 49  1  0
 21 50  1  0
 22 51  1  0
 23 52  1  0
 24 53  1  0
M  CHG  1   3   1
M  END
>  <meeko>  (4) 
{"is_sidechain": [false], "free_energy": -6.267, "intermolecular_energy": -9.044, "internal_energy": -0.685}

$$$$
REF_DENATONIUM_GTOP12433__M_PUB_ALL__e8__s20260927
     RDKit          3D

 53 54  0  0  0  0  0  0  0  0999 V2000
    1.6800  -15.9550    1.6130 C   0  0  0  0  0  0  0  0  0  0  0  0
    1.6580  -15.1630    2.9110 C   0  0  0  0  0  0  0  0  0  0  0  0
    0.2490  -15.0400    3.5440 N   0  0  0  0  0  0  0  0  0  0  0  0
    0.1760  -15.6720    4.9470 C   0  0  0  0  0  0  0  0  0  0  0  0
   -0.0650  -14.6820    6.0750 C   0  0  0  0  0  0  0  0  0  0  0  0
   -0.1510  -13.5210    3.7150 C   0  0  0  0  0  0  0  0  0  0  0  0
   -0.5470  -12.7440    2.4490 C   0  0  0  0  0  0  0  0  0  0  0  0
    0.2850  -12.4640    1.5920 O   0  0  0  0  0  0  0  0  0  0  0  0
   -1.8830  -12.3750    2.4360 N   0  0  0  0  0  0  0  0  0  0  0  0
   -2.5740  -11.7100    1.3880 C   0  0  0  0  0  0  0  0  0  0  0  0
   -2.4950  -10.3220    1.1440 C   0  0  0  0  0  0  0  0  0  0  0  0
   -1.5750   -9.3700    1.8610 C   0  0  0  0  0  0  0  0  0  0  0  0
   -3.2750   -9.7600    0.1150 C   0  0  0  0  0  0  0  0  0  0  0  0
   -4.0670  -10.5540   -0.7060 C   0  0  0  0  0  0  0  0  0  0  0  0
   -4.0870  -11.9290   -0.5180 C   0  0  0  0  0  0  0  0  0  0  0  0
   -3.3480  -12.5220    0.5180 C   0  0  0  0  0  0  0  0  0  0  0  0
   -3.4490  -14.0180    0.6740 C   0  0  0  0  0  0  0  0  0  0  0  0
   -0.7400  -15.7390    2.5490 C   0  0  0  0  0  0  0  0  0  0  0  0
   -1.9470  -16.4300    3.1370 C   0  0  0  0  0  0  0  0  0  0  0  0
   -2.9750  -15.6750    3.7270 C   0  0  0  0  0  0  0  0  0  0  0  0
   -4.0890  -16.3000    4.2890 C   0  0  0  0  0  0  0  0  0  0  0  0
   -4.2010  -17.6860    4.2550 C   0  0  0  0  0  0  0  0  0  0  0  0
   -3.2050  -18.4490    3.6500 C   0  0  0  0  0  0  0  0  0  0  0  0
   -2.0890  -17.8250    3.0870 C   0  0  0  0  0  0  0  0  0  0  0  0
    1.7099  -17.0308    1.8404 H   0  0  0  0  0  0  0  0  0  0  0  0
    0.7752  -15.7285    1.0299 H   0  0  0  0  0  0  0  0  0  0  0  0
    2.5708  -15.6786    1.0299 H   0  0  0  0  0  0  0  0  0  0  0  0
    2.3205  -15.6623    3.6334 H   0  0  0  0  0  0  0  0  0  0  0  0
    1.9914  -14.1428    2.6699 H   0  0  0  0  0  0  0  0  0  0  0  0
   -0.6453  -16.4038    4.9514 H   0  0  0  0  0  0  0  0  0  0  0  0
    1.1598  -16.1265    5.1359 H   0  0  0  0  0  0  0  0  0  0  0  0
    0.0589  -15.1910    7.0423 H   0  0  0  0  0  0  0  0  0  0  0  0
    0.6585  -13.8569    5.9995 H   0  0  0  0  0  0  0  0  0  0  0  0
   -1.0868  -14.2817    5.9995 H   0  0  0  0  0  0  0  0  0  0  0  0
   -1.0054  -13.4812    4.4067 H   0  0  0  0  0  0  0  0  0  0  0  0
    0.7659  -13.0283    4.0706 H   0  0  0  0  0  0  0  0  0  0  0  0
   -2.3890  -12.4160    3.3110 H   0  0  0  0  0  0  0  0  0  0  0  0
   -1.6942   -9.4933    2.9476 H   0  0  0  0  0  0  0  0  0  0  0  0
   -0.5335   -9.5847    1.5796 H   0  0  0  0  0  0  0  0  0  0  0  0
   -1.8252   -8.3364    1.5796 H   0  0  0  0  0  0  0  0  0  0  0  0
   -3.2571   -8.6714   -0.0421 H   0  0  0  0  0  0  0  0  0  0  0  0
   -4.6744  -10.0953   -1.5001 H   0  0  0  0  0  0  0  0  0  0  0  0
   -4.6884  -12.5610   -1.1880 H   0  0  0  0  0  0  0  0  0  0  0  0
   -3.4663  -14.2748    1.7435 H   0  0  0  0  0  0  0  0  0  0  0  0
   -4.3733  -14.3749    0.1962 H   0  0  0  0  0  0  0  0  0  0  0  0
   -2.5811  -14.4959    0.1962 H   0  0  0  0  0  0  0  0  0  0  0  0
   -1.1068  -14.9695    1.8538 H   0  0  0  0  0  0  0  0  0  0  0  0
   -0.1512  -16.5461    2.0888 H   0  0  0  0  0  0  0  0  0  0  0  0
   -2.9006  -14.5777    3.7461 H   0  0  0  0  0  0  0  0  0  0  0  0
   -4.8791  -15.6961    4.7592 H   0  0  0  0  0  0  0  0  0  0  0  0
   -5.0751  -18.1790    4.7054 H   0  0  0  0  0  0  0  0  0  0  0  0
   -3.2973  -19.5446    3.6155 H   0  0  0  0  0  0  0  0  0  0  0  0
   -1.3134  -18.4338    2.5993 H   0  0  0  0  0  0  0  0  0  0  0  0
  1  2  1  0
  2  3  1  0
  3  4  1  0
  4  5  1  0
  3  6  1  0
  6  7  1  0
  7  8  2  0
  7  9  1  0
  9 10  1  0
 10 11  2  0
 11 12  1  0
 11 13  1  0
 13 14  2  0
 14 15  1  0
 15 16  2  0
 16 17  1  0
  3 18  1  0
 18 19  1  0
 19 20  2  0
 20 21  1  0
 21 22  2  0
 22 23  1  0
 23 24  2  0
 16 10  1  0
 24 19  1  0
  1 25  1  0
  1 26  1  0
  1 27  1  0
  2 28  1  0
  2 29  1  0
  4 30  1  0
  4 31  1  0
  5 32  1  0
  5 33  1  0
  5 34  1  0
  6 35  1  0
  6 36  1  0
  9 37  1  0
 12 38  1  0
 12 39  1  0
 12 40  1  0
 13 41  1  0
 14 42  1  0
 15 43  1  0
 17 44  1  0
 17 45  1  0
 17 46  1  0
 18 47  1  0
 18 48  1  0
 20 49  1  0
 21 50  1  0
 22 51  1  0
 23 52  1  0
 24 53  1  0
M  CHG  1   3   1
M  END
>  <meeko>  (5) 
{"is_sidechain": [false], "free_energy": -6.264, "intermolecular_energy": -8.515, "internal_energy": -1.21}

$$$$
REF_DENATONIUM_GTOP12433__M_PUB_ALL__e8__s20260927
     RDKit          3D

 53 54  0  0  0  0  0  0  0  0999 V2000
    6.4710  -15.1610   -1.3600 C   0  0  0  0  0  0  0  0  0  0  0  0
    7.4940  -14.1050   -1.7480 C   0  0  0  0  0  0  0  0  0  0  0  0
    7.4030  -12.8080   -0.9050 N   0  0  0  0  0  0  0  0  0  0  0  0
    6.2860  -12.8690    0.1540 C   0  0  0  0  0  0  0  0  0  0  0  0
    6.1580  -11.6190    1.0100 C   0  0  0  0  0  0  0  0  0  0  0  0
    8.7520  -12.5620   -0.1200 C   0  0  0  0  0  0  0  0  0  0  0  0
   10.0570  -13.0340   -0.7840 C   0  0  0  0  0  0  0  0  0  0  0  0
   10.5520  -14.1200   -0.5050 O   0  0  0  0  0  0  0  0  0  0  0  0
   10.5950  -12.0920   -1.6480 N   0  0  0  0  0  0  0  0  0  0  0  0
   11.7490  -12.2430   -2.4610 C   0  0  0  0  0  0  0  0  0  0  0  0
   11.7580  -12.9040   -3.7080 C   0  0  0  0  0  0  0  0  0  0  0  0
   10.5380  -13.4240   -4.4190 C   0  0  0  0  0  0  0  0  0  0  0  0
   12.9770  -13.0500   -4.3990 C   0  0  0  0  0  0  0  0  0  0  0  0
   14.1550  -12.4970   -3.9110 C   0  0  0  0  0  0  0  0  0  0  0  0
   14.1350  -11.7800   -2.7220 C   0  0  0  0  0  0  0  0  0  0  0  0
   12.9450  -11.6410   -1.9890 C   0  0  0  0  0  0  0  0  0  0  0  0
   13.0150  -10.8730   -0.6930 C   0  0  0  0  0  0  0  0  0  0  0  0
    7.1640  -11.6410   -1.9240 C   0  0  0  0  0  0  0  0  0  0  0  0
    6.0130  -11.7850   -2.8900 C   0  0  0  0  0  0  0  0  0  0  0  0
    6.2330  -12.3010   -4.1780 C   0  0  0  0  0  0  0  0  0  0  0  0
    5.1810  -12.4260   -5.0880 C   0  0  0  0  0  0  0  0  0  0  0  0
    3.8930  -12.0520   -4.7190 C   0  0  0  0  0  0  0  0  0  0  0  0
    3.6510  -11.5650   -3.4370 C   0  0  0  0  0  0  0  0  0  0  0  0
    4.7020  -11.4380   -2.5250 C   0  0  0  0  0  0  0  0  0  0  0  0
    6.4084  -15.2256   -0.2637 H   0  0  0  0  0  0  0  0  0  0  0  0
    5.4872  -14.8857   -1.7678 H   0  0  0  0  0  0  0  0  0  0  0  0
    6.7773  -16.1356   -1.7678 H   0  0  0  0  0  0  0  0  0  0  0  0
    8.4995  -14.5323   -1.6198 H   0  0  0  0  0  0  0  0  0  0  0  0
    7.2860  -13.8248   -2.7912 H   0  0  0  0  0  0  0  0  0  0  0  0
    5.3294  -13.0292   -0.3649 H   0  0  0  0  0  0  0  0  0  0  0  0
    6.5482  -13.6900    0.8375 H   0  0  0  0  0  0  0  0  0  0  0  0
    6.1866  -11.8984    2.0735 H   0  0  0  0  0  0  0  0  0  0  0  0
    6.9909  -10.9356    0.7879 H   0  0  0  0  0  0  0  0  0  0  0  0
    5.2039  -11.1186    0.7879 H   0  0  0  0  0  0  0  0  0  0  0  0
    8.8417  -11.4788    0.0494 H   0  0  0  0  0  0  0  0  0  0  0  0
    8.6628  -13.1750    0.7890 H   0  0  0  0  0  0  0  0  0  0  0  0
   10.2520  -11.1430   -1.5790 H   0  0  0  0  0  0  0  0  0  0  0  0
    9.7899  -13.7428   -3.6782 H   0  0  0  0  0  0  0  0  0  0  0  0
   10.1140  -12.6284   -5.0493 H   0  0  0  0  0  0  0  0  0  0  0  0
   10.8183  -14.2809   -5.0493 H   0  0  0  0  0  0  0  0  0  0  0  0
   12.9969  -13.6130   -5.3438 H   0  0  0  0  0  0  0  0  0  0  0  0
   15.0974  -12.6265   -4.4633 H   0  0  0  0  0  0  0  0  0  0  0  0
   15.0606  -11.3161   -2.3504 H   0  0  0  0  0  0  0  0  0  0  0  0
   12.9511  -11.5738    0.1524 H   0  0  0  0  0  0  0  0  0  0  0  0
   13.9669  -10.3240   -0.6431 H   0  0  0  0  0  0  0  0  0  0  0  0
   12.1780  -10.1610   -0.6431 H   0  0  0  0  0  0  0  0  0  0  0  0
    6.9922  -10.7242   -1.3409 H   0  0  0  0  0  0  0  0  0  0  0  0
    8.0630  -11.6335   -2.5578 H   0  0  0  0  0  0  0  0  0  0  0  0
    7.2464  -12.6104   -4.4734 H   0  0  0  0  0  0  0  0  0  0  0  0
    5.3710  -12.8204   -6.0971 H   0  0  0  0  0  0  0  0  0  0  0  0
    3.0663  -12.1409   -5.4392 H   0  0  0  0  0  0  0  0  0  0  0  0
    2.6305  -11.2797   -3.1417 H   0  0  0  0  0  0  0  0  0  0  0  0
    4.5005  -11.0624   -1.5109 H   0  0  0  0  0  0  0  0  0  0  0  0
  1  2  1  0
  2  3  1  0
  3  4  1  0
  4  5  1  0
  3  6  1  0
  6  7  1  0
  7  8  2  0
  7  9  1  0
  9 10  1  0
 10 11  2  0
 11 12  1  0
 11 13  1  0
 13 14  2  0
 14 15  1  0
 15 16  2  0
 16 17  1  0
  3 18  1  0
 18 19  1  0
 19 20  2  0
 20 21  1  0
 21 22  2  0
 22 23  1  0
 23 24  2  0
 16 10  1  0
 24 19  1  0
  1 25  1  0
  1 26  1  0
  1 27  1  0
  2 28  1  0
  2 29  1  0
  4 30  1  0
  4 31  1  0
  5 32  1  0
  5 33  1  0
  5 34  1  0
  6 35  1  0
  6 36  1  0
  9 37  1  0
 12 38  1  0
 12 39  1  0
 12 40  1  0
 13 41  1  0
 14 42  1  0
 15 43  1  0
 17 44  1  0
 17 45  1  0
 17 46  1  0
 18 47  1  0
 18 48  1  0
 20 49  1  0
 21 50  1  0
 22 51  1  0
 23 52  1  0
 24 53  1  0
M  CHG  1   3   1
M  END
>  <meeko>  (6) 
{"is_sidechain": [false], "free_energy": -6.113, "intermolecular_energy": -8.674, "internal_energy": -0.838}

$$$$
REF_DENATONIUM_GTOP12433__M_PUB_ALL__e8__s20260927
     RDKit          3D

 53 54  0  0  0  0  0  0  0  0999 V2000
    6.9400  -15.9340   -0.7360 C   0  0  0  0  0  0  0  0  0  0  0  0
    7.9450  -14.8760   -1.1600 C   0  0  0  0  0  0  0  0  0  0  0  0
    7.4850  -13.4250   -0.8730 N   0  0  0  0  0  0  0  0  0  0  0  0
    6.2780  -13.3670    0.0830 C   0  0  0  0  0  0  0  0  0  0  0  0
    6.5920  -12.8170    1.4660 C   0  0  0  0  0  0  0  0  0  0  0  0
    8.6440  -12.6020   -0.1820 C   0  0  0  0  0  0  0  0  0  0  0  0
   10.0870  -12.9000   -0.6240 C   0  0  0  0  0  0  0  0  0  0  0  0
   10.7910  -13.6840    0.0030 O   0  0  0  0  0  0  0  0  0  0  0  0
   10.4770  -12.1610   -1.7290 N   0  0  0  0  0  0  0  0  0  0  0  0
   11.7150  -12.2480   -2.4190 C   0  0  0  0  0  0  0  0  0  0  0  0
   12.9140  -11.6520   -1.9720 C   0  0  0  0  0  0  0  0  0  0  0  0
   13.0920  -10.9590   -0.6490 C   0  0  0  0  0  0  0  0  0  0  0  0
   14.0690  -11.7500   -2.7720 C   0  0  0  0  0  0  0  0  0  0  0  0
   14.0680  -12.4790   -3.9560 C   0  0  0  0  0  0  0  0  0  0  0  0
   12.9110  -13.1310   -4.3590 C   0  0  0  0  0  0  0  0  0  0  0  0
   11.7310  -13.0290   -3.6050 C   0  0  0  0  0  0  0  0  0  0  0  0
   10.5090  -13.7410   -4.1290 C   0  0  0  0  0  0  0  0  0  0  0  0
    7.1430  -12.7900   -2.2650 C   0  0  0  0  0  0  0  0  0  0  0  0
    5.6860  -12.7020   -2.6510 C   0  0  0  0  0  0  0  0  0  0  0  0
    4.9880  -11.4930   -2.5010 C   0  0  0  0  0  0  0  0  0  0  0  0
    3.6360  -11.4000   -2.8390 C   0  0  0  0  0  0  0  0  0  0  0  0
    2.9680  -12.5100   -3.3470 C   0  0  0  0  0  0  0  0  0  0  0  0
    3.6520  -13.7090   -3.5300 C   0  0  0  0  0  0  0  0  0  0  0  0
    5.0040  -13.8040   -3.1910 C   0  0  0  0  0  0  0  0  0  0  0  0
    6.8968  -15.9795    0.3622 H   0  0  0  0  0  0  0  0  0  0  0  0
    5.9467  -15.6756   -1.1316 H   0  0  0  0  0  0  0  0  0  0  0  0
    7.2490  -16.9128   -1.1316 H   0  0  0  0  0  0  0  0  0  0  0  0
    8.8858  -15.0549   -0.6188 H   0  0  0  0  0  0  0  0  0  0  0  0
    8.0625  -14.9648   -2.2501 H   0  0  0  0  0  0  0  0  0  0  0  0
    5.5086  -12.7274   -0.3741 H   0  0  0  0  0  0  0  0  0  0  0  0
    5.9451  -14.4053    0.2284 H   0  0  0  0  0  0  0  0  0  0  0  0
    6.2002  -13.5033    2.2312 H   0  0  0  0  0  0  0  0  0  0  0  0
    7.6814  -12.7203    1.5835 H   0  0  0  0  0  0  0  0  0  0  0  0
    6.1215  -11.8297    1.5835 H   0  0  0  0  0  0  0  0  0  0  0  0
    8.4530  -11.5364   -0.3769 H   0  0  0  0  0  0  0  0  0  0  0  0
    8.6075  -12.9004    0.8761 H   0  0  0  0  0  0  0  0  0  0  0  0
    9.9140  -11.3570   -1.9780 H   0  0  0  0  0  0  0  0  0  0  0  0
   12.9084  -11.6736    0.1669 H   0  0  0  0  0  0  0  0  0  0  0  0
   14.1188  -10.5717   -0.5731 H   0  0  0  0  0  0  0  0  0  0  0  0
   12.3790  -10.1248   -0.5731 H   0  0  0  0  0  0  0  0  0  0  0  0
   14.9901  -11.2397   -2.4538 H   0  0  0  0  0  0  0  0  0  0  0  0
   14.9789  -12.5386   -4.5697 H   0  0  0  0  0  0  0  0  0  0  0  0
   12.9185  -13.7341   -5.2789 H   0  0  0  0  0  0  0  0  0  0  0  0
    9.9006  -14.0955   -3.2839 H   0  0  0  0  0  0  0  0  0  0  0  0
    9.9154  -13.0474   -4.7426 H   0  0  0  0  0  0  0  0  0  0  0  0
   10.8197  -14.5994   -4.7426 H   0  0  0  0  0  0  0  0  0  0  0  0
    7.5475  -11.7671   -2.2690 H   0  0  0  0  0  0  0  0  0  0  0  0
    7.5879  -13.4742   -3.0025 H   0  0  0  0  0  0  0  0  0  0  0  0
    5.5127  -10.6077   -2.1123 H   0  0  0  0  0  0  0  0  0  0  0  0
    3.0993  -10.4494   -2.7036 H   0  0  0  0  0  0  0  0  0  0  0  0
    1.9007  -12.4403   -3.6038 H   0  0  0  0  0  0  0  0  0  0  0  0
    3.1268  -14.5831   -3.9423 H   0  0  0  0  0  0  0  0  0  0  0  0
    5.5396  -14.7518   -3.3488 H   0  0  0  0  0  0  0  0  0  0  0  0
  1  2  1  0
  2  3  1  0
  3  4  1  0
  4  5  1  0
  3  6  1  0
  6  7  1  0
  7  8  2  0
  7  9  1  0
  9 10  1  0
 10 11  2  0
 11 12  1  0
 11 13  1  0
 13 14  2  0
 14 15  1  0
 15 16  2  0
 16 17  1  0
  3 18  1  0
 18 19  1  0
 19 20  2  0
 20 21  1  0
 21 22  2  0
 22 23  1  0
 23 24  2  0
 16 10  1  0
 24 19  1  0
  1 25  1  0
  1 26  1  0
  1 27  1  0
  2 28  1  0
  2 29  1  0
  4 30  1  0
  4 31  1  0
  5 32  1  0
  5 33  1  0
  5 34  1  0
  6 35  1  0
  6 36  1  0
  9 37  1  0
 12 38  1  0
 12 39  1  0
 12 40  1  0
 13 41  1  0
 14 42  1  0
 15 43  1  0
 17 44  1  0
 17 45  1  0
 17 46  1  0
 18 47  1  0
 18 48  1  0
 20 49  1  0
 21 50  1  0
 22 51  1  0
 23 52  1  0
 24 53  1  0
M  CHG  1   3   1
M  END
>  <meeko>  (7) 
{"is_sidechain": [false], "free_energy": -6.05, "intermolecular_energy": -8.54, "internal_energy": -0.884}

$$$$
REF_DENATONIUM_GTOP12433__M_PUB_ALL__e8__s20260927
     RDKit          3D

 53 54  0  0  0  0  0  0  0  0999 V2000
    4.8480  -12.2210   -0.0850 C   0  0  0  0  0  0  0  0  0  0  0  0
    4.1710  -13.2760   -0.9460 C   0  0  0  0  0  0  0  0  0  0  0  0
    2.7050  -13.5680   -0.5400 N   0  0  0  0  0  0  0  0  0  0  0  0
    2.5280  -14.9750    0.0610 C   0  0  0  0  0  0  0  0  0  0  0  0
    2.9820  -15.1070    1.5060 C   0  0  0  0  0  0  0  0  0  0  0  0
    2.2200  -12.5450    0.5630 C   0  0  0  0  0  0  0  0  0  0  0  0
    0.7280  -12.1730    0.5800 C   0  0  0  0  0  0  0  0  0  0  0  0
    0.3320  -11.1240    0.0840 O   0  0  0  0  0  0  0  0  0  0  0  0
   -0.0540  -13.1050    1.2440 N   0  0  0  0  0  0  0  0  0  0  0  0
   -1.4680  -13.0890    1.3790 C   0  0  0  0  0  0  0  0  0  0  0  0
   -2.1640  -12.3000    2.3190 C   0  0  0  0  0  0  0  0  0  0  0  0
   -1.5340  -11.2690    3.2170 C   0  0  0  0  0  0  0  0  0  0  0  0
   -3.5650  -12.4140    2.4080 C   0  0  0  0  0  0  0  0  0  0  0  0
   -4.2790  -13.2350    1.5420 C   0  0  0  0  0  0  0  0  0  0  0  0
   -3.6040  -13.9540    0.5660 C   0  0  0  0  0  0  0  0  0  0  0  0
   -2.2050  -13.8910    0.4680 C   0  0  0  0  0  0  0  0  0  0  0  0
   -1.5460  -14.7270   -0.6000 C   0  0  0  0  0  0  0  0  0  0  0  0
    1.8470  -13.3890   -1.8400 C   0  0  0  0  0  0  0  0  0  0  0  0
    2.3970  -12.4860   -2.9180 C   0  0  0  0  0  0  0  0  0  0  0  0
    2.9680  -13.0360   -4.0770 C   0  0  0  0  0  0  0  0  0  0  0  0
    3.4950  -12.2140   -5.0750 C   0  0  0  0  0  0  0  0  0  0  0  0
    3.4450  -10.8310   -4.9360 C   0  0  0  0  0  0  0  0  0  0  0  0
    2.8580  -10.2670   -3.8070 C   0  0  0  0  0  0  0  0  0  0  0  0
    2.3310  -11.0880   -2.8070 C   0  0  0  0  0  0  0  0  0  0  0  0
    4.6941  -12.4608    0.9775 H   0  0  0  0  0  0  0  0  0  0  0  0
    5.9257  -12.2046   -0.3048 H   0  0  0  0  0  0  0  0  0  0  0  0
    4.4139  -11.2345   -0.3048 H   0  0  0  0  0  0  0  0  0  0  0  0
    4.1792  -12.9292   -1.9899 H   0  0  0  0  0  0  0  0  0  0  0  0
    4.7338  -14.2111   -0.8084 H   0  0  0  0  0  0  0  0  0  0  0  0
    1.4610  -15.2378    0.0111 H   0  0  0  0  0  0  0  0  0  0  0  0
    3.1661  -15.6490   -0.5294 H   0  0  0  0  0  0  0  0  0  0  0  0
    2.1450  -14.8636    2.1770 H   0  0  0  0  0  0  0  0  0  0  0  0
    3.3140  -16.1389    1.6932 H   0  0  0  0  0  0  0  0  0  0  0  0
    3.8155  -14.4140    1.6932 H   0  0  0  0  0  0  0  0  0  0  0  0
    2.4625  -12.9791    1.5442 H   0  0  0  0  0  0  0  0  0  0  0  0
    2.7400  -11.6061    0.3221 H   0  0  0  0  0  0  0  0  0  0  0  0
    0.4170  -13.7710    1.8420 H   0  0  0  0  0  0  0  0  0  0  0  0
   -1.7031  -11.5458    4.2681 H   0  0  0  0  0  0  0  0  0  0  0  0
   -0.4529  -11.2222    3.0195 H   0  0  0  0  0  0  0  0  0  0  0  0
   -1.9857  -10.2856    3.0195 H   0  0  0  0  0  0  0  0  0  0  0  0
   -4.1048  -11.8425    3.1774 H   0  0  0  0  0  0  0  0  0  0  0  0
   -5.3726  -13.3140    1.6302 H   0  0  0  0  0  0  0  0  0  0  0  0
   -4.1711  -14.5801   -0.1385 H   0  0  0  0  0  0  0  0  0  0  0  0
   -0.9310  -15.5071   -0.1276 H   0  0  0  0  0  0  0  0  0  0  0  0
   -2.3185  -15.1979   -1.2258 H   0  0  0  0  0  0  0  0  0  0  0  0
   -0.9078  -14.0858   -1.2258 H   0  0  0  0  0  0  0  0  0  0  0  0
    1.7089  -14.3860   -2.2838 H   0  0  0  0  0  0  0  0  0  0  0  0
    0.9250  -12.8934   -1.5019 H   0  0  0  0  0  0  0  0  0  0  0  0
    3.0005  -14.1286   -4.2002 H   0  0  0  0  0  0  0  0  0  0  0  0
    3.9499  -12.6603   -5.9716 H   0  0  0  0  0  0  0  0  0  0  0  0
    3.8690  -10.1835   -5.7177 H   0  0  0  0  0  0  0  0  0  0  0  0
    2.8090   -9.1731   -3.7020 H   0  0  0  0  0  0  0  0  0  0  0  0
    1.8592  -10.6341   -1.9230 H   0  0  0  0  0  0  0  0  0  0  0  0
  1  2  1  0
  2  3  1  0
  3  4  1  0
  4  5  1  0
  3  6  1  0
  6  7  1  0
  7  8  2  0
  7  9  1  0
  9 10  1  0
 10 11  2  0
 11 12  1  0
 11 13  1  0
 13 14  2  0
 14 15  1  0
 15 16  2  0
 16 17  1  0
  3 18  1  0
 18 19  1  0
 19 20  2  0
 20 21  1  0
 21 22  2  0
 22 23  1  0
 23 24  2  0
 16 10  1  0
 24 19  1  0
  1 25  1  0
  1 26  1  0
  1 27  1  0
  2 28  1  0
  2 29  1  0
  4 30  1  0
  4 31  1  0
  5 32  1  0
  5 33  1  0
  5 34  1  0
  6 35  1  0
  6 36  1  0
  9 37  1  0
 12 38  1  0
 12 39  1  0
 12 40  1  0
 13 41  1  0
 14 42  1  0
 15 43  1  0
 17 44  1  0
 17 45  1  0
 17 46  1  0
 18 47  1  0
 18 48  1  0
 20 49  1  0
 21 50  1  0
 22 51  1  0
 23 52  1  0
 24 53  1  0
M  CHG  1   3   1
M  END
>  <meeko>  (8) 
{"is_sidechain": [false], "free_energy": -6.008, "intermolecular_energy": -8.457, "internal_energy": -0.907}

$$$$
REF_DENATONIUM_GTOP12433__M_PUB_ALL__e8__s20260927
     RDKit          3D

 53 54  0  0  0  0  0  0  0  0999 V2000
   12.0260   -7.3130   14.7980 C   0  0  0  0  0  0  0  0  0  0  0  0
   11.7910   -8.3870   15.8480 C   0  0  0  0  0  0  0  0  0  0  0  0
   11.6260   -9.8110   15.2600 N   0  0  0  0  0  0  0  0  0  0  0  0
   12.6230  -10.8180   15.8630 C   0  0  0  0  0  0  0  0  0  0  0  0
   13.9480  -10.2130   16.2990 C   0  0  0  0  0  0  0  0  0  0  0  0
   10.1810  -10.3740   15.5650 C   0  0  0  0  0  0  0  0  0  0  0  0
    9.0350   -9.9260   14.6430 C   0  0  0  0  0  0  0  0  0  0  0  0
    8.8850  -10.4230   13.5320 O   0  0  0  0  0  0  0  0  0  0  0  0
    8.2740   -8.9020   15.1850 N   0  0  0  0  0  0  0  0  0  0  0  0
    7.1120   -8.3120   14.6190 C   0  0  0  0  0  0  0  0  0  0  0  0
    5.8530   -8.9470   14.5550 C   0  0  0  0  0  0  0  0  0  0  0  0
    5.5210  -10.2710   15.1880 C   0  0  0  0  0  0  0  0  0  0  0  0
    4.7850   -8.2910   13.9130 C   0  0  0  0  0  0  0  0  0  0  0  0
    4.9290   -7.0060   13.4030 C   0  0  0  0  0  0  0  0  0  0  0  0
    6.1440   -6.3490   13.5320 C   0  0  0  0  0  0  0  0  0  0  0  0
    7.2410   -6.9830   14.1370 C   0  0  0  0  0  0  0  0  0  0  0  0
    8.5350   -6.2110   14.2110 C   0  0  0  0  0  0  0  0  0  0  0  0
   11.8210   -9.6690   13.7110 C   0  0  0  0  0  0  0  0  0  0  0  0
   12.5410  -10.7870   12.9950 C   0  0  0  0  0  0  0  0  0  0  0  0
   11.9420  -12.0520   12.8790 C   0  0  0  0  0  0  0  0  0  0  0  0
   12.6010  -13.1000   12.2340 C   0  0  0  0  0  0  0  0  0  0  0  0
   13.8610  -12.8940   11.6810 C   0  0  0  0  0  0  0  0  0  0  0  0
   14.4580  -11.6390   11.7620 C   0  0  0  0  0  0  0  0  0  0  0  0
   13.8000  -10.5900   12.4080 C   0  0  0  0  0  0  0  0  0  0  0  0
   12.2358   -6.3542   15.2948 H   0  0  0  0  0  0  0  0  0  0  0  0
   12.8835   -7.5958   14.1698 H   0  0  0  0  0  0  0  0  0  0  0  0
   11.1287   -7.2119   14.1698 H   0  0  0  0  0  0  0  0  0  0  0  0
   12.6493   -8.3932   16.5359 H   0  0  0  0  0  0  0  0  0  0  0  0
   10.8469   -8.1383   16.3549 H   0  0  0  0  0  0  0  0  0  0  0  0
   12.1522  -11.2825   16.7419 H   0  0  0  0  0  0  0  0  0  0  0  0
   12.8569  -11.5400   15.0667 H   0  0  0  0  0  0  0  0  0  0  0  0
   13.9970  -10.1906   17.3977 H   0  0  0  0  0  0  0  0  0  0  0  0
   14.7758  -10.8223   15.9074 H   0  0  0  0  0  0  0  0  0  0  0  0
   14.0298   -9.1883   15.9074 H   0  0  0  0  0  0  0  0  0  0  0  0
   10.2370  -11.4713   15.5116 H   0  0  0  0  0  0  0  0  0  0  0  0
    9.9230   -9.9633   16.5523 H   0  0  0  0  0  0  0  0  0  0  0  0
    8.6620   -8.3940   15.9690 H   0  0  0  0  0  0  0  0  0  0  0  0
    5.5462  -10.1704   16.2831 H   0  0  0  0  0  0  0  0  0  0  0  0
    4.5159  -10.5868   14.8718 H   0  0  0  0  0  0  0  0  0  0  0  0
    6.2582  -11.0237   14.8718 H   0  0  0  0  0  0  0  0  0  0  0  0
    3.8179   -8.8056   13.8132 H   0  0  0  0  0  0  0  0  0  0  0  0
    4.0842   -6.5128   12.8999 H   0  0  0  0  0  0  0  0  0  0  0  0
    6.2491   -5.3205   13.1563 H   0  0  0  0  0  0  0  0  0  0  0  0
    8.8058   -6.0494   15.2648 H   0  0  0  0  0  0  0  0  0  0  0  0
    9.3315   -6.7816   13.7111 H   0  0  0  0  0  0  0  0  0  0  0  0
    8.4112   -5.2390   13.7111 H   0  0  0  0  0  0  0  0  0  0  0  0
   10.8219   -9.5779   13.2598 H   0  0  0  0  0  0  0  0  0  0  0  0
   12.4731   -8.7915   13.5892 H   0  0  0  0  0  0  0  0  0  0  0  0
   10.9404  -12.2191   13.3020 H   0  0  0  0  0  0  0  0  0  0  0  0
   12.1241  -14.0887   12.1629 H   0  0  0  0  0  0  0  0  0  0  0  0
   14.3848  -13.7217   11.1804 H   0  0  0  0  0  0  0  0  0  0  0  0
   15.4499  -11.4732   11.3163 H   0  0  0  0  0  0  0  0  0  0  0  0
   14.2740   -9.5986   12.4571 H   0  0  0  0  0  0  0  0  0  0  0  0
  1  2  1  0
  2  3  1  0
  3  4  1  0
  4  5  1  0
  3  6  1  0
  6  7  1  0
  7  8  2  0
  7  9  1  0
  9 10  1  0
 10 11  2  0
 11 12  1  0
 11 13  1  0
 13 14  2  0
 14 15  1  0
 15 16  2  0
 16 17  1  0
  3 18  1  0
 18 19  1  0
 19 20  2  0
 20 21  1  0
 21 22  2  0
 22 23  1  0
 23 24  2  0
 16 10  1  0
 24 19  1  0
  1 25  1  0
  1 26  1  0
  1 27  1  0
  2 28  1  0
  2 29  1  0
  4 30  1  0
  4 31  1  0
  5 32  1  0
  5 33  1  0
  5 34  1  0
  6 35  1  0
  6 36  1  0
  9 37  1  0
 12 38  1  0
 12 39  1  0
 12 40  1  0
 13 41  1  0
 14 42  1  0
 15 43  1  0
 17 44  1  0
 17 45  1  0
 17 46  1  0
 18 47  1  0
 18 48  1  0
 20 49  1  0
 21 50  1  0
 22 51  1  0
 23 52  1  0
 24 53  1  0
M  CHG  1   3   1
M  END
>  <meeko>  (9) 
{"is_sidechain": [false], "free_energy": -5.991, "intermolecular_energy": -8.494, "internal_energy": -0.846}

$$$$
