
     RDKit          3D

 85 92  0  0  0  0  0  0  0  0999 V2000
    5.0399    5.6107    0.4322 C   0  0  0  0  0  0  0  0  0  0  0  0
    3.8245    4.8909    0.6008 O   0  0  0  0  0  0  0  0  0  0  0  0
    3.9135    3.5349    0.7570 C   0  0  0  0  0  0  0  0  0  0  0  0
    5.0489    2.7695    0.4864 C   0  0  0  0  0  0  0  0  0  0  0  0
    5.0233    1.3773    0.6453 C   0  0  0  0  0  0  0  0  0  0  0  0
    3.8652    0.7265    1.0940 C   0  0  0  0  0  0  0  0  0  0  0  0
    2.7383    1.4974    1.3990 C   0  0  0  0  0  0  0  0  0  0  0  0
    2.7520    2.8829    1.1901 C   0  0  0  0  0  0  0  0  0  0  0  0
    1.6320    3.6370    1.4726 O   0  0  0  0  0  0  0  0  0  0  0  0
    0.4851    3.3231    0.7782 C   0  0  0  0  0  0  0  0  0  0  0  0
    0.4573    3.1320   -0.6054 C   0  0  0  0  0  0  0  0  0  0  0  0
   -0.7502    2.8385   -1.2482 C   0  0  0  0  0  0  0  0  0  0  0  0
   -1.9403    2.7536   -0.5127 C   0  0  0  0  0  0  0  0  0  0  0  0
   -1.9023    2.9864    0.8723 C   0  0  0  0  0  0  0  0  0  0  0  0
   -0.6963    3.2719    1.5125 C   0  0  0  0  0  0  0  0  0  0  0  0
   -3.2545    2.4212   -1.1841 C   0  0  0  0  0  0  0  0  0  0  0  0
   -3.5546    0.9020   -1.3813 C   0  0  1  0  0  0  0  0  0  0  0  0
   -3.4891    0.1180   -0.0821 C   0  0  0  0  0  0  0  0  0  0  0  0
   -4.6534   -0.0297    0.7170 C   0  0  0  0  0  0  0  0  0  0  0  0
   -4.5527   -0.6030    1.9942 C   0  0  0  0  0  0  0  0  0  0  0  0
   -3.3113   -1.0088    2.4366 C   0  0  0  0  0  0  0  0  0  0  0  0
   -2.1873   -0.9237    1.6506 C   0  0  0  0  0  0  0  0  0  0  0  0
   -2.2560   -0.4151    0.3633 C   0  0  0  0  0  0  0  0  0  0  0  0
   -1.1945   -0.3553   -0.5141 O   0  0  0  0  0  0  0  0  0  0  0  0
   -0.2729   -1.3808   -0.5020 C   0  0  0  0  0  0  0  0  0  0  0  0
    1.0657   -0.9824   -0.4249 C   0  0  0  0  0  0  0  0  0  0  0  0
    2.1014   -1.9240   -0.3249 C   0  0  0  0  0  0  0  0  0  0  0  0
    1.7638   -3.2901   -0.3450 C   0  0  0  0  0  0  0  0  0  0  0  0
    0.4195   -3.6827   -0.5168 C   0  0  0  0  0  0  0  0  0  0  0  0
   -0.6071   -2.7367   -0.6012 C   0  0  0  0  0  0  0  0  0  0  0  0
   -1.9249   -3.0402   -0.8217 O   0  0  0  0  0  0  0  0  0  0  0  0
   -2.3361   -4.3685   -0.5113 C   0  0  0  0  0  0  0  0  0  0  0  0
    2.8229   -4.3624   -0.2545 C   0  0  0  0  0  0  0  0  0  0  0  0
    4.1562   -3.8447    0.2782 C   0  0  0  0  0  0  0  0  0  0  0  0
    4.5633   -2.5693   -0.4198 N   0  0  0  0  0  0  0  0  0  0  0  0
    4.8925   -2.7581   -1.8779 C   0  0  0  0  0  0  0  0  0  0  0  0
    3.5413   -1.4481   -0.1841 C   0  0  2  0  0  0  0  0  0  0  0  0
    3.8207   -0.7825    1.1979 C   0  0  0  0  0  0  0  0  0  0  0  0
   -1.0817   -1.3808    2.3044 O   0  0  0  0  0  0  0  0  0  0  0  0
   -1.6396   -1.7564    3.5811 C   0  0  0  0  0  0  0  0  0  0  0  0
   -3.0606   -1.5463    3.6592 O   0  0  0  0  0  0  0  0  0  0  0  0
   -6.0273    0.3139    0.1914 C   0  0  0  0  0  0  0  0  0  0  0  0
   -6.0646    1.1009   -1.1189 C   0  0  0  0  0  0  0  0  0  0  0  0
   -4.9316    0.6930   -2.0308 N   0  0  0  0  0  0  0  0  0  0  0  0
   -5.0625    1.2663   -3.4101 C   0  0  0  0  0  0  0  0  0  0  0  0
    5.7423    5.4038    1.2465 H   0  0  0  0  0  0  0  0  0  0  0  0
    5.4892    5.3929   -0.5420 H   0  0  0  0  0  0  0  0  0  0  0  0
    4.8025    6.6786    0.4585 H   0  0  0  0  0  0  0  0  0  0  0  0
    5.9701    3.2294    0.1399 H   0  0  0  0  0  0  0  0  0  0  0  0
    5.9302    0.8194    0.4211 H   0  0  0  0  0  0  0  0  0  0  0  0
    1.8348    1.0345    1.7913 H   0  0  0  0  0  0  0  0  0  0  0  0
    1.3672    3.2353   -1.1908 H   0  0  0  0  0  0  0  0  0  0  0  0
   -0.7474    2.6989   -2.3267 H   0  0  0  0  0  0  0  0  0  0  0  0
   -2.8099    2.9515    1.4723 H   0  0  0  0  0  0  0  0  0  0  0  0
   -0.6777    3.4598    2.5835 H   0  0  0  0  0  0  0  0  0  0  0  0
   -4.0463    2.9003   -0.5966 H   0  0  0  0  0  0  0  0  0  0  0  0
   -3.2672    2.9296   -2.1562 H   0  0  0  0  0  0  0  0  0  0  0  0
   -2.8483    0.4753   -2.1036 H   0  0  0  0  0  0  0  0  0  0  0  0
   -5.4214   -0.7314    2.6355 H   0  0  0  0  0  0  0  0  0  0  0  0
    1.2775    0.0841   -0.4248 H   0  0  0  0  0  0  0  0  0  0  0  0
    0.1974   -4.7448   -0.5926 H   0  0  0  0  0  0  0  0  0  0  0  0
   -2.0259   -4.6587    0.4983 H   0  0  0  0  0  0  0  0  0  0  0  0
   -3.4295   -4.3942   -0.5447 H   0  0  0  0  0  0  0  0  0  0  0  0
   -1.9628   -5.0747   -1.2595 H   0  0  0  0  0  0  0  0  0  0  0  0
    2.9621   -4.7971   -1.2517 H   0  0  0  0  0  0  0  0  0  0  0  0
    2.4767   -5.1670    0.4054 H   0  0  0  0  0  0  0  0  0  0  0  0
    4.0943   -3.6123    1.3475 H   0  0  0  0  0  0  0  0  0  0  0  0
    4.9596   -4.5749    0.1340 H   0  0  0  0  0  0  0  0  0  0  0  0
    5.4482   -2.2709    0.0087 H   0  0  0  0  0  0  0  0  0  0  0  0
    3.9777   -2.9771   -2.4332 H   0  0  0  0  0  0  0  0  0  0  0  0
    5.3501   -1.8329   -2.2386 H   0  0  0  0  0  0  0  0  0  0  0  0
    5.6089   -3.5796   -1.9596 H   0  0  0  0  0  0  0  0  0  0  0  0
    3.7355   -0.7271   -0.9891 H   0  0  0  0  0  0  0  0  0  0  0  0
    3.0715   -1.0824    1.9423 H   0  0  0  0  0  0  0  0  0  0  0  0
    4.7853   -1.1046    1.6113 H   0  0  0  0  0  0  0  0  0  0  0  0
   -1.4299   -2.8179    3.7551 H   0  0  0  0  0  0  0  0  0  0  0  0
   -1.1505   -1.1668    4.3650 H   0  0  0  0  0  0  0  0  0  0  0  0
   -6.5568   -0.6349    0.0327 H   0  0  0  0  0  0  0  0  0  0  0  0
   -6.5877    0.8712    0.9517 H   0  0  0  0  0  0  0  0  0  0  0  0
   -7.0039    0.9058   -1.6487 H   0  0  0  0  0  0  0  0  0  0  0  0
   -5.9926    2.1788   -0.9482 H   0  0  0  0  0  0  0  0  0  0  0  0
   -5.0050   -0.3274   -2.1453 H   0  0  0  0  0  0  0  0  0  0  0  0
   -4.1970    0.9495   -3.9974 H   0  0  0  0  0  0  0  0  0  0  0  0
   -5.9781    0.8647   -3.8524 H   0  0  0  0  0  0  0  0  0  0  0  0
   -5.1189    2.3551   -3.3414 H   0  0  0  0  0  0  0  0  0  0  0  0
  1  2  1  0
  2  3  1  0
  3  4  2  0
  4  5  1  0
  5  6  2  0
  6  7  1  0
  7  8  2  0
  8  9  1  0
  9 10  1  0
 10 11  2  0
 11 12  1  0
 12 13  2  0
 13 14  1  0
 14 15  2  0
 13 16  1  0
 16 17  1  0
 17 18  1  0
 18 19  1  0
 19 20  2  0
 20 21  1  0
 21 22  2  0
 22 23  1  0
 23 24  1  0
 24 25  1  0
 25 26  2  0
 26 27  1  0
 27 28  2  0
 28 29  1  0
 29 30  2  0
 30 31  1  0
 31 32  1  0
 28 33  1  0
 33 34  1  0
 34 35  1  0
 35 36  1  0
 35 37  1  0
 37 38  1  0
 22 39  1  0
 39 40  1  0
 40 41  1  0
 19 42  1  0
 42 43  1  0
 43 44  1  0
 44 45  1  0
  8  3  1  0
 15 10  1  0
 44 17  1  0
 38  6  1  0
 23 18  2  0
 30 25  1  0
 41 21  1  0
 37 27  1  0
  1 46  1  0
  1 47  1  0
  1 48  1  0
  4 49  1  0
  5 50  1  0
  7 51  1  0
 11 52  1  0
 12 53  1  0
 14 54  1  0
 15 55  1  0
 16 56  1  0
 16 57  1  0
 17 58  1  6
 20 59  1  0
 26 60  1  0
 29 61  1  0
 32 62  1  0
 32 63  1  0
 32 64  1  0
 33 65  1  0
 33 66  1  0
 34 67  1  0
 34 68  1  0
 35 69  1  0
 36 70  1  0
 36 71  1  0
 36 72  1  0
 37 73  1  6
 38 74  1  0
 38 75  1  0
 40 76  1  0
 40 77  1  0
 42 78  1  0
 42 79  1  0
 43 80  1  0
 43 81  1  0
 44 82  1  0
 45 83  1  0
 45 84  1  0
 45 85  1  0
M  CHG  2  35   1  44   1
M  END
$$$$
