
     RDKit          3D

 42 43  0  0  0  0  0  0  0  0999 V2000
    6.7499   -2.6528    2.2209 C   0  0  0  0  0  0  0  0  0  0  0  0
    5.3850   -2.1465    1.8233 C   0  0  0  0  0  0  0  0  0  0  0  0
    4.4305   -3.1145    1.7297 N   0  0  0  0  0  0  0  0  0  0  0  0
    3.1978   -2.7095    1.3872 C   0  0  0  0  0  0  0  0  0  0  0  0
    2.8311   -1.3939    1.1294 C   0  0  0  0  0  0  0  0  0  0  0  0
    1.3903   -1.1160    0.7915 C   0  0  0  0  0  0  0  0  0  0  0  0
    1.0904   -1.0901   -1.0078 S   0  0  0  0  0  0  0  0  0  0  0  0
   -0.9687   -1.0862   -1.1061 S   0  0  0  0  0  0  0  0  0  0  0  0
   -1.3725    0.6888   -0.9608 C   0  0  0  0  0  0  0  0  0  0  0  0
   -2.8571    0.9228   -0.8481 C   0  0  0  0  0  0  0  0  0  0  0  0
   -3.3927    1.1099    0.4206 C   0  0  0  0  0  0  0  0  0  0  0  0
   -4.6894    1.3304    0.6855 N   0  0  0  0  0  0  0  0  0  0  0  0
   -5.5329    1.3639   -0.3842 C   0  0  0  0  0  0  0  0  0  0  0  0
   -6.9782    1.6158   -0.0302 C   0  0  0  0  0  0  0  0  0  0  0  0
   -5.1563    1.1822   -1.7434 C   0  0  0  0  0  0  0  0  0  0  0  0
   -5.9937    1.2238   -2.7162 O   0  0  0  0  0  0  0  0  0  0  0  0
   -3.7538    0.9561   -1.9451 C   0  0  0  0  0  0  0  0  0  0  0  0
   -3.2462    0.6823   -3.3610 C   0  0  0  0  0  0  0  0  0  0  0  0
   -3.7703    1.6030   -4.3187 O   0  0  0  0  0  0  0  0  0  0  0  0
    3.8450   -0.4097    1.2086 C   0  0  0  0  0  0  0  0  0  0  0  0
    3.5447    1.0438    0.8520 C   0  0  0  0  0  0  0  0  0  0  0  0
    3.9920    1.9395    1.8694 O   0  0  0  0  0  0  0  0  0  0  0  0
    5.1856   -0.7599    1.5804 C   0  0  0  0  0  0  0  0  0  0  0  0
    6.1175    0.1165    1.6938 O   0  0  0  0  0  0  0  0  0  0  0  0
    6.7315   -3.7385    2.3659 H   0  0  0  0  0  0  0  0  0  0  0  0
    7.4842   -2.4362    1.4385 H   0  0  0  0  0  0  0  0  0  0  0  0
    7.0695   -2.1987    3.1643 H   0  0  0  0  0  0  0  0  0  0  0  0
    2.4715   -3.5148    1.3246 H   0  0  0  0  0  0  0  0  0  0  0  0
    1.0541   -0.1805    1.2486 H   0  0  0  0  0  0  0  0  0  0  0  0
    0.7642   -1.9014    1.2330 H   0  0  0  0  0  0  0  0  0  0  0  0
   -0.9546    1.2467   -1.8044 H   0  0  0  0  0  0  0  0  0  0  0  0
   -0.8748    1.0820   -0.0661 H   0  0  0  0  0  0  0  0  0  0  0  0
   -2.7620    1.0857    1.3045 H   0  0  0  0  0  0  0  0  0  0  0  0
   -7.0953    1.7334    1.0527 H   0  0  0  0  0  0  0  0  0  0  0  0
   -7.6034    0.7727   -0.3407 H   0  0  0  0  0  0  0  0  0  0  0  0
   -7.3360    2.5359   -0.5031 H   0  0  0  0  0  0  0  0  0  0  0  0
   -2.1614    0.7478   -3.4457 H   0  0  0  0  0  0  0  0  0  0  0  0
   -3.5385   -0.3317   -3.6570 H   0  0  0  0  0  0  0  0  0  0  0  0
   -4.7017    1.7123   -3.9921 H   0  0  0  0  0  0  0  0  0  0  0  0
    4.0495    1.2988   -0.0871 H   0  0  0  0  0  0  0  0  0  0  0  0
    2.4832    1.2452    0.7074 H   0  0  0  0  0  0  0  0  0  0  0  0
    4.8721    1.5418    2.0979 H   0  0  0  0  0  0  0  0  0  0  0  0
  1  2  1  0
  2  3  2  0
  3  4  1  0
  4  5  2  0
  5  6  1  0
  6  7  1  0
  7  8  1  0
  8  9  1  0
  9 10  1  0
 10 11  2  0
 11 12  1  0
 12 13  2  0
 13 14  1  0
 13 15  1  0
 15 16  1  0
 15 17  2  0
 17 18  1  0
 18 19  1  0
  5 20  1  0
 20 21  1  0
 21 22  1  0
 20 23  2  0
 23 24  1  0
 23  2  1  0
 17 10  1  0
  1 25  1  0
  1 26  1  0
  1 27  1  0
  4 28  1  0
  6 29  1  0
  6 30  1  0
  9 31  1  0
  9 32  1  0
 11 33  1  0
 14 34  1  0
 14 35  1  0
 14 36  1  0
 18 37  1  0
 18 38  1  0
 19 39  1  0
 21 40  1  0
 21 41  1  0
 22 42  1  0
M  CHG  2  16  -1  24  -1
M  END
$$$$
