
     RDKit          3D

 47 48  0  0  0  0  0  0  0  0999 V2000
   -7.2457    1.4592    1.5304 C   0  0  0  0  0  0  0  0  0  0  0  0
   -5.9605    0.9316    0.9570 C   0  0  0  0  0  0  0  0  0  0  0  0
   -4.7590    1.6009    1.1751 C   0  0  0  0  0  0  0  0  0  0  0  0
   -3.5685    1.1266    0.6126 C   0  0  0  0  0  0  0  0  0  0  0  0
   -3.5462   -0.0304   -0.1856 C   0  0  0  0  0  0  0  0  0  0  0  0
   -2.3961   -0.5286   -0.7637 N   0  0  0  0  0  0  0  0  0  0  0  0
   -1.1625   -0.1760   -0.4072 C   0  0  0  0  0  0  0  0  0  0  0  0
    0.0147   -0.5870   -0.9317 N   0  0  0  0  0  0  0  0  0  0  0  0
    0.0359   -1.5091   -2.0873 C   0  0  0  0  0  0  0  0  0  0  0  0
    1.1725   -0.1463   -0.3882 C   0  0  0  0  0  0  0  0  0  0  0  0
    2.4203   -0.4673   -0.7245 N   0  0  0  0  0  0  0  0  0  0  0  0
    3.5478    0.0598   -0.1279 C   0  0  0  0  0  0  0  0  0  0  0  0
    3.5277    1.2167    0.6704 C   0  0  0  0  0  0  0  0  0  0  0  0
    4.6964    1.7210    1.2521 C   0  0  0  0  0  0  0  0  0  0  0  0
    5.9180    1.0824    1.0537 C   0  0  0  0  0  0  0  0  0  0  0  0
    7.1798    1.6423    1.6479 C   0  0  0  0  0  0  0  0  0  0  0  0
    5.9614   -0.0500    0.2382 C   0  0  0  0  0  0  0  0  0  0  0  0
    4.7939   -0.5709   -0.3516 C   0  0  0  0  0  0  0  0  0  0  0  0
    4.9365   -1.8036   -1.2079 C   0  0  0  0  0  0  0  0  0  0  0  0
   -4.7722   -0.6925   -0.4294 C   0  0  0  0  0  0  0  0  0  0  0  0
   -4.8694   -1.9282   -1.2875 C   0  0  0  0  0  0  0  0  0  0  0  0
   -5.9619   -0.2014    0.1412 C   0  0  0  0  0  0  0  0  0  0  0  0
   -7.0653    1.9858    2.4735 H   0  0  0  0  0  0  0  0  0  0  0  0
   -7.7146    2.1500    0.8230 H   0  0  0  0  0  0  0  0  0  0  0  0
   -7.9420    0.6412    1.7433 H   0  0  0  0  0  0  0  0  0  0  0  0
   -4.7480    2.5080    1.7804 H   0  0  0  0  0  0  0  0  0  0  0  0
   -2.6887    1.7305    0.8046 H   0  0  0  0  0  0  0  0  0  0  0  0
   -2.5291   -1.2462   -1.4647 H   0  0  0  0  0  0  0  0  0  0  0  0
   -1.0763    0.5071    0.4274 H   0  0  0  0  0  0  0  0  0  0  0  0
    0.9180   -1.3250   -2.7066 H   0  0  0  0  0  0  0  0  0  0  0  0
   -0.8406   -1.3476   -2.7208 H   0  0  0  0  0  0  0  0  0  0  0  0
    0.0461   -2.5387   -1.7203 H   0  0  0  0  0  0  0  0  0  0  0  0
    1.0554    0.5342    0.4448 H   0  0  0  0  0  0  0  0  0  0  0  0
    2.5828   -1.1812   -1.4232 H   0  0  0  0  0  0  0  0  0  0  0  0
    2.6298    1.7980    0.8480 H   0  0  0  0  0  0  0  0  0  0  0  0
    4.6525    2.6273    1.8571 H   0  0  0  0  0  0  0  0  0  0  0  0
    6.9708    2.1639    2.5878 H   0  0  0  0  0  0  0  0  0  0  0  0
    7.8931    0.8422    1.8723 H   0  0  0  0  0  0  0  0  0  0  0  0
    7.6425    2.3449    0.9481 H   0  0  0  0  0  0  0  0  0  0  0  0
    6.9249   -0.5328    0.0630 H   0  0  0  0  0  0  0  0  0  0  0  0
    4.6742   -1.5730   -2.2453 H   0  0  0  0  0  0  0  0  0  0  0  0
    4.2871   -2.6015   -0.8335 H   0  0  0  0  0  0  0  0  0  0  0  0
    5.9618   -2.1885   -1.2021 H   0  0  0  0  0  0  0  0  0  0  0  0
   -5.8846   -2.3391   -1.2983 H   0  0  0  0  0  0  0  0  0  0  0  0
   -4.2061   -2.7095   -0.9024 H   0  0  0  0  0  0  0  0  0  0  0  0
   -4.5962   -1.6909   -2.3207 H   0  0  0  0  0  0  0  0  0  0  0  0
   -6.9099   -0.7085   -0.0494 H   0  0  0  0  0  0  0  0  0  0  0  0
  1  2  1  0
  2  3  2  0
  3  4  1  0
  4  5  2  0
  5  6  1  0
  6  7  2  0
  7  8  1  0
  8  9  1  0
  8 10  1  0
 10 11  2  0
 11 12  1  0
 12 13  2  0
 13 14  1  0
 14 15  2  0
 15 16  1  0
 15 17  1  0
 17 18  2  0
 18 19  1  0
  5 20  1  0
 20 21  1  0
 20 22  2  0
 22  2  1  0
 18 12  1  0
  1 23  1  0
  1 24  1  0
  1 25  1  0
  3 26  1  0
  4 27  1  0
  6 28  1  0
  7 29  1  0
  9 30  1  0
  9 31  1  0
  9 32  1  0
 10 33  1  0
 11 34  1  0
 13 35  1  0
 14 36  1  0
 16 37  1  0
 16 38  1  0
 16 39  1  0
 17 40  1  0
 19 41  1  0
 19 42  1  0
 19 43  1  0
 21 44  1  0
 21 45  1  0
 21 46  1  0
 22 47  1  0
M  CHG  2   6   1  11   1
M  END
$$$$
