
     RDKit          3D

 66 69  0  0  0  0  0  0  0  0999 V2000
   -4.7979    2.0491   -0.6836 C   0  0  0  0  0  0  0  0  0  0  0  0
   -3.9785    0.8916   -0.1407 C   0  0  0  0  0  0  0  0  0  0  0  0
   -2.7846    1.4025    0.6128 C   0  0  0  0  0  0  0  0  0  0  0  0
   -2.7862    1.5389    1.9103 N   0  0  0  0  0  0  0  0  0  0  0  0
   -1.5492    2.0452    2.1960 N   0  0  0  0  0  0  0  0  0  0  0  0
   -1.1244    2.3357    3.5439 C   0  0  0  0  0  0  0  0  0  0  0  0
   -0.4966    1.1281    4.2415 C   0  0  0  0  0  0  0  0  0  0  0  0
    1.0224    1.0165    4.0948 C   0  0  0  0  0  0  0  0  0  0  0  0
    1.4913    0.6012    2.7310 N   0  0  0  0  0  0  0  0  0  0  0  0
    3.0031    0.6492    2.5970 C   0  0  0  0  0  0  0  0  0  0  0  0
    3.3920    0.5300    1.1114 C   0  0  0  0  0  0  0  0  0  0  0  0
    2.6867   -0.5681    0.4247 N   0  0  0  0  0  0  0  0  0  0  0  0
    3.0570   -0.9009   -0.8802 C   0  0  0  0  0  0  0  0  0  0  0  0
    3.7089    0.0240   -1.7202 C   0  0  0  0  0  0  0  0  0  0  0  0
    4.0597   -0.2788   -3.0433 C   0  0  0  0  0  0  0  0  0  0  0  0
    3.7644   -1.5273   -3.5729 C   0  0  0  0  0  0  0  0  0  0  0  0
    3.1260   -2.4622   -2.7714 C   0  0  0  0  0  0  0  0  0  0  0  0
    2.7505   -4.0169   -3.4085 Cl  0  0  0  0  0  0  0  0  0  0  0  0
    2.7825   -2.1568   -1.4483 C   0  0  0  0  0  0  0  0  0  0  0  0
    1.8544   -1.4686    1.2397 C   0  0  0  0  0  0  0  0  0  0  0  0
    0.9394   -0.7321    2.2478 C   0  0  0  0  0  0  0  0  0  0  0  0
   -0.8072    2.1673    1.0309 C   0  0  0  0  0  0  0  0  0  0  0  0
    0.3870    2.4361    0.9894 O   0  0  0  0  0  0  0  0  0  0  0  0
   -1.6355    1.7778    0.0149 N   0  0  0  0  0  0  0  0  0  0  0  0
   -1.2320    1.6792   -1.3827 C   0  0  0  0  0  0  0  0  0  0  0  0
   -0.1882    0.5783   -1.5984 C   0  0  0  0  0  0  0  0  0  0  0  0
   -0.6363   -0.6719   -1.0673 O   0  0  0  0  0  0  0  0  0  0  0  0
   -1.3453   -1.5134   -1.8768 C   0  0  0  0  0  0  0  0  0  0  0  0
   -1.7111   -2.7207   -1.2735 C   0  0  0  0  0  0  0  0  0  0  0  0
   -2.4456   -3.6764   -1.9769 C   0  0  0  0  0  0  0  0  0  0  0  0
   -2.8224   -3.4289   -3.2933 C   0  0  0  0  0  0  0  0  0  0  0  0
   -2.4648   -2.2276   -3.9011 C   0  0  0  0  0  0  0  0  0  0  0  0
   -1.7288   -1.2700   -3.1955 C   0  0  0  0  0  0  0  0  0  0  0  0
   -5.1418    2.6994    0.1277 H   0  0  0  0  0  0  0  0  0  0  0  0
   -5.6763    1.6757   -1.2189 H   0  0  0  0  0  0  0  0  0  0  0  0
   -4.2124    2.6642   -1.3743 H   0  0  0  0  0  0  0  0  0  0  0  0
   -4.5939    0.2909    0.5380 H   0  0  0  0  0  0  0  0  0  0  0  0
   -3.6591    0.2431   -0.9601 H   0  0  0  0  0  0  0  0  0  0  0  0
   -0.4215    3.1754    3.5166 H   0  0  0  0  0  0  0  0  0  0  0  0
   -2.0123    2.6617    4.0979 H   0  0  0  0  0  0  0  0  0  0  0  0
   -0.9968    0.1983    3.9489 H   0  0  0  0  0  0  0  0  0  0  0  0
   -0.6877    1.2490    5.3162 H   0  0  0  0  0  0  0  0  0  0  0  0
    1.4954    1.9790    4.3201 H   0  0  0  0  0  0  0  0  0  0  0  0
    1.4120    0.2717    4.7986 H   0  0  0  0  0  0  0  0  0  0  0  0
    1.1671    1.3065    2.0396 H   0  0  0  0  0  0  0  0  0  0  0  0
    3.3489    1.6054    3.0031 H   0  0  0  0  0  0  0  0  0  0  0  0
    3.4093   -0.1720    3.1980 H   0  0  0  0  0  0  0  0  0  0  0  0
    3.1426    1.4807    0.6248 H   0  0  0  0  0  0  0  0  0  0  0  0
    4.4776    0.3867    1.0502 H   0  0  0  0  0  0  0  0  0  0  0  0
    3.9516    1.0250   -1.3749 H   0  0  0  0  0  0  0  0  0  0  0  0
    4.5613    0.4658   -3.6574 H   0  0  0  0  0  0  0  0  0  0  0  0
    4.0339   -1.7647   -4.5984 H   0  0  0  0  0  0  0  0  0  0  0  0
    2.3042   -2.9445   -0.8764 H   0  0  0  0  0  0  0  0  0  0  0  0
    1.1857   -2.0866    0.6323 H   0  0  0  0  0  0  0  0  0  0  0  0
    2.5164   -2.1531    1.7847 H   0  0  0  0  0  0  0  0  0  0  0  0
    0.7738   -1.3692    3.1237 H   0  0  0  0  0  0  0  0  0  0  0  0
   -0.0286   -0.5115    1.7883 H   0  0  0  0  0  0  0  0  0  0  0  0
   -0.7990    2.6422   -1.6744 H   0  0  0  0  0  0  0  0  0  0  0  0
   -2.1135    1.4941   -2.0004 H   0  0  0  0  0  0  0  0  0  0  0  0
    0.7134    0.8409   -1.0384 H   0  0  0  0  0  0  0  0  0  0  0  0
    0.1325    0.5077   -2.6430 H   0  0  0  0  0  0  0  0  0  0  0  0
   -1.4235   -2.9256   -0.2467 H   0  0  0  0  0  0  0  0  0  0  0  0
   -2.7219   -4.6138   -1.5007 H   0  0  0  0  0  0  0  0  0  0  0  0
   -3.3916   -4.1719   -3.8472 H   0  0  0  0  0  0  0  0  0  0  0  0
   -2.7578   -2.0373   -4.9314 H   0  0  0  0  0  0  0  0  0  0  0  0
   -1.4787   -0.3536   -3.7175 H   0  0  0  0  0  0  0  0  0  0  0  0
  1  2  1  0
  2  3  1  0
  3  4  2  0
  4  5  1  0
  5  6  1  0
  6  7  1  0
  7  8  1  0
  8  9  1  0
  9 10  1  0
 10 11  1  0
 11 12  1  0
 12 13  1  0
 13 14  2  0
 14 15  1  0
 15 16  2  0
 16 17  1  0
 17 18  1  0
 17 19  2  0
 12 20  1  0
 20 21  1  0
  5 22  1  0
 22 23  2  0
 22 24  1  0
 24 25  1  0
 25 26  1  0
 26 27  1  0
 27 28  1  0
 28 29  2  0
 29 30  1  0
 30 31  2  0
 31 32  1  0
 32 33  2  0
 24  3  1  0
 33 28  1  0
 21  9  1  0
 19 13  1  0
  1 34  1  0
  1 35  1  0
  1 36  1  0
  2 37  1  0
  2 38  1  0
  6 39  1  0
  6 40  1  0
  7 41  1  0
  7 42  1  0
  8 43  1  0
  8 44  1  0
  9 45  1  0
 10 46  1  0
 10 47  1  0
 11 48  1  0
 11 49  1  0
 14 50  1  0
 15 51  1  0
 16 52  1  0
 19 53  1  0
 20 54  1  0
 20 55  1  0
 21 56  1  0
 21 57  1  0
 25 58  1  0
 25 59  1  0
 26 60  1  0
 26 61  1  0
 29 62  1  0
 30 63  1  0
 31 64  1  0
 32 65  1  0
 33 66  1  0
M  CHG  1   9   1
M  END
$$$$
