
     RDKit          3D

 67 71  0  0  0  0  0  0  0  0999 V2000
   -9.6005   -2.1602   -2.2186 C   0  0  0  0  0  0  0  0  0  0  0  0
   -9.0355   -1.1588   -0.8616 S   0  0  0  0  0  0  0  0  0  0  0  0
   -9.3683    0.2362   -1.1077 O   0  0  0  0  0  0  0  0  0  0  0  0
   -9.3974   -1.7844    0.3909 O   0  0  0  0  0  0  0  0  0  0  0  0
   -7.2670   -1.2111   -0.9638 C   0  0  0  0  0  0  0  0  0  0  0  0
   -6.6902   -0.2856    0.0989 C   0  0  0  0  0  0  0  0  0  0  0  0
   -6.9720    1.1586   -0.2167 N   0  0  0  0  0  0  0  0  0  0  0  0
   -6.6380    2.1269    0.8750 C   0  0  0  0  0  0  0  0  0  0  0  0
   -5.1753    2.2992    1.0294 C   0  0  0  0  0  0  0  0  0  0  0  0
   -4.3417    2.4741    2.1111 C   0  0  0  0  0  0  0  0  0  0  0  0
   -3.0260    2.5480    1.5886 C   0  0  0  0  0  0  0  0  0  0  0  0
   -3.1291    2.4240    0.2169 C   0  0  0  0  0  0  0  0  0  0  0  0
   -2.1695    2.3981   -0.8813 C   0  0  0  0  0  0  0  0  0  0  0  0
   -2.5570    2.6811   -2.1917 C   0  0  0  0  0  0  0  0  0  0  0  0
   -1.6273    2.6233   -3.2365 C   0  0  0  0  0  0  0  0  0  0  0  0
   -0.2982    2.2897   -3.0207 C   0  0  0  0  0  0  0  0  0  0  0  0
    0.5176    2.2296   -4.0736 N   0  0  0  0  0  0  0  0  0  0  0  0
    1.7867    1.8874   -3.8303 C   0  0  0  0  0  0  0  0  0  0  0  0
    2.3089    1.6098   -2.6334 N   0  0  0  0  0  0  0  0  0  0  0  0
    1.4871    1.6974   -1.5727 C   0  0  0  0  0  0  0  0  0  0  0  0
    2.0127    1.4529   -0.2842 N   0  0  0  0  0  0  0  0  0  0  0  0
    3.0978    0.6531    0.1193 C   0  0  0  0  0  0  0  0  0  0  0  0
    3.6544   -0.3413   -0.6958 C   0  0  0  0  0  0  0  0  0  0  0  0
    4.7040   -1.1468   -0.2427 C   0  0  0  0  0  0  0  0  0  0  0  0
    5.2151   -0.9632    1.0393 C   0  0  0  0  0  0  0  0  0  0  0  0
    6.2124   -1.7951    1.4725 O   0  0  0  0  0  0  0  0  0  0  0  0
    7.4938   -1.2729    1.1027 C   0  0  0  0  0  0  0  0  0  0  0  0
    8.5517   -2.1577    1.7113 C   0  0  0  0  0  0  0  0  0  0  0  0
    8.7956   -2.1211    3.0941 C   0  0  0  0  0  0  0  0  0  0  0  0
    9.7688   -2.9430    3.6688 C   0  0  0  0  0  0  0  0  0  0  0  0
   10.5044   -3.8135    2.8672 C   0  0  0  0  0  0  0  0  0  0  0  0
   10.2577   -3.8570    1.5003 C   0  0  0  0  0  0  0  0  0  0  0  0
   10.9609   -4.6976    0.7299 F   0  0  0  0  0  0  0  0  0  0  0  0
    9.2916   -3.0429    0.9168 C   0  0  0  0  0  0  0  0  0  0  0  0
    4.6515   -0.0044    1.8813 C   0  0  0  0  0  0  0  0  0  0  0  0
    5.2153    0.2203    3.4970 Cl  0  0  0  0  0  0  0  0  0  0  0  0
    3.6023    0.7982    1.4216 C   0  0  0  0  0  0  0  0  0  0  0  0
    0.1229    2.0251   -1.7118 C   0  0  0  0  0  0  0  0  0  0  0  0
   -0.8252    2.0788   -0.6511 C   0  0  0  0  0  0  0  0  0  0  0  0
   -4.4454    2.2701   -0.1249 O   0  0  0  0  0  0  0  0  0  0  0  0
   -9.2229   -1.7344   -3.1497 H   0  0  0  0  0  0  0  0  0  0  0  0
   -9.2335   -3.1784   -2.0784 H   0  0  0  0  0  0  0  0  0  0  0  0
  -10.6922   -2.1498   -2.2158 H   0  0  0  0  0  0  0  0  0  0  0  0
   -6.9699   -0.9023   -1.9702 H   0  0  0  0  0  0  0  0  0  0  0  0
   -6.9549   -2.2449   -0.7907 H   0  0  0  0  0  0  0  0  0  0  0  0
   -5.6019   -0.3923    0.1407 H   0  0  0  0  0  0  0  0  0  0  0  0
   -7.1105   -0.4904    1.0890 H   0  0  0  0  0  0  0  0  0  0  0  0
   -7.9777    1.2802   -0.4570 H   0  0  0  0  0  0  0  0  0  0  0  0
   -6.4402    1.4595   -1.0450 H   0  0  0  0  0  0  0  0  0  0  0  0
   -7.0968    3.0783    0.5876 H   0  0  0  0  0  0  0  0  0  0  0  0
   -7.1154    1.7695    1.7926 H   0  0  0  0  0  0  0  0  0  0  0  0
   -4.6316    2.5396    3.1525 H   0  0  0  0  0  0  0  0  0  0  0  0
   -2.1113    2.6849    2.1509 H   0  0  0  0  0  0  0  0  0  0  0  0
   -3.5816    2.9590   -2.4250 H   0  0  0  0  0  0  0  0  0  0  0  0
   -1.9514    2.8448   -4.2522 H   0  0  0  0  0  0  0  0  0  0  0  0
    2.4545    1.8305   -4.6835 H   0  0  0  0  0  0  0  0  0  0  0  0
    1.7501    2.1691    0.3797 H   0  0  0  0  0  0  0  0  0  0  0  0
    3.2703   -0.5146   -1.6980 H   0  0  0  0  0  0  0  0  0  0  0  0
    5.1096   -1.9207   -0.8889 H   0  0  0  0  0  0  0  0  0  0  0  0
    7.6286   -0.2475    1.4717 H   0  0  0  0  0  0  0  0  0  0  0  0
    7.5960   -1.2593    0.0100 H   0  0  0  0  0  0  0  0  0  0  0  0
    8.2186   -1.4531    3.7318 H   0  0  0  0  0  0  0  0  0  0  0  0
    9.9484   -2.9062    4.7403 H   0  0  0  0  0  0  0  0  0  0  0  0
   11.2625   -4.4595    3.2979 H   0  0  0  0  0  0  0  0  0  0  0  0
    9.1261   -3.1129   -0.1540 H   0  0  0  0  0  0  0  0  0  0  0  0
    3.1788    1.5417    2.0912 H   0  0  0  0  0  0  0  0  0  0  0  0
   -0.5015    1.8333    0.3582 H   0  0  0  0  0  0  0  0  0  0  0  0
  1  2  1  0
  2  3  2  0
  2  4  2  0
  2  5  1  0
  5  6  1  0
  6  7  1  0
  7  8  1  0
  8  9  1  0
  9 10  2  0
 10 11  1  0
 11 12  2  0
 12 13  1  0
 13 14  2  0
 14 15  1  0
 15 16  2  0
 16 17  1  0
 17 18  2  0
 18 19  1  0
 19 20  2  0
 20 21  1  0
 21 22  1  0
 22 23  2  0
 23 24  1  0
 24 25  2  0
 25 26  1  0
 26 27  1  0
 27 28  1  0
 28 29  2  0
 29 30  1  0
 30 31  2  0
 31 32  1  0
 32 33  1  0
 32 34  2  0
 25 35  1  0
 35 36  1  0
 35 37  2  0
 20 38  1  0
 38 39  2  0
 12 40  1  0
 40  9  1  0
 39 13  1  0
 38 16  1  0
 37 22  1  0
 34 28  1  0
  1 41  1  0
  1 42  1  0
  1 43  1  0
  5 44  1  0
  5 45  1  0
  6 46  1  0
  6 47  1  0
  7 48  1  0
  7 49  1  0
  8 50  1  0
  8 51  1  0
 10 52  1  0
 11 53  1  0
 14 54  1  0
 15 55  1  0
 18 56  1  0
 21 57  1  0
 23 58  1  0
 24 59  1  0
 27 60  1  0
 27 61  1  0
 29 62  1  0
 30 63  1  0
 31 64  1  0
 34 65  1  0
 37 66  1  0
 39 67  1  0
M  CHG  1   7   1
M  END
$$$$
