REF_CHEMBL1397__H_AF__e8__s20260927
     RDKit          3D

 93 99  0  0  0  0  0  0  0  0999 V2000
   17.0310  -17.2790  -12.8600 C   0  0  0  0  0  0  0  0  0  0  0  0
   15.7100  -16.6080  -12.5050 C   0  0  0  0  0  0  0  0  0  0  0  0
   14.8330  -17.4710  -11.5770 C   0  0  1  0  0  0  0  0  0  0  0  0
   15.6140  -18.7090  -11.0690 C   0  0  2  0  0  0  0  0  0  0  0  0
   14.7520  -19.9650  -11.0000 C   0  0  0  0  0  0  0  0  0  0  0  0
   16.1670  -18.4710   -9.7710 O   0  0  0  0  0  0  0  0  0  0  0  0
   14.3180  -16.6790  -10.4630 N   0  0  0  0  0  0  0  0  0  0  0  0
   15.0730  -15.7570   -9.7820 N   0  0  0  0  0  0  0  0  0  0  0  0
   14.2440  -15.2800   -8.9050 C   0  0  0  0  0  0  0  0  0  0  0  0
   12.9930  -15.7940   -8.9240 N   0  0  0  0  0  0  0  0  0  0  0  0
   11.9090  -15.4500   -8.0790 C   0  0  0  0  0  0  0  0  0  0  0  0
   10.7510  -14.8480   -8.5780 C   0  0  0  0  0  0  0  0  0  0  0  0
    9.6800  -14.5130   -7.7340 C   0  0  0  0  0  0  0  0  0  0  0  0
    9.7090  -14.7640   -6.3570 C   0  0  0  0  0  0  0  0  0  0  0  0
    8.6370  -14.4160   -5.5480 N   0  0  0  0  0  0  0  0  0  0  0  0
    8.9160  -13.6140   -4.3360 C   0  0  0  0  0  0  0  0  0  0  0  0
    7.7950  -13.7570   -3.2820 C   0  0  0  0  0  0  0  0  0  0  0  0
    6.4630  -13.5150   -3.8650 N   0  0  0  0  0  0  0  0  0  0  0  0
    5.3880  -13.1750   -3.0510 C   0  0  0  0  0  0  0  0  0  0  0  0
    4.0580  -13.2220   -3.4920 C   0  0  0  0  0  0  0  0  0  0  0  0
    2.9840  -12.8810   -2.6540 C   0  0  0  0  0  0  0  0  0  0  0  0
    3.2190  -12.4860   -1.3410 C   0  0  0  0  0  0  0  0  0  0  0  0
    2.2740  -12.1270   -0.4220 O   0  0  0  0  0  0  0  0  0  0  0  0
    1.2060  -13.0470   -0.1940 C   0  0  0  0  0  0  0  0  0  0  0  0
   -0.1130  -12.3430   -0.5300 C   0  0  2  0  0  0  0  0  0  0  0  0
   -0.5300  -11.4100    0.5800 C   0  0  0  0  0  0  0  0  0  0  0  0
   -1.2130  -12.2330    1.5320 O   0  0  0  0  0  0  0  0  0  0  0  0
   -1.8780  -13.3230    0.8420 C   0  0  1  0  0  0  0  0  0  0  0  0
   -1.5120  -14.6630    1.5300 C   0  0  0  0  0  0  0  0  0  0  0  0
   -1.3880  -14.5880    2.9730 N   0  0  0  0  0  0  0  0  0  0  0  0
   -0.4890  -13.8690    3.6990 C   0  0  0  0  0  0  0  0  0  0  0  0
   -0.7550  -13.9960    4.9780 N   0  0  0  0  0  0  0  0  0  0  0  0
   -1.8650  -14.7890    4.9820 C   0  0  0  0  0  0  0  0  0  0  0  0
   -2.3080  -15.1560    3.7770 N   0  0  0  0  0  0  0  0  0  0  0  0
   -3.3900  -13.0940    0.8470 C   0  0  0  0  0  0  0  0  0  0  0  0
   -4.1990  -13.4580   -0.2450 C   0  0  0  0  0  0  0  0  0  0  0  0
   -5.5760  -13.2250   -0.2210 C   0  0  0  0  0  0  0  0  0  0  0  0
   -6.1550  -12.6240    0.8900 C   0  0  0  0  0  0  0  0  0  0  0  0
   -7.4760  -12.4030    0.9080 F   0  0  0  0  0  0  0  0  0  0  0  0
   -5.3850  -12.2440    1.9780 C   0  0  0  0  0  0  0  0  0  0  0  0
   -4.0150  -12.4780    1.9450 C   0  0  0  0  0  0  0  0  0  0  0  0
   -3.2750  -12.0830    2.9910 F   0  0  0  0  0  0  0  0  0  0  0  0
   -1.3110  -13.2800   -0.5990 C   0  0  0  0  0  0  0  0  0  0  0  0
    4.5310  -12.4440   -0.8780 C   0  0  0  0  0  0  0  0  0  0  0  0
    5.5960  -12.7860   -1.7210 C   0  0  0  0  0  0  0  0  0  0  0  0
    6.1820  -14.3220   -5.0720 C   0  0  0  0  0  0  0  0  0  0  0  0
    7.3010  -14.1800   -6.1280 C   0  0  0  0  0  0  0  0  0  0  0  0
   10.8750  -15.3550   -5.8620 C   0  0  0  0  0  0  0  0  0  0  0  0
   11.9520  -15.6950   -6.7010 C   0  0  0  0  0  0  0  0  0  0  0  0
   13.0120  -16.7270   -9.9480 C   0  0  0  0  0  0  0  0  0  0  0  0
   12.1270  -17.4610  -10.3590 O   0  0  0  0  0  0  0  0  0  0  0  0
   17.5644  -17.5499  -11.9369 H   0  0  0  0  0  0  0  0  0  0  0  0
   16.8344  -18.1865  -13.4497 H   0  0  0  0  0  0  0  0  0  0  0  0
   17.6479  -16.5850  -13.4497 H   0  0  0  0  0  0  0  0  0  0  0  0
   15.9245  -15.6548  -11.9997 H   0  0  0  0  0  0  0  0  0  0  0  0
   15.1529  -16.4568  -13.4413 H   0  0  0  0  0  0  0  0  0  0  0  0
   13.9731  -17.8328  -12.1598 H   0  0  0  0  0  0  0  0  0  0  0  0
   16.4163  -18.8755  -11.8028 H   0  0  0  0  0  0  0  0  0  0  0  0
   14.5713  -20.2283   -9.9474 H   0  0  0  0  0  0  0  0  0  0  0  0
   13.7909  -19.7781  -11.5014 H   0  0  0  0  0  0  0  0  0  0  0  0
   15.2720  -20.7946  -11.5014 H   0  0  0  0  0  0  0  0  0  0  0  0
   16.1860  -19.3490   -9.3320 H   0  0  0  0  0  0  0  0  0  0  0  0
   14.5417  -14.5018   -8.1869 H   0  0  0  0  0  0  0  0  0  0  0  0
   10.6769  -14.6321   -9.6541 H   0  0  0  0  0  0  0  0  0  0  0  0
    8.7886  -14.0376   -8.1692 H   0  0  0  0  0  0  0  0  0  0  0  0
    9.8647  -13.9537   -3.8950 H   0  0  0  0  0  0  0  0  0  0  0  0
    8.9737  -12.5562   -4.6321 H   0  0  0  0  0  0  0  0  0  0  0  0
    7.8230  -14.7758   -2.8681 H   0  0  0  0  0  0  0  0  0  0  0  0
    7.9662  -13.0067   -2.4960 H   0  0  0  0  0  0  0  0  0  0  0  0
    3.8495  -13.5354   -4.5256 H   0  0  0  0  0  0  0  0  0  0  0  0
    1.9538  -12.9264   -3.0370 H   0  0  0  0  0  0  0  0  0  0  0  0
    1.3313  -13.9299   -0.8380 H   0  0  0  0  0  0  0  0  0  0  0  0
    1.2048  -13.3748    0.8560 H   0  0  0  0  0  0  0  0  0  0  0  0
    0.1017  -11.8591   -1.4942 H   0  0  0  0  0  0  0  0  0  0  0  0
    0.3521  -10.9405    1.0399 H   0  0  0  0  0  0  0  0  0  0  0  0
   -1.1696  -10.5948    0.2106 H   0  0  0  0  0  0  0  0  0  0  0  0
   -2.2961  -15.3965    1.2909 H   0  0  0  0  0  0  0  0  0  0  0  0
   -0.5213  -14.9491    1.1470 H   0  0  0  0  0  0  0  0  0  0  0  0
    0.3343  -13.2729    3.2784 H   0  0  0  0  0  0  0  0  0  0  0  0
   -2.3602  -15.1039    5.9124 H   0  0  0  0  0  0  0  0  0  0  0  0
   -3.7423  -13.9310   -1.1269 H   0  0  0  0  0  0  0  0  0  0  0  0
   -6.2000  -13.5163   -1.0788 H   0  0  0  0  0  0  0  0  0  0  0  0
   -5.8499  -11.7655    2.8526 H   0  0  0  0  0  0  0  0  0  0  0  0
   -0.9970  -14.2842   -0.9199 H   0  0  0  0  0  0  0  0  0  0  0  0
   -2.0613  -12.9345   -1.3254 H   0  0  0  0  0  0  0  0  0  0  0  0
    4.7333  -12.1394    0.1595 H   0  0  0  0  0  0  0  0  0  0  0  0
    6.6229  -12.7482   -1.3286 H   0  0  0  0  0  0  0  0  0  0  0  0
    6.0978  -15.3797   -4.7819 H   0  0  0  0  0  0  0  0  0  0  0  0
    5.2434  -13.9590   -5.5162 H   0  0  0  0  0  0  0  0  0  0  0  0
    7.1274  -14.9116   -6.9309 H   0  0  0  0  0  0  0  0  0  0  0  0
    7.2747  -13.1514   -6.5169 H   0  0  0  0  0  0  0  0  0  0  0  0
   10.9529  -15.5604   -4.7842 H   0  0  0  0  0  0  0  0  0  0  0  0
   12.8469  -16.1633   -6.2652 H   0  0  0  0  0  0  0  0  0  0  0  0
  1  2  1  0
  2  3  1  0
  3  4  1  0
  4  5  1  0
  4  6  1  0
  3  7  1  0
  7  8  1  0
  8  9  2  0
  9 10  1  0
 10 11  1  0
 11 12  2  0
 12 13  1  0
 13 14  2  0
 14 15  1  0
 15 16  1  0
 16 17  1  0
 17 18  1  0
 18 19  1  0
 19 20  2  0
 20 21  1  0
 21 22  2  0
 22 23  1  0
 23 24  1  0
 24 25  1  0
 25 26  1  0
 26 27  1  0
 27 28  1  0
 28 29  1  1
 29 30  1  0
 30 31  1  0
 31 32  2  0
 32 33  1  0
 33 34  2  0
 28 35  1  0
 35 36  2  0
 36 37  1  0
 37 38  2  0
 38 39  1  0
 38 40  1  0
 40 41  2  0
 41 42  1  0
 28 43  1  0
 22 44  1  0
 44 45  2  0
 18 46  1  0
 46 47  1  0
 14 48  1  0
 48 49  2  0
 10 50  1  0
 50 51  2  0
 50  7  1  0
 49 11  1  0
 47 15  1  0
 45 19  1  0
 43 25  1  0
 34 30  1  0
 41 35  1  0
  1 52  1  0
  1 53  1  0
  1 54  1  0
  2 55  1  0
  2 56  1  0
  3 57  1  6
  4 58  1  6
  5 59  1  0
  5 60  1  0
  5 61  1  0
  6 62  1  0
  9 63  1  0
 12 64  1  0
 13 65  1  0
 16 66  1  0
 16 67  1  0
 17 68  1  0
 17 69  1  0
 20 70  1  0
 21 71  1  0
 24 72  1  0
 24 73  1  0
 25 74  1  6
 26 75  1  0
 26 76  1  0
 29 77  1  0
 29 78  1  0
 31 79  1  0
 33 80  1  0
 36 81  1  0
 37 82  1  0
 40 83  1  0
 43 84  1  0
 43 85  1  0
 44 86  1  0
 45 87  1  0
 46 88  1  0
 46 89  1  0
 47 90  1  0
 47 91  1  0
 48 92  1  0
 49 93  1  0
M  END
>  <meeko>  (1) 
{"is_sidechain": [false], "free_energy": -10.495, "intermolecular_energy": -18.164, "internal_energy": -1.621}

$$$$
REF_CHEMBL1397__H_AF__e8__s20260927
     RDKit          3D

 93 99  0  0  0  0  0  0  0  0999 V2000
   13.8880  -19.3130  -10.6950 C   0  0  0  0  0  0  0  0  0  0  0  0
   15.1140  -18.4210  -10.8550 C   0  0  0  0  0  0  0  0  0  0  0  0
   15.5620  -17.7800   -9.5270 C   0  0  1  0  0  0  0  0  0  0  0  0
   17.0120  -17.2450   -9.6320 C   0  0  2  0  0  0  0  0  0  0  0  0
   17.3990  -16.8590  -11.0550 C   0  0  0  0  0  0  0  0  0  0  0  0
   17.9530  -18.2120   -9.1560 O   0  0  0  0  0  0  0  0  0  0  0  0
   14.6380  -16.7250   -9.1210 N   0  0  0  0  0  0  0  0  0  0  0  0
   14.6480  -15.4650   -9.6660 N   0  0  0  0  0  0  0  0  0  0  0  0
   13.6770  -14.8650   -9.0490 C   0  0  0  0  0  0  0  0  0  0  0  0
   13.0080  -15.5990   -8.1310 N   0  0  0  0  0  0  0  0  0  0  0  0
   11.9190  -15.1840   -7.3250 C   0  0  0  0  0  0  0  0  0  0  0  0
   11.9520  -15.2890   -5.9320 C   0  0  0  0  0  0  0  0  0  0  0  0
   10.8690  -14.8730   -5.1420 C   0  0  0  0  0  0  0  0  0  0  0  0
    9.7050  -14.3310   -5.6980 C   0  0  0  0  0  0  0  0  0  0  0  0
    8.6490  -13.9340   -4.8910 N   0  0  0  0  0  0  0  0  0  0  0  0
    7.4490  -13.3700   -5.5470 C   0  0  0  0  0  0  0  0  0  0  0  0
    6.6190  -12.4990   -4.5780 C   0  0  0  0  0  0  0  0  0  0  0  0
    6.3320  -13.2070   -3.3160 N   0  0  0  0  0  0  0  0  0  0  0  0
    5.2790  -12.8020   -2.5050 C   0  0  0  0  0  0  0  0  0  0  0  0
    5.4700  -12.2770   -1.2180 C   0  0  0  0  0  0  0  0  0  0  0  0
    4.3950  -11.8680   -0.4140 C   0  0  0  0  0  0  0  0  0  0  0  0
    3.0900  -11.9720   -0.8850 C   0  0  0  0  0  0  0  0  0  0  0  0
    1.9560  -11.6150   -0.2120 O   0  0  0  0  0  0  0  0  0  0  0  0
    0.9240  -12.5970   -0.1100 C   0  0  0  0  0  0  0  0  0  0  0  0
   -0.4200  -11.9090   -0.3690 C   0  0  2  0  0  0  0  0  0  0  0  0
   -0.8590  -11.1030    0.8290 C   0  0  0  0  0  0  0  0  0  0  0  0
   -1.5070  -12.0370    1.6990 O   0  0  0  0  0  0  0  0  0  0  0  0
   -2.1400  -13.0770    0.9090 C   0  0  1  0  0  0  0  0  0  0  0  0
   -1.7240  -14.4650    1.4610 C   0  0  0  0  0  0  0  0  0  0  0  0
   -1.2940  -14.4610    2.8460 N   0  0  0  0  0  0  0  0  0  0  0  0
   -0.0540  -14.1860    3.3360 C   0  0  0  0  0  0  0  0  0  0  0  0
   -0.0860  -14.2030    4.6480 N   0  0  0  0  0  0  0  0  0  0  0  0
   -1.3980  -14.4650    4.9180 C   0  0  0  0  0  0  0  0  0  0  0  0
   -2.1840  -14.6040    3.8480 N   0  0  0  0  0  0  0  0  0  0  0  0
   -3.6600  -12.9010    0.9440 C   0  0  0  0  0  0  0  0  0  0  0  0
   -4.3030  -12.2180    1.9920 C   0  0  0  0  0  0  0  0  0  0  0  0
   -5.6930  -12.0840    2.0080 C   0  0  0  0  0  0  0  0  0  0  0  0
   -6.4510  -12.6320    0.9810 C   0  0  0  0  0  0  0  0  0  0  0  0
   -7.7840  -12.5000    1.0000 F   0  0  0  0  0  0  0  0  0  0  0  0
   -5.8490  -13.3200   -0.0610 C   0  0  0  0  0  0  0  0  0  0  0  0
   -4.4650  -13.4510   -0.0670 C   0  0  0  0  0  0  0  0  0  0  0  0
   -3.8940  -14.1400   -1.0660 F   0  0  0  0  0  0  0  0  0  0  0  0
   -1.5870  -12.8740   -0.5230 C   0  0  0  0  0  0  0  0  0  0  0  0
    2.8770  -12.4790   -2.1640 C   0  0  0  0  0  0  0  0  0  0  0  0
    3.9560  -12.8850   -2.9590 C   0  0  0  0  0  0  0  0  0  0  0  0
    7.5330  -13.7650   -2.6570 C   0  0  0  0  0  0  0  0  0  0  0  0
    8.3640  -14.6360   -3.6240 C   0  0  0  0  0  0  0  0  0  0  0  0
    9.6720  -14.2400   -7.0930 C   0  0  0  0  0  0  0  0  0  0  0  0
   10.7530  -14.6530   -7.8920 C   0  0  0  0  0  0  0  0  0  0  0  0
   13.6250  -16.8390   -8.1560 C   0  0  0  0  0  0  0  0  0  0  0  0
   13.3900  -17.8470   -7.5070 O   0  0  0  0  0  0  0  0  0  0  0  0
   13.6812  -19.4635   -9.6252 H   0  0  0  0  0  0  0  0  0  0  0  0
   13.0207  -18.8333  -11.1722 H   0  0  0  0  0  0  0  0  0  0  0  0
   14.0775  -20.2858  -11.1722 H   0  0  0  0  0  0  0  0  0  0  0  0
   15.9419  -19.0286  -11.2492 H   0  0  0  0  0  0  0  0  0  0  0  0
   14.8437  -17.6058  -11.5423 H   0  0  0  0  0  0  0  0  0  0  0  0
   15.5471  -18.5581   -8.7496 H   0  0  0  0  0  0  0  0  0  0  0  0
   17.0408  -16.3416   -9.0050 H   0  0  0  0  0  0  0  0  0  0  0  0
   18.1775  -16.0825  -11.0254 H   0  0  0  0  0  0  0  0  0  0  0  0
   17.7836  -17.7439  -11.5832 H   0  0  0  0  0  0  0  0  0  0  0  0
   16.5151  -16.4721  -11.5832 H   0  0  0  0  0  0  0  0  0  0  0  0
   18.7540  -17.6980   -8.9130 H   0  0  0  0  0  0  0  0  0  0  0  0
   13.4128  -13.8184   -9.2606 H   0  0  0  0  0  0  0  0  0  0  0  0
   12.8453  -15.7064   -5.4444 H   0  0  0  0  0  0  0  0  0  0  0  0
   10.9376  -14.9766   -4.0490 H   0  0  0  0  0  0  0  0  0  0  0  0
    7.7671  -12.7505   -6.3984 H   0  0  0  0  0  0  0  0  0  0  0  0
    6.8172  -14.2067   -5.8798 H   0  0  0  0  0  0  0  0  0  0  0  0
    7.1825  -11.5818   -4.3518 H   0  0  0  0  0  0  0  0  0  0  0  0
    5.6608  -12.2637   -5.0643 H   0  0  0  0  0  0  0  0  0  0  0  0
    6.4939  -12.1831   -0.8271 H   0  0  0  0  0  0  0  0  0  0  0  0
    4.5847  -11.4641    0.5914 H   0  0  0  0  0  0  0  0  0  0  0  0
    1.0874  -13.3877   -0.8571 H   0  0  0  0  0  0  0  0  0  0  0  0
    0.9307  -13.0521    0.8914 H   0  0  0  0  0  0  0  0  0  0  0  0
   -0.2289  -11.3269   -1.2826 H   0  0  0  0  0  0  0  0  0  0  0  0
    0.0107  -10.6513    1.3286 H   0  0  0  0  0  0  0  0  0  0  0  0
   -1.5279  -10.2777    0.5438 H   0  0  0  0  0  0  0  0  0  0  0  0
   -2.5864  -15.1420    1.3717 H   0  0  0  0  0  0  0  0  0  0  0  0
   -0.8568  -14.7891    0.8668 H   0  0  0  0  0  0  0  0  0  0  0  0
    0.8380  -13.9810    2.7259 H   0  0  0  0  0  0  0  0  0  0  0  0
   -1.7809  -14.5553    5.9453 H   0  0  0  0  0  0  0  0  0  0  0  0
   -3.7049  -11.7850    2.8073 H   0  0  0  0  0  0  0  0  0  0  0  0
   -6.1860  -11.5462    2.8312 H   0  0  0  0  0  0  0  0  0  0  0  0
   -6.4558  -13.7547   -0.8690 H   0  0  0  0  0  0  0  0  0  0  0  0
   -1.2431  -13.8309   -0.9426 H   0  0  0  0  0  0  0  0  0  0  0  0
   -2.3544  -12.4840   -1.2078 H   0  0  0  0  0  0  0  0  0  0  0  0
    1.8517  -12.5614   -2.5537 H   0  0  0  0  0  0  0  0  0  0  0  0
    3.7597  -13.2796   -3.9668 H   0  0  0  0  0  0  0  0  0  0  0  0
    8.1595  -12.9356   -2.2968 H   0  0  0  0  0  0  0  0  0  0  0  0
    7.2015  -14.4007   -1.8227 H   0  0  0  0  0  0  0  0  0  0  0  0
    9.3167  -14.8956   -3.1392 H   0  0  0  0  0  0  0  0  0  0  0  0
    7.7794  -15.5379   -3.8582 H   0  0  0  0  0  0  0  0  0  0  0  0
    8.7735  -13.8331   -7.5800 H   0  0  0  0  0  0  0  0  0  0  0  0
   10.6816  -14.5571   -8.9855 H   0  0  0  0  0  0  0  0  0  0  0  0
  1  2  1  0
  2  3  1  0
  3  4  1  0
  4  5  1  0
  4  6  1  0
  3  7  1  0
  7  8  1  0
  8  9  2  0
  9 10  1  0
 10 11  1  0
 11 12  2  0
 12 13  1  0
 13 14  2  0
 14 15  1  0
 15 16  1  0
 16 17  1  0
 17 18  1  0
 18 19  1  0
 19 20  2  0
 20 21  1  0
 21 22  2  0
 22 23  1  0
 23 24  1  0
 24 25  1  0
 25 26  1  0
 26 27  1  0
 27 28  1  0
 28 29  1  1
 29 30  1  0
 30 31  1  0
 31 32  2  0
 32 33  1  0
 33 34  2  0
 28 35  1  0
 35 36  2  0
 36 37  1  0
 37 38  2  0
 38 39  1  0
 38 40  1  0
 40 41  2  0
 41 42  1  0
 28 43  1  0
 22 44  1  0
 44 45  2  0
 18 46  1  0
 46 47  1  0
 14 48  1  0
 48 49  2  0
 10 50  1  0
 50 51  2  0
 50  7  1  0
 49 11  1  0
 47 15  1  0
 45 19  1  0
 43 25  1  0
 34 30  1  0
 41 35  1  0
  1 52  1  0
  1 53  1  0
  1 54  1  0
  2 55  1  0
  2 56  1  0
  3 57  1  1
  4 58  1  1
  5 59  1  0
  5 60  1  0
  5 61  1  0
  6 62  1  0
  9 63  1  0
 12 64  1  0
 13 65  1  0
 16 66  1  0
 16 67  1  0
 17 68  1  0
 17 69  1  0
 20 70  1  0
 21 71  1  0
 24 72  1  0
 24 73  1  0
 25 74  1  6
 26 75  1  0
 26 76  1  0
 29 77  1  0
 29 78  1  0
 31 79  1  0
 33 80  1  0
 36 81  1  0
 37 82  1  0
 40 83  1  0
 43 84  1  0
 43 85  1  0
 44 86  1  0
 45 87  1  0
 46 88  1  0
 46 89  1  0
 47 90  1  0
 47 91  1  0
 48 92  1  0
 49 93  1  0
M  END
>  <meeko>  (2) 
{"is_sidechain": [false], "free_energy": -10.432, "intermolecular_energy": -18.324, "internal_energy": -1.352}

$$$$
REF_CHEMBL1397__H_AF__e8__s20260927
     RDKit          3D

 93 99  0  0  0  0  0  0  0  0999 V2000
   15.0450  -19.8380  -12.3200 C   0  0  0  0  0  0  0  0  0  0  0  0
   15.3390  -18.5140  -11.6260 C   0  0  0  0  0  0  0  0  0  0  0  0
   15.7240  -18.6910  -10.1440 C   0  0  1  0  0  0  0  0  0  0  0  0
   16.7410  -17.6090   -9.7020 C   0  0  2  0  0  0  0  0  0  0  0  0
   17.1760  -16.7030  -10.8490 C   0  0  0  0  0  0  0  0  0  0  0  0
   17.9100  -18.2050   -9.1310 O   0  0  0  0  0  0  0  0  0  0  0  0
   14.5370  -18.6770   -9.2930 N   0  0  0  0  0  0  0  0  0  0  0  0
   14.1650  -19.7350   -8.5020 N   0  0  0  0  0  0  0  0  0  0  0  0
   13.0910  -19.3060   -7.9130 C   0  0  0  0  0  0  0  0  0  0  0  0
   12.6940  -18.0530   -8.2330 N   0  0  0  0  0  0  0  0  0  0  0  0
   11.5650  -17.3550   -7.7380 C   0  0  0  0  0  0  0  0  0  0  0  0
   11.0580  -17.5920   -6.4570 C   0  0  0  0  0  0  0  0  0  0  0  0
    9.9400  -16.8930   -5.9740 C   0  0  0  0  0  0  0  0  0  0  0  0
    9.2780  -15.9260   -6.7370 C   0  0  0  0  0  0  0  0  0  0  0  0
    8.1720  -15.2560   -6.2340 N   0  0  0  0  0  0  0  0  0  0  0  0
    7.6040  -14.1530   -7.0400 C   0  0  0  0  0  0  0  0  0  0  0  0
    6.7760  -13.1760   -6.1740 C   0  0  0  0  0  0  0  0  0  0  0  0
    5.7820  -13.8860   -5.3480 N   0  0  0  0  0  0  0  0  0  0  0  0
    4.6800  -13.2110   -4.8370 C   0  0  0  0  0  0  0  0  0  0  0  0
    3.8850  -12.3560   -5.6150 C   0  0  0  0  0  0  0  0  0  0  0  0
    2.7710  -11.6880   -5.0830 C   0  0  0  0  0  0  0  0  0  0  0  0
    2.4200  -11.8640   -3.7480 C   0  0  0  0  0  0  0  0  0  0  0  0
    1.3680  -11.2790   -3.1030 O   0  0  0  0  0  0  0  0  0  0  0  0
    1.4120  -11.2550   -1.6760 C   0  0  0  0  0  0  0  0  0  0  0  0
    0.0350  -10.8210   -1.1620 C   0  0  2  0  0  0  0  0  0  0  0  0
    0.0160  -10.7450    0.3450 C   0  0  0  0  0  0  0  0  0  0  0  0
   -0.2410  -12.0810    0.7900 O   0  0  0  0  0  0  0  0  0  0  0  0
   -1.0690  -12.7660   -0.1850 C   0  0  1  0  0  0  0  0  0  0  0  0
   -0.4270  -14.1330   -0.5330 C   0  0  0  0  0  0  0  0  0  0  0  0
    0.7080  -14.4960    0.2940 N   0  0  0  0  0  0  0  0  0  0  0  0
    1.9950  -14.7040   -0.0960 C   0  0  0  0  0  0  0  0  0  0  0  0
    2.7440  -14.9320    0.9580 N   0  0  0  0  0  0  0  0  0  0  0  0
    1.8590  -14.8170    1.9910 C   0  0  0  0  0  0  0  0  0  0  0  0
    0.6050  -14.5230    1.6380 N   0  0  0  0  0  0  0  0  0  0  0  0
   -2.4830  -12.9450    0.3700 C   0  0  0  0  0  0  0  0  0  0  0  0
   -2.8190  -12.5610    1.6810 C   0  0  0  0  0  0  0  0  0  0  0  0
   -4.1140  -12.7490    2.1690 C   0  0  0  0  0  0  0  0  0  0  0  0
   -5.0820  -13.3230    1.3540 C   0  0  0  0  0  0  0  0  0  0  0  0
   -6.3230  -13.5010    1.8270 F   0  0  0  0  0  0  0  0  0  0  0  0
   -4.7810  -13.7220    0.0610 C   0  0  0  0  0  0  0  0  0  0  0  0
   -3.4890  -13.5330   -0.4150 C   0  0  0  0  0  0  0  0  0  0  0  0
   -3.2020  -13.9450   -1.6580 F   0  0  0  0  0  0  0  0  0  0  0  0
   -1.0690  -11.8350   -1.4230 C   0  0  0  0  0  0  0  0  0  0  0  0
    3.1880  -12.7180   -2.9610 C   0  0  0  0  0  0  0  0  0  0  0  0
    4.2970  -13.3810   -3.4990 C   0  0  0  0  0  0  0  0  0  0  0  0
    6.3520  -14.9840   -4.5380 C   0  0  0  0  0  0  0  0  0  0  0  0
    7.1790  -15.9620   -5.4010 C   0  0  0  0  0  0  0  0  0  0  0  0
    9.7820  -15.7020   -8.0220 C   0  0  0  0  0  0  0  0  0  0  0  0
   10.9030  -16.3960   -8.5130 C   0  0  0  0  0  0  0  0  0  0  0  0
   13.6350  -17.6100   -9.1490 C   0  0  0  0  0  0  0  0  0  0  0  0
   13.7170  -16.5430   -9.7380 O   0  0  0  0  0  0  0  0  0  0  0  0
   14.8718  -20.6178  -11.5638 H   0  0  0  0  0  0  0  0  0  0  0  0
   14.1487  -19.7314  -12.9486 H   0  0  0  0  0  0  0  0  0  0  0  0
   15.9022  -20.1208  -12.9486 H   0  0  0  0  0  0  0  0  0  0  0  0
   16.1710  -18.0198  -12.1490 H   0  0  0  0  0  0  0  0  0  0  0  0
   14.4203  -17.9100  -11.6604 H   0  0  0  0  0  0  0  0  0  0  0  0
   16.2083  -19.6723  -10.0324 H   0  0  0  0  0  0  0  0  0  0  0  0
   16.2176  -16.9974   -8.9523 H   0  0  0  0  0  0  0  0  0  0  0  0
   17.6182  -15.7820  -10.4413 H   0  0  0  0  0  0  0  0  0  0  0  0
   17.9214  -17.2255  -11.4665 H   0  0  0  0  0  0  0  0  0  0  0  0
   16.3021  -16.4480  -11.4665 H   0  0  0  0  0  0  0  0  0  0  0  0
   17.6160  -19.0780   -8.7920 H   0  0  0  0  0  0  0  0  0  0  0  0
   12.5351  -19.9261   -7.1944 H   0  0  0  0  0  0  0  0  0  0  0  0
   11.5445  -18.3409   -5.8147 H   0  0  0  0  0  0  0  0  0  0  0  0
    9.5724  -17.1136   -4.9610 H   0  0  0  0  0  0  0  0  0  0  0  0
    8.4270  -13.5983   -7.5144 H   0  0  0  0  0  0  0  0  0  0  0  0
    6.9351  -14.5911   -7.7954 H   0  0  0  0  0  0  0  0  0  0  0  0
    7.4575  -12.6208   -5.5127 H   0  0  0  0  0  0  0  0  0  0  0  0
    6.2369  -12.4938   -6.8477 H   0  0  0  0  0  0  0  0  0  0  0  0
    4.1424  -12.2046   -6.6737 H   0  0  0  0  0  0  0  0  0  0  0  0
    2.1733  -11.0230   -5.7237 H   0  0  0  0  0  0  0  0  0  0  0  0
    1.6530  -12.2580   -1.2939 H   0  0  0  0  0  0  0  0  0  0  0  0
    2.1851  -10.5525   -1.3313 H   0  0  0  0  0  0  0  0  0  0  0  0
   -0.1350   -9.8675   -1.6834 H   0  0  0  0  0  0  0  0  0  0  0  0
    0.9864  -10.3929    0.7248 H   0  0  0  0  0  0  0  0  0  0  0  0
   -0.7449  -10.0391    0.7093 H   0  0  0  0  0  0  0  0  0  0  0  0
   -1.1960  -14.9115   -0.4208 H   0  0  0  0  0  0  0  0  0  0  0  0
   -0.0474  -14.0459   -1.5618 H   0  0  0  0  0  0  0  0  0  0  0  0
    2.3533  -14.6841   -1.1358 H   0  0  0  0  0  0  0  0  0  0  0  0
    2.1578  -14.9567    3.0404 H   0  0  0  0  0  0  0  0  0  0  0  0
   -2.0538  -12.1080    2.3285 H   0  0  0  0  0  0  0  0  0  0  0  0
   -4.3668  -12.4437    3.1951 H   0  0  0  0  0  0  0  0  0  0  0  0
   -5.5511  -14.1801   -0.5770 H   0  0  0  0  0  0  0  0  0  0  0  0
   -0.8568  -12.4091   -2.3370 H   0  0  0  0  0  0  0  0  0  0  0  0
   -2.0450  -11.3499   -1.5716 H   0  0  0  0  0  0  0  0  0  0  0  0
    2.9204  -12.8732   -1.9054 H   0  0  0  0  0  0  0  0  0  0  0  0
    4.8835  -14.0530   -2.8553 H   0  0  0  0  0  0  0  0  0  0  0  0
    7.0037  -14.5539   -3.7632 H   0  0  0  0  0  0  0  0  0  0  0  0
    5.5199  -15.5446   -4.0872 H   0  0  0  0  0  0  0  0  0  0  0  0
    7.7058  -16.6637   -4.7375 H   0  0  0  0  0  0  0  0  0  0  0  0
    6.4876  -16.4935   -6.0714 H   0  0  0  0  0  0  0  0  0  0  0  0
    9.2875  -14.9615   -8.6679 H   0  0  0  0  0  0  0  0  0  0  0  0
   11.2671  -16.1801   -9.5283 H   0  0  0  0  0  0  0  0  0  0  0  0
  1  2  1  0
  2  3  1  0
  3  4  1  0
  4  5  1  0
  4  6  1  0
  3  7  1  0
  7  8  1  0
  8  9  2  0
  9 10  1  0
 10 11  1  0
 11 12  2  0
 12 13  1  0
 13 14  2  0
 14 15  1  0
 15 16  1  0
 16 17  1  0
 17 18  1  0
 18 19  1  0
 19 20  2  0
 20 21  1  0
 21 22  2  0
 22 23  1  0
 23 24  1  0
 24 25  1  0
 25 26  1  0
 26 27  1  0
 27 28  1  0
 28 29  1  6
 29 30  1  0
 30 31  1  0
 31 32  2  0
 32 33  1  0
 33 34  2  0
 28 35  1  0
 35 36  2  0
 36 37  1  0
 37 38  2  0
 38 39  1  0
 38 40  1  0
 40 41  2  0
 41 42  1  0
 28 43  1  0
 22 44  1  0
 44 45  2  0
 18 46  1  0
 46 47  1  0
 14 48  1  0
 48 49  2  0
 10 50  1  0
 50 51  2  0
 50  7  1  0
 49 11  1  0
 47 15  1  0
 45 19  1  0
 43 25  1  0
 34 30  1  0
 41 35  1  0
  1 52  1  0
  1 53  1  0
  1 54  1  0
  2 55  1  0
  2 56  1  0
  3 57  1  6
  4 58  1  1
  5 59  1  0
  5 60  1  0
  5 61  1  0
  6 62  1  0
  9 63  1  0
 12 64  1  0
 13 65  1  0
 16 66  1  0
 16 67  1  0
 17 68  1  0
 17 69  1  0
 20 70  1  0
 21 71  1  0
 24 72  1  0
 24 73  1  0
 25 74  1  6
 26 75  1  0
 26 76  1  0
 29 77  1  0
 29 78  1  0
 31 79  1  0
 33 80  1  0
 36 81  1  0
 37 82  1  0
 40 83  1  0
 43 84  1  0
 43 85  1  0
 44 86  1  0
 45 87  1  0
 46 88  1  0
 46 89  1  0
 47 90  1  0
 47 91  1  0
 48 92  1  0
 49 93  1  0
M  END
>  <meeko>  (3) 
{"is_sidechain": [false], "free_energy": -9.887, "intermolecular_energy": -17.641, "internal_energy": -1.092}

$$$$
REF_CHEMBL1397__H_AF__e8__s20260927
     RDKit          3D

 93 99  0  0  0  0  0  0  0  0999 V2000
   19.5230  -18.4920  -14.3630 C   0  0  0  0  0  0  0  0  0  0  0  0
   18.5610  -17.5770  -13.6160 C   0  0  0  0  0  0  0  0  0  0  0  0
   17.3200  -18.3220  -13.0840 C   0  0  1  0  0  0  0  0  0  0  0  0
   17.6570  -19.7990  -12.7610 C   0  0  2  0  0  0  0  0  0  0  0  0
   16.5390  -20.7600  -13.1500 C   0  0  0  0  0  0  0  0  0  0  0  0
   17.9340  -19.9710  -11.3680 O   0  0  0  0  0  0  0  0  0  0  0  0
   16.7640  -17.6410  -11.9180 N   0  0  0  0  0  0  0  0  0  0  0  0
   17.5370  -17.1130  -10.9150 N   0  0  0  0  0  0  0  0  0  0  0  0
   16.6640  -16.5960  -10.1050 C   0  0  0  0  0  0  0  0  0  0  0  0
   15.3670  -16.7260  -10.4630 N   0  0  0  0  0  0  0  0  0  0  0  0
   14.2290  -16.2570   -9.7610 C   0  0  0  0  0  0  0  0  0  0  0  0
   13.6940  -16.9570   -8.6760 C   0  0  0  0  0  0  0  0  0  0  0  0
   12.5680  -16.4840   -7.9840 C   0  0  0  0  0  0  0  0  0  0  0  0
   11.9250  -15.2920   -8.3350 C   0  0  0  0  0  0  0  0  0  0  0  0
   10.8100  -14.8520   -7.6360 N   0  0  0  0  0  0  0  0  0  0  0  0
   11.0260  -14.2080   -6.3220 C   0  0  0  0  0  0  0  0  0  0  0  0
    9.7590  -14.2650   -5.4390 C   0  0  0  0  0  0  0  0  0  0  0  0
    8.5690  -13.7720   -6.1570 N   0  0  0  0  0  0  0  0  0  0  0  0
    7.4500  -13.3410   -5.4550 C   0  0  0  0  0  0  0  0  0  0  0  0
    7.3990  -12.1080   -4.7890 C   0  0  0  0  0  0  0  0  0  0  0  0
    6.2580  -11.6860   -4.0900 C   0  0  0  0  0  0  0  0  0  0  0  0
    5.1260  -12.4950   -4.0440 C   0  0  0  0  0  0  0  0  0  0  0  0
    3.9540  -12.2120   -3.4030 O   0  0  0  0  0  0  0  0  0  0  0  0
    2.8980  -13.1640   -3.5280 C   0  0  0  0  0  0  0  0  0  0  0  0
    1.6360  -12.5670   -2.8950 C   0  0  2  0  0  0  0  0  0  0  0  0
    1.9830  -11.4680   -1.9210 C   0  0  0  0  0  0  0  0  0  0  0  0
    2.2850  -12.1310   -0.6900 O   0  0  0  0  0  0  0  0  0  0  0  0
    1.4940  -13.3440   -0.5850 C   0  0  1  0  0  0  0  0  0  0  0  0
    2.4230  -14.5330   -0.2310 C   0  0  0  0  0  0  0  0  0  0  0  0
    3.7570  -14.1530    0.1910 N   0  0  0  0  0  0  0  0  0  0  0  0
    4.1490  -13.6890    1.4090 C   0  0  0  0  0  0  0  0  0  0  0  0
    5.4530  -13.5380    1.4250 N   0  0  0  0  0  0  0  0  0  0  0  0
    5.8240  -13.9620    0.1820 C   0  0  0  0  0  0  0  0  0  0  0  0
    4.8240  -14.3750   -0.6020 N   0  0  0  0  0  0  0  0  0  0  0  0
    0.4020  -13.1610    0.4710 C   0  0  0  0  0  0  0  0  0  0  0  0
    0.3470  -13.9620    1.6260 C   0  0  0  0  0  0  0  0  0  0  0  0
   -0.6700  -13.7840    2.5680 C   0  0  0  0  0  0  0  0  0  0  0  0
   -1.6380  -12.8090    2.3630 C   0  0  0  0  0  0  0  0  0  0  0  0
   -2.6100  -12.6420    3.2690 F   0  0  0  0  0  0  0  0  0  0  0  0
   -1.6170  -12.0100    1.2300 C   0  0  0  0  0  0  0  0  0  0  0  0
   -0.6040  -12.1960    0.2960 C   0  0  0  0  0  0  0  0  0  0  0  0
   -0.6070  -11.4360   -0.8080 F   0  0  0  0  0  0  0  0  0  0  0  0
    0.8810  -13.5350   -1.9950 C   0  0  0  0  0  0  0  0  0  0  0  0
    5.1500  -13.7190   -4.7080 C   0  0  0  0  0  0  0  0  0  0  0  0
    6.2930  -14.1310   -5.4030 C   0  0  0  0  0  0  0  0  0  0  0  0
    8.3500  -14.4220   -7.4680 C   0  0  0  0  0  0  0  0  0  0  0  0
    9.6150  -14.3650   -8.3530 C   0  0  0  0  0  0  0  0  0  0  0  0
   12.4560  -14.6020   -9.4290 C   0  0  0  0  0  0  0  0  0  0  0  0
   13.5850  -15.0690  -10.1270 C   0  0  0  0  0  0  0  0  0  0  0  0
   15.4010  -17.4170  -11.6630 C   0  0  0  0  0  0  0  0  0  0  0  0
   14.4870  -17.7830  -12.3860 O   0  0  0  0  0  0  0  0  0  0  0  0
   20.1230  -19.0627  -13.6389 H   0  0  0  0  0  0  0  0  0  0  0  0
   18.9513  -19.1878  -14.9947 H   0  0  0  0  0  0  0  0  0  0  0  0
   20.1893  -17.8862  -14.9947 H   0  0  0  0  0  0  0  0  0  0  0  0
   19.0930  -17.1275  -12.7646 H   0  0  0  0  0  0  0  0  0  0  0  0
   18.2102  -16.8140  -14.3265 H   0  0  0  0  0  0  0  0  0  0  0  0
   16.5545  -18.3171  -13.8739 H   0  0  0  0  0  0  0  0  0  0  0  0
   18.5476  -20.0378  -13.3609 H   0  0  0  0  0  0  0  0  0  0  0  0
   16.0695  -21.1636  -12.2408 H   0  0  0  0  0  0  0  0  0  0  0  0
   15.7850  -20.2238  -13.7449 H   0  0  0  0  0  0  0  0  0  0  0  0
   16.9559  -21.5860  -13.7449 H   0  0  0  0  0  0  0  0  0  0  0  0
   18.2430  -20.8980  -11.2770 H   0  0  0  0  0  0  0  0  0  0  0  0
   16.9628  -16.0814   -9.1799 H   0  0  0  0  0  0  0  0  0  0  0  0
   14.1653  -17.8985   -8.3576 H   0  0  0  0  0  0  0  0  0  0  0  0
   12.1785  -17.0696   -7.1382 H   0  0  0  0  0  0  0  0  0  0  0  0
   11.8456  -14.7258   -5.8023 H   0  0  0  0  0  0  0  0  0  0  0  0
   11.2736  -13.1505   -6.4964 H   0  0  0  0  0  0  0  0  0  0  0  0
    9.5843  -15.3072   -5.1336 H   0  0  0  0  0  0  0  0  0  0  0  0
    9.9226  -13.6190   -4.5639 H   0  0  0  0  0  0  0  0  0  0  0  0
    8.2810  -11.4512   -4.8154 H   0  0  0  0  0  0  0  0  0  0  0  0
    6.2579  -10.7130   -3.5768 H   0  0  0  0  0  0  0  0  0  0  0  0
    2.7150  -13.3793   -4.5911 H   0  0  0  0  0  0  0  0  0  0  0  0
    3.1700  -14.1013   -3.0206 H   0  0  0  0  0  0  0  0  0  0  0  0
    1.0455  -12.2522   -3.7680 H   0  0  0  0  0  0  0  0  0  0  0  0
    2.8557  -10.9005   -2.2764 H   0  0  0  0  0  0  0  0  0  0  0  0
    1.1587  -10.7487   -1.8061 H   0  0  0  0  0  0  0  0  0  0  0  0
    1.9546  -15.1030    0.5849 H   0  0  0  0  0  0  0  0  0  0  0  0
    2.5436  -15.1193   -1.1539 H   0  0  0  0  0  0  0  0  0  0  0  0
    3.4757  -13.4733    2.2517 H   0  0  0  0  0  0  0  0  0  0  0  0
    6.8724  -13.9636   -0.1510 H   0  0  0  0  0  0  0  0  0  0  0  0
    1.1116  -14.7358    1.7893 H   0  0  0  0  0  0  0  0  0  0  0  0
   -0.7038  -14.4141    3.4690 H   0  0  0  0  0  0  0  0  0  0  0  0
   -2.3887  -11.2420    1.0728 H   0  0  0  0  0  0  0  0  0  0  0  0
    1.0211  -14.5703   -2.3392 H   0  0  0  0  0  0  0  0  0  0  0  0
   -0.2018  -13.3416   -2.0013 H   0  0  0  0  0  0  0  0  0  0  0  0
    4.2622  -14.3682   -4.6861 H   0  0  0  0  0  0  0  0  0  0  0  0
    6.2832  -15.1006   -5.9223 H   0  0  0  0  0  0  0  0  0  0  0  0
    8.0778  -15.4749   -7.3027 H   0  0  0  0  0  0  0  0  0  0  0  0
    7.5439  -13.8830   -7.9873 H   0  0  0  0  0  0  0  0  0  0  0  0
    9.4547  -14.9907   -9.2434 H   0  0  0  0  0  0  0  0  0  0  0  0
    9.7889  -13.3154   -8.6325 H   0  0  0  0  0  0  0  0  0  0  0  0
   11.9770  -13.6665   -9.7536 H   0  0  0  0  0  0  0  0  0  0  0  0
   13.9698  -14.4883  -10.9783 H   0  0  0  0  0  0  0  0  0  0  0  0
  1  2  1  0
  2  3  1  0
  3  4  1  0
  4  5  1  0
  4  6  1  0
  3  7  1  0
  7  8  1  0
  8  9  2  0
  9 10  1  0
 10 11  1  0
 11 12  2  0
 12 13  1  0
 13 14  2  0
 14 15  1  0
 15 16  1  0
 16 17  1  0
 17 18  1  0
 18 19  1  0
 19 20  2  0
 20 21  1  0
 21 22  2  0
 22 23  1  0
 23 24  1  0
 24 25  1  0
 25 26  1  0
 26 27  1  0
 27 28  1  0
 28 29  1  1
 29 30  1  0
 30 31  1  0
 31 32  2  0
 32 33  1  0
 33 34  2  0
 28 35  1  0
 35 36  2  0
 36 37  1  0
 37 38  2  0
 38 39  1  0
 38 40  1  0
 40 41  2  0
 41 42  1  0
 28 43  1  0
 22 44  1  0
 44 45  2  0
 18 46  1  0
 46 47  1  0
 14 48  1  0
 48 49  2  0
 10 50  1  0
 50 51  2  0
 50  7  1  0
 49 11  1  0
 47 15  1  0
 45 19  1  0
 43 25  1  0
 34 30  1  0
 41 35  1  0
  1 52  1  0
  1 53  1  0
  1 54  1  0
  2 55  1  0
  2 56  1  0
  3 57  1  6
  4 58  1  6
  5 59  1  0
  5 60  1  0
  5 61  1  0
  6 62  1  0
  9 63  1  0
 12 64  1  0
 13 65  1  0
 16 66  1  0
 16 67  1  0
 17 68  1  0
 17 69  1  0
 20 70  1  0
 21 71  1  0
 24 72  1  0
 24 73  1  0
 25 74  1  6
 26 75  1  0
 26 76  1  0
 29 77  1  0
 29 78  1  0
 31 79  1  0
 33 80  1  0
 36 81  1  0
 37 82  1  0
 40 83  1  0
 43 84  1  0
 43 85  1  0
 44 86  1  0
 45 87  1  0
 46 88  1  0
 46 89  1  0
 47 90  1  0
 47 91  1  0
 48 92  1  0
 49 93  1  0
M  END
>  <meeko>  (4) 
{"is_sidechain": [false], "free_energy": -9.798, "intermolecular_energy": -16.67, "internal_energy": -1.908}

$$$$
REF_CHEMBL1397__H_AF__e8__s20260927
     RDKit          3D

 93 99  0  0  0  0  0  0  0  0999 V2000
   -6.8500  -11.4340    1.6040 C   0  0  0  0  0  0  0  0  0  0  0  0
   -6.8420  -12.9530    1.7190 C   0  0  0  0  0  0  0  0  0  0  0  0
   -5.5380  -13.4980    2.3340 C   0  0  1  0  0  0  0  0  0  0  0  0
   -5.7690  -14.8810    2.9910 C   0  0  2  0  0  0  0  0  0  0  0  0
   -7.1260  -14.9900    3.6780 C   0  0  0  0  0  0  0  0  0  0  0  0
   -4.7520  -15.1700    3.9550 O   0  0  0  0  0  0  0  0  0  0  0  0
   -4.4770  -13.5600    1.3320 N   0  0  0  0  0  0  0  0  0  0  0  0
   -4.7090  -13.8310    0.0060 N   0  0  0  0  0  0  0  0  0  0  0  0
   -3.5250  -13.7730   -0.5220 C   0  0  0  0  0  0  0  0  0  0  0  0
   -2.5070  -13.4920    0.3220 N   0  0  0  0  0  0  0  0  0  0  0  0
   -1.1310  -13.3740    0.0020 C   0  0  0  0  0  0  0  0  0  0  0  0
   -0.5820  -12.1730   -0.4530 C   0  0  0  0  0  0  0  0  0  0  0  0
    0.7830  -12.0640   -0.7650 C   0  0  0  0  0  0  0  0  0  0  0  0
    1.6640  -13.1430   -0.6350 C   0  0  0  0  0  0  0  0  0  0  0  0
    3.0070  -13.0070   -0.9570 N   0  0  0  0  0  0  0  0  0  0  0  0
    3.5980  -11.6520   -0.9050 C   0  0  0  0  0  0  0  0  0  0  0  0
    4.8730  -11.5470   -1.7720 C   0  0  0  0  0  0  0  0  0  0  0  0
    5.8300  -12.6280   -1.4700 N   0  0  0  0  0  0  0  0  0  0  0  0
    7.1720  -12.4940   -1.8010 C   0  0  0  0  0  0  0  0  0  0  0  0
    8.2040  -12.6330   -0.8620 C   0  0  0  0  0  0  0  0  0  0  0  0
    9.5560  -12.5000   -1.2160 C   0  0  0  0  0  0  0  0  0  0  0  0
    9.9110  -12.2260   -2.5330 C   0  0  0  0  0  0  0  0  0  0  0  0
   11.1800  -12.0710   -3.0130 O   0  0  0  0  0  0  0  0  0  0  0  0
   11.3230  -11.8770   -4.4210 C   0  0  0  0  0  0  0  0  0  0  0  0
   12.3650  -12.8750   -4.9390 C   0  0  2  0  0  0  0  0  0  0  0  0
   11.9610  -13.4370   -6.2800 C   0  0  0  0  0  0  0  0  0  0  0  0
   11.0720  -14.5200   -5.9860 O   0  0  0  0  0  0  0  0  0  0  0  0
   11.4460  -15.1260   -4.7220 C   0  0  1  0  0  0  0  0  0  0  0  0
   10.1930  -15.2430   -3.8180 C   0  0  0  0  0  0  0  0  0  0  0  0
    9.0710  -15.9320   -4.4260 N   0  0  0  0  0  0  0  0  0  0  0  0
    8.7190  -17.2400   -4.2880 C   0  0  0  0  0  0  0  0  0  0  0  0
    7.5950  -17.4630   -4.9280 N   0  0  0  0  0  0  0  0  0  0  0  0
    7.2760  -16.2320   -5.4230 C   0  0  0  0  0  0  0  0  0  0  0  0
    8.1340  -15.2550   -5.1190 N   0  0  0  0  0  0  0  0  0  0  0  0
   12.0780  -16.4970   -4.9710 C   0  0  0  0  0  0  0  0  0  0  0  0
   12.0620  -17.1000   -6.2420 C   0  0  0  0  0  0  0  0  0  0  0  0
   12.6330  -18.3600   -6.4400 C   0  0  0  0  0  0  0  0  0  0  0  0
   13.2210  -19.0270   -5.3720 C   0  0  0  0  0  0  0  0  0  0  0  0
   13.7670  -20.2340   -5.5680 F   0  0  0  0  0  0  0  0  0  0  0  0
   13.2440  -18.4650   -4.1060 C   0  0  0  0  0  0  0  0  0  0  0  0
   12.6710  -17.2120   -3.9170 C   0  0  0  0  0  0  0  0  0  0  0  0
   12.6770  -16.6880   -2.6830 F   0  0  0  0  0  0  0  0  0  0  0  0
   12.4720  -14.1430   -4.1040 C   0  0  0  0  0  0  0  0  0  0  0  0
    8.9040  -12.0960   -3.4850 C   0  0  0  0  0  0  0  0  0  0  0  0
    7.5580  -12.2300   -3.1230 C   0  0  0  0  0  0  0  0  0  0  0  0
    5.2390  -13.9830   -1.5290 C   0  0  0  0  0  0  0  0  0  0  0  0
    3.9650  -14.0900   -0.6620 C   0  0  0  0  0  0  0  0  0  0  0  0
    1.1070  -14.3460   -0.1920 C   0  0  0  0  0  0  0  0  0  0  0  0
   -0.2590  -14.4620    0.1240 C   0  0  0  0  0  0  0  0  0  0  0  0
   -3.1080  -13.3460    1.5610 C   0  0  0  0  0  0  0  0  0  0  0  0
   -2.6150  -13.0920    2.6500 O   0  0  0  0  0  0  0  0  0  0  0  0
   -6.8523  -10.9901    2.6105 H   0  0  0  0  0  0  0  0  0  0  0  0
   -5.9536  -11.1028    1.0593 H   0  0  0  0  0  0  0  0  0  0  0  0
   -7.7499  -11.1123    1.0593 H   0  0  0  0  0  0  0  0  0  0  0  0
   -7.6859  -13.2620    2.3534 H   0  0  0  0  0  0  0  0  0  0  0  0
   -6.9252  -13.3628    0.7016 H   0  0  0  0  0  0  0  0  0  0  0  0
   -5.2168  -12.8026    3.1234 H   0  0  0  0  0  0  0  0  0  0  0  0
   -5.7338  -15.6098    2.1678 H   0  0  0  0  0  0  0  0  0  0  0  0
   -6.9866  -14.9788    4.7691 H   0  0  0  0  0  0  0  0  0  0  0  0
   -7.7571  -14.1397    3.3803 H   0  0  0  0  0  0  0  0  0  0  0  0
   -7.6133  -15.9302    3.3803 H   0  0  0  0  0  0  0  0  0  0  0  0
   -4.8220  -14.4570    4.6270 H   0  0  0  0  0  0  0  0  0  0  0  0
   -3.3590  -13.9429   -1.5960 H   0  0  0  0  0  0  0  0  0  0  0  0
   -1.2326  -11.2937   -0.5695 H   0  0  0  0  0  0  0  0  0  0  0  0
    1.1719  -11.0993   -1.1231 H   0  0  0  0  0  0  0  0  0  0  0  0
    2.8573  -10.9264   -1.2722 H   0  0  0  0  0  0  0  0  0  0  0  0
    3.8761  -11.4406    0.1381 H   0  0  0  0  0  0  0  0  0  0  0  0
    4.5886  -11.6090   -2.8328 H   0  0  0  0  0  0  0  0  0  0  0  0
    5.3603  -10.5863   -1.5494 H   0  0  0  0  0  0  0  0  0  0  0  0
    7.9463  -12.8531    0.1845 H   0  0  0  0  0  0  0  0  0  0  0  0
   10.3371  -12.6128   -0.4497 H   0  0  0  0  0  0  0  0  0  0  0  0
   10.3589  -12.0523   -4.9208 H   0  0  0  0  0  0  0  0  0  0  0  0
   11.6462  -10.8468   -4.6316 H   0  0  0  0  0  0  0  0  0  0  0  0
   13.2948  -12.2872   -4.9368 H   0  0  0  0  0  0  0  0  0  0  0  0
   11.4486  -12.6705   -6.8800 H   0  0  0  0  0  0  0  0  0  0  0  0
   12.8322  -13.7697   -6.8634 H   0  0  0  0  0  0  0  0  0  0  0  0
   10.4776  -15.7890   -2.9065 H   0  0  0  0  0  0  0  0  0  0  0  0
    9.8560  -14.2151   -3.6184 H   0  0  0  0  0  0  0  0  0  0  0  0
    9.2893  -17.9944   -3.7261 H   0  0  0  0  0  0  0  0  0  0  0  0
    6.3754  -16.0568   -6.0298 H   0  0  0  0  0  0  0  0  0  0  0  0
   11.5954  -16.5745   -7.0882 H   0  0  0  0  0  0  0  0  0  0  0  0
   12.6171  -18.8224   -7.4380 H   0  0  0  0  0  0  0  0  0  0  0  0
   13.7076  -19.0007   -3.2645 H   0  0  0  0  0  0  0  0  0  0  0  0
   12.2218  -13.9349   -3.0532 H   0  0  0  0  0  0  0  0  0  0  0  0
   13.4918  -14.5551   -4.1123 H   0  0  0  0  0  0  0  0  0  0  0  0
    9.1681  -11.8859   -4.5320 H   0  0  0  0  0  0  0  0  0  0  0  0
    6.7827  -12.1254   -3.8963 H   0  0  0  0  0  0  0  0  0  0  0  0
    4.9800  -14.2136   -2.5729 H   0  0  0  0  0  0  0  0  0  0  0  0
    5.9795  -14.6969   -1.1391 H   0  0  0  0  0  0  0  0  0  0  0  0
    3.4803  -15.0574   -0.8598 H   0  0  0  0  0  0  0  0  0  0  0  0
    4.2624  -14.0044    0.3936 H   0  0  0  0  0  0  0  0  0  0  0  0
    1.7558  -15.2281   -0.0874 H   0  0  0  0  0  0  0  0  0  0  0  0
   -0.6501  -15.4285    0.4745 H   0  0  0  0  0  0  0  0  0  0  0  0
  1  2  1  0
  2  3  1  0
  3  4  1  0
  4  5  1  0
  4  6  1  0
  3  7  1  0
  7  8  1  0
  8  9  2  0
  9 10  1  0
 10 11  1  0
 11 12  2  0
 12 13  1  0
 13 14  2  0
 14 15  1  0
 15 16  1  0
 16 17  1  0
 17 18  1  0
 18 19  1  0
 19 20  2  0
 20 21  1  0
 21 22  2  0
 22 23  1  0
 23 24  1  0
 24 25  1  0
 25 26  1  0
 26 27  1  0
 27 28  1  0
 28 29  1  1
 29 30  1  0
 30 31  1  0
 31 32  2  0
 32 33  1  0
 33 34  2  0
 28 35  1  0
 35 36  2  0
 36 37  1  0
 37 38  2  0
 38 39  1  0
 38 40  1  0
 40 41  2  0
 41 42  1  0
 28 43  1  0
 22 44  1  0
 44 45  2  0
 18 46  1  0
 46 47  1  0
 14 48  1  0
 48 49  2  0
 10 50  1  0
 50 51  2  0
 50  7  1  0
 49 11  1  0
 47 15  1  0
 45 19  1  0
 43 25  1  0
 34 30  1  0
 41 35  1  0
  1 52  1  0
  1 53  1  0
  1 54  1  0
  2 55  1  0
  2 56  1  0
  3 57  1  1
  4 58  1  6
  5 59  1  0
  5 60  1  0
  5 61  1  0
  6 62  1  0
  9 63  1  0
 12 64  1  0
 13 65  1  0
 16 66  1  0
 16 67  1  0
 17 68  1  0
 17 69  1  0
 20 70  1  0
 21 71  1  0
 24 72  1  0
 24 73  1  0
 25 74  1  6
 26 75  1  0
 26 76  1  0
 29 77  1  0
 29 78  1  0
 31 79  1  0
 33 80  1  0
 36 81  1  0
 37 82  1  0
 40 83  1  0
 43 84  1  0
 43 85  1  0
 44 86  1  0
 45 87  1  0
 46 88  1  0
 46 89  1  0
 47 90  1  0
 47 91  1  0
 48 92  1  0
 49 93  1  0
M  END
>  <meeko>  (5) 
{"is_sidechain": [false], "free_energy": -9.74, "intermolecular_energy": -16.374, "internal_energy": -2.104}

$$$$
REF_CHEMBL1397__H_AF__e8__s20260927
     RDKit          3D

 93 99  0  0  0  0  0  0  0  0999 V2000
   19.0960  -26.4860   -2.5150 C   0  0  0  0  0  0  0  0  0  0  0  0
   18.6020  -25.1570   -3.0710 C   0  0  0  0  0  0  0  0  0  0  0  0
   17.1060  -25.1860   -3.4440 C   0  0  1  0  0  0  0  0  0  0  0  0
   16.4100  -26.4360   -2.8500 C   0  0  2  0  0  0  0  0  0  0  0  0
   15.4540  -27.1030   -3.8330 C   0  0  0  0  0  0  0  0  0  0  0  0
   15.6800  -26.1040   -1.6660 O   0  0  0  0  0  0  0  0  0  0  0  0
   16.4400  -23.9590   -3.0170 N   0  0  0  0  0  0  0  0  0  0  0  0
   16.7880  -23.2690   -1.8820 N   0  0  0  0  0  0  0  0  0  0  0  0
   15.9770  -22.2560   -1.8880 C   0  0  0  0  0  0  0  0  0  0  0  0
   15.1050  -22.1930   -2.9200 N   0  0  0  0  0  0  0  0  0  0  0  0
   14.1230  -21.2010   -3.1570 C   0  0  0  0  0  0  0  0  0  0  0  0
   12.8450  -21.2810   -2.5960 C   0  0  0  0  0  0  0  0  0  0  0  0
   11.8780  -20.2910   -2.8350 C   0  0  0  0  0  0  0  0  0  0  0  0
   12.1370  -19.1750   -3.6390 C   0  0  0  0  0  0  0  0  0  0  0  0
   11.1590  -18.2170   -3.8620 N   0  0  0  0  0  0  0  0  0  0  0  0
    9.9320  -18.2750   -3.0380 C   0  0  0  0  0  0  0  0  0  0  0  0
    8.7490  -17.5470   -3.7160 C   0  0  0  0  0  0  0  0  0  0  0  0
    9.1180  -16.1850   -4.1430 N   0  0  0  0  0  0  0  0  0  0  0  0
    8.1360  -15.2290   -4.3740 C   0  0  0  0  0  0  0  0  0  0  0  0
    6.9650  -15.5020   -5.0960 C   0  0  0  0  0  0  0  0  0  0  0  0
    5.9820  -14.5250   -5.3160 C   0  0  0  0  0  0  0  0  0  0  0  0
    6.1460  -13.2390   -4.8080 C   0  0  0  0  0  0  0  0  0  0  0  0
    5.2750  -12.1970   -4.9470 O   0  0  0  0  0  0  0  0  0  0  0  0
    4.5640  -11.7840   -3.7790 C   0  0  0  0  0  0  0  0  0  0  0  0
    3.2790  -12.6120   -3.6810 C   0  0  2  0  0  0  0  0  0  0  0  0
    2.0560  -11.7370   -3.8070 C   0  0  0  0  0  0  0  0  0  0  0  0
    1.8210  -11.2210   -2.4920 O   0  0  0  0  0  0  0  0  0  0  0  0
    2.2570  -12.1920   -1.5050 C   0  0  1  0  0  0  0  0  0  0  0  0
    3.1740  -11.4930   -0.4700 C   0  0  0  0  0  0  0  0  0  0  0  0
    4.2360  -12.3280    0.0590 N   0  0  0  0  0  0  0  0  0  0  0  0
    5.5750  -12.2170   -0.1620 C   0  0  0  0  0  0  0  0  0  0  0  0
    6.2150  -13.1060    0.5610 N   0  0  0  0  0  0  0  0  0  0  0  0
    5.2090  -13.7260    1.2430 C   0  0  0  0  0  0  0  0  0  0  0  0
    3.9810  -13.2670    0.9910 N   0  0  0  0  0  0  0  0  0  0  0  0
    1.0400  -12.8250   -0.8280 C   0  0  0  0  0  0  0  0  0  0  0  0
    0.9680  -14.2060   -0.5730 C   0  0  0  0  0  0  0  0  0  0  0  0
   -0.1610  -14.7610    0.0340 C   0  0  0  0  0  0  0  0  0  0  0  0
   -1.2270  -13.9420    0.3870 C   0  0  0  0  0  0  0  0  0  0  0  0
   -2.3080  -14.4790    0.9690 F   0  0  0  0  0  0  0  0  0  0  0  0
   -1.1920  -12.5790    0.1400 C   0  0  0  0  0  0  0  0  0  0  0  0
   -0.0650  -12.0360   -0.4660 C   0  0  0  0  0  0  0  0  0  0  0  0
   -0.0520  -10.7200   -0.7240 F   0  0  0  0  0  0  0  0  0  0  0  0
    3.0550  -13.2440   -2.3150 C   0  0  0  0  0  0  0  0  0  0  0  0
    7.2950  -12.9490   -4.0780 C   0  0  0  0  0  0  0  0  0  0  0  0
    8.2720  -13.9300   -3.8640 C   0  0  0  0  0  0  0  0  0  0  0  0
   10.3410  -16.1290   -4.9720 C   0  0  0  0  0  0  0  0  0  0  0  0
   11.5250  -16.8550   -4.2960 C   0  0  0  0  0  0  0  0  0  0  0  0
   13.4120  -19.1070   -4.2080 C   0  0  0  0  0  0  0  0  0  0  0  0
   14.3870  -20.0930   -3.9720 C   0  0  0  0  0  0  0  0  0  0  0  0
   15.3880  -23.3120   -3.6860 C   0  0  0  0  0  0  0  0  0  0  0  0
   14.8730  -23.7070   -4.7210 O   0  0  0  0  0  0  0  0  0  0  0  0
   19.0830  -26.4511   -1.4156 H   0  0  0  0  0  0  0  0  0  0  0  0
   18.4390  -27.2963   -2.8639 H   0  0  0  0  0  0  0  0  0  0  0  0
   20.1228  -26.6705   -2.8639 H   0  0  0  0  0  0  0  0  0  0  0  0
   18.7600  -24.3774   -2.3113 H   0  0  0  0  0  0  0  0  0  0  0  0
   19.1693  -24.9506   -3.9905 H   0  0  0  0  0  0  0  0  0  0  0  0
   17.0288  -25.2485   -4.5395 H   0  0  0  0  0  0  0  0  0  0  0  0
   17.2190  -27.1433   -2.6147 H   0  0  0  0  0  0  0  0  0  0  0  0
   14.6758  -27.6459   -3.2765 H   0  0  0  0  0  0  0  0  0  0  0  0
   14.9844  -26.3355   -4.4658 H   0  0  0  0  0  0  0  0  0  0  0  0
   16.0122  -27.8087   -4.4658 H   0  0  0  0  0  0  0  0  0  0  0  0
   16.3170  -26.2200   -0.9270 H   0  0  0  0  0  0  0  0  0  0  0  0
   15.9976  -21.4911   -1.0977 H   0  0  0  0  0  0  0  0  0  0  0  0
   12.5915  -22.1374   -1.9539 H   0  0  0  0  0  0  0  0  0  0  0  0
   10.8843  -20.3961   -2.3752 H   0  0  0  0  0  0  0  0  0  0  0  0
    9.6584  -19.3288   -2.8808 H   0  0  0  0  0  0  0  0  0  0  0  0
   10.1390  -17.7728   -2.0815 H   0  0  0  0  0  0  0  0  0  0  0  0
    8.4340  -18.1239   -4.5981 H   0  0  0  0  0  0  0  0  0  0  0  0
    7.9316  -17.4668   -2.9843 H   0  0  0  0  0  0  0  0  0  0  0  0
    6.8125  -16.5128   -5.5022 H   0  0  0  0  0  0  0  0  0  0  0  0
    5.0789  -14.7759   -5.8917 H   0  0  0  0  0  0  0  0  0  0  0  0
    5.1845  -11.9530   -2.8865 H   0  0  0  0  0  0  0  0  0  0  0  0
    4.3212  -10.7130   -3.8417 H   0  0  0  0  0  0  0  0  0  0  0  0
    3.4051  -13.3604   -4.4773 H   0  0  0  0  0  0  0  0  0  0  0  0
    2.2414  -10.9160   -4.5152 H   0  0  0  0  0  0  0  0  0  0  0  0
    1.1893  -12.2973   -4.1877 H   0  0  0  0  0  0  0  0  0  0  0  0
    3.6340  -10.6191   -0.9545 H   0  0  0  0  0  0  0  0  0  0  0  0
    2.5333  -11.2265    0.3835 H   0  0  0  0  0  0  0  0  0  0  0  0
    6.0478  -11.4933   -0.8422 H   0  0  0  0  0  0  0  0  0  0  0  0
    5.3967  -14.5467    1.9510 H   0  0  0  0  0  0  0  0  0  0  0  0
    1.8096  -14.8560   -0.8545 H   0  0  0  0  0  0  0  0  0  0  0  0
   -0.2062  -15.8421    0.2319 H   0  0  0  0  0  0  0  0  0  0  0  0
   -2.0413  -11.9378    0.4186 H   0  0  0  0  0  0  0  0  0  0  0  0
    4.0172  -13.4577   -1.8267 H   0  0  0  0  0  0  0  0  0  0  0  0
    2.5165  -14.2004   -2.3885 H   0  0  0  0  0  0  0  0  0  0  0  0
    7.4374  -11.9395   -3.6650 H   0  0  0  0  0  0  0  0  0  0  0  0
    9.1690  -13.6746   -3.2808 H   0  0  0  0  0  0  0  0  0  0  0  0
   10.1365  -16.6072   -5.9413 H   0  0  0  0  0  0  0  0  0  0  0  0
   10.6174  -15.0724   -5.1033 H   0  0  0  0  0  0  0  0  0  0  0  0
   12.3573  -16.9214   -5.0122 H   0  0  0  0  0  0  0  0  0  0  0  0
   11.8144  -16.2791   -3.4046 H   0  0  0  0  0  0  0  0  0  0  0  0
   13.6604  -18.2566   -4.8601 H   0  0  0  0  0  0  0  0  0  0  0  0
   15.3784  -19.9917   -4.4377 H   0  0  0  0  0  0  0  0  0  0  0  0
  1  2  1  0
  2  3  1  0
  3  4  1  0
  4  5  1  0
  4  6  1  0
  3  7  1  0
  7  8  1  0
  8  9  2  0
  9 10  1  0
 10 11  1  0
 11 12  2  0
 12 13  1  0
 13 14  2  0
 14 15  1  0
 15 16  1  0
 16 17  1  0
 17 18  1  0
 18 19  1  0
 19 20  2  0
 20 21  1  0
 21 22  2  0
 22 23  1  0
 23 24  1  0
 24 25  1  0
 25 26  1  0
 26 27  1  0
 27 28  1  0
 28 29  1  1
 29 30  1  0
 30 31  1  0
 31 32  2  0
 32 33  1  0
 33 34  2  0
 28 35  1  0
 35 36  2  0
 36 37  1  0
 37 38  2  0
 38 39  1  0
 38 40  1  0
 40 41  2  0
 41 42  1  0
 28 43  1  0
 22 44  1  0
 44 45  2  0
 18 46  1  0
 46 47  1  0
 14 48  1  0
 48 49  2  0
 10 50  1  0
 50 51  2  0
 50  7  1  0
 49 11  1  0
 47 15  1  0
 45 19  1  0
 43 25  1  0
 34 30  1  0
 41 35  1  0
  1 52  1  0
  1 53  1  0
  1 54  1  0
  2 55  1  0
  2 56  1  0
  3 57  1  6
  4 58  1  1
  5 59  1  0
  5 60  1  0
  5 61  1  0
  6 62  1  0
  9 63  1  0
 12 64  1  0
 13 65  1  0
 16 66  1  0
 16 67  1  0
 17 68  1  0
 17 69  1  0
 20 70  1  0
 21 71  1  0
 24 72  1  0
 24 73  1  0
 25 74  1  6
 26 75  1  0
 26 76  1  0
 29 77  1  0
 29 78  1  0
 31 79  1  0
 33 80  1  0
 36 81  1  0
 37 82  1  0
 40 83  1  0
 43 84  1  0
 43 85  1  0
 44 86  1  0
 45 87  1  0
 46 88  1  0
 46 89  1  0
 47 90  1  0
 47 91  1  0
 48 92  1  0
 49 93  1  0
M  END
>  <meeko>  (6) 
{"is_sidechain": [false], "free_energy": -9.462, "intermolecular_energy": -15.701, "internal_energy": -2.297}

$$$$
REF_CHEMBL1397__H_AF__e8__s20260927
     RDKit          3D

 93 99  0  0  0  0  0  0  0  0999 V2000
   -2.2910  -12.9640    3.2780 C   0  0  0  0  0  0  0  0  0  0  0  0
   -2.8780  -12.5460    1.9350 C   0  0  0  0  0  0  0  0  0  0  0  0
   -2.4010  -13.4380    0.7720 C   0  0  1  0  0  0  0  0  0  0  0  0
   -3.5270  -13.6370   -0.2730 C   0  0  2  0  0  0  0  0  0  0  0  0
   -4.9220  -13.5540    0.3380 C   0  0  0  0  0  0  0  0  0  0  0  0
   -3.3990  -14.8990   -0.9340 O   0  0  0  0  0  0  0  0  0  0  0  0
   -1.1980  -12.8870    0.1530 N   0  0  0  0  0  0  0  0  0  0  0  0
   -0.8320  -11.5690    0.2620 N   0  0  0  0  0  0  0  0  0  0  0  0
    0.2800  -11.5110   -0.4050 C   0  0  0  0  0  0  0  0  0  0  0  0
    0.7040  -12.6680   -0.9600 N   0  0  0  0  0  0  0  0  0  0  0  0
    1.8740  -12.8740   -1.7320 C   0  0  0  0  0  0  0  0  0  0  0  0
    3.0050  -13.5000   -1.2000 C   0  0  0  0  0  0  0  0  0  0  0  0
    4.1600  -13.7020   -1.9730 C   0  0  0  0  0  0  0  0  0  0  0  0
    4.2430  -13.2960   -3.3100 C   0  0  0  0  0  0  0  0  0  0  0  0
    5.4000  -13.5040   -4.0470 N   0  0  0  0  0  0  0  0  0  0  0  0
    5.6280  -12.6520   -5.2340 C   0  0  0  0  0  0  0  0  0  0  0  0
    6.6060  -13.3090   -6.2340 C   0  0  0  0  0  0  0  0  0  0  0  0
    7.8460  -13.7560   -5.5730 N   0  0  0  0  0  0  0  0  0  0  0  0
    9.0010  -13.9730   -6.3130 C   0  0  0  0  0  0  0  0  0  0  0  0
   10.2880  -13.8260   -5.7740 C   0  0  0  0  0  0  0  0  0  0  0  0
   11.4440  -14.0560   -6.5360 C   0  0  0  0  0  0  0  0  0  0  0  0
   11.3400  -14.4460   -7.8670 C   0  0  0  0  0  0  0  0  0  0  0  0
   12.3750  -14.6990   -8.7200 O   0  0  0  0  0  0  0  0  0  0  0  0
   12.2580  -15.8450   -9.5640 C   0  0  0  0  0  0  0  0  0  0  0  0
   13.4910  -16.7290   -9.3480 C   0  0  2  0  0  0  0  0  0  0  0  0
   14.7610  -15.9750   -9.6580 C   0  0  0  0  0  0  0  0  0  0  0  0
   14.9330  -16.0850  -11.0750 O   0  0  0  0  0  0  0  0  0  0  0  0
   14.3850  -17.3480  -11.5340 C   0  0  1  0  0  0  0  0  0  0  0  0
   13.4360  -17.0890  -12.7320 C   0  0  0  0  0  0  0  0  0  0  0  0
   13.2030  -15.6890  -13.0280 N   0  0  0  0  0  0  0  0  0  0  0  0
   14.0150  -14.8310  -13.7050 C   0  0  0  0  0  0  0  0  0  0  0  0
   13.4150  -13.6720  -13.8400 N   0  0  0  0  0  0  0  0  0  0  0  0
   12.2040  -13.8830  -13.2480 C   0  0  0  0  0  0  0  0  0  0  0  0
   12.0150  -15.1120  -12.7600 N   0  0  0  0  0  0  0  0  0  0  0  0
   15.5210  -18.2950  -11.9230 C   0  0  0  0  0  0  0  0  0  0  0  0
   15.5940  -19.6090  -11.4250 C   0  0  0  0  0  0  0  0  0  0  0  0
   16.6510  -20.4490  -11.7840 C   0  0  0  0  0  0  0  0  0  0  0  0
   17.6420  -19.9840  -12.6390 C   0  0  0  0  0  0  0  0  0  0  0  0
   18.6530  -20.7940  -12.9810 F   0  0  0  0  0  0  0  0  0  0  0  0
   17.6050  -18.6920  -13.1380 C   0  0  0  0  0  0  0  0  0  0  0  0
   16.5520  -17.8610  -12.7740 C   0  0  0  0  0  0  0  0  0  0  0  0
   16.5380  -16.6050  -13.2420 F   0  0  0  0  0  0  0  0  0  0  0  0
   13.5920  -17.8950  -10.3210 C   0  0  0  0  0  0  0  0  0  0  0  0
   10.0720  -14.6090   -8.4200 C   0  0  0  0  0  0  0  0  0  0  0  0
    8.9240  -14.3780   -7.6530 C   0  0  0  0  0  0  0  0  0  0  0  0
    7.6170  -14.6130   -4.3890 C   0  0  0  0  0  0  0  0  0  0  0  0
    6.6400  -13.9580   -3.3880 C   0  0  0  0  0  0  0  0  0  0  0  0
    3.1140  -12.6580   -3.8330 C   0  0  0  0  0  0  0  0  0  0  0  0
    1.9520  -12.4540   -3.0650 C   0  0  0  0  0  0  0  0  0  0  0  0
   -0.2580  -13.6000   -0.6080 C   0  0  0  0  0  0  0  0  0  0  0  0
   -0.3330  -14.7910   -0.8710 O   0  0  0  0  0  0  0  0  0  0  0  0
   -2.8942  -12.5345    4.0914 H   0  0  0  0  0  0  0  0  0  0  0  0
   -2.2986  -14.0612    3.3559 H   0  0  0  0  0  0  0  0  0  0  0  0
   -1.2566  -12.5980    3.3559 H   0  0  0  0  0  0  0  0  0  0  0  0
   -3.9747  -12.6054    1.9968 H   0  0  0  0  0  0  0  0  0  0  0  0
   -2.5363  -11.5210    1.7284 H   0  0  0  0  0  0  0  0  0  0  0  0
   -2.1468  -14.4263    1.1827 H   0  0  0  0  0  0  0  0  0  0  0  0
   -3.4115  -12.8144   -0.9941 H   0  0  0  0  0  0  0  0  0  0  0  0
   -4.8426  -13.5587    1.4351 H   0  0  0  0  0  0  0  0  0  0  0  0
   -5.4114  -12.6251    0.0098 H   0  0  0  0  0  0  0  0  0  0  0  0
   -5.5181  -14.4183    0.0098 H   0  0  0  0  0  0  0  0  0  0  0  0
   -3.3760  -15.5670   -0.2140 H   0  0  0  0  0  0  0  0  0  0  0  0
    0.8451  -10.5734   -0.5124 H   0  0  0  0  0  0  0  0  0  0  0  0
    2.9900  -13.8414   -0.1544 H   0  0  0  0  0  0  0  0  0  0  0  0
    5.0284  -14.1957   -1.5124 H   0  0  0  0  0  0  0  0  0  0  0  0
    4.6658  -12.4796   -5.7384 H   0  0  0  0  0  0  0  0  0  0  0  0
    6.0722  -11.7048   -4.8942 H   0  0  0  0  0  0  0  0  0  0  0  0
    6.1141  -14.1788   -6.6940 H   0  0  0  0  0  0  0  0  0  0  0  0
    6.8740  -12.5594   -6.9931 H   0  0  0  0  0  0  0  0  0  0  0  0
   10.3942  -13.5213   -4.7224 H   0  0  0  0  0  0  0  0  0  0  0  0
   12.4362  -13.9273   -6.0788 H   0  0  0  0  0  0  0  0  0  0  0  0
   11.3480  -16.4062   -9.3053 H   0  0  0  0  0  0  0  0  0  0  0  0
   12.1935  -15.5351  -10.6175 H   0  0  0  0  0  0  0  0  0  0  0  0
   13.3816  -17.0578   -8.3040 H   0  0  0  0  0  0  0  0  0  0  0  0
   14.6637  -14.9198   -9.3630 H   0  0  0  0  0  0  0  0  0  0  0  0
   15.6227  -16.3823   -9.1088 H   0  0  0  0  0  0  0  0  0  0  0  0
   13.8743  -17.5597  -13.6244 H   0  0  0  0  0  0  0  0  0  0  0  0
   12.4606  -17.5144  -12.4536 H   0  0  0  0  0  0  0  0  0  0  0  0
   15.0201  -15.0725  -14.0811 H   0  0  0  0  0  0  0  0  0  0  0  0
   11.4378  -13.0969  -13.1776 H   0  0  0  0  0  0  0  0  0  0  0  0
   14.8111  -19.9785  -10.7463 H   0  0  0  0  0  0  0  0  0  0  0  0
   16.6983  -21.4753  -11.3909 H   0  0  0  0  0  0  0  0  0  0  0  0
   18.3960  -18.3299  -13.8112 H   0  0  0  0  0  0  0  0  0  0  0  0
   12.5899  -18.2245  -10.6328 H   0  0  0  0  0  0  0  0  0  0  0  0
   14.0867  -18.7662   -9.8669 H   0  0  0  0  0  0  0  0  0  0  0  0
    9.9718  -14.9223   -9.4697 H   0  0  0  0  0  0  0  0  0  0  0  0
    7.9351  -14.5180   -8.1140 H   0  0  0  0  0  0  0  0  0  0  0  0
    7.1962  -15.5737   -4.7207 H   0  0  0  0  0  0  0  0  0  0  0  0
    8.5814  -14.7587   -3.8804 H   0  0  0  0  0  0  0  0  0  0  0  0
    6.3815  -14.6924   -2.6109 H   0  0  0  0  0  0  0  0  0  0  0  0
    7.1366  -13.0784   -2.9525 H   0  0  0  0  0  0  0  0  0  0  0  0
    3.1344  -12.3053   -4.8747 H   0  0  0  0  0  0  0  0  0  0  0  0
    1.0860  -11.9534   -3.5226 H   0  0  0  0  0  0  0  0  0  0  0  0
  1  2  1  0
  2  3  1  0
  3  4  1  0
  4  5  1  0
  4  6  1  0
  3  7  1  0
  7  8  1  0
  8  9  2  0
  9 10  1  0
 10 11  1  0
 11 12  2  0
 12 13  1  0
 13 14  2  0
 14 15  1  0
 15 16  1  0
 16 17  1  0
 17 18  1  0
 18 19  1  0
 19 20  2  0
 20 21  1  0
 21 22  2  0
 22 23  1  0
 23 24  1  0
 24 25  1  0
 25 26  1  0
 26 27  1  0
 27 28  1  0
 28 29  1  6
 29 30  1  0
 30 31  1  0
 31 32  2  0
 32 33  1  0
 33 34  2  0
 28 35  1  0
 35 36  2  0
 36 37  1  0
 37 38  2  0
 38 39  1  0
 38 40  1  0
 40 41  2  0
 41 42  1  0
 28 43  1  0
 22 44  1  0
 44 45  2  0
 18 46  1  0
 46 47  1  0
 14 48  1  0
 48 49  2  0
 10 50  1  0
 50 51  2  0
 50  7  1  0
 49 11  1  0
 47 15  1  0
 45 19  1  0
 43 25  1  0
 34 30  1  0
 41 35  1  0
  1 52  1  0
  1 53  1  0
  1 54  1  0
  2 55  1  0
  2 56  1  0
  3 57  1  1
  4 58  1  6
  5 59  1  0
  5 60  1  0
  5 61  1  0
  6 62  1  0
  9 63  1  0
 12 64  1  0
 13 65  1  0
 16 66  1  0
 16 67  1  0
 17 68  1  0
 17 69  1  0
 20 70  1  0
 21 71  1  0
 24 72  1  0
 24 73  1  0
 25 74  1  1
 26 75  1  0
 26 76  1  0
 29 77  1  0
 29 78  1  0
 31 79  1  0
 33 80  1  0
 36 81  1  0
 37 82  1  0
 40 83  1  0
 43 84  1  0
 43 85  1  0
 44 86  1  0
 45 87  1  0
 46 88  1  0
 46 89  1  0
 47 90  1  0
 47 91  1  0
 48 92  1  0
 49 93  1  0
M  END
>  <meeko>  (7) 
{"is_sidechain": [false], "free_energy": -9.378, "intermolecular_energy": -16.053, "internal_energy": -1.799}

$$$$
REF_CHEMBL1397__H_AF__e8__s20260927
     RDKit          3D

 93 99  0  0  0  0  0  0  0  0999 V2000
   -2.4670  -13.0720    3.2170 C   0  0  0  0  0  0  0  0  0  0  0  0
   -3.0100  -12.6420    1.8600 C   0  0  0  0  0  0  0  0  0  0  0  0
   -2.4790  -13.5120    0.7030 C   0  0  1  0  0  0  0  0  0  0  0  0
   -3.5670  -13.7160   -0.3810 C   0  0  2  0  0  0  0  0  0  0  0  0
   -4.9820  -13.6630    0.1830 C   0  0  0  0  0  0  0  0  0  0  0  0
   -3.3960  -14.9690   -1.0510 O   0  0  0  0  0  0  0  0  0  0  0  0
   -1.2670  -12.9330    0.1310 N   0  0  0  0  0  0  0  0  0  0  0  0
   -0.9440  -11.6030    0.2390 N   0  0  0  0  0  0  0  0  0  0  0  0
    0.1950  -11.5200   -0.3780 C   0  0  0  0  0  0  0  0  0  0  0  0
    0.6770  -12.6710   -0.9000 N   0  0  0  0  0  0  0  0  0  0  0  0
    1.8860  -12.8510   -1.6160 C   0  0  0  0  0  0  0  0  0  0  0  0
    2.0160  -12.4560   -2.9500 C   0  0  0  0  0  0  0  0  0  0  0  0
    3.2190  -12.6360   -3.6510 C   0  0  0  0  0  0  0  0  0  0  0  0
    4.3480  -13.2140   -3.0590 C   0  0  0  0  0  0  0  0  0  0  0  0
    5.5210  -13.3840   -3.7790 N   0  0  0  0  0  0  0  0  0  0  0  0
    6.4380  -14.4680   -3.3640 C   0  0  0  0  0  0  0  0  0  0  0  0
    7.8830  -14.2190   -3.8540 C   0  0  0  0  0  0  0  0  0  0  0  0
    7.9260  -13.9200   -5.2970 N   0  0  0  0  0  0  0  0  0  0  0  0
    9.1040  -14.0820   -6.0160 C   0  0  0  0  0  0  0  0  0  0  0  0
    9.1230  -14.4070   -7.3800 C   0  0  0  0  0  0  0  0  0  0  0  0
   10.3240  -14.5620   -8.0910 C   0  0  0  0  0  0  0  0  0  0  0  0
   11.5460  -14.3880   -7.4490 C   0  0  0  0  0  0  0  0  0  0  0  0
   12.7820  -14.5090   -8.0150 O   0  0  0  0  0  0  0  0  0  0  0  0
   12.9140  -14.1130   -9.3810 C   0  0  0  0  0  0  0  0  0  0  0  0
   14.0450  -14.9330  -10.0110 C   0  0  2  0  0  0  0  0  0  0  0  0
   13.9120  -14.9790  -11.5130 C   0  0  0  0  0  0  0  0  0  0  0  0
   12.9940  -16.0440  -11.7810 O   0  0  0  0  0  0  0  0  0  0  0  0
   13.1240  -17.0650  -10.7590 C   0  0  1  0  0  0  0  0  0  0  0  0
   11.7210  -17.4110  -10.1990 C   0  0  0  0  0  0  0  0  0  0  0  0
   11.7280  -18.3260   -9.0730 N   0  0  0  0  0  0  0  0  0  0  0  0
   11.6360  -18.0230   -7.7490 C   0  0  0  0  0  0  0  0  0  0  0  0
   11.5920  -19.1310   -7.0470 N   0  0  0  0  0  0  0  0  0  0  0  0
   11.6270  -20.1020   -8.0050 C   0  0  0  0  0  0  0  0  0  0  0  0
   11.6830  -19.6600   -9.2640 N   0  0  0  0  0  0  0  0  0  0  0  0
   13.8060  -18.3030  -11.3470 C   0  0  0  0  0  0  0  0  0  0  0  0
   14.9740  -18.8450  -10.7810 C   0  0  0  0  0  0  0  0  0  0  0  0
   15.5850  -19.9670  -11.3460 C   0  0  0  0  0  0  0  0  0  0  0  0
   15.0360  -20.5540  -12.4800 C   0  0  0  0  0  0  0  0  0  0  0  0
   15.6260  -21.6300  -13.0180 F   0  0  0  0  0  0  0  0  0  0  0  0
   13.8920  -20.0380  -13.0680 C   0  0  0  0  0  0  0  0  0  0  0  0
   13.2920  -18.9190  -12.5000 C   0  0  0  0  0  0  0  0  0  0  0  0
   12.2010  -18.4130  -13.0910 F   0  0  0  0  0  0  0  0  0  0  0  0
   14.0020  -16.4140   -9.6620 C   0  0  0  0  0  0  0  0  0  0  0  0
   11.5510  -14.0540   -6.0970 C   0  0  0  0  0  0  0  0  0  0  0  0
   10.3480  -13.9010   -5.3950 C   0  0  0  0  0  0  0  0  0  0  0  0
    7.0130  -12.8320   -5.7110 C   0  0  0  0  0  0  0  0  0  0  0  0
    5.5690  -13.0790   -5.2230 C   0  0  0  0  0  0  0  0  0  0  0  0
    4.2070  -13.6200   -1.7280 C   0  0  0  0  0  0  0  0  0  0  0  0
    3.0060  -13.4410   -1.0180 C   0  0  0  0  0  0  0  0  0  0  0  0
   -0.2730  -13.6270   -0.5780 C   0  0  0  0  0  0  0  0  0  0  0  0
   -0.3020  -14.8220   -0.8290 O   0  0  0  0  0  0  0  0  0  0  0  0
   -3.0605  -12.6020    4.0151 H   0  0  0  0  0  0  0  0  0  0  0  0
   -2.5318  -14.1663    3.3078 H   0  0  0  0  0  0  0  0  0  0  0  0
   -1.4167  -12.7581    3.3078 H   0  0  0  0  0  0  0  0  0  0  0  0
   -4.1073  -12.7158    1.8807 H   0  0  0  0  0  0  0  0  0  0  0  0
   -2.6747  -11.6099    1.6802 H   0  0  0  0  0  0  0  0  0  0  0  0
   -2.2209  -14.5009    1.1098 H   0  0  0  0  0  0  0  0  0  0  0  0
   -3.4417  -12.8826   -1.0880 H   0  0  0  0  0  0  0  0  0  0  0  0
   -4.9389  -13.6646    1.2822 H   0  0  0  0  0  0  0  0  0  0  0  0
   -5.4805  -12.7456   -0.1631 H   0  0  0  0  0  0  0  0  0  0  0  0
   -5.5478  -14.5406   -0.1631 H   0  0  0  0  0  0  0  0  0  0  0  0
   -4.1710  -15.5120   -0.7880 H   0  0  0  0  0  0  0  0  0  0  0  0
    0.7375  -10.5676   -0.4711 H   0  0  0  0  0  0  0  0  0  0  0  0
    1.1583  -11.9946   -3.4613 H   0  0  0  0  0  0  0  0  0  0  0  0
    3.2762  -12.3119   -4.7006 H   0  0  0  0  0  0  0  0  0  0  0  0
    6.4406  -14.5308   -2.2658 H   0  0  0  0  0  0  0  0  0  0  0  0
    6.0822  -15.4067   -3.8137 H   0  0  0  0  0  0  0  0  0  0  0  0
    8.3051  -13.3671   -3.3008 H   0  0  0  0  0  0  0  0  0  0  0  0
    8.4676  -15.1336   -3.6759 H   0  0  0  0  0  0  0  0  0  0  0  0
    8.1684  -14.5447   -7.9089 H   0  0  0  0  0  0  0  0  0  0  0  0
   10.2985  -14.8220   -9.1595 H   0  0  0  0  0  0  0  0  0  0  0  0
   11.9725  -14.3044   -9.9167 H   0  0  0  0  0  0  0  0  0  0  0  0
   13.1430  -13.0390   -9.4444 H   0  0  0  0  0  0  0  0  0  0  0  0
   14.9512  -14.4362   -9.6342 H   0  0  0  0  0  0  0  0  0  0  0  0
   13.5171  -14.0256  -11.8937 H   0  0  0  0  0  0  0  0  0  0  0  0
   14.8824  -15.1420  -12.0047 H   0  0  0  0  0  0  0  0  0  0  0  0
   11.2397  -16.4755   -9.8777 H   0  0  0  0  0  0  0  0  0  0  0  0
   11.1788  -17.9193  -11.0099 H   0  0  0  0  0  0  0  0  0  0  0  0
   11.6035  -17.0058   -7.3317 H   0  0  0  0  0  0  0  0  0  0  0  0
   11.6103  -21.1737   -7.7577 H   0  0  0  0  0  0  0  0  0  0  0  0
   15.4107  -18.3807   -9.8845 H   0  0  0  0  0  0  0  0  0  0  0  0
   16.4973  -20.3845  -10.8951 H   0  0  0  0  0  0  0  0  0  0  0  0
   13.4660  -20.5052  -13.9681 H   0  0  0  0  0  0  0  0  0  0  0  0
   13.5525  -16.5633   -8.6692 H   0  0  0  0  0  0  0  0  0  0  0  0
   15.0083  -16.8567   -9.6247 H   0  0  0  0  0  0  0  0  0  0  0  0
   12.5085  -13.9089   -5.5752 H   0  0  0  0  0  0  0  0  0  0  0  0
   10.3804  -13.6319   -4.3289 H   0  0  0  0  0  0  0  0  0  0  0  0
    7.3746  -11.8832   -5.2878 H   0  0  0  0  0  0  0  0  0  0  0  0
    7.0010  -12.7951   -6.8103 H   0  0  0  0  0  0  0  0  0  0  0  0
    4.9691  -12.1775   -5.4163 H   0  0  0  0  0  0  0  0  0  0  0  0
    5.1682  -13.9461   -5.7684 H   0  0  0  0  0  0  0  0  0  0  0  0
    5.0609  -14.0935   -1.2213 H   0  0  0  0  0  0  0  0  0  0  0  0
    2.9455  -13.7716    0.0294 H   0  0  0  0  0  0  0  0  0  0  0  0
  1  2  1  0
  2  3  1  0
  3  4  1  0
  4  5  1  0
  4  6  1  0
  3  7  1  0
  7  8  1  0
  8  9  2  0
  9 10  1  0
 10 11  1  0
 11 12  2  0
 12 13  1  0
 13 14  2  0
 14 15  1  0
 15 16  1  0
 16 17  1  0
 17 18  1  0
 18 19  1  0
 19 20  2  0
 20 21  1  0
 21 22  2  0
 22 23  1  0
 23 24  1  0
 24 25  1  0
 25 26  1  0
 26 27  1  0
 27 28  1  0
 28 29  1  1
 29 30  1  0
 30 31  1  0
 31 32  2  0
 32 33  1  0
 33 34  2  0
 28 35  1  0
 35 36  2  0
 36 37  1  0
 37 38  2  0
 38 39  1  0
 38 40  1  0
 40 41  2  0
 41 42  1  0
 28 43  1  0
 22 44  1  0
 44 45  2  0
 18 46  1  0
 46 47  1  0
 14 48  1  0
 48 49  2  0
 10 50  1  0
 50 51  2  0
 50  7  1  0
 49 11  1  0
 47 15  1  0
 45 19  1  0
 43 25  1  0
 34 30  1  0
 41 35  1  0
  1 52  1  0
  1 53  1  0
  1 54  1  0
  2 55  1  0
  2 56  1  0
  3 57  1  1
  4 58  1  6
  5 59  1  0
  5 60  1  0
  5 61  1  0
  6 62  1  0
  9 63  1  0
 12 64  1  0
 13 65  1  0
 16 66  1  0
 16 67  1  0
 17 68  1  0
 17 69  1  0
 20 70  1  0
 21 71  1  0
 24 72  1  0
 24 73  1  0
 25 74  1  6
 26 75  1  0
 26 76  1  0
 29 77  1  0
 29 78  1  0
 31 79  1  0
 33 80  1  0
 36 81  1  0
 37 82  1  0
 40 83  1  0
 43 84  1  0
 43 85  1  0
 44 86  1  0
 45 87  1  0
 46 88  1  0
 46 89  1  0
 47 90  1  0
 47 91  1  0
 48 92  1  0
 49 93  1  0
M  END
>  <meeko>  (8) 
{"is_sidechain": [false], "free_energy": -9.306, "intermolecular_energy": -15.452, "internal_energy": -2.276}

$$$$
REF_CHEMBL1397__H_AF__e8__s20260927
     RDKit          3D

 93 99  0  0  0  0  0  0  0  0999 V2000
   16.3850  -21.4410  -14.0650 C   0  0  0  0  0  0  0  0  0  0  0  0
   17.5790  -20.6920  -14.6430 C   0  0  0  0  0  0  0  0  0  0  0  0
   18.1470  -19.6370  -13.6740 C   0  0  1  0  0  0  0  0  0  0  0  0
   19.4300  -18.9870  -14.2520 C   0  0  2  0  0  0  0  0  0  0  0  0
   20.6720  -19.8480  -14.0490 C   0  0  0  0  0  0  0  0  0  0  0  0
   19.6680  -17.7060  -13.6600 O   0  0  0  0  0  0  0  0  0  0  0  0
   17.1420  -18.6270  -13.3560 N   0  0  0  0  0  0  0  0  0  0  0  0
   16.8450  -17.5730  -14.1850 N   0  0  0  0  0  0  0  0  0  0  0  0
   15.9060  -16.9450  -13.5450 C   0  0  0  0  0  0  0  0  0  0  0  0
   15.5380  -17.4720  -12.3550 N   0  0  0  0  0  0  0  0  0  0  0  0
   14.5480  -16.9840  -11.4670 C   0  0  0  0  0  0  0  0  0  0  0  0
   14.8210  -15.9650  -10.5500 C   0  0  0  0  0  0  0  0  0  0  0  0
   13.8330  -15.4850   -9.6750 C   0  0  0  0  0  0  0  0  0  0  0  0
   12.5290  -15.9920   -9.6740 C   0  0  0  0  0  0  0  0  0  0  0  0
   11.5760  -15.5010   -8.7930 N   0  0  0  0  0  0  0  0  0  0  0  0
   10.1670  -15.4690   -9.2440 C   0  0  0  0  0  0  0  0  0  0  0  0
    9.3300  -14.4460   -8.4420 C   0  0  0  0  0  0  0  0  0  0  0  0
    9.4880  -14.6310   -6.9880 N   0  0  0  0  0  0  0  0  0  0  0  0
    8.5370  -14.1310   -6.1070 C   0  0  0  0  0  0  0  0  0  0  0  0
    7.2420  -13.7750   -6.5090 C   0  0  0  0  0  0  0  0  0  0  0  0
    6.2920  -13.2770   -5.6030 C   0  0  0  0  0  0  0  0  0  0  0  0
    6.6180  -13.1250   -4.2590 C   0  0  0  0  0  0  0  0  0  0  0  0
    5.7980  -12.6540   -3.2750 O   0  0  0  0  0  0  0  0  0  0  0  0
    4.7560  -11.7590   -3.6690 C   0  0  0  0  0  0  0  0  0  0  0  0
    3.4270  -12.5190   -3.6190 C   0  0  2  0  0  0  0  0  0  0  0  0
    2.2570  -11.5820   -3.7890 C   0  0  0  0  0  0  0  0  0  0  0  0
    2.0010  -11.0520   -2.4840 O   0  0  0  0  0  0  0  0  0  0  0  0
    2.3490  -12.0420   -1.4820 C   0  0  1  0  0  0  0  0  0  0  0  0
    3.2620  -11.3900   -0.4130 C   0  0  0  0  0  0  0  0  0  0  0  0
    4.3020  -12.2580    0.1050 N   0  0  0  0  0  0  0  0  0  0  0  0
    5.6500  -12.1200   -0.0290 C   0  0  0  0  0  0  0  0  0  0  0  0
    6.2580  -13.0620    0.6540 N   0  0  0  0  0  0  0  0  0  0  0  0
    5.2220  -13.7430    1.2240 C   0  0  0  0  0  0  0  0  0  0  0  0
    4.0050  -13.2730    0.9410 N   0  0  0  0  0  0  0  0  0  0  0  0
    1.0760  -12.6090   -0.8500 C   0  0  0  0  0  0  0  0  0  0  0  0
    0.8410  -13.9930   -0.7700 C   0  0  0  0  0  0  0  0  0  0  0  0
   -0.3370  -14.4850   -0.2010 C   0  0  0  0  0  0  0  0  0  0  0  0
   -1.2890  -13.5990    0.2880 C   0  0  0  0  0  0  0  0  0  0  0  0
   -2.4160  -14.0750    0.8330 F   0  0  0  0  0  0  0  0  0  0  0  0
   -1.0930  -12.2290    0.2150 C   0  0  0  0  0  0  0  0  0  0  0  0
    0.0810  -11.7480   -0.3550 C   0  0  0  0  0  0  0  0  0  0  0  0
    0.2500  -10.4220   -0.4440 F   0  0  0  0  0  0  0  0  0  0  0  0
    3.1200  -13.1360   -2.2610 C   0  0  0  0  0  0  0  0  0  0  0  0
    7.8950  -13.4830   -3.8350 C   0  0  0  0  0  0  0  0  0  0  0  0
    8.8360  -13.9800   -4.7460 C   0  0  0  0  0  0  0  0  0  0  0  0
   10.8970  -14.6570   -6.5370 C   0  0  0  0  0  0  0  0  0  0  0  0
   11.7350  -15.6790   -7.3360 C   0  0  0  0  0  0  0  0  0  0  0  0
   12.2650  -17.0200  -10.5840 C   0  0  0  0  0  0  0  0  0  0  0  0
   13.2480  -17.5050  -11.4650 C   0  0  0  0  0  0  0  0  0  0  0  0
   16.3420  -18.5900  -12.2020 C   0  0  0  0  0  0  0  0  0  0  0  0
   16.3960  -19.4010  -11.2900 O   0  0  0  0  0  0  0  0  0  0  0  0
   16.4310  -21.4122  -12.9663 H   0  0  0  0  0  0  0  0  0  0  0  0
   15.4537  -20.9650  -14.4057 H   0  0  0  0  0  0  0  0  0  0  0  0
   16.4082  -22.4867  -14.4057 H   0  0  0  0  0  0  0  0  0  0  0  0
   18.3713  -21.4189  -14.8751 H   0  0  0  0  0  0  0  0  0  0  0  0
   17.2343  -20.1633  -15.5439 H   0  0  0  0  0  0  0  0  0  0  0  0
   18.4207  -20.1462  -12.7382 H   0  0  0  0  0  0  0  0  0  0  0  0
   19.2502  -18.8826  -15.3322 H   0  0  0  0  0  0  0  0  0  0  0  0
   20.8572  -19.9764  -12.9723 H   0  0  0  0  0  0  0  0  0  0  0  0
   20.5157  -20.8325  -14.5141 H   0  0  0  0  0  0  0  0  0  0  0  0
   21.5391  -19.3562  -14.5141 H   0  0  0  0  0  0  0  0  0  0  0  0
   20.6060  -17.4970  -13.8630 H   0  0  0  0  0  0  0  0  0  0  0  0
   15.4362  -16.0356  -13.9479 H   0  0  0  0  0  0  0  0  0  0  0  0
   15.8307  -15.5300  -10.5130 H   0  0  0  0  0  0  0  0  0  0  0  0
   14.0929  -14.6841   -8.9672 H   0  0  0  0  0  0  0  0  0  0  0  0
   10.1402  -15.1941  -10.3088 H   0  0  0  0  0  0  0  0  0  0  0  0
    9.7336  -16.4670   -9.0820 H   0  0  0  0  0  0  0  0  0  0  0  0
    9.6569  -13.4303   -8.7095 H   0  0  0  0  0  0  0  0  0  0  0  0
    8.2700  -14.5986   -8.6934 H   0  0  0  0  0  0  0  0  0  0  0  0
    6.9616  -13.8893   -7.5665 H   0  0  0  0  0  0  0  0  0  0  0  0
    5.2864  -13.0061   -5.9571 H   0  0  0  0  0  0  0  0  0  0  0  0
    4.7210  -10.9022   -2.9801 H   0  0  0  0  0  0  0  0  0  0  0  0
    4.9414  -11.3849   -4.6867 H   0  0  0  0  0  0  0  0  0  0  0  0
    3.5432  -13.2741   -4.4104 H   0  0  0  0  0  0  0  0  0  0  0  0
    2.5106  -10.7730   -4.4899 H   0  0  0  0  0  0  0  0  0  0  0  0
    1.3768  -12.0975   -4.2008 H   0  0  0  0  0  0  0  0  0  0  0  0
    3.7432  -10.5096   -0.8639 H   0  0  0  0  0  0  0  0  0  0  0  0
    2.6132  -11.1388    0.4391 H   0  0  0  0  0  0  0  0  0  0  0  0
    6.1524  -11.3392   -0.6189 H   0  0  0  0  0  0  0  0  0  0  0  0
    5.3787  -14.6183    1.8716 H   0  0  0  0  0  0  0  0  0  0  0  0
    1.5922  -14.6959   -1.1593 H   0  0  0  0  0  0  0  0  0  0  0  0
   -0.5098  -15.5697   -0.1406 H   0  0  0  0  0  0  0  0  0  0  0  0
   -1.8530  -11.5338    0.6013 H   0  0  0  0  0  0  0  0  0  0  0  0
    4.0511  -13.3985   -1.7374 H   0  0  0  0  0  0  0  0  0  0  0  0
    2.5356  -14.0633   -2.3538 H   0  0  0  0  0  0  0  0  0  0  0  0
    8.1675  -13.3746   -2.7748 H   0  0  0  0  0  0  0  0  0  0  0  0
    9.8363  -14.2592   -4.3835 H   0  0  0  0  0  0  0  0  0  0  0  0
   11.3327  -13.6560   -6.6718 H   0  0  0  0  0  0  0  0  0  0  0  0
   10.9122  -14.9549   -5.4782 H   0  0  0  0  0  0  0  0  0  0  0  0
   12.7959  -15.5503   -7.0755 H   0  0  0  0  0  0  0  0  0  0  0  0
   11.3826  -16.6878   -7.0750 H   0  0  0  0  0  0  0  0  0  0  0  0
   11.2584  -17.4627  -10.6117 H   0  0  0  0  0  0  0  0  0  0  0  0
   12.9903  -18.3110  -12.1678 H   0  0  0  0  0  0  0  0  0  0  0  0
  1  2  1  0
  2  3  1  0
  3  4  1  0
  4  5  1  0
  4  6  1  0
  3  7  1  0
  7  8  1  0
  8  9  2  0
  9 10  1  0
 10 11  1  0
 11 12  2  0
 12 13  1  0
 13 14  2  0
 14 15  1  0
 15 16  1  0
 16 17  1  0
 17 18  1  0
 18 19  1  0
 19 20  2  0
 20 21  1  0
 21 22  2  0
 22 23  1  0
 23 24  1  0
 24 25  1  0
 25 26  1  0
 26 27  1  0
 27 28  1  0
 28 29  1  1
 29 30  1  0
 30 31  1  0
 31 32  2  0
 32 33  1  0
 33 34  2  0
 28 35  1  0
 35 36  2  0
 36 37  1  0
 37 38  2  0
 38 39  1  0
 38 40  1  0
 40 41  2  0
 41 42  1  0
 28 43  1  0
 22 44  1  0
 44 45  2  0
 18 46  1  0
 46 47  1  0
 14 48  1  0
 48 49  2  0
 10 50  1  0
 50 51  2  0
 50  7  1  0
 49 11  1  0
 47 15  1  0
 45 19  1  0
 43 25  1  0
 34 30  1  0
 41 35  1  0
  1 52  1  0
  1 53  1  0
  1 54  1  0
  2 55  1  0
  2 56  1  0
  3 57  1  1
  4 58  1  6
  5 59  1  0
  5 60  1  0
  5 61  1  0
  6 62  1  0
  9 63  1  0
 12 64  1  0
 13 65  1  0
 16 66  1  0
 16 67  1  0
 17 68  1  0
 17 69  1  0
 20 70  1  0
 21 71  1  0
 24 72  1  0
 24 73  1  0
 25 74  1  6
 26 75  1  0
 26 76  1  0
 29 77  1  0
 29 78  1  0
 31 79  1  0
 33 80  1  0
 36 81  1  0
 37 82  1  0
 40 83  1  0
 43 84  1  0
 43 85  1  0
 44 86  1  0
 45 87  1  0
 46 88  1  0
 46 89  1  0
 47 90  1  0
 47 91  1  0
 48 92  1  0
 49 93  1  0
M  END
>  <meeko>  (9) 
{"is_sidechain": [false], "free_energy": -9.119, "intermolecular_energy": -15.48, "internal_energy": -1.923}

$$$$
