LIB_FCRHJSNRFAAYQD__H_AF__e8__s20260927
     RDKit          3D

 65 70  0  0  0  0  0  0  0  0999 V2000
    4.0600  -12.1430   -2.3190 O   0  0  0  0  0  0  0  0  0  0  0  0
    3.2940  -12.7600   -3.0460 C   0  0  0  0  0  0  0  0  0  0  0  0
    1.9310  -12.9090   -2.8250 N   0  0  0  0  0  0  0  0  0  0  0  0
    1.1540  -12.3360   -1.7950 C   0  0  0  0  0  0  0  0  0  0  0  0
    1.0480  -10.9630   -1.5610 C   0  0  0  0  0  0  0  0  0  0  0  0
    0.2590  -10.4780   -0.5130 C   0  0  0  0  0  0  0  0  0  0  0  0
   -0.4420  -11.3600    0.3050 C   0  0  0  0  0  0  0  0  0  0  0  0
   -0.3640  -12.7290    0.0630 C   0  0  0  0  0  0  0  0  0  0  0  0
   -1.0540  -13.5560    0.9200 O   0  0  0  0  0  0  0  0  0  0  0  0
   -2.4280  -13.5130    0.8670 C   0  0  0  0  0  0  0  0  0  0  0  0
   -3.1010  -13.2330    2.0570 C   0  0  0  0  0  0  0  0  0  0  0  0
   -4.4930  -13.1470    2.0650 C   0  0  0  0  0  0  0  0  0  0  0  0
   -5.2100  -13.3260    0.8810 C   0  0  0  0  0  0  0  0  0  0  0  0
   -4.5350  -13.5820   -0.3130 C   0  0  0  0  0  0  0  0  0  0  0  0
   -3.1420  -13.6690   -0.3240 C   0  0  0  0  0  0  0  0  0  0  0  0
    0.4450  -13.2190   -0.9690 C   0  0  0  0  0  0  0  0  0  0  0  0
    3.6630  -13.4090   -4.2180 N   0  0  0  0  0  0  0  0  0  0  0  0
    4.9670  -13.5910   -4.7270 C   0  0  0  0  0  0  0  0  0  0  0  0
    5.2700  -12.9670   -5.9430 C   0  0  0  0  0  0  0  0  0  0  0  0
    6.5350  -13.1030   -6.5150 C   0  0  0  0  0  0  0  0  0  0  0  0
    7.5100  -13.8640   -5.8710 C   0  0  0  0  0  0  0  0  0  0  0  0
    7.2370  -14.4970   -4.6510 C   0  0  0  0  0  0  0  0  0  0  0  0
    8.2910  -15.3140   -3.9960 C   0  0  0  0  0  0  0  0  0  0  0  0
    7.9430  -16.3480   -3.2000 C   0  0  0  0  0  0  0  0  0  0  0  0
    8.9470  -17.0760   -2.6000 N   0  0  0  0  0  0  0  0  0  0  0  0
    8.9280  -18.1560   -1.7610 C   0  0  0  0  0  0  0  0  0  0  0  0
   10.2550  -18.4300   -1.5000 C   0  0  0  0  0  0  0  0  0  0  0  0
   11.0850  -17.5480   -2.1520 N   0  0  0  0  0  0  0  0  0  0  0  0
   10.2590  -16.7520   -2.8010 C   0  0  0  0  0  0  0  0  0  0  0  0
   10.5860  -15.6260   -3.6560 C   0  0  0  0  0  0  0  0  0  0  0  0
   11.8970  -15.2780   -3.8730 N   0  0  0  0  0  0  0  0  0  0  0  0
   12.3140  -14.1970   -4.7210 C   0  0  0  0  0  0  0  0  0  0  0  0
   12.5030  -12.9520   -3.8940 C   0  0  0  0  0  0  0  0  0  0  0  0
   11.7740  -12.7560   -2.7170 C   0  0  0  0  0  0  0  0  0  0  0  0
   11.9650  -11.5810   -2.0060 C   0  0  0  0  0  0  0  0  0  0  0  0
   12.8140  -10.6030   -2.3850 N   0  0  0  0  0  0  0  0  0  0  0  0
   13.4960  -10.8030   -3.5320 C   0  0  0  0  0  0  0  0  0  0  0  0
   13.3750  -11.9420   -4.3130 C   0  0  0  0  0  0  0  0  0  0  0  0
    9.6140  -14.9430   -4.2180 N   0  0  0  0  0  0  0  0  0  0  0  0
    5.9490  -14.3630   -4.1000 C   0  0  0  0  0  0  0  0  0  0  0  0
    1.4420  -13.5380   -3.4420 H   0  0  0  0  0  0  0  0  0  0  0  0
    1.5901  -10.2567   -2.2070 H   0  0  0  0  0  0  0  0  0  0  0  0
    0.1920   -9.3947   -0.3342 H   0  0  0  0  0  0  0  0  0  0  0  0
   -1.0529  -10.9782    1.1363 H   0  0  0  0  0  0  0  0  0  0  0  0
   -2.5344  -13.0803    2.9874 H   0  0  0  0  0  0  0  0  0  0  0  0
   -5.0258  -12.9381    3.0044 H   0  0  0  0  0  0  0  0  0  0  0  0
   -6.3083  -13.2652    0.8892 H   0  0  0  0  0  0  0  0  0  0  0  0
   -5.1012  -13.7154   -1.2466 H   0  0  0  0  0  0  0  0  0  0  0  0
   -2.6082  -13.8597   -1.2667 H   0  0  0  0  0  0  0  0  0  0  0  0
    0.5248  -14.3038   -1.1327 H   0  0  0  0  0  0  0  0  0  0  0  0
    2.9130  -13.7250   -4.8120 H   0  0  0  0  0  0  0  0  0  0  0  0
    4.5036  -12.3640   -6.4520 H   0  0  0  0  0  0  0  0  0  0  0  0
    6.7629  -12.6110   -7.4721 H   0  0  0  0  0  0  0  0  0  0  0  0
    8.5058  -13.9687   -6.3263 H   0  0  0  0  0  0  0  0  0  0  0  0
    6.8856  -16.6023   -3.0350 H   0  0  0  0  0  0  0  0  0  0  0  0
    8.0462  -18.6902   -1.3775 H   0  0  0  0  0  0  0  0  0  0  0  0
   10.6042  -19.2486   -0.8536 H   0  0  0  0  0  0  0  0  0  0  0  0
   12.6030  -15.8470   -3.4150 H   0  0  0  0  0  0  0  0  0  0  0  0
   13.2638  -14.4600   -5.2095 H   0  0  0  0  0  0  0  0  0  0  0  0
   11.5452  -14.0148   -5.4864 H   0  0  0  0  0  0  0  0  0  0  0  0
   11.0640  -13.5178   -2.3626 H   0  0  0  0  0  0  0  0  0  0  0  0
   11.3908  -11.4377   -1.0787 H   0  0  0  0  0  0  0  0  0  0  0  0
   14.1883  -10.0165   -3.8669 H   0  0  0  0  0  0  0  0  0  0  0  0
   13.9528  -12.0491   -5.2429 H   0  0  0  0  0  0  0  0  0  0  0  0
    5.7103  -14.8762   -3.1568 H   0  0  0  0  0  0  0  0  0  0  0  0
  1  2  2  0
  2  3  1  0
  3  4  1  0
  4  5  2  0
  5  6  1  0
  6  7  2  0
  7  8  1  0
  8  9  1  0
  9 10  1  0
 10 11  2  0
 11 12  1  0
 12 13  2  0
 13 14  1  0
 14 15  2  0
  8 16  2  0
  2 17  1  0
 17 18  1  0
 18 19  2  0
 19 20  1  0
 20 21  2  0
 21 22  1  0
 22 23  1  0
 23 24  2  0
 24 25  1  0
 25 26  1  0
 26 27  2  0
 27 28  1  0
 28 29  2  0
 29 30  1  0
 30 31  1  0
 31 32  1  0
 32 33  1  0
 33 34  2  0
 34 35  1  0
 35 36  2  0
 36 37  1  0
 37 38  2  0
 30 39  2  0
 22 40  2  0
 16  4  1  0
 40 18  1  0
 15 10  1  0
 39 23  1  0
 29 25  1  0
 38 33  1  0
  3 41  1  0
  5 42  1  0
  6 43  1  0
  7 44  1  0
 11 45  1  0
 12 46  1  0
 13 47  1  0
 14 48  1  0
 15 49  1  0
 16 50  1  0
 17 51  1  0
 19 52  1  0
 20 53  1  0
 21 54  1  0
 24 55  1  0
 26 56  1  0
 27 57  1  0
 31 58  1  0
 32 59  1  0
 32 60  1  0
 34 61  1  0
 35 62  1  0
 37 63  1  0
 38 64  1  0
 40 65  1  0
M  END
>  <meeko>  (1) 
{"is_sidechain": [false], "free_energy": -11.179, "intermolecular_energy": -15.754, "internal_energy": -1.011}

$$$$
LIB_FCRHJSNRFAAYQD__H_AF__e8__s20260927
     RDKit          3D

 65 70  0  0  0  0  0  0  0  0999 V2000
    4.5890  -13.2840   -0.8920 O   0  0  0  0  0  0  0  0  0  0  0  0
    4.1320  -13.7380   -1.9320 C   0  0  0  0  0  0  0  0  0  0  0  0
    2.8170  -13.5920   -2.3550 N   0  0  0  0  0  0  0  0  0  0  0  0
    1.7860  -12.8520   -1.7370 C   0  0  0  0  0  0  0  0  0  0  0  0
    1.4670  -11.5300   -2.0580 C   0  0  0  0  0  0  0  0  0  0  0  0
    0.4310  -10.8660   -1.3910 C   0  0  0  0  0  0  0  0  0  0  0  0
   -0.3040  -11.5210   -0.4060 C   0  0  0  0  0  0  0  0  0  0  0  0
   -0.0110  -12.8470   -0.1000 C   0  0  0  0  0  0  0  0  0  0  0  0
   -0.7490  -13.4350    0.9020 O   0  0  0  0  0  0  0  0  0  0  0  0
   -2.1150  -13.4670    0.7410 C   0  0  0  0  0  0  0  0  0  0  0  0
   -2.8880  -12.9270    1.7700 C   0  0  0  0  0  0  0  0  0  0  0  0
   -4.2780  -12.9020    1.6560 C   0  0  0  0  0  0  0  0  0  0  0  0
   -4.8930  -13.4030    0.5080 C   0  0  0  0  0  0  0  0  0  0  0  0
   -4.1180  -13.9210   -0.5310 C   0  0  0  0  0  0  0  0  0  0  0  0
   -2.7270  -13.9470   -0.4200 C   0  0  0  0  0  0  0  0  0  0  0  0
    1.0410  -13.5060   -0.7460 C   0  0  0  0  0  0  0  0  0  0  0  0
    4.8570  -14.4680   -2.8640 N   0  0  0  0  0  0  0  0  0  0  0  0
    6.1870  -14.9290   -2.7510 C   0  0  0  0  0  0  0  0  0  0  0  0
    6.3750  -16.2110   -2.2220 C   0  0  0  0  0  0  0  0  0  0  0  0
    7.6580  -16.7370   -2.0730 C   0  0  0  0  0  0  0  0  0  0  0  0
    8.7670  -15.9820   -2.4550 C   0  0  0  0  0  0  0  0  0  0  0  0
    8.6090  -14.6960   -2.9910 C   0  0  0  0  0  0  0  0  0  0  0  0
    9.8090  -13.9100   -3.3760 C   0  0  0  0  0  0  0  0  0  0  0  0
   10.3390  -13.0220   -2.5070 C   0  0  0  0  0  0  0  0  0  0  0  0
   11.4450  -12.3020   -2.9020 N   0  0  0  0  0  0  0  0  0  0  0  0
   12.2000  -11.3520   -2.2720 C   0  0  0  0  0  0  0  0  0  0  0  0
   13.1740  -11.0040   -3.1860 C   0  0  0  0  0  0  0  0  0  0  0  0
   13.0340  -11.7100   -4.3580 N   0  0  0  0  0  0  0  0  0  0  0  0
   11.9840  -12.4790   -4.1450 C   0  0  0  0  0  0  0  0  0  0  0  0
   11.3760  -13.4360   -5.0500 C   0  0  0  0  0  0  0  0  0  0  0  0
   11.8970  -13.6310   -6.3050 N   0  0  0  0  0  0  0  0  0  0  0  0
   11.3780  -14.5730   -7.2570 C   0  0  0  0  0  0  0  0  0  0  0  0
   12.5050  -15.4070   -7.8080 C   0  0  0  0  0  0  0  0  0  0  0  0
   12.7320  -16.7040   -7.3390 C   0  0  0  0  0  0  0  0  0  0  0  0
   13.7980  -17.4210   -7.8600 C   0  0  0  0  0  0  0  0  0  0  0  0
   14.6430  -16.9380   -8.7950 N   0  0  0  0  0  0  0  0  0  0  0  0
   14.4180  -15.6790   -9.2230 C   0  0  0  0  0  0  0  0  0  0  0  0
   13.3800  -14.8820   -8.7650 C   0  0  0  0  0  0  0  0  0  0  0  0
   10.3210  -14.1120   -4.6550 N   0  0  0  0  0  0  0  0  0  0  0  0
    7.3070  -14.1770   -3.1160 C   0  0  0  0  0  0  0  0  0  0  0  0
    2.5480  -14.1140   -3.1740 H   0  0  0  0  0  0  0  0  0  0  0  0
    2.0348  -11.0067   -2.8414 H   0  0  0  0  0  0  0  0  0  0  0  0
    0.1963   -9.8220   -1.6460 H   0  0  0  0  0  0  0  0  0  0  0  0
   -1.1100  -10.9945    0.1262 H   0  0  0  0  0  0  0  0  0  0  0  0
   -2.4018  -12.5217    2.6696 H   0  0  0  0  0  0  0  0  0  0  0  0
   -4.8893  -12.4873    2.4711 H   0  0  0  0  0  0  0  0  0  0  0  0
   -5.9895  -13.3897    0.4217 H   0  0  0  0  0  0  0  0  0  0  0  0
   -4.6041  -14.3091   -1.4382 H   0  0  0  0  0  0  0  0  0  0  0  0
   -2.1148  -14.3438   -1.2432 H   0  0  0  0  0  0  0  0  0  0  0  0
    1.2848  -14.5437   -0.4744 H   0  0  0  0  0  0  0  0  0  0  0  0
    4.4120  -14.6280   -3.7540 H   0  0  0  0  0  0  0  0  0  0  0  0
    5.5025  -16.8094   -1.9209 H   0  0  0  0  0  0  0  0  0  0  0  0
    7.7952  -17.7452   -1.6551 H   0  0  0  0  0  0  0  0  0  0  0  0
    9.7772  -16.4003   -2.3343 H   0  0  0  0  0  0  0  0  0  0  0  0
    9.8987  -12.8775   -1.5094 H   0  0  0  0  0  0  0  0  0  0  0  0
   12.0613  -10.9518   -1.2568 H   0  0  0  0  0  0  0  0  0  0  0  0
   13.9609  -10.2580   -3.0009 H   0  0  0  0  0  0  0  0  0  0  0  0
   12.7160  -13.0840   -6.5510 H   0  0  0  0  0  0  0  0  0  0  0  0
   10.6458  -15.2280   -6.7622 H   0  0  0  0  0  0  0  0  0  0  0  0
   10.8893  -14.0299   -8.0794 H   0  0  0  0  0  0  0  0  0  0  0  0
   12.0786  -17.1465   -6.5727 H   0  0  0  0  0  0  0  0  0  0  0  0
   13.9649  -18.4433   -7.4897 H   0  0  0  0  0  0  0  0  0  0  0  0
   15.0977  -15.2600   -9.9796 H   0  0  0  0  0  0  0  0  0  0  0  0
   13.2473  -13.8587   -9.1460 H   0  0  0  0  0  0  0  0  0  0  0  0
    7.1680  -13.1590   -3.5089 H   0  0  0  0  0  0  0  0  0  0  0  0
  1  2  2  0
  2  3  1  0
  3  4  1  0
  4  5  2  0
  5  6  1  0
  6  7  2  0
  7  8  1  0
  8  9  1  0
  9 10  1  0
 10 11  2  0
 11 12  1  0
 12 13  2  0
 13 14  1  0
 14 15  2  0
  8 16  2  0
  2 17  1  0
 17 18  1  0
 18 19  2  0
 19 20  1  0
 20 21  2  0
 21 22  1  0
 22 23  1  0
 23 24  2  0
 24 25  1  0
 25 26  1  0
 26 27  2  0
 27 28  1  0
 28 29  2  0
 29 30  1  0
 30 31  1  0
 31 32  1  0
 32 33  1  0
 33 34  2  0
 34 35  1  0
 35 36  2  0
 36 37  1  0
 37 38  2  0
 30 39  2  0
 22 40  2  0
 16  4  1  0
 40 18  1  0
 15 10  1  0
 39 23  1  0
 29 25  1  0
 38 33  1  0
  3 41  1  0
  5 42  1  0
  6 43  1  0
  7 44  1  0
 11 45  1  0
 12 46  1  0
 13 47  1  0
 14 48  1  0
 15 49  1  0
 16 50  1  0
 17 51  1  0
 19 52  1  0
 20 53  1  0
 21 54  1  0
 24 55  1  0
 26 56  1  0
 27 57  1  0
 31 58  1  0
 32 59  1  0
 32 60  1  0
 34 61  1  0
 35 62  1  0
 37 63  1  0
 38 64  1  0
 40 65  1  0
M  END
>  <meeko>  (2) 
{"is_sidechain": [false], "free_energy": -11.178, "intermolecular_energy": -15.481, "internal_energy": -1.283}

$$$$
LIB_FCRHJSNRFAAYQD__H_AF__e8__s20260927
     RDKit          3D

 65 70  0  0  0  0  0  0  0  0999 V2000
    6.3670  -13.9170   -4.6140 O   0  0  0  0  0  0  0  0  0  0  0  0
    6.2370  -13.4170   -5.7230 C   0  0  0  0  0  0  0  0  0  0  0  0
    7.1620  -13.5140   -6.7540 N   0  0  0  0  0  0  0  0  0  0  0  0
    8.3680  -14.2470   -6.7690 C   0  0  0  0  0  0  0  0  0  0  0  0
    8.5620  -15.4270   -7.4920 C   0  0  0  0  0  0  0  0  0  0  0  0
    9.7900  -16.0950   -7.4470 C   0  0  0  0  0  0  0  0  0  0  0  0
   10.8410  -15.5850   -6.6890 C   0  0  0  0  0  0  0  0  0  0  0  0
   10.6650  -14.3950   -5.9880 C   0  0  0  0  0  0  0  0  0  0  0  0
   11.7270  -13.9520   -5.2320 O   0  0  0  0  0  0  0  0  0  0  0  0
   11.5800  -13.9740   -3.8650 C   0  0  0  0  0  0  0  0  0  0  0  0
   11.7260  -12.7600   -3.1910 C   0  0  0  0  0  0  0  0  0  0  0  0
   11.5600  -12.7080   -1.8080 C   0  0  0  0  0  0  0  0  0  0  0  0
   11.2350  -13.8670   -1.1000 C   0  0  0  0  0  0  0  0  0  0  0  0
   11.0660  -15.0750   -1.7780 C   0  0  0  0  0  0  0  0  0  0  0  0
   11.2310  -15.1300   -3.1620 C   0  0  0  0  0  0  0  0  0  0  0  0
    9.4300  -13.7370   -6.0100 C   0  0  0  0  0  0  0  0  0  0  0  0
    5.1370  -12.6750   -6.1330 N   0  0  0  0  0  0  0  0  0  0  0  0
    4.0420  -12.2540   -5.3480 C   0  0  0  0  0  0  0  0  0  0  0  0
    3.3620  -11.1030   -5.7660 C   0  0  0  0  0  0  0  0  0  0  0  0
    2.2740  -10.6190   -5.0410 C   0  0  0  0  0  0  0  0  0  0  0  0
    1.8520  -11.2850   -3.8910 C   0  0  0  0  0  0  0  0  0  0  0  0
    2.5110  -12.4420   -3.4510 C   0  0  0  0  0  0  0  0  0  0  0  0
    2.0490  -13.1220   -2.2140 C   0  0  0  0  0  0  0  0  0  0  0  0
    0.8900  -12.7460   -1.6310 C   0  0  0  0  0  0  0  0  0  0  0  0
    0.4990  -13.3920   -0.4790 N   0  0  0  0  0  0  0  0  0  0  0  0
   -0.5940  -13.2520    0.3310 C   0  0  0  0  0  0  0  0  0  0  0  0
   -0.4190  -14.1850    1.3330 C   0  0  0  0  0  0  0  0  0  0  0  0
    0.7500  -14.8890    1.1610 N   0  0  0  0  0  0  0  0  0  0  0  0
    1.2700  -14.3820    0.0620 C   0  0  0  0  0  0  0  0  0  0  0  0
    2.5140  -14.7460   -0.5920 C   0  0  0  0  0  0  0  0  0  0  0  0
    3.3080  -15.7360   -0.0690 N   0  0  0  0  0  0  0  0  0  0  0  0
    4.5390  -16.1800   -0.6600 C   0  0  0  0  0  0  0  0  0  0  0  0
    5.5790  -15.0970   -0.5310 C   0  0  0  0  0  0  0  0  0  0  0  0
    5.5080  -14.1540    0.4990 C   0  0  0  0  0  0  0  0  0  0  0  0
    6.4740  -13.1620    0.5580 C   0  0  0  0  0  0  0  0  0  0  0  0
    7.4850  -13.0440   -0.3280 N   0  0  0  0  0  0  0  0  0  0  0  0
    7.5280  -13.9530   -1.3240 C   0  0  0  0  0  0  0  0  0  0  0  0
    6.6100  -14.9820   -1.4700 C   0  0  0  0  0  0  0  0  0  0  0  0
    2.8700  -14.1180   -1.6900 N   0  0  0  0  0  0  0  0  0  0  0  0
    3.6190  -12.9040   -4.1850 C   0  0  0  0  0  0  0  0  0  0  0  0
    6.9790  -12.9580   -7.5740 H   0  0  0  0  0  0  0  0  0  0  0  0
    7.7419  -15.8340   -8.1017 H   0  0  0  0  0  0  0  0  0  0  0  0
    9.9263  -17.0281   -8.0133 H   0  0  0  0  0  0  0  0  0  0  0  0
   11.8023  -16.1179   -6.6445 H   0  0  0  0  0  0  0  0  0  0  0  0
   11.9718  -11.8455   -3.7508 H   0  0  0  0  0  0  0  0  0  0  0  0
   11.6850  -11.7542   -1.2744 H   0  0  0  0  0  0  0  0  0  0  0  0
   11.1122  -13.8277   -0.0076 H   0  0  0  0  0  0  0  0  0  0  0  0
   10.8022  -15.9855   -1.2200 H   0  0  0  0  0  0  0  0  0  0  0  0
   11.0869  -16.0798   -3.6979 H   0  0  0  0  0  0  0  0  0  0  0  0
    9.2920  -12.8138   -5.4280 H   0  0  0  0  0  0  0  0  0  0  0  0
    5.0730  -12.4740   -7.1180 H   0  0  0  0  0  0  0  0  0  0  0  0
    3.6894  -10.5762   -6.6745 H   0  0  0  0  0  0  0  0  0  0  0  0
    1.7488   -9.7124   -5.3760 H   0  0  0  0  0  0  0  0  0  0  0  0
    0.9930  -10.8987   -3.3228 H   0  0  0  0  0  0  0  0  0  0  0  0
    0.2742  -11.9445   -2.0651 H   0  0  0  0  0  0  0  0  0  0  0  0
   -1.4310  -12.5485    0.2102 H   0  0  0  0  0  0  0  0  0  0  0  0
   -1.1237  -14.3449    2.1623 H   0  0  0  0  0  0  0  0  0  0  0  0
    2.9770  -16.1890    0.7780 H   0  0  0  0  0  0  0  0  0  0  0  0
    4.8877  -17.0863   -0.1432 H   0  0  0  0  0  0  0  0  0  0  0  0
    4.3742  -16.4045   -1.7242 H   0  0  0  0  0  0  0  0  0  0  0  0
    4.7024  -14.1986    1.2467 H   0  0  0  0  0  0  0  0  0  0  0  0
    6.4130  -12.4278    1.3749 H   0  0  0  0  0  0  0  0  0  0  0  0
    8.3385  -13.8732   -2.0634 H   0  0  0  0  0  0  0  0  0  0  0  0
    6.6905  -15.6925   -2.3059 H   0  0  0  0  0  0  0  0  0  0  0  0
    4.1631  -13.7943   -3.8367 H   0  0  0  0  0  0  0  0  0  0  0  0
  1  2  2  0
  2  3  1  0
  3  4  1  0
  4  5  2  0
  5  6  1  0
  6  7  2  0
  7  8  1  0
  8  9  1  0
  9 10  1  0
 10 11  2  0
 11 12  1  0
 12 13  2  0
 13 14  1  0
 14 15  2  0
  8 16  2  0
  2 17  1  0
 17 18  1  0
 18 19  2  0
 19 20  1  0
 20 21  2  0
 21 22  1  0
 22 23  1  0
 23 24  2  0
 24 25  1  0
 25 26  1  0
 26 27  2  0
 27 28  1  0
 28 29  2  0
 29 30  1  0
 30 31  1  0
 31 32  1  0
 32 33  1  0
 33 34  2  0
 34 35  1  0
 35 36  2  0
 36 37  1  0
 37 38  2  0
 30 39  2  0
 22 40  2  0
 16  4  1  0
 40 18  1  0
 15 10  1  0
 39 23  1  0
 29 25  1  0
 38 33  1  0
  3 41  1  0
  5 42  1  0
  6 43  1  0
  7 44  1  0
 11 45  1  0
 12 46  1  0
 13 47  1  0
 14 48  1  0
 15 49  1  0
 16 50  1  0
 17 51  1  0
 19 52  1  0
 20 53  1  0
 21 54  1  0
 24 55  1  0
 26 56  1  0
 27 57  1  0
 31 58  1  0
 32 59  1  0
 32 60  1  0
 34 61  1  0
 35 62  1  0
 37 63  1  0
 38 64  1  0
 40 65  1  0
M  END
>  <meeko>  (3) 
{"is_sidechain": [false], "free_energy": -10.883, "intermolecular_energy": -15.125, "internal_energy": -1.223}

$$$$
LIB_FCRHJSNRFAAYQD__H_AF__e8__s20260927
     RDKit          3D

 65 70  0  0  0  0  0  0  0  0999 V2000
    2.0180  -12.7630   -1.2670 O   0  0  0  0  0  0  0  0  0  0  0  0
    2.2960  -13.6440   -0.4650 C   0  0  0  0  0  0  0  0  0  0  0  0
    1.3720  -14.3690    0.2760 N   0  0  0  0  0  0  0  0  0  0  0  0
   -0.0360  -14.3010    0.2080 C   0  0  0  0  0  0  0  0  0  0  0  0
   -0.7680  -14.3400   -0.9820 C   0  0  0  0  0  0  0  0  0  0  0  0
   -2.1650  -14.2620   -0.9610 C   0  0  0  0  0  0  0  0  0  0  0  0
   -2.8450  -14.1540    0.2490 C   0  0  0  0  0  0  0  0  0  0  0  0
   -2.1250  -14.1410    1.4410 C   0  0  0  0  0  0  0  0  0  0  0  0
   -2.8470  -14.0050    2.6050 O   0  0  0  0  0  0  0  0  0  0  0  0
   -4.1730  -13.6550    2.4870 C   0  0  0  0  0  0  0  0  0  0  0  0
   -4.4600  -12.4760    1.7990 C   0  0  0  0  0  0  0  0  0  0  0  0
   -5.7850  -12.0810    1.6190 C   0  0  0  0  0  0  0  0  0  0  0  0
   -6.8220  -12.8720    2.1150 C   0  0  0  0  0  0  0  0  0  0  0  0
   -6.5350  -14.0640    2.7830 C   0  0  0  0  0  0  0  0  0  0  0  0
   -5.2090  -14.4620    2.9640 C   0  0  0  0  0  0  0  0  0  0  0  0
   -0.7270  -14.1940    1.4230 C   0  0  0  0  0  0  0  0  0  0  0  0
    3.5850  -14.0670   -0.1690 N   0  0  0  0  0  0  0  0  0  0  0  0
    4.8000  -13.5070   -0.6190 C   0  0  0  0  0  0  0  0  0  0  0  0
    5.4080  -12.5520    0.2050 C   0  0  0  0  0  0  0  0  0  0  0  0
    6.6060  -11.9480   -0.1720 C   0  0  0  0  0  0  0  0  0  0  0  0
    7.2110  -12.2970   -1.3790 C   0  0  0  0  0  0  0  0  0  0  0  0
    6.6280  -13.2520   -2.2240 C   0  0  0  0  0  0  0  0  0  0  0  0
    7.2870  -13.5930   -3.5110 C   0  0  0  0  0  0  0  0  0  0  0  0
    6.5650  -13.6130   -4.6520 C   0  0  0  0  0  0  0  0  0  0  0  0
    7.2070  -13.9450   -5.8250 N   0  0  0  0  0  0  0  0  0  0  0  0
    6.7710  -14.0510   -7.1170 C   0  0  0  0  0  0  0  0  0  0  0  0
    7.8850  -14.4210   -7.8420 C   0  0  0  0  0  0  0  0  0  0  0  0
    8.9880  -14.5470   -7.0310 N   0  0  0  0  0  0  0  0  0  0  0  0
    8.5380  -14.2520   -5.8280 C   0  0  0  0  0  0  0  0  0  0  0  0
    9.2730  -14.2280   -4.5770 C   0  0  0  0  0  0  0  0  0  0  0  0
   10.6110  -14.5340   -4.5520 N   0  0  0  0  0  0  0  0  0  0  0  0
   11.4220  -14.5120   -3.3680 C   0  0  0  0  0  0  0  0  0  0  0  0
   11.9500  -13.1190   -3.1450 C   0  0  0  0  0  0  0  0  0  0  0  0
   12.7830  -12.5090   -4.0890 C   0  0  0  0  0  0  0  0  0  0  0  0
   13.2640  -11.2360   -3.8250 C   0  0  0  0  0  0  0  0  0  0  0  0
   12.9820  -10.5440   -2.7010 N   0  0  0  0  0  0  0  0  0  0  0  0
   12.1900  -11.1550   -1.7960 C   0  0  0  0  0  0  0  0  0  0  0  0
   11.6600  -12.4240   -1.9660 C   0  0  0  0  0  0  0  0  0  0  0  0
    8.6420  -13.9100   -3.4680 N   0  0  0  0  0  0  0  0  0  0  0  0
    5.4090  -13.8370   -1.8340 C   0  0  0  0  0  0  0  0  0  0  0  0
    1.7450  -14.9820    0.9830 H   0  0  0  0  0  0  0  0  0  0  0  0
   -0.2414  -14.4328   -1.9433 H   0  0  0  0  0  0  0  0  0  0  0  0
   -2.7287  -14.2861   -1.9053 H   0  0  0  0  0  0  0  0  0  0  0  0
   -3.9424  -14.0795    0.2634 H   0  0  0  0  0  0  0  0  0  0  0  0
   -3.6421  -11.8587    1.3990 H   0  0  0  0  0  0  0  0  0  0  0  0
   -6.0128  -11.1460    1.0861 H   0  0  0  0  0  0  0  0  0  0  0  0
   -7.8669  -12.5561    1.9796 H   0  0  0  0  0  0  0  0  0  0  0  0
   -7.3541  -14.6899    3.1669 H   0  0  0  0  0  0  0  0  0  0  0  0
   -4.9810  -15.4065    3.4797 H   0  0  0  0  0  0  0  0  0  0  0  0
   -0.1664  -14.1514    2.3685 H   0  0  0  0  0  0  0  0  0  0  0  0
    3.6670  -14.9140    0.3710 H   0  0  0  0  0  0  0  0  0  0  0  0
    4.9354  -12.2758    1.1592 H   0  0  0  0  0  0  0  0  0  0  0  0
    7.0737  -11.1970    0.4816 H   0  0  0  0  0  0  0  0  0  0  0  0
    8.1567  -11.8174   -1.6716 H   0  0  0  0  0  0  0  0  0  0  0  0
    5.4921  -13.3705   -4.6451 H   0  0  0  0  0  0  0  0  0  0  0  0
    5.7528  -13.8786   -7.4960 H   0  0  0  0  0  0  0  0  0  0  0  0
    7.8900  -14.5930   -8.9285 H   0  0  0  0  0  0  0  0  0  0  0  0
   11.0430  -14.7660   -5.4420 H   0  0  0  0  0  0  0  0  0  0  0  0
   10.8152  -14.8167   -2.5026 H   0  0  0  0  0  0  0  0  0  0  0  0
   12.2652  -15.2080   -3.4889 H   0  0  0  0  0  0  0  0  0  0  0  0
   13.0506  -13.0285   -5.0209 H   0  0  0  0  0  0  0  0  0  0  0  0
   13.9136  -10.7620   -4.5756 H   0  0  0  0  0  0  0  0  0  0  0  0
   11.9508  -10.6141   -0.8685 H   0  0  0  0  0  0  0  0  0  0  0  0
   11.0244  -12.8755   -1.1900 H   0  0  0  0  0  0  0  0  0  0  0  0
    4.9254  -14.5685   -2.4981 H   0  0  0  0  0  0  0  0  0  0  0  0
  1  2  2  0
  2  3  1  0
  3  4  1  0
  4  5  2  0
  5  6  1  0
  6  7  2  0
  7  8  1  0
  8  9  1  0
  9 10  1  0
 10 11  2  0
 11 12  1  0
 12 13  2  0
 13 14  1  0
 14 15  2  0
  8 16  2  0
  2 17  1  0
 17 18  1  0
 18 19  2  0
 19 20  1  0
 20 21  2  0
 21 22  1  0
 22 23  1  0
 23 24  2  0
 24 25  1  0
 25 26  1  0
 26 27  2  0
 27 28  1  0
 28 29  2  0
 29 30  1  0
 30 31  1  0
 31 32  1  0
 32 33  1  0
 33 34  2  0
 34 35  1  0
 35 36  2  0
 36 37  1  0
 37 38  2  0
 30 39  2  0
 22 40  2  0
 16  4  1  0
 40 18  1  0
 15 10  1  0
 39 23  1  0
 29 25  1  0
 38 33  1  0
  3 41  1  0
  5 42  1  0
  6 43  1  0
  7 44  1  0
 11 45  1  0
 12 46  1  0
 13 47  1  0
 14 48  1  0
 15 49  1  0
 16 50  1  0
 17 51  1  0
 19 52  1  0
 20 53  1  0
 21 54  1  0
 24 55  1  0
 26 56  1  0
 27 57  1  0
 31 58  1  0
 32 59  1  0
 32 60  1  0
 34 61  1  0
 35 62  1  0
 37 63  1  0
 38 64  1  0
 40 65  1  0
M  END
>  <meeko>  (4) 
{"is_sidechain": [false], "free_energy": -10.761, "intermolecular_energy": -15.583, "internal_energy": -0.593}

$$$$
LIB_FCRHJSNRFAAYQD__H_AF__e8__s20260927
     RDKit          3D

 65 70  0  0  0  0  0  0  0  0999 V2000
    2.8570  -11.4570   -3.9800 O   0  0  0  0  0  0  0  0  0  0  0  0
    3.1010  -12.5520   -3.4910 C   0  0  0  0  0  0  0  0  0  0  0  0
    2.5540  -13.0390   -2.3110 N   0  0  0  0  0  0  0  0  0  0  0  0
    1.5760  -12.4300   -1.4950 C   0  0  0  0  0  0  0  0  0  0  0  0
    1.3360  -11.0550   -1.4500 C   0  0  0  0  0  0  0  0  0  0  0  0
    0.3490  -10.5320   -0.6070 C   0  0  0  0  0  0  0  0  0  0  0  0
   -0.4160  -11.3800    0.1900 C   0  0  0  0  0  0  0  0  0  0  0  0
   -0.2020  -12.7540    0.1300 C   0  0  0  0  0  0  0  0  0  0  0  0
   -0.9660  -13.5430    0.9610 O   0  0  0  0  0  0  0  0  0  0  0  0
   -2.3310  -13.3720    0.9110 C   0  0  0  0  0  0  0  0  0  0  0  0
   -2.9830  -13.8060   -0.2440 C   0  0  0  0  0  0  0  0  0  0  0  0
   -4.3690  -13.6880   -0.3450 C   0  0  0  0  0  0  0  0  0  0  0  0
   -5.1030  -13.1500    0.7140 C   0  0  0  0  0  0  0  0  0  0  0  0
   -4.4520  -12.7380    1.8780 C   0  0  0  0  0  0  0  0  0  0  0  0
   -3.0650  -12.8550    1.9820 C   0  0  0  0  0  0  0  0  0  0  0  0
    0.8020  -13.2790   -0.6920 C   0  0  0  0  0  0  0  0  0  0  0  0
    3.9640  -13.4900   -4.0420 N   0  0  0  0  0  0  0  0  0  0  0  0
    4.8010  -13.3330   -5.1680 C   0  0  0  0  0  0  0  0  0  0  0  0
    4.3120  -12.5530   -6.2240 C   0  0  0  0  0  0  0  0  0  0  0  0
    5.0760  -12.3550   -7.3730 C   0  0  0  0  0  0  0  0  0  0  0  0
    6.3400  -12.9340   -7.4760 C   0  0  0  0  0  0  0  0  0  0  0  0
    6.8570  -13.7170   -6.4350 C   0  0  0  0  0  0  0  0  0  0  0  0
    8.2010  -14.3340   -6.5780 C   0  0  0  0  0  0  0  0  0  0  0  0
    8.5630  -14.8930   -7.7530 C   0  0  0  0  0  0  0  0  0  0  0  0
    9.8130  -15.4650   -7.8460 N   0  0  0  0  0  0  0  0  0  0  0  0
   10.4650  -16.0950   -8.8710 C   0  0  0  0  0  0  0  0  0  0  0  0
   11.6910  -16.4520   -8.3490 C   0  0  0  0  0  0  0  0  0  0  0  0
   11.8070  -16.0620   -7.0350 N   0  0  0  0  0  0  0  0  0  0  0  0
   10.6580  -15.4730   -6.7730 C   0  0  0  0  0  0  0  0  0  0  0  0
   10.2230  -14.8710   -5.5260 C   0  0  0  0  0  0  0  0  0  0  0  0
   11.0520  -14.8670   -4.4320 N   0  0  0  0  0  0  0  0  0  0  0  0
   10.7170  -14.2740   -3.1680 C   0  0  0  0  0  0  0  0  0  0  0  0
   11.4920  -12.9940   -2.9910 C   0  0  0  0  0  0  0  0  0  0  0  0
   12.4540  -12.6040   -3.9270 C   0  0  0  0  0  0  0  0  0  0  0  0
   13.1580  -11.4300   -3.7060 C   0  0  0  0  0  0  0  0  0  0  0  0
   12.9760  -10.6360   -2.6300 N   0  0  0  0  0  0  0  0  0  0  0  0
   12.0550  -11.0380   -1.7290 C   0  0  0  0  0  0  0  0  0  0  0  0
   11.3000  -12.1930   -1.8600 C   0  0  0  0  0  0  0  0  0  0  0  0
    9.0270  -14.3310   -5.4570 N   0  0  0  0  0  0  0  0  0  0  0  0
    6.0640  -13.9210   -5.2910 C   0  0  0  0  0  0  0  0  0  0  0  0
    2.9310  -13.9070   -1.9660 H   0  0  0  0  0  0  0  0  0  0  0  0
    1.9279  -10.3772   -2.0827 H   0  0  0  0  0  0  0  0  0  0  0  0
    0.1766   -9.4461   -0.5737 H   0  0  0  0  0  0  0  0  0  0  0  0
   -1.1832  -10.9672    0.8616 H   0  0  0  0  0  0  0  0  0  0  0  0
   -2.4050  -14.2403   -1.0730 H   0  0  0  0  0  0  0  0  0  0  0  0
   -4.8840  -14.0188   -1.2590 H   0  0  0  0  0  0  0  0  0  0  0  0
   -6.1954  -13.0507    0.6309 H   0  0  0  0  0  0  0  0  0  0  0  0
   -5.0325  -12.3208    2.7140 H   0  0  0  0  0  0  0  0  0  0  0  0
   -2.5518  -12.5416    2.9031 H   0  0  0  0  0  0  0  0  0  0  0  0
    0.9845  -14.3636   -0.7079 H   0  0  0  0  0  0  0  0  0  0  0  0
    3.9410  -14.4130   -3.6390 H   0  0  0  0  0  0  0  0  0  0  0  0
    3.3161  -12.0926   -6.1457 H   0  0  0  0  0  0  0  0  0  0  0  0
    4.6820  -11.7426   -8.1975 H   0  0  0  0  0  0  0  0  0  0  0  0
    6.9385  -12.7744   -8.3850 H   0  0  0  0  0  0  0  0  0  0  0  0
    7.8776  -14.8916   -8.6134 H   0  0  0  0  0  0  0  0  0  0  0  0
   10.0924  -16.2772   -9.8898 H   0  0  0  0  0  0  0  0  0  0  0  0
   12.4750  -16.9805   -8.9112 H   0  0  0  0  0  0  0  0  0  0  0  0
   11.9660  -15.2950   -4.5490 H   0  0  0  0  0  0  0  0  0  0  0  0
    9.6391  -14.0566   -3.1394 H   0  0  0  0  0  0  0  0  0  0  0  0
   10.9726  -14.9718   -2.3570 H   0  0  0  0  0  0  0  0  0  0  0  0
   12.6486  -13.2157   -4.8203 H   0  0  0  0  0  0  0  0  0  0  0  0
   13.9087  -11.1282   -4.4512 H   0  0  0  0  0  0  0  0  0  0  0  0
   11.8941  -10.4124   -0.8386 H   0  0  0  0  0  0  0  0  0  0  0  0
   10.5654  -12.4740   -1.0910 H   0  0  0  0  0  0  0  0  0  0  0  0
    6.4449  -14.5555   -4.4772 H   0  0  0  0  0  0  0  0  0  0  0  0
  1  2  2  0
  2  3  1  0
  3  4  1  0
  4  5  2  0
  5  6  1  0
  6  7  2  0
  7  8  1  0
  8  9  1  0
  9 10  1  0
 10 11  2  0
 11 12  1  0
 12 13  2  0
 13 14  1  0
 14 15  2  0
  8 16  2  0
  2 17  1  0
 17 18  1  0
 18 19  2  0
 19 20  1  0
 20 21  2  0
 21 22  1  0
 22 23  1  0
 23 24  2  0
 24 25  1  0
 25 26  1  0
 26 27  2  0
 27 28  1  0
 28 29  2  0
 29 30  1  0
 30 31  1  0
 31 32  1  0
 32 33  1  0
 33 34  2  0
 34 35  1  0
 35 36  2  0
 36 37  1  0
 37 38  2  0
 30 39  2  0
 22 40  2  0
 16  4  1  0
 40 18  1  0
 15 10  1  0
 39 23  1  0
 29 25  1  0
 38 33  1  0
  3 41  1  0
  5 42  1  0
  6 43  1  0
  7 44  1  0
 11 45  1  0
 12 46  1  0
 13 47  1  0
 14 48  1  0
 15 49  1  0
 16 50  1  0
 17 51  1  0
 19 52  1  0
 20 53  1  0
 21 54  1  0
 24 55  1  0
 26 56  1  0
 27 57  1  0
 31 58  1  0
 32 59  1  0
 32 60  1  0
 34 61  1  0
 35 62  1  0
 37 63  1  0
 38 64  1  0
 40 65  1  0
M  END
>  <meeko>  (5) 
{"is_sidechain": [false], "free_energy": -10.668, "intermolecular_energy": -15.541, "internal_energy": -0.504}

$$$$
LIB_FCRHJSNRFAAYQD__H_AF__e8__s20260927
     RDKit          3D

 65 70  0  0  0  0  0  0  0  0999 V2000
    3.7490  -12.1630   -1.9920 O   0  0  0  0  0  0  0  0  0  0  0  0
    2.9740  -12.3780   -2.9150 C   0  0  0  0  0  0  0  0  0  0  0  0
    1.5890  -12.4040   -2.8040 N   0  0  0  0  0  0  0  0  0  0  0  0
    0.8070  -12.1240   -1.6630 C   0  0  0  0  0  0  0  0  0  0  0  0
    0.6930  -10.8590   -1.0800 C   0  0  0  0  0  0  0  0  0  0  0  0
   -0.1020  -10.6690    0.0560 C   0  0  0  0  0  0  0  0  0  0  0  0
   -0.7980  -11.7380    0.6150 C   0  0  0  0  0  0  0  0  0  0  0  0
   -0.7110  -12.9960    0.0240 C   0  0  0  0  0  0  0  0  0  0  0  0
   -1.3970  -14.0210    0.6340 O   0  0  0  0  0  0  0  0  0  0  0  0
   -2.7280  -13.8120    0.9110 C   0  0  0  0  0  0  0  0  0  0  0  0
   -3.5930  -13.7000   -0.1780 C   0  0  0  0  0  0  0  0  0  0  0  0
   -4.9590  -13.5160    0.0350 C   0  0  0  0  0  0  0  0  0  0  0  0
   -5.4610  -13.4590    1.3360 C   0  0  0  0  0  0  0  0  0  0  0  0
   -4.5980  -13.5950    2.4250 C   0  0  0  0  0  0  0  0  0  0  0  0
   -3.2300  -13.7800    2.2150 C   0  0  0  0  0  0  0  0  0  0  0  0
    0.1030  -13.1950   -1.0970 C   0  0  0  0  0  0  0  0  0  0  0  0
    3.3540  -12.6230   -4.2280 N   0  0  0  0  0  0  0  0  0  0  0  0
    4.6630  -12.7940   -4.7270 C   0  0  0  0  0  0  0  0  0  0  0  0
    4.8280  -12.7490   -6.1160 C   0  0  0  0  0  0  0  0  0  0  0  0
    6.0890  -12.9150   -6.6880 C   0  0  0  0  0  0  0  0  0  0  0  0
    7.2000  -13.1260   -5.8710 C   0  0  0  0  0  0  0  0  0  0  0  0
    7.0660  -13.1740   -4.4770 C   0  0  0  0  0  0  0  0  0  0  0  0
    8.2650  -13.4150   -3.6330 C   0  0  0  0  0  0  0  0  0  0  0  0
    9.0880  -12.3900   -3.3240 C   0  0  0  0  0  0  0  0  0  0  0  0
   10.1960  -12.6530   -2.5490 N   0  0  0  0  0  0  0  0  0  0  0  0
   11.1980  -11.8540   -2.0720 C   0  0  0  0  0  0  0  0  0  0  0  0
   12.0210  -12.7010   -1.3580 C   0  0  0  0  0  0  0  0  0  0  0  0
   11.5540  -13.9930   -1.3870 N   0  0  0  0  0  0  0  0  0  0  0  0
   10.4560  -13.9210   -2.1120 C   0  0  0  0  0  0  0  0  0  0  0  0
    9.5500  -14.9940   -2.4770 C   0  0  0  0  0  0  0  0  0  0  0  0
    9.7890  -16.2780   -2.0520 N   0  0  0  0  0  0  0  0  0  0  0  0
    8.9360  -17.3960   -2.3420 C   0  0  0  0  0  0  0  0  0  0  0  0
    9.6900  -18.4040   -3.1690 C   0  0  0  0  0  0  0  0  0  0  0  0
   11.0270  -18.7030   -2.8890 C   0  0  0  0  0  0  0  0  0  0  0  0
   11.6850  -19.6200   -3.6950 C   0  0  0  0  0  0  0  0  0  0  0  0
   11.1120  -20.2430   -4.7470 N   0  0  0  0  0  0  0  0  0  0  0  0
    9.8270  -19.9290   -5.0100 C   0  0  0  0  0  0  0  0  0  0  0  0
    9.0840  -19.0270   -4.2650 C   0  0  0  0  0  0  0  0  0  0  0  0
    8.4990  -14.7230   -3.2180 N   0  0  0  0  0  0  0  0  0  0  0  0
    5.7830  -13.0220   -3.9200 C   0  0  0  0  0  0  0  0  0  0  0  0
    1.0800  -12.7060   -3.6180 H   0  0  0  0  0  0  0  0  0  0  0  0
    1.2324  -10.0059   -1.5175 H   0  0  0  0  0  0  0  0  0  0  0  0
   -0.1776   -9.6699    0.5099 H   0  0  0  0  0  0  0  0  0  0  0  0
   -1.4114  -11.5899    1.5160 H   0  0  0  0  0  0  0  0  0  0  0  0
   -3.1981  -13.7567   -1.2031 H   0  0  0  0  0  0  0  0  0  0  0  0
   -5.6407  -13.4158   -0.8224 H   0  0  0  0  0  0  0  0  0  0  0  0
   -6.5375  -13.3068    1.5035 H   0  0  0  0  0  0  0  0  0  0  0  0
   -4.9962  -13.5564    3.4497 H   0  0  0  0  0  0  0  0  0  0  0  0
   -2.5506  -13.9000    3.0718 H   0  0  0  0  0  0  0  0  0  0  0  0
    0.1907  -14.1994   -1.5368 H   0  0  0  0  0  0  0  0  0  0  0  0
    2.6210  -12.6060   -4.9180 H   0  0  0  0  0  0  0  0  0  0  0  0
    3.9544  -12.5810   -6.7630 H   0  0  0  0  0  0  0  0  0  0  0  0
    6.2074  -12.8796   -7.7810 H   0  0  0  0  0  0  0  0  0  0  0  0
    8.1928  -13.2562   -6.3265 H   0  0  0  0  0  0  0  0  0  0  0  0
    8.8790  -11.3711   -3.6820 H   0  0  0  0  0  0  0  0  0  0  0  0
   11.3212  -10.7716   -2.2243 H   0  0  0  0  0  0  0  0  0  0  0  0
   12.9337  -12.3827   -0.8330 H   0  0  0  0  0  0  0  0  0  0  0  0
   10.6140  -16.4230   -1.4780 H   0  0  0  0  0  0  0  0  0  0  0  0
    8.6120  -17.8635   -1.4005 H   0  0  0  0  0  0  0  0  0  0  0  0
    8.0553  -17.0486   -2.9021 H   0  0  0  0  0  0  0  0  0  0  0  0
   11.5459  -18.2211   -2.0473 H   0  0  0  0  0  0  0  0  0  0  0  0
   12.7348  -19.8534   -3.4638 H   0  0  0  0  0  0  0  0  0  0  0  0
    9.3398  -20.4178   -5.8666 H   0  0  0  0  0  0  0  0  0  0  0  0
    8.0396  -18.8056   -4.5300 H   0  0  0  0  0  0  0  0  0  0  0  0
    5.6580  -13.0836   -2.8289 H   0  0  0  0  0  0  0  0  0  0  0  0
  1  2  2  0
  2  3  1  0
  3  4  1  0
  4  5  2  0
  5  6  1  0
  6  7  2  0
  7  8  1  0
  8  9  1  0
  9 10  1  0
 10 11  2  0
 11 12  1  0
 12 13  2  0
 13 14  1  0
 14 15  2  0
  8 16  2  0
  2 17  1  0
 17 18  1  0
 18 19  2  0
 19 20  1  0
 20 21  2  0
 21 22  1  0
 22 23  1  0
 23 24  2  0
 24 25  1  0
 25 26  1  0
 26 27  2  0
 27 28  1  0
 28 29  2  0
 29 30  1  0
 30 31  1  0
 31 32  1  0
 32 33  1  0
 33 34  2  0
 34 35  1  0
 35 36  2  0
 36 37  1  0
 37 38  2  0
 30 39  2  0
 22 40  2  0
 16  4  1  0
 40 18  1  0
 15 10  1  0
 39 23  1  0
 29 25  1  0
 38 33  1  0
  3 41  1  0
  5 42  1  0
  6 43  1  0
  7 44  1  0
 11 45  1  0
 12 46  1  0
 13 47  1  0
 14 48  1  0
 15 49  1  0
 16 50  1  0
 17 51  1  0
 19 52  1  0
 20 53  1  0
 21 54  1  0
 24 55  1  0
 26 56  1  0
 27 57  1  0
 31 58  1  0
 32 59  1  0
 32 60  1  0
 34 61  1  0
 35 62  1  0
 37 63  1  0
 38 64  1  0
 40 65  1  0
M  END
>  <meeko>  (6) 
{"is_sidechain": [false], "free_energy": -10.098, "intermolecular_energy": -14.343, "internal_energy": -0.899}

$$$$
LIB_FCRHJSNRFAAYQD__H_AF__e8__s20260927
     RDKit          3D

 65 70  0  0  0  0  0  0  0  0999 V2000
    4.4630  -11.7740   -1.7760 O   0  0  0  0  0  0  0  0  0  0  0  0
    4.4580  -12.6840   -0.9580 C   0  0  0  0  0  0  0  0  0  0  0  0
    3.3330  -13.1450   -0.2860 N   0  0  0  0  0  0  0  0  0  0  0  0
    1.9950  -12.7300   -0.4520 C   0  0  0  0  0  0  0  0  0  0  0  0
    1.6120  -11.4320   -0.7980 C   0  0  0  0  0  0  0  0  0  0  0  0
    0.2590  -11.1020   -0.9380 C   0  0  0  0  0  0  0  0  0  0  0  0
   -0.7240  -12.0690   -0.7450 C   0  0  0  0  0  0  0  0  0  0  0  0
   -0.3500  -13.3720   -0.4270 C   0  0  0  0  0  0  0  0  0  0  0  0
   -1.3630  -14.2800   -0.2200 O   0  0  0  0  0  0  0  0  0  0  0  0
   -2.5260  -13.8090    0.3450 C   0  0  0  0  0  0  0  0  0  0  0  0
   -3.6800  -13.8650   -0.4380 C   0  0  0  0  0  0  0  0  0  0  0  0
   -4.8970  -13.4290    0.0870 C   0  0  0  0  0  0  0  0  0  0  0  0
   -4.9620  -12.9530    1.3970 C   0  0  0  0  0  0  0  0  0  0  0  0
   -3.8110  -12.9210    2.1870 C   0  0  0  0  0  0  0  0  0  0  0  0
   -2.5920  -13.3560    1.6650 C   0  0  0  0  0  0  0  0  0  0  0  0
    1.0000  -13.7000   -0.2610 C   0  0  0  0  0  0  0  0  0  0  0  0
    5.5770  -13.4100   -0.5740 N   0  0  0  0  0  0  0  0  0  0  0  0
    6.9210  -13.1760   -0.9370 C   0  0  0  0  0  0  0  0  0  0  0  0
    7.6270  -12.2220   -0.1940 C   0  0  0  0  0  0  0  0  0  0  0  0
    8.9570  -11.9300   -0.4940 C   0  0  0  0  0  0  0  0  0  0  0  0
    9.5950  -12.5930   -1.5410 C   0  0  0  0  0  0  0  0  0  0  0  0
    8.9160  -13.5560   -2.3000 C   0  0  0  0  0  0  0  0  0  0  0  0
    9.6170  -14.2360   -3.4190 C   0  0  0  0  0  0  0  0  0  0  0  0
   10.4570  -13.5360   -4.2120 C   0  0  0  0  0  0  0  0  0  0  0  0
   11.0810  -14.1980   -5.2470 N   0  0  0  0  0  0  0  0  0  0  0  0
   11.9670  -13.7850   -6.2040 C   0  0  0  0  0  0  0  0  0  0  0  0
   12.2260  -14.9100   -6.9600 C   0  0  0  0  0  0  0  0  0  0  0  0
   11.5220  -15.9960   -6.4970 N   0  0  0  0  0  0  0  0  0  0  0  0
   10.8470  -15.5250   -5.4680 C   0  0  0  0  0  0  0  0  0  0  0  0
    9.9280  -16.2360   -4.5980 C   0  0  0  0  0  0  0  0  0  0  0  0
    9.6750  -17.5700   -4.7980 N   0  0  0  0  0  0  0  0  0  0  0  0
    8.8020  -18.3580   -3.9740 C   0  0  0  0  0  0  0  0  0  0  0  0
    9.6010  -19.0150   -2.8780 C   0  0  0  0  0  0  0  0  0  0  0  0
   10.4360  -20.1010   -3.1540 C   0  0  0  0  0  0  0  0  0  0  0  0
   11.1300  -20.6870   -2.1060 C   0  0  0  0  0  0  0  0  0  0  0  0
   11.0440  -20.2740   -0.8240 N   0  0  0  0  0  0  0  0  0  0  0  0
   10.2210  -19.2350   -0.5760 C   0  0  0  0  0  0  0  0  0  0  0  0
    9.4850  -18.5820   -1.5530 C   0  0  0  0  0  0  0  0  0  0  0  0
    9.3420  -15.5870   -3.6160 N   0  0  0  0  0  0  0  0  0  0  0  0
    7.5690  -13.8240   -1.9940 C   0  0  0  0  0  0  0  0  0  0  0  0
    3.4920  -13.8220    0.4430 H   0  0  0  0  0  0  0  0  0  0  0  0
    2.3806  -10.6623   -0.9619 H   0  0  0  0  0  0  0  0  0  0  0  0
   -0.0291  -10.0737   -1.2018 H   0  0  0  0  0  0  0  0  0  0  0  0
   -1.7875  -11.8057   -0.8430 H   0  0  0  0  0  0  0  0  0  0  0  0
   -3.6302  -14.2519   -1.4665 H   0  0  0  0  0  0  0  0  0  0  0  0
   -5.8057  -13.4605   -0.5322 H   0  0  0  0  0  0  0  0  0  0  0  0
   -5.9205  -12.6028    1.8077 H   0  0  0  0  0  0  0  0  0  0  0  0
   -3.8652  -12.5525    3.2220 H   0  0  0  0  0  0  0  0  0  0  0  0
   -1.6870  -13.3423    2.2902 H   0  0  0  0  0  0  0  0  0  0  0  0
    1.2828  -14.7249    0.0210 H   0  0  0  0  0  0  0  0  0  0  0  0
    5.4090  -14.2430   -0.0320 H   0  0  0  0  0  0  0  0  0  0  0  0
    7.1276  -11.6979    0.6342 H   0  0  0  0  0  0  0  0  0  0  0  0
    9.5020  -11.1775    0.0948 H   0  0  0  0  0  0  0  0  0  0  0  0
   10.6439  -12.3576   -1.7744 H   0  0  0  0  0  0  0  0  0  0  0  0
   10.6382  -12.4654   -4.0362 H   0  0  0  0  0  0  0  0  0  0  0  0
   12.3825  -12.7758   -6.3411 H   0  0  0  0  0  0  0  0  0  0  0  0
   12.9083  -14.9345   -7.8225 H   0  0  0  0  0  0  0  0  0  0  0  0
   10.1620  -18.0170   -5.5690 H   0  0  0  0  0  0  0  0  0  0  0  0
    8.0337  -17.7089   -3.5286 H   0  0  0  0  0  0  0  0  0  0  0  0
    8.3182  -19.1316   -4.5884 H   0  0  0  0  0  0  0  0  0  0  0  0
   10.5406  -20.4828   -4.1803 H   0  0  0  0  0  0  0  0  0  0  0  0
   11.7890  -21.5380   -2.3329 H   0  0  0  0  0  0  0  0  0  0  0  0
   10.1280  -18.8848    0.4626 H   0  0  0  0  0  0  0  0  0  0  0  0
    8.8245  -17.7420   -1.2919 H   0  0  0  0  0  0  0  0  0  0  0  0
    7.0146  -14.5575   -2.5978 H   0  0  0  0  0  0  0  0  0  0  0  0
  1  2  2  0
  2  3  1  0
  3  4  1  0
  4  5  2  0
  5  6  1  0
  6  7  2  0
  7  8  1  0
  8  9  1  0
  9 10  1  0
 10 11  2  0
 11 12  1  0
 12 13  2  0
 13 14  1  0
 14 15  2  0
  8 16  2  0
  2 17  1  0
 17 18  1  0
 18 19  2  0
 19 20  1  0
 20 21  2  0
 21 22  1  0
 22 23  1  0
 23 24  2  0
 24 25  1  0
 25 26  1  0
 26 27  2  0
 27 28  1  0
 28 29  2  0
 29 30  1  0
 30 31  1  0
 31 32  1  0
 32 33  1  0
 33 34  2  0
 34 35  1  0
 35 36  2  0
 36 37  1  0
 37 38  2  0
 30 39  2  0
 22 40  2  0
 16  4  1  0
 40 18  1  0
 15 10  1  0
 39 23  1  0
 29 25  1  0
 38 33  1  0
  3 41  1  0
  5 42  1  0
  6 43  1  0
  7 44  1  0
 11 45  1  0
 12 46  1  0
 13 47  1  0
 14 48  1  0
 15 49  1  0
 16 50  1  0
 17 51  1  0
 19 52  1  0
 20 53  1  0
 21 54  1  0
 24 55  1  0
 26 56  1  0
 27 57  1  0
 31 58  1  0
 32 59  1  0
 32 60  1  0
 34 61  1  0
 35 62  1  0
 37 63  1  0
 38 64  1  0
 40 65  1  0
M  END
>  <meeko>  (7) 
{"is_sidechain": [false], "free_energy": -10.08, "intermolecular_energy": -14.271, "internal_energy": -0.945}

$$$$
LIB_FCRHJSNRFAAYQD__H_AF__e8__s20260927
     RDKit          3D

 65 70  0  0  0  0  0  0  0  0999 V2000
    7.1490  -12.0240   -3.8070 O   0  0  0  0  0  0  0  0  0  0  0  0
    6.9510  -12.5450   -4.8970 C   0  0  0  0  0  0  0  0  0  0  0  0
    7.9440  -12.9760   -5.7670 N   0  0  0  0  0  0  0  0  0  0  0  0
    9.3390  -12.9770   -5.5560 C   0  0  0  0  0  0  0  0  0  0  0  0
   10.0370  -11.9520   -4.9110 C   0  0  0  0  0  0  0  0  0  0  0  0
   11.4240  -12.0300   -4.7470 C   0  0  0  0  0  0  0  0  0  0  0  0
   12.1270  -13.1370   -5.2150 C   0  0  0  0  0  0  0  0  0  0  0  0
   11.4360  -14.1750   -5.8350 C   0  0  0  0  0  0  0  0  0  0  0  0
   12.1840  -15.2310   -6.3040 O   0  0  0  0  0  0  0  0  0  0  0  0
   12.3580  -15.3250   -7.6660 C   0  0  0  0  0  0  0  0  0  0  0  0
   12.6180  -14.1400   -8.3550 C   0  0  0  0  0  0  0  0  0  0  0  0
   12.8330  -14.1700   -9.7330 C   0  0  0  0  0  0  0  0  0  0  0  0
   12.8010  -15.3860  -10.4170 C   0  0  0  0  0  0  0  0  0  0  0  0
   12.5640  -16.5730   -9.7230 C   0  0  0  0  0  0  0  0  0  0  0  0
   12.3490  -16.5460   -8.3440 C   0  0  0  0  0  0  0  0  0  0  0  0
   10.0520  -14.0900   -6.0230 C   0  0  0  0  0  0  0  0  0  0  0  0
    5.6970  -12.7960   -5.4380 N   0  0  0  0  0  0  0  0  0  0  0  0
    4.4430  -12.4040   -4.9230 C   0  0  0  0  0  0  0  0  0  0  0  0
    3.7200  -11.4530   -5.6540 C   0  0  0  0  0  0  0  0  0  0  0  0
    2.4750  -11.0100   -5.2080 C   0  0  0  0  0  0  0  0  0  0  0  0
    1.9400  -11.5180   -4.0250 C   0  0  0  0  0  0  0  0  0  0  0  0
    2.6390  -12.4730   -3.2730 C   0  0  0  0  0  0  0  0  0  0  0  0
    2.0500  -12.9850   -2.0090 C   0  0  0  0  0  0  0  0  0  0  0  0
    0.7310  -13.2650   -1.9460 C   0  0  0  0  0  0  0  0  0  0  0  0
    0.2180  -13.7270   -0.7540 N   0  0  0  0  0  0  0  0  0  0  0  0
   -1.0440  -14.0940   -0.3730 C   0  0  0  0  0  0  0  0  0  0  0  0
   -0.9240  -14.4680    0.9500 C   0  0  0  0  0  0  0  0  0  0  0  0
    0.3720  -14.3360    1.3900 N   0  0  0  0  0  0  0  0  0  0  0  0
    1.0250  -13.8890    0.3360 C   0  0  0  0  0  0  0  0  0  0  0  0
    2.4350  -13.5650    0.2270 C   0  0  0  0  0  0  0  0  0  0  0  0
    3.2680  -13.7180    1.3080 N   0  0  0  0  0  0  0  0  0  0  0  0
    4.6780  -13.4470    1.2840 C   0  0  0  0  0  0  0  0  0  0  0  0
    5.3370  -14.2980    0.2300 C   0  0  0  0  0  0  0  0  0  0  0  0
    4.9600  -15.6320    0.0470 C   0  0  0  0  0  0  0  0  0  0  0  0
    5.6150  -16.3800   -0.9190 C   0  0  0  0  0  0  0  0  0  0  0  0
    6.6080  -15.9000   -1.6960 N   0  0  0  0  0  0  0  0  0  0  0  0
    6.9680  -14.6160   -1.4940 C   0  0  0  0  0  0  0  0  0  0  0  0
    6.3760  -13.7860   -0.5550 C   0  0  0  0  0  0  0  0  0  0  0  0
    2.9050  -13.1250   -0.9190 N   0  0  0  0  0  0  0  0  0  0  0  0
    3.9010  -12.8930   -3.7300 C   0  0  0  0  0  0  0  0  0  0  0  0
    7.6410  -13.2810   -6.6780 H   0  0  0  0  0  0  0  0  0  0  0  0
    9.4910  -11.0767   -4.5292 H   0  0  0  0  0  0  0  0  0  0  0  0
   11.9623  -11.2122   -4.2455 H   0  0  0  0  0  0  0  0  0  0  0  0
   13.2192  -13.1912   -5.0960 H   0  0  0  0  0  0  0  0  0  0  0  0
   12.6534  -13.1837   -7.8126 H   0  0  0  0  0  0  0  0  0  0  0  0
   13.0276  -13.2358  -10.2801 H   0  0  0  0  0  0  0  0  0  0  0  0
   12.9628  -15.4087  -11.5048 H   0  0  0  0  0  0  0  0  0  0  0  0
   12.5466  -17.5311  -10.2631 H   0  0  0  0  0  0  0  0  0  0  0  0
   12.1733  -17.4822   -7.7938 H   0  0  0  0  0  0  0  0  0  0  0  0
    9.5200  -14.9018   -6.5406 H   0  0  0  0  0  0  0  0  0  0  0  0
    5.6700  -13.3860   -6.2550 H   0  0  0  0  0  0  0  0  0  0  0  0
    4.1381  -11.0516   -6.5889 H   0  0  0  0  0  0  0  0  0  0  0  0
    1.9162  -10.2612   -5.7885 H   0  0  0  0  0  0  0  0  0  0  0  0
    0.9577  -11.1654   -3.6774 H   0  0  0  0  0  0  0  0  0  0  0  0
    0.0825  -13.1278   -2.8239 H   0  0  0  0  0  0  0  0  0  0  0  0
   -1.9561  -14.0915   -0.9878 H   0  0  0  0  0  0  0  0  0  0  0  0
   -1.7576  -14.8256    1.5723 H   0  0  0  0  0  0  0  0  0  0  0  0
    2.8470  -14.0680    2.1630 H   0  0  0  0  0  0  0  0  0  0  0  0
    4.8429  -12.3843    1.0526 H   0  0  0  0  0  0  0  0  0  0  0  0
    5.1123  -13.6808    2.2672 H   0  0  0  0  0  0  0  0  0  0  0  0
    4.1606  -16.0784    0.6566 H   0  0  0  0  0  0  0  0  0  0  0  0
    5.3070  -17.4265   -1.0603 H   0  0  0  0  0  0  0  0  0  0  0  0
    7.7796  -14.2030   -2.1111 H   0  0  0  0  0  0  0  0  0  0  0  0
    6.7156  -12.7473   -0.4296 H   0  0  0  0  0  0  0  0  0  0  0  0
    4.4737  -13.6212   -3.1369 H   0  0  0  0  0  0  0  0  0  0  0  0
  1  2  2  0
  2  3  1  0
  3  4  1  0
  4  5  2  0
  5  6  1  0
  6  7  2  0
  7  8  1  0
  8  9  1  0
  9 10  1  0
 10 11  2  0
 11 12  1  0
 12 13  2  0
 13 14  1  0
 14 15  2  0
  8 16  2  0
  2 17  1  0
 17 18  1  0
 18 19  2  0
 19 20  1  0
 20 21  2  0
 21 22  1  0
 22 23  1  0
 23 24  2  0
 24 25  1  0
 25 26  1  0
 26 27  2  0
 27 28  1  0
 28 29  2  0
 29 30  1  0
 30 31  1  0
 31 32  1  0
 32 33  1  0
 33 34  2  0
 34 35  1  0
 35 36  2  0
 36 37  1  0
 37 38  2  0
 30 39  2  0
 22 40  2  0
 16  4  1  0
 40 18  1  0
 15 10  1  0
 39 23  1  0
 29 25  1  0
 38 33  1  0
  3 41  1  0
  5 42  1  0
  6 43  1  0
  7 44  1  0
 11 45  1  0
 12 46  1  0
 13 47  1  0
 14 48  1  0
 15 49  1  0
 16 50  1  0
 17 51  1  0
 19 52  1  0
 20 53  1  0
 21 54  1  0
 24 55  1  0
 26 56  1  0
 27 57  1  0
 31 58  1  0
 32 59  1  0
 32 60  1  0
 34 61  1  0
 35 62  1  0
 37 63  1  0
 38 64  1  0
 40 65  1  0
M  END
>  <meeko>  (8) 
{"is_sidechain": [false], "free_energy": -9.77, "intermolecular_energy": -14.1, "internal_energy": -0.68}

$$$$
LIB_FCRHJSNRFAAYQD__H_AF__e8__s20260927
     RDKit          3D

 65 70  0  0  0  0  0  0  0  0999 V2000
    4.5730  -12.3360   -2.2650 O   0  0  0  0  0  0  0  0  0  0  0  0
    4.5990  -12.7790   -1.1240 C   0  0  0  0  0  0  0  0  0  0  0  0
    3.5230  -12.7870   -0.2470 N   0  0  0  0  0  0  0  0  0  0  0  0
    2.1980  -12.3710   -0.4990 C   0  0  0  0  0  0  0  0  0  0  0  0
    1.8390  -11.0720   -0.8700 C   0  0  0  0  0  0  0  0  0  0  0  0
    0.4980  -10.7420   -1.0970 C   0  0  0  0  0  0  0  0  0  0  0  0
   -0.4960  -11.7080   -0.9670 C   0  0  0  0  0  0  0  0  0  0  0  0
   -0.1440  -13.0110   -0.6240 C   0  0  0  0  0  0  0  0  0  0  0  0
   -1.1690  -13.9180   -0.4820 O   0  0  0  0  0  0  0  0  0  0  0  0
   -2.2740  -13.5140    0.2320 C   0  0  0  0  0  0  0  0  0  0  0  0
   -3.5180  -13.6770   -0.3770 C   0  0  0  0  0  0  0  0  0  0  0  0
   -4.6790  -13.3140    0.3050 C   0  0  0  0  0  0  0  0  0  0  0  0
   -4.5960  -12.8020    1.6010 C   0  0  0  0  0  0  0  0  0  0  0  0
   -3.3520  -12.6620    2.2190 C   0  0  0  0  0  0  0  0  0  0  0  0
   -2.1890  -13.0240    1.5380 C   0  0  0  0  0  0  0  0  0  0  0  0
    1.1930  -13.3390   -0.3720 C   0  0  0  0  0  0  0  0  0  0  0  0
    5.7110  -13.3550   -0.5240 N   0  0  0  0  0  0  0  0  0  0  0  0
    7.0240  -13.4310   -1.0370 C   0  0  0  0  0  0  0  0  0  0  0  0
    7.8900  -12.3730   -0.7350 C   0  0  0  0  0  0  0  0  0  0  0  0
    9.2010  -12.3710   -1.2100 C   0  0  0  0  0  0  0  0  0  0  0  0
    9.6600  -13.4320   -1.9900 C   0  0  0  0  0  0  0  0  0  0  0  0
    8.8170  -14.5060   -2.3050 C   0  0  0  0  0  0  0  0  0  0  0  0
    9.3280  -15.6160   -3.1500 C   0  0  0  0  0  0  0  0  0  0  0  0
    9.6260  -16.8070   -2.5890 C   0  0  0  0  0  0  0  0  0  0  0  0
   10.1090  -17.8100   -3.4020 N   0  0  0  0  0  0  0  0  0  0  0  0
   10.4920  -19.0980   -3.1490 C   0  0  0  0  0  0  0  0  0  0  0  0
   10.8850  -19.6010   -4.3720 C   0  0  0  0  0  0  0  0  0  0  0  0
   10.7570  -18.6580   -5.3650 N   0  0  0  0  0  0  0  0  0  0  0  0
   10.2870  -17.5970   -4.7400 C   0  0  0  0  0  0  0  0  0  0  0  0
    9.9640  -16.2970   -5.2990 C   0  0  0  0  0  0  0  0  0  0  0  0
   10.1360  -16.0570   -6.6390 N   0  0  0  0  0  0  0  0  0  0  0  0
    9.8190  -14.8130   -7.2830 C   0  0  0  0  0  0  0  0  0  0  0  0
   10.8350  -14.5300   -8.3590 C   0  0  0  0  0  0  0  0  0  0  0  0
   10.4330  -14.1050   -9.6290 C   0  0  0  0  0  0  0  0  0  0  0  0
   11.4050  -13.8820  -10.5920 C   0  0  0  0  0  0  0  0  0  0  0  0
   12.7260  -14.0570  -10.3820 N   0  0  0  0  0  0  0  0  0  0  0  0
   13.0930  -14.4830   -9.1550 C   0  0  0  0  0  0  0  0  0  0  0  0
   12.1990  -14.7340   -8.1250 C   0  0  0  0  0  0  0  0  0  0  0  0
    9.5060  -15.3540   -4.5070 N   0  0  0  0  0  0  0  0  0  0  0  0
    7.4920  -14.4810   -1.8330 C   0  0  0  0  0  0  0  0  0  0  0  0
    3.7160  -13.0770    0.6980 H   0  0  0  0  0  0  0  0  0  0  0  0
    2.6169  -10.3028   -0.9845 H   0  0  0  0  0  0  0  0  0  0  0  0
    0.2280   -9.7138   -1.3797 H   0  0  0  0  0  0  0  0  0  0  0  0
   -1.5508  -11.4442   -1.1338 H   0  0  0  0  0  0  0  0  0  0  0  0
   -3.5833  -14.0913   -1.3939 H   0  0  0  0  0  0  0  0  0  0  0  0
   -5.6602  -13.4311   -0.1783 H   0  0  0  0  0  0  0  0  0  0  0  0
   -5.5114  -12.5086    2.1357 H   0  0  0  0  0  0  0  0  0  0  0  0
   -3.2885  -12.2661    3.2433 H   0  0  0  0  0  0  0  0  0  0  0  0
   -1.2089  -12.9240    2.0274 H   0  0  0  0  0  0  0  0  0  0  0  0
    1.4567  -14.3640   -0.0721 H   0  0  0  0  0  0  0  0  0  0  0  0
    5.5520  -13.8370    0.3470 H   0  0  0  0  0  0  0  0  0  0  0  0
    7.5329  -11.5357   -0.1174 H   0  0  0  0  0  0  0  0  0  0  0  0
    9.8724  -11.5335   -0.9697 H   0  0  0  0  0  0  0  0  0  0  0  0
   10.6952  -13.4257   -2.3620 H   0  0  0  0  0  0  0  0  0  0  0  0
    9.4870  -16.9730   -1.5105 H   0  0  0  0  0  0  0  0  0  0  0  0
   10.4877  -19.6198   -2.1806 H   0  0  0  0  0  0  0  0  0  0  0  0
   11.2535  -20.6250   -4.5324 H   0  0  0  0  0  0  0  0  0  0  0  0
   10.4870  -16.8270   -7.2010 H   0  0  0  0  0  0  0  0  0  0  0  0
    8.8173  -14.8780   -7.7328 H   0  0  0  0  0  0  0  0  0  0  0  0
    9.8362  -14.0015   -6.5406 H   0  0  0  0  0  0  0  0  0  0  0  0
    9.3684  -13.9509   -9.8590 H   0  0  0  0  0  0  0  0  0  0  0  0
   11.0798  -13.5422  -11.5864 H   0  0  0  0  0  0  0  0  0  0  0  0
   14.1642  -14.6403   -8.9606 H   0  0  0  0  0  0  0  0  0  0  0  0
   12.5547  -15.0858   -7.1454 H   0  0  0  0  0  0  0  0  0  0  0  0
    6.8106  -15.3038   -2.0953 H   0  0  0  0  0  0  0  0  0  0  0  0
  1  2  2  0
  2  3  1  0
  3  4  1  0
  4  5  2  0
  5  6  1  0
  6  7  2  0
  7  8  1  0
  8  9  1  0
  9 10  1  0
 10 11  2  0
 11 12  1  0
 12 13  2  0
 13 14  1  0
 14 15  2  0
  8 16  2  0
  2 17  1  0
 17 18  1  0
 18 19  2  0
 19 20  1  0
 20 21  2  0
 21 22  1  0
 22 23  1  0
 23 24  2  0
 24 25  1  0
 25 26  1  0
 26 27  2  0
 27 28  1  0
 28 29  2  0
 29 30  1  0
 30 31  1  0
 31 32  1  0
 32 33  1  0
 33 34  2  0
 34 35  1  0
 35 36  2  0
 36 37  1  0
 37 38  2  0
 30 39  2  0
 22 40  2  0
 16  4  1  0
 40 18  1  0
 15 10  1  0
 39 23  1  0
 29 25  1  0
 38 33  1  0
  3 41  1  0
  5 42  1  0
  6 43  1  0
  7 44  1  0
 11 45  1  0
 12 46  1  0
 13 47  1  0
 14 48  1  0
 15 49  1  0
 16 50  1  0
 17 51  1  0
 19 52  1  0
 20 53  1  0
 21 54  1  0
 24 55  1  0
 26 56  1  0
 27 57  1  0
 31 58  1  0
 32 59  1  0
 32 60  1  0
 34 61  1  0
 35 62  1  0
 37 63  1  0
 38 64  1  0
 40 65  1  0
M  END
>  <meeko>  (9) 
{"is_sidechain": [false], "free_energy": -9.659, "intermolecular_energy": -13.547, "internal_energy": -1.076}

$$$$
