LIB_LVPFKJJHXQHRCM__M_PUB_ALL__e8__s20260927
     RDKit          3D

 74 78  0  0  0  0  0  0  0  0999 V2000
    4.0640  -11.2570   -5.8510 C   0  0  0  0  0  0  0  0  0  0  0  0
    4.7070  -12.6270   -5.8460 C   0  0  0  0  0  0  0  0  0  0  0  0
    5.4360  -12.9400   -6.8790 N   0  0  0  0  0  0  0  0  0  0  0  0
    6.0190  -14.1750   -6.8760 C   0  0  0  0  0  0  0  0  0  0  0  0
    6.8360  -14.8180   -7.7900 C   0  0  0  0  0  0  0  0  0  0  0  0
    7.2800  -14.2710   -9.0620 C   0  0  0  0  0  0  0  0  0  0  0  0
    6.3620  -13.8640  -10.0320 C   0  0  0  0  0  0  0  0  0  0  0  0
    6.8100  -13.3300  -11.2370 C   0  0  0  0  0  0  0  0  0  0  0  0
    8.1800  -13.2060  -11.4800 C   0  0  0  0  0  0  0  0  0  0  0  0
    9.1360  -13.6140  -10.5380 C   0  0  0  0  0  0  0  0  0  0  0  0
   10.5000  -13.4900  -10.8150 N   0  0  0  0  0  0  0  0  0  0  0  0
   10.9330  -13.2430  -12.1990 C   0  0  0  0  0  0  0  0  0  0  0  0
   12.4130  -13.6270  -12.3930 C   0  0  0  0  0  0  0  0  0  0  0  0
   13.2870  -12.9390  -11.3490 N   0  0  0  0  0  0  0  0  0  0  0  0
   14.7430  -13.2170  -11.5580 C   0  0  0  0  0  0  0  0  0  0  0  0
   12.8250  -13.3160   -9.9450 C   0  0  0  0  0  0  0  0  0  0  0  0
   11.3440  -12.9410   -9.7380 C   0  0  0  0  0  0  0  0  0  0  0  0
    8.6560  -14.1340   -9.3230 C   0  0  0  0  0  0  0  0  0  0  0  0
    7.0910  -16.0770   -7.2130 C   0  0  0  0  0  0  0  0  0  0  0  0
    6.4940  -16.2520   -6.0370 N   0  0  0  0  0  0  0  0  0  0  0  0
    5.8350  -15.0710   -5.8170 N   0  0  0  0  0  0  0  0  0  0  0  0
    5.0410  -14.7410   -4.6890 C   0  0  0  0  0  0  0  0  0  0  0  0
    4.9300  -15.7060   -3.7070 N   0  0  0  0  0  0  0  0  0  0  0  0
    4.4540  -13.5230   -4.6540 C   0  0  0  0  0  0  0  0  0  0  0  0
    3.6130  -13.0950   -3.5270 C   0  0  0  0  0  0  0  0  0  0  0  0
    4.1770  -12.4260   -2.4370 C   0  0  0  0  0  0  0  0  0  0  0  0
    3.3730  -12.0270   -1.3640 C   0  0  0  0  0  0  0  0  0  0  0  0
    1.9990  -12.2940   -1.3630 C   0  0  0  0  0  0  0  0  0  0  0  0
    1.2600  -11.8620   -0.2510 N   0  0  0  0  0  0  0  0  0  0  0  0
    0.5750  -10.6910   -0.0870 C   0  0  0  0  0  0  0  0  0  0  0  0
    0.4620   -9.7670   -0.8780 O   0  0  0  0  0  0  0  0  0  0  0  0
    0.0110  -10.7070    1.1500 O   0  0  0  0  0  0  0  0  0  0  0  0
   -1.2060  -11.4610    1.2400 C   0  0  0  0  0  0  0  0  0  0  0  0
   -2.4060  -10.5100    1.3550 C   0  0  0  0  0  0  0  0  0  0  0  0
   -1.9970   -9.1710    1.9700 C   0  0  0  0  0  0  0  0  0  0  0  0
   -3.0670  -10.2820   -0.0050 C   0  0  0  0  0  0  0  0  0  0  0  0
    1.4410  -12.9690   -2.4510 C   0  0  0  0  0  0  0  0  0  0  0  0
    2.2420  -13.3690   -3.5260 C   0  0  0  0  0  0  0  0  0  0  0  0
    3.9068  -10.9220   -4.8151 H   0  0  0  0  0  0  0  0  0  0  0  0
    4.7220  -10.5450   -6.3708 H   0  0  0  0  0  0  0  0  0  0  0  0
    3.0959  -11.3082   -6.3708 H   0  0  0  0  0  0  0  0  0  0  0  0
    5.2830  -13.9655   -9.8438 H   0  0  0  0  0  0  0  0  0  0  0  0
    6.0850  -13.0056  -11.9980 H   0  0  0  0  0  0  0  0  0  0  0  0
    8.5180  -12.7772  -12.4349 H   0  0  0  0  0  0  0  0  0  0  0  0
   10.3135  -13.8428  -12.8819 H   0  0  0  0  0  0  0  0  0  0  0  0
   10.8185  -12.1706  -12.4153 H   0  0  0  0  0  0  0  0  0  0  0  0
   12.5199  -14.7172  -12.2924 H   0  0  0  0  0  0  0  0  0  0  0  0
   12.7351  -13.3040  -13.3940 H   0  0  0  0  0  0  0  0  0  0  0  0
   13.1420  -11.9260  -11.4520 H   0  0  0  0  0  0  0  0  0  0  0  0
   15.2419  -13.3122  -10.5823 H   0  0  0  0  0  0  0  0  0  0  0  0
   14.8601  -14.1537  -12.1227 H   0  0  0  0  0  0  0  0  0  0  0  0
   15.1970  -12.3893  -12.1227 H   0  0  0  0  0  0  0  0  0  0  0  0
   12.9457  -14.4003   -9.8044 H   0  0  0  0  0  0  0  0  0  0  0  0
   13.4342  -12.7654   -9.2131 H   0  0  0  0  0  0  0  0  0  0  0  0
   11.0029  -13.3450   -8.7734 H   0  0  0  0  0  0  0  0  0  0  0  0
   11.2569  -11.8445   -9.7515 H   0  0  0  0  0  0  0  0  0  0  0  0
    9.3781  -14.4432   -8.5530 H   0  0  0  0  0  0  0  0  0  0  0  0
    7.7227  -16.8417   -7.6886 H   0  0  0  0  0  0  0  0  0  0  0  0
    5.1670  -15.4370   -2.7530 H   0  0  0  0  0  0  0  0  0  0  0  0
    4.6380  -16.6500   -3.9230 H   0  0  0  0  0  0  0  0  0  0  0  0
    5.2560  -12.2127   -2.4229 H   0  0  0  0  0  0  0  0  0  0  0  0
    3.8253  -11.4979   -0.5122 H   0  0  0  0  0  0  0  0  0  0  0  0
    1.2030  -12.4700    0.5550 H   0  0  0  0  0  0  0  0  0  0  0  0
   -1.3178  -12.0811    0.3384 H   0  0  0  0  0  0  0  0  0  0  0  0
   -1.1676  -12.1032    2.1322 H   0  0  0  0  0  0  0  0  0  0  0  0
   -3.1373  -10.9907    2.0215 H   0  0  0  0  0  0  0  0  0  0  0  0
   -2.0208   -9.2488    3.0670 H   0  0  0  0  0  0  0  0  0  0  0  0
   -0.9790   -8.9129    1.6427 H   0  0  0  0  0  0  0  0  0  0  0  0
   -2.6970   -8.3881    1.6427 H   0  0  0  0  0  0  0  0  0  0  0  0
   -4.0974   -9.9266    0.1431 H   0  0  0  0  0  0  0  0  0  0  0  0
   -2.4967   -9.5287   -0.5682 H   0  0  0  0  0  0  0  0  0  0  0  0
   -3.0824  -11.2268   -0.5682 H   0  0  0  0  0  0  0  0  0  0  0  0
    0.3631  -13.1879   -2.4627 H   0  0  0  0  0  0  0  0  0  0  0  0
    1.7904  -13.9023   -4.3755 H   0  0  0  0  0  0  0  0  0  0  0  0
  1  2  1  0
  2  3  2  0
  3  4  1  0
  4  5  2  0
  5  6  1  0
  6  7  2  0
  7  8  1  0
  8  9  2  0
  9 10  1  0
 10 11  1  0
 11 12  1  0
 12 13  1  0
 13 14  1  0
 14 15  1  0
 14 16  1  0
 16 17  1  0
 10 18  2  0
  5 19  1  0
 19 20  2  0
 20 21  1  0
 21 22  1  0
 22 23  1  0
 22 24  2  0
 24 25  1  0
 25 26  2  0
 26 27  1  0
 27 28  2  0
 28 29  1  0
 29 30  1  0
 30 31  2  0
 30 32  1  0
 32 33  1  0
 33 34  1  0
 34 35  1  0
 34 36  1  0
 28 37  1  0
 37 38  2  0
 24  2  1  0
 38 25  1  0
 21  4  1  0
 18  6  1  0
 17 11  1  0
  1 39  1  0
  1 40  1  0
  1 41  1  0
  7 42  1  0
  8 43  1  0
  9 44  1  0
 12 45  1  0
 12 46  1  0
 13 47  1  0
 13 48  1  0
 14 49  1  0
 15 50  1  0
 15 51  1  0
 15 52  1  0
 16 53  1  0
 16 54  1  0
 17 55  1  0
 17 56  1  0
 18 57  1  0
 19 58  1  0
 23 59  1  0
 23 60  1  0
 26 61  1  0
 27 62  1  0
 29 63  1  0
 33 64  1  0
 33 65  1  0
 34 66  1  0
 35 67  1  0
 35 68  1  0
 35 69  1  0
 36 70  1  0
 36 71  1  0
 36 72  1  0
 37 73  1  0
 38 74  1  0
M  CHG  1  14   1
M  END
>  <meeko>  (1) 
{"is_sidechain": [false], "free_energy": -8.217, "intermolecular_energy": -11.82, "internal_energy": -1.159}

$$$$
LIB_LVPFKJJHXQHRCM__M_PUB_ALL__e8__s20260927
     RDKit          3D

 74 78  0  0  0  0  0  0  0  0999 V2000
    4.0600  -12.1600   -1.6430 C   0  0  0  0  0  0  0  0  0  0  0  0
    2.8120  -12.9850   -1.8730 C   0  0  0  0  0  0  0  0  0  0  0  0
    2.0470  -13.1960   -0.8400 N   0  0  0  0  0  0  0  0  0  0  0  0
    0.9180  -13.9390   -1.0450 C   0  0  0  0  0  0  0  0  0  0  0  0
   -0.0920  -14.3460   -0.1910 C   0  0  0  0  0  0  0  0  0  0  0  0
   -0.1710  -14.0510    1.2300 C   0  0  0  0  0  0  0  0  0  0  0  0
   -0.6570  -12.8240    1.6860 C   0  0  0  0  0  0  0  0  0  0  0  0
   -0.7370  -12.5690    3.0520 C   0  0  0  0  0  0  0  0  0  0  0  0
   -0.3240  -13.5380    3.9690 C   0  0  0  0  0  0  0  0  0  0  0  0
    0.1820  -14.7780    3.5540 C   0  0  0  0  0  0  0  0  0  0  0  0
    0.6000  -15.7230    4.4960 N   0  0  0  0  0  0  0  0  0  0  0  0
    1.4840  -16.8190    4.0720 C   0  0  0  0  0  0  0  0  0  0  0  0
    1.4300  -17.9920    5.0710 C   0  0  0  0  0  0  0  0  0  0  0  0
    1.7050  -17.5010    6.4890 N   0  0  0  0  0  0  0  0  0  0  0  0
    1.7480  -18.6250    7.4770 C   0  0  0  0  0  0  0  0  0  0  0  0
    0.6920  -16.4300    6.8800 C   0  0  0  0  0  0  0  0  0  0  0  0
    0.7320  -15.2510    5.8870 C   0  0  0  0  0  0  0  0  0  0  0  0
    0.2360  -15.0160    2.1690 C   0  0  0  0  0  0  0  0  0  0  0  0
   -0.9620  -15.0970   -1.0050 C   0  0  0  0  0  0  0  0  0  0  0  0
   -0.5600  -15.1850   -2.2700 N   0  0  0  0  0  0  0  0  0  0  0  0
    0.6020  -14.4600   -2.3050 N   0  0  0  0  0  0  0  0  0  0  0  0
    1.4300  -14.2370   -3.4350 C   0  0  0  0  0  0  0  0  0  0  0  0
    1.0160  -14.8030   -4.6250 N   0  0  0  0  0  0  0  0  0  0  0  0
    2.5520  -13.5000   -3.2710 C   0  0  0  0  0  0  0  0  0  0  0  0
    3.4690  -13.2190   -4.3840 C   0  0  0  0  0  0  0  0  0  0  0  0
    3.3460  -12.0400   -5.1230 C   0  0  0  0  0  0  0  0  0  0  0  0
    4.2180  -11.7820   -6.1870 C   0  0  0  0  0  0  0  0  0  0  0  0
    5.2200  -12.6980   -6.5270 C   0  0  0  0  0  0  0  0  0  0  0  0
    6.0550  -12.3670   -7.6060 N   0  0  0  0  0  0  0  0  0  0  0  0
    6.7000  -13.2050   -8.4710 C   0  0  0  0  0  0  0  0  0  0  0  0
    6.6870  -14.4260   -8.4880 O   0  0  0  0  0  0  0  0  0  0  0  0
    7.3940  -12.4380   -9.3540 O   0  0  0  0  0  0  0  0  0  0  0  0
    7.0080  -12.6090  -10.7240 C   0  0  0  0  0  0  0  0  0  0  0  0
    8.2550  -12.6880  -11.6170 C   0  0  0  0  0  0  0  0  0  0  0  0
    8.9470  -11.3290  -11.7250 C   0  0  0  0  0  0  0  0  0  0  0  0
    9.2410  -13.7380  -11.1020 C   0  0  0  0  0  0  0  0  0  0  0  0
    5.3340  -13.8790   -5.7910 C   0  0  0  0  0  0  0  0  0  0  0  0
    4.4640  -14.1400   -4.7270 C   0  0  0  0  0  0  0  0  0  0  0  0
    4.2309  -12.0471   -0.5622 H   0  0  0  0  0  0  0  0  0  0  0  0
    4.9233  -12.6659   -2.0998 H   0  0  0  0  0  0  0  0  0  0  0  0
    3.9328  -11.1675   -2.0998 H   0  0  0  0  0  0  0  0  0  0  0  0
   -0.9771  -12.0578    0.9646 H   0  0  0  0  0  0  0  0  0  0  0  0
   -1.1256  -11.6040    3.4094 H   0  0  0  0  0  0  0  0  0  0  0  0
   -0.3976  -13.3227    5.0452 H   0  0  0  0  0  0  0  0  0  0  0  0
    1.1650  -17.1754    3.0815 H   0  0  0  0  0  0  0  0  0  0  0  0
    2.5161  -16.4406    4.0321 H   0  0  0  0  0  0  0  0  0  0  0  0
    0.4316  -18.4523    5.0348 H   0  0  0  0  0  0  0  0  0  0  0  0
    2.1984  -18.7292    4.7951 H   0  0  0  0  0  0  0  0  0  0  0  0
    2.6300  -17.0530    6.4810 H   0  0  0  0  0  0  0  0  0  0  0  0
    1.7324  -18.2164    8.4982 H   0  0  0  0  0  0  0  0  0  0  0  0
    0.8741  -19.2766    7.3294 H   0  0  0  0  0  0  0  0  0  0  0  0
    2.6691  -19.2079    7.3294 H   0  0  0  0  0  0  0  0  0  0  0  0
   -0.3165  -16.8693    6.8780 H   0  0  0  0  0  0  0  0  0  0  0  0
    0.9440  -16.0553    7.8831 H   0  0  0  0  0  0  0  0  0  0  0  0
   -0.0960  -14.5629    6.1129 H   0  0  0  0  0  0  0  0  0  0  0  0
    1.7000  -14.7391    5.9916 H   0  0  0  0  0  0  0  0  0  0  0  0
    0.6079  -15.9866    1.8090 H   0  0  0  0  0  0  0  0  0  0  0  0
   -1.8844  -15.5653   -0.6310 H   0  0  0  0  0  0  0  0  0  0  0  0
    1.5300  -15.6150   -4.9640 H   0  0  0  0  0  0  0  0  0  0  0  0
    0.2400  -14.4220   -5.1510 H   0  0  0  0  0  0  0  0  0  0  0  0
    2.5616  -11.3122   -4.8680 H   0  0  0  0  0  0  0  0  0  0  0  0
    4.1147  -10.8498   -6.7618 H   0  0  0  0  0  0  0  0  0  0  0  0
    6.2260  -11.3900   -7.7990 H   0  0  0  0  0  0  0  0  0  0  0  0
    6.4282  -13.5383  -10.8255 H   0  0  0  0  0  0  0  0  0  0  0  0
    6.3954  -11.7501  -11.0357 H   0  0  0  0  0  0  0  0  0  0  0  0
    7.9174  -12.9885  -12.6199 H   0  0  0  0  0  0  0  0  0  0  0  0
    9.1462  -10.9378  -10.7164 H   0  0  0  0  0  0  0  0  0  0  0  0
    9.8967  -11.4433  -12.2682 H   0  0  0  0  0  0  0  0  0  0  0  0
    8.2960  -10.6282  -12.2682 H   0  0  0  0  0  0  0  0  0  0  0  0
    9.2383  -13.7352  -10.0020 H   0  0  0  0  0  0  0  0  0  0  0  0
    8.9421  -14.7318  -11.4668 H   0  0  0  0  0  0  0  0  0  0  0  0
   10.2516  -13.5021  -11.4668 H   0  0  0  0  0  0  0  0  0  0  0  0
    6.1141  -14.6100   -6.0498 H   0  0  0  0  0  0  0  0  0  0  0  0
    4.5631  -15.0754   -4.1567 H   0  0  0  0  0  0  0  0  0  0  0  0
  1  2  1  0
  2  3  2  0
  3  4  1  0
  4  5  2  0
  5  6  1  0
  6  7  2  0
  7  8  1  0
  8  9  2  0
  9 10  1  0
 10 11  1  0
 11 12  1  0
 12 13  1  0
 13 14  1  0
 14 15  1  0
 14 16  1  0
 16 17  1  0
 10 18  2  0
  5 19  1  0
 19 20  2  0
 20 21  1  0
 21 22  1  0
 22 23  1  0
 22 24  2  0
 24 25  1  0
 25 26  2  0
 26 27  1  0
 27 28  2  0
 28 29  1  0
 29 30  1  0
 30 31  2  0
 30 32  1  0
 32 33  1  0
 33 34  1  0
 34 35  1  0
 34 36  1  0
 28 37  1  0
 37 38  2  0
 24  2  1  0
 38 25  1  0
 21  4  1  0
 18  6  1  0
 17 11  1  0
  1 39  1  0
  1 40  1  0
  1 41  1  0
  7 42  1  0
  8 43  1  0
  9 44  1  0
 12 45  1  0
 12 46  1  0
 13 47  1  0
 13 48  1  0
 14 49  1  0
 15 50  1  0
 15 51  1  0
 15 52  1  0
 16 53  1  0
 16 54  1  0
 17 55  1  0
 17 56  1  0
 18 57  1  0
 19 58  1  0
 23 59  1  0
 23 60  1  0
 26 61  1  0
 27 62  1  0
 29 63  1  0
 33 64  1  0
 33 65  1  0
 34 66  1  0
 35 67  1  0
 35 68  1  0
 35 69  1  0
 36 70  1  0
 36 71  1  0
 36 72  1  0
 37 73  1  0
 38 74  1  0
M  CHG  1  14   1
M  END
>  <meeko>  (2) 
{"is_sidechain": [false], "free_energy": -8.0, "intermolecular_energy": -11.758, "internal_energy": -0.908}

$$$$
LIB_LVPFKJJHXQHRCM__M_PUB_ALL__e8__s20260927
     RDKit          3D

 74 78  0  0  0  0  0  0  0  0999 V2000
    1.9420  -13.6130   -4.8790 C   0  0  0  0  0  0  0  0  0  0  0  0
    2.7020  -13.2240   -3.6290 C   0  0  0  0  0  0  0  0  0  0  0  0
    1.9980  -13.0060   -2.5550 N   0  0  0  0  0  0  0  0  0  0  0  0
    2.6820  -12.6550   -1.4250 C   0  0  0  0  0  0  0  0  0  0  0  0
    2.2620  -12.3570   -0.1410 C   0  0  0  0  0  0  0  0  0  0  0  0
    0.8820  -12.3450    0.3180 C   0  0  0  0  0  0  0  0  0  0  0  0
    0.1150  -11.1800    0.2660 C   0  0  0  0  0  0  0  0  0  0  0  0
   -1.2090  -11.1950    0.6980 C   0  0  0  0  0  0  0  0  0  0  0  0
   -1.7690  -12.3750    1.1910 C   0  0  0  0  0  0  0  0  0  0  0  0
   -1.0300  -13.5650    1.2720 C   0  0  0  0  0  0  0  0  0  0  0  0
   -1.6150  -14.7270    1.7830 N   0  0  0  0  0  0  0  0  0  0  0  0
   -2.9580  -14.6550    2.3770 C   0  0  0  0  0  0  0  0  0  0  0  0
   -3.2190  -15.8600    3.3020 C   0  0  0  0  0  0  0  0  0  0  0  0
   -2.9470  -17.1690    2.5680 N   0  0  0  0  0  0  0  0  0  0  0  0
   -3.2740  -18.3660    3.4060 C   0  0  0  0  0  0  0  0  0  0  0  0
   -1.5090  -17.1980    2.0600 C   0  0  0  0  0  0  0  0  0  0  0  0
   -1.2320  -15.9960    1.1350 C   0  0  0  0  0  0  0  0  0  0  0  0
    0.2980  -13.5260    0.8130 C   0  0  0  0  0  0  0  0  0  0  0  0
    3.4460  -12.0630    0.5610 C   0  0  0  0  0  0  0  0  0  0  0  0
    4.5420  -12.1490   -0.1900 N   0  0  0  0  0  0  0  0  0  0  0  0
    4.0760  -12.5260   -1.4220 N   0  0  0  0  0  0  0  0  0  0  0  0
    4.8500  -12.7590   -2.5870 C   0  0  0  0  0  0  0  0  0  0  0  0
    6.2170  -12.5990   -2.4620 N   0  0  0  0  0  0  0  0  0  0  0  0
    4.2080  -13.1150   -3.7220 C   0  0  0  0  0  0  0  0  0  0  0  0
    4.9280  -13.3760   -4.9760 C   0  0  0  0  0  0  0  0  0  0  0  0
    4.9190  -12.4320   -6.0070 C   0  0  0  0  0  0  0  0  0  0  0  0
    5.6000  -12.6890   -7.2020 C   0  0  0  0  0  0  0  0  0  0  0  0
    6.2940  -13.8910   -7.3850 C   0  0  0  0  0  0  0  0  0  0  0  0
    6.9520  -14.0740   -8.6110 N   0  0  0  0  0  0  0  0  0  0  0  0
    7.2870  -15.2450   -9.2300 C   0  0  0  0  0  0  0  0  0  0  0  0
    7.0830  -16.3860   -8.8450 O   0  0  0  0  0  0  0  0  0  0  0  0
    7.9120  -14.9350  -10.3970 O   0  0  0  0  0  0  0  0  0  0  0  0
    7.2100  -13.9900  -11.2160 C   0  0  0  0  0  0  0  0  0  0  0  0
    8.1800  -12.9180  -11.7320 C   0  0  0  0  0  0  0  0  0  0  0  0
    7.9300  -11.5690  -11.0550 C   0  0  0  0  0  0  0  0  0  0  0  0
    9.6360  -13.3420  -11.5310 C   0  0  0  0  0  0  0  0  0  0  0  0
    6.2930  -14.8340   -6.3550 C   0  0  0  0  0  0  0  0  0  0  0  0
    5.6140  -14.5810   -5.1590 C   0  0  0  0  0  0  0  0  0  0  0  0
    0.9956  -14.0974   -4.5968 H   0  0  0  0  0  0  0  0  0  0  0  0
    1.7299  -12.7126   -5.4742 H   0  0  0  0  0  0  0  0  0  0  0  0
    2.5483  -14.3116   -5.4742 H   0  0  0  0  0  0  0  0  0  0  0  0
    0.5570  -10.2483   -0.1169 H   0  0  0  0  0  0  0  0  0  0  0  0
   -1.8134  -10.2771    0.6507 H   0  0  0  0  0  0  0  0  0  0  0  0
   -2.8172  -12.3717    1.5247 H   0  0  0  0  0  0  0  0  0  0  0  0
   -3.0431  -13.7274    2.9621 H   0  0  0  0  0  0  0  0  0  0  0  0
   -3.7008  -14.6689    1.5658 H   0  0  0  0  0  0  0  0  0  0  0  0
   -2.5577  -15.7928    4.1785 H   0  0  0  0  0  0  0  0  0  0  0  0
   -4.2725  -15.8429    3.6180 H   0  0  0  0  0  0  0  0  0  0  0  0
   -3.5590  -17.1860    1.7410 H   0  0  0  0  0  0  0  0  0  0  0  0
   -3.2011  -18.0992    4.4707 H   0  0  0  0  0  0  0  0  0  0  0  0
   -4.2970  -18.7024    3.1815 H   0  0  0  0  0  0  0  0  0  0  0  0
   -2.5642  -19.1758    3.1815 H   0  0  0  0  0  0  0  0  0  0  0  0
   -0.8222  -17.1586    2.9184 H   0  0  0  0  0  0  0  0  0  0  0  0
   -1.3548  -18.1256    1.4893 H   0  0  0  0  0  0  0  0  0  0  0  0
   -0.1589  -15.9672    0.8951 H   0  0  0  0  0  0  0  0  0  0  0  0
   -1.8300  -16.1149    0.2195 H   0  0  0  0  0  0  0  0  0  0  0  0
    0.8992  -14.4467    0.8416 H   0  0  0  0  0  0  0  0  0  0  0  0
    3.4640  -11.7889    1.6262 H   0  0  0  0  0  0  0  0  0  0  0  0
    6.6380  -12.8290   -1.5630 H   0  0  0  0  0  0  0  0  0  0  0  0
    6.7820  -12.2540   -3.2280 H   0  0  0  0  0  0  0  0  0  0  0  0
    4.3751  -11.4846   -5.8785 H   0  0  0  0  0  0  0  0  0  0  0  0
    5.5900  -11.9386   -8.0062 H   0  0  0  0  0  0  0  0  0  0  0  0
    7.2310  -13.2550   -9.1330 H   0  0  0  0  0  0  0  0  0  0  0  0
    6.7583  -14.5142  -12.0711 H   0  0  0  0  0  0  0  0  0  0  0  0
    6.4244  -13.5069  -10.6165 H   0  0  0  0  0  0  0  0  0  0  0  0
    7.9946  -12.8069  -12.8105 H   0  0  0  0  0  0  0  0  0  0  0  0
    7.9537  -11.6969   -9.9627 H   0  0  0  0  0  0  0  0  0  0  0  0
    8.7114  -10.8564  -11.3578 H   0  0  0  0  0  0  0  0  0  0  0  0
    6.9452  -11.1837  -11.3578 H   0  0  0  0  0  0  0  0  0  0  0  0
    9.8542  -13.4055  -10.4547 H   0  0  0  0  0  0  0  0  0  0  0  0
    9.7993  -14.3250  -11.9969 H   0  0  0  0  0  0  0  0  0  0  0  0
   10.3015  -12.6004  -11.9969 H   0  0  0  0  0  0  0  0  0  0  0  0
    6.8312  -15.7844   -6.4857 H   0  0  0  0  0  0  0  0  0  0  0  0
    5.6194  -15.3342   -4.3573 H   0  0  0  0  0  0  0  0  0  0  0  0
  1  2  1  0
  2  3  2  0
  3  4  1  0
  4  5  2  0
  5  6  1  0
  6  7  2  0
  7  8  1  0
  8  9  2  0
  9 10  1  0
 10 11  1  0
 11 12  1  0
 12 13  1  0
 13 14  1  0
 14 15  1  0
 14 16  1  0
 16 17  1  0
 10 18  2  0
  5 19  1  0
 19 20  2  0
 20 21  1  0
 21 22  1  0
 22 23  1  0
 22 24  2  0
 24 25  1  0
 25 26  2  0
 26 27  1  0
 27 28  2  0
 28 29  1  0
 29 30  1  0
 30 31  2  0
 30 32  1  0
 32 33  1  0
 33 34  1  0
 34 35  1  0
 34 36  1  0
 28 37  1  0
 37 38  2  0
 24  2  1  0
 38 25  1  0
 21  4  1  0
 18  6  1  0
 17 11  1  0
  1 39  1  0
  1 40  1  0
  1 41  1  0
  7 42  1  0
  8 43  1  0
  9 44  1  0
 12 45  1  0
 12 46  1  0
 13 47  1  0
 13 48  1  0
 14 49  1  0
 15 50  1  0
 15 51  1  0
 15 52  1  0
 16 53  1  0
 16 54  1  0
 17 55  1  0
 17 56  1  0
 18 57  1  0
 19 58  1  0
 23 59  1  0
 23 60  1  0
 26 61  1  0
 27 62  1  0
 29 63  1  0
 33 64  1  0
 33 65  1  0
 34 66  1  0
 35 67  1  0
 35 68  1  0
 35 69  1  0
 36 70  1  0
 36 71  1  0
 36 72  1  0
 37 73  1  0
 38 74  1  0
M  CHG  1  14   1
M  END
>  <meeko>  (3) 
{"is_sidechain": [false], "free_energy": -7.988, "intermolecular_energy": -11.783, "internal_energy": -0.866}

$$$$
LIB_LVPFKJJHXQHRCM__M_PUB_ALL__e8__s20260927
     RDKit          3D

 74 78  0  0  0  0  0  0  0  0999 V2000
    6.2130  -11.7710   -1.4120 C   0  0  0  0  0  0  0  0  0  0  0  0
    6.0430  -12.8080   -2.5020 C   0  0  0  0  0  0  0  0  0  0  0  0
    7.1150  -13.1590   -3.1540 N   0  0  0  0  0  0  0  0  0  0  0  0
    6.9650  -14.0960   -4.1370 C   0  0  0  0  0  0  0  0  0  0  0  0
    7.8690  -14.6810   -5.0060 C   0  0  0  0  0  0  0  0  0  0  0  0
    9.2930  -14.3950   -5.0680 C   0  0  0  0  0  0  0  0  0  0  0  0
   10.0580  -14.7810   -6.1700 C   0  0  0  0  0  0  0  0  0  0  0  0
   11.4170  -14.4830   -6.2150 C   0  0  0  0  0  0  0  0  0  0  0  0
   12.0200  -13.8050   -5.1520 C   0  0  0  0  0  0  0  0  0  0  0  0
   11.2900  -13.4110   -4.0210 C   0  0  0  0  0  0  0  0  0  0  0  0
   11.9230  -12.7460   -2.9680 N   0  0  0  0  0  0  0  0  0  0  0  0
   11.5370  -13.0580   -1.5840 C   0  0  0  0  0  0  0  0  0  0  0  0
   11.9480  -11.9240   -0.6240 C   0  0  0  0  0  0  0  0  0  0  0  0
   13.4300  -11.5980   -0.7840 N   0  0  0  0  0  0  0  0  0  0  0  0
   13.8890  -10.5600    0.1930 C   0  0  0  0  0  0  0  0  0  0  0  0
   13.7290  -11.2010   -2.2260 C   0  0  0  0  0  0  0  0  0  0  0  0
   13.3180  -12.3260   -3.1980 C   0  0  0  0  0  0  0  0  0  0  0  0
    9.9160  -13.7090   -4.0100 C   0  0  0  0  0  0  0  0  0  0  0  0
    7.0920  -15.5600   -5.7850 C   0  0  0  0  0  0  0  0  0  0  0  0
    5.8000  -15.5480   -5.4680 N   0  0  0  0  0  0  0  0  0  0  0  0
    5.7150  -14.6480   -4.4390 N   0  0  0  0  0  0  0  0  0  0  0  0
    4.5420  -14.2720   -3.7360 C   0  0  0  0  0  0  0  0  0  0  0  0
    3.3660  -14.8830   -4.1230 N   0  0  0  0  0  0  0  0  0  0  0  0
    4.6540  -13.3520   -2.7500 C   0  0  0  0  0  0  0  0  0  0  0  0
    3.4940  -12.9000   -1.9700 C   0  0  0  0  0  0  0  0  0  0  0  0
    2.7520  -11.7900   -2.3820 C   0  0  0  0  0  0  0  0  0  0  0  0
    1.6520  -11.3600   -1.6310 C   0  0  0  0  0  0  0  0  0  0  0  0
    1.2830  -12.0300   -0.4580 C   0  0  0  0  0  0  0  0  0  0  0  0
    0.1680  -11.5380    0.2400 N   0  0  0  0  0  0  0  0  0  0  0  0
    0.0210  -10.3340    0.8670 C   0  0  0  0  0  0  0  0  0  0  0  0
    0.8320   -9.4260    0.9550 O   0  0  0  0  0  0  0  0  0  0  0  0
   -1.2260  -10.2960    1.4070 O   0  0  0  0  0  0  0  0  0  0  0  0
   -2.2820  -10.1070    0.4540 C   0  0  0  0  0  0  0  0  0  0  0  0
   -3.0730  -11.4120    0.2810 C   0  0  0  0  0  0  0  0  0  0  0  0
   -3.4270  -12.0320    1.6330 C   0  0  0  0  0  0  0  0  0  0  0  0
   -4.3440  -11.1870   -0.5400 C   0  0  0  0  0  0  0  0  0  0  0  0
    2.0320  -13.1340   -0.0460 C   0  0  0  0  0  0  0  0  0  0  0  0
    3.1320  -13.5660   -0.7950 C   0  0  0  0  0  0  0  0  0  0  0  0
    6.1334  -12.2567   -0.4282 H   0  0  0  0  0  0  0  0  0  0  0  0
    7.2009  -11.2968   -1.5079 H   0  0  0  0  0  0  0  0  0  0  0  0
    5.4282  -11.0062   -1.5079 H   0  0  0  0  0  0  0  0  0  0  0  0
    9.5863  -15.3214   -7.0039 H   0  0  0  0  0  0  0  0  0  0  0  0
   12.0166  -14.7813   -7.0876 H   0  0  0  0  0  0  0  0  0  0  0  0
   13.0943  -13.5745   -5.2036 H   0  0  0  0  0  0  0  0  0  0  0  0
   10.4461  -13.1911   -1.5366 H   0  0  0  0  0  0  0  0  0  0  0  0
   12.0527  -13.9798   -1.2769 H   0  0  0  0  0  0  0  0  0  0  0  0
   11.3537  -11.0262   -0.8491 H   0  0  0  0  0  0  0  0  0  0  0  0
   11.7656  -12.2505    0.4105 H   0  0  0  0  0  0  0  0  0  0  0  0
   13.9530  -12.4630   -0.5950 H   0  0  0  0  0  0  0  0  0  0  0  0
   13.7278  -10.9247    1.2182 H   0  0  0  0  0  0  0  0  0  0  0  0
   14.9596  -10.3597    0.0392 H   0  0  0  0  0  0  0  0  0  0  0  0
   13.3168   -9.6332    0.0392 H   0  0  0  0  0  0  0  0  0  0  0  0
   13.1678  -10.2877   -2.4728 H   0  0  0  0  0  0  0  0  0  0  0  0
   14.8099  -11.0239   -2.3270 H   0  0  0  0  0  0  0  0  0  0  0  0
   13.4174  -11.9617   -4.2312 H   0  0  0  0  0  0  0  0  0  0  0  0
   13.9751  -13.1914   -3.0271 H   0  0  0  0  0  0  0  0  0  0  0  0
    9.3096  -13.3960   -3.1473 H   0  0  0  0  0  0  0  0  0  0  0  0
    7.5126  -16.1950   -6.5787 H   0  0  0  0  0  0  0  0  0  0  0  0
    2.5210  -14.3140   -4.1360 H   0  0  0  0  0  0  0  0  0  0  0  0
    3.3360  -15.8630   -4.3740 H   0  0  0  0  0  0  0  0  0  0  0  0
    3.0333  -11.2524   -3.2995 H   0  0  0  0  0  0  0  0  0  0  0  0
    1.0717  -10.4874   -1.9654 H   0  0  0  0  0  0  0  0  0  0  0  0
   -0.6520  -12.1240    0.3080 H   0  0  0  0  0  0  0  0  0  0  0  0
   -2.9578   -9.3160    0.8112 H   0  0  0  0  0  0  0  0  0  0  0  0
   -1.8473   -9.8172   -0.5140 H   0  0  0  0  0  0  0  0  0  0  0  0
   -2.4241  -12.1130   -0.2646 H   0  0  0  0  0  0  0  0  0  0  0  0
   -3.0572  -11.3843    2.4415 H   0  0  0  0  0  0  0  0  0  0  0  0
   -4.5192  -12.1336    1.7151 H   0  0  0  0  0  0  0  0  0  0  0  0
   -2.9593  -13.0242    1.7151 H   0  0  0  0  0  0  0  0  0  0  0  0
   -5.1967  -11.0360    0.1383 H   0  0  0  0  0  0  0  0  0  0  0  0
   -4.2181  -10.2972   -1.1743 H   0  0  0  0  0  0  0  0  0  0  0  0
   -4.5312  -12.0660   -1.1743 H   0  0  0  0  0  0  0  0  0  0  0  0
    1.7551  -13.6684    0.8747 H   0  0  0  0  0  0  0  0  0  0  0  0
    3.7157  -14.4351   -0.4574 H   0  0  0  0  0  0  0  0  0  0  0  0
  1  2  1  0
  2  3  2  0
  3  4  1  0
  4  5  2  0
  5  6  1  0
  6  7  2  0
  7  8  1  0
  8  9  2  0
  9 10  1  0
 10 11  1  0
 11 12  1  0
 12 13  1  0
 13 14  1  0
 14 15  1  0
 14 16  1  0
 16 17  1  0
 10 18  2  0
  5 19  1  0
 19 20  2  0
 20 21  1  0
 21 22  1  0
 22 23  1  0
 22 24  2  0
 24 25  1  0
 25 26  2  0
 26 27  1  0
 27 28  2  0
 28 29  1  0
 29 30  1  0
 30 31  2  0
 30 32  1  0
 32 33  1  0
 33 34  1  0
 34 35  1  0
 34 36  1  0
 28 37  1  0
 37 38  2  0
 24  2  1  0
 38 25  1  0
 21  4  1  0
 18  6  1  0
 17 11  1  0
  1 39  1  0
  1 40  1  0
  1 41  1  0
  7 42  1  0
  8 43  1  0
  9 44  1  0
 12 45  1  0
 12 46  1  0
 13 47  1  0
 13 48  1  0
 14 49  1  0
 15 50  1  0
 15 51  1  0
 15 52  1  0
 16 53  1  0
 16 54  1  0
 17 55  1  0
 17 56  1  0
 18 57  1  0
 19 58  1  0
 23 59  1  0
 23 60  1  0
 26 61  1  0
 27 62  1  0
 29 63  1  0
 33 64  1  0
 33 65  1  0
 34 66  1  0
 35 67  1  0
 35 68  1  0
 35 69  1  0
 36 70  1  0
 36 71  1  0
 36 72  1  0
 37 73  1  0
 38 74  1  0
M  CHG  1  14   1
M  END
>  <meeko>  (4) 
{"is_sidechain": [false], "free_energy": -7.775, "intermolecular_energy": -11.718, "internal_energy": -0.625}

$$$$
LIB_LVPFKJJHXQHRCM__M_PUB_ALL__e8__s20260927
     RDKit          3D

 74 78  0  0  0  0  0  0  0  0999 V2000
    9.7440  -12.4590   12.3330 C   0  0  0  0  0  0  0  0  0  0  0  0
   10.4000  -13.8110   12.5170 C   0  0  0  0  0  0  0  0  0  0  0  0
    9.6110  -14.8470   12.5570 N   0  0  0  0  0  0  0  0  0  0  0  0
   10.2010  -16.0690   12.7220 C   0  0  0  0  0  0  0  0  0  0  0  0
    9.6780  -17.3470   12.8080 C   0  0  0  0  0  0  0  0  0  0  0  0
    8.2670  -17.6920   12.7440 C   0  0  0  0  0  0  0  0  0  0  0  0
    7.4950  -17.7890   13.9030 C   0  0  0  0  0  0  0  0  0  0  0  0
    6.1420  -18.1070   13.8170 C   0  0  0  0  0  0  0  0  0  0  0  0
    5.5560  -18.3360   12.5700 C   0  0  0  0  0  0  0  0  0  0  0  0
    6.2990  -18.2610   11.3820 C   0  0  0  0  0  0  0  0  0  0  0  0
    5.6870  -18.5090   10.1490 N   0  0  0  0  0  0  0  0  0  0  0  0
    4.2330  -18.3330   10.0190 C   0  0  0  0  0  0  0  0  0  0  0  0
    3.6890  -19.1040    8.8000 C   0  0  0  0  0  0  0  0  0  0  0  0
    4.4630  -18.7300    7.5400 N   0  0  0  0  0  0  0  0  0  0  0  0
    3.9070  -19.3920    6.3180 C   0  0  0  0  0  0  0  0  0  0  0  0
    5.9480  -19.0240    7.7280 C   0  0  0  0  0  0  0  0  0  0  0  0
    6.5050  -18.2620    8.9470 C   0  0  0  0  0  0  0  0  0  0  0  0
    7.6580  -17.9220   11.4960 C   0  0  0  0  0  0  0  0  0  0  0  0
   10.8000  -18.1780   12.9870 C   0  0  0  0  0  0  0  0  0  0  0  0
   11.9520  -17.5120   13.0250 N   0  0  0  0  0  0  0  0  0  0  0  0
   11.5880  -16.2030   12.8510 N   0  0  0  0  0  0  0  0  0  0  0  0
   12.4540  -15.0800   12.8100 C   0  0  0  0  0  0  0  0  0  0  0  0
   13.8040  -15.3360   12.9500 N   0  0  0  0  0  0  0  0  0  0  0  0
   11.9060  -13.8550   12.6410 C   0  0  0  0  0  0  0  0  0  0  0  0
   12.7240  -12.6360   12.5870 C   0  0  0  0  0  0  0  0  0  0  0  0
   12.7300  -11.7390   13.6590 C   0  0  0  0  0  0  0  0  0  0  0  0
   13.5060  -10.5760   13.5990 C   0  0  0  0  0  0  0  0  0  0  0  0
   14.2810  -10.2920   12.4690 C   0  0  0  0  0  0  0  0  0  0  0  0
   15.0320   -9.1060   12.4850 N   0  0  0  0  0  0  0  0  0  0  0  0
   14.7940   -7.9390   11.8150 C   0  0  0  0  0  0  0  0  0  0  0  0
   13.8730   -7.6800   11.0560 O   0  0  0  0  0  0  0  0  0  0  0  0
   15.7850   -7.0660   12.1360 O   0  0  0  0  0  0  0  0  0  0  0  0
   16.5140   -6.5540   11.0110 C   0  0  0  0  0  0  0  0  0  0  0  0
   18.0240   -6.7050   11.2500 C   0  0  0  0  0  0  0  0  0  0  0  0
   18.3670   -8.1010   11.7710 C   0  0  0  0  0  0  0  0  0  0  0  0
   18.8190   -6.4110    9.9780 C   0  0  0  0  0  0  0  0  0  0  0  0
   14.2660  -11.1870   11.3970 C   0  0  0  0  0  0  0  0  0  0  0  0
   13.4920  -12.3510   11.4540 C   0  0  0  0  0  0  0  0  0  0  0  0
    9.5301  -12.0182   13.3178 H   0  0  0  0  0  0  0  0  0  0  0  0
   10.4207  -11.7962   11.7737 H   0  0  0  0  0  0  0  0  0  0  0  0
    8.8046  -12.5803   11.7737 H   0  0  0  0  0  0  0  0  0  0  0  0
    7.9563  -17.6139   14.8861 H   0  0  0  0  0  0  0  0  0  0  0  0
    5.5346  -18.1779   14.7314 H   0  0  0  0  0  0  0  0  0  0  0  0
    4.4850  -18.5813   12.5179 H   0  0  0  0  0  0  0  0  0  0  0  0
    3.7426  -18.7078   10.9295 H   0  0  0  0  0  0  0  0  0  0  0  0
    4.0211  -17.2627    9.8793 H   0  0  0  0  0  0  0  0  0  0  0  0
    3.7916  -20.1843    8.9802 H   0  0  0  0  0  0  0  0  0  0  0  0
    2.6304  -18.8412    8.6574 H   0  0  0  0  0  0  0  0  0  0  0  0
    4.3700  -17.7130    7.4170 H   0  0  0  0  0  0  0  0  0  0  0  0
    3.2263  -20.2025    6.6176 H   0  0  0  0  0  0  0  0  0  0  0  0
    3.3553  -18.6524    5.7192 H   0  0  0  0  0  0  0  0  0  0  0  0
    4.7308  -19.8076    5.7192 H   0  0  0  0  0  0  0  0  0  0  0  0
    6.0852  -20.1042    7.8840 H   0  0  0  0  0  0  0  0  0  0  0  0
    6.4898  -18.6961    6.8286 H   0  0  0  0  0  0  0  0  0  0  0  0
    7.5352  -18.5962    9.1391 H   0  0  0  0  0  0  0  0  0  0  0  0
    6.4820  -17.1849    8.7250 H   0  0  0  0  0  0  0  0  0  0  0  0
    8.2642  -17.8337   10.5823 H   0  0  0  0  0  0  0  0  0  0  0  0
   10.7315  -19.2714   13.0859 H   0  0  0  0  0  0  0  0  0  0  0  0
   14.0960  -15.9030   13.7450 H   0  0  0  0  0  0  0  0  0  0  0  0
   14.4840  -14.9660   12.2990 H   0  0  0  0  0  0  0  0  0  0  0  0
   12.1230  -11.9479   14.5523 H   0  0  0  0  0  0  0  0  0  0  0  0
   13.5068   -9.8778   14.4490 H   0  0  0  0  0  0  0  0  0  0  0  0
   15.8650   -9.0730   13.0560 H   0  0  0  0  0  0  0  0  0  0  0  0
   16.2304   -7.1141   10.1078 H   0  0  0  0  0  0  0  0  0  0  0  0
   16.2741   -5.4885   10.8801 H   0  0  0  0  0  0  0  0  0  0  0  0
   18.3064   -5.9680   12.0162 H   0  0  0  0  0  0  0  0  0  0  0  0
   18.3649   -8.0926   12.8710 H   0  0  0  0  0  0  0  0  0  0  0  0
   17.6192   -8.8217   11.4084 H   0  0  0  0  0  0  0  0  0  0  0  0
   19.3636   -8.3931   11.4084 H   0  0  0  0  0  0  0  0  0  0  0  0
   19.8192   -6.0411   10.2480 H   0  0  0  0  0  0  0  0  0  0  0  0
   18.9165   -7.3325    9.3853 H   0  0  0  0  0  0  0  0  0  0  0  0
   18.2935   -5.6478    9.3853 H   0  0  0  0  0  0  0  0  0  0  0  0
   14.8675  -10.9750   10.5008 H   0  0  0  0  0  0  0  0  0  0  0  0
   13.4876  -13.0465   10.6018 H   0  0  0  0  0  0  0  0  0  0  0  0
  1  2  1  0
  2  3  2  0
  3  4  1  0
  4  5  2  0
  5  6  1  0
  6  7  2  0
  7  8  1  0
  8  9  2  0
  9 10  1  0
 10 11  1  0
 11 12  1  0
 12 13  1  0
 13 14  1  0
 14 15  1  0
 14 16  1  0
 16 17  1  0
 10 18  2  0
  5 19  1  0
 19 20  2  0
 20 21  1  0
 21 22  1  0
 22 23  1  0
 22 24  2  0
 24 25  1  0
 25 26  2  0
 26 27  1  0
 27 28  2  0
 28 29  1  0
 29 30  1  0
 30 31  2  0
 30 32  1  0
 32 33  1  0
 33 34  1  0
 34 35  1  0
 34 36  1  0
 28 37  1  0
 37 38  2  0
 24  2  1  0
 38 25  1  0
 21  4  1  0
 18  6  1  0
 17 11  1  0
  1 39  1  0
  1 40  1  0
  1 41  1  0
  7 42  1  0
  8 43  1  0
  9 44  1  0
 12 45  1  0
 12 46  1  0
 13 47  1  0
 13 48  1  0
 14 49  1  0
 15 50  1  0
 15 51  1  0
 15 52  1  0
 16 53  1  0
 16 54  1  0
 17 55  1  0
 17 56  1  0
 18 57  1  0
 19 58  1  0
 23 59  1  0
 23 60  1  0
 26 61  1  0
 27 62  1  0
 29 63  1  0
 33 64  1  0
 33 65  1  0
 34 66  1  0
 35 67  1  0
 35 68  1  0
 35 69  1  0
 36 70  1  0
 36 71  1  0
 36 72  1  0
 37 73  1  0
 38 74  1  0
M  CHG  1  14   1
M  END
>  <meeko>  (5) 
{"is_sidechain": [false], "free_energy": -7.727, "intermolecular_energy": -11.322, "internal_energy": -0.952}

$$$$
LIB_LVPFKJJHXQHRCM__M_PUB_ALL__e8__s20260927
     RDKit          3D

 74 78  0  0  0  0  0  0  0  0999 V2000
    6.9520  -13.4770   -3.2660 C   0  0  0  0  0  0  0  0  0  0  0  0
    7.7590  -13.1330   -2.0330 C   0  0  0  0  0  0  0  0  0  0  0  0
    9.0360  -12.9340   -2.2010 N   0  0  0  0  0  0  0  0  0  0  0  0
    9.7670  -12.6220   -1.0900 C   0  0  0  0  0  0  0  0  0  0  0  0
   11.1130  -12.3550   -0.9090 C   0  0  0  0  0  0  0  0  0  0  0  0
   12.1250  -12.3570   -1.9530 C   0  0  0  0  0  0  0  0  0  0  0  0
   13.2590  -11.5500   -1.8590 C   0  0  0  0  0  0  0  0  0  0  0  0
   14.2230  -11.5780   -2.8640 C   0  0  0  0  0  0  0  0  0  0  0  0
   14.0510  -12.4110   -3.9730 C   0  0  0  0  0  0  0  0  0  0  0  0
   12.9200  -13.2290   -4.1120 C   0  0  0  0  0  0  0  0  0  0  0  0
   12.7700  -14.0410   -5.2400 N   0  0  0  0  0  0  0  0  0  0  0  0
   13.7670  -15.0880   -5.5100 C   0  0  0  0  0  0  0  0  0  0  0  0
   13.7270  -15.5230   -6.9880 C   0  0  0  0  0  0  0  0  0  0  0  0
   12.3090  -15.9120   -7.3950 N   0  0  0  0  0  0  0  0  0  0  0  0
   12.2450  -16.4240   -8.8000 C   0  0  0  0  0  0  0  0  0  0  0  0
   11.3560  -14.7430   -7.1640 C   0  0  0  0  0  0  0  0  0  0  0  0
   11.3880  -14.2950   -5.6890 C   0  0  0  0  0  0  0  0  0  0  0  0
   11.9720  -13.1930   -3.0750 C   0  0  0  0  0  0  0  0  0  0  0  0
   11.2450  -12.1170    0.4720 C   0  0  0  0  0  0  0  0  0  0  0  0
   10.0990  -12.2260    1.1400 N   0  0  0  0  0  0  0  0  0  0  0  0
    9.1760  -12.5290    0.1750 N   0  0  0  0  0  0  0  0  0  0  0  0
    7.7870  -12.7460    0.3690 C   0  0  0  0  0  0  0  0  0  0  0  0
    7.3180  -12.6290    1.6630 N   0  0  0  0  0  0  0  0  0  0  0  0
    7.0300  -13.0500   -0.7100 C   0  0  0  0  0  0  0  0  0  0  0  0
    5.5850  -13.2920   -0.6050 C   0  0  0  0  0  0  0  0  0  0  0  0
    4.6760  -12.2490   -0.8000 C   0  0  0  0  0  0  0  0  0  0  0  0
    3.3010  -12.4840   -0.6920 C   0  0  0  0  0  0  0  0  0  0  0  0
    2.8170  -13.7610   -0.3830 C   0  0  0  0  0  0  0  0  0  0  0  0
    1.4250  -13.9170   -0.2930 N   0  0  0  0  0  0  0  0  0  0  0  0
    0.5830  -14.5620   -1.1540 C   0  0  0  0  0  0  0  0  0  0  0  0
    0.8660  -15.1420   -2.1910 O   0  0  0  0  0  0  0  0  0  0  0  0
   -0.6790  -14.4570   -0.6600 O   0  0  0  0  0  0  0  0  0  0  0  0
   -0.7550  -13.9290    0.6710 C   0  0  0  0  0  0  0  0  0  0  0  0
   -2.0640  -13.1470    0.8540 C   0  0  0  0  0  0  0  0  0  0  0  0
   -3.1570  -13.6660   -0.0820 C   0  0  0  0  0  0  0  0  0  0  0  0
   -2.5470  -13.2030    2.3040 C   0  0  0  0  0  0  0  0  0  0  0  0
    3.7290  -14.7990   -0.1810 C   0  0  0  0  0  0  0  0  0  0  0  0
    5.1040  -14.5670   -0.2890 C   0  0  0  0  0  0  0  0  0  0  0  0
    5.9791  -13.8917   -2.9635 H   0  0  0  0  0  0  0  0  0  0  0  0
    6.7929  -12.5685   -3.8654 H   0  0  0  0  0  0  0  0  0  0  0  0
    7.4973  -14.2209   -3.8654 H   0  0  0  0  0  0  0  0  0  0  0  0
   13.3922  -10.8900   -0.9891 H   0  0  0  0  0  0  0  0  0  0  0  0
   15.1191  -10.9449   -2.7849 H   0  0  0  0  0  0  0  0  0  0  0  0
   14.8224  -12.4255   -4.7570 H   0  0  0  0  0  0  0  0  0  0  0  0
   14.7691  -14.6988   -5.2769 H   0  0  0  0  0  0  0  0  0  0  0  0
   13.5361  -15.9611   -4.8820 H   0  0  0  0  0  0  0  0  0  0  0  0
   14.0686  -14.6896   -7.6195 H   0  0  0  0  0  0  0  0  0  0  0  0
   14.3853  -16.3945   -7.1192 H   0  0  0  0  0  0  0  0  0  0  0  0
   12.0120  -16.6720   -6.7690 H   0  0  0  0  0  0  0  0  0  0  0  0
   12.1086  -17.5154   -8.7867 H   0  0  0  0  0  0  0  0  0  0  0  0
   11.3985  -15.9550   -9.3230 H   0  0  0  0  0  0  0  0  0  0  0  0
   13.1809  -16.1778   -9.3230 H   0  0  0  0  0  0  0  0  0  0  0  0
   11.6570  -13.9003   -7.8037 H   0  0  0  0  0  0  0  0  0  0  0  0
   10.3343  -15.0660   -7.4127 H   0  0  0  0  0  0  0  0  0  0  0  0
   10.8000  -13.3716   -5.5814 H   0  0  0  0  0  0  0  0  0  0  0  0
   10.9625  -15.0992   -5.0707 H   0  0  0  0  0  0  0  0  0  0  0  0
   11.0834  -13.8378   -3.1423 H   0  0  0  0  0  0  0  0  0  0  0  0
   12.2021  -11.8654    0.9524 H   0  0  0  0  0  0  0  0  0  0  0  0
    7.7350  -11.9090    2.2520 H   0  0  0  0  0  0  0  0  0  0  0  0
    6.5960  -13.2410    2.0220 H   0  0  0  0  0  0  0  0  0  0  0  0
    5.0426  -11.2398   -1.0392 H   0  0  0  0  0  0  0  0  0  0  0  0
    2.5931  -11.6573   -0.8514 H   0  0  0  0  0  0  0  0  0  0  0  0
    0.9460  -13.5130    0.5010 H   0  0  0  0  0  0  0  0  0  0  0  0
   -0.7221  -14.7577    1.3937 H   0  0  0  0  0  0  0  0  0  0  0  0
    0.0956  -13.2521    0.8391 H   0  0  0  0  0  0  0  0  0  0  0  0
   -1.8532  -12.0985    0.5968 H   0  0  0  0  0  0  0  0  0  0  0  0
   -3.9922  -14.0626    0.5139 H   0  0  0  0  0  0  0  0  0  0  0  0
   -3.5176  -12.8430   -0.7165 H   0  0  0  0  0  0  0  0  0  0  0  0
   -2.7471  -14.4656   -0.7165 H   0  0  0  0  0  0  0  0  0  0  0  0
   -1.6861  -13.1032    2.9814 H   0  0  0  0  0  0  0  0  0  0  0  0
   -3.2546  -12.3809    2.4868 H   0  0  0  0  0  0  0  0  0  0  0  0
   -3.0477  -14.1652    2.4868 H   0  0  0  0  0  0  0  0  0  0  0  0
    3.3632  -15.8068    0.0649 H   0  0  0  0  0  0  0  0  0  0  0  0
    5.8119  -15.3927   -0.1244 H   0  0  0  0  0  0  0  0  0  0  0  0
  1  2  1  0
  2  3  2  0
  3  4  1  0
  4  5  2  0
  5  6  1  0
  6  7  2  0
  7  8  1  0
  8  9  2  0
  9 10  1  0
 10 11  1  0
 11 12  1  0
 12 13  1  0
 13 14  1  0
 14 15  1  0
 14 16  1  0
 16 17  1  0
 10 18  2  0
  5 19  1  0
 19 20  2  0
 20 21  1  0
 21 22  1  0
 22 23  1  0
 22 24  2  0
 24 25  1  0
 25 26  2  0
 26 27  1  0
 27 28  2  0
 28 29  1  0
 29 30  1  0
 30 31  2  0
 30 32  1  0
 32 33  1  0
 33 34  1  0
 34 35  1  0
 34 36  1  0
 28 37  1  0
 37 38  2  0
 24  2  1  0
 38 25  1  0
 21  4  1  0
 18  6  1  0
 17 11  1  0
  1 39  1  0
  1 40  1  0
  1 41  1  0
  7 42  1  0
  8 43  1  0
  9 44  1  0
 12 45  1  0
 12 46  1  0
 13 47  1  0
 13 48  1  0
 14 49  1  0
 15 50  1  0
 15 51  1  0
 15 52  1  0
 16 53  1  0
 16 54  1  0
 17 55  1  0
 17 56  1  0
 18 57  1  0
 19 58  1  0
 23 59  1  0
 23 60  1  0
 26 61  1  0
 27 62  1  0
 29 63  1  0
 33 64  1  0
 33 65  1  0
 34 66  1  0
 35 67  1  0
 35 68  1  0
 35 69  1  0
 36 70  1  0
 36 71  1  0
 36 72  1  0
 37 73  1  0
 38 74  1  0
M  CHG  1  14   1
M  END
>  <meeko>  (6) 
{"is_sidechain": [false], "free_energy": -7.657, "intermolecular_energy": -11.258, "internal_energy": -0.914}

$$$$
LIB_LVPFKJJHXQHRCM__M_PUB_ALL__e8__s20260927
     RDKit          3D

 74 78  0  0  0  0  0  0  0  0999 V2000
   -1.8530  -13.0750    1.4150 C   0  0  0  0  0  0  0  0  0  0  0  0
   -1.9390  -14.5150    1.8730 C   0  0  0  0  0  0  0  0  0  0  0  0
   -2.8690  -14.8030    2.7390 N   0  0  0  0  0  0  0  0  0  0  0  0
   -2.9510  -16.1030    3.1520 C   0  0  0  0  0  0  0  0  0  0  0  0
   -3.7960  -16.7430    4.0420 C   0  0  0  0  0  0  0  0  0  0  0  0
   -4.8660  -16.1110    4.7980 C   0  0  0  0  0  0  0  0  0  0  0  0
   -5.5540  -15.0090    4.2890 C   0  0  0  0  0  0  0  0  0  0  0  0
   -6.5850  -14.4290    5.0230 C   0  0  0  0  0  0  0  0  0  0  0  0
   -6.9270  -14.9460    6.2750 C   0  0  0  0  0  0  0  0  0  0  0  0
   -6.2520  -16.0440    6.8290 C   0  0  0  0  0  0  0  0  0  0  0  0
   -6.6080  -16.5300    8.0900 N   0  0  0  0  0  0  0  0  0  0  0  0
   -5.7100  -16.2950    9.2310 C   0  0  0  0  0  0  0  0  0  0  0  0
   -5.9950  -17.2900   10.3740 C   0  0  0  0  0  0  0  0  0  0  0  0
   -7.4740  -17.2680   10.7480 N   0  0  0  0  0  0  0  0  0  0  0  0
   -7.7750  -18.1570   11.9140 C   0  0  0  0  0  0  0  0  0  0  0  0
   -8.3290  -17.6060    9.5310 C   0  0  0  0  0  0  0  0  0  0  0  0
   -8.0520  -16.6200    8.3780 C   0  0  0  0  0  0  0  0  0  0  0  0
   -5.2270  -16.6200    6.0590 C   0  0  0  0  0  0  0  0  0  0  0  0
   -3.3610  -18.0820    4.0440 C   0  0  0  0  0  0  0  0  0  0  0  0
   -2.3240  -18.3030    3.2400 N   0  0  0  0  0  0  0  0  0  0  0  0
   -2.0700  -17.0810    2.6760 N   0  0  0  0  0  0  0  0  0  0  0  0
   -1.0540  -16.7760    1.7350 C   0  0  0  0  0  0  0  0  0  0  0  0
   -0.2440  -17.8230    1.3390 N   0  0  0  0  0  0  0  0  0  0  0  0
   -0.9480  -15.5010    1.2970 C   0  0  0  0  0  0  0  0  0  0  0  0
    0.0750  -15.0930    0.3240 C   0  0  0  0  0  0  0  0  0  0  0  0
    1.2990  -14.5770    0.7570 C   0  0  0  0  0  0  0  0  0  0  0  0
    2.2660  -14.1830   -0.1750 C   0  0  0  0  0  0  0  0  0  0  0  0
    2.0210  -14.2950   -1.5490 C   0  0  0  0  0  0  0  0  0  0  0  0
    3.0410  -13.8800   -2.4200 N   0  0  0  0  0  0  0  0  0  0  0  0
    3.0640  -12.7890   -3.2430 C   0  0  0  0  0  0  0  0  0  0  0  0
    2.1980  -11.9420   -3.3960 O   0  0  0  0  0  0  0  0  0  0  0  0
    4.2550  -12.7890   -3.8990 O   0  0  0  0  0  0  0  0  0  0  0  0
    4.6780  -14.0780   -4.3650 C   0  0  0  0  0  0  0  0  0  0  0  0
    4.9770  -14.0210   -5.8700 C   0  0  0  0  0  0  0  0  0  0  0  0
    5.0230  -12.5780   -6.3740 C   0  0  0  0  0  0  0  0  0  0  0  0
    6.2880  -14.7330   -6.2040 C   0  0  0  0  0  0  0  0  0  0  0  0
    0.7930  -14.8030   -1.9770 C   0  0  0  0  0  0  0  0  0  0  0  0
   -0.1750  -15.1980   -1.0480 C   0  0  0  0  0  0  0  0  0  0  0  0
   -1.8135  -12.4129    2.2925 H   0  0  0  0  0  0  0  0  0  0  0  0
   -0.9450  -12.9363    0.8098 H   0  0  0  0  0  0  0  0  0  0  0  0
   -2.7381  -12.8292    0.8098 H   0  0  0  0  0  0  0  0  0  0  0  0
   -5.2813  -14.5977    3.3059 H   0  0  0  0  0  0  0  0  0  0  0  0
   -7.1301  -13.5640    4.6173 H   0  0  0  0  0  0  0  0  0  0  0  0
   -7.7469  -14.4800    6.8412 H   0  0  0  0  0  0  0  0  0  0  0  0
   -4.6682  -16.4169    8.8996 H   0  0  0  0  0  0  0  0  0  0  0  0
   -5.8791  -15.2745    9.6051 H   0  0  0  0  0  0  0  0  0  0  0  0
   -5.7195  -18.3038   10.0480 H   0  0  0  0  0  0  0  0  0  0  0  0
   -5.4021  -16.9992   11.2537 H   0  0  0  0  0  0  0  0  0  0  0  0
   -7.7040  -16.3030   11.0190 H   0  0  0  0  0  0  0  0  0  0  0  0
   -7.5896  -17.6096   12.8499 H   0  0  0  0  0  0  0  0  0  0  0  0
   -8.8290  -18.4693   11.8745 H   0  0  0  0  0  0  0  0  0  0  0  0
   -7.1276  -19.0454   11.8745 H   0  0  0  0  0  0  0  0  0  0  0  0
   -8.0936  -18.6273    9.1969 H   0  0  0  0  0  0  0  0  0  0  0  0
   -9.3897  -17.5310    9.8127 H   0  0  0  0  0  0  0  0  0  0  0  0
   -8.5772  -16.9661    7.4756 H   0  0  0  0  0  0  0  0  0  0  0  0
   -8.4109  -15.6241    8.6768 H   0  0  0  0  0  0  0  0  0  0  0  0
   -4.6907  -17.4953    6.4542 H   0  0  0  0  0  0  0  0  0  0  0  0
   -3.8325  -18.8689    4.6511 H   0  0  0  0  0  0  0  0  0  0  0  0
    0.7540  -17.6360    1.2420 H   0  0  0  0  0  0  0  0  0  0  0  0
   -0.6220  -18.7400    1.1390 H   0  0  0  0  0  0  0  0  0  0  0  0
    1.5033  -14.4801    1.8335 H   0  0  0  0  0  0  0  0  0  0  0  0
    3.2282  -13.7813    0.1755 H   0  0  0  0  0  0  0  0  0  0  0  0
    3.8840  -14.4340   -2.4720 H   0  0  0  0  0  0  0  0  0  0  0  0
    5.5870  -14.3804   -3.8243 H   0  0  0  0  0  0  0  0  0  0  0  0
    3.8755  -14.8083   -4.1840 H   0  0  0  0  0  0  0  0  0  0  0  0
    4.1556  -14.5435   -6.3822 H   0  0  0  0  0  0  0  0  0  0  0  0
    5.0449  -11.8904   -5.5157 H   0  0  0  0  0  0  0  0  0  0  0  0
    5.9263  -12.4314   -6.9844 H   0  0  0  0  0  0  0  0  0  0  0  0
    4.1309  -12.3742   -6.9844 H   0  0  0  0  0  0  0  0  0  0  0  0
    6.8015  -15.0119   -5.2721 H   0  0  0  0  0  0  0  0  0  0  0  0
    6.0742  -15.6390   -6.7901 H   0  0  0  0  0  0  0  0  0  0  0  0
    6.9315  -14.0604   -6.7901 H   0  0  0  0  0  0  0  0  0  0  0  0
    0.5852  -14.8933   -3.0534 H   0  0  0  0  0  0  0  0  0  0  0  0
   -1.1395  -15.5939   -1.3988 H   0  0  0  0  0  0  0  0  0  0  0  0
  1  2  1  0
  2  3  2  0
  3  4  1  0
  4  5  2  0
  5  6  1  0
  6  7  2  0
  7  8  1  0
  8  9  2  0
  9 10  1  0
 10 11  1  0
 11 12  1  0
 12 13  1  0
 13 14  1  0
 14 15  1  0
 14 16  1  0
 16 17  1  0
 10 18  2  0
  5 19  1  0
 19 20  2  0
 20 21  1  0
 21 22  1  0
 22 23  1  0
 22 24  2  0
 24 25  1  0
 25 26  2  0
 26 27  1  0
 27 28  2  0
 28 29  1  0
 29 30  1  0
 30 31  2  0
 30 32  1  0
 32 33  1  0
 33 34  1  0
 34 35  1  0
 34 36  1  0
 28 37  1  0
 37 38  2  0
 24  2  1  0
 38 25  1  0
 21  4  1  0
 18  6  1  0
 17 11  1  0
  1 39  1  0
  1 40  1  0
  1 41  1  0
  7 42  1  0
  8 43  1  0
  9 44  1  0
 12 45  1  0
 12 46  1  0
 13 47  1  0
 13 48  1  0
 14 49  1  0
 15 50  1  0
 15 51  1  0
 15 52  1  0
 16 53  1  0
 16 54  1  0
 17 55  1  0
 17 56  1  0
 18 57  1  0
 19 58  1  0
 23 59  1  0
 23 60  1  0
 26 61  1  0
 27 62  1  0
 29 63  1  0
 33 64  1  0
 33 65  1  0
 34 66  1  0
 35 67  1  0
 35 68  1  0
 35 69  1  0
 36 70  1  0
 36 71  1  0
 36 72  1  0
 37 73  1  0
 38 74  1  0
M  CHG  1  14   1
M  END
>  <meeko>  (7) 
{"is_sidechain": [false], "free_energy": -7.629, "intermolecular_energy": -11.292, "internal_energy": -0.84}

$$$$
LIB_LVPFKJJHXQHRCM__M_PUB_ALL__e8__s20260927
     RDKit          3D

 74 78  0  0  0  0  0  0  0  0999 V2000
    9.3460  -14.7060   -3.6810 C   0  0  0  0  0  0  0  0  0  0  0  0
    9.8560  -13.8890   -2.5120 C   0  0  0  0  0  0  0  0  0  0  0  0
    8.9860  -13.5610   -1.5990 N   0  0  0  0  0  0  0  0  0  0  0  0
    9.4430  -12.8250   -0.5430 C   0  0  0  0  0  0  0  0  0  0  0  0
    8.8080  -12.3150    0.5760 C   0  0  0  0  0  0  0  0  0  0  0  0
    7.3960  -12.4600    0.8900 C   0  0  0  0  0  0  0  0  0  0  0  0
    6.6050  -11.3490    1.1850 C   0  0  0  0  0  0  0  0  0  0  0  0
    5.2520  -11.5090    1.4680 C   0  0  0  0  0  0  0  0  0  0  0  0
    4.6840  -12.7860    1.4650 C   0  0  0  0  0  0  0  0  0  0  0  0
    5.4460  -13.9310    1.1870 C   0  0  0  0  0  0  0  0  0  0  0  0
    4.8530  -15.1960    1.2050 N   0  0  0  0  0  0  0  0  0  0  0  0
    3.3880  -15.3050    1.1420 C   0  0  0  0  0  0  0  0  0  0  0  0
    2.9110  -16.6740    1.6640 C   0  0  0  0  0  0  0  0  0  0  0  0
    3.6370  -17.8060    0.9430 N   0  0  0  0  0  0  0  0  0  0  0  0
    3.1380  -19.1540    1.3600 C   0  0  0  0  0  0  0  0  0  0  0  0
    5.1450  -17.6670    1.1310 C   0  0  0  0  0  0  0  0  0  0  0  0
    5.6350  -16.2990    0.6160 C   0  0  0  0  0  0  0  0  0  0  0  0
    6.8060  -13.7370    0.8880 C   0  0  0  0  0  0  0  0  0  0  0  0
    9.8220  -11.6390    1.2810 C   0  0  0  0  0  0  0  0  0  0  0  0
   11.0090  -11.6880    0.6810 N   0  0  0  0  0  0  0  0  0  0  0  0
   10.7830  -12.4320   -0.4470 N   0  0  0  0  0  0  0  0  0  0  0  0
   11.7360  -12.7830   -1.4370 C   0  0  0  0  0  0  0  0  0  0  0  0
   13.0280  -12.3370   -1.2360 N   0  0  0  0  0  0  0  0  0  0  0  0
   11.3210  -13.5180   -2.4940 C   0  0  0  0  0  0  0  0  0  0  0  0
   12.2380  -13.9270   -3.5670 C   0  0  0  0  0  0  0  0  0  0  0  0
   13.0020  -15.0900   -3.4410 C   0  0  0  0  0  0  0  0  0  0  0  0
   13.8780  -15.4700   -4.4640 C   0  0  0  0  0  0  0  0  0  0  0  0
   14.0060  -14.6930   -5.6210 C   0  0  0  0  0  0  0  0  0  0  0  0
   14.9060  -15.1410   -6.6010 N   0  0  0  0  0  0  0  0  0  0  0  0
   14.7040  -16.0760   -7.5760 C   0  0  0  0  0  0  0  0  0  0  0  0
   13.6940  -16.7240   -7.8020 O   0  0  0  0  0  0  0  0  0  0  0  0
   15.8540  -16.1840   -8.2940 O   0  0  0  0  0  0  0  0  0  0  0  0
   15.6690  -16.5790   -9.6600 C   0  0  0  0  0  0  0  0  0  0  0  0
   16.1640  -15.4700  -10.6000 C   0  0  0  0  0  0  0  0  0  0  0  0
   16.5340  -16.0300  -11.9740 C   0  0  0  0  0  0  0  0  0  0  0  0
   15.1210  -14.3620  -10.7490 C   0  0  0  0  0  0  0  0  0  0  0  0
   13.2470  -13.5270   -5.7390 C   0  0  0  0  0  0  0  0  0  0  0  0
   12.3700  -13.1440   -4.7190 C   0  0  0  0  0  0  0  0  0  0  0  0
    8.7987  -15.5828   -3.3045 H   0  0  0  0  0  0  0  0  0  0  0  0
    8.6726  -14.0887   -4.2937 H   0  0  0  0  0  0  0  0  0  0  0  0
   10.1964  -15.0399   -4.2937 H   0  0  0  0  0  0  0  0  0  0  0  0
    7.0522  -10.3440    1.1939 H   0  0  0  0  0  0  0  0  0  0  0  0
    4.6296  -10.6306    1.6940 H   0  0  0  0  0  0  0  0  0  0  0  0
    3.6121  -12.8963    1.6862 H   0  0  0  0  0  0  0  0  0  0  0  0
    2.9417  -14.5103    1.7578 H   0  0  0  0  0  0  0  0  0  0  0  0
    3.0747  -15.2026    0.0925 H   0  0  0  0  0  0  0  0  0  0  0  0
    3.1169  -16.7415    2.7425 H   0  0  0  0  0  0  0  0  0  0  0  0
    1.8313  -16.7687    1.4762 H   0  0  0  0  0  0  0  0  0  0  0  0
    3.4470  -17.6960   -0.0620 H   0  0  0  0  0  0  0  0  0  0  0  0
    3.1161  -19.2133    2.4582 H   0  0  0  0  0  0  0  0  0  0  0  0
    2.1233  -19.3079    0.9641 H   0  0  0  0  0  0  0  0  0  0  0  0
    3.8079  -19.9315    0.9641 H   0  0  0  0  0  0  0  0  0  0  0  0
    5.3853  -17.7572    2.2006 H   0  0  0  0  0  0  0  0  0  0  0  0
    5.6472  -18.4607    0.5585 H   0  0  0  0  0  0  0  0  0  0  0  0
    6.6938  -16.1723    0.8860 H   0  0  0  0  0  0  0  0  0  0  0  0
    5.5073  -16.2720   -0.4762 H   0  0  0  0  0  0  0  0  0  0  0  0
    7.4281  -14.6110    0.6449 H   0  0  0  0  0  0  0  0  0  0  0  0
    9.6498  -11.1204    2.2357 H   0  0  0  0  0  0  0  0  0  0  0  0
   13.2070  -11.7680   -0.4090 H   0  0  0  0  0  0  0  0  0  0  0  0
   13.7710  -12.5530   -1.8880 H   0  0  0  0  0  0  0  0  0  0  0  0
   12.9147  -15.7084   -2.5355 H   0  0  0  0  0  0  0  0  0  0  0  0
   14.4725  -16.3894   -4.3576 H   0  0  0  0  0  0  0  0  0  0  0  0
   15.8340  -14.7420   -6.6190 H   0  0  0  0  0  0  0  0  0  0  0  0
   16.2378  -17.5005   -9.8528 H   0  0  0  0  0  0  0  0  0  0  0  0
   14.5987  -16.7556   -9.8426 H   0  0  0  0  0  0  0  0  0  0  0  0
   17.0679  -15.0389  -10.1449 H   0  0  0  0  0  0  0  0  0  0  0  0
   17.1364  -16.9418  -11.8482 H   0  0  0  0  0  0  0  0  0  0  0  0
   15.6165  -16.2707  -12.5311 H   0  0  0  0  0  0  0  0  0  0  0  0
   17.1152  -15.2804  -12.5311 H   0  0  0  0  0  0  0  0  0  0  0  0
   14.8016  -14.0227   -9.7526 H   0  0  0  0  0  0  0  0  0  0  0  0
   15.5595  -13.5175  -11.3008 H   0  0  0  0  0  0  0  0  0  0  0  0
   14.2515  -14.7487  -11.3008 H   0  0  0  0  0  0  0  0  0  0  0  0
   13.3395  -12.9047   -6.6413 H   0  0  0  0  0  0  0  0  0  0  0  0
   11.7803  -12.2213   -4.8232 H   0  0  0  0  0  0  0  0  0  0  0  0
  1  2  1  0
  2  3  2  0
  3  4  1  0
  4  5  2  0
  5  6  1  0
  6  7  2  0
  7  8  1  0
  8  9  2  0
  9 10  1  0
 10 11  1  0
 11 12  1  0
 12 13  1  0
 13 14  1  0
 14 15  1  0
 14 16  1  0
 16 17  1  0
 10 18  2  0
  5 19  1  0
 19 20  2  0
 20 21  1  0
 21 22  1  0
 22 23  1  0
 22 24  2  0
 24 25  1  0
 25 26  2  0
 26 27  1  0
 27 28  2  0
 28 29  1  0
 29 30  1  0
 30 31  2  0
 30 32  1  0
 32 33  1  0
 33 34  1  0
 34 35  1  0
 34 36  1  0
 28 37  1  0
 37 38  2  0
 24  2  1  0
 38 25  1  0
 21  4  1  0
 18  6  1  0
 17 11  1  0
  1 39  1  0
  1 40  1  0
  1 41  1  0
  7 42  1  0
  8 43  1  0
  9 44  1  0
 12 45  1  0
 12 46  1  0
 13 47  1  0
 13 48  1  0
 14 49  1  0
 15 50  1  0
 15 51  1  0
 15 52  1  0
 16 53  1  0
 16 54  1  0
 17 55  1  0
 17 56  1  0
 18 57  1  0
 19 58  1  0
 23 59  1  0
 23 60  1  0
 26 61  1  0
 27 62  1  0
 29 63  1  0
 33 64  1  0
 33 65  1  0
 34 66  1  0
 35 67  1  0
 35 68  1  0
 35 69  1  0
 36 70  1  0
 36 71  1  0
 36 72  1  0
 37 73  1  0
 38 74  1  0
M  CHG  1  14   1
M  END
>  <meeko>  (8) 
{"is_sidechain": [false], "free_energy": -7.588, "intermolecular_energy": -10.988, "internal_energy": -1.087}

$$$$
LIB_LVPFKJJHXQHRCM__M_PUB_ALL__e8__s20260927
     RDKit          3D

 74 78  0  0  0  0  0  0  0  0999 V2000
   -0.9260  -12.9020    2.5880 C   0  0  0  0  0  0  0  0  0  0  0  0
   -0.6170  -14.3460    2.9200 C   0  0  0  0  0  0  0  0  0  0  0  0
   -1.2440  -14.8640    3.9380 N   0  0  0  0  0  0  0  0  0  0  0  0
   -0.9690  -16.1680    4.2390 C   0  0  0  0  0  0  0  0  0  0  0  0
   -1.4410  -17.0110    5.2300 C   0  0  0  0  0  0  0  0  0  0  0  0
   -2.4090  -16.6560    6.2550 C   0  0  0  0  0  0  0  0  0  0  0  0
   -1.9970  -16.2550    7.5270 C   0  0  0  0  0  0  0  0  0  0  0  0
   -2.9410  -15.9060    8.4890 C   0  0  0  0  0  0  0  0  0  0  0  0
   -4.3030  -15.9630    8.1840 C   0  0  0  0  0  0  0  0  0  0  0  0
   -4.7590  -16.3720    6.9220 C   0  0  0  0  0  0  0  0  0  0  0  0
   -6.1290  -16.4320    6.6520 N   0  0  0  0  0  0  0  0  0  0  0  0
   -7.0330  -15.4700    7.2990 C   0  0  0  0  0  0  0  0  0  0  0  0
   -8.4880  -15.9810    7.2870 C   0  0  0  0  0  0  0  0  0  0  0  0
   -8.9120  -16.3580    5.8710 N   0  0  0  0  0  0  0  0  0  0  0  0
  -10.3480  -16.7770    5.8040 C   0  0  0  0  0  0  0  0  0  0  0  0
   -7.9750  -17.4220    5.3070 C   0  0  0  0  0  0  0  0  0  0  0  0
   -6.5160  -16.9250    5.3160 C   0  0  0  0  0  0  0  0  0  0  0  0
   -3.7850  -16.7020    5.9650 C   0  0  0  0  0  0  0  0  0  0  0  0
   -0.7620  -18.2250    5.0140 C   0  0  0  0  0  0  0  0  0  0  0  0
    0.0830  -18.1850    3.9870 N   0  0  0  0  0  0  0  0  0  0  0  0
   -0.0480  -16.9140    3.4950 N   0  0  0  0  0  0  0  0  0  0  0  0
    0.6410  -16.3580    2.3860 C   0  0  0  0  0  0  0  0  0  0  0  0
    1.5270  -17.1900    1.7300 N   0  0  0  0  0  0  0  0  0  0  0  0
    0.3880  -15.0720    2.0540 C   0  0  0  0  0  0  0  0  0  0  0  0
    1.0550  -14.4130    0.9230 C   0  0  0  0  0  0  0  0  0  0  0  0
    0.5030  -14.4760   -0.3590 C   0  0  0  0  0  0  0  0  0  0  0  0
    1.1470  -13.8530   -1.4340 C   0  0  0  0  0  0  0  0  0  0  0  0
    2.3500  -13.1640   -1.2440 C   0  0  0  0  0  0  0  0  0  0  0  0
    2.9340  -12.5650   -2.3720 N   0  0  0  0  0  0  0  0  0  0  0  0
    2.6880  -11.3300   -2.9020 C   0  0  0  0  0  0  0  0  0  0  0  0
    1.9030  -10.4830   -2.5060 O   0  0  0  0  0  0  0  0  0  0  0  0
    3.4870  -11.1790   -3.9920 O   0  0  0  0  0  0  0  0  0  0  0  0
    4.7490  -11.8550   -3.9030 C   0  0  0  0  0  0  0  0  0  0  0  0
    5.0390  -12.6020   -5.2130 C   0  0  0  0  0  0  0  0  0  0  0  0
    4.4010  -13.9920   -5.2130 C   0  0  0  0  0  0  0  0  0  0  0  0
    4.5550  -11.8050   -6.4260 C   0  0  0  0  0  0  0  0  0  0  0  0
    2.9030  -13.1110    0.0370 C   0  0  0  0  0  0  0  0  0  0  0  0
    2.2620  -13.7320    1.1140 C   0  0  0  0  0  0  0  0  0  0  0  0
   -1.0485  -12.3297    3.5194 H   0  0  0  0  0  0  0  0  0  0  0  0
   -0.0988  -12.4755    2.0017 H   0  0  0  0  0  0  0  0  0  0  0  0
   -1.8553  -12.8513    2.0017 H   0  0  0  0  0  0  0  0  0  0  0  0
   -0.9249  -16.2147    7.7697 H   0  0  0  0  0  0  0  0  0  0  0  0
   -2.6143  -15.5854    9.4892 H   0  0  0  0  0  0  0  0  0  0  0  0
   -5.0367  -15.6799    8.9531 H   0  0  0  0  0  0  0  0  0  0  0  0
   -6.7131  -15.3210    8.3409 H   0  0  0  0  0  0  0  0  0  0  0  0
   -6.9909  -14.5221    6.7424 H   0  0  0  0  0  0  0  0  0  0  0  0
   -8.5659  -16.8660    7.9356 H   0  0  0  0  0  0  0  0  0  0  0  0
   -9.1481  -15.1814    7.6542 H   0  0  0  0  0  0  0  0  0  0  0  0
   -8.8010  -15.5190    5.2870 H   0  0  0  0  0  0  0  0  0  0  0  0
  -10.7442  -16.8926    6.8236 H   0  0  0  0  0  0  0  0  0  0  0  0
  -10.9289  -16.0109    5.2696 H   0  0  0  0  0  0  0  0  0  0  0  0
  -10.4258  -17.7353    5.2696 H   0  0  0  0  0  0  0  0  0  0  0  0
   -8.0502  -18.3314    5.9213 H   0  0  0  0  0  0  0  0  0  0  0  0
   -8.2685  -17.6366    4.2688 H   0  0  0  0  0  0  0  0  0  0  0  0
   -5.8522  -17.7555    5.0337 H   0  0  0  0  0  0  0  0  0  0  0  0
   -6.4258  -16.0958    4.5989 H   0  0  0  0  0  0  0  0  0  0  0  0
   -4.1079  -17.0056    4.9583 H   0  0  0  0  0  0  0  0  0  0  0  0
   -0.9152  -19.1203    5.6344 H   0  0  0  0  0  0  0  0  0  0  0  0
    2.0210  -16.8100    0.9230 H   0  0  0  0  0  0  0  0  0  0  0  0
    1.6760  -18.1460    2.0260 H   0  0  0  0  0  0  0  0  0  0  0  0
   -0.4406  -15.0169   -0.5238 H   0  0  0  0  0  0  0  0  0  0  0  0
    0.7028  -13.9055   -2.4390 H   0  0  0  0  0  0  0  0  0  0  0  0
    3.6330  -13.0850   -2.8840 H   0  0  0  0  0  0  0  0  0  0  0  0
    5.5448  -11.1179   -3.7202 H   0  0  0  0  0  0  0  0  0  0  0  0
    4.7131  -12.5787   -3.0754 H   0  0  0  0  0  0  0  0  0  0  0  0
    6.1305  -12.7186   -5.2843 H   0  0  0  0  0  0  0  0  0  0  0  0
    4.2480  -14.3252   -4.1759 H   0  0  0  0  0  0  0  0  0  0  0  0
    3.4318  -13.9506   -5.7315 H   0  0  0  0  0  0  0  0  0  0  0  0
    5.0643  -14.6999   -5.7315 H   0  0  0  0  0  0  0  0  0  0  0  0
    4.0122  -10.9112   -6.0846 H   0  0  0  0  0  0  0  0  0  0  0  0
    5.4201  -11.4992   -7.0327 H   0  0  0  0  0  0  0  0  0  0  0  0
    3.8847  -12.4316   -7.0327 H   0  0  0  0  0  0  0  0  0  0  0  0
    3.8504  -12.5765    0.2005 H   0  0  0  0  0  0  0  0  0  0  0  0
    2.7098  -13.6846    2.1176 H   0  0  0  0  0  0  0  0  0  0  0  0
  1  2  1  0
  2  3  2  0
  3  4  1  0
  4  5  2  0
  5  6  1  0
  6  7  2  0
  7  8  1  0
  8  9  2  0
  9 10  1  0
 10 11  1  0
 11 12  1  0
 12 13  1  0
 13 14  1  0
 14 15  1  0
 14 16  1  0
 16 17  1  0
 10 18  2  0
  5 19  1  0
 19 20  2  0
 20 21  1  0
 21 22  1  0
 22 23  1  0
 22 24  2  0
 24 25  1  0
 25 26  2  0
 26 27  1  0
 27 28  2  0
 28 29  1  0
 29 30  1  0
 30 31  2  0
 30 32  1  0
 32 33  1  0
 33 34  1  0
 34 35  1  0
 34 36  1  0
 28 37  1  0
 37 38  2  0
 24  2  1  0
 38 25  1  0
 21  4  1  0
 18  6  1  0
 17 11  1  0
  1 39  1  0
  1 40  1  0
  1 41  1  0
  7 42  1  0
  8 43  1  0
  9 44  1  0
 12 45  1  0
 12 46  1  0
 13 47  1  0
 13 48  1  0
 14 49  1  0
 15 50  1  0
 15 51  1  0
 15 52  1  0
 16 53  1  0
 16 54  1  0
 17 55  1  0
 17 56  1  0
 18 57  1  0
 19 58  1  0
 23 59  1  0
 23 60  1  0
 26 61  1  0
 27 62  1  0
 29 63  1  0
 33 64  1  0
 33 65  1  0
 34 66  1  0
 35 67  1  0
 35 68  1  0
 35 69  1  0
 36 70  1  0
 36 71  1  0
 36 72  1  0
 37 73  1  0
 38 74  1  0
M  CHG  1  14   1
M  END
>  <meeko>  (9) 
{"is_sidechain": [false], "free_energy": -7.548, "intermolecular_energy": -10.761, "internal_energy": -1.255}

$$$$
