LIB_WZFZONITOFUGNM__M_PUB_ALL__e8__s20260927
     RDKit          3D

 56 60  0  0  0  0  0  0  0  0999 V2000
   -2.4630   -8.8530    1.3240 O   0  0  0  0  0  0  0  0  0  0  0  0
   -1.6060   -9.3630    2.3730 S   0  0  0  0  0  0  0  0  0  0  0  0
   -1.7150   -8.8810    3.7330 O   0  0  0  0  0  0  0  0  0  0  0  0
    0.0110   -9.1690    1.9290 N   0  0  0  0  0  0  0  0  0  0  0  0
    0.4970   -9.8390    0.7720 C   0  0  0  0  0  0  0  0  0  0  0  0
    0.2400   -9.2960   -0.4860 C   0  0  0  0  0  0  0  0  0  0  0  0
    0.7510   -9.9180   -1.6220 C   0  0  0  0  0  0  0  0  0  0  0  0
    1.5230  -11.0760   -1.4980 C   0  0  0  0  0  0  0  0  0  0  0  0
    1.7980  -11.6300   -0.2370 C   0  0  0  0  0  0  0  0  0  0  0  0
    2.6160  -12.8650   -0.1380 C   0  0  0  0  0  0  0  0  0  0  0  0
    3.5980  -13.0990   -1.0360 C   0  0  0  0  0  0  0  0  0  0  0  0
    4.3280  -14.2620   -0.9190 N   0  0  0  0  0  0  0  0  0  0  0  0
    5.3640  -14.7790   -1.6480 C   0  0  0  0  0  0  0  0  0  0  0  0
    5.6670  -15.9780   -1.0360 C   0  0  0  0  0  0  0  0  0  0  0  0
    4.8450  -16.2110    0.0410 N   0  0  0  0  0  0  0  0  0  0  0  0
    4.0570  -15.1560    0.0780 C   0  0  0  0  0  0  0  0  0  0  0  0
    2.9860  -14.8700    1.0140 C   0  0  0  0  0  0  0  0  0  0  0  0
    2.6920  -15.7520    2.0240 N   0  0  0  0  0  0  0  0  0  0  0  0
    1.6730  -15.5410    3.0120 C   0  0  0  0  0  0  0  0  0  0  0  0
    0.4990  -16.4410    2.7270 C   0  0  0  0  0  0  0  0  0  0  0  0
   -0.2500  -16.9920    3.7720 C   0  0  0  0  0  0  0  0  0  0  0  0
   -1.3370  -17.7930    3.4590 C   0  0  0  0  0  0  0  0  0  0  0  0
   -1.7240  -18.0730    2.1970 N   0  0  0  0  0  0  0  0  0  0  0  0
   -0.9980  -17.5200    1.2020 C   0  0  0  0  0  0  0  0  0  0  0  0
    0.1040  -16.7060    1.4130 C   0  0  0  0  0  0  0  0  0  0  0  0
    2.3010  -13.7550    0.8830 N   0  0  0  0  0  0  0  0  0  0  0  0
    1.2590  -11.0020    0.8950 C   0  0  0  0  0  0  0  0  0  0  0  0
   -1.7950  -11.1340    2.4250 C   0  0  0  0  0  0  0  0  0  0  0  0
   -1.1240  -11.8750    3.4010 C   0  0  0  0  0  0  0  0  0  0  0  0
   -1.2640  -13.2620    3.4280 C   0  0  0  0  0  0  0  0  0  0  0  0
   -2.0630  -13.9040    2.4780 C   0  0  0  0  0  0  0  0  0  0  0  0
   -2.7340  -13.1670    1.4870 C   0  0  0  0  0  0  0  0  0  0  0  0
   -3.5740  -13.8650    0.4430 C   0  0  0  0  0  0  0  0  0  0  0  0
   -3.3250  -13.4100   -0.8140 F   0  0  0  0  0  0  0  0  0  0  0  0
   -3.3730  -15.2110    0.4060 F   0  0  0  0  0  0  0  0  0  0  0  0
   -4.9110  -13.6950    0.6490 F   0  0  0  0  0  0  0  0  0  0  0  0
   -2.5830  -11.7710    1.4590 C   0  0  0  0  0  0  0  0  0  0  0  0
    0.6290   -9.0940    2.7360 H   0  0  0  0  0  0  0  0  0  0  0  0
   -0.3633   -8.3811   -0.5806 H   0  0  0  0  0  0  0  0  0  0  0  0
    0.5468   -9.4975   -2.6177 H   0  0  0  0  0  0  0  0  0  0  0  0
    1.9213  -11.5610   -2.4014 H   0  0  0  0  0  0  0  0  0  0  0  0
    3.8095  -12.3792   -1.8404 H   0  0  0  0  0  0  0  0  0  0  0  0
    5.8495  -14.3355   -2.5298 H   0  0  0  0  0  0  0  0  0  0  0  0
    6.4640  -16.6599   -1.3674 H   0  0  0  0  0  0  0  0  0  0  0  0
    3.2610  -16.5920    2.0760 H   0  0  0  0  0  0  0  0  0  0  0  0
    2.0767  -15.7705    4.0092 H   0  0  0  0  0  0  0  0  0  0  0  0
    1.3450  -14.4915    2.9803 H   0  0  0  0  0  0  0  0  0  0  0  0
    0.0181  -16.7938    4.8203 H   0  0  0  0  0  0  0  0  0  0  0  0
   -1.9177  -18.2254    4.2872 H   0  0  0  0  0  0  0  0  0  0  0  0
   -1.2982  -17.7273    0.1643 H   0  0  0  0  0  0  0  0  0  0  0  0
    0.6562  -16.2775    0.5636 H   0  0  0  0  0  0  0  0  0  0  0  0
    1.4388  -11.4310    1.8918 H   0  0  0  0  0  0  0  0  0  0  0  0
   -0.4897  -11.3678    4.1429 H   0  0  0  0  0  0  0  0  0  0  0  0
   -0.7449  -13.8516    4.1980 H   0  0  0  0  0  0  0  0  0  0  0  0
   -2.1680  -14.9986    2.5062 H   0  0  0  0  0  0  0  0  0  0  0  0
   -3.0834  -11.1787    0.6788 H   0  0  0  0  0  0  0  0  0  0  0  0
  1  2  2  0
  2  3  2  0
  2  4  1  0
  4  5  1  0
  5  6  2  0
  6  7  1  0
  7  8  2  0
  8  9  1  0
  9 10  1  0
 10 11  2  0
 11 12  1  0
 12 13  1  0
 13 14  2  0
 14 15  1  0
 15 16  2  0
 16 17  1  0
 17 18  1  0
 18 19  1  0
 19 20  1  0
 20 21  2  0
 21 22  1  0
 22 23  2  0
 23 24  1  0
 24 25  2  0
 17 26  2  0
  9 27  2  0
  2 28  1  0
 28 29  2  0
 29 30  1  0
 30 31  2  0
 31 32  1  0
 32 33  1  0
 33 34  1  0
 33 35  1  0
 33 36  1  0
 32 37  2  0
 27  5  1  0
 37 28  1  0
 26 10  1  0
 16 12  1  0
 25 20  1  0
  4 38  1  0
  6 39  1  0
  7 40  1  0
  8 41  1  0
 11 42  1  0
 13 43  1  0
 14 44  1  0
 18 45  1  0
 19 46  1  0
 19 47  1  0
 21 48  1  0
 22 49  1  0
 24 50  1  0
 25 51  1  0
 27 52  1  0
 29 53  1  0
 30 54  1  0
 31 55  1  0
 37 56  1  0
M  END
>  <meeko>  (1) 
{"is_sidechain": [false], "free_energy": -8.293, "intermolecular_energy": -11.687, "internal_energy": -2.466}

$$$$
LIB_WZFZONITOFUGNM__M_PUB_ALL__e8__s20260927
     RDKit          3D

 56 60  0  0  0  0  0  0  0  0999 V2000
    5.5300  -15.1980   -5.6340 O   0  0  0  0  0  0  0  0  0  0  0  0
    6.6250  -14.3500   -6.0550 S   0  0  0  0  0  0  0  0  0  0  0  0
    7.8510  -14.2700   -5.2900 O   0  0  0  0  0  0  0  0  0  0  0  0
    6.0750  -12.7630   -6.2370 N   0  0  0  0  0  0  0  0  0  0  0  0
    5.1640  -12.2330   -5.2830 C   0  0  0  0  0  0  0  0  0  0  0  0
    4.1170  -11.4230   -5.7200 C   0  0  0  0  0  0  0  0  0  0  0  0
    3.1910  -10.9370   -4.8000 C   0  0  0  0  0  0  0  0  0  0  0  0
    3.3100  -11.2690   -3.4470 C   0  0  0  0  0  0  0  0  0  0  0  0
    4.3530  -12.0910   -2.9930 C   0  0  0  0  0  0  0  0  0  0  0  0
    4.4560  -12.4200   -1.5490 C   0  0  0  0  0  0  0  0  0  0  0  0
    5.6680  -12.6040   -0.9820 C   0  0  0  0  0  0  0  0  0  0  0  0
    5.7230  -12.9200    0.3580 N   0  0  0  0  0  0  0  0  0  0  0  0
    6.7670  -13.1600    1.2080 C   0  0  0  0  0  0  0  0  0  0  0  0
    6.1810  -13.4250    2.4280 C   0  0  0  0  0  0  0  0  0  0  0  0
    4.8100  -13.3580    2.3490 N   0  0  0  0  0  0  0  0  0  0  0  0
    4.5760  -13.0510    1.0890 C   0  0  0  0  0  0  0  0  0  0  0  0
    3.2940  -12.8560    0.4380 C   0  0  0  0  0  0  0  0  0  0  0  0
    2.1270  -12.9830    1.1490 N   0  0  0  0  0  0  0  0  0  0  0  0
    0.8170  -12.7800    0.5980 C   0  0  0  0  0  0  0  0  0  0  0  0
    0.2680  -11.4600    1.0730 C   0  0  0  0  0  0  0  0  0  0  0  0
    0.7380  -10.2570    0.5380 C   0  0  0  0  0  0  0  0  0  0  0  0
    0.1820   -9.0690    0.9880 C   0  0  0  0  0  0  0  0  0  0  0  0
   -0.7960   -9.0020    1.9150 N   0  0  0  0  0  0  0  0  0  0  0  0
   -1.2460  -10.1750    2.4090 C   0  0  0  0  0  0  0  0  0  0  0  0
   -0.7570  -11.4130    2.0220 C   0  0  0  0  0  0  0  0  0  0  0  0
    3.2650  -12.5560   -0.8420 N   0  0  0  0  0  0  0  0  0  0  0  0
    5.2880  -12.5550   -3.9300 C   0  0  0  0  0  0  0  0  0  0  0  0
    7.0700  -14.8100   -7.7180 C   0  0  0  0  0  0  0  0  0  0  0  0
    7.7330  -16.0180   -7.9500 C   0  0  0  0  0  0  0  0  0  0  0  0
    8.0910  -16.3660   -9.2510 C   0  0  0  0  0  0  0  0  0  0  0  0
    7.7960  -15.5060  -10.3120 C   0  0  0  0  0  0  0  0  0  0  0  0
    7.1380  -14.2850  -10.0870 C   0  0  0  0  0  0  0  0  0  0  0  0
    6.8460  -13.3430  -11.2320 C   0  0  0  0  0  0  0  0  0  0  0  0
    5.6550  -13.6090  -11.8320 F   0  0  0  0  0  0  0  0  0  0  0  0
    6.7960  -12.0360  -10.8510 F   0  0  0  0  0  0  0  0  0  0  0  0
    7.7870  -13.4070  -12.2150 F   0  0  0  0  0  0  0  0  0  0  0  0
    6.7870  -13.9350   -8.7730 C   0  0  0  0  0  0  0  0  0  0  0  0
    5.9530  -12.5040   -7.2150 H   0  0  0  0  0  0  0  0  0  0  0  0
    4.0226  -11.1689   -6.7861 H   0  0  0  0  0  0  0  0  0  0  0  0
    2.3663  -10.2922   -5.1378 H   0  0  0  0  0  0  0  0  0  0  0  0
    2.5748  -10.8799   -2.7273 H   0  0  0  0  0  0  0  0  0  0  0  0
    6.5887  -12.5040   -1.5755 H   0  0  0  0  0  0  0  0  0  0  0  0
    7.8409  -13.1450    0.9703 H   0  0  0  0  0  0  0  0  0  0  0  0
    6.7389  -13.6598    3.3465 H   0  0  0  0  0  0  0  0  0  0  0  0
    2.2160  -13.2090    2.1350 H   0  0  0  0  0  0  0  0  0  0  0  0
    0.8782  -12.7771   -0.5003 H   0  0  0  0  0  0  0  0  0  0  0  0
    0.1522  -13.5920    0.9276 H   0  0  0  0  0  0  0  0  0  0  0  0
    1.5318  -10.2529   -0.2235 H   0  0  0  0  0  0  0  0  0  0  0  0
    0.5602   -8.1268    0.5647 H   0  0  0  0  0  0  0  0  0  0  0  0
   -2.0471  -10.1467    3.1623 H   0  0  0  0  0  0  0  0  0  0  0  0
   -1.1669  -12.3385    2.4526 H   0  0  0  0  0  0  0  0  0  0  0  0
    6.1289  -13.1800   -3.5949 H   0  0  0  0  0  0  0  0  0  0  0  0
    7.9706  -16.6894   -7.1117 H   0  0  0  0  0  0  0  0  0  0  0  0
    8.6063  -17.3187   -9.4429 H   0  0  0  0  0  0  0  0  0  0  0  0
    8.0824  -15.7882  -11.3359 H   0  0  0  0  0  0  0  0  0  0  0  0
    6.2902  -12.9741   -8.5732 H   0  0  0  0  0  0  0  0  0  0  0  0
  1  2  2  0
  2  3  2  0
  2  4  1  0
  4  5  1  0
  5  6  2  0
  6  7  1  0
  7  8  2  0
  8  9  1  0
  9 10  1  0
 10 11  2  0
 11 12  1  0
 12 13  1  0
 13 14  2  0
 14 15  1  0
 15 16  2  0
 16 17  1  0
 17 18  1  0
 18 19  1  0
 19 20  1  0
 20 21  2  0
 21 22  1  0
 22 23  2  0
 23 24  1  0
 24 25  2  0
 17 26  2  0
  9 27  2  0
  2 28  1  0
 28 29  2  0
 29 30  1  0
 30 31  2  0
 31 32  1  0
 32 33  1  0
 33 34  1  0
 33 35  1  0
 33 36  1  0
 32 37  2  0
 27  5  1  0
 37 28  1  0
 26 10  1  0
 16 12  1  0
 25 20  1  0
  4 38  1  0
  6 39  1  0
  7 40  1  0
  8 41  1  0
 11 42  1  0
 13 43  1  0
 14 44  1  0
 18 45  1  0
 19 46  1  0
 19 47  1  0
 21 48  1  0
 22 49  1  0
 24 50  1  0
 25 51  1  0
 27 52  1  0
 29 53  1  0
 30 54  1  0
 31 55  1  0
 37 56  1  0
M  END
>  <meeko>  (2) 
{"is_sidechain": [false], "free_energy": -8.052, "intermolecular_energy": -12.781, "internal_energy": -1.031}

$$$$
LIB_WZFZONITOFUGNM__M_PUB_ALL__e8__s20260927
     RDKit          3D

 56 60  0  0  0  0  0  0  0  0999 V2000
    1.8290  -12.6980    0.7230 O   0  0  0  0  0  0  0  0  0  0  0  0
    1.6780  -13.9600    0.0310 S   0  0  0  0  0  0  0  0  0  0  0  0
    0.5080  -14.7890    0.2260 O   0  0  0  0  0  0  0  0  0  0  0  0
    3.0140  -14.9440    0.3480 N   0  0  0  0  0  0  0  0  0  0  0  0
    4.2340  -14.3420    0.7620 C   0  0  0  0  0  0  0  0  0  0  0  0
    4.4520  -14.1140    2.1200 C   0  0  0  0  0  0  0  0  0  0  0  0
    5.6630  -13.5690    2.5410 C   0  0  0  0  0  0  0  0  0  0  0  0
    6.6540  -13.2620    1.6050 C   0  0  0  0  0  0  0  0  0  0  0  0
    6.4530  -13.4950    0.2360 C   0  0  0  0  0  0  0  0  0  0  0  0
    7.5230  -13.1520   -0.7350 C   0  0  0  0  0  0  0  0  0  0  0  0
    8.7800  -12.9190   -0.3000 C   0  0  0  0  0  0  0  0  0  0  0  0
    9.7440  -12.5910   -1.2290 N   0  0  0  0  0  0  0  0  0  0  0  0
   11.0760  -12.3060   -1.1160 C   0  0  0  0  0  0  0  0  0  0  0  0
   11.4990  -12.0540   -2.4050 C   0  0  0  0  0  0  0  0  0  0  0  0
   10.4640  -12.1740   -3.3020 N   0  0  0  0  0  0  0  0  0  0  0  0
    9.4280  -12.4980   -2.5560 C   0  0  0  0  0  0  0  0  0  0  0  0
    8.0620  -12.7460   -2.9780 C   0  0  0  0  0  0  0  0  0  0  0  0
    7.7180  -12.6580   -4.3030 N   0  0  0  0  0  0  0  0  0  0  0  0
    6.4020  -12.9130   -4.8170 C   0  0  0  0  0  0  0  0  0  0  0  0
    6.3290  -14.3240   -5.3420 C   0  0  0  0  0  0  0  0  0  0  0  0
    7.0930  -14.7150   -6.4460 C   0  0  0  0  0  0  0  0  0  0  0  0
    7.0110  -16.0310   -6.8750 C   0  0  0  0  0  0  0  0  0  0  0  0
    6.2390  -16.9670   -6.2850 N   0  0  0  0  0  0  0  0  0  0  0  0
    5.5220  -16.5730   -5.2120 C   0  0  0  0  0  0  0  0  0  0  0  0
    5.5360  -15.2830   -4.7060 C   0  0  0  0  0  0  0  0  0  0  0  0
    7.1580  -13.0560   -2.0740 N   0  0  0  0  0  0  0  0  0  0  0  0
    5.2210  -14.0260   -0.1730 C   0  0  0  0  0  0  0  0  0  0  0  0
    1.8190  -13.6500   -1.7180 C   0  0  0  0  0  0  0  0  0  0  0  0
    1.4050  -14.6240   -2.6310 C   0  0  0  0  0  0  0  0  0  0  0  0
    1.5310  -14.3810   -3.9980 C   0  0  0  0  0  0  0  0  0  0  0  0
    2.0770  -13.1770   -4.4480 C   0  0  0  0  0  0  0  0  0  0  0  0
    2.5050  -12.1960   -3.5370 C   0  0  0  0  0  0  0  0  0  0  0  0
    3.1210  -10.9050   -4.0240 C   0  0  0  0  0  0  0  0  0  0  0  0
    2.3720   -9.8180   -3.7010 F   0  0  0  0  0  0  0  0  0  0  0  0
    4.3620  -10.6770   -3.5120 F   0  0  0  0  0  0  0  0  0  0  0  0
    3.2670  -10.8750   -5.3790 F   0  0  0  0  0  0  0  0  0  0  0  0
    2.3830  -12.4480   -2.1600 C   0  0  0  0  0  0  0  0  0  0  0  0
    3.0620  -15.7480   -0.2760 H   0  0  0  0  0  0  0  0  0  0  0  0
    3.6723  -14.3630    2.8549 H   0  0  0  0  0  0  0  0  0  0  0  0
    5.8391  -13.3803    3.6103 H   0  0  0  0  0  0  0  0  0  0  0  0
    7.6066  -12.8309    1.9467 H   0  0  0  0  0  0  0  0  0  0  0  0
    9.0285  -12.9892    0.7693 H   0  0  0  0  0  0  0  0  0  0  0  0
   11.6798  -12.2826   -0.1968 H   0  0  0  0  0  0  0  0  0  0  0  0
   12.5312  -11.7910   -2.6795 H   0  0  0  0  0  0  0  0  0  0  0  0
    8.4620  -12.4210   -4.9530 H   0  0  0  0  0  0  0  0  0  0  0  0
    5.6632  -12.7830   -4.0125 H   0  0  0  0  0  0  0  0  0  0  0  0
    6.1855  -12.2079   -5.6331 H   0  0  0  0  0  0  0  0  0  0  0  0
    7.7444  -13.9947   -6.9625 H   0  0  0  0  0  0  0  0  0  0  0  0
    7.6106  -16.3294   -7.7476 H   0  0  0  0  0  0  0  0  0  0  0  0
    4.8893  -17.3195   -4.7095 H   0  0  0  0  0  0  0  0  0  0  0  0
    4.9358  -15.0195   -3.8227 H   0  0  0  0  0  0  0  0  0  0  0  0
    5.0304  -14.1954   -1.2430 H   0  0  0  0  0  0  0  0  0  0  0  0
    0.9830  -15.5749   -2.2737 H   0  0  0  0  0  0  0  0  0  0  0  0
    1.1998  -15.1388   -4.7233 H   0  0  0  0  0  0  0  0  0  0  0  0
    2.1733  -12.9942   -5.5284 H   0  0  0  0  0  0  0  0  0  0  0  0
    2.7303  -11.7015   -1.4305 H   0  0  0  0  0  0  0  0  0  0  0  0
  1  2  2  0
  2  3  2  0
  2  4  1  0
  4  5  1  0
  5  6  2  0
  6  7  1  0
  7  8  2  0
  8  9  1  0
  9 10  1  0
 10 11  2  0
 11 12  1  0
 12 13  1  0
 13 14  2  0
 14 15  1  0
 15 16  2  0
 16 17  1  0
 17 18  1  0
 18 19  1  0
 19 20  1  0
 20 21  2  0
 21 22  1  0
 22 23  2  0
 23 24  1  0
 24 25  2  0
 17 26  2  0
  9 27  2  0
  2 28  1  0
 28 29  2  0
 29 30  1  0
 30 31  2  0
 31 32  1  0
 32 33  1  0
 33 34  1  0
 33 35  1  0
 33 36  1  0
 32 37  2  0
 27  5  1  0
 37 28  1  0
 26 10  1  0
 16 12  1  0
 25 20  1  0
  4 38  1  0
  6 39  1  0
  7 40  1  0
  8 41  1  0
 11 42  1  0
 13 43  1  0
 14 44  1  0
 18 45  1  0
 19 46  1  0
 19 47  1  0
 21 48  1  0
 22 49  1  0
 24 50  1  0
 25 51  1  0
 27 52  1  0
 29 53  1  0
 30 54  1  0
 31 55  1  0
 37 56  1  0
M  END
>  <meeko>  (3) 
{"is_sidechain": [false], "free_energy": -8.046, "intermolecular_energy": -11.427, "internal_energy": -2.377}

$$$$
LIB_WZFZONITOFUGNM__M_PUB_ALL__e8__s20260927
     RDKit          3D

 56 60  0  0  0  0  0  0  0  0999 V2000
   -4.4840  -13.9070    1.0650 O   0  0  0  0  0  0  0  0  0  0  0  0
   -3.0640  -13.9830    0.7980 S   0  0  0  0  0  0  0  0  0  0  0  0
   -2.5620  -14.2500   -0.5330 O   0  0  0  0  0  0  0  0  0  0  0  0
   -2.3570  -15.1350    1.8110 N   0  0  0  0  0  0  0  0  0  0  0  0
   -0.9540  -15.0890    2.0380 C   0  0  0  0  0  0  0  0  0  0  0  0
   -0.4810  -14.7070    3.2930 C   0  0  0  0  0  0  0  0  0  0  0  0
    0.8890  -14.7040    3.5410 C   0  0  0  0  0  0  0  0  0  0  0  0
    1.7820  -15.0910    2.5370 C   0  0  0  0  0  0  0  0  0  0  0  0
    1.3210  -15.4870    1.2720 C   0  0  0  0  0  0  0  0  0  0  0  0
    2.2940  -15.8860    0.2250 C   0  0  0  0  0  0  0  0  0  0  0  0
    3.3040  -16.7310    0.5270 C   0  0  0  0  0  0  0  0  0  0  0  0
    4.1950  -17.0690   -0.4690 N   0  0  0  0  0  0  0  0  0  0  0  0
    5.2950  -17.8810   -0.4860 C   0  0  0  0  0  0  0  0  0  0  0  0
    5.7710  -17.8100   -1.7790 C   0  0  0  0  0  0  0  0  0  0  0  0
    4.9960  -16.9770   -2.5510 N   0  0  0  0  0  0  0  0  0  0  0  0
    4.0610  -16.5530   -1.7270 C   0  0  0  0  0  0  0  0  0  0  0  0
    2.9680  -15.6400   -2.0050 C   0  0  0  0  0  0  0  0  0  0  0  0
    2.8110  -15.1070   -3.2600 N   0  0  0  0  0  0  0  0  0  0  0  0
    1.7460  -14.2200   -3.6360 C   0  0  0  0  0  0  0  0  0  0  0  0
    2.2930  -12.8300   -3.8360 C   0  0  0  0  0  0  0  0  0  0  0  0
    2.0870  -11.8360   -2.8740 C   0  0  0  0  0  0  0  0  0  0  0  0
    2.6330  -10.5800   -3.0920 C   0  0  0  0  0  0  0  0  0  0  0  0
    3.3610  -10.2560   -4.1810 N   0  0  0  0  0  0  0  0  0  0  0  0
    3.5610  -11.2340   -5.0900 C   0  0  0  0  0  0  0  0  0  0  0  0
    3.0590  -12.5190   -4.9630 C   0  0  0  0  0  0  0  0  0  0  0  0
    2.1300  -15.3300   -1.0400 N   0  0  0  0  0  0  0  0  0  0  0  0
   -0.0610  -15.4650    1.0330 C   0  0  0  0  0  0  0  0  0  0  0  0
   -2.3190  -12.4610    1.3470 C   0  0  0  0  0  0  0  0  0  0  0  0
   -2.7780  -11.8440    2.5140 C   0  0  0  0  0  0  0  0  0  0  0  0
   -2.2010  -10.6460    2.9300 C   0  0  0  0  0  0  0  0  0  0  0  0
   -1.1770  -10.0630    2.1790 C   0  0  0  0  0  0  0  0  0  0  0  0
   -0.7160  -10.6710    0.9990 C   0  0  0  0  0  0  0  0  0  0  0  0
    0.3720  -10.0250    0.1730 C   0  0  0  0  0  0  0  0  0  0  0  0
    0.0020   -9.8470   -1.1240 F   0  0  0  0  0  0  0  0  0  0  0  0
    0.7390   -8.7980    0.6350 F   0  0  0  0  0  0  0  0  0  0  0  0
    1.5150  -10.7670    0.1410 F   0  0  0  0  0  0  0  0  0  0  0  0
   -1.3060  -11.8740    0.5790 C   0  0  0  0  0  0  0  0  0  0  0  0
   -2.8020  -16.0490    1.7300 H   0  0  0  0  0  0  0  0  0  0  0  0
   -1.1865  -14.4096    4.0828 H   0  0  0  0  0  0  0  0  0  0  0  0
    1.2689  -14.3972    4.5267 H   0  0  0  0  0  0  0  0  0  0  0  0
    2.8627  -15.0850    2.7419 H   0  0  0  0  0  0  0  0  0  0  0  0
    3.4126  -17.1392    1.5427 H   0  0  0  0  0  0  0  0  0  0  0  0
    5.7101  -18.4640    0.3494 H   0  0  0  0  0  0  0  0  0  0  0  0
    6.6565  -18.3502   -2.1451 H   0  0  0  0  0  0  0  0  0  0  0  0
    3.4860  -15.3890   -3.9640 H   0  0  0  0  0  0  0  0  0  0  0  0
    1.2897  -14.5722   -4.5729 H   0  0  0  0  0  0  0  0  0  0  0  0
    0.9866  -14.2029   -2.8404 H   0  0  0  0  0  0  0  0  0  0  0  0
    1.5048  -12.0458   -1.9646 H   0  0  0  0  0  0  0  0  0  0  0  0
    2.4627   -9.8024   -2.3328 H   0  0  0  0  0  0  0  0  0  0  0  0
    4.1572  -10.9968   -5.9834 H   0  0  0  0  0  0  0  0  0  0  0  0
    3.2591  -13.2786   -5.7330 H   0  0  0  0  0  0  0  0  0  0  0  0
   -0.4457  -15.7474    0.0419 H   0  0  0  0  0  0  0  0  0  0  0  0
   -3.5891  -12.3010    3.0999 H   0  0  0  0  0  0  0  0  0  0  0  0
   -2.5522  -10.1583    3.8513 H   0  0  0  0  0  0  0  0  0  0  0  0
   -0.7267   -9.1174    2.5153 H   0  0  0  0  0  0  0  0  0  0  0  0
   -0.9727  -12.3548   -0.3525 H   0  0  0  0  0  0  0  0  0  0  0  0
  1  2  2  0
  2  3  2  0
  2  4  1  0
  4  5  1  0
  5  6  2  0
  6  7  1  0
  7  8  2  0
  8  9  1  0
  9 10  1  0
 10 11  2  0
 11 12  1  0
 12 13  1  0
 13 14  2  0
 14 15  1  0
 15 16  2  0
 16 17  1  0
 17 18  1  0
 18 19  1  0
 19 20  1  0
 20 21  2  0
 21 22  1  0
 22 23  2  0
 23 24  1  0
 24 25  2  0
 17 26  2  0
  9 27  2  0
  2 28  1  0
 28 29  2  0
 29 30  1  0
 30 31  2  0
 31 32  1  0
 32 33  1  0
 33 34  1  0
 33 35  1  0
 33 36  1  0
 32 37  2  0
 27  5  1  0
 37 28  1  0
 26 10  1  0
 16 12  1  0
 25 20  1  0
  4 38  1  0
  6 39  1  0
  7 40  1  0
  8 41  1  0
 11 42  1  0
 13 43  1  0
 14 44  1  0
 18 45  1  0
 19 46  1  0
 19 47  1  0
 21 48  1  0
 22 49  1  0
 24 50  1  0
 25 51  1  0
 27 52  1  0
 29 53  1  0
 30 54  1  0
 31 55  1  0
 37 56  1  0
M  END
>  <meeko>  (4) 
{"is_sidechain": [false], "free_energy": -7.959, "intermolecular_energy": -11.495, "internal_energy": -2.187}

$$$$
LIB_WZFZONITOFUGNM__M_PUB_ALL__e8__s20260927
     RDKit          3D

 56 60  0  0  0  0  0  0  0  0999 V2000
   10.4990  -14.4870   -0.5780 O   0  0  0  0  0  0  0  0  0  0  0  0
   11.0160  -13.1390   -0.4840 S   0  0  0  0  0  0  0  0  0  0  0  0
   11.6200  -12.6480    0.7360 O   0  0  0  0  0  0  0  0  0  0  0  0
    9.8020  -12.0370   -0.8880 N   0  0  0  0  0  0  0  0  0  0  0  0
    8.4660  -12.2960   -0.4740 C   0  0  0  0  0  0  0  0  0  0  0  0
    8.1320  -12.1510    0.8720 C   0  0  0  0  0  0  0  0  0  0  0  0
    6.8160  -12.3560    1.2810 C   0  0  0  0  0  0  0  0  0  0  0  0
    5.8380  -12.6970    0.3430 C   0  0  0  0  0  0  0  0  0  0  0  0
    6.1570  -12.8380   -1.0160 C   0  0  0  0  0  0  0  0  0  0  0  0
    5.0970  -13.2080   -1.9870 C   0  0  0  0  0  0  0  0  0  0  0  0
    3.8240  -13.3740   -1.5670 C   0  0  0  0  0  0  0  0  0  0  0  0
    2.8690  -13.7290   -2.4960 N   0  0  0  0  0  0  0  0  0  0  0  0
    1.5260  -13.9650   -2.3950 C   0  0  0  0  0  0  0  0  0  0  0  0
    1.1220  -14.2850   -3.6750 C   0  0  0  0  0  0  0  0  0  0  0  0
    2.1790  -14.2540   -4.5540 N   0  0  0  0  0  0  0  0  0  0  0  0
    3.2090  -13.9160   -3.8060 C   0  0  0  0  0  0  0  0  0  0  0  0
    4.5910  -13.7380   -4.2120 C   0  0  0  0  0  0  0  0  0  0  0  0
    4.9590  -13.9210   -5.5210 N   0  0  0  0  0  0  0  0  0  0  0  0
    6.2930  -13.7400   -6.0200 C   0  0  0  0  0  0  0  0  0  0  0  0
    6.6860  -14.9320   -6.8530 C   0  0  0  0  0  0  0  0  0  0  0  0
    6.4440  -16.2320   -6.3990 C   0  0  0  0  0  0  0  0  0  0  0  0
    6.8000  -17.2960   -7.2130 C   0  0  0  0  0  0  0  0  0  0  0  0
    7.3670  -17.1540   -8.4300 N   0  0  0  0  0  0  0  0  0  0  0  0
    7.5790  -15.8910   -8.8560 C   0  0  0  0  0  0  0  0  0  0  0  0
    7.2570  -14.7630   -8.1180 C   0  0  0  0  0  0  0  0  0  0  0  0
    5.4850  -13.4000   -3.3100 N   0  0  0  0  0  0  0  0  0  0  0  0
    7.4900  -12.6480   -1.4080 C   0  0  0  0  0  0  0  0  0  0  0  0
   12.2070  -12.9140   -1.7900 C   0  0  0  0  0  0  0  0  0  0  0  0
   12.9470  -11.7300   -1.8580 C   0  0  0  0  0  0  0  0  0  0  0  0
   13.8680  -11.5540   -2.8900 C   0  0  0  0  0  0  0  0  0  0  0  0
   14.0390  -12.5520   -3.8530 C   0  0  0  0  0  0  0  0  0  0  0  0
   13.2930  -13.7410   -3.7970 C   0  0  0  0  0  0  0  0  0  0  0  0
   13.4590  -14.8070   -4.8550 C   0  0  0  0  0  0  0  0  0  0  0  0
   12.2950  -15.0870   -5.4980 F   0  0  0  0  0  0  0  0  0  0  0  0
   14.3540  -14.4650   -5.8240 F   0  0  0  0  0  0  0  0  0  0  0  0
   13.9020  -15.9890   -4.3420 F   0  0  0  0  0  0  0  0  0  0  0  0
   12.3610  -13.9110   -2.7600 C   0  0  0  0  0  0  0  0  0  0  0  0
    9.9480  -11.6160   -1.8040 H   0  0  0  0  0  0  0  0  0  0  0  0
    8.9032  -11.8763    1.6068 H   0  0  0  0  0  0  0  0  0  0  0  0
    6.5469  -12.2494    2.3422 H   0  0  0  0  0  0  0  0  0  0  0  0
    4.8017  -12.8574    0.6753 H   0  0  0  0  0  0  0  0  0  0  0  0
    3.5558  -13.2295   -0.5100 H   0  0  0  0  0  0  0  0  0  0  0  0
    0.9030  -13.9114   -1.4900 H   0  0  0  0  0  0  0  0  0  0  0  0
    0.0878  -14.5329   -3.9560 H   0  0  0  0  0  0  0  0  0  0  0  0
    4.2210  -14.1750   -6.1720 H   0  0  0  0  0  0  0  0  0  0  0  0
    6.3324  -12.8316   -6.6390 H   0  0  0  0  0  0  0  0  0  0  0  0
    6.9892  -13.6393   -5.1744 H   0  0  0  0  0  0  0  0  0  0  0  0
    5.9809  -16.4068   -5.4167 H   0  0  0  0  0  0  0  0  0  0  0  0
    6.6095  -18.3153   -6.8461 H   0  0  0  0  0  0  0  0  0  0  0  0
    8.0341  -15.7486   -9.8472 H   0  0  0  0  0  0  0  0  0  0  0  0
    7.4466  -13.7563   -8.5189 H   0  0  0  0  0  0  0  0  0  0  0  0
    7.7698  -12.7779   -2.4639 H   0  0  0  0  0  0  0  0  0  0  0  0
   12.8038  -10.9430   -1.1030 H   0  0  0  0  0  0  0  0  0  0  0  0
   14.4604  -10.6288   -2.9461 H   0  0  0  0  0  0  0  0  0  0  0  0
   14.7666  -12.4048   -4.6648 H   0  0  0  0  0  0  0  0  0  0  0  0
   11.7531  -14.8264   -2.7104 H   0  0  0  0  0  0  0  0  0  0  0  0
  1  2  2  0
  2  3  2  0
  2  4  1  0
  4  5  1  0
  5  6  2  0
  6  7  1  0
  7  8  2  0
  8  9  1  0
  9 10  1  0
 10 11  2  0
 11 12  1  0
 12 13  1  0
 13 14  2  0
 14 15  1  0
 15 16  2  0
 16 17  1  0
 17 18  1  0
 18 19  1  0
 19 20  1  0
 20 21  2  0
 21 22  1  0
 22 23  2  0
 23 24  1  0
 24 25  2  0
 17 26  2  0
  9 27  2  0
  2 28  1  0
 28 29  2  0
 29 30  1  0
 30 31  2  0
 31 32  1  0
 32 33  1  0
 33 34  1  0
 33 35  1  0
 33 36  1  0
 32 37  2  0
 27  5  1  0
 37 28  1  0
 26 10  1  0
 16 12  1  0
 25 20  1  0
  4 38  1  0
  6 39  1  0
  7 40  1  0
  8 41  1  0
 11 42  1  0
 13 43  1  0
 14 44  1  0
 18 45  1  0
 19 46  1  0
 19 47  1  0
 21 48  1  0
 22 49  1  0
 24 50  1  0
 25 51  1  0
 27 52  1  0
 29 53  1  0
 30 54  1  0
 31 55  1  0
 37 56  1  0
M  END
>  <meeko>  (5) 
{"is_sidechain": [false], "free_energy": -7.901, "intermolecular_energy": -12.276, "internal_energy": -1.325}

$$$$
LIB_WZFZONITOFUGNM__M_PUB_ALL__e8__s20260927
     RDKit          3D

 56 60  0  0  0  0  0  0  0  0999 V2000
    0.2180   -9.5490   -0.7880 O   0  0  0  0  0  0  0  0  0  0  0  0
    0.3350   -9.7020    0.6460 S   0  0  0  0  0  0  0  0  0  0  0  0
    0.4420   -8.5520    1.5190 O   0  0  0  0  0  0  0  0  0  0  0  0
    1.6530  -10.6940    1.0050 N   0  0  0  0  0  0  0  0  0  0  0  0
    1.8920  -11.8440    0.2030 C   0  0  0  0  0  0  0  0  0  0  0  0
    2.2040  -11.6800   -1.1460 C   0  0  0  0  0  0  0  0  0  0  0  0
    2.4860  -12.7970   -1.9290 C   0  0  0  0  0  0  0  0  0  0  0  0
    2.4640  -14.0730   -1.3600 C   0  0  0  0  0  0  0  0  0  0  0  0
    2.1610  -14.2540   -0.0010 C   0  0  0  0  0  0  0  0  0  0  0  0
    2.1390  -15.6230    0.5720 C   0  0  0  0  0  0  0  0  0  0  0  0
    3.2970  -16.2840    0.7890 C   0  0  0  0  0  0  0  0  0  0  0  0
    3.2360  -17.5580    1.3120 N   0  0  0  0  0  0  0  0  0  0  0  0
    4.2020  -18.4670    1.6420 C   0  0  0  0  0  0  0  0  0  0  0  0
    3.5120  -19.5640    2.1160 C   0  0  0  0  0  0  0  0  0  0  0  0
    2.1540  -19.3530    2.0830 N   0  0  0  0  0  0  0  0  0  0  0  0
    2.0300  -18.1360    1.5940 C   0  0  0  0  0  0  0  0  0  0  0  0
    0.8100  -17.3950    1.3360 C   0  0  0  0  0  0  0  0  0  0  0  0
   -0.4130  -17.9530    1.6100 N   0  0  0  0  0  0  0  0  0  0  0  0
   -1.6690  -17.2860    1.4140 C   0  0  0  0  0  0  0  0  0  0  0  0
   -2.3990  -17.1890    2.7290 C   0  0  0  0  0  0  0  0  0  0  0  0
   -2.0590  -16.2070    3.6640 C   0  0  0  0  0  0  0  0  0  0  0  0
   -2.7770  -16.1420    4.8480 C   0  0  0  0  0  0  0  0  0  0  0  0
   -3.7970  -16.9700    5.1540 N   0  0  0  0  0  0  0  0  0  0  0  0
   -4.1210  -17.9010    4.2320 C   0  0  0  0  0  0  0  0  0  0  0  0
   -3.4640  -18.0460    3.0200 C   0  0  0  0  0  0  0  0  0  0  0  0
    0.8920  -16.1820    0.8360 N   0  0  0  0  0  0  0  0  0  0  0  0
    1.8600  -13.1210    0.7680 C   0  0  0  0  0  0  0  0  0  0  0  0
   -1.0530  -10.6650    1.2120 C   0  0  0  0  0  0  0  0  0  0  0  0
   -1.0050  -11.2830    2.4650 C   0  0  0  0  0  0  0  0  0  0  0  0
   -2.0880  -12.0460    2.8960 C   0  0  0  0  0  0  0  0  0  0  0  0
   -3.2080  -12.2000    2.0750 C   0  0  0  0  0  0  0  0  0  0  0  0
   -3.2610  -11.5910    0.8100 C   0  0  0  0  0  0  0  0  0  0  0  0
   -4.4610  -11.7810   -0.0880 C   0  0  0  0  0  0  0  0  0  0  0  0
   -5.5080  -12.3590    0.5580 F   0  0  0  0  0  0  0  0  0  0  0  0
   -4.9330  -10.6130   -0.6060 F   0  0  0  0  0  0  0  0  0  0  0  0
   -4.1900  -12.5780   -1.1600 F   0  0  0  0  0  0  0  0  0  0  0  0
   -2.1640  -10.8280    0.3760 C   0  0  0  0  0  0  0  0  0  0  0  0
    1.8290  -10.7610    2.0060 H   0  0  0  0  0  0  0  0  0  0  0  0
    2.2273  -10.6737   -1.5897 H   0  0  0  0  0  0  0  0  0  0  0  0
    2.7261  -12.6745   -2.9955 H   0  0  0  0  0  0  0  0  0  0  0  0
    2.6875  -14.9492   -1.9864 H   0  0  0  0  0  0  0  0  0  0  0  0
    4.2649  -15.8171    0.5541 H   0  0  0  0  0  0  0  0  0  0  0  0
    5.2918  -18.3496    1.5498 H   0  0  0  0  0  0  0  0  0  0  0  0
    3.9877  -20.4888    2.4743 H   0  0  0  0  0  0  0  0  0  0  0  0
   -0.4100  -18.8910    2.0010 H   0  0  0  0  0  0  0  0  0  0  0  0
   -1.4893  -16.2751    1.0193 H   0  0  0  0  0  0  0  0  0  0  0  0
   -2.2787  -17.8570    0.6983 H   0  0  0  0  0  0  0  0  0  0  0  0
   -1.2393  -15.5010    3.4645 H   0  0  0  0  0  0  0  0  0  0  0  0
   -2.4988  -15.3702    5.5807 H   0  0  0  0  0  0  0  0  0  0  0  0
   -4.9541  -18.5838    4.4551 H   0  0  0  0  0  0  0  0  0  0  0  0
   -3.7744  -18.8195    2.3022 H   0  0  0  0  0  0  0  0  0  0  0  0
    1.5954  -13.2392    1.8292 H   0  0  0  0  0  0  0  0  0  0  0  0
   -0.1185  -11.1677    3.1060 H   0  0  0  0  0  0  0  0  0  0  0  0
   -2.0613  -12.5280    3.8844 H   0  0  0  0  0  0  0  0  0  0  0  0
   -4.0581  -12.8051    2.4231 H   0  0  0  0  0  0  0  0  0  0  0  0
   -2.1781  -10.3594   -0.6191 H   0  0  0  0  0  0  0  0  0  0  0  0
  1  2  2  0
  2  3  2  0
  2  4  1  0
  4  5  1  0
  5  6  2  0
  6  7  1  0
  7  8  2  0
  8  9  1  0
  9 10  1  0
 10 11  2  0
 11 12  1  0
 12 13  1  0
 13 14  2  0
 14 15  1  0
 15 16  2  0
 16 17  1  0
 17 18  1  0
 18 19  1  0
 19 20  1  0
 20 21  2  0
 21 22  1  0
 22 23  2  0
 23 24  1  0
 24 25  2  0
 17 26  2  0
  9 27  2  0
  2 28  1  0
 28 29  2  0
 29 30  1  0
 30 31  2  0
 31 32  1  0
 32 33  1  0
 33 34  1  0
 33 35  1  0
 33 36  1  0
 32 37  2  0
 27  5  1  0
 37 28  1  0
 26 10  1  0
 16 12  1  0
 25 20  1  0
  4 38  1  0
  6 39  1  0
  7 40  1  0
  8 41  1  0
 11 42  1  0
 13 43  1  0
 14 44  1  0
 18 45  1  0
 19 46  1  0
 19 47  1  0
 21 48  1  0
 22 49  1  0
 24 50  1  0
 25 51  1  0
 27 52  1  0
 29 53  1  0
 30 54  1  0
 31 55  1  0
 37 56  1  0
M  END
>  <meeko>  (6) 
{"is_sidechain": [false], "free_energy": -7.867, "intermolecular_energy": -12.001, "internal_energy": -1.551}

$$$$
LIB_WZFZONITOFUGNM__M_PUB_ALL__e8__s20260927
     RDKit          3D

 56 60  0  0  0  0  0  0  0  0999 V2000
   -1.3600  -15.2030    1.4670 O   0  0  0  0  0  0  0  0  0  0  0  0
   -2.1080  -14.8670    0.2750 S   0  0  0  0  0  0  0  0  0  0  0  0
   -3.4000  -15.4600    0.0050 O   0  0  0  0  0  0  0  0  0  0  0  0
   -1.1590  -15.1570   -1.0910 N   0  0  0  0  0  0  0  0  0  0  0  0
    0.2180  -15.4740   -0.9220 C   0  0  0  0  0  0  0  0  0  0  0  0
    0.5880  -16.8000   -0.7020 C   0  0  0  0  0  0  0  0  0  0  0  0
    1.9360  -17.1280   -0.5830 C   0  0  0  0  0  0  0  0  0  0  0  0
    2.9100  -16.1320   -0.6930 C   0  0  0  0  0  0  0  0  0  0  0  0
    2.5540  -14.7940   -0.9230 C   0  0  0  0  0  0  0  0  0  0  0  0
    3.6120  -13.7580   -1.0280 C   0  0  0  0  0  0  0  0  0  0  0  0
    4.3490  -13.4330    0.0560 C   0  0  0  0  0  0  0  0  0  0  0  0
    5.3140  -12.4580   -0.0770 N   0  0  0  0  0  0  0  0  0  0  0  0
    6.2060  -11.9160    0.8060 C   0  0  0  0  0  0  0  0  0  0  0  0
    6.9070  -10.9780    0.0760 C   0  0  0  0  0  0  0  0  0  0  0  0
    6.4660  -10.9280   -1.2250 N   0  0  0  0  0  0  0  0  0  0  0  0
    5.5100  -11.8320   -1.2760 C   0  0  0  0  0  0  0  0  0  0  0  0
    4.6880  -12.2050   -2.4120 C   0  0  0  0  0  0  0  0  0  0  0  0
    4.8640  -11.5910   -3.6270 N   0  0  0  0  0  0  0  0  0  0  0  0
    4.1190  -11.9130   -4.8120 C   0  0  0  0  0  0  0  0  0  0  0  0
    4.9960  -12.6810   -5.7660 C   0  0  0  0  0  0  0  0  0  0  0  0
    5.5650  -13.9020   -5.3890 C   0  0  0  0  0  0  0  0  0  0  0  0
    6.3430  -14.5840   -6.3120 C   0  0  0  0  0  0  0  0  0  0  0  0
    6.5830  -14.1420   -7.5640 N   0  0  0  0  0  0  0  0  0  0  0  0
    6.0120  -12.9700   -7.9140 C   0  0  0  0  0  0  0  0  0  0  0  0
    5.2190  -12.2150   -7.0650 C   0  0  0  0  0  0  0  0  0  0  0  0
    3.7730  -13.1360   -2.2630 N   0  0  0  0  0  0  0  0  0  0  0  0
    1.1910  -14.4780   -1.0210 C   0  0  0  0  0  0  0  0  0  0  0  0
   -2.3230  -13.0980    0.2410 C   0  0  0  0  0  0  0  0  0  0  0  0
   -3.5530  -12.5560   -0.1430 C   0  0  0  0  0  0  0  0  0  0  0  0
   -3.7110  -11.1720   -0.1820 C   0  0  0  0  0  0  0  0  0  0  0  0
   -2.6430  -10.3350    0.1520 C   0  0  0  0  0  0  0  0  0  0  0  0
   -1.4010  -10.8720    0.5310 C   0  0  0  0  0  0  0  0  0  0  0  0
   -0.2380   -9.9660    0.8640 C   0  0  0  0  0  0  0  0  0  0  0  0
    0.2070   -9.2720   -0.2170 F   0  0  0  0  0  0  0  0  0  0  0  0
   -0.5390   -9.0370    1.8140 F   0  0  0  0  0  0  0  0  0  0  0  0
    0.8380  -10.6510    1.3430 F   0  0  0  0  0  0  0  0  0  0  0  0
   -1.2440  -12.2670    0.5600 C   0  0  0  0  0  0  0  0  0  0  0  0
   -1.4240  -14.5710   -1.8810 H   0  0  0  0  0  0  0  0  0  0  0  0
   -0.1807  -17.5828   -0.6229 H   0  0  0  0  0  0  0  0  0  0  0  0
    2.2342  -18.1713   -0.4024 H   0  0  0  0  0  0  0  0  0  0  0  0
    3.9724  -16.4009   -0.5978 H   0  0  0  0  0  0  0  0  0  0  0  0
    4.1832  -13.9340    1.0211 H   0  0  0  0  0  0  0  0  0  0  0  0
    6.3365  -12.1720    1.8678 H   0  0  0  0  0  0  0  0  0  0  0  0
    7.7144  -10.3513    0.4826 H   0  0  0  0  0  0  0  0  0  0  0  0
    5.5910  -10.8840   -3.6800 H   0  0  0  0  0  0  0  0  0  0  0  0
    3.2472  -12.5267   -4.5411 H   0  0  0  0  0  0  0  0  0  0  0  0
    3.7795  -10.9844   -5.2942 H   0  0  0  0  0  0  0  0  0  0  0  0
    5.3988  -14.3122   -4.3820 H   0  0  0  0  0  0  0  0  0  0  0  0
    6.7906  -15.5410   -6.0058 H   0  0  0  0  0  0  0  0  0  0  0  0
    6.1864  -12.5924   -8.9323 H   0  0  0  0  0  0  0  0  0  0  0  0
    4.7741  -11.2685   -7.4060 H   0  0  0  0  0  0  0  0  0  0  0  0
    0.8852  -13.4330   -1.1777 H   0  0  0  0  0  0  0  0  0  0  0  0
   -4.3899  -13.2171   -0.4124 H   0  0  0  0  0  0  0  0  0  0  0  0
   -4.6779  -10.7377   -0.4761 H   0  0  0  0  0  0  0  0  0  0  0  0
   -2.7760   -9.2436    0.1179 H   0  0  0  0  0  0  0  0  0  0  0  0
   -0.2732  -12.7060    0.8334 H   0  0  0  0  0  0  0  0  0  0  0  0
  1  2  2  0
  2  3  2  0
  2  4  1  0
  4  5  1  0
  5  6  2  0
  6  7  1  0
  7  8  2  0
  8  9  1  0
  9 10  1  0
 10 11  2  0
 11 12  1  0
 12 13  1  0
 13 14  2  0
 14 15  1  0
 15 16  2  0
 16 17  1  0
 17 18  1  0
 18 19  1  0
 19 20  1  0
 20 21  2  0
 21 22  1  0
 22 23  2  0
 23 24  1  0
 24 25  2  0
 17 26  2  0
  9 27  2  0
  2 28  1  0
 28 29  2  0
 29 30  1  0
 30 31  2  0
 31 32  1  0
 32 33  1  0
 33 34  1  0
 33 35  1  0
 33 36  1  0
 32 37  2  0
 27  5  1  0
 37 28  1  0
 26 10  1  0
 16 12  1  0
 25 20  1  0
  4 38  1  0
  6 39  1  0
  7 40  1  0
  8 41  1  0
 11 42  1  0
 13 43  1  0
 14 44  1  0
 18 45  1  0
 19 46  1  0
 19 47  1  0
 21 48  1  0
 22 49  1  0
 24 50  1  0
 25 51  1  0
 27 52  1  0
 29 53  1  0
 30 54  1  0
 31 55  1  0
 37 56  1  0
M  END
>  <meeko>  (7) 
{"is_sidechain": [false], "free_energy": -7.826, "intermolecular_energy": -11.965, "internal_energy": -1.529}

$$$$
LIB_WZFZONITOFUGNM__M_PUB_ALL__e8__s20260927
     RDKit          3D

 56 60  0  0  0  0  0  0  0  0999 V2000
    9.0570  -13.8910   -0.6270 O   0  0  0  0  0  0  0  0  0  0  0  0
    9.2160  -12.5970    0.0020 S   0  0  0  0  0  0  0  0  0  0  0  0
    8.9870  -12.4180    1.4200 O   0  0  0  0  0  0  0  0  0  0  0  0
    8.2430  -11.4620   -0.7820 N   0  0  0  0  0  0  0  0  0  0  0  0
    7.2300  -11.9150   -1.6720 C   0  0  0  0  0  0  0  0  0  0  0  0
    7.4070  -11.7480   -3.0440 C   0  0  0  0  0  0  0  0  0  0  0  0
    6.4430  -12.2310   -3.9270 C   0  0  0  0  0  0  0  0  0  0  0  0
    5.3110  -12.8860   -3.4350 C   0  0  0  0  0  0  0  0  0  0  0  0
    5.1230  -13.0700   -2.0560 C   0  0  0  0  0  0  0  0  0  0  0  0
    3.9060  -13.7640   -1.5650 C   0  0  0  0  0  0  0  0  0  0  0  0
    3.8380  -15.1130   -1.5960 C   0  0  0  0  0  0  0  0  0  0  0  0
    2.6880  -15.7210   -1.1420 N   0  0  0  0  0  0  0  0  0  0  0  0
    2.3150  -17.0320   -1.0420 C   0  0  0  0  0  0  0  0  0  0  0  0
    1.0410  -17.0020   -0.5130 C   0  0  0  0  0  0  0  0  0  0  0  0
    0.6230  -15.7110   -0.2900 N   0  0  0  0  0  0  0  0  0  0  0  0
    1.6410  -14.9730   -0.6810 C   0  0  0  0  0  0  0  0  0  0  0  0
    1.7530  -13.5260   -0.6740 C   0  0  0  0  0  0  0  0  0  0  0  0
    0.7160  -12.7510   -0.2170 N   0  0  0  0  0  0  0  0  0  0  0  0
    0.7470  -11.3180   -0.1470 C   0  0  0  0  0  0  0  0  0  0  0  0
   -0.3190  -10.8360    0.8030 C   0  0  0  0  0  0  0  0  0  0  0  0
   -1.3090  -11.7080    1.2680 C   0  0  0  0  0  0  0  0  0  0  0  0
   -2.2520  -11.2240    2.1620 C   0  0  0  0  0  0  0  0  0  0  0  0
   -2.2710   -9.9540    2.6190 N   0  0  0  0  0  0  0  0  0  0  0  0
   -1.2980   -9.1330    2.1710 C   0  0  0  0  0  0  0  0  0  0  0  0
   -0.3110   -9.5220    1.2790 C   0  0  0  0  0  0  0  0  0  0  0  0
    2.8590  -12.9670   -1.1130 N   0  0  0  0  0  0  0  0  0  0  0  0
    6.0930  -12.5600   -1.1810 C   0  0  0  0  0  0  0  0  0  0  0  0
   10.8640  -12.0150   -0.3430 C   0  0  0  0  0  0  0  0  0  0  0  0
   11.5080  -11.1730    0.5680 C   0  0  0  0  0  0  0  0  0  0  0  0
   12.7910  -10.7090    0.2860 C   0  0  0  0  0  0  0  0  0  0  0  0
   13.4230  -11.0770   -0.9050 C   0  0  0  0  0  0  0  0  0  0  0  0
   12.7800  -11.9150   -1.8310 C   0  0  0  0  0  0  0  0  0  0  0  0
   13.4520  -12.2900   -3.1310 C   0  0  0  0  0  0  0  0  0  0  0  0
   13.8700  -13.5830   -3.1460 F   0  0  0  0  0  0  0  0  0  0  0  0
   12.6420  -12.1400   -4.2160 F   0  0  0  0  0  0  0  0  0  0  0  0
   14.5560  -11.5320   -3.3850 F   0  0  0  0  0  0  0  0  0  0  0  0
   11.4830  -12.3740   -1.5460 C   0  0  0  0  0  0  0  0  0  0  0  0
    8.7530  -10.6140   -1.0270 H   0  0  0  0  0  0  0  0  0  0  0  0
    8.3026  -11.2378   -3.4280 H   0  0  0  0  0  0  0  0  0  0  0  0
    6.5732  -12.0966   -5.0110 H   0  0  0  0  0  0  0  0  0  0  0  0
    4.5551  -13.2635   -4.1394 H   0  0  0  0  0  0  0  0  0  0  0  0
    4.6800  -15.7112   -1.9744 H   0  0  0  0  0  0  0  0  0  0  0  0
    2.9028  -17.9185   -1.3223 H   0  0  0  0  0  0  0  0  0  0  0  0
    0.4373  -17.8959   -0.2974 H   0  0  0  0  0  0  0  0  0  0  0  0
   -0.1090  -13.2420    0.1140 H   0  0  0  0  0  0  0  0  0  0  0  0
    1.7335  -10.9901    0.2126 H   0  0  0  0  0  0  0  0  0  0  0  0
    0.5622  -10.8989   -1.1471 H   0  0  0  0  0  0  0  0  0  0  0  0
   -1.3388  -12.7549    0.9318 H   0  0  0  0  0  0  0  0  0  0  0  0
   -3.0296  -11.9150    2.5195 H   0  0  0  0  0  0  0  0  0  0  0  0
   -1.2877   -8.0950    2.5349 H   0  0  0  0  0  0  0  0  0  0  0  0
    0.4625   -8.8113    0.9525 H   0  0  0  0  0  0  0  0  0  0  0  0
    5.9566  -12.6694   -0.0950 H   0  0  0  0  0  0  0  0  0  0  0  0
   11.0053  -10.8788    1.5011 H   0  0  0  0  0  0  0  0  0  0  0  0
   13.3072  -10.0522    1.0016 H   0  0  0  0  0  0  0  0  0  0  0  0
   14.4360  -10.7060   -1.1198 H   0  0  0  0  0  0  0  0  0  0  0  0
   10.9547  -13.0147   -2.2674 H   0  0  0  0  0  0  0  0  0  0  0  0
  1  2  2  0
  2  3  2  0
  2  4  1  0
  4  5  1  0
  5  6  2  0
  6  7  1  0
  7  8  2  0
  8  9  1  0
  9 10  1  0
 10 11  2  0
 11 12  1  0
 12 13  1  0
 13 14  2  0
 14 15  1  0
 15 16  2  0
 16 17  1  0
 17 18  1  0
 18 19  1  0
 19 20  1  0
 20 21  2  0
 21 22  1  0
 22 23  2  0
 23 24  1  0
 24 25  2  0
 17 26  2  0
  9 27  2  0
  2 28  1  0
 28 29  2  0
 29 30  1  0
 30 31  2  0
 31 32  1  0
 32 33  1  0
 33 34  1  0
 33 35  1  0
 33 36  1  0
 32 37  2  0
 27  5  1  0
 37 28  1  0
 26 10  1  0
 16 12  1  0
 25 20  1  0
  4 38  1  0
  6 39  1  0
  7 40  1  0
  8 41  1  0
 11 42  1  0
 13 43  1  0
 14 44  1  0
 18 45  1  0
 19 46  1  0
 19 47  1  0
 21 48  1  0
 22 49  1  0
 24 50  1  0
 25 51  1  0
 27 52  1  0
 29 53  1  0
 30 54  1  0
 31 55  1  0
 37 56  1  0
M  END
>  <meeko>  (8) 
{"is_sidechain": [false], "free_energy": -7.776, "intermolecular_energy": -12.379, "internal_energy": -1.044}

$$$$
LIB_WZFZONITOFUGNM__M_PUB_ALL__e8__s20260927
     RDKit          3D

 56 60  0  0  0  0  0  0  0  0999 V2000
    5.9050  -13.5620   -3.9100 O   0  0  0  0  0  0  0  0  0  0  0  0
    4.9670  -14.4690   -3.2830 S   0  0  0  0  0  0  0  0  0  0  0  0
    5.0340  -15.8960   -3.5120 O   0  0  0  0  0  0  0  0  0  0  0  0
    3.3890  -14.0020   -3.6610 N   0  0  0  0  0  0  0  0  0  0  0  0
    2.9050  -12.7510   -3.1870 C   0  0  0  0  0  0  0  0  0  0  0  0
    3.1310  -11.6030   -3.9460 C   0  0  0  0  0  0  0  0  0  0  0  0
    2.6210  -10.3810   -3.5150 C   0  0  0  0  0  0  0  0  0  0  0  0
    1.8790  -10.3110   -2.3330 C   0  0  0  0  0  0  0  0  0  0  0  0
    1.6350  -11.4600   -1.5630 C   0  0  0  0  0  0  0  0  0  0  0  0
    0.8490  -11.3520   -0.3080 C   0  0  0  0  0  0  0  0  0  0  0  0
    0.0560  -10.2790   -0.0970 C   0  0  0  0  0  0  0  0  0  0  0  0
   -0.6480  -10.2080    1.0850 N   0  0  0  0  0  0  0  0  0  0  0  0
   -1.5170   -9.2790    1.5870 C   0  0  0  0  0  0  0  0  0  0  0  0
   -1.8920   -9.7700    2.8210 C   0  0  0  0  0  0  0  0  0  0  0  0
   -1.2750  -10.9700    3.0890 N   0  0  0  0  0  0  0  0  0  0  0  0
   -0.5380  -11.1970    2.0210 C   0  0  0  0  0  0  0  0  0  0  0  0
    0.3330  -12.3270    1.7580 C   0  0  0  0  0  0  0  0  0  0  0  0
    0.4630  -13.3340    2.6820 N   0  0  0  0  0  0  0  0  0  0  0  0
    1.2780  -14.5020    2.4980 C   0  0  0  0  0  0  0  0  0  0  0  0
    0.3990  -15.6880    2.1960 C   0  0  0  0  0  0  0  0  0  0  0  0
    0.4260  -16.2950    0.9360 C   0  0  0  0  0  0  0  0  0  0  0  0
   -0.3810  -17.4000    0.7160 C   0  0  0  0  0  0  0  0  0  0  0  0
   -1.1950  -17.9340    1.6500 N   0  0  0  0  0  0  0  0  0  0  0  0
   -1.1950  -17.3430    2.8640 C   0  0  0  0  0  0  0  0  0  0  0  0
   -0.4240  -16.2370    3.1830 C   0  0  0  0  0  0  0  0  0  0  0  0
    0.9980  -12.3740    0.6250 N   0  0  0  0  0  0  0  0  0  0  0  0
    2.1730  -12.6790   -2.0010 C   0  0  0  0  0  0  0  0  0  0  0  0
    5.0470  -14.2130   -1.5220 C   0  0  0  0  0  0  0  0  0  0  0  0
    4.4720  -15.1490   -0.6580 C   0  0  0  0  0  0  0  0  0  0  0  0
    4.5250  -14.9360    0.7190 C   0  0  0  0  0  0  0  0  0  0  0  0
    5.1400  -13.7890    1.2270 C   0  0  0  0  0  0  0  0  0  0  0  0
    5.7120  -12.8380    0.3650 C   0  0  0  0  0  0  0  0  0  0  0  0
    6.3510  -11.5840    0.9150 C   0  0  0  0  0  0  0  0  0  0  0  0
    5.4880  -10.8450    1.6600 F   0  0  0  0  0  0  0  0  0  0  0  0
    7.4240  -11.8370    1.7150 F   0  0  0  0  0  0  0  0  0  0  0  0
    6.8080  -10.7570   -0.0670 F   0  0  0  0  0  0  0  0  0  0  0  0
    5.6490  -13.0530   -1.0220 C   0  0  0  0  0  0  0  0  0  0  0  0
    2.7440  -14.7900   -3.6810 H   0  0  0  0  0  0  0  0  0  0  0  0
    3.7090  -11.6625   -4.8800 H   0  0  0  0  0  0  0  0  0  0  0  0
    2.8023   -9.4706   -4.1052 H   0  0  0  0  0  0  0  0  0  0  0  0
    1.4800   -9.3413   -2.0006 H   0  0  0  0  0  0  0  0  0  0  0  0
   -0.0256   -9.4816   -0.8504 H   0  0  0  0  0  0  0  0  0  0  0  0
   -1.8457   -8.3436    1.1106 H   0  0  0  0  0  0  0  0  0  0  0  0
   -2.5937   -9.2668    3.5024 H   0  0  0  0  0  0  0  0  0  0  0  0
   -0.0800  -13.2430    3.5350 H   0  0  0  0  0  0  0  0  0  0  0  0
    1.9709  -14.3368    1.6598 H   0  0  0  0  0  0  0  0  0  0  0  0
    1.8515  -14.6962    3.4164 H   0  0  0  0  0  0  0  0  0  0  0  0
    1.0735  -15.9039    0.1374 H   0  0  0  0  0  0  0  0  0  0  0  0
   -0.3564  -17.8692   -0.2786 H   0  0  0  0  0  0  0  0  0  0  0  0
   -1.8449  -17.7641    3.6452 H   0  0  0  0  0  0  0  0  0  0  0  0
   -0.4589  -15.8002    4.1920 H   0  0  0  0  0  0  0  0  0  0  0  0
    2.0162  -13.5887   -1.4028 H   0  0  0  0  0  0  0  0  0  0  0  0
    3.9813  -16.0471   -1.0613 H   0  0  0  0  0  0  0  0  0  0  0  0
    4.0821  -15.6719    1.4062 H   0  0  0  0  0  0  0  0  0  0  0  0
    5.1769  -13.6285    2.3146 H   0  0  0  0  0  0  0  0  0  0  0  0
    6.0725  -12.3103   -1.7141 H   0  0  0  0  0  0  0  0  0  0  0  0
  1  2  2  0
  2  3  2  0
  2  4  1  0
  4  5  1  0
  5  6  2  0
  6  7  1  0
  7  8  2  0
  8  9  1  0
  9 10  1  0
 10 11  2  0
 11 12  1  0
 12 13  1  0
 13 14  2  0
 14 15  1  0
 15 16  2  0
 16 17  1  0
 17 18  1  0
 18 19  1  0
 19 20  1  0
 20 21  2  0
 21 22  1  0
 22 23  2  0
 23 24  1  0
 24 25  2  0
 17 26  2  0
  9 27  2  0
  2 28  1  0
 28 29  2  0
 29 30  1  0
 30 31  2  0
 31 32  1  0
 32 33  1  0
 33 34  1  0
 33 35  1  0
 33 36  1  0
 32 37  2  0
 27  5  1  0
 37 28  1  0
 26 10  1  0
 16 12  1  0
 25 20  1  0
  4 38  1  0
  6 39  1  0
  7 40  1  0
  8 41  1  0
 11 42  1  0
 13 43  1  0
 14 44  1  0
 18 45  1  0
 19 46  1  0
 19 47  1  0
 21 48  1  0
 22 49  1  0
 24 50  1  0
 25 51  1  0
 27 52  1  0
 29 53  1  0
 30 54  1  0
 31 55  1  0
 37 56  1  0
M  END
>  <meeko>  (9) 
{"is_sidechain": [false], "free_energy": -7.725, "intermolecular_energy": -11.255, "internal_energy": -2.097}

$$$$
