LIB_ZVHBDYFMHCQADD__H_AF__e8__s20260927
     RDKit          3D

 57 61  0  0  0  0  0  0  0  0999 V2000
    0.3000  -11.6570   -1.3460 O   0  0  0  0  0  0  0  0  0  0  0  0
    0.3250  -12.8800   -1.3250 C   0  0  0  0  0  0  0  0  0  0  0  0
    1.1550  -13.6700   -2.1090 N   0  0  0  0  0  0  0  0  0  0  0  0
    2.0130  -13.2490   -3.1470 C   0  0  0  0  0  0  0  0  0  0  0  0
    1.4220  -12.9380   -4.3780 C   0  0  0  0  0  0  0  0  0  0  0  0
    2.2020  -12.5080   -5.4510 C   0  0  0  0  0  0  0  0  0  0  0  0
    3.5830  -12.3880   -5.3030 C   0  0  0  0  0  0  0  0  0  0  0  0
    4.2030  -12.6960   -4.0840 C   0  0  0  0  0  0  0  0  0  0  0  0
    5.6750  -12.5450   -3.9520 C   0  0  0  0  0  0  0  0  0  0  0  0
    6.4840  -12.9330   -4.9590 C   0  0  0  0  0  0  0  0  0  0  0  0
    7.8430  -12.7640   -4.8090 N   0  0  0  0  0  0  0  0  0  0  0  0
    8.9050  -13.0520   -5.6220 C   0  0  0  0  0  0  0  0  0  0  0  0
   10.0170  -12.6480   -4.9140 C   0  0  0  0  0  0  0  0  0  0  0  0
    9.6690  -12.1230   -3.6920 N   0  0  0  0  0  0  0  0  0  0  0  0
    8.3540  -12.2110   -3.6690 C   0  0  0  0  0  0  0  0  0  0  0  0
    7.4460  -11.7970   -2.6130 C   0  0  0  0  0  0  0  0  0  0  0  0
    7.9310  -11.2350   -1.4610 N   0  0  0  0  0  0  0  0  0  0  0  0
    7.1110  -10.7050   -0.4010 C   0  0  0  0  0  0  0  0  0  0  0  0
    6.1680  -11.7720    0.1190 C   0  0  0  0  0  0  0  0  0  0  0  0
    4.7920  -11.5410    0.1280 C   0  0  0  0  0  0  0  0  0  0  0  0
    3.9430  -12.5480    0.5770 C   0  0  0  0  0  0  0  0  0  0  0  0
    4.4830  -13.7580    0.9960 C   0  0  0  0  0  0  0  0  0  0  0  0
    5.8580  -13.9120    0.9460 C   0  0  0  0  0  0  0  0  0  0  0  0
    6.7080  -12.9540    0.5160 N   0  0  0  0  0  0  0  0  0  0  0  0
    6.1530  -11.9670   -2.7790 N   0  0  0  0  0  0  0  0  0  0  0  0
    3.3980  -13.1110   -3.0070 C   0  0  0  0  0  0  0  0  0  0  0  0
   -0.4670  -13.6760   -0.5090 N   0  0  0  0  0  0  0  0  0  0  0  0
   -1.3640  -13.2590    0.4980 C   0  0  0  0  0  0  0  0  0  0  0  0
   -0.8100  -12.6810    1.6460 C   0  0  0  0  0  0  0  0  0  0  0  0
   -1.6260  -12.2400    2.6900 C   0  0  0  0  0  0  0  0  0  0  0  0
   -3.0100  -12.3690    2.5930 C   0  0  0  0  0  0  0  0  0  0  0  0
   -3.5880  -12.9340    1.4480 C   0  0  0  0  0  0  0  0  0  0  0  0
   -5.0840  -13.0950    1.3340 C   0  0  0  0  0  0  0  0  0  0  0  0
   -5.4930  -13.4160    0.0730 F   0  0  0  0  0  0  0  0  0  0  0  0
   -5.7570  -11.9590    1.6630 F   0  0  0  0  0  0  0  0  0  0  0  0
   -5.5780  -14.0740    2.1400 F   0  0  0  0  0  0  0  0  0  0  0  0
   -2.7530  -13.3800    0.4070 C   0  0  0  0  0  0  0  0  0  0  0  0
    1.2130  -14.6450   -1.8620 H   0  0  0  0  0  0  0  0  0  0  0  0
    0.3329  -13.0338   -4.4996 H   0  0  0  0  0  0  0  0  0  0  0  0
    1.7281  -12.2638   -6.4132 H   0  0  0  0  0  0  0  0  0  0  0  0
    4.1933  -12.0477   -6.1526 H   0  0  0  0  0  0  0  0  0  0  0  0
    6.0689  -13.3736   -5.8775 H   0  0  0  0  0  0  0  0  0  0  0  0
    8.8776  -13.5070   -6.6231 H   0  0  0  0  0  0  0  0  0  0  0  0
   11.0506  -12.7347   -5.2802 H   0  0  0  0  0  0  0  0  0  0  0  0
    8.9300  -11.0530   -1.4200 H   0  0  0  0  0  0  0  0  0  0  0  0
    7.7572  -10.3606    0.4199 H   0  0  0  0  0  0  0  0  0  0  0  0
    6.5190   -9.8647   -0.7929 H   0  0  0  0  0  0  0  0  0  0  0  0
    4.3848  -10.5782   -0.2144 H   0  0  0  0  0  0  0  0  0  0  0  0
    2.8550  -12.3878    0.6000 H   0  0  0  0  0  0  0  0  0  0  0  0
    3.8359  -14.5709    1.3574 H   0  0  0  0  0  0  0  0  0  0  0  0
    6.2836  -14.8712    1.2759 H   0  0  0  0  0  0  0  0  0  0  0  0
    3.8668  -13.3311   -2.0365 H   0  0  0  0  0  0  0  0  0  0  0  0
   -0.4470  -14.6660   -0.6970 H   0  0  0  0  0  0  0  0  0  0  0  0
    0.2817  -12.5728    1.7269 H   0  0  0  0  0  0  0  0  0  0  0  0
   -1.1765  -11.7912    3.5881 H   0  0  0  0  0  0  0  0  0  0  0  0
   -3.6514  -12.0261    3.4182 H   0  0  0  0  0  0  0  0  0  0  0  0
   -3.2002  -13.8304   -0.4914 H   0  0  0  0  0  0  0  0  0  0  0  0
  1  2  2  0
  2  3  1  0
  3  4  1  0
  4  5  2  0
  5  6  1  0
  6  7  2  0
  7  8  1  0
  8  9  1  0
  9 10  2  0
 10 11  1  0
 11 12  1  0
 12 13  2  0
 13 14  1  0
 14 15  2  0
 15 16  1  0
 16 17  1  0
 17 18  1  0
 18 19  1  0
 19 20  2  0
 20 21  1  0
 21 22  2  0
 22 23  1  0
 23 24  2  0
 16 25  2  0
  8 26  2  0
  2 27  1  0
 27 28  1  0
 28 29  2  0
 29 30  1  0
 30 31  2  0
 31 32  1  0
 32 33  1  0
 33 34  1  0
 33 35  1  0
 33 36  1  0
 32 37  2  0
 26  4  1  0
 37 28  1  0
 25  9  1  0
 15 11  1  0
 24 19  1  0
  3 38  1  0
  5 39  1  0
  6 40  1  0
  7 41  1  0
 10 42  1  0
 12 43  1  0
 13 44  1  0
 17 45  1  0
 18 46  1  0
 18 47  1  0
 20 48  1  0
 21 49  1  0
 22 50  1  0
 23 51  1  0
 26 52  1  0
 27 53  1  0
 29 54  1  0
 30 55  1  0
 31 56  1  0
 37 57  1  0
M  END
>  <meeko>  (1) 
{"is_sidechain": [false], "free_energy": -10.842, "intermolecular_energy": -14.645, "internal_energy": -0.905}

$$$$
LIB_ZVHBDYFMHCQADD__H_AF__e8__s20260927
     RDKit          3D

 57 61  0  0  0  0  0  0  0  0999 V2000
    1.1720  -12.8460   -0.1510 O   0  0  0  0  0  0  0  0  0  0  0  0
    1.1160  -14.0660   -0.0830 C   0  0  0  0  0  0  0  0  0  0  0  0
    2.2180  -14.9080   -0.0040 N   0  0  0  0  0  0  0  0  0  0  0  0
    3.5790  -14.5540   -0.1160 C   0  0  0  0  0  0  0  0  0  0  0  0
    4.1440  -13.8400    0.9480 C   0  0  0  0  0  0  0  0  0  0  0  0
    5.4840  -13.4600    0.9160 C   0  0  0  0  0  0  0  0  0  0  0  0
    6.2740  -13.7870   -0.1850 C   0  0  0  0  0  0  0  0  0  0  0  0
    5.7360  -14.4980   -1.2670 C   0  0  0  0  0  0  0  0  0  0  0  0
    6.6050  -14.8460   -2.4210 C   0  0  0  0  0  0  0  0  0  0  0  0
    6.0520  -15.2710   -3.5750 C   0  0  0  0  0  0  0  0  0  0  0  0
    6.8880  -15.5710   -4.6290 N   0  0  0  0  0  0  0  0  0  0  0  0
    6.6470  -16.0190   -5.8990 C   0  0  0  0  0  0  0  0  0  0  0  0
    7.8930  -16.1280   -6.4820 C   0  0  0  0  0  0  0  0  0  0  0  0
    8.8880  -15.7590   -5.6070 N   0  0  0  0  0  0  0  0  0  0  0  0
    8.2410  -15.4310   -4.5070 C   0  0  0  0  0  0  0  0  0  0  0  0
    8.7940  -14.9590   -3.2480 C   0  0  0  0  0  0  0  0  0  0  0  0
   10.1480  -14.8060   -3.0990 N   0  0  0  0  0  0  0  0  0  0  0  0
   10.7850  -14.2550   -1.9300 C   0  0  0  0  0  0  0  0  0  0  0  0
   11.5860  -13.0220   -2.2980 C   0  0  0  0  0  0  0  0  0  0  0  0
   11.6140  -11.9270   -1.4340 C   0  0  0  0  0  0  0  0  0  0  0  0
   12.3840  -10.8190   -1.7760 C   0  0  0  0  0  0  0  0  0  0  0  0
   13.1110  -10.8340   -2.9600 C   0  0  0  0  0  0  0  0  0  0  0  0
   13.0390  -11.9650   -3.7570 C   0  0  0  0  0  0  0  0  0  0  0  0
   12.3000  -13.0540   -3.4530 N   0  0  0  0  0  0  0  0  0  0  0  0
    7.9780  -14.6790   -2.2570 N   0  0  0  0  0  0  0  0  0  0  0  0
    4.3860  -14.8890   -1.2080 C   0  0  0  0  0  0  0  0  0  0  0  0
   -0.0580  -14.8070   -0.0660 N   0  0  0  0  0  0  0  0  0  0  0  0
   -1.3840  -14.3250   -0.0290 C   0  0  0  0  0  0  0  0  0  0  0  0
   -2.1150  -14.3810   -1.2210 C   0  0  0  0  0  0  0  0  0  0  0  0
   -3.4350  -13.9260   -1.2730 C   0  0  0  0  0  0  0  0  0  0  0  0
   -4.0390  -13.4150   -0.1260 C   0  0  0  0  0  0  0  0  0  0  0  0
   -3.3310  -13.3610    1.0820 C   0  0  0  0  0  0  0  0  0  0  0  0
   -3.9650  -12.7970    2.3290 C   0  0  0  0  0  0  0  0  0  0  0  0
   -4.8180  -11.7630    2.0750 F   0  0  0  0  0  0  0  0  0  0  0  0
   -3.0460  -12.3110    3.2080 F   0  0  0  0  0  0  0  0  0  0  0  0
   -4.6980  -13.7160    3.0170 F   0  0  0  0  0  0  0  0  0  0  0  0
   -2.0000  -13.8170    1.1170 C   0  0  0  0  0  0  0  0  0  0  0  0
    2.0340  -15.8690    0.2360 H   0  0  0  0  0  0  0  0  0  0  0  0
    3.5238  -13.5766    1.8175 H   0  0  0  0  0  0  0  0  0  0  0  0
    5.9183  -12.9024    1.7589 H   0  0  0  0  0  0  0  0  0  0  0  0
    7.3312  -13.4838   -0.2051 H   0  0  0  0  0  0  0  0  0  0  0  0
    4.9614  -15.3756   -3.6728 H   0  0  0  0  0  0  0  0  0  0  0  0
    5.6720  -16.2435   -6.3561 H   0  0  0  0  0  0  0  0  0  0  0  0
    8.0680  -16.4665   -7.5139 H   0  0  0  0  0  0  0  0  0  0  0  0
   10.7240  -14.9590   -3.9220 H   0  0  0  0  0  0  0  0  0  0  0  0
   10.0158  -13.9811   -1.1929 H   0  0  0  0  0  0  0  0  0  0  0  0
   11.4641  -15.0085   -1.5045 H   0  0  0  0  0  0  0  0  0  0  0  0
   11.0369  -11.9390   -0.4976 H   0  0  0  0  0  0  0  0  0  0  0  0
   12.4166   -9.9401   -1.1154 H   0  0  0  0  0  0  0  0  0  0  0  0
   13.7266   -9.9719   -3.2563 H   0  0  0  0  0  0  0  0  0  0  0  0
   13.6177  -11.9768   -4.6924 H   0  0  0  0  0  0  0  0  0  0  0  0
    3.9564  -15.4699   -2.0375 H   0  0  0  0  0  0  0  0  0  0  0  0
    0.0440  -15.8060   -0.1540 H   0  0  0  0  0  0  0  0  0  0  0  0
   -1.6446  -14.7882   -2.1281 H   0  0  0  0  0  0  0  0  0  0  0  0
   -3.9965  -13.9711   -2.2178 H   0  0  0  0  0  0  0  0  0  0  0  0
   -5.0766  -13.0523   -0.1690 H   0  0  0  0  0  0  0  0  0  0  0  0
   -1.4366  -13.7727    2.0607 H   0  0  0  0  0  0  0  0  0  0  0  0
  1  2  2  0
  2  3  1  0
  3  4  1  0
  4  5  2  0
  5  6  1  0
  6  7  2  0
  7  8  1  0
  8  9  1  0
  9 10  2  0
 10 11  1  0
 11 12  1  0
 12 13  2  0
 13 14  1  0
 14 15  2  0
 15 16  1  0
 16 17  1  0
 17 18  1  0
 18 19  1  0
 19 20  2  0
 20 21  1  0
 21 22  2  0
 22 23  1  0
 23 24  2  0
 16 25  2  0
  8 26  2  0
  2 27  1  0
 27 28  1  0
 28 29  2  0
 29 30  1  0
 30 31  2  0
 31 32  1  0
 32 33  1  0
 33 34  1  0
 33 35  1  0
 33 36  1  0
 32 37  2  0
 26  4  1  0
 37 28  1  0
 25  9  1  0
 15 11  1  0
 24 19  1  0
  3 38  1  0
  5 39  1  0
  6 40  1  0
  7 41  1  0
 10 42  1  0
 12 43  1  0
 13 44  1  0
 17 45  1  0
 18 46  1  0
 18 47  1  0
 20 48  1  0
 21 49  1  0
 22 50  1  0
 23 51  1  0
 26 52  1  0
 27 53  1  0
 29 54  1  0
 30 55  1  0
 31 56  1  0
 37 57  1  0
M  END
>  <meeko>  (2) 
{"is_sidechain": [false], "free_energy": -10.667, "intermolecular_energy": -14.317, "internal_energy": -0.997}

$$$$
LIB_ZVHBDYFMHCQADD__H_AF__e8__s20260927
     RDKit          3D

 57 61  0  0  0  0  0  0  0  0999 V2000
    0.8020  -11.9080   -1.3560 O   0  0  0  0  0  0  0  0  0  0  0  0
    0.6750  -13.0730   -1.7050 C   0  0  0  0  0  0  0  0  0  0  0  0
    1.4170  -13.6870   -2.7060 N   0  0  0  0  0  0  0  0  0  0  0  0
    2.3420  -13.0830   -3.5840 C   0  0  0  0  0  0  0  0  0  0  0  0
    1.8270  -12.4760   -4.7360 C   0  0  0  0  0  0  0  0  0  0  0  0
    2.6770  -11.8520   -5.6480 C   0  0  0  0  0  0  0  0  0  0  0  0
    4.0510  -11.8320   -5.4190 C   0  0  0  0  0  0  0  0  0  0  0  0
    4.5960  -12.4360   -4.2760 C   0  0  0  0  0  0  0  0  0  0  0  0
    6.0630  -12.3870   -4.0500 C   0  0  0  0  0  0  0  0  0  0  0  0
    6.9080  -12.7720   -5.0290 C   0  0  0  0  0  0  0  0  0  0  0  0
    8.2630  -12.6990   -4.7900 N   0  0  0  0  0  0  0  0  0  0  0  0
    9.3530  -13.0110   -5.5560 C   0  0  0  0  0  0  0  0  0  0  0  0
   10.4420  -12.7180   -4.7620 C   0  0  0  0  0  0  0  0  0  0  0  0
   10.0520  -12.2360   -3.5350 N   0  0  0  0  0  0  0  0  0  0  0  0
    8.7360  -12.2400   -3.5930 C   0  0  0  0  0  0  0  0  0  0  0  0
    7.7910  -11.8250   -2.5710 C   0  0  0  0  0  0  0  0  0  0  0  0
    8.2380  -11.3560   -1.3620 N   0  0  0  0  0  0  0  0  0  0  0  0
    7.3870  -10.8320   -0.3230 C   0  0  0  0  0  0  0  0  0  0  0  0
    6.3330  -11.8510    0.0590 C   0  0  0  0  0  0  0  0  0  0  0  0
    4.9800  -11.5260   -0.0480 C   0  0  0  0  0  0  0  0  0  0  0  0
    4.0290  -12.4890    0.2760 C   0  0  0  0  0  0  0  0  0  0  0  0
    4.4460  -13.7480    0.6870 C   0  0  0  0  0  0  0  0  0  0  0  0
    5.8070  -13.9950    0.7560 C   0  0  0  0  0  0  0  0  0  0  0  0
    6.7550  -13.0810    0.4490 N   0  0  0  0  0  0  0  0  0  0  0  0
    6.5020  -11.9020   -2.8210 N   0  0  0  0  0  0  0  0  0  0  0  0
    3.7210  -13.0440   -3.3570 C   0  0  0  0  0  0  0  0  0  0  0  0
   -0.2270  -13.9730   -1.1540 N   0  0  0  0  0  0  0  0  0  0  0  0
   -1.0870  -13.7700   -0.0530 C   0  0  0  0  0  0  0  0  0  0  0  0
   -2.4140  -13.4260   -0.3370 C   0  0  0  0  0  0  0  0  0  0  0  0
   -3.3330  -13.2080    0.6930 C   0  0  0  0  0  0  0  0  0  0  0  0
   -2.9320  -13.3380    2.0200 C   0  0  0  0  0  0  0  0  0  0  0  0
   -1.6110  -13.6940    2.3290 C   0  0  0  0  0  0  0  0  0  0  0  0
   -1.1570  -13.8250    3.7620 C   0  0  0  0  0  0  0  0  0  0  0  0
   -1.4660  -12.7360    4.5220 F   0  0  0  0  0  0  0  0  0  0  0  0
    0.1910  -13.9810    3.8690 F   0  0  0  0  0  0  0  0  0  0  0  0
   -1.7140  -14.8900    4.4020 F   0  0  0  0  0  0  0  0  0  0  0  0
   -0.6960  -13.9040    1.2810 C   0  0  0  0  0  0  0  0  0  0  0  0
    1.3470  -14.6900   -2.7660 H   0  0  0  0  0  0  0  0  0  0  0  0
    0.7431  -12.4916   -4.9229 H   0  0  0  0  0  0  0  0  0  0  0  0
    2.2626  -11.3753   -6.5486 H   0  0  0  0  0  0  0  0  0  0  0  0
    4.7159  -11.3372   -6.1423 H   0  0  0  0  0  0  0  0  0  0  0  0
    6.5246  -13.1351   -5.9940 H   0  0  0  0  0  0  0  0  0  0  0  0
    9.3594  -13.4088   -6.5815 H   0  0  0  0  0  0  0  0  0  0  0  0
   11.4890  -12.8528   -5.0711 H   0  0  0  0  0  0  0  0  0  0  0  0
    9.2410  -11.2410   -1.2530 H   0  0  0  0  0  0  0  0  0  0  0  0
    7.9978  -10.5936    0.5602 H   0  0  0  0  0  0  0  0  0  0  0  0
    6.8885   -9.9241   -0.6935 H   0  0  0  0  0  0  0  0  0  0  0  0
    4.6703  -10.5250   -0.3830 H   0  0  0  0  0  0  0  0  0  0  0  0
    2.9564  -12.2548    0.2071 H   0  0  0  0  0  0  0  0  0  0  0  0
    3.7158  -14.5274    0.9504 H   0  0  0  0  0  0  0  0  0  0  0  0
    6.1361  -14.9935    1.0796 H   0  0  0  0  0  0  0  0  0  0  0  0
    4.1299  -13.4975   -2.4421 H   0  0  0  0  0  0  0  0  0  0  0  0
   -0.3260  -14.8540   -1.6320 H   0  0  0  0  0  0  0  0  0  0  0  0
   -2.7372  -13.3261   -1.3837 H   0  0  0  0  0  0  0  0  0  0  0  0
   -4.3716  -12.9341    0.4557 H   0  0  0  0  0  0  0  0  0  0  0  0
   -3.6548  -13.1606    2.8300 H   0  0  0  0  0  0  0  0  0  0  0  0
    0.3431  -14.1779    1.5160 H   0  0  0  0  0  0  0  0  0  0  0  0
  1  2  2  0
  2  3  1  0
  3  4  1  0
  4  5  2  0
  5  6  1  0
  6  7  2  0
  7  8  1  0
  8  9  1  0
  9 10  2  0
 10 11  1  0
 11 12  1  0
 12 13  2  0
 13 14  1  0
 14 15  2  0
 15 16  1  0
 16 17  1  0
 17 18  1  0
 18 19  1  0
 19 20  2  0
 20 21  1  0
 21 22  2  0
 22 23  1  0
 23 24  2  0
 16 25  2  0
  8 26  2  0
  2 27  1  0
 27 28  1  0
 28 29  2  0
 29 30  1  0
 30 31  2  0
 31 32  1  0
 32 33  1  0
 33 34  1  0
 33 35  1  0
 33 36  1  0
 32 37  2  0
 26  4  1  0
 37 28  1  0
 25  9  1  0
 15 11  1  0
 24 19  1  0
  3 38  1  0
  5 39  1  0
  6 40  1  0
  7 41  1  0
 10 42  1  0
 12 43  1  0
 13 44  1  0
 17 45  1  0
 18 46  1  0
 18 47  1  0
 20 48  1  0
 21 49  1  0
 22 50  1  0
 23 51  1  0
 26 52  1  0
 27 53  1  0
 29 54  1  0
 30 55  1  0
 31 56  1  0
 37 57  1  0
M  END
>  <meeko>  (3) 
{"is_sidechain": [false], "free_energy": -10.657, "intermolecular_energy": -14.251, "internal_energy": -1.048}

$$$$
LIB_ZVHBDYFMHCQADD__H_AF__e8__s20260927
     RDKit          3D

 57 61  0  0  0  0  0  0  0  0999 V2000
    6.8330  -13.9330   -4.7840 O   0  0  0  0  0  0  0  0  0  0  0  0
    6.8940  -12.7260   -4.9750 C   0  0  0  0  0  0  0  0  0  0  0  0
    5.8190  -11.8520   -4.8810 N   0  0  0  0  0  0  0  0  0  0  0  0
    4.4600  -12.1790   -4.6820 C   0  0  0  0  0  0  0  0  0  0  0  0
    3.5970  -12.0110   -5.7710 C   0  0  0  0  0  0  0  0  0  0  0  0
    2.2420  -12.3180   -5.6560 C   0  0  0  0  0  0  0  0  0  0  0  0
    1.7360  -12.7950   -4.4480 C   0  0  0  0  0  0  0  0  0  0  0  0
    2.5760  -12.9700   -3.3390 C   0  0  0  0  0  0  0  0  0  0  0  0
    2.0130  -13.4940   -2.0680 C   0  0  0  0  0  0  0  0  0  0  0  0
    0.7810  -13.1120   -1.6710 C   0  0  0  0  0  0  0  0  0  0  0  0
    0.2840  -13.6280   -0.4950 N   0  0  0  0  0  0  0  0  0  0  0  0
   -0.8980  -13.4420    0.1680 C   0  0  0  0  0  0  0  0  0  0  0  0
   -0.8070  -14.2380    1.2920 C   0  0  0  0  0  0  0  0  0  0  0  0
    0.3940  -14.9060    1.3360 N   0  0  0  0  0  0  0  0  0  0  0  0
    1.0190  -14.5120    0.2440 C   0  0  0  0  0  0  0  0  0  0  0  0
    2.3370  -14.9050   -0.2270 C   0  0  0  0  0  0  0  0  0  0  0  0
    3.0940  -15.7920    0.4930 N   0  0  0  0  0  0  0  0  0  0  0  0
    4.3660  -16.3170    0.0640 C   0  0  0  0  0  0  0  0  0  0  0  0
    5.3570  -15.1900   -0.1450 C   0  0  0  0  0  0  0  0  0  0  0  0
    6.1830  -15.1900   -1.2700 C   0  0  0  0  0  0  0  0  0  0  0  0
    7.0620  -14.1270   -1.4600 C   0  0  0  0  0  0  0  0  0  0  0  0
    7.0890  -13.0910   -0.5340 C   0  0  0  0  0  0  0  0  0  0  0  0
    6.2290  -13.1610    0.5490 C   0  0  0  0  0  0  0  0  0  0  0  0
    5.3660  -14.1790    0.7620 N   0  0  0  0  0  0  0  0  0  0  0  0
    2.7910  -14.3990   -1.3520 N   0  0  0  0  0  0  0  0  0  0  0  0
    3.9440  -12.6720   -3.4790 C   0  0  0  0  0  0  0  0  0  0  0  0
    8.0490  -12.0330   -5.3120 N   0  0  0  0  0  0  0  0  0  0  0  0
    9.3630  -12.5380   -5.4070 C   0  0  0  0  0  0  0  0  0  0  0  0
    9.5610  -13.6460   -6.2410 C   0  0  0  0  0  0  0  0  0  0  0  0
   10.8310  -14.2080   -6.3930 C   0  0  0  0  0  0  0  0  0  0  0  0
   11.9190  -13.6630   -5.7150 C   0  0  0  0  0  0  0  0  0  0  0  0
   11.7470  -12.5460   -4.8860 C   0  0  0  0  0  0  0  0  0  0  0  0
   12.9120  -11.9530   -4.1320 C   0  0  0  0  0  0  0  0  0  0  0  0
   12.7570  -12.0050   -2.7780 F   0  0  0  0  0  0  0  0  0  0  0  0
   13.1120  -10.6400   -4.4310 F   0  0  0  0  0  0  0  0  0  0  0  0
   14.0910  -12.5830   -4.3920 F   0  0  0  0  0  0  0  0  0  0  0  0
   10.4610  -11.9950   -4.7360 C   0  0  0  0  0  0  0  0  0  0  0  0
    6.0380  -10.8690   -4.8750 H   0  0  0  0  0  0  0  0  0  0  0  0
    3.9913  -11.6334   -6.7260 H   0  0  0  0  0  0  0  0  0  0  0  0
    1.5724  -12.1838   -6.5183 H   0  0  0  0  0  0  0  0  0  0  0  0
    0.6662  -13.0367   -4.3638 H   0  0  0  0  0  0  0  0  0  0  0  0
    0.1887  -12.4061   -2.2718 H   0  0  0  0  0  0  0  0  0  0  0  0
   -1.7385  -12.7979   -0.1299 H   0  0  0  0  0  0  0  0  0  0  0  0
   -1.5945  -14.3266    2.0549 H   0  0  0  0  0  0  0  0  0  0  0  0
    2.6620  -16.2130    1.3110 H   0  0  0  0  0  0  0  0  0  0  0  0
    4.7531  -17.0028    0.8320 H   0  0  0  0  0  0  0  0  0  0  0  0
    4.2292  -16.8538   -0.8863 H   0  0  0  0  0  0  0  0  0  0  0  0
    6.1403  -16.0164   -1.9948 H   0  0  0  0  0  0  0  0  0  0  0  0
    7.7287  -14.1074   -2.3347 H   0  0  0  0  0  0  0  0  0  0  0  0
    7.7742  -12.2394   -0.6579 H   0  0  0  0  0  0  0  0  0  0  0  0
    6.2495  -12.3389    1.2796 H   0  0  0  0  0  0  0  0  0  0  0  0
    4.6206  -12.8297   -2.6261 H   0  0  0  0  0  0  0  0  0  0  0  0
    7.9280  -11.0700   -5.5810 H   0  0  0  0  0  0  0  0  0  0  0  0
    8.7067  -14.0785   -6.7824 H   0  0  0  0  0  0  0  0  0  0  0  0
   10.9717  -15.0806   -7.0478 H   0  0  0  0  0  0  0  0  0  0  0  0
   12.9170  -14.1110   -5.8307 H   0  0  0  0  0  0  0  0  0  0  0  0
   10.3183  -11.1234   -4.0803 H   0  0  0  0  0  0  0  0  0  0  0  0
  1  2  2  0
  2  3  1  0
  3  4  1  0
  4  5  2  0
  5  6  1  0
  6  7  2  0
  7  8  1  0
  8  9  1  0
  9 10  2  0
 10 11  1  0
 11 12  1  0
 12 13  2  0
 13 14  1  0
 14 15  2  0
 15 16  1  0
 16 17  1  0
 17 18  1  0
 18 19  1  0
 19 20  2  0
 20 21  1  0
 21 22  2  0
 22 23  1  0
 23 24  2  0
 16 25  2  0
  8 26  2  0
  2 27  1  0
 27 28  1  0
 28 29  2  0
 29 30  1  0
 30 31  2  0
 31 32  1  0
 32 33  1  0
 33 34  1  0
 33 35  1  0
 33 36  1  0
 32 37  2  0
 26  4  1  0
 37 28  1  0
 25  9  1  0
 15 11  1  0
 24 19  1  0
  3 38  1  0
  5 39  1  0
  6 40  1  0
  7 41  1  0
 10 42  1  0
 12 43  1  0
 13 44  1  0
 17 45  1  0
 18 46  1  0
 18 47  1  0
 20 48  1  0
 21 49  1  0
 22 50  1  0
 23 51  1  0
 26 52  1  0
 27 53  1  0
 29 54  1  0
 30 55  1  0
 31 56  1  0
 37 57  1  0
M  END
>  <meeko>  (4) 
{"is_sidechain": [false], "free_energy": -10.503, "intermolecular_energy": -14.332, "internal_energy": -0.759}

$$$$
LIB_ZVHBDYFMHCQADD__H_AF__e8__s20260927
     RDKit          3D

 57 61  0  0  0  0  0  0  0  0999 V2000
    0.5790  -13.6100   -1.6000 O   0  0  0  0  0  0  0  0  0  0  0  0
    0.6420  -12.4870   -1.1190 C   0  0  0  0  0  0  0  0  0  0  0  0
    1.3730  -11.4340   -1.6540 N   0  0  0  0  0  0  0  0  0  0  0  0
    2.2660  -11.4750   -2.7460 C   0  0  0  0  0  0  0  0  0  0  0  0
    1.8010  -10.9770   -3.9700 C   0  0  0  0  0  0  0  0  0  0  0  0
    2.6250  -10.9770   -5.0940 C   0  0  0  0  0  0  0  0  0  0  0  0
    3.9230  -11.4770   -5.0060 C   0  0  0  0  0  0  0  0  0  0  0  0
    4.4140  -11.9860   -3.7950 C   0  0  0  0  0  0  0  0  0  0  0  0
    5.8060  -12.5000   -3.7280 C   0  0  0  0  0  0  0  0  0  0  0  0
    6.8160  -11.7810   -4.2610 C   0  0  0  0  0  0  0  0  0  0  0  0
    8.0960  -12.2810   -4.1660 N   0  0  0  0  0  0  0  0  0  0  0  0
    9.3050  -11.8080   -4.5980 C   0  0  0  0  0  0  0  0  0  0  0  0
   10.2220  -12.7600   -4.2010 C   0  0  0  0  0  0  0  0  0  0  0  0
    9.6110  -13.7990   -3.5400 N   0  0  0  0  0  0  0  0  0  0  0  0
    8.3340  -13.4720   -3.5410 C   0  0  0  0  0  0  0  0  0  0  0  0
    7.2190  -14.2080   -2.9710 C   0  0  0  0  0  0  0  0  0  0  0  0
    7.4310  -15.4040   -2.3330 N   0  0  0  0  0  0  0  0  0  0  0  0
    6.4090  -16.1600   -1.6540 C   0  0  0  0  0  0  0  0  0  0  0  0
    5.6310  -15.2640   -0.7110 C   0  0  0  0  0  0  0  0  0  0  0  0
    4.2370  -15.3320   -0.6780 C   0  0  0  0  0  0  0  0  0  0  0  0
    3.5450  -14.5250    0.2200 C   0  0  0  0  0  0  0  0  0  0  0  0
    4.2540  -13.6810    1.0640 C   0  0  0  0  0  0  0  0  0  0  0  0
    5.6370  -13.6800    0.9770 C   0  0  0  0  0  0  0  0  0  0  0  0
    6.3370  -14.4510    0.1160 N   0  0  0  0  0  0  0  0  0  0  0  0
    6.0060  -13.7120   -3.0720 N   0  0  0  0  0  0  0  0  0  0  0  0
    3.5740  -11.9610   -2.6670 C   0  0  0  0  0  0  0  0  0  0  0  0
   -0.0120  -12.0810    0.0360 N   0  0  0  0  0  0  0  0  0  0  0  0
   -0.9280  -12.8190    0.8150 C   0  0  0  0  0  0  0  0  0  0  0  0
   -0.3950  -13.7710    1.6940 C   0  0  0  0  0  0  0  0  0  0  0  0
   -1.2300  -14.5450    2.5030 C   0  0  0  0  0  0  0  0  0  0  0  0
   -2.6110  -14.3700    2.4450 C   0  0  0  0  0  0  0  0  0  0  0  0
   -3.1670  -13.4140    1.5830 C   0  0  0  0  0  0  0  0  0  0  0  0
   -4.6610  -13.2220    1.4970 C   0  0  0  0  0  0  0  0  0  0  0  0
   -5.3570  -14.0740    2.3040 F   0  0  0  0  0  0  0  0  0  0  0  0
   -5.1410  -13.4270    0.2410 F   0  0  0  0  0  0  0  0  0  0  0  0
   -5.0590  -11.9700    1.8550 F   0  0  0  0  0  0  0  0  0  0  0  0
   -2.3140  -12.6470    0.7690 C   0  0  0  0  0  0  0  0  0  0  0  0
    1.1900  -10.5200   -1.2710 H   0  0  0  0  0  0  0  0  0  0  0  0
    0.7768  -10.5826   -4.0446 H   0  0  0  0  0  0  0  0  0  0  0  0
    2.2510  -10.5825   -6.0503 H   0  0  0  0  0  0  0  0  0  0  0  0
    4.5693  -11.4723   -5.8961 H   0  0  0  0  0  0  0  0  0  0  0  0
    6.6219  -10.8195   -4.7589 H   0  0  0  0  0  0  0  0  0  0  0  0
    9.5029  -10.8731   -5.1428 H   0  0  0  0  0  0  0  0  0  0  0  0
   11.3038  -12.6956   -4.3895 H   0  0  0  0  0  0  0  0  0  0  0  0
    8.3950  -15.6990   -2.2130 H   0  0  0  0  0  0  0  0  0  0  0  0
    5.7209  -16.5891   -2.3972 H   0  0  0  0  0  0  0  0  0  0  0  0
    6.8849  -16.9636   -1.0729 H   0  0  0  0  0  0  0  0  0  0  0  0
    3.6945  -16.0124   -1.3509 H   0  0  0  0  0  0  0  0  0  0  0  0
    2.4462  -14.5556    0.2607 H   0  0  0  0  0  0  0  0  0  0  0  0
    3.7324  -13.0310    1.7819 H   0  0  0  0  0  0  0  0  0  0  0  0
    6.1977  -13.0126    1.6480 H   0  0  0  0  0  0  0  0  0  0  0  0
    3.9542  -12.3313   -1.7035 H   0  0  0  0  0  0  0  0  0  0  0  0
    0.2420  -11.1750    0.3970 H   0  0  0  0  0  0  0  0  0  0  0  0
    0.6948  -13.9106    1.7476 H   0  0  0  0  0  0  0  0  0  0  0  0
   -0.7978  -15.2919    3.1852 H   0  0  0  0  0  0  0  0  0  0  0  0
   -3.2680  -14.9844    3.0781 H   0  0  0  0  0  0  0  0  0  0  0  0
   -2.7446  -11.9003    0.0857 H   0  0  0  0  0  0  0  0  0  0  0  0
  1  2  2  0
  2  3  1  0
  3  4  1  0
  4  5  2  0
  5  6  1  0
  6  7  2  0
  7  8  1  0
  8  9  1  0
  9 10  2  0
 10 11  1  0
 11 12  1  0
 12 13  2  0
 13 14  1  0
 14 15  2  0
 15 16  1  0
 16 17  1  0
 17 18  1  0
 18 19  1  0
 19 20  2  0
 20 21  1  0
 21 22  2  0
 22 23  1  0
 23 24  2  0
 16 25  2  0
  8 26  2  0
  2 27  1  0
 27 28  1  0
 28 29  2  0
 29 30  1  0
 30 31  2  0
 31 32  1  0
 32 33  1  0
 33 34  1  0
 33 35  1  0
 33 36  1  0
 32 37  2  0
 26  4  1  0
 37 28  1  0
 25  9  1  0
 15 11  1  0
 24 19  1  0
  3 38  1  0
  5 39  1  0
  6 40  1  0
  7 41  1  0
 10 42  1  0
 12 43  1  0
 13 44  1  0
 17 45  1  0
 18 46  1  0
 18 47  1  0
 20 48  1  0
 21 49  1  0
 22 50  1  0
 23 51  1  0
 26 52  1  0
 27 53  1  0
 29 54  1  0
 30 55  1  0
 31 56  1  0
 37 57  1  0
M  END
>  <meeko>  (5) 
{"is_sidechain": [false], "free_energy": -10.486, "intermolecular_energy": -14.152, "internal_energy": -0.917}

$$$$
LIB_ZVHBDYFMHCQADD__H_AF__e8__s20260927
     RDKit          3D

 57 61  0  0  0  0  0  0  0  0999 V2000
    0.2030  -12.1460   -0.1780 O   0  0  0  0  0  0  0  0  0  0  0  0
    0.1040  -13.2740   -0.6400 C   0  0  0  0  0  0  0  0  0  0  0  0
    0.9570  -13.8210   -1.5890 N   0  0  0  0  0  0  0  0  0  0  0  0
    1.9960  -13.1700   -2.2880 C   0  0  0  0  0  0  0  0  0  0  0  0
    1.6270  -12.3410   -3.3540 C   0  0  0  0  0  0  0  0  0  0  0  0
    2.5940  -11.6580   -4.0900 C   0  0  0  0  0  0  0  0  0  0  0  0
    3.9430  -11.7990   -3.7660 C   0  0  0  0  0  0  0  0  0  0  0  0
    4.3430  -12.6250   -2.7060 C   0  0  0  0  0  0  0  0  0  0  0  0
    5.7860  -12.7460   -2.3760 C   0  0  0  0  0  0  0  0  0  0  0  0
    6.3220  -11.9720   -1.4090 C   0  0  0  0  0  0  0  0  0  0  0  0
    7.6600  -12.1210   -1.1180 N   0  0  0  0  0  0  0  0  0  0  0  0
    8.4840  -11.5010   -0.2190 C   0  0  0  0  0  0  0  0  0  0  0  0
    9.7190  -12.0880   -0.4020 C   0  0  0  0  0  0  0  0  0  0  0  0
    9.6750  -13.0490   -1.3850 N   0  0  0  0  0  0  0  0  0  0  0  0
    8.4210  -13.0370   -1.7890 C   0  0  0  0  0  0  0  0  0  0  0  0
    7.8010  -13.8580   -2.8150 C   0  0  0  0  0  0  0  0  0  0  0  0
    8.5400  -14.7870   -3.5000 N   0  0  0  0  0  0  0  0  0  0  0  0
    7.9990  -15.7130   -4.4640 C   0  0  0  0  0  0  0  0  0  0  0  0
    8.4110  -15.3130   -5.8670 C   0  0  0  0  0  0  0  0  0  0  0  0
    7.4370  -15.0770   -6.8380 C   0  0  0  0  0  0  0  0  0  0  0  0
    7.8370  -14.6780   -8.1090 C   0  0  0  0  0  0  0  0  0  0  0  0
    9.1900  -14.5160   -8.3790 C   0  0  0  0  0  0  0  0  0  0  0  0
   10.0930  -14.7590   -7.3570 C   0  0  0  0  0  0  0  0  0  0  0  0
    9.7370  -15.1480   -6.1140 N   0  0  0  0  0  0  0  0  0  0  0  0
    6.5220  -13.6990   -3.0750 N   0  0  0  0  0  0  0  0  0  0  0  0
    3.3510  -13.2920   -1.9640 C   0  0  0  0  0  0  0  0  0  0  0  0
   -0.8750  -14.1930   -0.2870 N   0  0  0  0  0  0  0  0  0  0  0  0
   -1.8650  -14.0620    0.7100 C   0  0  0  0  0  0  0  0  0  0  0  0
   -1.5190  -14.4620    2.0070 C   0  0  0  0  0  0  0  0  0  0  0  0
   -2.4390  -14.3650    3.0540 C   0  0  0  0  0  0  0  0  0  0  0  0
   -3.7150  -13.8600    2.8150 C   0  0  0  0  0  0  0  0  0  0  0  0
   -4.0790  -13.4410    1.5270 C   0  0  0  0  0  0  0  0  0  0  0  0
   -5.4620  -12.9060    1.2480 C   0  0  0  0  0  0  0  0  0  0  0  0
   -5.7810  -12.9130   -0.0780 F   0  0  0  0  0  0  0  0  0  0  0  0
   -5.6150  -11.6180    1.6580 F   0  0  0  0  0  0  0  0  0  0  0  0
   -6.4440  -13.6200    1.8650 F   0  0  0  0  0  0  0  0  0  0  0  0
   -3.1450  -13.5520    0.4810 C   0  0  0  0  0  0  0  0  0  0  0  0
    0.8810  -14.8140   -1.7440 H   0  0  0  0  0  0  0  0  0  0  0  0
    0.5640  -12.2275   -3.6133 H   0  0  0  0  0  0  0  0  0  0  0  0
    2.2933  -11.0086   -4.9254 H   0  0  0  0  0  0  0  0  0  0  0  0
    4.7018  -11.2561   -4.3486 H   0  0  0  0  0  0  0  0  0  0  0  0
    5.7054  -11.2401   -0.8666 H   0  0  0  0  0  0  0  0  0  0  0  0
    8.2193  -10.7069    0.4947 H   0  0  0  0  0  0  0  0  0  0  0  0
   10.6229  -11.8216    0.1654 H   0  0  0  0  0  0  0  0  0  0  0  0
    9.5020  -14.9240   -3.2020 H   0  0  0  0  0  0  0  0  0  0  0  0
    8.3775  -16.7232   -4.2488 H   0  0  0  0  0  0  0  0  0  0  0  0
    6.9012  -15.6994   -4.3960 H   0  0  0  0  0  0  0  0  0  0  0  0
    6.3702  -15.2044   -6.6021 H   0  0  0  0  0  0  0  0  0  0  0  0
    7.0886  -14.4924   -8.8935 H   0  0  0  0  0  0  0  0  0  0  0  0
    9.5345  -14.2037   -9.3759 H   0  0  0  0  0  0  0  0  0  0  0  0
   11.1639  -14.6272   -7.5709 H   0  0  0  0  0  0  0  0  0  0  0  0
    3.6470  -13.9219   -1.1122 H   0  0  0  0  0  0  0  0  0  0  0  0
   -0.9260  -15.0290   -0.8480 H   0  0  0  0  0  0  0  0  0  0  0  0
   -0.5114  -14.8570    2.2035 H   0  0  0  0  0  0  0  0  0  0  0  0
   -2.1558  -14.6874    4.0668 H   0  0  0  0  0  0  0  0  0  0  0  0
   -4.4398  -13.7896    3.6395 H   0  0  0  0  0  0  0  0  0  0  0  0
   -3.4270  -13.2322   -0.5330 H   0  0  0  0  0  0  0  0  0  0  0  0
  1  2  2  0
  2  3  1  0
  3  4  1  0
  4  5  2  0
  5  6  1  0
  6  7  2  0
  7  8  1  0
  8  9  1  0
  9 10  2  0
 10 11  1  0
 11 12  1  0
 12 13  2  0
 13 14  1  0
 14 15  2  0
 15 16  1  0
 16 17  1  0
 17 18  1  0
 18 19  1  0
 19 20  2  0
 20 21  1  0
 21 22  2  0
 22 23  1  0
 23 24  2  0
 16 25  2  0
  8 26  2  0
  2 27  1  0
 27 28  1  0
 28 29  2  0
 29 30  1  0
 30 31  2  0
 31 32  1  0
 32 33  1  0
 33 34  1  0
 33 35  1  0
 33 36  1  0
 32 37  2  0
 26  4  1  0
 37 28  1  0
 25  9  1  0
 15 11  1  0
 24 19  1  0
  3 38  1  0
  5 39  1  0
  6 40  1  0
  7 41  1  0
 10 42  1  0
 12 43  1  0
 13 44  1  0
 17 45  1  0
 18 46  1  0
 18 47  1  0
 20 48  1  0
 21 49  1  0
 22 50  1  0
 23 51  1  0
 26 52  1  0
 27 53  1  0
 29 54  1  0
 30 55  1  0
 31 56  1  0
 37 57  1  0
M  END
>  <meeko>  (6) 
{"is_sidechain": [false], "free_energy": -10.423, "intermolecular_energy": -13.875, "internal_energy": -1.109}

$$$$
LIB_ZVHBDYFMHCQADD__H_AF__e8__s20260927
     RDKit          3D

 57 61  0  0  0  0  0  0  0  0999 V2000
    0.3990  -14.9630    0.8070 O   0  0  0  0  0  0  0  0  0  0  0  0
    0.4570  -13.7490    0.9410 C   0  0  0  0  0  0  0  0  0  0  0  0
    1.5190  -12.9550    0.5300 N   0  0  0  0  0  0  0  0  0  0  0  0
    2.7610  -13.3810    0.0120 C   0  0  0  0  0  0  0  0  0  0  0  0
    3.6300  -14.0350    0.8930 C   0  0  0  0  0  0  0  0  0  0  0  0
    4.8720  -14.4920    0.4560 C   0  0  0  0  0  0  0  0  0  0  0  0
    5.2590  -14.2960   -0.8690 C   0  0  0  0  0  0  0  0  0  0  0  0
    4.4110  -13.6410   -1.7740 C   0  0  0  0  0  0  0  0  0  0  0  0
    4.8430  -13.4590   -3.1830 C   0  0  0  0  0  0  0  0  0  0  0  0
    4.0410  -12.8150   -4.0550 C   0  0  0  0  0  0  0  0  0  0  0  0
    4.4800  -12.6510   -5.3500 N   0  0  0  0  0  0  0  0  0  0  0  0
    3.9160  -12.0610   -6.4490 C   0  0  0  0  0  0  0  0  0  0  0  0
    4.8470  -12.2160   -7.4550 C   0  0  0  0  0  0  0  0  0  0  0  0
    5.9640  -12.8810   -7.0050 N   0  0  0  0  0  0  0  0  0  0  0  0
    5.7020  -13.1240   -5.7370 C   0  0  0  0  0  0  0  0  0  0  0  0
    6.5390  -13.8020   -4.7620 C   0  0  0  0  0  0  0  0  0  0  0  0
    7.7720  -14.2830   -5.1210 N   0  0  0  0  0  0  0  0  0  0  0  0
    8.7140  -14.8820   -4.2090 C   0  0  0  0  0  0  0  0  0  0  0  0
    9.4900  -13.8080   -3.4740 C   0  0  0  0  0  0  0  0  0  0  0  0
    9.3390  -13.6620   -2.0940 C   0  0  0  0  0  0  0  0  0  0  0  0
   10.0880  -12.6920   -1.4340 C   0  0  0  0  0  0  0  0  0  0  0  0
   10.9700  -11.9010   -2.1590 C   0  0  0  0  0  0  0  0  0  0  0  0
   11.0690  -12.1170   -3.5240 C   0  0  0  0  0  0  0  0  0  0  0  0
   10.3570  -13.0490   -4.1930 N   0  0  0  0  0  0  0  0  0  0  0  0
    6.1000  -13.9460   -3.5310 N   0  0  0  0  0  0  0  0  0  0  0  0
    3.1540  -13.2030   -1.3180 C   0  0  0  0  0  0  0  0  0  0  0  0
   -0.5330  -12.9670    1.5210 N   0  0  0  0  0  0  0  0  0  0  0  0
   -1.8050  -13.3770    1.9730 C   0  0  0  0  0  0  0  0  0  0  0  0
   -1.8400  -14.3120    3.0150 C   0  0  0  0  0  0  0  0  0  0  0  0
   -3.0570  -14.7710    3.5240 C   0  0  0  0  0  0  0  0  0  0  0  0
   -4.2550  -14.2940    2.9960 C   0  0  0  0  0  0  0  0  0  0  0  0
   -4.2450  -13.3490    1.9620 C   0  0  0  0  0  0  0  0  0  0  0  0
   -5.5340  -12.8330    1.3690 C   0  0  0  0  0  0  0  0  0  0  0  0
   -5.5970  -12.9810    0.0150 F   0  0  0  0  0  0  0  0  0  0  0  0
   -5.7210  -11.5060    1.6060 F   0  0  0  0  0  0  0  0  0  0  0  0
   -6.6360  -13.4650    1.8600 F   0  0  0  0  0  0  0  0  0  0  0  0
   -3.0120  -12.9000    1.4550 C   0  0  0  0  0  0  0  0  0  0  0  0
    1.3610  -11.9600    0.5260 H   0  0  0  0  0  0  0  0  0  0  0  0
    3.3299  -14.1897    1.9399 H   0  0  0  0  0  0  0  0  0  0  0  0
    5.5464  -15.0070    1.1560 H   0  0  0  0  0  0  0  0  0  0  0  0
    6.2403  -14.6591   -1.2084 H   0  0  0  0  0  0  0  0  0  0  0  0
    3.0600  -12.4300   -3.7397 H   0  0  0  0  0  0  0  0  0  0  0  0
    2.9339  -11.5700   -6.5154 H   0  0  0  0  0  0  0  0  0  0  0  0
    4.7133  -11.8542   -8.4852 H   0  0  0  0  0  0  0  0  0  0  0  0
    8.0950  -14.0720   -6.0620 H   0  0  0  0  0  0  0  0  0  0  0  0
    8.1701  -15.5001   -3.4796 H   0  0  0  0  0  0  0  0  0  0  0  0
    9.4182  -15.5049   -4.7800 H   0  0  0  0  0  0  0  0  0  0  0  0
    8.6396  -14.3030   -1.5372 H   0  0  0  0  0  0  0  0  0  0  0  0
    9.9823  -12.5531   -0.3479 H   0  0  0  0  0  0  0  0  0  0  0  0
   11.5726  -11.1254   -1.6637 H   0  0  0  0  0  0  0  0  0  0  0  0
   11.7696  -11.4918   -4.0970 H   0  0  0  0  0  0  0  0  0  0  0  0
    2.4668  -12.7107   -2.0219 H   0  0  0  0  0  0  0  0  0  0  0  0
   -0.2930  -12.0040    1.6980 H   0  0  0  0  0  0  0  0  0  0  0  0
   -0.8973  -14.6896    3.4378 H   0  0  0  0  0  0  0  0  0  0  0  0
   -3.0697  -15.5080    4.3405 H   0  0  0  0  0  0  0  0  0  0  0  0
   -5.2129  -14.6612    3.3929 H   0  0  0  0  0  0  0  0  0  0  0  0
   -2.9978  -12.1626    0.6389 H   0  0  0  0  0  0  0  0  0  0  0  0
  1  2  2  0
  2  3  1  0
  3  4  1  0
  4  5  2  0
  5  6  1  0
  6  7  2  0
  7  8  1  0
  8  9  1  0
  9 10  2  0
 10 11  1  0
 11 12  1  0
 12 13  2  0
 13 14  1  0
 14 15  2  0
 15 16  1  0
 16 17  1  0
 17 18  1  0
 18 19  1  0
 19 20  2  0
 20 21  1  0
 21 22  2  0
 22 23  1  0
 23 24  2  0
 16 25  2  0
  8 26  2  0
  2 27  1  0
 27 28  1  0
 28 29  2  0
 29 30  1  0
 30 31  2  0
 31 32  1  0
 32 33  1  0
 33 34  1  0
 33 35  1  0
 33 36  1  0
 32 37  2  0
 26  4  1  0
 37 28  1  0
 25  9  1  0
 15 11  1  0
 24 19  1  0
  3 38  1  0
  5 39  1  0
  6 40  1  0
  7 41  1  0
 10 42  1  0
 12 43  1  0
 13 44  1  0
 17 45  1  0
 18 46  1  0
 18 47  1  0
 20 48  1  0
 21 49  1  0
 22 50  1  0
 23 51  1  0
 26 52  1  0
 27 53  1  0
 29 54  1  0
 30 55  1  0
 31 56  1  0
 37 57  1  0
M  END
>  <meeko>  (7) 
{"is_sidechain": [false], "free_energy": -10.406, "intermolecular_energy": -14.01, "internal_energy": -0.95}

$$$$
LIB_ZVHBDYFMHCQADD__H_AF__e8__s20260927
     RDKit          3D

 57 61  0  0  0  0  0  0  0  0999 V2000
    0.9210  -13.2950    0.2390 O   0  0  0  0  0  0  0  0  0  0  0  0
    1.0190  -14.2860    0.9490 C   0  0  0  0  0  0  0  0  0  0  0  0
    2.1920  -14.9960    1.1650 N   0  0  0  0  0  0  0  0  0  0  0  0
    3.4390  -14.8090    0.5310 C   0  0  0  0  0  0  0  0  0  0  0  0
    3.9920  -15.9130   -0.1290 C   0  0  0  0  0  0  0  0  0  0  0  0
    5.2180  -15.8070   -0.7850 C   0  0  0  0  0  0  0  0  0  0  0  0
    5.9040  -14.5930   -0.7850 C   0  0  0  0  0  0  0  0  0  0  0  0
    5.3770  -13.4720   -0.1280 C   0  0  0  0  0  0  0  0  0  0  0  0
    6.1240  -12.1880   -0.1560 C   0  0  0  0  0  0  0  0  0  0  0  0
    5.5010  -11.0400    0.1780 C   0  0  0  0  0  0  0  0  0  0  0  0
    6.2280   -9.8700    0.1560 N   0  0  0  0  0  0  0  0  0  0  0  0
    5.8960   -8.5710    0.4300 C   0  0  0  0  0  0  0  0  0  0  0  0
    7.0580   -7.8560    0.2300 C   0  0  0  0  0  0  0  0  0  0  0  0
    8.0910   -8.6770   -0.1580 N   0  0  0  0  0  0  0  0  0  0  0  0
    7.5500   -9.8780   -0.1900 C   0  0  0  0  0  0  0  0  0  0  0  0
    8.1840  -11.1390   -0.5330 C   0  0  0  0  0  0  0  0  0  0  0  0
    9.5100  -11.1760   -0.8800 N   0  0  0  0  0  0  0  0  0  0  0  0
   10.2530  -12.3830   -1.1420 C   0  0  0  0  0  0  0  0  0  0  0  0
   11.3790  -12.1080   -2.1190 C   0  0  0  0  0  0  0  0  0  0  0  0
   11.5930  -12.9700   -3.1940 C   0  0  0  0  0  0  0  0  0  0  0  0
   12.6100  -12.6790   -4.0980 C   0  0  0  0  0  0  0  0  0  0  0  0
   13.3790  -11.5370   -3.9140 C   0  0  0  0  0  0  0  0  0  0  0  0
   13.0950  -10.7260   -2.8270 C   0  0  0  0  0  0  0  0  0  0  0  0
   12.1160  -10.9820   -1.9330 N   0  0  0  0  0  0  0  0  0  0  0  0
    7.4710  -12.2430   -0.5040 N   0  0  0  0  0  0  0  0  0  0  0  0
    4.1300  -13.5940    0.5120 C   0  0  0  0  0  0  0  0  0  0  0  0
   -0.0280  -14.8580    1.6600 N   0  0  0  0  0  0  0  0  0  0  0  0
   -1.3500  -14.3820    1.7860 C   0  0  0  0  0  0  0  0  0  0  0  0
   -1.7900  -14.0560    3.0750 C   0  0  0  0  0  0  0  0  0  0  0  0
   -3.0840  -13.5770    3.2890 C   0  0  0  0  0  0  0  0  0  0  0  0
   -3.9520  -13.4130    2.2120 C   0  0  0  0  0  0  0  0  0  0  0  0
   -3.5300  -13.7200    0.9110 C   0  0  0  0  0  0  0  0  0  0  0  0
   -4.4620  -13.5620   -0.2650 C   0  0  0  0  0  0  0  0  0  0  0  0
   -5.6880  -13.0770    0.0860 F   0  0  0  0  0  0  0  0  0  0  0  0
   -4.6990  -14.7400   -0.9040 F   0  0  0  0  0  0  0  0  0  0  0  0
   -3.9860  -12.7060   -1.2110 F   0  0  0  0  0  0  0  0  0  0  0  0
   -2.2260  -14.2080    0.7110 C   0  0  0  0  0  0  0  0  0  0  0  0
    2.1780  -15.6710    1.9130 H   0  0  0  0  0  0  0  0  0  0  0  0
    3.4545  -16.8727   -0.1301 H   0  0  0  0  0  0  0  0  0  0  0  0
    5.6434  -16.6799   -1.3018 H   0  0  0  0  0  0  0  0  0  0  0  0
    6.8694  -14.5139   -1.3063 H   0  0  0  0  0  0  0  0  0  0  0  0
    4.4381  -11.0376    0.4612 H   0  0  0  0  0  0  0  0  0  0  0  0
    4.9155   -8.1819    0.7419 H   0  0  0  0  0  0  0  0  0  0  0  0
    7.1474   -6.7678    0.3637 H   0  0  0  0  0  0  0  0  0  0  0  0
   10.0320  -10.3080   -0.8070 H   0  0  0  0  0  0  0  0  0  0  0  0
   10.6752  -12.7607   -0.1991 H   0  0  0  0  0  0  0  0  0  0  0  0
    9.5757  -13.1315   -1.5791 H   0  0  0  0  0  0  0  0  0  0  0  0
   10.9679  -13.8656   -3.3253 H   0  0  0  0  0  0  0  0  0  0  0  0
   12.8032  -13.3470   -4.9503 H   0  0  0  0  0  0  0  0  0  0  0  0
   14.1908  -11.2835   -4.6117 H   0  0  0  0  0  0  0  0  0  0  0  0
   13.7028   -9.8204   -2.6840 H   0  0  0  0  0  0  0  0  0  0  0  0
    3.6901  -12.7158    1.0073 H   0  0  0  0  0  0  0  0  0  0  0  0
    0.1600  -15.7510    2.0870 H   0  0  0  0  0  0  0  0  0  0  0  0
   -1.1079  -14.1788    3.9292 H   0  0  0  0  0  0  0  0  0  0  0  0
   -3.4177  -13.3293    4.3075 H   0  0  0  0  0  0  0  0  0  0  0  0
   -4.9729  -13.0410    2.3831 H   0  0  0  0  0  0  0  0  0  0  0  0
   -1.8907  -14.4564   -0.3068 H   0  0  0  0  0  0  0  0  0  0  0  0
  1  2  2  0
  2  3  1  0
  3  4  1  0
  4  5  2  0
  5  6  1  0
  6  7  2  0
  7  8  1  0
  8  9  1  0
  9 10  2  0
 10 11  1  0
 11 12  1  0
 12 13  2  0
 13 14  1  0
 14 15  2  0
 15 16  1  0
 16 17  1  0
 17 18  1  0
 18 19  1  0
 19 20  2  0
 20 21  1  0
 21 22  2  0
 22 23  1  0
 23 24  2  0
 16 25  2  0
  8 26  2  0
  2 27  1  0
 27 28  1  0
 28 29  2  0
 29 30  1  0
 30 31  2  0
 31 32  1  0
 32 33  1  0
 33 34  1  0
 33 35  1  0
 33 36  1  0
 32 37  2  0
 26  4  1  0
 37 28  1  0
 25  9  1  0
 15 11  1  0
 24 19  1  0
  3 38  1  0
  5 39  1  0
  6 40  1  0
  7 41  1  0
 10 42  1  0
 12 43  1  0
 13 44  1  0
 17 45  1  0
 18 46  1  0
 18 47  1  0
 20 48  1  0
 21 49  1  0
 22 50  1  0
 23 51  1  0
 26 52  1  0
 27 53  1  0
 29 54  1  0
 30 55  1  0
 31 56  1  0
 37 57  1  0
M  END
>  <meeko>  (8) 
{"is_sidechain": [false], "free_energy": -10.276, "intermolecular_energy": -13.99, "internal_energy": -0.795}

$$$$
LIB_ZVHBDYFMHCQADD__H_AF__e8__s20260927
     RDKit          3D

 57 61  0  0  0  0  0  0  0  0999 V2000
    1.0040  -14.0150   -1.8770 O   0  0  0  0  0  0  0  0  0  0  0  0
    1.5620  -13.3300   -1.0310 C   0  0  0  0  0  0  0  0  0  0  0  0
    2.7990  -12.7200   -1.1930 N   0  0  0  0  0  0  0  0  0  0  0  0
    3.6940  -12.8660   -2.2740 C   0  0  0  0  0  0  0  0  0  0  0  0
    3.4560  -12.0850   -3.4110 C   0  0  0  0  0  0  0  0  0  0  0  0
    4.2990  -12.1670   -4.5180 C   0  0  0  0  0  0  0  0  0  0  0  0
    5.3890  -13.0350   -4.5000 C   0  0  0  0  0  0  0  0  0  0  0  0
    5.6510  -13.8330   -3.3760 C   0  0  0  0  0  0  0  0  0  0  0  0
    6.8290  -14.7380   -3.3790 C   0  0  0  0  0  0  0  0  0  0  0  0
    6.7450  -15.9500   -3.9670 C   0  0  0  0  0  0  0  0  0  0  0  0
    7.8610  -16.7570   -3.9640 N   0  0  0  0  0  0  0  0  0  0  0  0
    8.0940  -18.0110   -4.4590 C   0  0  0  0  0  0  0  0  0  0  0  0
    9.4100  -18.2800   -4.1450 C   0  0  0  0  0  0  0  0  0  0  0  0
    9.9890  -17.2290   -3.4730 N   0  0  0  0  0  0  0  0  0  0  0  0
    9.0240  -16.3350   -3.3860 C   0  0  0  0  0  0  0  0  0  0  0  0
    9.0740  -15.0180   -2.7740 C   0  0  0  0  0  0  0  0  0  0  0  0
   10.2310  -14.5680   -2.1900 N   0  0  0  0  0  0  0  0  0  0  0  0
   10.4100  -13.2460   -1.6440 C   0  0  0  0  0  0  0  0  0  0  0  0
   11.5080  -12.5140   -2.3890 C   0  0  0  0  0  0  0  0  0  0  0  0
   11.9420  -12.9840   -3.6280 C   0  0  0  0  0  0  0  0  0  0  0  0
   12.9280  -12.2760   -4.3100 C   0  0  0  0  0  0  0  0  0  0  0  0
   13.4490  -11.1180   -3.7460 C   0  0  0  0  0  0  0  0  0  0  0  0
   12.9560  -10.7120   -2.5170 C   0  0  0  0  0  0  0  0  0  0  0  0
   12.0010  -11.3770   -1.8310 N   0  0  0  0  0  0  0  0  0  0  0  0
    7.9980  -14.2640   -2.7890 N   0  0  0  0  0  0  0  0  0  0  0  0
    4.8000  -13.7230   -2.2620 C   0  0  0  0  0  0  0  0  0  0  0  0
    1.0460  -13.0470    0.2260 N   0  0  0  0  0  0  0  0  0  0  0  0
   -0.2220  -13.3930    0.7390 C   0  0  0  0  0  0  0  0  0  0  0  0
   -0.2610  -13.9290    2.0320 C   0  0  0  0  0  0  0  0  0  0  0  0
   -1.4750  -14.2980    2.6160 C   0  0  0  0  0  0  0  0  0  0  0  0
   -2.6650  -14.1300    1.9130 C   0  0  0  0  0  0  0  0  0  0  0  0
   -2.6520  -13.5840    0.6220 C   0  0  0  0  0  0  0  0  0  0  0  0
   -3.9310  -13.4100   -0.1600 C   0  0  0  0  0  0  0  0  0  0  0  0
   -4.5160  -14.5940   -0.5010 F   0  0  0  0  0  0  0  0  0  0  0  0
   -3.7390  -12.7410   -1.3300 F   0  0  0  0  0  0  0  0  0  0  0  0
   -4.8810  -12.7130    0.5220 F   0  0  0  0  0  0  0  0  0  0  0  0
   -1.4210  -13.2230    0.0430 C   0  0  0  0  0  0  0  0  0  0  0  0
    3.0570  -12.0360   -0.5000 H   0  0  0  0  0  0  0  0  0  0  0  0
    2.5955  -11.4000   -3.4311 H   0  0  0  0  0  0  0  0  0  0  0  0
    4.1040  -11.5469   -5.4054 H   0  0  0  0  0  0  0  0  0  0  0  0
    6.0511  -13.0952   -5.3763 H   0  0  0  0  0  0  0  0  0  0  0  0
    5.8085  -16.2849   -4.4369 H   0  0  0  0  0  0  0  0  0  0  0  0
    7.3859  -18.6629   -4.9916 H   0  0  0  0  0  0  0  0  0  0  0  0
    9.9298  -19.2154   -4.3995 H   0  0  0  0  0  0  0  0  0  0  0  0
   11.0530  -15.1570   -2.2790 H   0  0  0  0  0  0  0  0  0  0  0  0
    9.4695  -12.6836   -1.7393 H   0  0  0  0  0  0  0  0  0  0  0  0
   10.6920  -13.3315   -0.5842 H   0  0  0  0  0  0  0  0  0  0  0  0
   11.5121  -13.8998   -4.0598 H   0  0  0  0  0  0  0  0  0  0  0  0
   13.2911  -12.6301   -5.2861 H   0  0  0  0  0  0  0  0  0  0  0  0
   14.2307  -10.5402   -4.2609 H   0  0  0  0  0  0  0  0  0  0  0  0
   13.3666   -9.7932   -2.0730 H   0  0  0  0  0  0  0  0  0  0  0  0
    5.0079  -14.3225   -1.3634 H   0  0  0  0  0  0  0  0  0  0  0  0
    1.6720  -12.5930    0.8730 H   0  0  0  0  0  0  0  0  0  0  0  0
    0.6752  -14.0610    2.5943 H   0  0  0  0  0  0  0  0  0  0  0  0
   -1.4909  -14.7213    3.6312 H   0  0  0  0  0  0  0  0  0  0  0  0
   -3.6193  -14.4269    2.3725 H   0  0  0  0  0  0  0  0  0  0  0  0
   -1.4029  -12.8008   -0.9726 H   0  0  0  0  0  0  0  0  0  0  0  0
  1  2  2  0
  2  3  1  0
  3  4  1  0
  4  5  2  0
  5  6  1  0
  6  7  2  0
  7  8  1  0
  8  9  1  0
  9 10  2  0
 10 11  1  0
 11 12  1  0
 12 13  2  0
 13 14  1  0
 14 15  2  0
 15 16  1  0
 16 17  1  0
 17 18  1  0
 18 19  1  0
 19 20  2  0
 20 21  1  0
 21 22  2  0
 22 23  1  0
 23 24  2  0
 16 25  2  0
  8 26  2  0
  2 27  1  0
 27 28  1  0
 28 29  2  0
 29 30  1  0
 30 31  2  0
 31 32  1  0
 32 33  1  0
 33 34  1  0
 33 35  1  0
 33 36  1  0
 32 37  2  0
 26  4  1  0
 37 28  1  0
 25  9  1  0
 15 11  1  0
 24 19  1  0
  3 38  1  0
  5 39  1  0
  6 40  1  0
  7 41  1  0
 10 42  1  0
 12 43  1  0
 13 44  1  0
 17 45  1  0
 18 46  1  0
 18 47  1  0
 20 48  1  0
 21 49  1  0
 22 50  1  0
 23 51  1  0
 26 52  1  0
 27 53  1  0
 29 54  1  0
 30 55  1  0
 31 56  1  0
 37 57  1  0
M  END
>  <meeko>  (9) 
{"is_sidechain": [false], "free_energy": -9.816, "intermolecular_energy": -13.312, "internal_energy": -0.851}

$$$$
