
     RDKit          3D

 39 41  0  0  0  0  0  0  0  0999 V2000
   -0.6399   -1.3728   -1.8468 O   0  0  0  0  0  0  0  0  0  0  0  0
   -0.4308   -1.9894   -0.8108 C   0  0  0  0  0  0  0  0  0  0  0  0
   -1.5568   -2.7684   -0.2120 C   0  0  0  0  0  0  0  0  0  0  0  0
   -2.6629   -2.0878    0.1508 C   0  0  0  0  0  0  0  0  0  0  0  0
   -2.7566   -0.6520   -0.0288 C   0  0  0  0  0  0  0  0  0  0  0  0
   -1.9746    0.1842    0.6721 C   0  0  0  0  0  0  0  0  0  0  0  0
   -1.5708    1.5088    0.2310 C   0  0  0  0  0  0  0  0  0  0  0  0
   -2.3449    2.4059   -0.4052 C   0  0  0  0  0  0  0  0  0  0  0  0
   -3.6110    2.2813   -0.8978 O   0  0  0  0  0  0  0  0  0  0  0  0
   -4.2300    1.0017   -0.9159 C   0  0  0  0  0  0  0  0  0  0  0  0
   -3.3663   -0.1671   -1.2086 N   0  0  0  0  0  0  0  0  0  0  0  0
   -0.0852    1.7767    0.4298 C   0  0  0  0  0  0  0  0  0  0  0  0
    0.7386    1.1220   -0.7055 C   0  0  0  0  0  0  0  0  0  0  0  0
    1.8465    0.2213   -0.2136 C   0  0  0  0  0  0  0  0  0  0  0  0
    3.0553    0.9096    0.0642 C   0  0  0  0  0  0  0  0  0  0  0  0
    4.1716    0.2958    0.6481 C   0  0  0  0  0  0  0  0  0  0  0  0
    5.4236    1.0905    0.9590 C   0  0  0  0  0  0  0  0  0  0  0  0
    5.3931    2.3318    0.6902 O   0  0  0  0  0  0  0  0  0  0  0  0
    6.3935    0.4539    1.4743 O   0  0  0  0  0  0  0  0  0  0  0  0
    4.0803   -1.0580    0.9556 C   0  0  0  0  0  0  0  0  0  0  0  0
    2.9046   -1.7618    0.6940 C   0  0  0  0  0  0  0  0  0  0  0  0
    1.7789   -1.1506    0.1007 C   0  0  0  0  0  0  0  0  0  0  0  0
    0.6695   -2.0257   -0.0028 N   0  0  0  0  0  0  0  0  0  0  0  0
   -1.4309   -3.8337   -0.0693 H   0  0  0  0  0  0  0  0  0  0  0  0
   -3.5090   -2.6051    0.5930 H   0  0  0  0  0  0  0  0  0  0  0  0
   -1.4160   -0.2019    1.5277 H   0  0  0  0  0  0  0  0  0  0  0  0
   -1.9657    3.3894   -0.6780 H   0  0  0  0  0  0  0  0  0  0  0  0
   -4.7821    0.8299    0.0180 H   0  0  0  0  0  0  0  0  0  0  0  0
   -4.9705    1.0257   -1.7227 H   0  0  0  0  0  0  0  0  0  0  0  0
   -3.8904   -0.8944   -1.7004 H   0  0  0  0  0  0  0  0  0  0  0  0
   -2.6237    0.1220   -1.8670 H   0  0  0  0  0  0  0  0  0  0  0  0
    0.0999    2.8593    0.4184 H   0  0  0  0  0  0  0  0  0  0  0  0
    0.2349    1.4364    1.4230 H   0  0  0  0  0  0  0  0  0  0  0  0
    0.1183    0.6254   -1.4459 H   0  0  0  0  0  0  0  0  0  0  0  0
    1.1908    1.9349   -1.2938 H   0  0  0  0  0  0  0  0  0  0  0  0
    3.1384    1.9775   -0.1522 H   0  0  0  0  0  0  0  0  0  0  0  0
    4.9340   -1.5593    1.4101 H   0  0  0  0  0  0  0  0  0  0  0  0
    2.8989   -2.8167    0.9582 H   0  0  0  0  0  0  0  0  0  0  0  0
    0.7475   -2.8393    0.5968 H   0  0  0  0  0  0  0  0  0  0  0  0
  1  2  2  0
  2  3  1  0
  3  4  2  0
  4  5  1  0
  5  6  2  0
  6  7  1  0
  7  8  2  0
  8  9  1  0
  9 10  1  0
 10 11  1  0
  7 12  1  0
 12 13  1  0
 13 14  1  0
 14 15  2  0
 15 16  1  0
 16 17  1  0
 17 18  2  0
 17 19  1  0
 16 20  2  0
 20 21  1  0
 21 22  2  0
 22 23  1  0
 23  2  1  0
 11  5  1  0
 22 14  1  0
  3 24  1  0
  4 25  1  0
  6 26  1  0
  8 27  1  0
 10 28  1  0
 10 29  1  0
 11 30  1  0
 11 31  1  0
 12 32  1  0
 12 33  1  0
 13 34  1  0
 13 35  1  0
 15 36  1  0
 20 37  1  0
 21 38  1  0
 23 39  1  0
M  CHG  2  11   1  19  -1
M  END
$$$$
