
     RDKit          3D

 49 51  0  0  0  0  0  0  0  0999 V2000
    3.3198   -0.5685   -1.7149 C   0  0  0  0  0  0  0  0  0  0  0  0
    2.3253    0.3557   -1.1573 N   0  0  0  0  0  0  0  0  0  0  0  0
    1.3069    0.8399   -2.1150 C   0  0  0  0  0  0  0  0  0  0  0  0
    0.2431   -0.2549   -2.3557 C   0  0  0  0  0  0  0  0  0  0  0  0
    0.4879   -1.1875   -3.1305 O   0  0  0  0  0  0  0  0  0  0  0  0
   -0.9344   -0.2616   -1.5857 N   0  0  0  0  0  0  0  0  0  0  0  0
   -1.8541   -1.3982   -1.7757 C   0  0  0  0  0  0  0  0  0  0  0  0
   -1.3276   -2.7486   -1.2514 C   0  0  0  0  0  0  0  0  0  0  0  0
   -1.7925   -3.1072    0.1554 C   0  0  0  0  0  0  0  0  0  0  0  0
   -0.8628   -2.6336    1.2259 N   0  0  0  0  0  0  0  0  0  0  0  0
   -0.5344   -1.1634    1.2618 C   0  0  0  0  0  0  0  0  0  0  0  0
   -1.7980   -0.3292    1.2833 C   0  0  0  0  0  0  0  0  0  0  0  0
   -2.7388   -0.6568    2.0066 O   0  0  0  0  0  0  0  0  0  0  0  0
   -1.9200    0.8563    0.4070 C   0  0  0  0  0  0  0  0  0  0  0  0
   -2.5353    1.9822    0.9715 C   0  0  0  0  0  0  0  0  0  0  0  0
   -2.6690    3.1409    0.2198 C   0  0  0  0  0  0  0  0  0  0  0  0
   -3.2476    4.2163    0.7651 F   0  0  0  0  0  0  0  0  0  0  0  0
   -2.2189    3.1961   -1.0913 C   0  0  0  0  0  0  0  0  0  0  0  0
   -1.6269    2.0699   -1.6674 C   0  0  0  0  0  0  0  0  0  0  0  0
   -1.4571    0.8881   -0.9247 C   0  0  0  0  0  0  0  0  0  0  0  0
    2.3433    0.6780    0.1906 C   0  0  0  0  0  0  0  0  0  0  0  0
    3.0802   -0.0814    1.1209 C   0  0  0  0  0  0  0  0  0  0  0  0
    3.0893    0.2083    2.4922 C   0  0  0  0  0  0  0  0  0  0  0  0
    2.3557    1.2802    2.9810 C   0  0  0  0  0  0  0  0  0  0  0  0
    1.6358    2.0610    2.0884 C   0  0  0  0  0  0  0  0  0  0  0  0
    0.6332    3.5298    2.7293 Br  0  0  0  0  0  0  0  0  0  0  0  0
    1.6359    1.7705    0.7177 C   0  0  0  0  0  0  0  0  0  0  0  0
    4.3348   -0.2744   -1.4254 H   0  0  0  0  0  0  0  0  0  0  0  0
    3.1249   -1.5925   -1.3783 H   0  0  0  0  0  0  0  0  0  0  0  0
    3.2963   -0.5763   -2.8103 H   0  0  0  0  0  0  0  0  0  0  0  0
    0.8797    1.7964   -1.8299 H   0  0  0  0  0  0  0  0  0  0  0  0
    1.7799    1.0366   -3.0863 H   0  0  0  0  0  0  0  0  0  0  0  0
   -2.0026   -1.4920   -2.8600 H   0  0  0  0  0  0  0  0  0  0  0  0
   -2.8416   -1.1722   -1.3561 H   0  0  0  0  0  0  0  0  0  0  0  0
   -0.2388   -2.8337   -1.3324 H   0  0  0  0  0  0  0  0  0  0  0  0
   -1.7457   -3.5169   -1.9157 H   0  0  0  0  0  0  0  0  0  0  0  0
   -2.7960   -2.7327    0.3791 H   0  0  0  0  0  0  0  0  0  0  0  0
   -1.8144   -4.1966    0.2690 H   0  0  0  0  0  0  0  0  0  0  0  0
   -1.3181   -2.8437    2.1282 H   0  0  0  0  0  0  0  0  0  0  0  0
    0.0107   -3.1751    1.2085 H   0  0  0  0  0  0  0  0  0  0  0  0
    0.0088   -0.9953    2.1966 H   0  0  0  0  0  0  0  0  0  0  0  0
    0.1388   -0.9711    0.4354 H   0  0  0  0  0  0  0  0  0  0  0  0
   -2.9102    1.9755    1.9928 H   0  0  0  0  0  0  0  0  0  0  0  0
   -2.3546    4.1099   -1.6650 H   0  0  0  0  0  0  0  0  0  0  0  0
   -1.3425    2.1221   -2.7177 H   0  0  0  0  0  0  0  0  0  0  0  0
    3.6846   -0.9258    0.7964 H   0  0  0  0  0  0  0  0  0  0  0  0
    3.6906   -0.3937    3.1706 H   0  0  0  0  0  0  0  0  0  0  0  0
    2.3760    1.5145    4.0427 H   0  0  0  0  0  0  0  0  0  0  0  0
    1.1000    2.4545    0.0683 H   0  0  0  0  0  0  0  0  0  0  0  0
  1  2  1  0
  2  3  1  0
  3  4  1  0
  4  5  2  0
  4  6  1  0
  6  7  1  0
  7  8  1  0
  8  9  1  0
  9 10  1  0
 10 11  1  0
 11 12  1  0
 12 13  2  0
 12 14  1  0
 14 15  2  0
 15 16  1  0
 16 17  1  0
 16 18  2  0
 18 19  1  0
 19 20  2  0
  2 21  1  0
 21 22  2  0
 22 23  1  0
 23 24  2  0
 24 25  1  0
 25 26  1  0
 25 27  2  0
 20  6  1  0
 27 21  1  0
 20 14  1  0
  1 28  1  0
  1 29  1  0
  1 30  1  0
  3 31  1  0
  3 32  1  0
  7 33  1  0
  7 34  1  0
  8 35  1  0
  8 36  1  0
  9 37  1  0
  9 38  1  0
 10 39  1  0
 10 40  1  0
 11 41  1  0
 11 42  1  0
 15 43  1  0
 18 44  1  0
 19 45  1  0
 22 46  1  0
 23 47  1  0
 24 48  1  0
 27 49  1  0
M  CHG  1  10   1
M  END
$$$$
