
     RDKit          3D

 34 35  0  0  0  0  0  0  0  0999 V2000
   -2.3583    2.4218   -0.0003 C   0  0  0  0  0  0  0  0  0  0  0  0
   -1.7411    1.1374    0.0167 O   0  0  0  0  0  0  0  0  0  0  0  0
   -2.5577    0.0325    0.0021 C   0  0  0  0  0  0  0  0  0  0  0  0
   -3.9595    0.1184   -0.0287 C   0  0  0  0  0  0  0  0  0  0  0  0
   -4.7513   -1.0325   -0.0427 C   0  0  0  0  0  0  0  0  0  0  0  0
   -4.1564   -2.2864   -0.0262 C   0  0  0  0  0  0  0  0  0  0  0  0
   -2.7666   -2.3891    0.0044 C   0  0  0  0  0  0  0  0  0  0  0  0
   -1.9475   -1.2418    0.0190 C   0  0  0  0  0  0  0  0  0  0  0  0
   -0.4596   -1.4953    0.0521 C   0  0  0  0  0  0  0  0  0  0  0  0
   -0.0686   -2.6591    0.0639 O   0  0  0  0  0  0  0  0  0  0  0  0
    0.3628   -0.3846    0.0668 N   0  0  0  0  0  0  0  0  0  0  0  0
    1.7759   -0.3335    0.0975 C   0  0  0  0  0  0  0  0  0  0  0  0
    2.5703   -1.4853    0.1181 C   0  0  0  0  0  0  0  0  0  0  0  0
    3.9609   -1.3906    0.1481 C   0  0  0  0  0  0  0  0  0  0  0  0
    4.6829   -2.5208    0.1671 F   0  0  0  0  0  0  0  0  0  0  0  0
    4.5941   -0.1560    0.1584 C   0  0  0  0  0  0  0  0  0  0  0  0
    6.0210   -0.0721    0.1892 C   0  0  0  0  0  0  0  0  0  0  0  0
    7.1762    0.0399    0.2140 N   0  0  0  0  0  0  0  0  0  0  0  0
    3.8170    1.0050    0.1381 C   0  0  0  0  0  0  0  0  0  0  0  0
    2.4098    0.9313    0.1077 C   0  0  0  0  0  0  0  0  0  0  0  0
    1.6320    2.2214    0.0870 C   0  0  0  0  0  0  0  0  0  0  0  0
   -2.9751    2.5748    0.8912 H   0  0  0  0  0  0  0  0  0  0  0  0
   -2.9357    2.5698   -0.9186 H   0  0  0  0  0  0  0  0  0  0  0  0
   -1.5623    3.1725    0.0150 H   0  0  0  0  0  0  0  0  0  0  0  0
   -4.4777    1.0722   -0.0427 H   0  0  0  0  0  0  0  0  0  0  0  0
   -5.8353   -0.9469   -0.0665 H   0  0  0  0  0  0  0  0  0  0  0  0
   -4.7678   -3.1854   -0.0370 H   0  0  0  0  0  0  0  0  0  0  0  0
   -2.3192   -3.3825    0.0169 H   0  0  0  0  0  0  0  0  0  0  0  0
   -0.1266    0.5031    0.0536 H   0  0  0  0  0  0  0  0  0  0  0  0
    2.1469   -2.4835    0.1117 H   0  0  0  0  0  0  0  0  0  0  0  0
    4.3100    1.9769    0.1461 H   0  0  0  0  0  0  0  0  0  0  0  0
    0.9866    2.2899    0.9686 H   0  0  0  0  0  0  0  0  0  0  0  0
    1.0256    2.2847   -0.8222 H   0  0  0  0  0  0  0  0  0  0  0  0
    2.2943    3.0937    0.0989 H   0  0  0  0  0  0  0  0  0  0  0  0
  1  2  1  0
  2  3  1  0
  3  4  2  0
  4  5  1  0
  5  6  2  0
  6  7  1  0
  7  8  2  0
  8  9  1  0
  9 10  2  0
  9 11  1  0
 11 12  1  0
 12 13  2  0
 13 14  1  0
 14 15  1  0
 14 16  2  0
 16 17  1  0
 17 18  3  0
 16 19  1  0
 19 20  2  0
 20 21  1  0
  8  3  1  0
 20 12  1  0
  1 22  1  0
  1 23  1  0
  1 24  1  0
  4 25  1  0
  5 26  1  0
  6 27  1  0
  7 28  1  0
 11 29  1  0
 13 30  1  0
 19 31  1  0
 21 32  1  0
 21 33  1  0
 21 34  1  0
M  END
$$$$
