
     RDKit          3D

 25 26  0  0  0  0  0  0  0  0999 V2000
   -4.6282   -1.9366    1.4577 O   0  0  0  0  0  0  0  0  0  0  0  0
   -3.3821   -2.0922    1.2464 C   0  0  0  0  0  0  0  0  0  0  0  0
   -2.7478   -3.1865    1.3988 O   0  0  0  0  0  0  0  0  0  0  0  0
   -2.5996   -0.8949    0.7852 C   0  0  0  0  0  0  0  0  0  0  0  0
   -3.2074    0.3376    0.6193 C   0  0  0  0  0  0  0  0  0  0  0  0
   -2.5707    1.4654    0.2116 N   0  0  0  0  0  0  0  0  0  0  0  0
   -1.2200    1.3819   -0.0562 C   0  0  0  0  0  0  0  0  0  0  0  0
   -0.4879    2.6573   -0.4881 C   0  0  0  0  0  0  0  0  0  0  0  0
   -0.5127    2.9589   -1.7312 O   0  0  0  0  0  0  0  0  0  0  0  0
    0.1166    3.3293    0.4152 O   0  0  0  0  0  0  0  0  0  0  0  0
   -0.5034    0.1749    0.0725 C   0  0  0  0  0  0  0  0  0  0  0  0
    0.9374    0.0309   -0.2149 C   0  0  0  0  0  0  0  0  0  0  0  0
    1.4649    0.3184   -1.4832 C   0  0  0  0  0  0  0  0  0  0  0  0
    2.8266    0.1547   -1.7544 C   0  0  0  0  0  0  0  0  0  0  0  0
    3.6860   -0.3086   -0.7612 C   0  0  0  0  0  0  0  0  0  0  0  0
    3.1843   -0.6038    0.5039 C   0  0  0  0  0  0  0  0  0  0  0  0
    1.8228   -0.4351    0.7725 C   0  0  0  0  0  0  0  0  0  0  0  0
   -1.2300   -0.9576    0.5000 C   0  0  0  0  0  0  0  0  0  0  0  0
   -4.2688    0.4609    0.8190 H   0  0  0  0  0  0  0  0  0  0  0  0
    0.8078    0.6932   -2.2680 H   0  0  0  0  0  0  0  0  0  0  0  0
    3.2056    0.4063   -2.7399 H   0  0  0  0  0  0  0  0  0  0  0  0
    4.7440   -0.4261   -0.9698 H   0  0  0  0  0  0  0  0  0  0  0  0
    3.8460   -0.9551    1.2890 H   0  0  0  0  0  0  0  0  0  0  0  0
    1.4432   -0.6558    1.7683 H   0  0  0  0  0  0  0  0  0  0  0  0
   -0.7266   -1.9175    0.6075 H   0  0  0  0  0  0  0  0  0  0  0  0
  1  2  2  0
  2  3  1  0
  2  4  1  0
  4  5  2  0
  5  6  1  0
  6  7  2  0
  7  8  1  0
  8  9  2  0
  8 10  1  0
  7 11  1  0
 11 12  1  0
 12 13  2  0
 13 14  1  0
 14 15  2  0
 15 16  1  0
 16 17  2  0
 11 18  2  0
 18  4  1  0
 17 12  1  0
  5 19  1  0
 13 20  1  0
 14 21  1  0
 15 22  1  0
 16 23  1  0
 17 24  1  0
 18 25  1  0
M  CHG  2   3  -1  10  -1
M  END
$$$$
