
     RDKit          3D

 53 54  0  0  0  0  0  0  0  0999 V2000
    0.9181    1.7924    0.6180 C   0  0  0  0  0  0  0  0  0  0  0  0
    0.8344    0.3530    0.0587 C   0  0  0  0  0  0  0  0  0  0  0  0
    1.0367   -0.6621    1.2068 C   0  0  0  0  0  0  0  0  0  0  0  0
    2.0001    0.1668   -0.9599 C   0  0  0  0  0  0  0  0  0  0  0  0
    3.3799    0.3311   -0.5846 N   0  0  0  0  0  0  0  0  0  0  0  0
    4.1512   -0.9693   -0.4964 C   0  0  0  0  0  0  0  0  0  0  0  0
    5.5585   -0.7339    0.0553 C   0  0  0  0  0  0  0  0  0  0  0  0
    5.4870   -0.0749    1.4086 C   0  0  0  0  0  0  0  0  0  0  0  0
    6.5779   -0.2003    2.1994 N   0  0  0  0  0  0  0  0  0  0  0  0
    4.4990    0.5826    1.7339 O   0  0  0  0  0  0  0  0  0  0  0  0
    1.7765   -0.0748   -2.2608 C   0  0  0  0  0  0  0  0  0  0  0  0
    0.4452   -0.2160   -2.7802 C   0  0  0  0  0  0  0  0  0  0  0  0
   -0.6509   -0.0913   -2.0239 C   0  0  0  0  0  0  0  0  0  0  0  0
   -1.8875   -0.2782   -2.6273 O   0  0  0  0  0  0  0  0  0  0  0  0
   -2.6741    0.9288   -2.6843 C   0  0  0  0  0  0  0  0  0  0  0  0
   -3.2959    1.0993   -1.3136 C   0  0  0  0  0  0  0  0  0  0  0  0
   -3.9304    2.0626   -0.9301 O   0  0  0  0  0  0  0  0  0  0  0  0
   -3.0203    0.0157   -0.3241 N   0  0  0  0  0  0  0  0  0  0  0  0
   -4.1278   -0.3062    0.6860 C   0  0  0  0  0  0  0  0  0  0  0  0
   -4.3368    0.8044    1.7274 C   0  0  0  0  0  0  0  0  0  0  0  0
   -5.4349   -0.5612   -0.0906 C   0  0  0  0  0  0  0  0  0  0  0  0
   -3.7466   -1.6210    1.4014 C   0  0  0  0  0  0  0  0  0  0  0  0
   -1.7026    0.2125    0.2255 C   0  0  0  0  0  0  0  0  0  0  0  0
   -0.6000    0.1483   -0.5685 C   0  0  0  0  0  0  0  0  0  0  0  0
    1.8796    1.9901    1.1042 H   0  0  0  0  0  0  0  0  0  0  0  0
    0.1475    1.9857    1.3726 H   0  0  0  0  0  0  0  0  0  0  0  0
    0.7921    2.5347   -0.1797 H   0  0  0  0  0  0  0  0  0  0  0  0
    0.2890   -0.5499    1.9992 H   0  0  0  0  0  0  0  0  0  0  0  0
    2.0102   -0.5395    1.6926 H   0  0  0  0  0  0  0  0  0  0  0  0
    0.9760   -1.6931    0.8379 H   0  0  0  0  0  0  0  0  0  0  0  0
    3.4638    0.7669    0.3619 H   0  0  0  0  0  0  0  0  0  0  0  0
    3.8696    0.9982   -1.2000 H   0  0  0  0  0  0  0  0  0  0  0  0
    4.2053   -1.3925   -1.5047 H   0  0  0  0  0  0  0  0  0  0  0  0
    3.5869   -1.6433    0.1571 H   0  0  0  0  0  0  0  0  0  0  0  0
    6.1316   -0.0817   -0.6130 H   0  0  0  0  0  0  0  0  0  0  0  0
    6.0879   -1.6891    0.1378 H   0  0  0  0  0  0  0  0  0  0  0  0
    7.4180   -0.7094    1.9464 H   0  0  0  0  0  0  0  0  0  0  0  0
    6.5837    0.2459    3.1123 H   0  0  0  0  0  0  0  0  0  0  0  0
    2.5786   -0.1722   -2.9898 H   0  0  0  0  0  0  0  0  0  0  0  0
    0.3509   -0.4301   -3.8450 H   0  0  0  0  0  0  0  0  0  0  0  0
   -2.0624    1.7970   -2.9500 H   0  0  0  0  0  0  0  0  0  0  0  0
   -3.4697    0.7834   -3.4192 H   0  0  0  0  0  0  0  0  0  0  0  0
   -2.9794   -0.8142   -0.9392 H   0  0  0  0  0  0  0  0  0  0  0  0
   -3.4326    1.0151    2.3058 H   0  0  0  0  0  0  0  0  0  0  0  0
   -4.6802    1.7426    1.2848 H   0  0  0  0  0  0  0  0  0  0  0  0
   -5.1068    0.5039    2.4487 H   0  0  0  0  0  0  0  0  0  0  0  0
   -6.2234   -0.9182    0.5822 H   0  0  0  0  0  0  0  0  0  0  0  0
   -5.8162    0.3455   -0.5708 H   0  0  0  0  0  0  0  0  0  0  0  0
   -5.2962   -1.3218   -0.8676 H   0  0  0  0  0  0  0  0  0  0  0  0
   -3.5533   -2.4257    0.6827 H   0  0  0  0  0  0  0  0  0  0  0  0
   -4.5573   -1.9556    2.0594 H   0  0  0  0  0  0  0  0  0  0  0  0
   -2.8553   -1.5067    2.0276 H   0  0  0  0  0  0  0  0  0  0  0  0
   -1.5945    0.4259    1.2887 H   0  0  0  0  0  0  0  0  0  0  0  0
  1  2  1  0
  2  3  1  0
  2  4  1  0
  4  5  1  0
  5  6  1  0
  6  7  1  0
  7  8  1  0
  8  9  1  0
  8 10  2  0
  4 11  2  0
 11 12  1  0
 12 13  2  0
 13 14  1  0
 14 15  1  0
 15 16  1  0
 16 17  2  0
 16 18  1  0
 18 19  1  0
 19 20  1  0
 19 21  1  0
 19 22  1  0
 18 23  1  0
 23 24  2  0
 24  2  1  0
 24 13  1  0
  1 25  1  0
  1 26  1  0
  1 27  1  0
  3 28  1  0
  3 29  1  0
  3 30  1  0
  5 31  1  0
  5 32  1  0
  6 33  1  0
  6 34  1  0
  7 35  1  0
  7 36  1  0
  9 37  1  0
  9 38  1  0
 11 39  1  0
 12 40  1  0
 15 41  1  0
 15 42  1  0
 18 43  1  0
 20 44  1  0
 20 45  1  0
 20 46  1  0
 21 47  1  0
 21 48  1  0
 21 49  1  0
 22 50  1  0
 22 51  1  0
 22 52  1  0
 23 53  1  0
M  CHG  2   5   1  18   1
M  END
$$$$
