
     RDKit          3D

 37 39  0  0  0  0  0  0  0  0999 V2000
   -1.6618    1.6080    2.0628 O   0  0  0  0  0  0  0  0  0  0  0  0
   -1.7702    1.9232    0.6583 S   0  0  0  0  0  0  0  0  0  0  0  0
   -2.7606    2.8407    0.1500 O   0  0  0  0  0  0  0  0  0  0  0  0
   -1.8654    0.4358   -0.2238 C   0  0  0  0  0  0  0  0  0  0  0  0
   -1.9788    0.4236   -1.5615 C   0  0  0  0  0  0  0  0  0  0  0  0
   -2.1898   -0.8469   -2.2241 C   0  0  0  0  0  0  0  0  0  0  0  0
   -2.0467   -2.0318   -1.6095 C   0  0  0  0  0  0  0  0  0  0  0  0
   -1.5604   -2.0629   -0.2605 N   0  0  0  0  0  0  0  0  0  0  0  0
   -1.9172   -0.8336    0.5589 C   0  0  0  0  0  0  0  0  0  0  0  0
   -0.3348    2.7516    0.2472 N   0  0  0  0  0  0  0  0  0  0  0  0
    0.1873    3.5568    1.3140 C   0  0  0  0  0  0  0  0  0  0  0  0
    1.2252    3.0760    2.0132 C   0  0  0  0  0  0  0  0  0  0  0  0
    1.7489    1.7647    1.7222 C   0  0  0  0  0  0  0  0  0  0  0  0
    1.4123    1.1871    0.5580 C   0  0  0  0  0  0  0  0  0  0  0  0
    1.7772   -0.1859    0.1606 C   0  0  0  0  0  0  0  0  0  0  0  0
    1.9241   -0.5207   -1.1953 C   0  0  0  0  0  0  0  0  0  0  0  0
    2.1857   -1.8378   -1.5839 C   0  0  0  0  0  0  0  0  0  0  0  0
    2.3024   -2.8398   -0.6248 C   0  0  0  0  0  0  0  0  0  0  0  0
    2.1625   -2.5269    0.7240 C   0  0  0  0  0  0  0  0  0  0  0  0
    1.8985   -1.2109    1.1146 C   0  0  0  0  0  0  0  0  0  0  0  0
    0.6380    1.8781   -0.3812 O   0  0  0  0  0  0  0  0  0  0  0  0
   -2.0156    1.3217   -2.1764 H   0  0  0  0  0  0  0  0  0  0  0  0
   -2.5264   -0.8169   -3.2618 H   0  0  0  0  0  0  0  0  0  0  0  0
   -2.2486   -2.9612   -2.1467 H   0  0  0  0  0  0  0  0  0  0  0  0
   -1.9140   -2.9010    0.2300 H   0  0  0  0  0  0  0  0  0  0  0  0
   -0.5333   -2.1881   -0.2715 H   0  0  0  0  0  0  0  0  0  0  0  0
   -1.2082   -0.8389    1.3916 H   0  0  0  0  0  0  0  0  0  0  0  0
   -2.9250   -1.0039    0.9543 H   0  0  0  0  0  0  0  0  0  0  0  0
   -0.7081    3.3837   -0.4722 H   0  0  0  0  0  0  0  0  0  0  0  0
   -0.2414    4.5327    1.5426 H   0  0  0  0  0  0  0  0  0  0  0  0
    1.6623    3.6391    2.8358 H   0  0  0  0  0  0  0  0  0  0  0  0
    2.3824    1.2914    2.4686 H   0  0  0  0  0  0  0  0  0  0  0  0
    1.8847    0.2386   -1.9757 H   0  0  0  0  0  0  0  0  0  0  0  0
    2.3454   -2.0769   -2.6354 H   0  0  0  0  0  0  0  0  0  0  0  0
    2.5537   -3.8569   -0.9261 H   0  0  0  0  0  0  0  0  0  0  0  0
    2.3016   -3.3036    1.4763 H   0  0  0  0  0  0  0  0  0  0  0  0
    1.8139   -1.0081    2.1821 H   0  0  0  0  0  0  0  0  0  0  0  0
  1  2  2  0
  2  3  2  0
  2  4  1  0
  4  5  2  0
  5  6  1  0
  6  7  2  0
  7  8  1  0
  8  9  1  0
  2 10  1  0
 10 11  1  0
 11 12  2  0
 12 13  1  0
 13 14  2  0
 14 15  1  0
 15 16  2  0
 16 17  1  0
 17 18  2  0
 18 19  1  0
 19 20  2  0
 14 21  1  0
  9  4  1  0
 21 10  1  0
 20 15  1  0
  5 22  1  0
  6 23  1  0
  7 24  1  0
  8 25  1  0
  8 26  1  0
  9 27  1  0
  9 28  1  0
 10 29  1  0
 11 30  1  0
 12 31  1  0
 13 32  1  0
 16 33  1  0
 17 34  1  0
 18 35  1  0
 19 36  1  0
 20 37  1  0
M  CHG  2   8   1  10   1
M  END
$$$$
