
     RDKit          3D

 37 40  0  0  0  0  0  0  0  0999 V2000
    3.7136   -0.8891    0.3804 C   0  0  0  0  0  0  0  0  0  0  0  0
    2.9309   -0.4881   -0.8607 C   0  0  0  0  0  0  0  0  0  0  0  0
    1.4993   -0.9438   -0.7879 C   0  0  0  0  0  0  0  0  0  0  0  0
    0.4254   -0.2108   -0.4290 C   0  0  0  0  0  0  0  0  0  0  0  0
    0.3174    1.1712    0.0969 C   0  0  0  0  0  0  0  0  0  0  0  0
    1.2844    2.0336    0.5819 C   0  0  0  0  0  0  0  0  0  0  0  0
    0.8999    3.2960    1.0618 C   0  0  0  0  0  0  0  0  0  0  0  0
   -0.4348    3.7474    1.0957 C   0  0  0  0  0  0  0  0  0  0  0  0
   -0.7579    4.8981    1.5381 O   0  0  0  0  0  0  0  0  0  0  0  0
   -1.3828    2.8255    0.6126 C   0  0  0  0  0  0  0  0  0  0  0  0
   -1.0326    1.5580    0.1274 C   0  0  0  0  0  0  0  0  0  0  0  0
   -1.9256    0.4675   -0.3786 C   0  0  0  0  0  0  0  0  0  0  0  0
   -2.9961    0.7726   -1.4056 C   0  0  0  0  0  0  0  0  0  0  0  0
   -3.3887    0.3407   -0.0227 C   0  0  0  0  0  0  0  0  0  0  0  0
   -1.0103   -0.7396   -0.5819 C   0  0  2  0  0  0  0  0  0  0  0  0
   -1.2879   -1.8656    0.4259 C   0  0  0  0  0  0  0  0  0  0  0  0
   -0.1246   -2.8327    0.6120 C   0  0  0  0  0  0  0  0  0  0  0  0
    0.5171   -3.2145   -0.6973 C   0  0  0  0  0  0  0  0  0  0  0  0
    0.3274   -4.3097   -1.2212 O   0  0  0  0  0  0  0  0  0  0  0  0
    1.3500   -2.2868   -1.2598 O   0  0  0  0  0  0  0  0  0  0  0  0
    3.7250   -1.9772    0.5062 H   0  0  0  0  0  0  0  0  0  0  0  0
    3.2837   -0.4487    1.2858 H   0  0  0  0  0  0  0  0  0  0  0  0
    4.7509   -0.5494    0.2982 H   0  0  0  0  0  0  0  0  0  0  0  0
    3.4038   -0.9452   -1.7396 H   0  0  0  0  0  0  0  0  0  0  0  0
    3.0057    0.5888   -1.0321 H   0  0  0  0  0  0  0  0  0  0  0  0
    2.3310    1.7727    0.6281 H   0  0  0  0  0  0  0  0  0  0  0  0
    1.6726    3.9667    1.4378 H   0  0  0  0  0  0  0  0  0  0  0  0
   -2.4305    3.1189    0.6253 H   0  0  0  0  0  0  0  0  0  0  0  0
   -3.1503    0.0754   -2.2199 H   0  0  0  0  0  0  0  0  0  0  0  0
   -3.1609    1.8096   -1.6796 H   0  0  0  0  0  0  0  0  0  0  0  0
   -3.8261   -0.6431    0.0892 H   0  0  0  0  0  0  0  0  0  0  0  0
   -3.8213    1.0833    0.6392 H   0  0  0  0  0  0  0  0  0  0  0  0
   -1.1392   -1.1194   -1.6049 H   0  0  0  0  0  0  0  0  0  0  0  0
   -2.1681   -2.4256    0.0841 H   0  0  0  0  0  0  0  0  0  0  0  0
   -1.5540   -1.4539    1.4080 H   0  0  0  0  0  0  0  0  0  0  0  0
   -0.4858   -3.7484    1.0961 H   0  0  0  0  0  0  0  0  0  0  0  0
    0.6393   -2.4344    1.2899 H   0  0  0  0  0  0  0  0  0  0  0  0
  1  2  1  0
  2  3  1  0
  3  4  2  0
  4  5  1  0
  5  6  2  0
  6  7  1  0
  7  8  2  0
  8  9  1  0
  8 10  1  0
 10 11  2  0
 11 12  1  0
 12 13  1  0
 13 14  1  0
 12 15  1  0
 15 16  1  0
 16 17  1  0
 17 18  1  0
 18 19  2  0
 18 20  1  0
 20  3  1  0
 15  4  1  0
 11  5  1  0
 14 12  1  0
  1 21  1  0
  1 22  1  0
  1 23  1  0
  2 24  1  0
  2 25  1  0
  6 26  1  0
  7 27  1  0
 10 28  1  0
 13 29  1  0
 13 30  1  0
 14 31  1  0
 14 32  1  0
 15 33  1  6
 16 34  1  0
 16 35  1  0
 17 36  1  0
 17 37  1  0
M  CHG  1   9  -1
M  END
$$$$
