
     RDKit          3D

 29 31  0  0  0  0  0  0  0  0999 V2000
    5.4620   -0.6082    0.6677 O   0  0  0  0  0  0  0  0  0  0  0  0
    4.7412    0.2296    0.0476 C   0  0  0  0  0  0  0  0  0  0  0  0
    5.1338    1.2810   -0.5457 O   0  0  0  0  0  0  0  0  0  0  0  0
    3.2505   -0.0341    0.0274 C   0  0  0  0  0  0  0  0  0  0  0  0
    2.6976   -1.1244    0.7053 C   0  0  0  0  0  0  0  0  0  0  0  0
    1.3172   -1.3364    0.7142 C   0  0  0  0  0  0  0  0  0  0  0  0
    0.4369   -0.4624    0.0477 C   0  0  0  0  0  0  0  0  0  0  0  0
    1.0004    0.6429   -0.6432 C   0  0  0  0  0  0  0  0  0  0  0  0
    2.3886    0.8307   -0.6581 C   0  0  0  0  0  0  0  0  0  0  0  0
    0.2080    1.6617   -1.3578 C   0  0  0  0  0  0  0  0  0  0  0  0
   -0.9270    2.1991   -0.8921 C   0  0  0  0  0  0  0  0  0  0  0  0
   -1.4187    1.7505    0.3667 N   0  0  0  0  0  0  0  0  0  0  0  0
   -1.9352    0.3779    0.3016 C   0  0  0  0  0  0  0  0  0  0  0  0
   -3.3160    0.1741    0.3938 C   0  0  0  0  0  0  0  0  0  0  0  0
   -3.8222   -1.1208    0.3110 C   0  0  0  0  0  0  0  0  0  0  0  0
   -2.9539   -2.1952    0.1308 C   0  0  0  0  0  0  0  0  0  0  0  0
   -1.5744   -1.9827    0.0388 C   0  0  0  0  0  0  0  0  0  0  0  0
   -1.0286   -0.6908    0.1299 C   0  0  0  0  0  0  0  0  0  0  0  0
    3.3605   -1.8063    1.2392 H   0  0  0  0  0  0  0  0  0  0  0  0
    0.9478   -2.1912    1.2772 H   0  0  0  0  0  0  0  0  0  0  0  0
    2.8353    1.6760   -1.1849 H   0  0  0  0  0  0  0  0  0  0  0  0
    0.6218    2.0029   -2.3059 H   0  0  0  0  0  0  0  0  0  0  0  0
   -1.4538    2.9623   -1.4628 H   0  0  0  0  0  0  0  0  0  0  0  0
   -2.1353    2.3729    0.7529 H   0  0  0  0  0  0  0  0  0  0  0  0
   -0.6564    1.7443    1.0665 H   0  0  0  0  0  0  0  0  0  0  0  0
   -4.0104    0.9994    0.5197 H   0  0  0  0  0  0  0  0  0  0  0  0
   -4.8940   -1.2991    0.3779 H   0  0  0  0  0  0  0  0  0  0  0  0
   -3.3485   -3.2078    0.0556 H   0  0  0  0  0  0  0  0  0  0  0  0
   -0.9274   -2.8458   -0.1209 H   0  0  0  0  0  0  0  0  0  0  0  0
  1  2  2  0
  2  3  1  0
  2  4  1  0
  4  5  2  0
  5  6  1  0
  6  7  2  0
  7  8  1  0
  8  9  2  0
  8 10  1  0
 10 11  2  0
 11 12  1  0
 12 13  1  0
 13 14  2  0
 14 15  1  0
 15 16  2  0
 16 17  1  0
 17 18  2  0
  9  4  1  0
 18 13  1  0
 18  7  1  0
  5 19  1  0
  6 20  1  0
  9 21  1  0
 10 22  1  0
 11 23  1  0
 12 24  1  0
 12 25  1  0
 14 26  1  0
 15 27  1  0
 16 28  1  0
 17 29  1  0
M  CHG  2   3  -1  12   1
M  END
$$$$
