
     RDKit          3D

 35 36  0  0  0  0  0  0  0  0999 V2000
    3.4583   -1.4717   -1.0275 C   0  0  0  0  0  0  0  0  0  0  0  0
    3.6824   -0.2175   -0.2247 C   0  0  0  0  0  0  0  0  0  0  0  0
    5.0073    0.2045   -0.0096 C   0  0  0  0  0  0  0  0  0  0  0  0
    5.2805    1.3556    0.7247 C   0  0  0  0  0  0  0  0  0  0  0  0
    4.2326    2.0990    1.2520 C   0  0  0  0  0  0  0  0  0  0  0  0
    2.9109    1.6930    1.0471 C   0  0  0  0  0  0  0  0  0  0  0  0
    2.6154    0.5379    0.3137 C   0  0  0  0  0  0  0  0  0  0  0  0
    1.2897    0.0999    0.0845 N   0  0  0  0  0  0  0  0  0  0  0  0
    0.1023    0.6566    0.5404 C   0  0  0  0  0  0  0  0  0  0  0  0
    0.0115    1.6350    1.2696 O   0  0  0  0  0  0  0  0  0  0  0  0
   -0.9755   -0.0575    0.0431 N   0  0  0  0  0  0  0  0  0  0  0  0
   -2.3585    0.1072    0.3027 C   0  0  0  0  0  0  0  0  0  0  0  0
   -2.8382    1.0276    1.2420 C   0  0  0  0  0  0  0  0  0  0  0  0
   -4.2071    1.1432    1.5005 C   0  0  0  0  0  0  0  0  0  0  0  0
   -5.1182    0.3341    0.8313 C   0  0  0  0  0  0  0  0  0  0  0  0
   -4.6646   -0.5868   -0.1123 C   0  0  0  0  0  0  0  0  0  0  0  0
   -3.2919   -0.6976   -0.3977 C   0  0  0  0  0  0  0  0  0  0  0  0
   -2.8203   -1.6711   -1.4325 C   0  0  0  0  0  0  0  0  0  0  0  0
   -3.7054   -2.0788   -2.3918 N   0  0  0  0  0  0  0  0  0  0  0  0
   -1.6589   -2.0699   -1.4614 O   0  0  0  0  0  0  0  0  0  0  0  0
    4.4037   -1.9165   -1.3561 H   0  0  0  0  0  0  0  0  0  0  0  0
    2.8727   -1.2488   -1.9252 H   0  0  0  0  0  0  0  0  0  0  0  0
    2.9372   -2.2216   -0.4235 H   0  0  0  0  0  0  0  0  0  0  0  0
    5.8398   -0.3662   -0.4160 H   0  0  0  0  0  0  0  0  0  0  0  0
    6.3079    1.6714    0.8844 H   0  0  0  0  0  0  0  0  0  0  0  0
    4.4356    2.9995    1.8257 H   0  0  0  0  0  0  0  0  0  0  0  0
    2.1297    2.3112    1.4773 H   0  0  0  0  0  0  0  0  0  0  0  0
    1.1872   -0.7408   -0.4606 H   0  0  0  0  0  0  0  0  0  0  0  0
   -0.7623   -0.8099   -0.6082 H   0  0  0  0  0  0  0  0  0  0  0  0
   -2.1669    1.6677    1.8066 H   0  0  0  0  0  0  0  0  0  0  0  0
   -4.5542    1.8622    2.2393 H   0  0  0  0  0  0  0  0  0  0  0  0
   -6.1800    0.4163    1.0506 H   0  0  0  0  0  0  0  0  0  0  0  0
   -5.3973   -1.2253   -0.5954 H   0  0  0  0  0  0  0  0  0  0  0  0
   -4.6393   -1.7137   -2.5030 H   0  0  0  0  0  0  0  0  0  0  0  0
   -3.3662   -2.7283   -3.0901 H   0  0  0  0  0  0  0  0  0  0  0  0
  1  2  1  0
  2  3  2  0
  3  4  1  0
  4  5  2  0
  5  6  1  0
  6  7  2  0
  7  8  1  0
  8  9  1  0
  9 10  2  0
  9 11  1  0
 11 12  1  0
 12 13  2  0
 13 14  1  0
 14 15  2  0
 15 16  1  0
 16 17  2  0
 17 18  1  0
 18 19  1  0
 18 20  2  0
  7  2  1  0
 17 12  1  0
  1 21  1  0
  1 22  1  0
  1 23  1  0
  3 24  1  0
  4 25  1  0
  5 26  1  0
  6 27  1  0
  8 28  1  0
 11 29  1  0
 13 30  1  0
 14 31  1  0
 15 32  1  0
 16 33  1  0
 19 34  1  0
 19 35  1  0
M  END
$$$$
