
     RDKit          3D

 43 45  0  0  0  0  0  0  0  0999 V2000
    3.6664   -0.9133    2.7750 C   0  0  0  0  0  0  0  0  0  0  0  0
    3.1315   -0.1246    1.7238 O   0  0  0  0  0  0  0  0  0  0  0  0
    2.6550   -0.7701    0.5949 C   0  0  0  0  0  0  0  0  0  0  0  0
    2.8621   -2.0748    0.3105 C   0  0  0  0  0  0  0  0  0  0  0  0
    2.4094   -2.8308   -0.8431 C   0  0  0  0  0  0  0  0  0  0  0  0
    1.1518   -3.0355   -1.2679 C   0  0  0  0  0  0  0  0  0  0  0  0
   -0.0649   -2.5262   -0.6692 C   0  0  0  0  0  0  0  0  0  0  0  0
   -1.2660   -2.6741   -1.2459 C   0  0  0  0  0  0  0  0  0  0  0  0
   -2.5489   -2.1622   -0.6919 C   0  0  0  0  0  0  0  0  0  0  0  0
   -3.5839   -2.7748   -0.9720 O   0  0  0  0  0  0  0  0  0  0  0  0
   -2.5932   -1.0122    0.2599 C   0  0  0  0  0  0  0  0  0  0  0  0
   -3.3663   -1.2453    1.4172 C   0  0  0  0  0  0  0  0  0  0  0  0
   -3.5217   -0.2577    2.3833 C   0  0  0  0  0  0  0  0  0  0  0  0
   -2.9178    0.9750    2.1894 C   0  0  0  0  0  0  0  0  0  0  0  0
   -2.1671    1.2177    1.0319 C   0  0  0  0  0  0  0  0  0  0  0  0
   -1.9720    0.2442    0.0244 C   0  0  0  0  0  0  0  0  0  0  0  0
   -1.2696    0.4588   -1.1247 N   0  0  0  0  0  0  0  0  0  0  0  0
   -0.7117    1.6756   -1.3495 C   0  0  0  0  0  0  0  0  0  0  0  0
   -1.3839    2.5615   -2.2147 C   0  0  0  0  0  0  0  0  0  0  0  0
   -0.8750    3.8244   -2.5285 C   0  0  0  0  0  0  0  0  0  0  0  0
    0.3371    4.2364   -1.9902 C   0  0  0  0  0  0  0  0  0  0  0  0
    1.0388    3.3794   -1.1443 C   0  0  0  0  0  0  0  0  0  0  0  0
    0.5384    2.1025   -0.8277 C   0  0  0  0  0  0  0  0  0  0  0  0
    1.3617    1.2898    0.0855 C   0  0  0  0  0  0  0  0  0  0  0  0
    1.9128    0.1232   -0.2851 C   0  0  0  0  0  0  0  0  0  0  0  0
    2.9432   -1.6604    3.1184 H   0  0  0  0  0  0  0  0  0  0  0  0
    4.6058   -1.3856    2.4705 H   0  0  0  0  0  0  0  0  0  0  0  0
    3.8858   -0.2486    3.6159 H   0  0  0  0  0  0  0  0  0  0  0  0
    3.4705   -2.6808    0.9737 H   0  0  0  0  0  0  0  0  0  0  0  0
    3.2138   -3.3081   -1.3999 H   0  0  0  0  0  0  0  0  0  0  0  0
    1.0190   -3.6304   -2.1700 H   0  0  0  0  0  0  0  0  0  0  0  0
    0.0158   -1.9651    0.2586 H   0  0  0  0  0  0  0  0  0  0  0  0
   -1.3901   -3.2273   -2.1687 H   0  0  0  0  0  0  0  0  0  0  0  0
   -3.8505   -2.2086    1.5525 H   0  0  0  0  0  0  0  0  0  0  0  0
   -4.1155   -0.4467    3.2701 H   0  0  0  0  0  0  0  0  0  0  0  0
   -3.0298    1.7656    2.9238 H   0  0  0  0  0  0  0  0  0  0  0  0
   -1.7300    2.2079    0.9161 H   0  0  0  0  0  0  0  0  0  0  0  0
   -2.3359    2.2502   -2.6419 H   0  0  0  0  0  0  0  0  0  0  0  0
   -1.4334    4.4748   -3.1925 H   0  0  0  0  0  0  0  0  0  0  0  0
    0.7376    5.2149   -2.2287 H   0  0  0  0  0  0  0  0  0  0  0  0
    1.9900    3.7015   -0.7311 H   0  0  0  0  0  0  0  0  0  0  0  0
    1.4563    1.6747    1.0938 H   0  0  0  0  0  0  0  0  0  0  0  0
    1.7242   -0.2147   -1.3018 H   0  0  0  0  0  0  0  0  0  0  0  0
  1  2  1  0
  2  3  1  0
  3  4  2  3
  4  5  1  0
  5  6  2  3
  6  7  1  0
  7  8  2  3
  8  9  1  0
  9 10  2  0
  9 11  1  0
 11 12  2  0
 12 13  1  0
 13 14  2  0
 14 15  1  0
 15 16  2  0
 16 17  1  0
 17 18  1  0
 18 19  2  0
 19 20  1  0
 20 21  2  0
 21 22  1  0
 22 23  2  0
 23 24  1  0
 24 25  2  3
 25  3  1  0
 16 11  1  0
 23 18  1  0
  1 26  1  0
  1 27  1  0
  1 28  1  0
  4 29  1  0
  5 30  1  0
  6 31  1  0
  7 32  1  0
  8 33  1  0
 12 34  1  0
 13 35  1  0
 14 36  1  0
 15 37  1  0
 19 38  1  0
 20 39  1  0
 21 40  1  0
 22 41  1  0
 24 42  1  0
 25 43  1  0
M  CHG  1  17  -1
M  END
$$$$
