
     RDKit          3D

 69 73  0  0  0  0  0  0  0  0999 V2000
    8.1783    0.5590   -1.8520 C   0  0  0  0  0  0  0  0  0  0  0  0
    8.6157    1.6130   -1.0013 O   0  0  0  0  0  0  0  0  0  0  0  0
    9.9906    1.4813   -0.6115 C   0  0  0  0  0  0  0  0  0  0  0  0
   10.1400    0.5571    0.5980 C   0  0  0  0  0  0  0  0  0  0  0  0
    9.5390    1.1915    1.7346 O   0  0  0  0  0  0  0  0  0  0  0  0
    9.1586    0.2586    2.7421 C   0  0  0  0  0  0  0  0  0  0  0  0
    7.7907   -0.3894    2.4831 C   0  0  0  0  0  0  0  0  0  0  0  0
    7.4824   -1.4489    3.0193 O   0  0  0  0  0  0  0  0  0  0  0  0
    7.0111    0.3758    1.6333 N   0  0  0  0  0  0  0  0  0  0  0  0
    5.6924    0.1391    1.2104 C   0  0  0  0  0  0  0  0  0  0  0  0
    4.9220   -0.9447    1.6263 C   0  0  0  0  0  0  0  0  0  0  0  0
    3.6125   -1.1083    1.1532 C   0  0  0  0  0  0  0  0  0  0  0  0
    3.0488   -0.1909    0.2592 C   0  0  0  0  0  0  0  0  0  0  0  0
    1.6989   -0.3595   -0.2570 C   0  0  0  0  0  0  0  0  0  0  0  0
    1.1793   -0.0409   -1.5270 C   0  0  0  0  0  0  0  0  0  0  0  0
   -0.1147   -0.3219   -1.6569 N   0  0  0  0  0  0  0  0  0  0  0  0
   -0.4810   -0.8253   -0.4441 N   0  0  0  0  0  0  0  0  0  0  0  0
   -1.7561   -1.2687   -0.0333 C   0  0  0  0  0  0  0  0  0  0  0  0
   -2.9275   -1.2541   -0.9379 C   0  0  0  0  0  0  0  0  0  0  0  0
   -2.8563   -1.8467   -2.2047 C   0  0  0  0  0  0  0  0  0  0  0  0
   -3.9612   -1.8342   -3.0544 C   0  0  0  0  0  0  0  0  0  0  0  0
   -5.1511   -1.2324   -2.6440 C   0  0  0  0  0  0  0  0  0  0  0  0
   -5.2499   -0.6361   -1.3817 C   0  0  0  0  0  0  0  0  0  0  0  0
   -6.4914   -0.0564   -1.0404 N   0  0  0  0  0  0  0  0  0  0  0  0
   -6.8285    0.5687    0.1467 C   0  0  0  0  0  0  0  0  0  0  0  0
   -6.0967    0.7747    1.1068 O   0  0  0  0  0  0  0  0  0  0  0  0
   -8.2361    1.0527    0.2226 C   0  0  0  0  0  0  0  0  0  0  0  0
   -8.4906    2.2596    0.8834 C   0  0  0  0  0  0  0  0  0  0  0  0
   -9.7948    2.7436    0.9825 C   0  0  0  0  0  0  0  0  0  0  0  0
  -10.8521    2.0196    0.4296 C   0  0  0  0  0  0  0  0  0  0  0  0
  -10.6179    0.8009   -0.2268 C   0  0  0  0  0  0  0  0  0  0  0  0
  -11.7659   -0.0028   -0.7884 C   0  0  0  0  0  0  0  0  0  0  0  0
  -11.4162   -0.7050   -1.9028 F   0  0  0  0  0  0  0  0  0  0  0  0
  -12.8319    0.7621   -1.1504 F   0  0  0  0  0  0  0  0  0  0  0  0
  -12.2398   -0.9188    0.0983 F   0  0  0  0  0  0  0  0  0  0  0  0
   -9.3006    0.3164   -0.3159 C   0  0  0  0  0  0  0  0  0  0  0  0
   -4.1340   -0.6480   -0.5397 C   0  0  0  0  0  0  0  0  0  0  0  0
   -1.9097   -1.7359    1.2203 C   0  0  0  0  0  0  0  0  0  0  0  0
   -0.6969   -1.7304    2.0731 C   0  0  0  0  0  0  0  0  0  0  0  0
    0.4865   -1.3339    1.7234 N   0  0  0  0  0  0  0  0  0  0  0  0
    0.6151   -0.8682    0.4395 C   0  0  0  0  0  0  0  0  0  0  0  0
    3.8268    0.8968   -0.1553 C   0  0  0  0  0  0  0  0  0  0  0  0
    5.1339    1.0605    0.3185 C   0  0  0  0  0  0  0  0  0  0  0  0
    8.7856    0.5231   -2.7614 H   0  0  0  0  0  0  0  0  0  0  0  0
    8.2154   -0.4034   -1.3352 H   0  0  0  0  0  0  0  0  0  0  0  0
    7.1423    0.7580   -2.1383 H   0  0  0  0  0  0  0  0  0  0  0  0
   10.5938    1.1298   -1.4557 H   0  0  0  0  0  0  0  0  0  0  0  0
   10.3327    2.4869   -0.3447 H   0  0  0  0  0  0  0  0  0  0  0  0
    9.6650   -0.4097    0.4029 H   0  0  0  0  0  0  0  0  0  0  0  0
   11.1997    0.3951    0.8204 H   0  0  0  0  0  0  0  0  0  0  0  0
    9.9215   -0.5189    2.8605 H   0  0  0  0  0  0  0  0  0  0  0  0
    9.0775    0.8085    3.6855 H   0  0  0  0  0  0  0  0  0  0  0  0
    7.4793    1.1978    1.2510 H   0  0  0  0  0  0  0  0  0  0  0  0
    5.3049   -1.6845    2.3221 H   0  0  0  0  0  0  0  0  0  0  0  0
    3.0423   -1.9691    1.4963 H   0  0  0  0  0  0  0  0  0  0  0  0
    1.7015    0.3830   -2.3752 H   0  0  0  0  0  0  0  0  0  0  0  0
   -1.9346   -2.3150   -2.5455 H   0  0  0  0  0  0  0  0  0  0  0  0
   -3.8909   -2.2901   -4.0388 H   0  0  0  0  0  0  0  0  0  0  0  0
   -5.9956   -1.2375   -3.3281 H   0  0  0  0  0  0  0  0  0  0  0  0
   -7.1939   -0.0805   -1.7675 H   0  0  0  0  0  0  0  0  0  0  0  0
   -7.6702    2.8244    1.3238 H   0  0  0  0  0  0  0  0  0  0  0  0
   -9.9863    3.6829    1.4970 H   0  0  0  0  0  0  0  0  0  0  0  0
  -11.8666    2.4074    0.5210 H   0  0  0  0  0  0  0  0  0  0  0  0
   -9.1221   -0.6514   -0.7816 H   0  0  0  0  0  0  0  0  0  0  0  0
   -4.1756   -0.1724    0.4352 H   0  0  0  0  0  0  0  0  0  0  0  0
   -2.8346   -2.1096    1.6380 H   0  0  0  0  0  0  0  0  0  0  0  0
   -0.8463   -2.1089    3.0982 H   0  0  0  0  0  0  0  0  0  0  0  0
    3.4252    1.6411   -0.8386 H   0  0  0  0  0  0  0  0  0  0  0  0
    5.7081    1.9201   -0.0206 H   0  0  0  0  0  0  0  0  0  0  0  0
  1  2  1  0
  2  3  1  0
  3  4  1  0
  4  5  1  0
  5  6  1  0
  6  7  1  0
  7  8  2  0
  7  9  1  0
  9 10  1  0
 10 11  2  0
 11 12  1  0
 12 13  2  0
 13 14  1  0
 14 15  1  0
 15 16  2  0
 16 17  1  0
 17 18  1  0
 18 19  1  0
 19 20  2  0
 20 21  1  0
 21 22  2  0
 22 23  1  0
 23 24  1  0
 24 25  1  0
 25 26  2  0
 25 27  1  0
 27 28  2  0
 28 29  1  0
 29 30  2  0
 30 31  1  0
 31 32  1  0
 32 33  1  0
 32 34  1  0
 32 35  1  0
 31 36  2  0
 23 37  2  0
 18 38  2  0
 38 39  1  0
 39 40  2  0
 40 41  1  0
 13 42  1  0
 42 43  2  0
 43 10  1  0
 41 14  2  0
 41 17  1  0
 37 19  1  0
 36 27  1  0
  1 44  1  0
  1 45  1  0
  1 46  1  0
  3 47  1  0
  3 48  1  0
  4 49  1  0
  4 50  1  0
  6 51  1  0
  6 52  1  0
  9 53  1  0
 11 54  1  0
 12 55  1  0
 15 56  1  0
 20 57  1  0
 21 58  1  0
 22 59  1  0
 24 60  1  0
 28 61  1  0
 29 62  1  0
 30 63  1  0
 36 64  1  0
 37 65  1  0
 38 66  1  0
 39 67  1  0
 42 68  1  0
 43 69  1  0
M  END
$$$$
