
     RDKit          3D

 74 78  0  0  0  0  0  0  0  0999 V2000
    3.1591   -2.3312   -1.9174 C   0  0  0  0  0  0  0  0  0  0  0  0
    3.6095   -1.2268   -0.9990 C   0  0  0  0  0  0  0  0  0  0  0  0
    4.9786   -0.9111   -0.9224 C   0  0  0  0  0  0  0  0  0  0  0  0
    5.4496    0.0999   -0.0740 C   0  0  0  0  0  0  0  0  0  0  0  0
    6.8324    0.3432   -0.0670 N   0  0  0  0  0  0  0  0  0  0  0  0
    7.5304    1.2633    0.6624 C   0  0  0  0  0  0  0  0  0  0  0  0
    7.0968    2.0737    1.4660 O   0  0  0  0  0  0  0  0  0  0  0  0
    8.8466    1.1357    0.3438 O   0  0  0  0  0  0  0  0  0  0  0  0
    9.7178    2.0402    1.0395 C   0  0  0  0  0  0  0  0  0  0  0  0
   11.1648    1.7732    0.6061 C   0  0  0  0  0  0  0  0  0  0  0  0
   11.6061    0.3565    0.9804 C   0  0  0  0  0  0  0  0  0  0  0  0
   12.1058    2.8036    1.2266 C   0  0  0  0  0  0  0  0  0  0  0  0
    4.5365    0.8013    0.7103 C   0  0  0  0  0  0  0  0  0  0  0  0
    3.1729    0.4990    0.6483 C   0  0  0  0  0  0  0  0  0  0  0  0
    2.6990   -0.5091   -0.2020 C   0  0  0  0  0  0  0  0  0  0  0  0
    1.2565   -0.7853   -0.2205 C   0  0  0  0  0  0  0  0  0  0  0  0
    0.3709   -0.0868   -1.2024 C   0  0  0  0  0  0  0  0  0  0  0  0
   -0.9130   -0.2301   -1.3343 N   0  0  0  0  0  0  0  0  0  0  0  0
   -1.5060   -1.1179   -0.4770 C   0  0  0  0  0  0  0  0  0  0  0  0
   -2.8209   -1.5206   -0.3198 C   0  0  0  0  0  0  0  0  0  0  0  0
   -3.9528   -1.0405   -1.0949 C   0  0  0  0  0  0  0  0  0  0  0  0
   -3.8562   -0.8586   -2.4756 C   0  0  0  0  0  0  0  0  0  0  0  0
   -4.9576   -0.4119   -3.1993 C   0  0  0  0  0  0  0  0  0  0  0  0
   -6.1607   -0.1364   -2.5446 C   0  0  0  0  0  0  0  0  0  0  0  0
   -6.2964   -0.2937   -1.1566 C   0  0  0  0  0  0  0  0  0  0  0  0
   -7.5084    0.0035   -0.5275 N   0  0  0  0  0  0  0  0  0  0  0  0
   -8.0528    1.3556   -0.7522 C   0  0  0  0  0  0  0  0  0  0  0  0
   -9.5655    1.4028   -0.4590 C   0  0  0  0  0  0  0  0  0  0  0  0
   -9.8660    0.8349    0.9249 N   0  0  0  0  0  0  0  0  0  0  0  0
  -11.3183    0.9369    1.2739 C   0  0  0  0  0  0  0  0  0  0  0  0
   -9.3481   -0.5965    1.0298 C   0  0  0  0  0  0  0  0  0  0  0  0
   -7.8327   -0.6459    0.7515 C   0  0  0  0  0  0  0  0  0  0  0  0
   -5.1740   -0.7632   -0.4528 C   0  0  0  0  0  0  0  0  0  0  0  0
   -2.7841   -2.4468    0.7414 C   0  0  0  0  0  0  0  0  0  0  0  0
   -1.5647   -2.6303    1.2425 N   0  0  0  0  0  0  0  0  0  0  0  0
   -0.7646   -1.8163    0.4875 N   0  0  0  0  0  0  0  0  0  0  0  0
    0.6406   -1.6478    0.6175 C   0  0  0  0  0  0  0  0  0  0  0  0
    1.2704   -2.3866    1.5986 N   0  0  0  0  0  0  0  0  0  0  0  0
    3.9960   -2.7410   -2.4929 H   0  0  0  0  0  0  0  0  0  0  0  0
    2.4234   -1.9561   -2.6359 H   0  0  0  0  0  0  0  0  0  0  0  0
    2.7224   -3.1520   -1.3397 H   0  0  0  0  0  0  0  0  0  0  0  0
    5.6837   -1.4685   -1.5366 H   0  0  0  0  0  0  0  0  0  0  0  0
    7.4214   -0.2163   -0.6678 H   0  0  0  0  0  0  0  0  0  0  0  0
    9.4378    3.0694    0.7842 H   0  0  0  0  0  0  0  0  0  0  0  0
    9.6110    1.8944    2.1215 H   0  0  0  0  0  0  0  0  0  0  0  0
   11.2225    1.8569   -0.4867 H   0  0  0  0  0  0  0  0  0  0  0  0
   12.6400    0.1774    0.6667 H   0  0  0  0  0  0  0  0  0  0  0  0
   10.9780   -0.3958    0.4923 H   0  0  0  0  0  0  0  0  0  0  0  0
   11.5485    0.1961    2.0624 H   0  0  0  0  0  0  0  0  0  0  0  0
   11.8210    3.8186    0.9299 H   0  0  0  0  0  0  0  0  0  0  0  0
   12.0866    2.7521    2.3206 H   0  0  0  0  0  0  0  0  0  0  0  0
   13.1369    2.6369    0.8976 H   0  0  0  0  0  0  0  0  0  0  0  0
    4.8514    1.5911    1.3860 H   0  0  0  0  0  0  0  0  0  0  0  0
    2.4850    1.0599    1.2788 H   0  0  0  0  0  0  0  0  0  0  0  0
    0.8845    0.6207   -1.8764 H   0  0  0  0  0  0  0  0  0  0  0  0
   -2.9257   -1.0677   -2.9997 H   0  0  0  0  0  0  0  0  0  0  0  0
   -4.8793   -0.2831   -4.2761 H   0  0  0  0  0  0  0  0  0  0  0  0
   -7.0044    0.1809   -3.1514 H   0  0  0  0  0  0  0  0  0  0  0  0
   -7.9055    1.7022   -1.7805 H   0  0  0  0  0  0  0  0  0  0  0  0
   -7.5304    2.0617   -0.0942 H   0  0  0  0  0  0  0  0  0  0  0  0
   -9.9289    2.4353   -0.4728 H   0  0  0  0  0  0  0  0  0  0  0  0
  -10.1288    0.8019   -1.1819 H   0  0  0  0  0  0  0  0  0  0  0  0
   -9.3380    1.3987    1.6035 H   0  0  0  0  0  0  0  0  0  0  0  0
  -11.4491    0.5612    2.2920 H   0  0  0  0  0  0  0  0  0  0  0  0
  -11.8939    0.3417    0.5601 H   0  0  0  0  0  0  0  0  0  0  0  0
  -11.6049    1.9906    1.2261 H   0  0  0  0  0  0  0  0  0  0  0  0
   -9.9068   -1.1946    0.3011 H   0  0  0  0  0  0  0  0  0  0  0  0
   -9.5659   -0.9487    2.0432 H   0  0  0  0  0  0  0  0  0  0  0  0
   -7.5315   -1.7005    0.7414 H   0  0  0  0  0  0  0  0  0  0  0  0
   -7.2976   -0.1438    1.5671 H   0  0  0  0  0  0  0  0  0  0  0  0
   -5.2195   -0.8805    0.6259 H   0  0  0  0  0  0  0  0  0  0  0  0
   -3.6059   -3.0037    1.1723 H   0  0  0  0  0  0  0  0  0  0  0  0
    2.2688   -2.3175    1.7512 H   0  0  0  0  0  0  0  0  0  0  0  0
    0.6956   -3.0079    2.1647 H   0  0  0  0  0  0  0  0  0  0  0  0
  1  2  1  0
  2  3  2  0
  3  4  1  0
  4  5  1  0
  5  6  1  0
  6  7  2  0
  6  8  1  0
  8  9  1  0
  9 10  1  0
 10 11  1  0
 10 12  1  0
  4 13  2  0
 13 14  1  0
 14 15  2  0
 15 16  1  0
 16 17  1  0
 17 18  2  0
 18 19  1  0
 19 20  2  0
 20 21  1  0
 21 22  2  0
 22 23  1  0
 23 24  2  0
 24 25  1  0
 25 26  1  0
 26 27  1  0
 27 28  1  0
 28 29  1  0
 29 30  1  0
 29 31  1  0
 31 32  1  0
 25 33  2  0
 20 34  1  0
 34 35  2  0
 35 36  1  0
 36 37  1  0
 37 38  1  0
 15  2  1  0
 37 16  2  0
 36 19  1  0
 33 21  1  0
 32 26  1  0
  1 39  1  0
  1 40  1  0
  1 41  1  0
  3 42  1  0
  5 43  1  0
  9 44  1  0
  9 45  1  0
 10 46  1  0
 11 47  1  0
 11 48  1  0
 11 49  1  0
 12 50  1  0
 12 51  1  0
 12 52  1  0
 13 53  1  0
 14 54  1  0
 17 55  1  0
 22 56  1  0
 23 57  1  0
 24 58  1  0
 27 59  1  0
 27 60  1  0
 28 61  1  0
 28 62  1  0
 29 63  1  0
 30 64  1  0
 30 65  1  0
 30 66  1  0
 31 67  1  0
 31 68  1  0
 32 69  1  0
 32 70  1  0
 33 71  1  0
 34 72  1  0
 38 73  1  0
 38 74  1  0
M  CHG  1  29   1
M  END
$$$$
