
     RDKit          3D

 67 71  0  0  0  0  0  0  0  0999 V2000
   -9.6668    0.2982   -3.4528 C   0  0  0  0  0  0  0  0  0  0  0  0
  -10.1052    0.6947   -2.0727 N   0  0  0  0  0  0  0  0  0  0  0  0
  -11.5897    0.7109   -1.9181 C   0  0  0  0  0  0  0  0  0  0  0  0
   -9.3895   -0.0979   -0.9776 C   0  0  0  0  0  0  0  0  0  0  0  0
   -7.9785    0.4556   -0.7508 C   0  0  0  0  0  0  0  0  0  0  0  0
   -7.7241    1.5771   -1.1887 O   0  0  0  0  0  0  0  0  0  0  0  0
   -7.1377   -0.3968   -0.0679 N   0  0  0  0  0  0  0  0  0  0  0  0
   -5.7796   -0.1729    0.2523 C   0  0  0  0  0  0  0  0  0  0  0  0
   -5.1165   -1.1840    0.9568 C   0  0  0  0  0  0  0  0  0  0  0  0
   -3.7665   -1.0491    1.3016 C   0  0  0  0  0  0  0  0  0  0  0  0
   -3.0489    0.0972    0.9477 C   0  0  0  0  0  0  0  0  0  0  0  0
   -1.6468    0.2565    1.2995 C   0  0  0  0  0  0  0  0  0  0  0  0
   -0.9341    1.4205    1.6469 C   0  0  0  0  0  0  0  0  0  0  0  0
    0.3540    1.1985    1.8919 N   0  0  0  0  0  0  0  0  0  0  0  0
    0.5208   -0.1384    1.6893 N   0  0  0  0  0  0  0  0  0  0  0  0
    1.7055   -0.8960    1.7919 C   0  0  0  0  0  0  0  0  0  0  0  0
    3.0017   -0.2906    2.1686 C   0  0  0  0  0  0  0  0  0  0  0  0
    3.1191    0.4832    3.3295 C   0  0  0  0  0  0  0  0  0  0  0  0
    4.3445    1.0480    3.6811 C   0  0  0  0  0  0  0  0  0  0  0  0
    5.4667    0.8396    2.8783 C   0  0  0  0  0  0  0  0  0  0  0  0
    5.3766    0.0644    1.7171 C   0  0  0  0  0  0  0  0  0  0  0  0
    6.5544   -0.1008    0.9570 N   0  0  0  0  0  0  0  0  0  0  0  0
    6.7263   -0.9088   -0.1529 C   0  0  0  0  0  0  0  0  0  0  0  0
    5.9190   -1.7093   -0.6099 O   0  0  0  0  0  0  0  0  0  0  0  0
    8.0626   -0.8024   -0.8050 C   0  0  0  0  0  0  0  0  0  0  0  0
    8.6323   -1.9562   -1.3544 C   0  0  0  0  0  0  0  0  0  0  0  0
    9.8780   -1.8943   -1.9788 C   0  0  0  0  0  0  0  0  0  0  0  0
   10.5563   -0.6776   -2.0653 C   0  0  0  0  0  0  0  0  0  0  0  0
    9.9955    0.4928   -1.5306 C   0  0  0  0  0  0  0  0  0  0  0  0
   10.7088    1.8174   -1.6601 C   0  0  0  0  0  0  0  0  0  0  0  0
   10.4867    2.6351   -0.5928 F   0  0  0  0  0  0  0  0  0  0  0  0
   10.3086    2.5152   -2.7567 F   0  0  0  0  0  0  0  0  0  0  0  0
   12.0603    1.6940   -1.7597 F   0  0  0  0  0  0  0  0  0  0  0  0
    8.7359    0.4230   -0.9087 C   0  0  0  0  0  0  0  0  0  0  0  0
    4.1409   -0.4862    1.3659 C   0  0  0  0  0  0  0  0  0  0  0  0
    1.6549   -2.2194    1.5486 C   0  0  0  0  0  0  0  0  0  0  0  0
    0.3279   -2.7656    1.1766 C   0  0  0  0  0  0  0  0  0  0  0  0
   -0.7792   -2.0972    1.0745 N   0  0  0  0  0  0  0  0  0  0  0  0
   -0.6971   -0.7516    1.3324 C   0  0  0  0  0  0  0  0  0  0  0  0
   -3.7184    1.1103    0.2511 C   0  0  0  0  0  0  0  0  0  0  0  0
   -5.0706    0.9767   -0.0951 C   0  0  0  0  0  0  0  0  0  0  0  0
   -8.5781    0.3713   -3.5095 H   0  0  0  0  0  0  0  0  0  0  0  0
   -9.9986   -0.7265   -3.6400 H   0  0  0  0  0  0  0  0  0  0  0  0
  -10.1229    0.9914   -4.1645 H   0  0  0  0  0  0  0  0  0  0  0  0
   -9.7563    1.6627   -1.9439 H   0  0  0  0  0  0  0  0  0  0  0  0
  -12.0086    1.3524   -2.6978 H   0  0  0  0  0  0  0  0  0  0  0  0
  -11.9599   -0.3133   -2.0128 H   0  0  0  0  0  0  0  0  0  0  0  0
  -11.8263    1.1230   -0.9337 H   0  0  0  0  0  0  0  0  0  0  0  0
   -9.9571    0.0297   -0.0502 H   0  0  0  0  0  0  0  0  0  0  0  0
   -9.3753   -1.1508   -1.2743 H   0  0  0  0  0  0  0  0  0  0  0  0
   -7.5016   -1.2869    0.2553 H   0  0  0  0  0  0  0  0  0  0  0  0
   -5.6246   -2.0983    1.2521 H   0  0  0  0  0  0  0  0  0  0  0  0
   -3.2816   -1.8536    1.8520 H   0  0  0  0  0  0  0  0  0  0  0  0
   -1.3069    2.4328    1.7386 H   0  0  0  0  0  0  0  0  0  0  0  0
    2.2549    0.6618    3.9664 H   0  0  0  0  0  0  0  0  0  0  0  0
    4.4229    1.6537    4.5806 H   0  0  0  0  0  0  0  0  0  0  0  0
    6.4091    1.2905    3.1782 H   0  0  0  0  0  0  0  0  0  0  0  0
    7.3688    0.3906    1.3023 H   0  0  0  0  0  0  0  0  0  0  0  0
    8.1046   -2.9068   -1.2976 H   0  0  0  0  0  0  0  0  0  0  0  0
   10.3170   -2.7946   -2.4036 H   0  0  0  0  0  0  0  0  0  0  0  0
   11.5260   -0.6440   -2.5621 H   0  0  0  0  0  0  0  0  0  0  0  0
    8.2781    1.3378   -0.5357 H   0  0  0  0  0  0  0  0  0  0  0  0
    4.0376   -1.0618    0.4511 H   0  0  0  0  0  0  0  0  0  0  0  0
    2.4976   -2.8955    1.6055 H   0  0  0  0  0  0  0  0  0  0  0  0
    0.3112   -3.8499    0.9751 H   0  0  0  0  0  0  0  0  0  0  0  0
   -3.1933    2.0149   -0.0501 H   0  0  0  0  0  0  0  0  0  0  0  0
   -5.5250    1.7964   -0.6413 H   0  0  0  0  0  0  0  0  0  0  0  0
  1  2  1  0
  2  3  1  0
  2  4  1  0
  4  5  1  0
  5  6  2  0
  5  7  1  0
  7  8  1  0
  8  9  2  0
  9 10  1  0
 10 11  2  0
 11 12  1  0
 12 13  1  0
 13 14  2  0
 14 15  1  0
 15 16  1  0
 16 17  1  0
 17 18  2  0
 18 19  1  0
 19 20  2  0
 20 21  1  0
 21 22  1  0
 22 23  1  0
 23 24  2  0
 23 25  1  0
 25 26  2  0
 26 27  1  0
 27 28  2  0
 28 29  1  0
 29 30  1  0
 30 31  1  0
 30 32  1  0
 30 33  1  0
 29 34  2  0
 21 35  2  0
 16 36  2  0
 36 37  1  0
 37 38  2  0
 38 39  1  0
 11 40  1  0
 40 41  2  0
 41  8  1  0
 39 12  2  0
 39 15  1  0
 35 17  1  0
 34 25  1  0
  1 42  1  0
  1 43  1  0
  1 44  1  0
  2 45  1  0
  3 46  1  0
  3 47  1  0
  3 48  1  0
  4 49  1  0
  4 50  1  0
  7 51  1  0
  9 52  1  0
 10 53  1  0
 13 54  1  0
 18 55  1  0
 19 56  1  0
 20 57  1  0
 22 58  1  0
 26 59  1  0
 27 60  1  0
 28 61  1  0
 34 62  1  0
 35 63  1  0
 36 64  1  0
 37 65  1  0
 40 66  1  0
 41 67  1  0
M  CHG  1   2   1
M  END
$$$$
