
     RDKit          3D

 61 65  0  0  0  0  0  0  0  0999 V2000
   -6.5897    0.8109   -3.7560 C   0  0  0  0  0  0  0  0  0  0  0  0
   -5.9358    0.5569   -2.5177 O   0  0  0  0  0  0  0  0  0  0  0  0
   -6.7156    0.5832   -1.3829 C   0  0  0  0  0  0  0  0  0  0  0  0
   -8.0929    0.8159   -1.3649 C   0  0  0  0  0  0  0  0  0  0  0  0
   -8.7881    0.8186   -0.1527 C   0  0  0  0  0  0  0  0  0  0  0  0
   -8.1194    0.5824    1.0560 C   0  0  0  0  0  0  0  0  0  0  0  0
   -8.8599    0.5980    2.3714 C   0  0  0  0  0  0  0  0  0  0  0  0
   -8.6377    1.7384    3.0803 F   0  0  0  0  0  0  0  0  0  0  0  0
  -10.2130    0.5114    2.2241 F   0  0  0  0  0  0  0  0  0  0  0  0
   -8.5132   -0.4323    3.1907 F   0  0  0  0  0  0  0  0  0  0  0  0
   -6.7333    0.3551    1.0346 C   0  0  0  0  0  0  0  0  0  0  0  0
   -6.0276    0.3534   -0.1715 C   0  0  0  0  0  0  0  0  0  0  0  0
   -4.6355    0.1280   -0.2669 N   0  0  0  0  0  0  0  0  0  0  0  0
   -3.7213   -0.0796    0.7514 C   0  0  0  0  0  0  0  0  0  0  0  0
   -3.9937   -0.0624    1.9443 O   0  0  0  0  0  0  0  0  0  0  0  0
   -2.4587   -0.3137    0.2252 N   0  0  0  0  0  0  0  0  0  0  0  0
   -1.2499   -0.5116    0.9267 C   0  0  0  0  0  0  0  0  0  0  0  0
   -1.1289   -0.4305    2.3141 C   0  0  0  0  0  0  0  0  0  0  0  0
    0.1113   -0.6187    2.9294 C   0  0  0  0  0  0  0  0  0  0  0  0
    1.2412   -0.8969    2.1619 C   0  0  0  0  0  0  0  0  0  0  0  0
    1.1435   -1.0006    0.7699 C   0  0  0  0  0  0  0  0  0  0  0  0
    2.3534   -1.2968   -0.0274 C   0  0  0  0  0  0  0  0  0  0  0  0
    2.3202   -2.2894   -0.9405 C   0  0  0  0  0  0  0  0  0  0  0  0
    3.4688   -2.5540   -1.6544 N   0  0  0  0  0  0  0  0  0  0  0  0
    3.7593   -3.4687   -2.6290 C   0  0  0  0  0  0  0  0  0  0  0  0
    5.0806   -3.2382   -2.9530 C   0  0  0  0  0  0  0  0  0  0  0  0
    5.6066   -2.2110   -2.2051 N   0  0  0  0  0  0  0  0  0  0  0  0
    4.6070   -1.8298   -1.4361 C   0  0  0  0  0  0  0  0  0  0  0  0
    4.5978   -0.7788   -0.4334 C   0  0  0  0  0  0  0  0  0  0  0  0
    5.7290   -0.0417   -0.1886 N   0  0  0  0  0  0  0  0  0  0  0  0
    5.8096    1.0170    0.7795 C   0  0  0  0  0  0  0  0  0  0  0  0
    7.1993    1.5985    0.7750 C   0  0  0  0  0  0  0  0  0  0  0  0
    8.2039    1.0560    1.5821 C   0  0  0  0  0  0  0  0  0  0  0  0
    9.4737    1.6080    1.5228 C   0  0  0  0  0  0  0  0  0  0  0  0
    9.8062    2.6424    0.7218 N   0  0  0  0  0  0  0  0  0  0  0  0
    8.8265    3.1435   -0.0599 C   0  0  0  0  0  0  0  0  0  0  0  0
    7.5274    2.6610   -0.0725 C   0  0  0  0  0  0  0  0  0  0  0  0
    3.4920   -0.5442    0.2376 N   0  0  0  0  0  0  0  0  0  0  0  0
   -0.1069   -0.7932    0.1625 C   0  0  0  0  0  0  0  0  0  0  0  0
   -7.3417    0.0442   -3.9693 H   0  0  0  0  0  0  0  0  0  0  0  0
   -7.0277    1.8143   -3.7730 H   0  0  0  0  0  0  0  0  0  0  0  0
   -5.8347    0.7647   -4.5468 H   0  0  0  0  0  0  0  0  0  0  0  0
   -8.6578    0.9994   -2.2729 H   0  0  0  0  0  0  0  0  0  0  0  0
   -9.8617    1.0052   -0.1562 H   0  0  0  0  0  0  0  0  0  0  0  0
   -6.2288    0.1783    1.9814 H   0  0  0  0  0  0  0  0  0  0  0  0
   -4.2926    0.1626   -1.2173 H   0  0  0  0  0  0  0  0  0  0  0  0
   -2.4016   -0.3734   -0.7787 H   0  0  0  0  0  0  0  0  0  0  0  0
   -1.9793   -0.2086    2.9513 H   0  0  0  0  0  0  0  0  0  0  0  0
    0.1938   -0.5423    4.0107 H   0  0  0  0  0  0  0  0  0  0  0  0
    2.2018   -1.0336    2.6544 H   0  0  0  0  0  0  0  0  0  0  0  0
    1.4540   -2.9041   -1.1452 H   0  0  0  0  0  0  0  0  0  0  0  0
    3.0337   -4.1795   -2.9962 H   0  0  0  0  0  0  0  0  0  0  0  0
    5.6819   -3.7604   -3.6870 H   0  0  0  0  0  0  0  0  0  0  0  0
    6.5526   -0.2686   -0.7375 H   0  0  0  0  0  0  0  0  0  0  0  0
    5.5716    0.6417    1.7822 H   0  0  0  0  0  0  0  0  0  0  0  0
    5.0803    1.8039    0.5517 H   0  0  0  0  0  0  0  0  0  0  0  0
    8.0059    0.2175    2.2421 H   0  0  0  0  0  0  0  0  0  0  0  0
   10.2822    1.2185    2.1349 H   0  0  0  0  0  0  0  0  0  0  0  0
    9.1228    3.9693   -0.7004 H   0  0  0  0  0  0  0  0  0  0  0  0
    6.7893    3.1041   -0.7333 H   0  0  0  0  0  0  0  0  0  0  0  0
   -0.1802   -0.8396   -0.9209 H   0  0  0  0  0  0  0  0  0  0  0  0
  1  2  1  0
  2  3  1  0
  3  4  2  0
  4  5  1  0
  5  6  2  0
  6  7  1  0
  7  8  1  0
  7  9  1  0
  7 10  1  0
  6 11  1  0
 11 12  2  0
 12 13  1  0
 13 14  1  0
 14 15  2  0
 14 16  1  0
 16 17  1  0
 17 18  2  0
 18 19  1  0
 19 20  2  0
 20 21  1  0
 21 22  1  0
 22 23  2  0
 23 24  1  0
 24 25  1  0
 25 26  2  0
 26 27  1  0
 27 28  2  0
 28 29  1  0
 29 30  1  0
 30 31  1  0
 31 32  1  0
 32 33  2  0
 33 34  1  0
 34 35  2  0
 35 36  1  0
 36 37  2  0
 29 38  2  0
 21 39  2  0
 12  3  1  0
 39 17  1  0
 38 22  1  0
 28 24  1  0
 37 32  1  0
  1 40  1  0
  1 41  1  0
  1 42  1  0
  4 43  1  0
  5 44  1  0
 11 45  1  0
 13 46  1  0
 16 47  1  0
 18 48  1  0
 19 49  1  0
 20 50  1  0
 23 51  1  0
 25 52  1  0
 26 53  1  0
 30 54  1  0
 31 55  1  0
 31 56  1  0
 33 57  1  0
 34 58  1  0
 36 59  1  0
 37 60  1  0
 39 61  1  0
M  END
$$$$
