
     RDKit          3D

 57 61  0  0  0  0  0  0  0  0999 V2000
   -4.6088   -0.1014    0.5454 O   0  0  0  0  0  0  0  0  0  0  0  0
   -3.7121    0.1288   -0.2545 C   0  0  0  0  0  0  0  0  0  0  0  0
   -2.3680    0.2516    0.0707 N   0  0  0  0  0  0  0  0  0  0  0  0
   -1.7638    0.0733    1.3342 C   0  0  0  0  0  0  0  0  0  0  0  0
   -2.4468   -0.3361    2.4787 C   0  0  0  0  0  0  0  0  0  0  0  0
   -1.7661   -0.5017    3.6874 C   0  0  0  0  0  0  0  0  0  0  0  0
   -0.3955   -0.2532    3.7644 C   0  0  0  0  0  0  0  0  0  0  0  0
    0.3122    0.1725    2.6331 C   0  0  0  0  0  0  0  0  0  0  0  0
    1.7697    0.4390    2.6733 C   0  0  0  0  0  0  0  0  0  0  0  0
    2.2975    1.1227    3.7105 C   0  0  0  0  0  0  0  0  0  0  0  0
    3.6539    1.3647    3.7096 N   0  0  0  0  0  0  0  0  0  0  0  0
    4.4770    2.0102    4.5909 C   0  0  0  0  0  0  0  0  0  0  0  0
    5.7368    1.9201    4.0352 C   0  0  0  0  0  0  0  0  0  0  0  0
    5.7080    1.2408    2.8397 N   0  0  0  0  0  0  0  0  0  0  0  0
    4.4387    0.9256    2.6812 C   0  0  0  0  0  0  0  0  0  0  0  0
    3.8266    0.2033    1.5804 C   0  0  0  0  0  0  0  0  0  0  0  0
    4.5933   -0.2471    0.5351 N   0  0  0  0  0  0  0  0  0  0  0  0
    4.0855   -1.0072   -0.5725 C   0  0  0  0  0  0  0  0  0  0  0  0
    5.2055   -1.3110   -1.5328 C   0  0  0  0  0  0  0  0  0  0  0  0
    5.9241   -2.5067   -1.4400 C   0  0  0  0  0  0  0  0  0  0  0  0
    6.9614   -2.7287   -2.3319 C   0  0  0  0  0  0  0  0  0  0  0  0
    7.3292   -1.8511   -3.2894 N   0  0  0  0  0  0  0  0  0  0  0  0
    6.6345   -0.6958   -3.3530 C   0  0  0  0  0  0  0  0  0  0  0  0
    5.5820   -0.3820   -2.5079 C   0  0  0  0  0  0  0  0  0  0  0  0
    2.5296   -0.0119    1.5970 N   0  0  0  0  0  0  0  0  0  0  0  0
   -0.3853    0.3182    1.4215 C   0  0  0  0  0  0  0  0  0  0  0  0
   -3.8957    0.3057   -1.6199 N   0  0  0  0  0  0  0  0  0  0  0  0
   -5.1124    0.3215   -2.3343 C   0  0  0  0  0  0  0  0  0  0  0  0
   -5.0311    0.4550   -3.7264 C   0  0  0  0  0  0  0  0  0  0  0  0
   -6.1855    0.4792   -4.5115 C   0  0  0  0  0  0  0  0  0  0  0  0
   -7.4378    0.3738   -3.9115 C   0  0  0  0  0  0  0  0  0  0  0  0
   -7.5453    0.2501   -2.5197 C   0  0  0  0  0  0  0  0  0  0  0  0
   -8.8926    0.1217   -1.8526 C   0  0  0  0  0  0  0  0  0  0  0  0
   -9.1493   -1.1489   -1.4364 F   0  0  0  0  0  0  0  0  0  0  0  0
   -9.9309    0.4600   -2.6698 F   0  0  0  0  0  0  0  0  0  0  0  0
   -9.0195    0.9134   -0.7520 F   0  0  0  0  0  0  0  0  0  0  0  0
   -6.3728    0.2207   -1.7411 C   0  0  0  0  0  0  0  0  0  0  0  0
   -1.7470    0.5363   -0.6695 H   0  0  0  0  0  0  0  0  0  0  0  0
   -3.5114   -0.5478    2.4655 H   0  0  0  0  0  0  0  0  0  0  0  0
   -2.3100   -0.8341    4.5684 H   0  0  0  0  0  0  0  0  0  0  0  0
    0.1114   -0.4131    4.7127 H   0  0  0  0  0  0  0  0  0  0  0  0
    1.7275    1.5060    4.5462 H   0  0  0  0  0  0  0  0  0  0  0  0
    4.1149    2.4612    5.5031 H   0  0  0  0  0  0  0  0  0  0  0  0
    6.6646    2.3105    4.4348 H   0  0  0  0  0  0  0  0  0  0  0  0
    5.5906   -0.0616    0.5869 H   0  0  0  0  0  0  0  0  0  0  0  0
    3.6335   -1.9427   -0.2211 H   0  0  0  0  0  0  0  0  0  0  0  0
    3.2989   -0.4499   -1.0957 H   0  0  0  0  0  0  0  0  0  0  0  0
    5.6868   -3.2518   -0.6873 H   0  0  0  0  0  0  0  0  0  0  0  0
    7.5435   -3.6452   -2.2962 H   0  0  0  0  0  0  0  0  0  0  0  0
    6.9585   -0.0034   -4.1248 H   0  0  0  0  0  0  0  0  0  0  0  0
    5.0713    0.5705   -2.6061 H   0  0  0  0  0  0  0  0  0  0  0  0
    0.1694    0.6328    0.5400 H   0  0  0  0  0  0  0  0  0  0  0  0
   -3.0608    0.3948   -2.1764 H   0  0  0  0  0  0  0  0  0  0  0  0
   -4.0677    0.5379   -4.2231 H   0  0  0  0  0  0  0  0  0  0  0  0
   -6.1068    0.5784   -5.5916 H   0  0  0  0  0  0  0  0  0  0  0  0
   -8.3319    0.3904   -4.5333 H   0  0  0  0  0  0  0  0  0  0  0  0
   -6.4817    0.1215   -0.6637 H   0  0  0  0  0  0  0  0  0  0  0  0
  1  2  2  0
  2  3  1  0
  3  4  1  0
  4  5  2  0
  5  6  1  0
  6  7  2  0
  7  8  1  0
  8  9  1  0
  9 10  2  0
 10 11  1  0
 11 12  1  0
 12 13  2  0
 13 14  1  0
 14 15  2  0
 15 16  1  0
 16 17  1  0
 17 18  1  0
 18 19  1  0
 19 20  2  0
 20 21  1  0
 21 22  2  0
 22 23  1  0
 23 24  2  0
 16 25  2  0
  8 26  2  0
  2 27  1  0
 27 28  1  0
 28 29  2  0
 29 30  1  0
 30 31  2  0
 31 32  1  0
 32 33  1  0
 33 34  1  0
 33 35  1  0
 33 36  1  0
 32 37  2  0
 26  4  1  0
 37 28  1  0
 25  9  1  0
 15 11  1  0
 24 19  1  0
  3 38  1  0
  5 39  1  0
  6 40  1  0
  7 41  1  0
 10 42  1  0
 12 43  1  0
 13 44  1  0
 17 45  1  0
 18 46  1  0
 18 47  1  0
 20 48  1  0
 21 49  1  0
 23 50  1  0
 24 51  1  0
 26 52  1  0
 27 53  1  0
 29 54  1  0
 30 55  1  0
 31 56  1  0
 37 57  1  0
M  END
$$$$
