
     RDKit          3D

 78 82  0  0  0  0  0  0  0  0999 V2000
   -1.8243   -2.6447    4.0456 C   0  0  0  0  0  0  0  0  0  0  0  0
   -1.6601   -2.3396    2.5778 C   0  0  0  0  0  0  0  0  0  0  0  0
   -1.3455   -3.3972    1.7077 C   0  0  0  0  0  0  0  0  0  0  0  0
   -1.1794   -3.1669    0.3455 C   0  0  0  0  0  0  0  0  0  0  0  0
   -1.3358   -1.8764   -0.1613 C   0  0  0  0  0  0  0  0  0  0  0  0
   -1.0743   -1.6465   -1.6038 C   0  0  0  0  0  0  0  0  0  0  0  0
   -0.0910   -2.1991   -2.0867 O   0  0  0  0  0  0  0  0  0  0  0  0
   -1.9821   -0.8217   -2.2341 N   0  0  0  0  0  0  0  0  0  0  0  0
   -1.9605   -0.3898   -3.5768 C   0  0  0  0  0  0  0  0  0  0  0  0
   -0.9738   -0.7466   -4.4962 C   0  0  0  0  0  0  0  0  0  0  0  0
   -1.0218   -0.2697   -5.8094 C   0  0  0  0  0  0  0  0  0  0  0  0
   -2.0580    0.5685   -6.2160 C   0  0  0  0  0  0  0  0  0  0  0  0
   -3.0642    0.9335   -5.3132 C   0  0  0  0  0  0  0  0  0  0  0  0
   -4.1789    1.8597   -5.7345 C   0  0  0  0  0  0  0  0  0  0  0  0
   -5.3508    1.6010   -5.0904 F   0  0  0  0  0  0  0  0  0  0  0  0
   -3.8881    3.1633   -5.4744 F   0  0  0  0  0  0  0  0  0  0  0  0
   -4.4600    1.7923   -7.0644 F   0  0  0  0  0  0  0  0  0  0  0  0
   -3.0002    0.4530   -3.9929 C   0  0  0  0  0  0  0  0  0  0  0  0
   -1.6626   -0.8153    0.6919 C   0  0  0  0  0  0  0  0  0  0  0  0
   -1.8487   -1.0315    2.0665 C   0  0  0  0  0  0  0  0  0  0  0  0
   -2.1534    0.0236    2.9644 N   0  0  0  0  0  0  0  0  0  0  0  0
   -2.3540    1.3322    2.6730 C   0  0  0  0  0  0  0  0  0  0  0  0
   -3.4970    1.9196    2.9387 N   0  0  0  0  0  0  0  0  0  0  0  0
   -3.4310    3.1465    2.3518 C   0  0  0  0  0  0  0  0  0  0  0  0
   -4.4294    4.1301    2.2701 C   0  0  0  0  0  0  0  0  0  0  0  0
   -4.1552    5.3222    1.5956 C   0  0  0  0  0  0  0  0  0  0  0  0
   -2.9066    5.5330    1.0181 C   0  0  0  0  0  0  0  0  0  0  0  0
   -1.8971    4.5661    1.1008 C   0  0  0  0  0  0  0  0  0  0  0  0
   -2.1821    3.3643    1.7757 C   0  0  0  0  0  0  0  0  0  0  0  0
   -1.4352    2.2240    2.1012 N   0  0  0  0  0  0  0  0  0  0  0  0
   -0.0175    2.0798    1.9071 C   0  0  0  0  0  0  0  0  0  0  0  0
    0.7031    1.0698    2.5201 C   0  0  0  0  0  0  0  0  0  0  0  0
    2.0745    1.0335    2.3142 C   0  0  0  0  0  0  0  0  0  0  0  0
    2.8132   -0.0172    2.8579 N   0  0  0  0  0  0  0  0  0  0  0  0
    4.2691    0.0521    2.8982 C   0  0  0  0  0  0  0  0  0  0  0  0
    4.9760    0.0640    1.5389 C   0  0  0  0  0  0  0  0  0  0  0  0
    4.3847   -0.8169    0.4348 C   0  0  0  0  0  0  0  0  0  0  0  0
    4.2243   -2.2733    0.8478 C   0  0  0  0  0  0  0  0  0  0  0  0
    3.8055   -3.1601   -0.3063 N   0  0  0  0  0  0  0  0  0  0  0  0
    4.8613   -3.3546   -1.3550 C   0  0  0  0  0  0  0  0  0  0  0  0
    2.4810   -2.7757   -0.9113 C   0  0  0  0  0  0  0  0  0  0  0  0
    2.6869    1.9360    1.5418 N   0  0  0  0  0  0  0  0  0  0  0  0
    1.9237    2.8864    0.9967 C   0  0  0  0  0  0  0  0  0  0  0  0
    0.6005    2.9963    1.1340 N   0  0  0  0  0  0  0  0  0  0  0  0
   -1.4934   -3.6611    4.2842 H   0  0  0  0  0  0  0  0  0  0  0  0
   -2.8767   -2.5569    4.3331 H   0  0  0  0  0  0  0  0  0  0  0  0
   -1.2198   -1.9601    4.6496 H   0  0  0  0  0  0  0  0  0  0  0  0
   -1.2346   -4.4104    2.0909 H   0  0  0  0  0  0  0  0  0  0  0  0
   -0.9386   -3.9937   -0.3193 H   0  0  0  0  0  0  0  0  0  0  0  0
   -2.7761   -0.5043   -1.6885 H   0  0  0  0  0  0  0  0  0  0  0  0
   -0.1509   -1.3994   -4.2269 H   0  0  0  0  0  0  0  0  0  0  0  0
   -0.2472   -0.5555   -6.5177 H   0  0  0  0  0  0  0  0  0  0  0  0
   -2.0802    0.9340   -7.2422 H   0  0  0  0  0  0  0  0  0  0  0  0
   -3.7806    0.7498   -3.2929 H   0  0  0  0  0  0  0  0  0  0  0  0
   -1.7702    0.1813    0.2738 H   0  0  0  0  0  0  0  0  0  0  0  0
   -2.7671   -0.3028    3.7105 H   0  0  0  0  0  0  0  0  0  0  0  0
   -5.4008    3.9574    2.7220 H   0  0  0  0  0  0  0  0  0  0  0  0
   -4.9229    6.0895    1.5244 H   0  0  0  0  0  0  0  0  0  0  0  0
   -2.7072    6.4695    0.5001 H   0  0  0  0  0  0  0  0  0  0  0  0
   -0.9292    4.7653    0.6535 H   0  0  0  0  0  0  0  0  0  0  0  0
    0.2520    0.3452    3.1805 H   0  0  0  0  0  0  0  0  0  0  0  0
    2.3951   -0.4038    3.6996 H   0  0  0  0  0  0  0  0  0  0  0  0
    4.5884    0.9196    3.4891 H   0  0  0  0  0  0  0  0  0  0  0  0
    4.6158   -0.8296    3.4513 H   0  0  0  0  0  0  0  0  0  0  0  0
    5.0267    1.0923    1.1614 H   0  0  0  0  0  0  0  0  0  0  0  0
    6.0222   -0.2273    1.7017 H   0  0  0  0  0  0  0  0  0  0  0  0
    5.0472   -0.7374   -0.4343 H   0  0  0  0  0  0  0  0  0  0  0  0
    3.4196   -0.4060    0.1208 H   0  0  0  0  0  0  0  0  0  0  0  0
    5.1632   -2.6860    1.2333 H   0  0  0  0  0  0  0  0  0  0  0  0
    3.4583   -2.3976    1.6198 H   0  0  0  0  0  0  0  0  0  0  0  0
    3.6514   -4.0868    0.1094 H   0  0  0  0  0  0  0  0  0  0  0  0
    4.5284   -4.1559   -2.0204 H   0  0  0  0  0  0  0  0  0  0  0  0
    4.9908   -2.4245   -1.9129 H   0  0  0  0  0  0  0  0  0  0  0  0
    5.7884   -3.6484   -0.8563 H   0  0  0  0  0  0  0  0  0  0  0  0
    2.1611   -3.6013   -1.5524 H   0  0  0  0  0  0  0  0  0  0  0  0
    1.7715   -2.6345   -0.0936 H   0  0  0  0  0  0  0  0  0  0  0  0
    2.6089   -1.8597   -1.4930 H   0  0  0  0  0  0  0  0  0  0  0  0
    2.4212    3.6314    0.3851 H   0  0  0  0  0  0  0  0  0  0  0  0
  1  2  1  0
  2  3  2  0
  3  4  1  0
  4  5  2  0
  5  6  1  0
  6  7  2  0
  6  8  1  0
  8  9  1  0
  9 10  2  0
 10 11  1  0
 11 12  2  0
 12 13  1  0
 13 14  1  0
 14 15  1  0
 14 16  1  0
 14 17  1  0
 13 18  2  0
  5 19  1  0
 19 20  2  0
 20 21  1  0
 21 22  1  0
 22 23  2  0
 23 24  1  0
 24 25  2  0
 25 26  1  0
 26 27  2  0
 27 28  1  0
 28 29  2  0
 29 30  1  0
 30 31  1  0
 31 32  2  0
 32 33  1  0
 33 34  1  0
 34 35  1  0
 35 36  1  0
 36 37  1  0
 37 38  1  0
 38 39  1  0
 39 40  1  0
 39 41  1  0
 33 42  2  0
 42 43  1  0
 43 44  2  0
 20  2  1  0
 30 22  1  0
 44 31  1  0
 18  9  1  0
 29 24  1  0
  1 45  1  0
  1 46  1  0
  1 47  1  0
  3 48  1  0
  4 49  1  0
  8 50  1  0
 10 51  1  0
 11 52  1  0
 12 53  1  0
 18 54  1  0
 19 55  1  0
 21 56  1  0
 25 57  1  0
 26 58  1  0
 27 59  1  0
 28 60  1  0
 32 61  1  0
 34 62  1  0
 35 63  1  0
 35 64  1  0
 36 65  1  0
 36 66  1  0
 37 67  1  0
 37 68  1  0
 38 69  1  0
 38 70  1  0
 39 71  1  0
 40 72  1  0
 40 73  1  0
 40 74  1  0
 41 75  1  0
 41 76  1  0
 41 77  1  0
 43 78  1  0
M  CHG  1  39   1
M  END
$$$$
