
     RDKit          3D

 58 62  0  0  0  0  0  0  0  0999 V2000
    2.7757   -2.5190   -1.1497 O   0  0  0  0  0  0  0  0  0  0  0  0
    3.6217   -1.6390   -1.0170 C   0  0  0  0  0  0  0  0  0  0  0  0
    5.0995   -1.9945   -0.9189 C   0  0  0  0  0  0  0  0  0  0  0  0
    5.7468   -1.5458    0.3715 C   0  0  0  0  0  0  0  0  0  0  0  0
    5.2373   -1.9701    1.6058 C   0  0  0  0  0  0  0  0  0  0  0  0
    5.8365   -1.5630    2.7974 C   0  0  0  0  0  0  0  0  0  0  0  0
    6.9556   -0.7318    2.7698 C   0  0  0  0  0  0  0  0  0  0  0  0
    7.4871   -0.2966    1.5476 C   0  0  0  0  0  0  0  0  0  0  0  0
    8.7149    0.5805    1.5087 C   0  0  0  0  0  0  0  0  0  0  0  0
    8.9159    1.2825    2.6582 F   0  0  0  0  0  0  0  0  0  0  0  0
    8.6634    1.5092    0.5119 F   0  0  0  0  0  0  0  0  0  0  0  0
    9.8553   -0.1313    1.2971 F   0  0  0  0  0  0  0  0  0  0  0  0
    6.8798   -0.7186    0.3520 C   0  0  0  0  0  0  0  0  0  0  0  0
    3.3919   -0.2729   -0.9837 N   0  0  0  0  0  0  0  0  0  0  0  0
    2.1538    0.3975   -1.0668 C   0  0  0  0  0  0  0  0  0  0  0  0
    2.1854    1.7964   -1.0384 C   0  0  0  0  0  0  0  0  0  0  0  0
    1.0045    2.5344   -1.1142 C   0  0  0  0  0  0  0  0  0  0  0  0
   -0.2203    1.8777   -1.2233 C   0  0  0  0  0  0  0  0  0  0  0  0
   -0.2821    0.4775   -1.2621 C   0  0  0  0  0  0  0  0  0  0  0  0
   -1.6028   -0.1944   -1.3643 C   0  0  0  0  0  0  0  0  0  0  0  0
   -1.7368   -1.3090   -2.1144 C   0  0  0  0  0  0  0  0  0  0  0  0
   -2.9796   -1.8981   -2.1944 N   0  0  0  0  0  0  0  0  0  0  0  0
   -3.4338   -3.0090   -2.8506 C   0  0  0  0  0  0  0  0  0  0  0  0
   -4.7771   -3.0814   -2.5439 C   0  0  0  0  0  0  0  0  0  0  0  0
   -5.1585   -2.0469   -1.7218 N   0  0  0  0  0  0  0  0  0  0  0  0
   -4.0491   -1.3607   -1.5359 C   0  0  0  0  0  0  0  0  0  0  0  0
   -3.8631   -0.1548   -0.7495 C   0  0  0  0  0  0  0  0  0  0  0  0
   -4.9213    0.4078   -0.0807 N   0  0  0  0  0  0  0  0  0  0  0  0
   -4.8259    1.5831    0.7391 C   0  0  0  0  0  0  0  0  0  0  0  0
   -6.1801    1.9098    1.3124 C   0  0  0  0  0  0  0  0  0  0  0  0
   -7.0804    2.7137    0.6066 C   0  0  0  0  0  0  0  0  0  0  0  0
   -8.3242    2.9647    1.1638 C   0  0  0  0  0  0  0  0  0  0  0  0
   -8.7274    2.4715    2.3540 N   0  0  0  0  0  0  0  0  0  0  0  0
   -7.8502    1.6851    3.0130 C   0  0  0  0  0  0  0  0  0  0  0  0
   -6.5849    1.3760    2.5396 C   0  0  0  0  0  0  0  0  0  0  0  0
   -2.6697    0.3928   -0.6877 N   0  0  0  0  0  0  0  0  0  0  0  0
    0.9189   -0.2505   -1.1688 C   0  0  0  0  0  0  0  0  0  0  0  0
    5.2100   -3.0817   -1.0100 H   0  0  0  0  0  0  0  0  0  0  0  0
    5.6067   -1.5497   -1.7840 H   0  0  0  0  0  0  0  0  0  0  0  0
    4.3670   -2.6246    1.6486 H   0  0  0  0  0  0  0  0  0  0  0  0
    5.4310   -1.8987    3.7494 H   0  0  0  0  0  0  0  0  0  0  0  0
    7.4150   -0.4270    3.7093 H   0  0  0  0  0  0  0  0  0  0  0  0
    7.3041   -0.3976   -0.5996 H   0  0  0  0  0  0  0  0  0  0  0  0
    4.2064    0.3179   -0.8669 H   0  0  0  0  0  0  0  0  0  0  0  0
    3.1268    2.3328   -0.9539 H   0  0  0  0  0  0  0  0  0  0  0  0
    1.0357    3.6205   -1.0861 H   0  0  0  0  0  0  0  0  0  0  0  0
   -1.1353    2.4646   -1.2780 H   0  0  0  0  0  0  0  0  0  0  0  0
   -0.9340   -1.7771   -2.6686 H   0  0  0  0  0  0  0  0  0  0  0  0
   -2.7900   -3.6315   -3.4545 H   0  0  0  0  0  0  0  0  0  0  0  0
   -5.4905   -3.8264   -2.8734 H   0  0  0  0  0  0  0  0  0  0  0  0
   -5.8170   -0.0636   -0.1627 H   0  0  0  0  0  0  0  0  0  0  0  0
   -4.4612    2.4347    0.1518 H   0  0  0  0  0  0  0  0  0  0  0  0
   -4.1085    1.4273    1.5540 H   0  0  0  0  0  0  0  0  0  0  0  0
   -6.8229    3.1338   -0.3603 H   0  0  0  0  0  0  0  0  0  0  0  0
   -9.0525    3.5855    0.6499 H   0  0  0  0  0  0  0  0  0  0  0  0
   -8.2032    1.2933    3.9627 H   0  0  0  0  0  0  0  0  0  0  0  0
   -5.9320    0.7285    3.1160 H   0  0  0  0  0  0  0  0  0  0  0  0
    0.8677   -1.3339   -1.1553 H   0  0  0  0  0  0  0  0  0  0  0  0
  1  2  2  0
  2  3  1  0
  3  4  1  0
  4  5  2  0
  5  6  1  0
  6  7  2  0
  7  8  1  0
  8  9  1  0
  9 10  1  0
  9 11  1  0
  9 12  1  0
  8 13  2  0
  2 14  1  0
 14 15  1  0
 15 16  2  0
 16 17  1  0
 17 18  2  0
 18 19  1  0
 19 20  1  0
 20 21  2  0
 21 22  1  0
 22 23  1  0
 23 24  2  0
 24 25  1  0
 25 26  2  0
 26 27  1  0
 27 28  1  0
 28 29  1  0
 29 30  1  0
 30 31  2  0
 31 32  1  0
 32 33  2  0
 33 34  1  0
 34 35  2  0
 27 36  2  0
 19 37  2  0
 13  4  1  0
 37 15  1  0
 36 20  1  0
 26 22  1  0
 35 30  1  0
  3 38  1  0
  3 39  1  0
  5 40  1  0
  6 41  1  0
  7 42  1  0
 13 43  1  0
 14 44  1  0
 16 45  1  0
 17 46  1  0
 18 47  1  0
 21 48  1  0
 23 49  1  0
 24 50  1  0
 28 51  1  0
 29 52  1  0
 29 53  1  0
 31 54  1  0
 32 55  1  0
 34 56  1  0
 35 57  1  0
 37 58  1  0
M  END
$$$$
