
     RDKit          3D

 67 72  0  0  0  0  0  0  0  0999 V2000
   -5.3859   -0.8957    1.9658 O   0  0  0  0  0  0  0  0  0  0  0  0
   -6.2394   -0.0427    1.7518 C   0  0  0  0  0  0  0  0  0  0  0  0
   -6.2521    0.8734    0.7151 N   0  0  0  0  0  0  0  0  0  0  0  0
   -5.2374    1.0927   -0.2412 C   0  0  0  0  0  0  0  0  0  0  0  0
   -5.5144    1.9921   -1.2762 C   0  0  0  0  0  0  0  0  0  0  0  0
   -4.5608    2.2572   -2.2603 C   0  0  0  0  0  0  0  0  0  0  0  0
   -3.3190    1.6241   -2.2193 C   0  0  0  0  0  0  0  0  0  0  0  0
   -3.0159    0.7244   -1.1906 C   0  0  0  0  0  0  0  0  0  0  0  0
   -1.7049    0.0415   -1.1433 C   0  0  0  0  0  0  0  0  0  0  0  0
   -1.6770   -1.3024   -1.0574 C   0  0  0  0  0  0  0  0  0  0  0  0
   -0.3336   -1.9300   -1.0149 C   0  0  0  0  0  0  0  0  0  0  0  0
    0.8072   -1.3116   -1.0565 N   0  0  0  0  0  0  0  0  0  0  0  0
    0.7425    0.0557   -1.1420 C   0  0  0  0  0  0  0  0  0  0  0  0
    1.7261    1.0228   -1.1869 C   0  0  0  0  0  0  0  0  0  0  0  0
    3.1703    0.8622   -1.1479 C   0  0  0  0  0  0  0  0  0  0  0  0
    3.8666   -0.3554   -1.0035 C   0  0  0  0  0  0  0  0  0  0  0  0
    5.1972   -0.1852   -1.0023 N   0  0  0  0  0  0  0  0  0  0  0  0
    5.3355    1.1555   -1.1334 N   0  0  0  0  0  0  0  0  0  0  0  0
    6.6722    1.7222   -1.1499 C   0  0  0  0  0  0  0  0  0  0  0  0
    7.6418    0.9049   -2.0126 C   0  0  0  0  0  0  0  0  0  0  0  0
    7.8024   -0.5101   -1.5063 N   0  0  0  0  0  0  0  0  0  0  0  0
    8.3565   -1.4855   -2.5082 C   0  0  0  0  0  0  0  0  0  0  0  0
    8.9243   -2.5849   -1.6369 C   0  0  0  0  0  0  0  0  0  0  0  0
    9.5478   -1.8111   -0.4918 C   0  0  0  0  0  0  0  0  0  0  0  0
    8.5588   -0.6917   -0.2114 C   0  0  0  0  0  0  0  0  0  0  0  0
    4.1531    1.8230   -1.2310 C   0  0  0  0  0  0  0  0  0  0  0  0
    1.0383    2.2417   -1.2776 C   0  0  0  0  0  0  0  0  0  0  0  0
   -0.2844    2.0913   -1.2928 N   0  0  0  0  0  0  0  0  0  0  0  0
   -0.4852    0.7454   -1.1941 N   0  0  0  0  0  0  0  0  0  0  0  0
   -3.9846    0.4742   -0.2012 C   0  0  0  0  0  0  0  0  0  0  0  0
   -7.4260    0.0073    2.6529 C   0  0  0  0  0  0  0  0  0  0  0  0
   -8.0473    1.2165    2.9883 C   0  0  0  0  0  0  0  0  0  0  0  0
   -9.1496    1.2191    3.8445 C   0  0  0  0  0  0  0  0  0  0  0  0
   -9.6301    0.0194    4.3734 C   0  0  0  0  0  0  0  0  0  0  0  0
   -9.0130   -1.2004    4.0557 C   0  0  0  0  0  0  0  0  0  0  0  0
   -9.5063   -2.4956    4.6542 C   0  0  0  0  0  0  0  0  0  0  0  0
   -9.3757   -3.5540    3.8073 F   0  0  0  0  0  0  0  0  0  0  0  0
   -8.8309   -2.8325    5.7861 F   0  0  0  0  0  0  0  0  0  0  0  0
  -10.8234   -2.4569    4.9992 F   0  0  0  0  0  0  0  0  0  0  0  0
   -7.8994   -1.1932    3.2000 C   0  0  0  0  0  0  0  0  0  0  0  0
   -7.0979    1.4142    0.5876 H   0  0  0  0  0  0  0  0  0  0  0  0
   -6.4750    2.4972   -1.3360 H   0  0  0  0  0  0  0  0  0  0  0  0
   -4.7846    2.9589   -3.0600 H   0  0  0  0  0  0  0  0  0  0  0  0
   -2.5889    1.8468   -2.9949 H   0  0  0  0  0  0  0  0  0  0  0  0
   -2.5495   -1.9416   -1.0196 H   0  0  0  0  0  0  0  0  0  0  0  0
   -0.3366   -3.0308   -0.9428 H   0  0  0  0  0  0  0  0  0  0  0  0
    3.4589   -1.3546   -0.8991 H   0  0  0  0  0  0  0  0  0  0  0  0
    6.5976    2.7421   -1.5419 H   0  0  0  0  0  0  0  0  0  0  0  0
    7.0060    1.7751   -0.1081 H   0  0  0  0  0  0  0  0  0  0  0  0
    8.6381    1.3584   -2.0359 H   0  0  0  0  0  0  0  0  0  0  0  0
    7.2612    0.8284   -3.0378 H   0  0  0  0  0  0  0  0  0  0  0  0
    6.8199   -0.8230   -1.3094 H   0  0  0  0  0  0  0  0  0  0  0  0
    7.5468   -1.8147   -3.1649 H   0  0  0  0  0  0  0  0  0  0  0  0
    9.1390   -0.9734   -3.0784 H   0  0  0  0  0  0  0  0  0  0  0  0
    8.1223   -3.2347   -1.2669 H   0  0  0  0  0  0  0  0  0  0  0  0
    9.6510   -3.2049   -2.1691 H   0  0  0  0  0  0  0  0  0  0  0  0
    9.7271   -2.4345    0.3888 H   0  0  0  0  0  0  0  0  0  0  0  0
   10.5104   -1.3881   -0.8038 H   0  0  0  0  0  0  0  0  0  0  0  0
    7.8247   -0.9681    0.5518 H   0  0  0  0  0  0  0  0  0  0  0  0
    9.0561    0.2440    0.0603 H   0  0  0  0  0  0  0  0  0  0  0  0
    4.1037    2.8982   -1.3388 H   0  0  0  0  0  0  0  0  0  0  0  0
    1.4393    3.2453   -1.3340 H   0  0  0  0  0  0  0  0  0  0  0  0
   -3.7333   -0.2019    0.6104 H   0  0  0  0  0  0  0  0  0  0  0  0
   -7.6670    2.1662    2.6215 H   0  0  0  0  0  0  0  0  0  0  0  0
   -9.6288    2.1587    4.1130 H   0  0  0  0  0  0  0  0  0  0  0  0
  -10.4873    0.0397    5.0465 H   0  0  0  0  0  0  0  0  0  0  0  0
   -7.3975   -2.1302    2.9558 H   0  0  0  0  0  0  0  0  0  0  0  0
  1  2  2  0
  2  3  1  0
  3  4  1  0
  4  5  2  0
  5  6  1  0
  6  7  2  0
  7  8  1  0
  8  9  1  0
  9 10  2  0
 10 11  1  0
 11 12  2  0
 12 13  1  0
 13 14  2  0
 14 15  1  0
 15 16  1  0
 16 17  2  0
 17 18  1  0
 18 19  1  0
 19 20  1  0
 20 21  1  0
 21 22  1  0
 22 23  1  0
 23 24  1  0
 24 25  1  0
 18 26  1  0
 14 27  1  0
 27 28  2  0
 28 29  1  0
  8 30  2  0
  2 31  1  0
 31 32  2  0
 32 33  1  0
 33 34  2  0
 34 35  1  0
 35 36  1  0
 36 37  1  0
 36 38  1  0
 36 39  1  0
 35 40  2  0
 30  4  1  0
 40 31  1  0
 29  9  1  0
 29 13  1  0
 26 15  2  0
 25 21  1  0
  3 41  1  0
  5 42  1  0
  6 43  1  0
  7 44  1  0
 10 45  1  0
 11 46  1  0
 16 47  1  0
 19 48  1  0
 19 49  1  0
 20 50  1  0
 20 51  1  0
 21 52  1  0
 22 53  1  0
 22 54  1  0
 23 55  1  0
 23 56  1  0
 24 57  1  0
 24 58  1  0
 25 59  1  0
 25 60  1  0
 26 61  1  0
 27 62  1  0
 30 63  1  0
 32 64  1  0
 33 65  1  0
 34 66  1  0
 40 67  1  0
M  CHG  1  21   1
M  END
$$$$
