
     RDKit          3D

 58 62  0  0  0  0  0  0  0  0999 V2000
    3.6892    0.2445   -0.0758 O   0  0  0  0  0  0  0  0  0  0  0  0
    4.0455   -0.4731   -1.0009 C   0  0  0  0  0  0  0  0  0  0  0  0
    3.2543   -0.8170   -2.0887 N   0  0  0  0  0  0  0  0  0  0  0  0
    1.8840   -0.5350   -2.2782 C   0  0  0  0  0  0  0  0  0  0  0  0
    1.3360   -0.8411   -3.5291 C   0  0  0  0  0  0  0  0  0  0  0  0
   -0.0121   -0.5976   -3.7915 C   0  0  0  0  0  0  0  0  0  0  0  0
   -0.8243   -0.0435   -2.8031 C   0  0  0  0  0  0  0  0  0  0  0  0
   -0.3025    0.2758   -1.5417 C   0  0  0  0  0  0  0  0  0  0  0  0
   -1.1948    0.8514   -0.5033 C   0  0  0  0  0  0  0  0  0  0  0  0
   -0.7289    1.8020    0.3346 C   0  0  0  0  0  0  0  0  0  0  0  0
   -1.5888    2.3215    1.2771 N   0  0  0  0  0  0  0  0  0  0  0  0
   -1.4271    3.2692    2.2503 C   0  0  0  0  0  0  0  0  0  0  0  0
   -2.6553    3.3558    2.8727 C   0  0  0  0  0  0  0  0  0  0  0  0
   -3.5639    2.4917    2.3079 N   0  0  0  0  0  0  0  0  0  0  0  0
   -2.8825    1.8892    1.3542 C   0  0  0  0  0  0  0  0  0  0  0  0
   -3.3455    0.8731    0.4259 C   0  0  0  0  0  0  0  0  0  0  0  0
   -4.6406    0.4233    0.4781 N   0  0  0  0  0  0  0  0  0  0  0  0
   -5.1814   -0.5928   -0.3816 C   0  0  0  0  0  0  0  0  0  0  0  0
   -6.6323   -0.8261   -0.0388 C   0  0  0  0  0  0  0  0  0  0  0  0
   -7.6388   -0.0592   -0.6439 C   0  0  0  0  0  0  0  0  0  0  0  0
   -8.9786   -0.2577   -0.3071 C   0  0  0  0  0  0  0  0  0  0  0  0
   -9.3247   -1.2171    0.6428 C   0  0  0  0  0  0  0  0  0  0  0  0
   -8.3320   -1.9758    1.2607 C   0  0  0  0  0  0  0  0  0  0  0  0
   -6.9915   -1.7790    0.9255 C   0  0  0  0  0  0  0  0  0  0  0  0
   -2.5091    0.3913   -0.4667 N   0  0  0  0  0  0  0  0  0  0  0  0
    1.0557    0.0065   -1.2900 C   0  0  0  0  0  0  0  0  0  0  0  0
    5.3007   -1.0547   -1.1162 N   0  0  0  0  0  0  0  0  0  0  0  0
    6.4192   -0.8685   -0.2770 C   0  0  0  0  0  0  0  0  0  0  0  0
    7.5535   -1.6450   -0.5451 C   0  0  0  0  0  0  0  0  0  0  0  0
    8.7044   -1.5233    0.2360 C   0  0  0  0  0  0  0  0  0  0  0  0
    8.7356   -0.6175    1.2934 C   0  0  0  0  0  0  0  0  0  0  0  0
    7.6174    0.1799    1.5730 C   0  0  0  0  0  0  0  0  0  0  0  0
    7.6289    1.1564    2.7232 C   0  0  0  0  0  0  0  0  0  0  0  0
    7.0640    2.3555    2.4106 F   0  0  0  0  0  0  0  0  0  0  0  0
    8.8852    1.4472    3.1673 F   0  0  0  0  0  0  0  0  0  0  0  0
    6.9516    0.6910    3.8085 F   0  0  0  0  0  0  0  0  0  0  0  0
    6.4614    0.0414    0.7819 C   0  0  0  0  0  0  0  0  0  0  0  0
    3.7253   -1.2464   -2.8691 H   0  0  0  0  0  0  0  0  0  0  0  0
    1.9473   -1.2704   -4.3181 H   0  0  0  0  0  0  0  0  0  0  0  0
   -0.4326   -0.8388   -4.7642 H   0  0  0  0  0  0  0  0  0  0  0  0
   -1.8754    0.1400   -3.0190 H   0  0  0  0  0  0  0  0  0  0  0  0
    0.2789    2.1960    0.3180 H   0  0  0  0  0  0  0  0  0  0  0  0
   -0.4895    3.7801    2.4140 H   0  0  0  0  0  0  0  0  0  0  0  0
   -2.9326    3.9972    3.6998 H   0  0  0  0  0  0  0  0  0  0  0  0
   -5.2408    0.8276    1.1903 H   0  0  0  0  0  0  0  0  0  0  0  0
   -5.0967   -0.2936   -1.4334 H   0  0  0  0  0  0  0  0  0  0  0  0
   -4.6215   -1.5293   -0.2707 H   0  0  0  0  0  0  0  0  0  0  0  0
   -7.3807    0.7012   -1.3782 H   0  0  0  0  0  0  0  0  0  0  0  0
   -9.7521    0.3400   -0.7823 H   0  0  0  0  0  0  0  0  0  0  0  0
  -10.3680   -1.3693    0.9065 H   0  0  0  0  0  0  0  0  0  0  0  0
   -8.6014   -2.7179    2.0078 H   0  0  0  0  0  0  0  0  0  0  0  0
   -6.2254   -2.3697    1.4236 H   0  0  0  0  0  0  0  0  0  0  0  0
    1.4480    0.2038   -0.2977 H   0  0  0  0  0  0  0  0  0  0  0  0
    5.4088   -1.7395   -1.8475 H   0  0  0  0  0  0  0  0  0  0  0  0
    7.5581   -2.3617   -1.3625 H   0  0  0  0  0  0  0  0  0  0  0  0
    9.5757   -2.1373    0.0204 H   0  0  0  0  0  0  0  0  0  0  0  0
    9.6369   -0.5329    1.8991 H   0  0  0  0  0  0  0  0  0  0  0  0
    5.6058    0.6695    1.0183 H   0  0  0  0  0  0  0  0  0  0  0  0
  1  2  2  0
  2  3  1  0
  3  4  1  0
  4  5  2  0
  5  6  1  0
  6  7  2  0
  7  8  1  0
  8  9  1  0
  9 10  2  0
 10 11  1  0
 11 12  1  0
 12 13  2  0
 13 14  1  0
 14 15  2  0
 15 16  1  0
 16 17  1  0
 17 18  1  0
 18 19  1  0
 19 20  2  0
 20 21  1  0
 21 22  2  0
 22 23  1  0
 23 24  2  0
 16 25  2  0
  8 26  2  0
  2 27  1  0
 27 28  1  0
 28 29  2  0
 29 30  1  0
 30 31  2  0
 31 32  1  0
 32 33  1  0
 33 34  1  0
 33 35  1  0
 33 36  1  0
 32 37  2  0
 26  4  1  0
 37 28  1  0
 25  9  1  0
 15 11  1  0
 24 19  1  0
  3 38  1  0
  5 39  1  0
  6 40  1  0
  7 41  1  0
 10 42  1  0
 12 43  1  0
 13 44  1  0
 17 45  1  0
 18 46  1  0
 18 47  1  0
 20 48  1  0
 21 49  1  0
 22 50  1  0
 23 51  1  0
 24 52  1  0
 26 53  1  0
 27 54  1  0
 29 55  1  0
 30 56  1  0
 31 57  1  0
 37 58  1  0
M  END
$$$$
