
     RDKit          3D

 74 78  0  0  0  0  0  0  0  0999 V2000
    1.1982   -2.0448   -0.9539 C   0  0  0  0  0  0  0  0  0  0  0  0
    0.4737   -1.1037   -0.0150 C   0  0  0  0  0  0  0  0  0  0  0  0
   -0.8196   -1.2339    0.0667 N   0  0  0  0  0  0  0  0  0  0  0  0
   -1.4757   -0.3871    0.9151 C   0  0  0  0  0  0  0  0  0  0  0  0
   -2.8151   -0.2503    1.2367 C   0  0  0  0  0  0  0  0  0  0  0  0
   -3.9038   -1.0424    0.6888 C   0  0  0  0  0  0  0  0  0  0  0  0
   -3.7729   -2.4204    0.5070 C   0  0  0  0  0  0  0  0  0  0  0  0
   -4.8339   -3.1607   -0.0057 C   0  0  0  0  0  0  0  0  0  0  0  0
   -6.0303   -2.5254   -0.3472 C   0  0  0  0  0  0  0  0  0  0  0  0
   -6.1992   -1.1408   -0.1920 C   0  0  0  0  0  0  0  0  0  0  0  0
   -7.4032   -0.5313   -0.5552 N   0  0  0  0  0  0  0  0  0  0  0  0
   -7.7868    0.7381    0.0806 C   0  0  0  0  0  0  0  0  0  0  0  0
   -9.3018    0.9895   -0.0532 C   0  0  0  0  0  0  0  0  0  0  0  0
   -9.7360    0.8832   -1.5121 N   0  0  0  0  0  0  0  0  0  0  0  0
  -11.1863    1.2067   -1.6945 C   0  0  0  0  0  0  0  0  0  0  0  0
   -9.3787   -0.4919   -2.0684 C   0  0  0  0  0  0  0  0  0  0  0  0
   -7.8660   -0.7582   -1.9369 C   0  0  0  0  0  0  0  0  0  0  0  0
   -5.1181   -0.4202    0.3441 C   0  0  0  0  0  0  0  0  0  0  0  0
   -2.8505    0.8105    2.1632 C   0  0  0  0  0  0  0  0  0  0  0  0
   -1.6516    1.3287    2.4195 N   0  0  0  0  0  0  0  0  0  0  0  0
   -0.7935    0.5843    1.6555 N   0  0  0  0  0  0  0  0  0  0  0  0
    0.6152    0.7341    1.5723 C   0  0  0  0  0  0  0  0  0  0  0  0
    1.1776    1.7281    2.3494 N   0  0  0  0  0  0  0  0  0  0  0  0
    1.2990   -0.0921    0.7482 C   0  0  0  0  0  0  0  0  0  0  0  0
    2.7576   -0.0093    0.5955 C   0  0  0  0  0  0  0  0  0  0  0  0
    3.6013   -0.7254    1.4500 C   0  0  0  0  0  0  0  0  0  0  0  0
    4.9895   -0.6360    1.3050 C   0  0  0  0  0  0  0  0  0  0  0  0
    5.5539    0.1712    0.3101 C   0  0  0  0  0  0  0  0  0  0  0  0
    6.9548    0.2074    0.2282 N   0  0  0  0  0  0  0  0  0  0  0  0
    7.7378    0.9076   -0.6449 C   0  0  0  0  0  0  0  0  0  0  0  0
    7.3826    1.6535   -1.5438 O   0  0  0  0  0  0  0  0  0  0  0  0
    9.0370    0.6358   -0.3490 O   0  0  0  0  0  0  0  0  0  0  0  0
    9.9913    1.3034   -1.1870 C   0  0  0  0  0  0  0  0  0  0  0  0
   11.4177    0.9250   -0.7639 C   0  0  0  0  0  0  0  0  0  0  0  0
   11.7047    1.3590    0.6744 C   0  0  0  0  0  0  0  0  0  0  0  0
   11.6626   -0.5772   -0.9155 C   0  0  0  0  0  0  0  0  0  0  0  0
    4.7084    0.8909   -0.5361 C   0  0  0  0  0  0  0  0  0  0  0  0
    3.3188    0.8039   -0.3936 C   0  0  0  0  0  0  0  0  0  0  0  0
    1.9385   -2.6293   -0.4011 H   0  0  0  0  0  0  0  0  0  0  0  0
    1.6909   -1.4744   -1.7459 H   0  0  0  0  0  0  0  0  0  0  0  0
    0.4900   -2.7381   -1.4181 H   0  0  0  0  0  0  0  0  0  0  0  0
   -2.8471   -2.9296    0.7675 H   0  0  0  0  0  0  0  0  0  0  0  0
   -4.7293   -4.2353   -0.1341 H   0  0  0  0  0  0  0  0  0  0  0  0
   -6.8437   -3.1451   -0.7151 H   0  0  0  0  0  0  0  0  0  0  0  0
   -7.2390    1.5659   -0.3867 H   0  0  0  0  0  0  0  0  0  0  0  0
   -7.5456    0.7276    1.1505 H   0  0  0  0  0  0  0  0  0  0  0  0
   -9.5575    1.9968    0.2906 H   0  0  0  0  0  0  0  0  0  0  0  0
   -9.8801    0.2476    0.5090 H   0  0  0  0  0  0  0  0  0  0  0  0
   -9.1895    1.5743   -2.0421 H   0  0  0  0  0  0  0  0  0  0  0  0
  -11.7815    0.4793   -1.1362 H   0  0  0  0  0  0  0  0  0  0  0  0
  -11.4120    1.1595   -2.7630 H   0  0  0  0  0  0  0  0  0  0  0  0
  -11.3567    2.2201   -1.3223 H   0  0  0  0  0  0  0  0  0  0  0  0
   -9.6828   -0.5065   -3.1199 H   0  0  0  0  0  0  0  0  0  0  0  0
   -9.9617   -1.2281   -1.5036 H   0  0  0  0  0  0  0  0  0  0  0  0
   -7.3166   -0.0870   -2.6093 H   0  0  0  0  0  0  0  0  0  0  0  0
   -7.6805   -1.7817   -2.2794 H   0  0  0  0  0  0  0  0  0  0  0  0
   -5.1893    0.6569    0.4631 H   0  0  0  0  0  0  0  0  0  0  0  0
   -3.7104    1.2290    2.6694 H   0  0  0  0  0  0  0  0  0  0  0  0
    0.5514    2.2841    2.9289 H   0  0  0  0  0  0  0  0  0  0  0  0
    2.1733    1.9100    2.3371 H   0  0  0  0  0  0  0  0  0  0  0  0
    3.1878   -1.3549    2.2354 H   0  0  0  0  0  0  0  0  0  0  0  0
    5.6212   -1.2055    1.9827 H   0  0  0  0  0  0  0  0  0  0  0  0
    7.4886   -0.3451    0.8846 H   0  0  0  0  0  0  0  0  0  0  0  0
    9.8563    2.3883   -1.0979 H   0  0  0  0  0  0  0  0  0  0  0  0
    9.8264    1.0091   -2.2307 H   0  0  0  0  0  0  0  0  0  0  0  0
   12.1158    1.4530   -1.4254 H   0  0  0  0  0  0  0  0  0  0  0  0
   12.7455    1.1465    0.9413 H   0  0  0  0  0  0  0  0  0  0  0  0
   11.0617    0.8374    1.3911 H   0  0  0  0  0  0  0  0  0  0  0  0
   11.5430    2.4355    0.7939 H   0  0  0  0  0  0  0  0  0  0  0  0
   11.4704   -0.8993   -1.9443 H   0  0  0  0  0  0  0  0  0  0  0  0
   11.0183   -1.1620   -0.2505 H   0  0  0  0  0  0  0  0  0  0  0  0
   12.7027   -0.8246   -0.6774 H   0  0  0  0  0  0  0  0  0  0  0  0
    5.0985    1.5341   -1.3197 H   0  0  0  0  0  0  0  0  0  0  0  0
    2.6840    1.3813   -1.0629 H   0  0  0  0  0  0  0  0  0  0  0  0
  1  2  1  0
  2  3  2  0
  3  4  1  0
  4  5  2  0
  5  6  1  0
  6  7  2  0
  7  8  1  0
  8  9  2  0
  9 10  1  0
 10 11  1  0
 11 12  1  0
 12 13  1  0
 13 14  1  0
 14 15  1  0
 14 16  1  0
 16 17  1  0
 10 18  2  0
  5 19  1  0
 19 20  2  0
 20 21  1  0
 21 22  1  0
 22 23  1  0
 22 24  2  0
 24 25  1  0
 25 26  2  0
 26 27  1  0
 27 28  2  0
 28 29  1  0
 29 30  1  0
 30 31  2  0
 30 32  1  0
 32 33  1  0
 33 34  1  0
 34 35  1  0
 34 36  1  0
 28 37  1  0
 37 38  2  0
 24  2  1  0
 38 25  1  0
 21  4  1  0
 18  6  1  0
 17 11  1  0
  1 39  1  0
  1 40  1  0
  1 41  1  0
  7 42  1  0
  8 43  1  0
  9 44  1  0
 12 45  1  0
 12 46  1  0
 13 47  1  0
 13 48  1  0
 14 49  1  0
 15 50  1  0
 15 51  1  0
 15 52  1  0
 16 53  1  0
 16 54  1  0
 17 55  1  0
 17 56  1  0
 18 57  1  0
 19 58  1  0
 23 59  1  0
 23 60  1  0
 26 61  1  0
 27 62  1  0
 29 63  1  0
 33 64  1  0
 33 65  1  0
 34 66  1  0
 35 67  1  0
 35 68  1  0
 35 69  1  0
 36 70  1  0
 36 71  1  0
 36 72  1  0
 37 73  1  0
 38 74  1  0
M  CHG  1  14   1
M  END
$$$$
