
     RDKit          3D

 57 61  0  0  0  0  0  0  0  0999 V2000
   -3.2962    0.1989    1.2555 O   0  0  0  0  0  0  0  0  0  0  0  0
   -3.8399   -0.7913    0.7854 C   0  0  0  0  0  0  0  0  0  0  0  0
   -3.1731   -1.9248    0.3374 N   0  0  0  0  0  0  0  0  0  0  0  0
   -1.7788   -2.1148    0.2218 C   0  0  0  0  0  0  0  0  0  0  0  0
   -1.3362   -3.3983   -0.1184 C   0  0  0  0  0  0  0  0  0  0  0  0
    0.0256   -3.6653   -0.2582 C   0  0  0  0  0  0  0  0  0  0  0  0
    0.9583   -2.6489   -0.0563 C   0  0  0  0  0  0  0  0  0  0  0  0
    0.5448   -1.3545    0.2888 C   0  0  0  0  0  0  0  0  0  0  0  0
    1.5598   -0.2879    0.4837 C   0  0  0  0  0  0  0  0  0  0  0  0
    1.3879    0.6371    1.4510 C   0  0  0  0  0  0  0  0  0  0  0  0
    2.3543    1.6054    1.6110 N   0  0  0  0  0  0  0  0  0  0  0  0
    2.4619    2.6574    2.4790 C   0  0  0  0  0  0  0  0  0  0  0  0
    3.6535    3.2693    2.1539 C   0  0  0  0  0  0  0  0  0  0  0  0
    4.2783    2.6216    1.1151 N   0  0  0  0  0  0  0  0  0  0  0  0
    3.4669    1.6261    0.8144 C   0  0  0  0  0  0  0  0  0  0  0  0
    3.6172    0.6016   -0.2079 C   0  0  0  0  0  0  0  0  0  0  0  0
    4.6782    0.4993   -1.0695 N   0  0  0  0  0  0  0  0  0  0  0  0
    5.8070    1.3896   -1.1160 C   0  0  0  0  0  0  0  0  0  0  0  0
    6.7509    0.9401   -2.2024 C   0  0  0  0  0  0  0  0  0  0  0  0
    7.7720    0.0249   -1.9293 C   0  0  0  0  0  0  0  0  0  0  0  0
    8.5957   -0.3800   -2.9677 C   0  0  0  0  0  0  0  0  0  0  0  0
    8.4680    0.0522   -4.2401 N   0  0  0  0  0  0  0  0  0  0  0  0
    7.4688    0.9259   -4.4864 C   0  0  0  0  0  0  0  0  0  0  0  0
    6.5941    1.3902   -3.5169 C   0  0  0  0  0  0  0  0  0  0  0  0
    2.6806   -0.3153   -0.3415 N   0  0  0  0  0  0  0  0  0  0  0  0
   -0.8343   -1.1003    0.4077 C   0  0  0  0  0  0  0  0  0  0  0  0
   -5.2110   -0.9496    0.6243 N   0  0  0  0  0  0  0  0  0  0  0  0
   -6.2545   -0.0827    1.0349 C   0  0  0  0  0  0  0  0  0  0  0  0
   -6.0070    1.0659    1.7993 C   0  0  0  0  0  0  0  0  0  0  0  0
   -7.0467    1.9088    2.2041 C   0  0  0  0  0  0  0  0  0  0  0  0
   -8.3576    1.6187    1.8540 C   0  0  0  0  0  0  0  0  0  0  0  0
   -8.6273    0.4816    1.0994 C   0  0  0  0  0  0  0  0  0  0  0  0
   -7.5895   -0.3827    0.6852 C   0  0  0  0  0  0  0  0  0  0  0  0
   -7.9879   -1.5781   -0.1425 C   0  0  0  0  0  0  0  0  0  0  0  0
   -8.9915   -2.3035    0.4263 F   0  0  0  0  0  0  0  0  0  0  0  0
   -8.4349   -1.2310   -1.3810 F   0  0  0  0  0  0  0  0  0  0  0  0
   -6.9738   -2.4703   -0.3576 F   0  0  0  0  0  0  0  0  0  0  0  0
   -3.7414   -2.7327    0.1343 H   0  0  0  0  0  0  0  0  0  0  0  0
   -2.0417   -4.2091   -0.2791 H   0  0  0  0  0  0  0  0  0  0  0  0
    0.3628   -4.6632   -0.5257 H   0  0  0  0  0  0  0  0  0  0  0  0
    2.0181   -2.8691   -0.1716 H   0  0  0  0  0  0  0  0  0  0  0  0
    0.5400    0.6725    2.1226 H   0  0  0  0  0  0  0  0  0  0  0  0
    1.7104    2.8748    3.2239 H   0  0  0  0  0  0  0  0  0  0  0  0
    4.0942    4.1441    2.6153 H   0  0  0  0  0  0  0  0  0  0  0  0
    4.6336   -0.2636   -1.7323 H   0  0  0  0  0  0  0  0  0  0  0  0
    5.4835    2.4172   -1.3198 H   0  0  0  0  0  0  0  0  0  0  0  0
    6.3364    1.3961   -0.1559 H   0  0  0  0  0  0  0  0  0  0  0  0
    7.9235   -0.3690   -0.9295 H   0  0  0  0  0  0  0  0  0  0  0  0
    9.4029   -1.0869   -2.7981 H   0  0  0  0  0  0  0  0  0  0  0  0
    7.3838    1.2526   -5.5189 H   0  0  0  0  0  0  0  0  0  0  0  0
    5.8051    2.0860   -3.7841 H   0  0  0  0  0  0  0  0  0  0  0  0
   -1.1578   -0.0871    0.6225 H   0  0  0  0  0  0  0  0  0  0  0  0
   -5.4864   -1.7704    0.1009 H   0  0  0  0  0  0  0  0  0  0  0  0
   -5.0035    1.3407    2.1104 H   0  0  0  0  0  0  0  0  0  0  0  0
   -6.8221    2.7936    2.7954 H   0  0  0  0  0  0  0  0  0  0  0  0
   -9.1654    2.2754    2.1672 H   0  0  0  0  0  0  0  0  0  0  0  0
   -9.6599    0.2625    0.8274 H   0  0  0  0  0  0  0  0  0  0  0  0
  1  2  2  0
  2  3  1  0
  3  4  1  0
  4  5  2  0
  5  6  1  0
  6  7  2  0
  7  8  1  0
  8  9  1  0
  9 10  2  0
 10 11  1  0
 11 12  1  0
 12 13  2  0
 13 14  1  0
 14 15  2  0
 15 16  1  0
 16 17  1  0
 17 18  1  0
 18 19  1  0
 19 20  2  0
 20 21  1  0
 21 22  2  0
 22 23  1  0
 23 24  2  0
 16 25  2  0
  8 26  2  0
  2 27  1  0
 27 28  1  0
 28 29  2  0
 29 30  1  0
 30 31  2  0
 31 32  1  0
 32 33  2  0
 33 34  1  0
 34 35  1  0
 34 36  1  0
 34 37  1  0
 26  4  1  0
 33 28  1  0
 25  9  1  0
 15 11  1  0
 24 19  1  0
  3 38  1  0
  5 39  1  0
  6 40  1  0
  7 41  1  0
 10 42  1  0
 12 43  1  0
 13 44  1  0
 17 45  1  0
 18 46  1  0
 18 47  1  0
 20 48  1  0
 21 49  1  0
 23 50  1  0
 24 51  1  0
 26 52  1  0
 27 53  1  0
 29 54  1  0
 30 55  1  0
 31 56  1  0
 32 57  1  0
M  END
$$$$
