
     RDKit          3D

 85 90  0  0  0  0  0  0  0  0999 V2000
    3.4186    1.5973   -0.4035 C   0  0  0  0  0  0  0  0  0  0  0  0
    2.6593    0.4897   -0.3926 C   0  0  0  0  0  0  0  0  0  0  0  0
    3.1569   -0.9578   -0.4119 C   0  0  2  0  0  0  0  0  0  0  0  0
    4.6851   -1.3168   -0.3532 C   0  0  1  0  0  0  0  0  0  0  0  0
    5.4930   -0.8936   -1.5862 C   0  0  0  0  0  0  0  0  0  0  0  0
    5.3521   -0.9094    0.9929 C   0  0  1  0  0  0  0  0  0  0  0  0
    6.3741   -1.9598    1.4431 C   0  0  0  0  0  0  0  0  0  0  0  0
    7.0840   -1.4666    2.6616 C   0  0  0  0  0  0  0  0  0  0  0  0
    7.2127   -0.1536    2.9135 C   0  0  0  0  0  0  0  0  0  0  0  0
    7.9087    0.3902    4.1211 C   0  0  0  0  0  0  0  0  0  0  0  0
    6.7188    0.8485    1.9302 C   0  0  0  0  0  0  0  0  0  0  0  0
    6.9779    2.0401    2.0413 O   0  0  0  0  0  0  0  0  0  0  0  0
    6.0088    0.3668    0.8778 O   0  0  0  0  0  0  0  0  0  0  0  0
    2.4848   -1.6980   -1.5937 C   0  0  0  0  0  0  0  0  0  0  0  0
    0.9559   -1.5982   -1.5536 C   0  0  0  0  0  0  0  0  0  0  0  0
    0.4336   -0.1343   -1.5138 C   0  0  1  0  0  0  0  0  0  0  0  0
    0.6881    0.5158   -2.8890 C   0  0  0  0  0  0  0  0  0  0  0  0
   -1.0761   -0.1314   -1.0477 C   0  0  2  0  0  0  0  0  0  0  0  0
   -1.9577    0.9026   -1.7715 C   0  0  0  0  0  0  0  0  0  0  0  0
   -3.4719    0.8020   -1.5191 C   0  0  1  0  0  0  0  0  0  0  0  0
   -3.8955   -0.5677   -1.5699 O   0  0  0  0  0  0  0  0  0  0  0  0
   -4.1105   -1.1130   -2.7984 C   0  0  0  0  0  0  0  0  0  0  0  0
   -4.5899   -2.5250   -2.6611 C   0  0  0  0  0  0  0  0  0  0  0  0
   -3.9572   -0.5355   -3.8655 O   0  0  0  0  0  0  0  0  0  0  0  0
   -4.0222    1.4999   -0.2334 C   0  0  1  0  0  0  0  0  0  0  0  0
   -5.6086    1.4702   -0.1923 C   0  0  0  0  0  0  0  0  0  0  0  0
   -6.2742    2.2815    0.9346 C   0  0  0  0  0  0  0  0  0  0  0  0
   -6.1763    2.0937   -1.4979 C   0  0  0  0  0  0  0  0  0  0  0  0
   -6.1524    0.1240   -0.2168 O   0  0  0  0  0  0  0  0  0  0  0  0
   -5.8663   -0.9198    0.5783 C   0  0  0  0  0  0  0  0  0  0  0  0
   -6.3104   -2.0341    0.3062 O   0  0  0  0  0  0  0  0  0  0  0  0
   -5.0807   -0.6952    1.8291 C   0  0  0  0  0  0  0  0  0  0  0  0
   -3.6280   -0.3111    1.6474 C   0  0  1  0  0  0  0  0  0  0  0  0
   -2.9347   -1.2666    0.8506 O   0  0  0  0  0  0  0  0  0  0  0  0
   -1.5195   -1.1094    1.1824 O   0  0  0  0  0  0  0  0  0  0  0  0
   -1.0396    0.0644    0.4988 C   0  0  1  0  0  0  0  0  0  0  0  0
    0.4552    0.1829    0.8721 C   0  0  0  0  0  0  0  0  0  0  0  0
    1.1445    0.6600   -0.4021 C   0  0  1  0  0  0  0  0  0  0  0  0
   -1.7984    1.2775    1.0603 C   0  0  0  0  0  0  0  0  0  0  0  0
   -3.3350    1.1015    1.1113 C   0  0  1  0  0  0  0  0  0  0  0  0
   -3.7790    2.0688    2.0890 O   0  0  0  0  0  0  0  0  0  0  0  0
    4.4988    1.5883   -0.4254 H   0  0  0  0  0  0  0  0  0  0  0  0
    2.9773    2.5905   -0.3991 H   0  0  0  0  0  0  0  0  0  0  0  0
    2.7509   -1.4194    0.4994 H   0  0  0  0  0  0  0  0  0  0  0  0
    4.6967   -2.4178   -0.3617 H   0  0  0  0  0  0  0  0  0  0  0  0
    5.4740    0.1835   -1.7609 H   0  0  0  0  0  0  0  0  0  0  0  0
    6.5415   -1.1926   -1.4818 H   0  0  0  0  0  0  0  0  0  0  0  0
    5.1161   -1.3817   -2.4901 H   0  0  0  0  0  0  0  0  0  0  0  0
    4.5759   -0.8143    1.7648 H   0  0  0  0  0  0  0  0  0  0  0  0
    7.1190   -2.1613    0.6652 H   0  0  0  0  0  0  0  0  0  0  0  0
    5.8610   -2.9004    1.6724 H   0  0  0  0  0  0  0  0  0  0  0  0
    7.4955   -2.2061    3.3428 H   0  0  0  0  0  0  0  0  0  0  0  0
    8.2571   -0.4088    4.7843 H   0  0  0  0  0  0  0  0  0  0  0  0
    8.7819    0.9832    3.8299 H   0  0  0  0  0  0  0  0  0  0  0  0
    7.2306    1.0271    4.6986 H   0  0  0  0  0  0  0  0  0  0  0  0
    2.7549   -2.7612   -1.5662 H   0  0  0  0  0  0  0  0  0  0  0  0
    2.8528   -1.3120   -2.5504 H   0  0  0  0  0  0  0  0  0  0  0  0
    0.5394   -2.1167   -2.4268 H   0  0  0  0  0  0  0  0  0  0  0  0
    0.5998   -2.1580   -0.6793 H   0  0  0  0  0  0  0  0  0  0  0  0
    0.3697    1.5635   -2.9088 H   0  0  0  0  0  0  0  0  0  0  0  0
    1.7498    0.5178   -3.1549 H   0  0  0  0  0  0  0  0  0  0  0  0
    0.1561   -0.0207   -3.6823 H   0  0  0  0  0  0  0  0  0  0  0  0
   -1.4831   -1.1231   -1.2838 H   0  0  0  0  0  0  0  0  0  0  0  0
   -1.6098    1.9276   -1.6021 H   0  0  0  0  0  0  0  0  0  0  0  0
   -1.8363    0.7279   -2.8477 H   0  0  0  0  0  0  0  0  0  0  0  0
   -3.9171    1.3406   -2.3639 H   0  0  0  0  0  0  0  0  0  0  0  0
   -4.0175   -3.0434   -1.8869 H   0  0  0  0  0  0  0  0  0  0  0  0
   -5.6542   -2.5299   -2.4168 H   0  0  0  0  0  0  0  0  0  0  0  0
   -4.4309   -3.0530   -3.6055 H   0  0  0  0  0  0  0  0  0  0  0  0
   -3.7743    2.5666   -0.3616 H   0  0  0  0  0  0  0  0  0  0  0  0
   -5.9253    3.3198    0.9341 H   0  0  0  0  0  0  0  0  0  0  0  0
   -7.3647    2.2918    0.8126 H   0  0  0  0  0  0  0  0  0  0  0  0
   -6.1210    1.8666    1.9291 H   0  0  0  0  0  0  0  0  0  0  0  0
   -6.0069    1.4519   -2.3685 H   0  0  0  0  0  0  0  0  0  0  0  0
   -5.7532    3.0851   -1.6901 H   0  0  0  0  0  0  0  0  0  0  0  0
   -7.2675    2.1963   -1.4427 H   0  0  0  0  0  0  0  0  0  0  0  0
   -5.6181   -0.0172    2.4939 H   0  0  0  0  0  0  0  0  0  0  0  0
   -5.0949   -1.6623    2.3533 H   0  0  0  0  0  0  0  0  0  0  0  0
   -3.2070   -0.3722    2.6632 H   0  0  0  0  0  0  0  0  0  0  0  0
    0.8354   -0.7834    1.2219 H   0  0  0  0  0  0  0  0  0  0  0  0
    0.6371    0.8859    1.6936 H   0  0  0  0  0  0  0  0  0  0  0  0
    0.8946    1.7243   -0.5277 H   0  0  0  0  0  0  0  0  0  0  0  0
   -1.4640    1.4189    2.0997 H   0  0  0  0  0  0  0  0  0  0  0  0
   -1.5178    2.2155    0.5666 H   0  0  0  0  0  0  0  0  0  0  0  0
   -3.3301    1.9020    2.9379 H   0  0  0  0  0  0  0  0  0  0  0  0
  1  2  2  0
  2  3  1  0
  3  4  1  0
  4  5  1  0
  4  6  1  0
  6  7  1  0
  7  8  1  0
  8  9  2  0
  9 10  1  0
  9 11  1  0
 11 12  2  0
 11 13  1  0
  3 14  1  0
 14 15  1  0
 15 16  1  0
 16 17  1  6
 16 18  1  0
 18 19  1  0
 19 20  1  0
 20 21  1  0
 21 22  1  0
 22 23  1  0
 22 24  2  0
 20 25  1  0
 25 26  1  0
 26 27  1  0
 26 28  1  0
 26 29  1  0
 29 30  1  0
 30 31  2  0
 30 32  1  0
 32 33  1  0
 33 34  1  0
 34 35  1  0
 36 35  1  1
 36 37  1  0
 37 38  1  0
 36 39  1  0
 39 40  1  0
 40 41  1  1
 38  2  1  0
 13  6  1  0
 38 16  1  0
 36 18  1  0
 40 25  1  0
 40 33  1  0
  1 42  1  0
  1 43  1  0
  3 44  1  1
  4 45  1  1
  5 46  1  0
  5 47  1  0
  5 48  1  0
  6 49  1  1
  7 50  1  0
  7 51  1  0
  8 52  1  0
 10 53  1  0
 10 54  1  0
 10 55  1  0
 14 56  1  0
 14 57  1  0
 15 58  1  0
 15 59  1  0
 17 60  1  0
 17 61  1  0
 17 62  1  0
 18 63  1  1
 19 64  1  0
 19 65  1  0
 20 66  1  6
 23 67  1  0
 23 68  1  0
 23 69  1  0
 25 70  1  6
 27 71  1  0
 27 72  1  0
 27 73  1  0
 28 74  1  0
 28 75  1  0
 28 76  1  0
 32 77  1  0
 32 78  1  0
 33 79  1  1
 37 80  1  0
 37 81  1  0
 38 82  1  6
 39 83  1  0
 39 84  1  0
 41 85  1  0
M  END
$$$$
