
     RDKit          3D

 64 68  0  0  0  0  0  0  0  0999 V2000
   -0.5169   -4.0078    1.2706 C   0  0  0  0  0  0  0  0  0  0  0  0
    0.6541   -3.1650    0.8352 C   0  0  0  0  0  0  0  0  0  0  0  0
    1.9269   -3.7642    0.7913 C   0  0  0  0  0  0  0  0  0  0  0  0
    3.0471   -3.0291    0.4119 C   0  0  0  0  0  0  0  0  0  0  0  0
    2.9011   -1.6836    0.0734 C   0  0  0  0  0  0  0  0  0  0  0  0
    4.0752   -0.8721   -0.3396 C   0  0  0  0  0  0  0  0  0  0  0  0
    3.9783   -0.1603   -1.3302 O   0  0  0  0  0  0  0  0  0  0  0  0
    5.1741   -1.0083    0.4895 N   0  0  0  0  0  0  0  0  0  0  0  0
    6.4426   -0.4138    0.3350 C   0  0  0  0  0  0  0  0  0  0  0  0
    7.3859   -0.6503    1.3422 C   0  0  0  0  0  0  0  0  0  0  0  0
    8.6659   -0.0982    1.2656 C   0  0  0  0  0  0  0  0  0  0  0  0
    9.0178    0.6952    0.1761 C   0  0  0  0  0  0  0  0  0  0  0  0
    8.0930    0.9378   -0.8491 C   0  0  0  0  0  0  0  0  0  0  0  0
    8.4514    1.8064   -2.0293 C   0  0  0  0  0  0  0  0  0  0  0  0
    7.8854    3.0426   -1.9597 F   0  0  0  0  0  0  0  0  0  0  0  0
    8.0591    1.2765   -3.2208 F   0  0  0  0  0  0  0  0  0  0  0  0
    9.7935    2.0214   -2.1487 F   0  0  0  0  0  0  0  0  0  0  0  0
    6.8043    0.3802   -0.7556 C   0  0  0  0  0  0  0  0  0  0  0  0
    1.6375   -1.0832    0.0942 C   0  0  0  0  0  0  0  0  0  0  0  0
    0.4937   -1.8053    0.4686 C   0  0  0  0  0  0  0  0  0  0  0  0
   -0.7825   -1.2079    0.5395 N   0  0  0  0  0  0  0  0  0  0  0  0
   -1.1046    0.1107    0.5877 C   0  0  0  0  0  0  0  0  0  0  0  0
   -0.2938    1.1390    0.7056 N   0  0  0  0  0  0  0  0  0  0  0  0
   -1.0840    2.2461    0.7752 C   0  0  0  0  0  0  0  0  0  0  0  0
   -0.6946    3.5841    0.9451 C   0  0  0  0  0  0  0  0  0  0  0  0
   -1.6781    4.5679    1.0721 C   0  0  0  0  0  0  0  0  0  0  0  0
   -3.0262    4.2221    1.0503 C   0  0  0  0  0  0  0  0  0  0  0  0
   -3.4317    2.8931    0.8724 C   0  0  0  0  0  0  0  0  0  0  0  0
   -2.4348    1.9151    0.6931 C   0  0  0  0  0  0  0  0  0  0  0  0
   -2.4386    0.5357    0.4813 N   0  0  0  0  0  0  0  0  0  0  0  0
   -3.5566   -0.3177    0.1972 C   0  0  0  0  0  0  0  0  0  0  0  0
   -4.7046    0.1998   -0.3758 C   0  0  0  0  0  0  0  0  0  0  0  0
   -5.7434   -0.6747   -0.6219 C   0  0  0  0  0  0  0  0  0  0  0  0
   -6.9327   -0.3086   -1.1920 N   0  0  0  0  0  0  0  0  0  0  0  0
   -7.2970    1.0252   -1.6249 C   0  0  0  0  0  0  0  0  0  0  0  0
   -8.6816    1.0568   -2.2697 C   0  0  0  0  0  0  0  0  0  0  0  0
   -9.7443    0.9422   -1.2645 C   0  0  0  0  0  0  0  0  0  0  0  0
  -10.5925    0.8640   -0.4767 N   0  0  0  0  0  0  0  0  0  0  0  0
   -5.6493   -1.9764   -0.3250 N   0  0  0  0  0  0  0  0  0  0  0  0
   -4.4940   -2.4003    0.1963 C   0  0  0  0  0  0  0  0  0  0  0  0
   -3.4242   -1.6403    0.4609 N   0  0  0  0  0  0  0  0  0  0  0  0
   -0.1975   -5.0010    1.6040 H   0  0  0  0  0  0  0  0  0  0  0  0
   -1.2136   -4.1454    0.4375 H   0  0  0  0  0  0  0  0  0  0  0  0
   -1.0363   -3.5361    2.1111 H   0  0  0  0  0  0  0  0  0  0  0  0
    2.0487   -4.8137    1.0519 H   0  0  0  0  0  0  0  0  0  0  0  0
    4.0160   -3.5178    0.3584 H   0  0  0  0  0  0  0  0  0  0  0  0
    5.0426   -1.5632    1.3257 H   0  0  0  0  0  0  0  0  0  0  0  0
    7.1366   -1.2631    2.2048 H   0  0  0  0  0  0  0  0  0  0  0  0
    9.3869   -0.2853    2.0577 H   0  0  0  0  0  0  0  0  0  0  0  0
   10.0176    1.1243    0.1280 H   0  0  0  0  0  0  0  0  0  0  0  0
    6.0997    0.5839   -1.5587 H   0  0  0  0  0  0  0  0  0  0  0  0
    1.5599   -0.0397   -0.2025 H   0  0  0  0  0  0  0  0  0  0  0  0
   -1.5602   -1.8667    0.5370 H   0  0  0  0  0  0  0  0  0  0  0  0
    0.3596    3.8363    0.9962 H   0  0  0  0  0  0  0  0  0  0  0  0
   -1.3837    5.6050    1.2141 H   0  0  0  0  0  0  0  0  0  0  0  0
   -3.7778    4.9975    1.1875 H   0  0  0  0  0  0  0  0  0  0  0  0
   -4.4881    2.6526    0.9112 H   0  0  0  0  0  0  0  0  0  0  0  0
   -4.7823    1.2304   -0.6823 H   0  0  0  0  0  0  0  0  0  0  0  0
   -7.5841   -1.0839   -1.2703 H   0  0  0  0  0  0  0  0  0  0  0  0
   -6.5696    1.3651   -2.3723 H   0  0  0  0  0  0  0  0  0  0  0  0
   -7.2558    1.7213   -0.7779 H   0  0  0  0  0  0  0  0  0  0  0  0
   -8.7779    0.2561   -3.0119 H   0  0  0  0  0  0  0  0  0  0  0  0
   -8.8032    2.0073   -2.8022 H   0  0  0  0  0  0  0  0  0  0  0  0
   -4.4188   -3.4585    0.4225 H   0  0  0  0  0  0  0  0  0  0  0  0
  1  2  1  0
  2  3  2  0
  3  4  1  0
  4  5  2  0
  5  6  1  0
  6  7  2  0
  6  8  1  0
  8  9  1  0
  9 10  2  0
 10 11  1  0
 11 12  2  0
 12 13  1  0
 13 14  1  0
 14 15  1  0
 14 16  1  0
 14 17  1  0
 13 18  2  0
  5 19  1  0
 19 20  2  0
 20 21  1  0
 21 22  1  0
 22 23  2  0
 23 24  1  0
 24 25  2  0
 25 26  1  0
 26 27  2  0
 27 28  1  0
 28 29  2  0
 29 30  1  0
 30 31  1  0
 31 32  2  0
 32 33  1  0
 33 34  1  0
 34 35  1  0
 35 36  1  0
 36 37  1  0
 37 38  3  0
 33 39  2  0
 39 40  1  0
 40 41  2  0
 20  2  1  0
 30 22  1  0
 41 31  1  0
 18  9  1  0
 29 24  1  0
  1 42  1  0
  1 43  1  0
  1 44  1  0
  3 45  1  0
  4 46  1  0
  8 47  1  0
 10 48  1  0
 11 49  1  0
 12 50  1  0
 18 51  1  0
 19 52  1  0
 21 53  1  0
 25 54  1  0
 26 55  1  0
 27 56  1  0
 28 57  1  0
 32 58  1  0
 34 59  1  0
 35 60  1  0
 35 61  1  0
 36 62  1  0
 36 63  1  0
 40 64  1  0
M  END
$$$$
