
     RDKit          3D

 58 61  0  0  0  0  0  0  0  0999 V2000
    2.8739    5.0758    4.7669 N   0  0  0  0  0  0  0  0  0  0  0  0
    3.2655    4.4021    3.9077 C   0  0  0  0  0  0  0  0  0  0  0  0
    3.7169    3.5558    2.8424 C   0  0  0  0  0  0  0  0  0  0  0  0
    5.0409    3.6205    2.3978 C   0  0  0  0  0  0  0  0  0  0  0  0
    5.4691    2.8025    1.3499 C   0  0  0  0  0  0  0  0  0  0  0  0
    4.5788    1.9106    0.7464 C   0  0  0  0  0  0  0  0  0  0  0  0
    3.2556    1.8286    1.1995 C   0  0  0  0  0  0  0  0  0  0  0  0
    2.2647    0.9022    0.5810 C   0  0  0  0  0  0  0  0  0  0  0  0
    1.0791    1.2262    0.5871 O   0  0  0  0  0  0  0  0  0  0  0  0
    2.7837   -0.2952    0.1140 N   0  0  0  0  0  0  0  0  0  0  0  0
    2.0775   -1.2888   -0.5981 C   0  0  0  0  0  0  0  0  0  0  0  0
    0.8352   -1.0536   -1.1944 C   0  0  0  0  0  0  0  0  0  0  0  0
    0.0909   -2.0697   -1.8078 C   0  0  0  0  0  0  0  0  0  0  0  0
   -1.1890   -1.8601   -2.3087 N   0  0  0  0  0  0  0  0  0  0  0  0
   -2.2750   -2.6581   -1.7483 C   0  0  0  0  0  0  0  0  0  0  0  0
   -2.8283   -1.8943   -0.5487 C   0  0  0  0  0  0  0  0  0  0  0  0
   -3.2475   -0.4720   -0.9547 C   0  0  0  0  0  0  0  0  0  0  0  0
   -3.6040    0.3067    0.3154 N   0  0  0  0  0  0  0  0  0  0  0  0
   -2.4528    0.6261    1.2733 C   0  0  0  0  0  0  0  0  0  0  0  0
   -2.5031    2.1320    1.4444 C   0  0  0  0  0  0  0  0  0  0  0  0
   -3.9725    2.4601    1.2745 C   0  0  0  0  0  0  0  0  0  0  0  0
   -4.3763    1.5944    0.0989 C   0  0  0  0  0  0  0  0  0  0  0  0
   -2.2445    0.3006   -1.8257 C   0  0  0  0  0  0  0  0  0  0  0  0
   -1.5889   -0.5819   -2.8869 C   0  0  0  0  0  0  0  0  0  0  0  0
    0.6784   -3.3392   -1.8719 C   0  0  0  0  0  0  0  0  0  0  0  0
    1.9592   -3.5918   -1.3492 C   0  0  0  0  0  0  0  0  0  0  0  0
    2.5524   -4.9758   -1.4384 C   0  0  0  0  0  0  0  0  0  0  0  0
    2.1043   -5.7854   -0.4404 F   0  0  0  0  0  0  0  0  0  0  0  0
    2.2519   -5.6101   -2.6036 F   0  0  0  0  0  0  0  0  0  0  0  0
    3.9106   -4.9802   -1.3457 F   0  0  0  0  0  0  0  0  0  0  0  0
    2.6493   -2.5558   -0.7032 C   0  0  0  0  0  0  0  0  0  0  0  0
    2.8249    2.6620    2.2405 C   0  0  0  0  0  0  0  0  0  0  0  0
    5.7448    4.3143    2.8566 H   0  0  0  0  0  0  0  0  0  0  0  0
    6.4968    2.8704    0.9965 H   0  0  0  0  0  0  0  0  0  0  0  0
    4.9288    1.3137   -0.0925 H   0  0  0  0  0  0  0  0  0  0  0  0
    3.7319   -0.5305    0.3838 H   0  0  0  0  0  0  0  0  0  0  0  0
    0.4367   -0.0504   -1.1695 H   0  0  0  0  0  0  0  0  0  0  0  0
   -3.0606   -2.7917   -2.5023 H   0  0  0  0  0  0  0  0  0  0  0  0
   -1.9604   -3.6629   -1.4452 H   0  0  0  0  0  0  0  0  0  0  0  0
   -3.6888   -2.4339   -0.1354 H   0  0  0  0  0  0  0  0  0  0  0  0
   -2.0671   -1.8682    0.2398 H   0  0  0  0  0  0  0  0  0  0  0  0
   -4.1913   -0.5530   -1.5102 H   0  0  0  0  0  0  0  0  0  0  0  0
   -4.2366   -0.3024    0.8511 H   0  0  0  0  0  0  0  0  0  0  0  0
   -2.6827    0.1051    2.2087 H   0  0  0  0  0  0  0  0  0  0  0  0
   -1.5030    0.2638    0.8769 H   0  0  0  0  0  0  0  0  0  0  0  0
   -2.1107    2.4507    2.4141 H   0  0  0  0  0  0  0  0  0  0  0  0
   -1.9112    2.6217    0.6619 H   0  0  0  0  0  0  0  0  0  0  0  0
   -4.1455    3.5231    1.0849 H   0  0  0  0  0  0  0  0  0  0  0  0
   -4.5352    2.1755    2.1715 H   0  0  0  0  0  0  0  0  0  0  0  0
   -5.4432    1.3566    0.0739 H   0  0  0  0  0  0  0  0  0  0  0  0
   -4.0624    2.0414   -0.8473 H   0  0  0  0  0  0  0  0  0  0  0  0
   -1.4731    0.7709   -1.2137 H   0  0  0  0  0  0  0  0  0  0  0  0
   -2.7491    1.1282   -2.3378 H   0  0  0  0  0  0  0  0  0  0  0  0
   -0.7471   -0.0646   -3.3628 H   0  0  0  0  0  0  0  0  0  0  0  0
   -2.3153   -0.7744   -3.6867 H   0  0  0  0  0  0  0  0  0  0  0  0
    0.1455   -4.1496   -2.3700 H   0  0  0  0  0  0  0  0  0  0  0  0
    3.6257   -2.7606   -0.2669 H   0  0  0  0  0  0  0  0  0  0  0  0
    1.7924    2.6125    2.5831 H   0  0  0  0  0  0  0  0  0  0  0  0
  1  2  3  0
  2  3  1  0
  3  4  2  0
  4  5  1  0
  5  6  2  0
  6  7  1  0
  7  8  1  0
  8  9  2  0
  8 10  1  0
 10 11  1  0
 11 12  2  0
 12 13  1  0
 13 14  1  0
 14 15  1  0
 15 16  1  0
 16 17  1  0
 17 18  1  0
 18 19  1  0
 19 20  1  0
 20 21  1  0
 21 22  1  0
 17 23  1  0
 23 24  1  0
 13 25  2  0
 25 26  1  0
 26 27  1  0
 27 28  1  0
 27 29  1  0
 27 30  1  0
 26 31  2  0
  7 32  2  0
 32  3  1  0
 31 11  1  0
 24 14  1  0
 22 18  1  0
  4 33  1  0
  5 34  1  0
  6 35  1  0
 10 36  1  0
 12 37  1  0
 15 38  1  0
 15 39  1  0
 16 40  1  0
 16 41  1  0
 17 42  1  0
 18 43  1  0
 19 44  1  0
 19 45  1  0
 20 46  1  0
 20 47  1  0
 21 48  1  0
 21 49  1  0
 22 50  1  0
 22 51  1  0
 23 52  1  0
 23 53  1  0
 24 54  1  0
 24 55  1  0
 25 56  1  0
 31 57  1  0
 32 58  1  0
M  CHG  1  18   1
M  END
$$$$
