
     RDKit          3D

 85 89  0  0  0  0  0  0  0  0999 V2000
   -2.7342    3.7598   -2.0840 C   0  0  0  0  0  0  0  0  0  0  0  0
   -2.1790    2.4532   -2.5602 C   0  0  0  0  0  0  0  0  0  0  0  0
   -1.6953    2.2674   -3.6682 O   0  0  0  0  0  0  0  0  0  0  0  0
   -2.2790    1.5214   -1.5780 O   0  0  0  0  0  0  0  0  0  0  0  0
   -1.7906    0.1907   -1.8707 C   0  0  1  0  0  0  0  0  0  0  0  0
   -0.3795    0.0031   -1.2634 C   0  0  2  0  0  0  0  0  0  0  0  0
    0.5338    0.9651   -1.8472 O   0  0  0  0  0  0  0  0  0  0  0  0
    0.7583    2.1070   -1.1522 C   0  0  0  0  0  0  0  0  0  0  0  0
    0.2557    2.4143   -0.0839 O   0  0  0  0  0  0  0  0  0  0  0  0
    1.7449    2.9565   -1.8641 C   0  0  0  0  0  0  0  0  0  0  0  0
    2.3879    3.9707   -1.1420 C   0  0  0  0  0  0  0  0  0  0  0  0
    3.3200    4.7968   -1.7721 C   0  0  0  0  0  0  0  0  0  0  0  0
    3.6081    4.6171   -3.1247 C   0  0  0  0  0  0  0  0  0  0  0  0
    2.9637    3.6155   -3.8511 C   0  0  0  0  0  0  0  0  0  0  0  0
    2.0315    2.7858   -3.2246 C   0  0  0  0  0  0  0  0  0  0  0  0
    0.1942   -1.4318   -1.5263 C   0  0  1  0  0  0  0  0  0  0  0  0
    0.5127   -1.5883   -3.0454 C   0  0  0  0  0  0  0  0  0  0  0  0
    1.5833   -1.6184   -0.8062 C   0  0  1  0  0  0  0  0  0  0  0  0
    1.6308   -0.8253    0.3961 O   0  0  0  0  0  0  0  0  0  0  0  0
    2.8398   -0.3352    0.7641 C   0  0  0  0  0  0  0  0  0  0  0  0
    3.9032   -0.5420    0.1989 O   0  0  0  0  0  0  0  0  0  0  0  0
    2.7501    0.4936    1.9835 C   0  0  0  0  0  0  0  0  0  0  0  0
    1.5981    0.8211    2.5892 C   0  0  0  0  0  0  0  0  0  0  0  0
    1.5169    1.6349    3.8091 C   0  0  0  0  0  0  0  0  0  0  0  0
    2.3554    2.7341    4.0359 C   0  0  0  0  0  0  0  0  0  0  0  0
    2.2261    3.4976    5.1991 C   0  0  0  0  0  0  0  0  0  0  0  0
    1.2511    3.1764    6.1412 C   0  0  0  0  0  0  0  0  0  0  0  0
    0.4002    2.0961    5.9185 C   0  0  0  0  0  0  0  0  0  0  0  0
    0.5288    1.3330    4.7554 C   0  0  0  0  0  0  0  0  0  0  0  0
    1.9220   -3.0990   -0.4796 C   0  0  0  0  0  0  0  0  0  0  0  0
    0.7210   -4.0035   -0.1028 C   0  0  2  0  0  0  0  0  0  0  0  0
   -0.2950   -3.9164   -1.2289 C   0  0  0  0  0  0  0  0  0  0  0  0
   -0.8359   -2.4990   -0.9916 C   0  0  1  0  0  0  0  0  0  0  0  0
   -0.8566   -2.3842    0.4885 O   0  0  0  0  0  0  0  0  0  0  0  0
   -0.1303   -3.4950    1.0672 C   0  0  0  0  0  0  0  0  0  0  0  0
    0.6439   -3.0677    2.3161 C   0  0  0  0  0  0  0  0  0  0  0  0
   -1.1570   -4.5409    1.5573 C   0  0  0  0  0  0  0  0  0  0  0  0
   -2.3169   -2.2850   -1.4697 C   0  0  1  0  0  0  0  0  0  0  0  0
   -2.6203   -2.7529   -2.8987 C   0  0  0  0  0  0  0  0  0  0  0  0
   -3.1645   -3.1172   -0.6405 O   0  0  0  0  0  0  0  0  0  0  0  0
   -2.7863   -0.8177   -1.2673 C   0  0  1  0  0  0  0  0  0  0  0  0
   -2.9087   -0.5712    0.1618 O   0  0  0  0  0  0  0  0  0  0  0  0
   -3.9150    0.2490    0.5676 C   0  0  0  0  0  0  0  0  0  0  0  0
   -3.8304    0.4538    2.0491 C   0  0  0  0  0  0  0  0  0  0  0  0
   -4.7679    0.7490   -0.1514 O   0  0  0  0  0  0  0  0  0  0  0  0
   -3.7793    3.6337   -1.7902 H   0  0  0  0  0  0  0  0  0  0  0  0
   -2.1402    4.1304   -1.2450 H   0  0  0  0  0  0  0  0  0  0  0  0
   -2.6881    4.4906   -2.8964 H   0  0  0  0  0  0  0  0  0  0  0  0
   -1.7597    0.0542   -2.9557 H   0  0  0  0  0  0  0  0  0  0  0  0
   -0.4510    0.1794   -0.1835 H   0  0  0  0  0  0  0  0  0  0  0  0
    2.1653    4.1184   -0.0870 H   0  0  0  0  0  0  0  0  0  0  0  0
    3.8196    5.5809   -1.2087 H   0  0  0  0  0  0  0  0  0  0  0  0
    4.3331    5.2620   -3.6156 H   0  0  0  0  0  0  0  0  0  0  0  0
    3.1834    3.4834   -4.9077 H   0  0  0  0  0  0  0  0  0  0  0  0
    1.5255    2.0219   -3.8103 H   0  0  0  0  0  0  0  0  0  0  0  0
    0.9570   -2.5572   -3.2865 H   0  0  0  0  0  0  0  0  0  0  0  0
    1.2454   -0.8405   -3.3733 H   0  0  0  0  0  0  0  0  0  0  0  0
   -0.3528   -1.4517   -3.6880 H   0  0  0  0  0  0  0  0  0  0  0  0
    2.3691   -1.2383   -1.4726 H   0  0  0  0  0  0  0  0  0  0  0  0
    3.7122    0.8191    2.3623 H   0  0  0  0  0  0  0  0  0  0  0  0
    0.6436    0.4767    2.1959 H   0  0  0  0  0  0  0  0  0  0  0  0
    3.1085    3.0189    3.3056 H   0  0  0  0  0  0  0  0  0  0  0  0
    2.8827    4.3477    5.3651 H   0  0  0  0  0  0  0  0  0  0  0  0
    1.1498    3.7721    7.0445 H   0  0  0  0  0  0  0  0  0  0  0  0
   -0.3661    1.8481    6.6482 H   0  0  0  0  0  0  0  0  0  0  0  0
   -0.1467    0.4951    4.5976 H   0  0  0  0  0  0  0  0  0  0  0  0
    2.6740   -3.1504    0.3160 H   0  0  0  0  0  0  0  0  0  0  0  0
    2.3897   -3.5376   -1.3714 H   0  0  0  0  0  0  0  0  0  0  0  0
    1.0720   -5.0286    0.0566 H   0  0  0  0  0  0  0  0  0  0  0  0
   -1.0717   -4.6785   -1.1144 H   0  0  0  0  0  0  0  0  0  0  0  0
    0.1353   -4.0915   -2.2163 H   0  0  0  0  0  0  0  0  0  0  0  0
    1.1167   -3.9293    2.8004 H   0  0  0  0  0  0  0  0  0  0  0  0
   -0.0262   -2.5875    3.0390 H   0  0  0  0  0  0  0  0  0  0  0  0
    1.4304   -2.3454    2.1205 H   0  0  0  0  0  0  0  0  0  0  0  0
   -0.6555   -5.4280    1.9590 H   0  0  0  0  0  0  0  0  0  0  0  0
   -1.7872   -4.1143    2.3472 H   0  0  0  0  0  0  0  0  0  0  0  0
   -1.8518   -4.8718    0.7830 H   0  0  0  0  0  0  0  0  0  0  0  0
   -2.2346   -3.7602   -3.0850 H   0  0  0  0  0  0  0  0  0  0  0  0
   -2.2412   -2.0870   -3.6719 H   0  0  0  0  0  0  0  0  0  0  0  0
   -3.7053   -2.8217   -3.0498 H   0  0  0  0  0  0  0  0  0  0  0  0
   -2.9669   -2.8254    0.2740 H   0  0  0  0  0  0  0  0  0  0  0  0
   -3.7751   -0.6924   -1.7264 H   0  0  0  0  0  0  0  0  0  0  0  0
   -3.9503   -0.5034    2.5628 H   0  0  0  0  0  0  0  0  0  0  0  0
   -2.8709    0.9106    2.3053 H   0  0  0  0  0  0  0  0  0  0  0  0
   -4.6321    1.1255    2.3689 H   0  0  0  0  0  0  0  0  0  0  0  0
  1  2  1  0
  2  3  2  0
  2  4  1  0
  4  5  1  0
  5  6  1  0
  6  7  1  0
  7  8  1  0
  8  9  2  0
  8 10  1  0
 10 11  2  0
 11 12  1  0
 12 13  2  0
 13 14  1  0
 14 15  2  0
  6 16  1  0
 16 17  1  6
 16 18  1  0
 18 19  1  0
 19 20  1  0
 20 21  2  0
 20 22  1  0
 22 23  2  0
 23 24  1  0
 24 25  2  0
 25 26  1  0
 26 27  2  0
 27 28  1  0
 28 29  2  0
 18 30  1  0
 30 31  1  0
 31 32  1  0
 32 33  1  0
 33 34  1  1
 34 35  1  0
 35 36  1  0
 35 37  1  0
 33 38  1  0
 38 39  1  0
 38 40  1  1
 38 41  1  0
 41 42  1  0
 42 43  1  0
 43 44  1  0
 43 45  2  0
 41  5  1  0
 15 10  1  0
 33 16  1  0
 29 24  1  0
 35 31  1  0
  1 46  1  0
  1 47  1  0
  1 48  1  0
  5 49  1  6
  6 50  1  1
 11 51  1  0
 12 52  1  0
 13 53  1  0
 14 54  1  0
 15 55  1  0
 17 56  1  0
 17 57  1  0
 17 58  1  0
 18 59  1  6
 22 60  1  0
 23 61  1  0
 25 62  1  0
 26 63  1  0
 27 64  1  0
 28 65  1  0
 29 66  1  0
 30 67  1  0
 30 68  1  0
 31 69  1  1
 32 70  1  0
 32 71  1  0
 36 72  1  0
 36 73  1  0
 36 74  1  0
 37 75  1  0
 37 76  1  0
 37 77  1  0
 39 78  1  0
 39 79  1  0
 39 80  1  0
 40 81  1  0
 41 82  1  6
 44 83  1  0
 44 84  1  0
 44 85  1  0
M  END
$$$$
