
     RDKit          3D

 54 58  0  0  0  0  0  0  0  0999 V2000
    3.7237   -0.7240    1.5077 O   0  0  0  0  0  0  0  0  0  0  0  0
    3.0806   -0.1554    0.6358 C   0  0  0  0  0  0  0  0  0  0  0  0
    1.7185   -0.3144    0.4212 N   0  0  0  0  0  0  0  0  0  0  0  0
    0.8061   -1.0779    1.1811 C   0  0  0  0  0  0  0  0  0  0  0  0
    1.1369   -1.7610    2.3503 C   0  0  0  0  0  0  0  0  0  0  0  0
    0.1632   -2.4792    3.0492 C   0  0  0  0  0  0  0  0  0  0  0  0
   -1.1509   -2.5255    2.5823 C   0  0  0  0  0  0  0  0  0  0  0  0
   -1.5073   -1.8597    1.4030 C   0  0  0  0  0  0  0  0  0  0  0  0
   -2.8936   -1.8704    0.8771 C   0  0  0  0  0  0  0  0  0  0  0  0
   -3.6175   -3.0086    0.8968 C   0  0  0  0  0  0  0  0  0  0  0  0
   -4.8907   -2.9765    0.3728 N   0  0  0  0  0  0  0  0  0  0  0  0
   -5.8597   -3.9324    0.2399 C   0  0  0  0  0  0  0  0  0  0  0  0
   -6.9162   -3.2896   -0.3724 C   0  0  0  0  0  0  0  0  0  0  0  0
   -6.6216   -1.9688   -0.6201 N   0  0  0  0  0  0  0  0  0  0  0  0
   -5.3976   -1.8229   -0.1543 C   0  0  0  0  0  0  0  0  0  0  0  0
   -4.5844   -0.6157   -0.1628 C   0  0  0  0  0  0  0  0  0  0  0  0
   -5.1271    0.5272   -0.7179 N   0  0  0  0  0  0  0  0  0  0  0  0
   -4.6268    1.8367   -0.7789 C   0  0  0  0  0  0  0  0  0  0  0  0
   -5.2533    2.7529   -1.6321 C   0  0  0  0  0  0  0  0  0  0  0  0
   -4.7531    4.0428   -1.7322 C   0  0  0  0  0  0  0  0  0  0  0  0
   -3.6789    4.4839   -1.0502 N   0  0  0  0  0  0  0  0  0  0  0  0
   -3.0844    3.5924   -0.2321 C   0  0  0  0  0  0  0  0  0  0  0  0
   -3.5105    2.2816   -0.0722 C   0  0  0  0  0  0  0  0  0  0  0  0
   -3.3727   -0.6807    0.3386 N   0  0  0  0  0  0  0  0  0  0  0  0
   -0.5175   -1.1301    0.7207 C   0  0  0  0  0  0  0  0  0  0  0  0
    3.6112    0.7424   -0.2815 N   0  0  0  0  0  0  0  0  0  0  0  0
    4.9609    1.1221   -0.4392 C   0  0  0  0  0  0  0  0  0  0  0  0
    5.2377    2.1036   -1.3995 C   0  0  0  0  0  0  0  0  0  0  0  0
    6.5455    2.5395   -1.6207 C   0  0  0  0  0  0  0  0  0  0  0  0
    7.5949    1.9943   -0.8851 C   0  0  0  0  0  0  0  0  0  0  0  0
    7.3443    1.0033    0.0737 C   0  0  0  0  0  0  0  0  0  0  0  0
    8.4664    0.4100    0.8896 C   0  0  0  0  0  0  0  0  0  0  0  0
    8.4828    0.8743    2.1692 F   0  0  0  0  0  0  0  0  0  0  0  0
    8.3990   -0.9471    0.9803 F   0  0  0  0  0  0  0  0  0  0  0  0
    9.7025    0.6827    0.3814 F   0  0  0  0  0  0  0  0  0  0  0  0
    6.0200    0.5780    0.2909 C   0  0  0  0  0  0  0  0  0  0  0  0
    1.3330    0.1364   -0.3933 H   0  0  0  0  0  0  0  0  0  0  0  0
    2.1437   -1.7472    2.7560 H   0  0  0  0  0  0  0  0  0  0  0  0
    0.4339   -2.9961    3.9669 H   0  0  0  0  0  0  0  0  0  0  0  0
   -1.8906   -3.0719    3.1617 H   0  0  0  0  0  0  0  0  0  0  0  0
   -3.2643   -3.9551    1.2836 H   0  0  0  0  0  0  0  0  0  0  0  0
   -5.7243   -4.9498    0.5770 H   0  0  0  0  0  0  0  0  0  0  0  0
   -7.8746   -3.7116   -0.6490 H   0  0  0  0  0  0  0  0  0  0  0  0
   -6.0509    0.3883   -1.1167 H   0  0  0  0  0  0  0  0  0  0  0  0
   -6.1190    2.4734   -2.2229 H   0  0  0  0  0  0  0  0  0  0  0  0
   -5.2193    4.7738   -2.3865 H   0  0  0  0  0  0  0  0  0  0  0  0
   -2.2252    3.9674    0.3167 H   0  0  0  0  0  0  0  0  0  0  0  0
   -2.9719    1.6441    0.6181 H   0  0  0  0  0  0  0  0  0  0  0  0
   -0.7980   -0.5999   -0.1875 H   0  0  0  0  0  0  0  0  0  0  0  0
    2.9520    1.2122   -0.8814 H   0  0  0  0  0  0  0  0  0  0  0  0
    4.4391    2.5486   -1.9878 H   0  0  0  0  0  0  0  0  0  0  0  0
    6.7445    3.3060   -2.3660 H   0  0  0  0  0  0  0  0  0  0  0  0
    8.6109    2.3437   -1.0631 H   0  0  0  0  0  0  0  0  0  0  0  0
    5.8503   -0.1901    1.0416 H   0  0  0  0  0  0  0  0  0  0  0  0
  1  2  2  0
  2  3  1  0
  3  4  1  0
  4  5  2  0
  5  6  1  0
  6  7  2  0
  7  8  1  0
  8  9  1  0
  9 10  2  0
 10 11  1  0
 11 12  1  0
 12 13  2  0
 13 14  1  0
 14 15  2  0
 15 16  1  0
 16 17  1  0
 17 18  1  0
 18 19  2  0
 19 20  1  0
 20 21  2  0
 21 22  1  0
 22 23  2  0
 16 24  2  0
  8 25  2  0
  2 26  1  0
 26 27  1  0
 27 28  2  0
 28 29  1  0
 29 30  2  0
 30 31  1  0
 31 32  1  0
 32 33  1  0
 32 34  1  0
 32 35  1  0
 31 36  2  0
 25  4  1  0
 36 27  1  0
 24  9  1  0
 15 11  1  0
 23 18  1  0
  3 37  1  0
  5 38  1  0
  6 39  1  0
  7 40  1  0
 10 41  1  0
 12 42  1  0
 13 43  1  0
 17 44  1  0
 19 45  1  0
 20 46  1  0
 22 47  1  0
 23 48  1  0
 25 49  1  0
 26 50  1  0
 28 51  1  0
 29 52  1  0
 30 53  1  0
 36 54  1  0
M  END
$$$$
