
     RDKit          3D

 66 71  0  0  0  0  0  0  0  0999 V2000
    7.7961   -0.6485   -1.7119 C   0  0  0  0  0  0  0  0  0  0  0  0
    7.0019    0.6418   -1.8915 C   0  0  0  0  0  0  0  0  0  0  0  0
    7.9446    1.7804   -2.2785 C   0  0  0  0  0  0  0  0  0  0  0  0
    6.3990    1.0155   -0.6485 O   0  0  0  0  0  0  0  0  0  0  0  0
    5.1285    0.6006   -0.3652 C   0  0  0  0  0  0  0  0  0  0  0  0
    4.5681    1.2268    0.7532 C   0  0  0  0  0  0  0  0  0  0  0  0
    3.2755    0.9086    1.1816 C   0  0  0  0  0  0  0  0  0  0  0  0
    2.5256   -0.0578    0.5032 C   0  0  0  0  0  0  0  0  0  0  0  0
    1.1759   -0.3841    0.9477 C   0  0  0  0  0  0  0  0  0  0  0  0
    0.2697    0.5965    1.1062 N   0  0  0  0  0  0  0  0  0  0  0  0
   -0.8667   -0.0530    1.4513 N   0  0  0  0  0  0  0  0  0  0  0  0
   -2.1222    0.6745    1.6693 C   0  0  1  0  0  0  0  0  0  0  0  0
   -1.9050    2.0421    2.3292 C   0  0  0  0  0  0  0  0  0  0  0  0
   -2.9056    0.8119    0.3642 C   0  0  0  0  0  0  0  0  0  0  0  0
   -2.1756    1.4754   -0.6181 O   0  0  0  0  0  0  0  0  0  0  0  0
   -2.7136    1.6351   -1.8637 C   0  0  0  0  0  0  0  0  0  0  0  0
   -1.9167    2.2624   -2.8232 C   0  0  0  0  0  0  0  0  0  0  0  0
   -2.4123    2.4585   -4.1129 C   0  0  0  0  0  0  0  0  0  0  0  0
   -3.6976    2.0268   -4.4289 C   0  0  0  0  0  0  0  0  0  0  0  0
   -4.1687    2.2182   -5.6675 F   0  0  0  0  0  0  0  0  0  0  0  0
   -4.4981    1.4017   -3.4810 C   0  0  0  0  0  0  0  0  0  0  0  0
   -3.9942    1.2077   -2.1923 C   0  0  0  0  0  0  0  0  0  0  0  0
   -4.8028    0.5520   -1.1586 C   0  0  0  0  0  0  0  0  0  0  0  0
   -5.9488    0.1914   -1.3990 O   0  0  0  0  0  0  0  0  0  0  0  0
   -4.1638    0.3540    0.1746 C   0  0  0  0  0  0  0  0  0  0  0  0
   -4.9281   -0.3259    1.2325 C   0  0  0  0  0  0  0  0  0  0  0  0
   -5.6891    0.4181    2.1467 C   0  0  0  0  0  0  0  0  0  0  0  0
   -6.3963   -0.2261    3.1655 C   0  0  0  0  0  0  0  0  0  0  0  0
   -6.3457   -1.6148    3.2750 C   0  0  0  0  0  0  0  0  0  0  0  0
   -5.5948   -2.3481    2.3631 C   0  0  0  0  0  0  0  0  0  0  0  0
   -5.5445   -3.6824    2.4734 F   0  0  0  0  0  0  0  0  0  0  0  0
   -4.8900   -1.7198    1.3427 C   0  0  0  0  0  0  0  0  0  0  0  0
   -0.7020   -1.4080    1.5572 C   0  0  0  0  0  0  0  0  0  0  0  0
   -1.6415   -2.3096    1.8880 N   0  0  0  0  0  0  0  0  0  0  0  0
   -1.1414   -3.5545    1.9090 C   0  0  0  0  0  0  0  0  0  0  0  0
    0.1237   -3.9390    1.6561 N   0  0  0  0  0  0  0  0  0  0  0  0
    1.0387   -2.9989    1.3352 C   0  0  0  0  0  0  0  0  0  0  0  0
    2.3229   -3.4412    1.1313 N   0  0  0  0  0  0  0  0  0  0  0  0
    0.6252   -1.6624    1.2570 C   0  0  0  0  0  0  0  0  0  0  0  0
    3.0781   -0.6833   -0.6177 C   0  0  0  0  0  0  0  0  0  0  0  0
    4.3685   -0.3575   -1.0392 C   0  0  0  0  0  0  0  0  0  0  0  0
    4.8470   -1.0176   -2.1031 F   0  0  0  0  0  0  0  0  0  0  0  0
    8.2961   -0.9368   -2.6417 H   0  0  0  0  0  0  0  0  0  0  0  0
    7.1505   -1.4739   -1.3974 H   0  0  0  0  0  0  0  0  0  0  0  0
    8.5541   -0.5344   -0.9287 H   0  0  0  0  0  0  0  0  0  0  0  0
    6.2637    0.5532   -2.6954 H   0  0  0  0  0  0  0  0  0  0  0  0
    8.6958    1.9536   -1.4998 H   0  0  0  0  0  0  0  0  0  0  0  0
    8.4577    1.5691   -3.2217 H   0  0  0  0  0  0  0  0  0  0  0  0
    7.3850    2.7159   -2.3883 H   0  0  0  0  0  0  0  0  0  0  0  0
    5.1411    1.9779    1.2931 H   0  0  0  0  0  0  0  0  0  0  0  0
    2.8559    1.4216    2.0452 H   0  0  0  0  0  0  0  0  0  0  0  0
   -2.6708    0.0707    2.4006 H   0  0  0  0  0  0  0  0  0  0  0  0
   -1.3447    1.9363    3.2651 H   0  0  0  0  0  0  0  0  0  0  0  0
   -2.8648    2.5153    2.5644 H   0  0  0  0  0  0  0  0  0  0  0  0
   -1.3446    2.7286    1.6844 H   0  0  0  0  0  0  0  0  0  0  0  0
   -0.9135    2.5950   -2.5668 H   0  0  0  0  0  0  0  0  0  0  0  0
   -1.8065    2.9437   -4.8724 H   0  0  0  0  0  0  0  0  0  0  0  0
   -5.4976    1.0727   -3.7500 H   0  0  0  0  0  0  0  0  0  0  0  0
   -5.7451    1.5018    2.0654 H   0  0  0  0  0  0  0  0  0  0  0  0
   -6.9900    0.3538    3.8677 H   0  0  0  0  0  0  0  0  0  0  0  0
   -6.8901   -2.1306    4.0597 H   0  0  0  0  0  0  0  0  0  0  0  0
   -4.3146   -2.3254    0.6490 H   0  0  0  0  0  0  0  0  0  0  0  0
   -1.8387   -4.3476    2.1635 H   0  0  0  0  0  0  0  0  0  0  0  0
    3.1020   -2.8151    1.0152 H   0  0  0  0  0  0  0  0  0  0  0  0
    2.4781   -4.4315    1.2586 H   0  0  0  0  0  0  0  0  0  0  0  0
    2.5171   -1.4238   -1.1819 H   0  0  0  0  0  0  0  0  0  0  0  0
  1  2  1  0
  2  3  1  0
  2  4  1  0
  4  5  1  0
  5  6  2  0
  6  7  1  0
  7  8  2  0
  8  9  1  0
  9 10  2  0
 10 11  1  0
 11 12  1  0
 12 13  1  0
 12 14  1  0
 14 15  1  0
 15 16  1  0
 16 17  2  0
 17 18  1  0
 18 19  2  0
 19 20  1  0
 19 21  1  0
 21 22  2  0
 22 23  1  0
 23 24  2  0
 23 25  1  0
 25 26  1  0
 26 27  2  0
 27 28  1  0
 28 29  2  0
 29 30  1  0
 30 31  1  0
 30 32  2  0
 11 33  1  0
 33 34  2  0
 34 35  1  0
 35 36  2  0
 36 37  1  0
 37 38  1  0
 37 39  2  0
  8 40  1  0
 40 41  2  0
 41 42  1  0
 41  5  1  0
 39  9  1  0
 25 14  2  0
 32 26  1  0
 39 33  1  0
 22 16  1  0
  1 43  1  0
  1 44  1  0
  1 45  1  0
  2 46  1  0
  3 47  1  0
  3 48  1  0
  3 49  1  0
  6 50  1  0
  7 51  1  0
 12 52  1  1
 13 53  1  0
 13 54  1  0
 13 55  1  0
 17 56  1  0
 18 57  1  0
 21 58  1  0
 27 59  1  0
 28 60  1  0
 29 61  1  0
 32 62  1  0
 35 63  1  0
 38 64  1  0
 38 65  1  0
 40 66  1  0
M  END
$$$$
