
     RDKit          3D

 77 82  0  0  0  0  0  0  0  0999 V2000
   -2.8022   -2.8050   -4.3250 C   0  0  0  0  0  0  0  0  0  0  0  0
   -2.3329   -1.5333   -3.6659 C   0  0  0  0  0  0  0  0  0  0  0  0
   -3.2154   -0.4419   -3.6366 C   0  0  0  0  0  0  0  0  0  0  0  0
   -2.8309    0.7795   -3.0832 C   0  0  0  0  0  0  0  0  0  0  0  0
   -1.5620    0.9294   -2.5281 C   0  0  0  0  0  0  0  0  0  0  0  0
   -1.2280    2.1881   -1.9925 N   0  0  0  0  0  0  0  0  0  0  0  0
   -0.2394    2.4581   -1.0728 C   0  0  0  0  0  0  0  0  0  0  0  0
    0.3539    1.6376   -0.3676 O   0  0  0  0  0  0  0  0  0  0  0  0
    0.0433    3.9049   -0.8736 C   0  0  0  0  0  0  0  0  0  0  0  0
    0.1283    4.7870   -1.9542 C   0  0  0  0  0  0  0  0  0  0  0  0
    0.4557    6.1260   -1.7295 C   0  0  0  0  0  0  0  0  0  0  0  0
    0.7148    6.5833   -0.4340 C   0  0  0  0  0  0  0  0  0  0  0  0
    0.6382    5.7079    0.6568 C   0  0  0  0  0  0  0  0  0  0  0  0
    0.9562    6.1577    2.0588 C   0  0  0  0  0  0  0  0  0  0  0  0
    1.2195    7.4775    2.1997 F   0  0  0  0  0  0  0  0  0  0  0  0
    2.0538    5.4953    2.5557 F   0  0  0  0  0  0  0  0  0  0  0  0
   -0.0378    5.8535    2.9393 F   0  0  0  0  0  0  0  0  0  0  0  0
    0.2862    4.3673    0.4243 C   0  0  0  0  0  0  0  0  0  0  0  0
   -0.6686   -0.1431   -2.5729 C   0  0  0  0  0  0  0  0  0  0  0  0
   -1.0519   -1.3952   -3.0939 C   0  0  0  0  0  0  0  0  0  0  0  0
   -0.0677   -2.4203   -3.1643 N   0  0  0  0  0  0  0  0  0  0  0  0
   -0.2673   -3.6886   -2.7064 C   0  0  0  0  0  0  0  0  0  0  0  0
   -0.0771   -4.7645   -3.4300 N   0  0  0  0  0  0  0  0  0  0  0  0
   -0.6825   -5.7792   -2.7374 C   0  0  0  0  0  0  0  0  0  0  0  0
   -0.8602   -7.1184   -3.1156 C   0  0  0  0  0  0  0  0  0  0  0  0
   -1.5334   -7.9830   -2.2468 C   0  0  0  0  0  0  0  0  0  0  0  0
   -2.0138   -7.5258   -1.0208 C   0  0  0  0  0  0  0  0  0  0  0  0
   -1.8340   -6.1967   -0.6203 C   0  0  0  0  0  0  0  0  0  0  0  0
   -1.1675   -5.3358   -1.5069 C   0  0  0  0  0  0  0  0  0  0  0  0
   -0.7486   -4.0136   -1.4364 N   0  0  0  0  0  0  0  0  0  0  0  0
   -0.7343   -3.1939   -0.2687 C   0  0  0  0  0  0  0  0  0  0  0  0
    0.2240   -2.2103   -0.1475 C   0  0  0  0  0  0  0  0  0  0  0  0
    0.1503   -1.4352    0.9838 C   0  0  0  0  0  0  0  0  0  0  0  0
    1.0931   -0.3329    1.1298 N   0  0  0  0  0  0  0  0  0  0  0  0
    1.6557   -0.1771    2.5065 C   0  0  1  0  0  0  0  0  0  0  0  0
    2.9943    0.5921    2.4219 C   0  0  0  0  0  0  0  0  0  0  0  0
    2.8362    2.1156    2.5014 C   0  0  0  0  0  0  0  0  0  0  0  0
    2.0787    2.5839    3.7549 C   0  0  2  0  0  0  0  0  0  0  0  0
    3.0086    3.2422    4.7062 N   0  0  0  0  0  0  0  0  0  0  0  0
    1.3450    1.4436    4.4612 C   0  0  0  0  0  0  0  0  0  0  0  0
    0.6529    0.5387    3.4362 C   0  0  0  0  0  0  0  0  0  0  0  0
   -0.7555   -1.5920    1.9481 N   0  0  0  0  0  0  0  0  0  0  0  0
   -1.6095   -2.6090    1.7702 C   0  0  0  0  0  0  0  0  0  0  0  0
   -1.6247   -3.4289    0.7151 N   0  0  0  0  0  0  0  0  0  0  0  0
   -3.0603   -3.5515   -3.5685 H   0  0  0  0  0  0  0  0  0  0  0  0
   -2.0359   -3.2020   -4.9979 H   0  0  0  0  0  0  0  0  0  0  0  0
   -3.6935   -2.6293   -4.9374 H   0  0  0  0  0  0  0  0  0  0  0  0
   -4.2124   -0.5331   -4.0676 H   0  0  0  0  0  0  0  0  0  0  0  0
   -3.5475    1.5979   -3.0896 H   0  0  0  0  0  0  0  0  0  0  0  0
   -1.8387    2.9546   -2.2646 H   0  0  0  0  0  0  0  0  0  0  0  0
   -0.0302    4.4491   -2.9767 H   0  0  0  0  0  0  0  0  0  0  0  0
    0.5243    6.8169   -2.5699 H   0  0  0  0  0  0  0  0  0  0  0  0
    0.9805    7.6316   -0.2877 H   0  0  0  0  0  0  0  0  0  0  0  0
    0.1904    3.6829    1.2619 H   0  0  0  0  0  0  0  0  0  0  0  0
    0.3548   -0.0090   -2.2413 H   0  0  0  0  0  0  0  0  0  0  0  0
    0.3801   -2.4023   -4.0841 H   0  0  0  0  0  0  0  0  0  0  0  0
   -0.4890   -7.4704   -4.0729 H   0  0  0  0  0  0  0  0  0  0  0  0
   -1.6845   -9.0218   -2.5342 H   0  0  0  0  0  0  0  0  0  0  0  0
   -2.5352   -8.2181   -0.3613 H   0  0  0  0  0  0  0  0  0  0  0  0
   -2.2060   -5.8631    0.3426 H   0  0  0  0  0  0  0  0  0  0  0  0
    0.9922   -2.0634   -0.8937 H   0  0  0  0  0  0  0  0  0  0  0  0
    0.5938    0.5047    0.7617 H   0  0  0  0  0  0  0  0  0  0  0  0
    1.8380   -0.4833    0.4421 H   0  0  0  0  0  0  0  0  0  0  0  0
    1.8781   -1.1866    2.8763 H   0  0  0  0  0  0  0  0  0  0  0  0
    3.5448    0.3242    1.5121 H   0  0  0  0  0  0  0  0  0  0  0  0
    3.6301    0.2739    3.2590 H   0  0  0  0  0  0  0  0  0  0  0  0
    2.2816    2.4417    1.6143 H   0  0  0  0  0  0  0  0  0  0  0  0
    3.8214    2.5920    2.4309 H   0  0  0  0  0  0  0  0  0  0  0  0
    1.3595    3.3600    3.4755 H   0  0  0  0  0  0  0  0  0  0  0  0
    3.4268    4.0918    4.2921 H   0  0  0  0  0  0  0  0  0  0  0  0
    3.7875    2.6460    5.0198 H   0  0  0  0  0  0  0  0  0  0  0  0
    2.5215    3.5677    5.5561 H   0  0  0  0  0  0  0  0  0  0  0  0
    0.5982    1.8576    5.1495 H   0  0  0  0  0  0  0  0  0  0  0  0
    2.0349    0.8460    5.0707 H   0  0  0  0  0  0  0  0  0  0  0  0
    0.0615   -0.2076    3.9793 H   0  0  0  0  0  0  0  0  0  0  0  0
   -0.0576    1.1433    2.8576 H   0  0  0  0  0  0  0  0  0  0  0  0
   -2.3526   -2.7863    2.5426 H   0  0  0  0  0  0  0  0  0  0  0  0
  1  2  1  0
  2  3  2  0
  3  4  1  0
  4  5  2  0
  5  6  1  0
  6  7  1  0
  7  8  2  0
  7  9  1  0
  9 10  2  0
 10 11  1  0
 11 12  2  0
 12 13  1  0
 13 14  1  0
 14 15  1  0
 14 16  1  0
 14 17  1  0
 13 18  2  0
  5 19  1  0
 19 20  2  0
 20 21  1  0
 21 22  1  0
 22 23  2  0
 23 24  1  0
 24 25  2  0
 25 26  1  0
 26 27  2  0
 27 28  1  0
 28 29  2  0
 29 30  1  0
 30 31  1  0
 31 32  2  0
 32 33  1  0
 33 34  1  0
 34 35  1  0
 35 36  1  0
 36 37  1  0
 37 38  1  0
 38 39  1  0
 38 40  1  0
 40 41  1  0
 33 42  2  0
 42 43  1  0
 43 44  2  0
 20  2  1  0
 30 22  1  0
 44 31  1  0
 18  9  1  0
 29 24  1  0
 41 35  1  0
  1 45  1  0
  1 46  1  0
  1 47  1  0
  3 48  1  0
  4 49  1  0
  6 50  1  0
 10 51  1  0
 11 52  1  0
 12 53  1  0
 18 54  1  0
 19 55  1  0
 21 56  1  0
 25 57  1  0
 26 58  1  0
 27 59  1  0
 28 60  1  0
 32 61  1  0
 34 62  1  0
 34 63  1  0
 35 64  1  1
 36 65  1  0
 36 66  1  0
 37 67  1  0
 37 68  1  0
 38 69  1  6
 39 70  1  0
 39 71  1  0
 39 72  1  0
 40 73  1  0
 40 74  1  0
 41 75  1  0
 41 76  1  0
 43 77  1  0
M  CHG  2  34   1  39   1
M  END
$$$$
