
     RDKit          3D

 70 75  0  0  0  0  0  0  0  0999 V2000
  -10.6344    2.3545    0.3802 C   0  0  0  0  0  0  0  0  0  0  0  0
   -9.6826    1.2191    0.5961 N   0  0  0  0  0  0  0  0  0  0  0  0
   -8.8504    1.4004    1.8627 C   0  0  0  0  0  0  0  0  0  0  0  0
   -7.9446    0.1752    2.0974 C   0  0  0  0  0  0  0  0  0  0  0  0
   -7.1431   -0.1241    0.9016 N   0  0  0  0  0  0  0  0  0  0  0  0
   -5.9614   -0.8543    1.0366 C   0  0  0  0  0  0  0  0  0  0  0  0
   -5.7390   -1.7356    2.1042 C   0  0  0  0  0  0  0  0  0  0  0  0
   -4.5410   -2.4450    2.2276 C   0  0  0  0  0  0  0  0  0  0  0  0
   -3.5304   -2.2827    1.2840 C   0  0  0  0  0  0  0  0  0  0  0  0
   -3.7078   -1.4084    0.2107 C   0  0  0  0  0  0  0  0  0  0  0  0
   -2.6687   -1.2205   -0.7887 C   0  0  0  0  0  0  0  0  0  0  0  0
   -2.7807   -1.0573   -2.1840 C   0  0  0  0  0  0  0  0  0  0  0  0
   -1.6106   -0.8801   -2.7932 N   0  0  0  0  0  0  0  0  0  0  0  0
   -0.6921   -0.9381   -1.7800 N   0  0  0  0  0  0  0  0  0  0  0  0
    0.7181   -0.8032   -1.9038 C   0  0  0  0  0  0  0  0  0  0  0  0
    1.2106   -0.5911   -3.1766 N   0  0  0  0  0  0  0  0  0  0  0  0
    1.4661   -0.8761   -0.7801 C   0  0  0  0  0  0  0  0  0  0  0  0
    2.9285   -0.7521   -0.7478 C   0  0  0  0  0  0  0  0  0  0  0  0
    3.7437   -1.7350   -1.3178 C   0  0  0  0  0  0  0  0  0  0  0  0
    5.1367   -1.6112   -1.2738 C   0  0  0  0  0  0  0  0  0  0  0  0
    5.7398   -0.5058   -0.6602 C   0  0  0  0  0  0  0  0  0  0  0  0
    7.1498   -0.4605   -0.6601 N   0  0  0  0  0  0  0  0  0  0  0  0
    7.9700    0.5206   -0.1184 C   0  0  0  0  0  0  0  0  0  0  0  0
    7.5724    1.5235    0.4588 O   0  0  0  0  0  0  0  0  0  0  0  0
    9.3025    0.2028   -0.3243 N   0  0  0  0  0  0  0  0  0  0  0  0
   10.4525    0.9314    0.0682 C   0  0  0  0  0  0  0  0  0  0  0  0
   10.4007    2.1445    0.7595 C   0  0  0  0  0  0  0  0  0  0  0  0
   11.5785    2.8119    1.1166 C   0  0  0  0  0  0  0  0  0  0  0  0
   12.8218    2.2765    0.7881 C   0  0  0  0  0  0  0  0  0  0  0  0
   12.8931    1.0684    0.0993 C   0  0  0  0  0  0  0  0  0  0  0  0
   11.7174    0.4025   -0.2571 C   0  0  0  0  0  0  0  0  0  0  0  0
   11.8597   -1.0979   -1.1137 Cl  0  0  0  0  0  0  0  0  0  0  0  0
    4.9228    0.4729   -0.0927 C   0  0  0  0  0  0  0  0  0  0  0  0
    3.5281    0.3516   -0.1346 C   0  0  0  0  0  0  0  0  0  0  0  0
    0.7026   -1.0841    0.4912 C   0  0  0  0  0  0  0  0  0  0  0  0
   -0.5834   -1.2084    0.6205 N   0  0  0  0  0  0  0  0  0  0  0  0
   -1.3096   -1.1398   -0.5375 C   0  0  0  0  0  0  0  0  0  0  0  0
   -4.9223   -0.7078    0.0997 C   0  0  0  0  0  0  0  0  0  0  0  0
   -7.8580   -0.2254   -0.3824 C   0  0  0  0  0  0  0  0  0  0  0  0
   -8.7701    0.9973   -0.6068 C   0  0  0  0  0  0  0  0  0  0  0  0
  -11.2282    2.1339   -0.5106 H   0  0  0  0  0  0  0  0  0  0  0  0
  -11.2861    2.4212    1.2551 H   0  0  0  0  0  0  0  0  0  0  0  0
  -10.0594    3.2751    0.2492 H   0  0  0  0  0  0  0  0  0  0  0  0
  -10.2364    0.3615    0.7179 H   0  0  0  0  0  0  0  0  0  0  0  0
   -8.2587    2.3132    1.7298 H   0  0  0  0  0  0  0  0  0  0  0  0
   -9.5486    1.5294    2.6959 H   0  0  0  0  0  0  0  0  0  0  0  0
   -7.3005    0.4017    2.9557 H   0  0  0  0  0  0  0  0  0  0  0  0
   -8.5635   -0.6937    2.3532 H   0  0  0  0  0  0  0  0  0  0  0  0
   -6.4991   -1.9090    2.8602 H   0  0  0  0  0  0  0  0  0  0  0  0
   -4.3929   -3.1263    3.0622 H   0  0  0  0  0  0  0  0  0  0  0  0
   -2.6039   -2.8420    1.3982 H   0  0  0  0  0  0  0  0  0  0  0  0
   -3.6782   -1.0635   -2.7883 H   0  0  0  0  0  0  0  0  0  0  0  0
    0.5350   -0.5246   -3.9360 H   0  0  0  0  0  0  0  0  0  0  0  0
    2.1920   -0.4045   -3.3379 H   0  0  0  0  0  0  0  0  0  0  0  0
    3.3031   -2.6062   -1.7994 H   0  0  0  0  0  0  0  0  0  0  0  0
    5.7398   -2.3947   -1.7262 H   0  0  0  0  0  0  0  0  0  0  0  0
    7.6143   -1.2359   -1.1060 H   0  0  0  0  0  0  0  0  0  0  0  0
    9.5075   -0.6554   -0.8166 H   0  0  0  0  0  0  0  0  0  0  0  0
    9.4583    2.6046    1.0395 H   0  0  0  0  0  0  0  0  0  0  0  0
   11.5183    3.7556    1.6548 H   0  0  0  0  0  0  0  0  0  0  0  0
   13.7322    2.8005    1.0688 H   0  0  0  0  0  0  0  0  0  0  0  0
   13.8639    0.6519   -0.1564 H   0  0  0  0  0  0  0  0  0  0  0  0
    5.3365    1.3515    0.3930 H   0  0  0  0  0  0  0  0  0  0  0  0
    2.9229    1.1381    0.3121 H   0  0  0  0  0  0  0  0  0  0  0  0
    1.3191   -1.1389    1.4053 H   0  0  0  0  0  0  0  0  0  0  0  0
   -5.0339    0.0083   -0.7104 H   0  0  0  0  0  0  0  0  0  0  0  0
   -7.1786   -0.2940   -1.2385 H   0  0  0  0  0  0  0  0  0  0  0  0
   -8.4650   -1.1396   -0.3782 H   0  0  0  0  0  0  0  0  0  0  0  0
   -9.4135    0.8434   -1.4790 H   0  0  0  0  0  0  0  0  0  0  0  0
   -8.1818    1.9127   -0.7368 H   0  0  0  0  0  0  0  0  0  0  0  0
  1  2  1  0
  2  3  1  0
  3  4  1  0
  4  5  1  0
  5  6  1  0
  6  7  2  0
  7  8  1  0
  8  9  2  0
  9 10  1  0
 10 11  1  0
 11 12  1  0
 12 13  2  0
 13 14  1  0
 14 15  1  0
 15 16  1  0
 15 17  2  0
 17 18  1  0
 18 19  2  0
 19 20  1  0
 20 21  2  0
 21 22  1  0
 22 23  1  0
 23 24  2  0
 23 25  1  0
 25 26  1  0
 26 27  2  0
 27 28  1  0
 28 29  2  0
 29 30  1  0
 30 31  2  0
 31 32  1  0
 21 33  1  0
 33 34  2  0
 17 35  1  0
 35 36  2  0
 36 37  1  0
 10 38  2  0
  5 39  1  0
 39 40  1  0
 40  2  1  0
 38  6  1  0
 37 11  2  0
 37 14  1  0
 34 18  1  0
 31 26  1  0
  1 41  1  0
  1 42  1  0
  1 43  1  0
  2 44  1  0
  3 45  1  0
  3 46  1  0
  4 47  1  0
  4 48  1  0
  7 49  1  0
  8 50  1  0
  9 51  1  0
 12 52  1  0
 16 53  1  0
 16 54  1  0
 19 55  1  0
 20 56  1  0
 22 57  1  0
 25 58  1  0
 27 59  1  0
 28 60  1  0
 29 61  1  0
 30 62  1  0
 33 63  1  0
 34 64  1  0
 35 65  1  0
 38 66  1  0
 39 67  1  0
 39 68  1  0
 40 69  1  0
 40 70  1  0
M  CHG  1   2   1
M  END
$$$$
