
     RDKit          3D

 57 61  0  0  0  0  0  0  0  0999 V2000
    4.5222    0.7138   -0.4682 O   0  0  0  0  0  0  0  0  0  0  0  0
    3.7229   -0.0864   -0.0012 C   0  0  0  0  0  0  0  0  0  0  0  0
    2.3741   -0.1459   -0.3183 N   0  0  0  0  0  0  0  0  0  0  0  0
    1.6517    0.6931   -1.1941 C   0  0  0  0  0  0  0  0  0  0  0  0
    2.2048    1.7750   -1.8778 C   0  0  0  0  0  0  0  0  0  0  0  0
    1.4118    2.5614   -2.7172 C   0  0  0  0  0  0  0  0  0  0  0  0
    0.0584    2.2684   -2.8865 C   0  0  0  0  0  0  0  0  0  0  0  0
   -0.5190    1.1779   -2.2238 C   0  0  0  0  0  0  0  0  0  0  0  0
   -1.9544    0.8391   -2.3721 C   0  0  0  0  0  0  0  0  0  0  0  0
   -2.5272    0.8672   -3.5938 C   0  0  0  0  0  0  0  0  0  0  0  0
   -3.8599    0.5330   -3.6973 N   0  0  0  0  0  0  0  0  0  0  0  0
   -4.7148    0.4665   -4.7630 C   0  0  0  0  0  0  0  0  0  0  0  0
   -5.9235    0.0711   -4.2276 C   0  0  0  0  0  0  0  0  0  0  0  0
   -5.8324   -0.1082   -2.8671 N   0  0  0  0  0  0  0  0  0  0  0  0
   -4.5769    0.1788   -2.5897 C   0  0  0  0  0  0  0  0  0  0  0  0
   -3.9170    0.1517   -1.2966 C   0  0  0  0  0  0  0  0  0  0  0  0
   -4.6148   -0.2022   -0.1692 N   0  0  0  0  0  0  0  0  0  0  0  0
   -4.0593   -0.2180    1.1551 C   0  0  0  0  0  0  0  0  0  0  0  0
   -5.1098   -0.6640    2.1382 C   0  0  0  0  0  0  0  0  0  0  0  0
   -5.3325   -2.0235    2.3782 C   0  0  0  0  0  0  0  0  0  0  0  0
   -6.3275   -2.3857    3.2722 C   0  0  0  0  0  0  0  0  0  0  0  0
   -7.1065   -1.4996    3.9277 N   0  0  0  0  0  0  0  0  0  0  0  0
   -6.8868   -0.1926    3.6716 C   0  0  0  0  0  0  0  0  0  0  0  0
   -5.9174    0.2690    2.7953 C   0  0  0  0  0  0  0  0  0  0  0  0
   -2.6433    0.4684   -1.2202 N   0  0  0  0  0  0  0  0  0  0  0  0
    0.2897    0.4073   -1.3707 C   0  0  0  0  0  0  0  0  0  0  0  0
    4.0467   -1.0662    0.9235 N   0  0  0  0  0  0  0  0  0  0  0  0
    5.3122   -1.3496    1.4829 C   0  0  0  0  0  0  0  0  0  0  0  0
    6.4920   -0.6738    1.1648 C   0  0  0  0  0  0  0  0  0  0  0  0
    7.7132   -1.0287    1.7734 C   0  0  0  0  0  0  0  0  0  0  0  0
    8.9730   -0.2705    1.4233 C   0  0  0  0  0  0  0  0  0  0  0  0
    9.1388   -0.1091    0.0822 F   0  0  0  0  0  0  0  0  0  0  0  0
    8.9932    0.9788    1.9622 F   0  0  0  0  0  0  0  0  0  0  0  0
   10.1074   -0.8843    1.8646 F   0  0  0  0  0  0  0  0  0  0  0  0
    7.7351   -2.0691    2.7169 C   0  0  0  0  0  0  0  0  0  0  0  0
    6.5627   -2.7501    3.0387 C   0  0  0  0  0  0  0  0  0  0  0  0
    5.3701   -2.3872    2.4219 C   0  0  0  0  0  0  0  0  0  0  0  0
    4.2468   -3.0512    2.7404 F   0  0  0  0  0  0  0  0  0  0  0  0
    1.8397   -0.8816    0.1161 H   0  0  0  0  0  0  0  0  0  0  0  0
    3.2512    2.0440   -1.7740 H   0  0  0  0  0  0  0  0  0  0  0  0
    1.8541    3.4103   -3.2331 H   0  0  0  0  0  0  0  0  0  0  0  0
   -0.5388    2.9121   -3.5275 H   0  0  0  0  0  0  0  0  0  0  0  0
   -2.0102    1.1265   -4.5080 H   0  0  0  0  0  0  0  0  0  0  0  0
   -4.4069    0.6969   -5.7723 H   0  0  0  0  0  0  0  0  0  0  0  0
   -6.8561   -0.0946   -4.7526 H   0  0  0  0  0  0  0  0  0  0  0  0
   -5.5981   -0.4257   -0.2914 H   0  0  0  0  0  0  0  0  0  0  0  0
   -3.6935    0.7787    1.4305 H   0  0  0  0  0  0  0  0  0  0  0  0
   -3.2001   -0.8980    1.2056 H   0  0  0  0  0  0  0  0  0  0  0  0
   -4.7481   -2.7879    1.8763 H   0  0  0  0  0  0  0  0  0  0  0  0
   -6.5324   -3.4304    3.4887 H   0  0  0  0  0  0  0  0  0  0  0  0
   -7.5339    0.4983    4.2047 H   0  0  0  0  0  0  0  0  0  0  0  0
   -5.8001    1.3349    2.6281 H   0  0  0  0  0  0  0  0  0  0  0  0
   -0.1643   -0.4292   -0.8434 H   0  0  0  0  0  0  0  0  0  0  0  0
    3.2973   -1.6522    1.2650 H   0  0  0  0  0  0  0  0  0  0  0  0
    6.4983    0.1386    0.4415 H   0  0  0  0  0  0  0  0  0  0  0  0
    8.6683   -2.3519    3.2028 H   0  0  0  0  0  0  0  0  0  0  0  0
    6.5697   -3.5575    3.7645 H   0  0  0  0  0  0  0  0  0  0  0  0
  1  2  2  0
  2  3  1  0
  3  4  1  0
  4  5  2  0
  5  6  1  0
  6  7  2  0
  7  8  1  0
  8  9  1  0
  9 10  2  0
 10 11  1  0
 11 12  1  0
 12 13  2  0
 13 14  1  0
 14 15  2  0
 15 16  1  0
 16 17  1  0
 17 18  1  0
 18 19  1  0
 19 20  2  0
 20 21  1  0
 21 22  2  0
 22 23  1  0
 23 24  2  0
 16 25  2  0
  8 26  2  0
  2 27  1  0
 27 28  1  0
 28 29  2  0
 29 30  1  0
 30 31  1  0
 31 32  1  0
 31 33  1  0
 31 34  1  0
 30 35  2  0
 35 36  1  0
 36 37  2  0
 37 38  1  0
 26  4  1  0
 37 28  1  0
 25  9  1  0
 15 11  1  0
 24 19  1  0
  3 39  1  0
  5 40  1  0
  6 41  1  0
  7 42  1  0
 10 43  1  0
 12 44  1  0
 13 45  1  0
 17 46  1  0
 18 47  1  0
 18 48  1  0
 20 49  1  0
 21 50  1  0
 23 51  1  0
 24 52  1  0
 26 53  1  0
 27 54  1  0
 29 55  1  0
 35 56  1  0
 36 57  1  0
M  END
$$$$
