
     RDKit          3D

 75 79  0  0  0  0  0  0  0  0999 V2000
    2.8581    4.2528   -3.4943 N   0  0  0  0  0  0  0  0  0  0  0  0
    3.2994    3.3376   -2.5826 C   0  0  0  0  0  0  0  0  0  0  0  0
    4.4944    3.0978   -2.4585 O   0  0  0  0  0  0  0  0  0  0  0  0
    2.2841    2.6231   -1.7647 C   0  0  0  0  0  0  0  0  0  0  0  0
    2.6498    1.4073   -1.1801 C   0  0  0  0  0  0  0  0  0  0  0  0
    1.7747    0.6681   -0.3545 C   0  0  0  0  0  0  0  0  0  0  0  0
    2.4054   -0.8163    0.4016 S   0  0  0  0  0  0  0  0  0  0  0  0
    1.7607   -1.9269   -0.2612 O   0  0  0  0  0  0  0  0  0  0  0  0
    2.3601   -0.6424    1.8354 O   0  0  0  0  0  0  0  0  0  0  0  0
    4.0182   -0.9101   -0.0378 N   0  0  0  0  0  0  0  0  0  0  0  0
    5.0038   -0.2889    0.8477 C   0  0  0  0  0  0  0  0  0  0  0  0
    6.3715   -0.2983    0.2076 C   0  0  0  0  0  0  0  0  0  0  0  0
    7.2587   -1.3607    0.4399 C   0  0  0  0  0  0  0  0  0  0  0  0
    8.5125   -1.3838   -0.1761 C   0  0  0  0  0  0  0  0  0  0  0  0
    8.8826   -0.3503   -1.0342 C   0  0  0  0  0  0  0  0  0  0  0  0
   10.4259   -0.3825   -1.7941 Cl  0  0  0  0  0  0  0  0  0  0  0  0
    8.0093    0.7054   -1.2828 C   0  0  0  0  0  0  0  0  0  0  0  0
    6.7563    0.7302   -0.6659 C   0  0  0  0  0  0  0  0  0  0  0  0
    0.4669    1.1889   -0.1853 C   0  0  0  0  0  0  0  0  0  0  0  0
    0.1088    2.4159   -0.7545 C   0  0  0  0  0  0  0  0  0  0  0  0
    1.0139    3.1471   -1.5382 C   0  0  0  0  0  0  0  0  0  0  0  0
   -1.1683    2.7731   -0.4385 N   0  0  0  0  0  0  0  0  0  0  0  0
   -1.6453    1.7948    0.2869 C   0  0  0  0  0  0  0  0  0  0  0  0
   -2.8903    1.7086    0.7894 N   0  0  0  0  0  0  0  0  0  0  0  0
   -3.8096    2.8152    0.6288 C   0  0  0  0  0  0  0  0  0  0  0  0
   -5.1634    2.4407    1.1856 C   0  0  0  0  0  0  0  0  0  0  0  0
   -6.0696    1.7577    0.3517 C   0  0  0  0  0  0  0  0  0  0  0  0
   -7.3263    1.3706    0.8197 C   0  0  0  0  0  0  0  0  0  0  0  0
   -7.6957    1.6510    2.1317 C   0  0  0  0  0  0  0  0  0  0  0  0
   -6.8046    2.3119    2.9766 C   0  0  0  0  0  0  0  0  0  0  0  0
   -5.5433    2.7005    2.5108 C   0  0  0  0  0  0  0  0  0  0  0  0
   -4.4924    3.4911    3.6311 Cl  0  0  0  0  0  0  0  0  0  0  0  0
   -0.7003    0.7960    0.4601 N   0  0  0  0  0  0  0  0  0  0  0  0
   -0.9274   -0.4051    1.2458 C   0  0  0  0  0  0  0  0  0  0  0  0
   -1.4028   -1.6455    0.4417 C   0  0  1  0  0  0  0  0  0  0  0  0
   -1.3176   -2.8647    1.3845 C   0  0  0  0  0  0  0  0  0  0  0  0
   -1.0886   -4.2094    0.7000 C   0  0  0  0  0  0  0  0  0  0  0  0
   -1.9002   -4.4991   -0.5546 C   0  0  0  0  0  0  0  0  0  0  0  0
   -3.3222   -3.9537   -0.5323 C   0  0  0  0  0  0  0  0  0  0  0  0
   -3.3963   -2.5139   -1.0353 C   0  0  0  0  0  0  0  0  0  0  0  0
   -2.8252   -1.4264   -0.1203 C   0  0  1  0  0  0  0  0  0  0  0  0
   -3.7328   -1.1497    0.9511 O   0  0  0  0  0  0  0  0  0  0  0  0
    1.8870    4.4425   -3.6932 H   0  0  0  0  0  0  0  0  0  0  0  0
    3.5581    4.7304   -4.0476 H   0  0  0  0  0  0  0  0  0  0  0  0
    3.6515    1.0349   -1.3856 H   0  0  0  0  0  0  0  0  0  0  0  0
    4.2644   -1.8095   -0.4491 H   0  0  0  0  0  0  0  0  0  0  0  0
    5.0498   -0.8412    1.7936 H   0  0  0  0  0  0  0  0  0  0  0  0
    4.7209    0.7435    1.0823 H   0  0  0  0  0  0  0  0  0  0  0  0
    6.9801   -2.1769    1.1036 H   0  0  0  0  0  0  0  0  0  0  0  0
    9.1930   -2.2092    0.0150 H   0  0  0  0  0  0  0  0  0  0  0  0
    8.2906    1.5104   -1.9569 H   0  0  0  0  0  0  0  0  0  0  0  0
    6.0831    1.5598   -0.8782 H   0  0  0  0  0  0  0  0  0  0  0  0
    0.6975    4.1066   -1.9276 H   0  0  0  0  0  0  0  0  0  0  0  0
   -3.2805    0.8538    1.1883 H   0  0  0  0  0  0  0  0  0  0  0  0
   -3.4226    3.7209    1.1091 H   0  0  0  0  0  0  0  0  0  0  0  0
   -3.9239    3.0643   -0.4349 H   0  0  0  0  0  0  0  0  0  0  0  0
   -5.7886    1.5179   -0.6727 H   0  0  0  0  0  0  0  0  0  0  0  0
   -8.0134    0.8465    0.1599 H   0  0  0  0  0  0  0  0  0  0  0  0
   -8.6731    1.3502    2.4997 H   0  0  0  0  0  0  0  0  0  0  0  0
   -7.0967    2.5187    4.0033 H   0  0  0  0  0  0  0  0  0  0  0  0
   -1.6311   -0.1640    2.0511 H   0  0  0  0  0  0  0  0  0  0  0  0
    0.0027   -0.6162    1.7695 H   0  0  0  0  0  0  0  0  0  0  0  0
   -0.7272   -1.7922   -0.4075 H   0  0  0  0  0  0  0  0  0  0  0  0
   -2.2148   -2.9245    2.0121 H   0  0  0  0  0  0  0  0  0  0  0  0
   -0.4859   -2.7378    2.0901 H   0  0  0  0  0  0  0  0  0  0  0  0
   -0.0250   -4.3069    0.4477 H   0  0  0  0  0  0  0  0  0  0  0  0
   -1.2882   -4.9969    1.4384 H   0  0  0  0  0  0  0  0  0  0  0  0
   -1.9396   -5.5884   -0.6824 H   0  0  0  0  0  0  0  0  0  0  0  0
   -1.3648   -4.1184   -1.4333 H   0  0  0  0  0  0  0  0  0  0  0  0
   -3.7787   -4.0612    0.4574 H   0  0  0  0  0  0  0  0  0  0  0  0
   -3.9243   -4.5664   -1.2158 H   0  0  0  0  0  0  0  0  0  0  0  0
   -2.8926   -2.4546   -2.0087 H   0  0  0  0  0  0  0  0  0  0  0  0
   -4.4541   -2.2840   -1.2196 H   0  0  0  0  0  0  0  0  0  0  0  0
   -2.8141   -0.5218   -0.7368 H   0  0  0  0  0  0  0  0  0  0  0  0
   -4.1324   -1.9881    1.2419 H   0  0  0  0  0  0  0  0  0  0  0  0
  1  2  1  0
  2  3  2  0
  2  4  1  0
  4  5  2  0
  5  6  1  0
  6  7  1  0
  7  8  2  0
  7  9  2  0
  7 10  1  0
 10 11  1  0
 11 12  1  0
 12 13  2  0
 13 14  1  0
 14 15  2  0
 15 16  1  0
 15 17  1  0
 17 18  2  0
  6 19  2  0
 19 20  1  0
 20 21  2  0
 20 22  1  0
 22 23  2  0
 23 24  1  0
 24 25  1  0
 25 26  1  0
 26 27  2  0
 27 28  1  0
 28 29  2  0
 29 30  1  0
 30 31  2  0
 31 32  1  0
 23 33  1  0
 33 34  1  0
 34 35  1  0
 35 36  1  0
 36 37  1  0
 37 38  1  0
 38 39  1  0
 39 40  1  0
 40 41  1  0
 41 42  1  0
 21  4  1  0
 31 26  1  0
 41 35  1  0
 18 12  1  0
 33 19  1  0
  1 43  1  0
  1 44  1  0
  5 45  1  0
 10 46  1  0
 11 47  1  0
 11 48  1  0
 13 49  1  0
 14 50  1  0
 17 51  1  0
 18 52  1  0
 21 53  1  0
 24 54  1  0
 25 55  1  0
 25 56  1  0
 27 57  1  0
 28 58  1  0
 29 59  1  0
 30 60  1  0
 34 61  1  0
 34 62  1  0
 35 63  1  6
 36 64  1  0
 36 65  1  0
 37 66  1  0
 37 67  1  0
 38 68  1  0
 38 69  1  0
 39 70  1  0
 39 71  1  0
 40 72  1  0
 40 73  1  0
 41 74  1  6
 42 75  1  0
M  END
$$$$
