
     RDKit          3D

 59 62  0  0  0  0  0  0  0  0999 V2000
    9.5997   -0.2477   -0.8788 C   0  0  0  0  0  0  0  0  0  0  0  0
    9.1394    0.6829    0.2552 C   0  0  0  0  0  0  0  0  0  0  0  0
    9.4238    2.1488   -0.1092 C   0  0  0  0  0  0  0  0  0  0  0  0
    9.9306    0.3478    1.4735 C   0  0  0  0  0  0  0  0  0  0  0  0
   10.5071    0.0782    2.4450 N   0  0  0  0  0  0  0  0  0  0  0  0
    7.7111    0.4820    0.5645 N   0  0  0  0  0  0  0  0  0  0  0  0
    6.6909    0.6672   -0.3407 C   0  0  0  0  0  0  0  0  0  0  0  0
    6.8635    1.0539   -1.4893 O   0  0  0  0  0  0  0  0  0  0  0  0
    5.3114    0.4052    0.1559 C   0  0  0  0  0  0  0  0  0  0  0  0
    4.2529    1.1120   -0.4197 C   0  0  0  0  0  0  0  0  0  0  0  0
    2.9409    0.8944    0.0160 C   0  0  0  0  0  0  0  0  0  0  0  0
    2.6464   -0.0349    1.0310 C   0  0  0  0  0  0  0  0  0  0  0  0
    1.2528   -0.2476    1.4760 C   0  0  0  0  0  0  0  0  0  0  0  0
    0.9208   -0.5581    2.7782 C   0  0  0  0  0  0  0  0  0  0  0  0
   -0.4165   -0.7225    3.0347 C   0  0  0  0  0  0  0  0  0  0  0  0
   -1.3715   -0.5986    2.0995 N   0  0  0  0  0  0  0  0  0  0  0  0
   -0.9797   -0.2921    0.8564 C   0  0  0  0  0  0  0  0  0  0  0  0
   -1.8833   -0.1410   -0.1906 N   0  0  0  0  0  0  0  0  0  0  0  0
   -3.2732   -0.2282   -0.2986 C   0  0  0  0  0  0  0  0  0  0  0  0
   -4.1262   -0.5117    0.7657 C   0  0  0  0  0  0  0  0  0  0  0  0
   -5.5186   -0.5862    0.5883 C   0  0  0  0  0  0  0  0  0  0  0  0
   -6.1205   -0.3714   -0.6569 C   0  0  0  0  0  0  0  0  0  0  0  0
   -7.4947   -0.4459   -0.8532 N   0  0  0  0  0  0  0  0  0  0  0  0
   -8.3527   -1.1252    0.1332 C   0  0  0  0  0  0  0  0  0  0  0  0
   -9.7106   -1.4812   -0.4907 C   0  0  0  0  0  0  0  0  0  0  0  0
  -10.3532   -0.3289   -1.0570 O   0  0  0  0  0  0  0  0  0  0  0  0
   -9.5294    0.2243   -2.0947 C   0  0  0  0  0  0  0  0  0  0  0  0
   -8.1580    0.6669   -1.5613 C   0  0  0  0  0  0  0  0  0  0  0  0
   -5.2562   -0.0972   -1.7233 C   0  0  0  0  0  0  0  0  0  0  0  0
   -3.8656   -0.0250   -1.5500 C   0  0  0  0  0  0  0  0  0  0  0  0
    0.3073   -0.1075    0.5190 N   0  0  0  0  0  0  0  0  0  0  0  0
    3.7249   -0.7541    1.5797 C   0  0  0  0  0  0  0  0  0  0  0  0
    5.0422   -0.5418    1.1487 C   0  0  0  0  0  0  0  0  0  0  0  0
   10.6820   -0.1731   -1.0406 H   0  0  0  0  0  0  0  0  0  0  0  0
    9.3736   -1.2955   -0.6460 H   0  0  0  0  0  0  0  0  0  0  0  0
    9.1123   -0.0118   -1.8300 H   0  0  0  0  0  0  0  0  0  0  0  0
   10.4977    2.3240   -0.2471 H   0  0  0  0  0  0  0  0  0  0  0  0
    8.9232    2.4472   -1.0357 H   0  0  0  0  0  0  0  0  0  0  0  0
    9.0790    2.8263    0.6816 H   0  0  0  0  0  0  0  0  0  0  0  0
    7.4759    0.2757    1.5270 H   0  0  0  0  0  0  0  0  0  0  0  0
    4.4413    1.8360   -1.2105 H   0  0  0  0  0  0  0  0  0  0  0  0
    2.1359    1.4629   -0.4492 H   0  0  0  0  0  0  0  0  0  0  0  0
    1.6531   -0.6527    3.5675 H   0  0  0  0  0  0  0  0  0  0  0  0
   -0.7735   -0.9638    4.0315 H   0  0  0  0  0  0  0  0  0  0  0  0
   -1.3716    0.0751   -1.0329 H   0  0  0  0  0  0  0  0  0  0  0  0
   -3.7358   -0.6806    1.7643 H   0  0  0  0  0  0  0  0  0  0  0  0
   -6.1198   -0.7965    1.4679 H   0  0  0  0  0  0  0  0  0  0  0  0
   -8.5108   -0.4576    0.9891 H   0  0  0  0  0  0  0  0  0  0  0  0
   -7.8886   -2.0524    0.4891 H   0  0  0  0  0  0  0  0  0  0  0  0
  -10.3757   -1.8881    0.2776 H   0  0  0  0  0  0  0  0  0  0  0  0
   -9.5965   -2.2447   -1.2699 H   0  0  0  0  0  0  0  0  0  0  0  0
  -10.0589    1.0859   -2.5137 H   0  0  0  0  0  0  0  0  0  0  0  0
   -9.4174   -0.5178   -2.8944 H   0  0  0  0  0  0  0  0  0  0  0  0
   -7.5704    1.0424   -2.4048 H   0  0  0  0  0  0  0  0  0  0  0  0
   -8.2932    1.4936   -0.8527 H   0  0  0  0  0  0  0  0  0  0  0  0
   -5.6507    0.0337   -2.7271 H   0  0  0  0  0  0  0  0  0  0  0  0
   -3.2493    0.1857   -2.4204 H   0  0  0  0  0  0  0  0  0  0  0  0
    3.5501   -1.5181    2.3352 H   0  0  0  0  0  0  0  0  0  0  0  0
    5.8329   -1.1522    1.5758 H   0  0  0  0  0  0  0  0  0  0  0  0
  1  2  1  0
  2  3  1  0
  2  4  1  0
  4  5  3  0
  2  6  1  0
  6  7  1  0
  7  8  2  0
  7  9  1  0
  9 10  2  0
 10 11  1  0
 11 12  2  0
 12 13  1  0
 13 14  2  0
 14 15  1  0
 15 16  2  0
 16 17  1  0
 17 18  1  0
 18 19  1  0
 19 20  2  0
 20 21  1  0
 21 22  2  0
 22 23  1  0
 23 24  1  0
 24 25  1  0
 25 26  1  0
 26 27  1  0
 27 28  1  0
 22 29  1  0
 29 30  2  0
 17 31  2  0
 12 32  1  0
 32 33  2  0
 33  9  1  0
 31 13  1  0
 30 19  1  0
 28 23  1  0
  1 34  1  0
  1 35  1  0
  1 36  1  0
  3 37  1  0
  3 38  1  0
  3 39  1  0
  6 40  1  0
 10 41  1  0
 11 42  1  0
 14 43  1  0
 15 44  1  0
 18 45  1  0
 20 46  1  0
 21 47  1  0
 24 48  1  0
 24 49  1  0
 25 50  1  0
 25 51  1  0
 27 52  1  0
 27 53  1  0
 28 54  1  0
 28 55  1  0
 29 56  1  0
 30 57  1  0
 32 58  1  0
 33 59  1  0
M  END
$$$$
