
     RDKit          3D

 52 56  0  0  0  0  0  0  0  0999 V2000
   -7.6153   -3.5947   -0.9579 C   0  0  0  0  0  0  0  0  0  0  0  0
   -6.4334   -2.7171   -0.8223 C   0  0  0  0  0  0  0  0  0  0  0  0
   -6.3515   -1.3447   -0.9124 C   0  0  0  0  0  0  0  0  0  0  0  0
   -5.0259   -1.0140   -0.7090 N   0  0  0  0  0  0  0  0  0  0  0  0
   -4.4540    0.2948   -0.7077 C   0  0  0  0  0  0  0  0  0  0  0  0
   -3.0818    0.4746   -0.4628 C   0  0  0  0  0  0  0  0  0  0  0  0
   -2.5103    1.7519   -0.4647 C   0  0  0  0  0  0  0  0  0  0  0  0
   -1.1441    2.0096   -0.2280 N   0  0  0  0  0  0  0  0  0  0  0  0
   -0.1183    1.0910   -0.0193 C   0  0  0  0  0  0  0  0  0  0  0  0
   -0.2622   -0.1228   -0.0676 O   0  0  0  0  0  0  0  0  0  0  0  0
    1.0662    1.7604    0.2435 N   0  0  0  0  0  0  0  0  0  0  0  0
    2.3547    1.2200    0.4437 C   0  0  0  0  0  0  0  0  0  0  0  0
    3.3749    2.1324    0.7276 C   0  0  0  0  0  0  0  0  0  0  0  0
    4.6816    1.6905    0.9281 C   0  0  0  0  0  0  0  0  0  0  0  0
    5.0008    0.3291    0.8493 C   0  0  0  0  0  0  0  0  0  0  0  0
    6.5365   -0.0529    1.0917 C   0  0  0  0  0  0  0  0  0  0  0  0
    7.5103    0.9029    1.3657 N   0  0  0  0  0  0  0  0  0  0  0  0
    8.6296    0.1872    1.4950 C   0  0  0  0  0  0  0  0  0  0  0  0
    9.9009    0.4971    1.7539 N   0  0  0  0  0  0  0  0  0  0  0  0
   10.5435   -0.7682    1.7398 N   0  0  0  0  0  0  0  0  0  0  0  0
    9.5524   -1.6915    1.4673 C   0  0  0  0  0  0  0  0  0  0  0  0
    8.3609   -1.0856    1.3161 C   0  0  0  0  0  0  0  0  0  0  0  0
    7.0736   -1.3328    1.0582 N   0  0  0  0  0  0  0  0  0  0  0  0
    3.9877   -0.6039    0.5669 C   0  0  0  0  0  0  0  0  0  0  0  0
    4.2579   -2.0786    0.4685 C   0  0  0  0  0  0  0  0  0  0  0  0
    2.6666   -0.1394    0.3654 C   0  0  0  0  0  0  0  0  0  0  0  0
   -3.3273    2.8619   -0.7064 C   0  0  0  0  0  0  0  0  0  0  0  0
   -4.7012    2.7112   -0.9437 C   0  0  0  0  0  0  0  0  0  0  0  0
   -5.5658    3.9139   -1.2267 C   0  0  0  0  0  0  0  0  0  0  0  0
   -6.8371    3.7775   -0.7546 F   0  0  0  0  0  0  0  0  0  0  0  0
   -5.6890    4.1616   -2.5595 F   0  0  0  0  0  0  0  0  0  0  0  0
   -5.0878    5.0636   -0.6743 F   0  0  0  0  0  0  0  0  0  0  0  0
   -5.2548    1.4205   -0.9509 C   0  0  0  0  0  0  0  0  0  0  0  0
   -4.3828   -2.2182   -0.5087 C   0  0  0  0  0  0  0  0  0  0  0  0
   -5.2004   -3.2481   -0.5701 N   0  0  0  0  0  0  0  0  0  0  0  0
   -7.7747   -4.1625   -0.0361 H   0  0  0  0  0  0  0  0  0  0  0  0
   -8.5205   -3.0146   -1.1626 H   0  0  0  0  0  0  0  0  0  0  0  0
   -7.4705   -4.3028   -1.7796 H   0  0  0  0  0  0  0  0  0  0  0  0
   -7.1227   -0.6147   -1.0979 H   0  0  0  0  0  0  0  0  0  0  0  0
   -2.4483   -0.3815   -0.2639 H   0  0  0  0  0  0  0  0  0  0  0  0
   -0.8592    2.9758   -0.2483 H   0  0  0  0  0  0  0  0  0  0  0  0
    1.0213    2.7612    0.3362 H   0  0  0  0  0  0  0  0  0  0  0  0
    3.1870    3.1982    0.7989 H   0  0  0  0  0  0  0  0  0  0  0  0
    5.4752    2.4040    1.1479 H   0  0  0  0  0  0  0  0  0  0  0  0
    9.7582   -2.7461    1.3953 H   0  0  0  0  0  0  0  0  0  0  0  0
    4.9588   -2.2901   -0.3447 H   0  0  0  0  0  0  0  0  0  0  0  0
    3.3411   -2.6365    0.2466 H   0  0  0  0  0  0  0  0  0  0  0  0
    4.6388   -2.4666    1.4180 H   0  0  0  0  0  0  0  0  0  0  0  0
    1.8980   -0.8722    0.1435 H   0  0  0  0  0  0  0  0  0  0  0  0
   -2.8981    3.8631   -0.7131 H   0  0  0  0  0  0  0  0  0  0  0  0
   -6.3195    1.3295   -1.1506 H   0  0  0  0  0  0  0  0  0  0  0  0
   -3.3201   -2.3024   -0.3235 H   0  0  0  0  0  0  0  0  0  0  0  0
  1  2  1  0
  2  3  2  0
  3  4  1  0
  4  5  1  0
  5  6  2  0
  6  7  1  0
  7  8  1  0
  8  9  1  0
  9 10  2  0
  9 11  1  0
 11 12  1  0
 12 13  2  0
 13 14  1  0
 14 15  2  0
 15 16  1  0
 16 17  2  0
 17 18  1  0
 18 19  1  0
 19 20  1  0
 20 21  2  0
 21 22  1  0
 22 23  1  0
 15 24  1  0
 24 25  1  0
 24 26  2  0
  7 27  2  0
 27 28  1  0
 28 29  1  0
 29 30  1  0
 29 31  1  0
 29 32  1  0
 28 33  2  0
  4 34  1  0
 34 35  2  0
 35  2  1  0
 33  5  1  0
 26 12  1  0
 23 16  1  0
 22 18  2  0
  1 36  1  0
  1 37  1  0
  1 38  1  0
  3 39  1  0
  6 40  1  0
  8 41  1  0
 11 42  1  0
 13 43  1  0
 14 44  1  0
 21 45  1  0
 25 46  1  0
 25 47  1  0
 25 48  1  0
 26 49  1  0
 27 50  1  0
 33 51  1  0
 34 52  1  0
M  CHG  2  19  -1  23  -1
M  END
$$$$
