
     RDKit          3D

 69 73  0  0  0  0  0  0  0  0999 V2000
   -7.5843    0.6111   -2.5487 C   0  0  0  0  0  0  0  0  0  0  0  0
   -6.2146    0.2374   -2.5634 O   0  0  0  0  0  0  0  0  0  0  0  0
   -5.4514    0.5539   -1.4700 C   0  0  0  0  0  0  0  0  0  0  0  0
   -5.9568    1.0798   -0.2792 C   0  0  0  0  0  0  0  0  0  0  0  0
   -5.0979    1.3628    0.7878 C   0  0  0  0  0  0  0  0  0  0  0  0
   -3.7201    1.1198    0.6854 C   0  0  0  0  0  0  0  0  0  0  0  0
   -2.8815    1.4338    1.8771 C   0  0  0  0  0  0  0  0  0  0  0  0
   -3.3769    1.7243    2.9550 O   0  0  0  0  0  0  0  0  0  0  0  0
   -1.4422    1.4587    1.9936 N   0  0  0  0  0  0  0  0  0  0  0  0
   -0.7523    2.3296    0.9166 C   0  0  0  0  0  0  0  0  0  0  0  0
    0.0332    1.3284    0.2122 C   0  0  0  0  0  0  0  0  0  0  0  0
    0.0525    0.0922    0.8432 C   0  0  0  0  0  0  0  0  0  0  0  0
    0.7243   -0.8334    0.0874 C   0  0  0  0  0  0  0  0  0  0  0  0
    0.9659   -2.0207    0.2137 O   0  0  0  0  0  0  0  0  0  0  0  0
    1.1761   -0.0674   -1.0247 N   0  0  0  0  0  0  0  0  0  0  0  0
    2.0179   -0.5976   -2.1097 C   0  0  0  0  0  0  0  0  0  0  0  0
    3.4929   -0.5158   -1.7665 C   0  0  0  0  0  0  0  0  0  0  0  0
    4.1559   -1.6165   -1.2069 C   0  0  0  0  0  0  0  0  0  0  0  0
    5.5069   -1.5402   -0.8406 C   0  0  0  0  0  0  0  0  0  0  0  0
    6.1746   -2.7215   -0.1870 C   0  0  0  0  0  0  0  0  0  0  0  0
    5.8407   -2.8476    1.1302 F   0  0  0  0  0  0  0  0  0  0  0  0
    7.5371   -2.6529   -0.2119 F   0  0  0  0  0  0  0  0  0  0  0  0
    5.8579   -3.9135   -0.7662 F   0  0  0  0  0  0  0  0  0  0  0  0
    6.1964   -0.3335   -1.0441 C   0  0  0  0  0  0  0  0  0  0  0  0
    5.5548    0.7827   -1.6085 C   0  0  0  0  0  0  0  0  0  0  0  0
    6.2880    2.0887   -1.7829 C   0  0  0  0  0  0  0  0  0  0  0  0
    6.1534    2.9141   -0.7068 F   0  0  0  0  0  0  0  0  0  0  0  0
    5.8903    2.8074   -2.8681 F   0  0  0  0  0  0  0  0  0  0  0  0
    7.6348    1.9153   -1.9372 F   0  0  0  0  0  0  0  0  0  0  0  0
    4.2011    0.6794   -1.9567 C   0  0  0  0  0  0  0  0  0  0  0  0
    0.6838    1.2648   -0.9831 C   0  0  0  0  0  0  0  0  0  0  0  0
    0.8681    2.0582   -1.8832 O   0  0  0  0  0  0  0  0  0  0  0  0
   -0.6888    0.0960    2.1182 C   0  0  0  0  0  0  0  0  0  0  0  0
    0.2769    0.1872    3.3095 C   0  0  0  0  0  0  0  0  0  0  0  0
    1.1846   -1.0402    3.3989 C   0  0  0  0  0  0  0  0  0  0  0  0
    0.5452   -2.2420    2.8229 N   0  0  0  0  0  0  0  0  0  0  0  0
   -0.9194   -2.3429    2.8837 C   0  0  0  0  0  0  0  0  0  0  0  0
   -1.6226   -1.1080    2.3068 C   0  0  0  0  0  0  0  0  0  0  0  0
   -3.2183    0.5841   -0.5032 C   0  0  0  0  0  0  0  0  0  0  0  0
   -4.0693    0.3139   -1.5841 C   0  0  0  0  0  0  0  0  0  0  0  0
   -3.6354   -0.2154   -2.7751 O   0  0  0  0  0  0  0  0  0  0  0  0
   -2.2455   -0.0725   -3.0780 C   0  0  0  0  0  0  0  0  0  0  0  0
   -8.1344    0.0540   -1.7834 H   0  0  0  0  0  0  0  0  0  0  0  0
   -7.7002    1.6913   -2.4115 H   0  0  0  0  0  0  0  0  0  0  0  0
   -8.0131    0.3512   -3.5213 H   0  0  0  0  0  0  0  0  0  0  0  0
   -7.0162    1.2779   -0.1497 H   0  0  0  0  0  0  0  0  0  0  0  0
   -5.5259    1.7753    1.7010 H   0  0  0  0  0  0  0  0  0  0  0  0
   -1.3321    1.9740    2.8656 H   0  0  0  0  0  0  0  0  0  0  0  0
   -1.5086    2.8406    0.3163 H   0  0  0  0  0  0  0  0  0  0  0  0
   -0.1286    3.0508    1.4528 H   0  0  0  0  0  0  0  0  0  0  0  0
    1.8054   -0.0502   -3.0347 H   0  0  0  0  0  0  0  0  0  0  0  0
    1.7130   -1.6321   -2.3067 H   0  0  0  0  0  0  0  0  0  0  0  0
    3.5930   -2.5338   -1.0301 H   0  0  0  0  0  0  0  0  0  0  0  0
    7.2439   -0.2558   -0.7509 H   0  0  0  0  0  0  0  0  0  0  0  0
    3.6698    1.5456   -2.3582 H   0  0  0  0  0  0  0  0  0  0  0  0
   -0.3026    0.2705    4.2391 H   0  0  0  0  0  0  0  0  0  0  0  0
    0.9048    1.0866    3.2636 H   0  0  0  0  0  0  0  0  0  0  0  0
    2.1294   -0.8894    2.8660 H   0  0  0  0  0  0  0  0  0  0  0  0
    1.4178   -1.2676    4.4442 H   0  0  0  0  0  0  0  0  0  0  0  0
    1.0261   -3.1074    3.0907 H   0  0  0  0  0  0  0  0  0  0  0  0
    0.7867   -2.2254    1.7789 H   0  0  0  0  0  0  0  0  0  0  0  0
   -1.1779   -2.4766    3.9399 H   0  0  0  0  0  0  0  0  0  0  0  0
   -1.2111   -3.2515    2.3468 H   0  0  0  0  0  0  0  0  0  0  0  0
   -2.0977   -1.3902    1.3595 H   0  0  0  0  0  0  0  0  0  0  0  0
   -2.4403   -0.8660    2.9968 H   0  0  0  0  0  0  0  0  0  0  0  0
   -2.1683    0.3485   -0.6110 H   0  0  0  0  0  0  0  0  0  0  0  0
   -1.6457   -0.7597   -2.4737 H   0  0  0  0  0  0  0  0  0  0  0  0
   -1.9171    0.9647   -2.9587 H   0  0  0  0  0  0  0  0  0  0  0  0
   -2.1064   -0.3472   -4.1280 H   0  0  0  0  0  0  0  0  0  0  0  0
  1  2  1  0
  2  3  1  0
  3  4  2  0
  4  5  1  0
  5  6  2  0
  6  7  1  0
  7  8  2  0
  7  9  1  0
  9 10  1  0
 10 11  1  0
 11 12  1  0
 12 13  2  0
 13 14  1  0
 13 15  1  0
 15 16  1  0
 16 17  1  0
 17 18  2  0
 18 19  1  0
 19 20  1  0
 20 21  1  0
 20 22  1  0
 20 23  1  0
 19 24  2  0
 24 25  1  0
 25 26  1  0
 26 27  1  0
 26 28  1  0
 26 29  1  0
 25 30  2  0
 15 31  1  0
 31 32  1  0
 12 33  1  0
 33 34  1  0
 34 35  1  0
 35 36  1  0
 36 37  1  0
 37 38  1  0
  6 39  1  0
 39 40  2  0
 40 41  1  0
 41 42  1  0
 40  3  1  0
 33  9  1  0
 31 11  2  0
 38 33  1  0
 30 17  1  0
  1 43  1  0
  1 44  1  0
  1 45  1  0
  4 46  1  0
  5 47  1  0
  9 48  1  0
 10 49  1  0
 10 50  1  0
 16 51  1  0
 16 52  1  0
 18 53  1  0
 24 54  1  0
 30 55  1  0
 34 56  1  0
 34 57  1  0
 35 58  1  0
 35 59  1  0
 36 60  1  0
 36 61  1  0
 37 62  1  0
 37 63  1  0
 38 64  1  0
 38 65  1  0
 39 66  1  0
 42 67  1  0
 42 68  1  0
 42 69  1  0
M  CHG  4   9   1  14  -1  32  -1  36   1
M  END
$$$$
