
     RDKit          3D

 70 76  0  0  0  0  0  0  0  0999 V2000
    2.4280   -0.8751   -1.6501 O   0  0  0  0  0  0  0  0  0  0  0  0
    1.9247   -0.3000   -0.6943 C   0  0  0  0  0  0  0  0  0  0  0  0
    2.5941    0.5872    0.1054 N   0  0  0  0  0  0  0  0  0  0  0  0
    4.0216    0.8947   -0.0277 C   0  0  1  0  0  0  0  0  0  0  0  0
    4.2893    1.7519   -1.2828 C   0  0  0  0  0  0  0  0  0  0  0  0
    5.6578    2.3620   -1.3763 C   0  0  0  0  0  0  0  0  0  0  0  0
    5.9312    3.7127   -1.5034 C   0  0  0  0  0  0  0  0  0  0  0  0
    7.2889    3.8759   -1.5099 N   0  0  0  0  0  0  0  0  0  0  0  0
    7.9150    2.6633   -1.3756 C   0  0  0  0  0  0  0  0  0  0  0  0
    9.2707    2.3509   -1.2926 C   0  0  0  0  0  0  0  0  0  0  0  0
    9.6126    0.9970   -1.1352 C   0  0  0  0  0  0  0  0  0  0  0  0
    8.6824   -0.0548   -1.0769 C   0  0  0  0  0  0  0  0  0  0  0  0
    9.0322   -1.2706   -0.9169 O   0  0  0  0  0  0  0  0  0  0  0  0
    7.3316    0.3371   -1.2030 C   0  0  0  0  0  0  0  0  0  0  0  0
    6.9236    1.6878   -1.3268 C   0  0  0  0  0  0  0  0  0  0  0  0
    4.3969    1.5874    1.2695 C   0  0  0  0  0  0  0  0  0  0  0  0
    5.6153    1.5001    1.9228 C   0  0  0  0  0  0  0  0  0  0  0  0
    5.5936    2.4413    3.3532 S   0  0  0  0  0  0  0  0  0  0  0  0
    3.9698    2.8721    3.0229 C   0  0  0  0  0  0  0  0  0  0  0  0
    3.4357    2.3648    1.9341 N   0  0  0  0  0  0  0  0  0  0  0  0
    0.4885   -0.5135   -0.3651 C   0  0  0  0  0  0  0  0  0  0  0  0
    0.0171   -0.4220    0.9513 C   0  0  0  0  0  0  0  0  0  0  0  0
   -1.3369   -0.6172    1.2525 C   0  0  0  0  0  0  0  0  0  0  0  0
   -2.1995   -0.9149    0.1868 C   0  0  0  0  0  0  0  0  0  0  0  0
   -1.7438   -1.0342   -1.1185 C   0  0  0  0  0  0  0  0  0  0  0  0
   -0.3872   -0.8372   -1.4111 C   0  0  0  0  0  0  0  0  0  0  0  0
   -2.7705   -1.3460   -1.9606 N   0  0  0  0  0  0  0  0  0  0  0  0
   -3.8598   -1.4768   -1.2144 C   0  0  0  0  0  0  0  0  0  0  0  0
   -5.1491   -1.8973   -1.7830 C   0  0  0  0  0  0  0  0  0  0  0  0
   -5.4262   -1.6697   -3.1296 C   0  0  0  0  0  0  0  0  0  0  0  0
   -6.6343   -2.1161   -3.6589 C   0  0  0  0  0  0  0  0  0  0  0  0
   -7.5269   -2.7875   -2.8348 C   0  0  0  0  0  0  0  0  0  0  0  0
   -7.1697   -2.9844   -1.5120 C   0  0  0  0  0  0  0  0  0  0  0  0
   -6.0074   -2.5555   -0.9703 N   0  0  0  0  0  0  0  0  0  0  0  0
   -3.5687   -1.1426    0.1025 N   0  0  0  0  0  0  0  0  0  0  0  0
   -4.4691   -0.9577    1.2404 C   0  0  0  0  0  0  0  0  0  0  0  0
   -5.6790   -0.0435    0.9762 C   0  0  0  0  0  0  0  0  0  0  0  0
   -6.5091    0.1617    2.2427 C   0  0  0  0  0  0  0  0  0  0  0  0
   -6.9068   -1.1690    2.8746 C   0  0  0  0  0  0  0  0  0  0  0  0
   -5.6845   -2.0251    3.1921 C   0  0  0  0  0  0  0  0  0  0  0  0
   -4.8229   -2.2710    1.9545 C   0  0  0  0  0  0  0  0  0  0  0  0
    2.1154    1.1335    0.8108 H   0  0  0  0  0  0  0  0  0  0  0  0
    4.5527   -0.0611   -0.0993 H   0  0  0  0  0  0  0  0  0  0  0  0
    4.1181    1.1481   -2.1830 H   0  0  0  0  0  0  0  0  0  0  0  0
    3.5459    2.5610   -1.3253 H   0  0  0  0  0  0  0  0  0  0  0  0
    5.2722    4.5664   -1.5755 H   0  0  0  0  0  0  0  0  0  0  0  0
    7.7743    4.7573   -1.5798 H   0  0  0  0  0  0  0  0  0  0  0  0
   10.0422    3.1088   -1.3316 H   0  0  0  0  0  0  0  0  0  0  0  0
   10.6695    0.7416   -1.0531 H   0  0  0  0  0  0  0  0  0  0  0  0
    6.5777   -0.4473   -1.1840 H   0  0  0  0  0  0  0  0  0  0  0  0
    6.5007    0.9532    1.6196 H   0  0  0  0  0  0  0  0  0  0  0  0
    3.4184    3.5249    3.6854 H   0  0  0  0  0  0  0  0  0  0  0  0
    0.7052   -0.2215    1.7701 H   0  0  0  0  0  0  0  0  0  0  0  0
   -1.6829   -0.5502    2.2782 H   0  0  0  0  0  0  0  0  0  0  0  0
   -0.0304   -0.9343   -2.4317 H   0  0  0  0  0  0  0  0  0  0  0  0
   -4.7022   -1.1605   -3.7597 H   0  0  0  0  0  0  0  0  0  0  0  0
   -6.8653   -1.9495   -4.7069 H   0  0  0  0  0  0  0  0  0  0  0  0
   -8.4724   -3.1562   -3.2155 H   0  0  0  0  0  0  0  0  0  0  0  0
   -7.8293   -3.5120   -0.8289 H   0  0  0  0  0  0  0  0  0  0  0  0
   -3.8782   -0.3872    1.9704 H   0  0  0  0  0  0  0  0  0  0  0  0
   -6.3378   -0.4441    0.2043 H   0  0  0  0  0  0  0  0  0  0  0  0
   -5.3345    0.9303    0.6061 H   0  0  0  0  0  0  0  0  0  0  0  0
   -5.9340    0.7533    2.9656 H   0  0  0  0  0  0  0  0  0  0  0  0
   -7.4085    0.7400    2.0024 H   0  0  0  0  0  0  0  0  0  0  0  0
   -7.5713   -1.7153    2.1939 H   0  0  0  0  0  0  0  0  0  0  0  0
   -7.4726   -0.9831    3.7945 H   0  0  0  0  0  0  0  0  0  0  0  0
   -6.0048   -2.9851    3.6128 H   0  0  0  0  0  0  0  0  0  0  0  0
   -5.0814   -1.5269    3.9612 H   0  0  0  0  0  0  0  0  0  0  0  0
   -3.9046   -2.7910    2.2551 H   0  0  0  0  0  0  0  0  0  0  0  0
   -5.3514   -2.9596    1.2919 H   0  0  0  0  0  0  0  0  0  0  0  0
  1  2  2  0
  2  3  1  0
  3  4  1  0
  4  5  1  0
  5  6  1  0
  6  7  2  0
  7  8  1  0
  8  9  1  0
  9 10  2  0
 10 11  1  0
 11 12  2  0
 12 13  1  0
 12 14  1  0
 14 15  2  0
  4 16  1  0
 16 17  2  0
 17 18  1  0
 18 19  1  0
 19 20  2  0
  2 21  1  0
 21 22  2  0
 22 23  1  0
 23 24  2  0
 24 25  1  0
 25 26  2  0
 25 27  1  0
 27 28  2  0
 28 29  1  0
 29 30  2  0
 30 31  1  0
 31 32  2  0
 32 33  1  0
 33 34  2  0
 28 35  1  0
 35 36  1  0
 36 37  1  0
 37 38  1  0
 38 39  1  0
 39 40  1  0
 40 41  1  0
 15  6  1  0
 20 16  1  0
 26 21  1  0
 34 29  1  0
 41 36  1  0
 15  9  1  0
 35 24  1  0
  3 42  1  0
  4 43  1  6
  5 44  1  0
  5 45  1  0
  7 46  1  0
  8 47  1  0
 10 48  1  0
 11 49  1  0
 14 50  1  0
 17 51  1  0
 19 52  1  0
 22 53  1  0
 23 54  1  0
 26 55  1  0
 30 56  1  0
 31 57  1  0
 32 58  1  0
 33 59  1  0
 36 60  1  0
 37 61  1  0
 37 62  1  0
 38 63  1  0
 38 64  1  0
 39 65  1  0
 39 66  1  0
 40 67  1  0
 40 68  1  0
 41 69  1  0
 41 70  1  0
M  CHG  1  13  -1
M  END
$$$$
