
     RDKit          3D

 80 84  0  0  0  0  0  0  0  0999 V2000
   -3.9008   -0.7917    2.5230 C   0  0  0  0  0  0  0  0  0  0  0  0
   -4.1358   -0.8745    1.0475 C   0  0  0  0  0  0  0  0  0  0  0  0
   -5.1264   -1.3679    0.5228 O   0  0  0  0  0  0  0  0  0  0  0  0
   -3.0842   -0.3469    0.3734 O   0  0  0  0  0  0  0  0  0  0  0  0
   -3.1500   -0.3801   -1.0782 C   0  0  1  0  0  0  0  0  0  0  0  0
   -2.2108    0.7367   -1.5768 C   0  0  1  0  0  0  0  0  0  0  0  0
   -2.6627    1.9899   -1.0393 O   0  0  0  0  0  0  0  0  0  0  0  0
   -0.7368    0.4361   -1.1980 C   0  0  2  0  0  0  0  0  0  0  0  0
    0.1278    1.5150   -1.6282 O   0  0  0  0  0  0  0  0  0  0  0  0
    0.2602    2.5462   -0.7536 C   0  0  0  0  0  0  0  0  0  0  0  0
   -0.3792    2.6837    0.2799 O   0  0  0  0  0  0  0  0  0  0  0  0
    1.3255    3.4832   -1.1948 C   0  0  0  0  0  0  0  0  0  0  0  0
    2.0069    3.3285   -2.4094 C   0  0  0  0  0  0  0  0  0  0  0  0
    3.0126    4.2294   -2.7676 C   0  0  0  0  0  0  0  0  0  0  0  0
    3.3421    5.2847   -1.9175 C   0  0  0  0  0  0  0  0  0  0  0  0
    2.6690    5.4435   -0.7070 C   0  0  0  0  0  0  0  0  0  0  0  0
    1.6634    4.5455   -0.3452 C   0  0  0  0  0  0  0  0  0  0  0  0
   -0.2239   -0.9049   -1.8258 C   0  0  1  0  0  0  0  0  0  0  0  0
   -0.0997   -0.7453   -3.3699 C   0  0  0  0  0  0  0  0  0  0  0  0
    1.2466   -1.2309   -1.3446 C   0  0  1  0  0  0  0  0  0  0  0  0
    1.5110   -0.6069   -0.0721 O   0  0  0  0  0  0  0  0  0  0  0  0
    2.7872   -0.2149    0.1629 C   0  0  0  0  0  0  0  0  0  0  0  0
    3.7517   -0.4320   -0.5553 O   0  0  0  0  0  0  0  0  0  0  0  0
    2.9036    0.5568    1.4164 C   0  0  0  0  0  0  0  0  0  0  0  0
    1.8650    0.8755    2.2041 C   0  0  0  0  0  0  0  0  0  0  0  0
    1.9868    1.6973    3.4141 C   0  0  0  0  0  0  0  0  0  0  0  0
    3.0425    1.5450    4.3218 C   0  0  0  0  0  0  0  0  0  0  0  0
    3.1060    2.3340    5.4734 C   0  0  0  0  0  0  0  0  0  0  0  0
    2.1110    3.2748    5.7320 C   0  0  0  0  0  0  0  0  0  0  0  0
    1.0489    3.4246    4.8430 C   0  0  0  0  0  0  0  0  0  0  0  0
    0.9843    2.6356    3.6923 C   0  0  0  0  0  0  0  0  0  0  0  0
    1.5806   -2.7462   -1.2826 C   0  0  0  0  0  0  0  0  0  0  0  0
    0.4049   -3.6883   -0.9303 C   0  0  2  0  0  0  0  0  0  0  0  0
   -0.7161   -3.4075   -1.9152 C   0  0  0  0  0  0  0  0  0  0  0  0
   -1.2082   -2.0544   -1.3820 C   0  0  1  0  0  0  0  0  0  0  0  0
   -1.0437   -2.1704    0.0855 O   0  0  0  0  0  0  0  0  0  0  0  0
   -0.3019   -3.3686    0.3928 C   0  0  0  0  0  0  0  0  0  0  0  0
    0.6181   -3.1473    1.5953 C   0  0  0  0  0  0  0  0  0  0  0  0
   -1.3011   -4.4643    0.8202 C   0  0  0  0  0  0  0  0  0  0  0  0
   -2.7342   -1.7718   -1.6544 C   0  0  2  0  0  0  0  0  0  0  0  0
   -3.1626   -1.8775   -3.1277 C   0  0  0  0  0  0  0  0  0  0  0  0
   -3.4910   -2.8361   -1.0307 O   0  0  0  0  0  0  0  0  0  0  0  0
   -3.7425    0.2493    2.8159 H   0  0  0  0  0  0  0  0  0  0  0  0
   -4.7800   -1.1705    3.0518 H   0  0  0  0  0  0  0  0  0  0  0  0
   -3.0365   -1.4035    2.7937 H   0  0  0  0  0  0  0  0  0  0  0  0
   -4.1789   -0.1296   -1.3690 H   0  0  0  0  0  0  0  0  0  0  0  0
   -2.2998    0.8596   -2.6589 H   0  0  0  0  0  0  0  0  0  0  0  0
   -2.1937    2.1375   -0.1907 H   0  0  0  0  0  0  0  0  0  0  0  0
   -0.6762    0.3626   -0.1048 H   0  0  0  0  0  0  0  0  0  0  0  0
    1.7699    2.5117   -3.0857 H   0  0  0  0  0  0  0  0  0  0  0  0
    3.5419    4.1060   -3.7095 H   0  0  0  0  0  0  0  0  0  0  0  0
    4.1268    5.9834   -2.1980 H   0  0  0  0  0  0  0  0  0  0  0  0
    2.9284    6.2643   -0.0429 H   0  0  0  0  0  0  0  0  0  0  0  0
    1.1489    4.6754    0.6052 H   0  0  0  0  0  0  0  0  0  0  0  0
   -1.0237   -0.4495   -3.8576 H   0  0  0  0  0  0  0  0  0  0  0  0
    0.2586   -1.6553   -3.8581 H   0  0  0  0  0  0  0  0  0  0  0  0
    0.6247    0.0383   -3.6252 H   0  0  0  0  0  0  0  0  0  0  0  0
    1.9444   -0.7780   -2.0619 H   0  0  0  0  0  0  0  0  0  0  0  0
    3.9127    0.8878    1.6352 H   0  0  0  0  0  0  0  0  0  0  0  0
    0.8521    0.5689    1.9506 H   0  0  0  0  0  0  0  0  0  0  0  0
    3.8205    0.8052    4.1509 H   0  0  0  0  0  0  0  0  0  0  0  0
    3.9301    2.2094    6.1711 H   0  0  0  0  0  0  0  0  0  0  0  0
    2.1605    3.8872    6.6286 H   0  0  0  0  0  0  0  0  0  0  0  0
    0.2683    4.1537    5.0439 H   0  0  0  0  0  0  0  0  0  0  0  0
    0.1477    2.7668    3.0078 H   0  0  0  0  0  0  0  0  0  0  0  0
    1.9449   -3.0445   -2.2751 H   0  0  0  0  0  0  0  0  0  0  0  0
    2.4081   -2.9277   -0.5873 H   0  0  0  0  0  0  0  0  0  0  0  0
    0.7436   -4.7287   -0.9769 H   0  0  0  0  0  0  0  0  0  0  0  0
   -1.4861   -4.1827   -1.8582 H   0  0  0  0  0  0  0  0  0  0  0  0
   -0.3881   -3.4009   -2.9565 H   0  0  0  0  0  0  0  0  0  0  0  0
    1.1746   -4.0587    1.8390 H   0  0  0  0  0  0  0  0  0  0  0  0
    0.0357   -2.8518    2.4761 H   0  0  0  0  0  0  0  0  0  0  0  0
    1.3425   -2.3504    1.4496 H   0  0  0  0  0  0  0  0  0  0  0  0
   -0.7857   -5.4078    1.0298 H   0  0  0  0  0  0  0  0  0  0  0  0
   -1.8401   -4.1571    1.7248 H   0  0  0  0  0  0  0  0  0  0  0  0
   -2.0760   -4.6639    0.0780 H   0  0  0  0  0  0  0  0  0  0  0  0
   -4.2521   -1.9947   -3.1954 H   0  0  0  0  0  0  0  0  0  0  0  0
   -2.7390   -2.7653   -3.6079 H   0  0  0  0  0  0  0  0  0  0  0  0
   -2.9158   -1.0046   -3.7291 H   0  0  0  0  0  0  0  0  0  0  0  0
   -4.3573   -2.4795   -0.7418 H   0  0  0  0  0  0  0  0  0  0  0  0
  1  2  1  0
  2  3  2  0
  2  4  1  0
  4  5  1  0
  5  6  1  0
  6  7  1  0
  6  8  1  0
  8  9  1  0
  9 10  1  0
 10 11  2  0
 10 12  1  0
 12 13  2  0
 13 14  1  0
 14 15  2  0
 15 16  1  0
 16 17  2  0
  8 18  1  0
 18 19  1  6
 18 20  1  0
 20 21  1  0
 21 22  1  0
 22 23  2  0
 22 24  1  0
 24 25  2  0
 25 26  1  0
 26 27  2  0
 27 28  1  0
 28 29  2  0
 29 30  1  0
 30 31  2  0
 20 32  1  0
 32 33  1  0
 33 34  1  0
 34 35  1  0
 35 36  1  1
 36 37  1  0
 37 38  1  0
 37 39  1  0
 35 40  1  0
 40 41  1  0
 40 42  1  1
 40  5  1  0
 17 12  1  0
 35 18  1  0
 31 26  1  0
 37 33  1  0
  1 43  1  0
  1 44  1  0
  1 45  1  0
  5 46  1  1
  6 47  1  6
  7 48  1  0
  8 49  1  1
 13 50  1  0
 14 51  1  0
 15 52  1  0
 16 53  1  0
 17 54  1  0
 19 55  1  0
 19 56  1  0
 19 57  1  0
 20 58  1  6
 24 59  1  0
 25 60  1  0
 27 61  1  0
 28 62  1  0
 29 63  1  0
 30 64  1  0
 31 65  1  0
 32 66  1  0
 32 67  1  0
 33 68  1  1
 34 69  1  0
 34 70  1  0
 38 71  1  0
 38 72  1  0
 38 73  1  0
 39 74  1  0
 39 75  1  0
 39 76  1  0
 41 77  1  0
 41 78  1  0
 41 79  1  0
 42 80  1  0
M  END
$$$$
