
     RDKit          3D

 71 76  0  0  0  0  0  0  0  0999 V2000
  -10.3185   -2.0487   -0.7916 C   0  0  0  0  0  0  0  0  0  0  0  0
   -9.9011   -0.6791   -1.2360 N   0  0  0  0  0  0  0  0  0  0  0  0
   -8.5540   -0.6553   -1.9508 C   0  0  0  0  0  0  0  0  0  0  0  0
   -7.3737   -0.8306   -0.9742 C   0  0  0  0  0  0  0  0  0  0  0  0
   -7.4701    0.1146    0.1543 N   0  0  0  0  0  0  0  0  0  0  0  0
   -6.2892    0.3747    0.8544 C   0  0  0  0  0  0  0  0  0  0  0  0
   -6.1800    0.2001    2.2412 C   0  0  0  0  0  0  0  0  0  0  0  0
   -4.9812    0.4512    2.9153 C   0  0  0  0  0  0  0  0  0  0  0  0
   -3.8620    0.8924    2.2145 C   0  0  0  0  0  0  0  0  0  0  0  0
   -3.9341    1.0938    0.8354 C   0  0  0  0  0  0  0  0  0  0  0  0
   -2.7889    1.5795    0.0839 C   0  0  0  0  0  0  0  0  0  0  0  0
   -2.7343    2.5132   -0.9703 C   0  0  0  0  0  0  0  0  0  0  0  0
   -1.5065    2.6999   -1.4493 N   0  0  0  0  0  0  0  0  0  0  0  0
   -0.7198    1.8784   -0.6886 N   0  0  0  0  0  0  0  0  0  0  0  0
    0.6875    1.7090   -0.7993 C   0  0  0  0  0  0  0  0  0  0  0  0
    1.3293    2.4640   -1.7606 N   0  0  0  0  0  0  0  0  0  0  0  0
    1.2916    0.8371    0.0386 C   0  0  0  0  0  0  0  0  0  0  0  0
    2.7322    0.5581    0.0426 C   0  0  0  0  0  0  0  0  0  0  0  0
    3.5332    0.9873    1.1047 C   0  0  0  0  0  0  0  0  0  0  0  0
    4.9069    0.7198    1.1052 C   0  0  0  0  0  0  0  0  0  0  0  0
    5.5020    0.0213    0.0471 C   0  0  0  0  0  0  0  0  0  0  0  0
    6.8917   -0.2082    0.1250 N   0  0  0  0  0  0  0  0  0  0  0  0
    7.6935   -0.8189   -0.8233 C   0  0  0  0  0  0  0  0  0  0  0  0
    7.3538   -1.1999   -1.9366 O   0  0  0  0  0  0  0  0  0  0  0  0
    9.1229   -0.9762   -0.4306 C   0  0  0  0  0  0  0  0  0  0  0  0
   10.1050   -0.8436   -1.4191 C   0  0  0  0  0  0  0  0  0  0  0  0
   11.4560   -0.9874   -1.0925 C   0  0  0  0  0  0  0  0  0  0  0  0
   11.8440   -1.2708    0.2260 C   0  0  0  0  0  0  0  0  0  0  0  0
   13.3030   -1.4524    0.5764 C   0  0  0  0  0  0  0  0  0  0  0  0
   13.5929   -1.0588    1.8480 F   0  0  0  0  0  0  0  0  0  0  0  0
   13.6980   -2.7511    0.4861 F   0  0  0  0  0  0  0  0  0  0  0  0
   14.1396   -0.7449   -0.2317 F   0  0  0  0  0  0  0  0  0  0  0  0
   10.8509   -1.4299    1.2067 C   0  0  0  0  0  0  0  0  0  0  0  0
    9.4981   -1.2851    0.8827 C   0  0  0  0  0  0  0  0  0  0  0  0
    4.6980   -0.4102   -1.0086 C   0  0  0  0  0  0  0  0  0  0  0  0
    3.3238   -0.1435   -1.0125 C   0  0  0  0  0  0  0  0  0  0  0  0
    0.3883    0.1393    1.0067 C   0  0  0  0  0  0  0  0  0  0  0  0
   -0.8969    0.2843    1.1223 N   0  0  0  0  0  0  0  0  0  0  0  0
   -1.4766    1.1758    0.2602 C   0  0  0  0  0  0  0  0  0  0  0  0
   -5.1485    0.8385    0.1745 C   0  0  0  0  0  0  0  0  0  0  0  0
   -8.7555    0.1802    0.8662 C   0  0  0  0  0  0  0  0  0  0  0  0
   -9.9274    0.3601   -0.1196 C   0  0  0  0  0  0  0  0  0  0  0  0
   -9.6078   -2.4260   -0.0536 H   0  0  0  0  0  0  0  0  0  0  0  0
  -11.3204   -1.9720   -0.3614 H   0  0  0  0  0  0  0  0  0  0  0  0
  -10.3426   -2.6954   -1.6725 H   0  0  0  0  0  0  0  0  0  0  0  0
  -10.5968   -0.3730   -1.9277 H   0  0  0  0  0  0  0  0  0  0  0  0
   -8.4972    0.3184   -2.4508 H   0  0  0  0  0  0  0  0  0  0  0  0
   -8.5700   -1.4401   -2.7138 H   0  0  0  0  0  0  0  0  0  0  0  0
   -7.3593   -1.8551   -0.5828 H   0  0  0  0  0  0  0  0  0  0  0  0
   -6.4519   -0.6982   -1.5507 H   0  0  0  0  0  0  0  0  0  0  0  0
   -7.0153   -0.1625    2.8323 H   0  0  0  0  0  0  0  0  0  0  0  0
   -4.9162    0.2966    3.9898 H   0  0  0  0  0  0  0  0  0  0  0  0
   -2.9373    1.0820    2.7559 H   0  0  0  0  0  0  0  0  0  0  0  0
   -3.5490    3.0731   -1.4111 H   0  0  0  0  0  0  0  0  0  0  0  0
    0.7614    3.1024   -2.3151 H   0  0  0  0  0  0  0  0  0  0  0  0
    2.3341    2.4287   -1.8783 H   0  0  0  0  0  0  0  0  0  0  0  0
    3.1022    1.5426    1.9353 H   0  0  0  0  0  0  0  0  0  0  0  0
    5.5027    1.0728    1.9435 H   0  0  0  0  0  0  0  0  0  0  0  0
    7.3517    0.1565    0.9487 H   0  0  0  0  0  0  0  0  0  0  0  0
    9.8189   -0.6290   -2.4478 H   0  0  0  0  0  0  0  0  0  0  0  0
   12.2066   -0.8808   -1.8754 H   0  0  0  0  0  0  0  0  0  0  0  0
   11.1319   -1.6791    2.2300 H   0  0  0  0  0  0  0  0  0  0  0  0
    8.7528   -1.4504    1.6563 H   0  0  0  0  0  0  0  0  0  0  0  0
    5.1077   -0.9620   -1.8494 H   0  0  0  0  0  0  0  0  0  0  0  0
    2.7244   -0.4914   -1.8520 H   0  0  0  0  0  0  0  0  0  0  0  0
    0.8886   -0.5749    1.6837 H   0  0  0  0  0  0  0  0  0  0  0  0
   -5.2044    1.0195   -0.8957 H   0  0  0  0  0  0  0  0  0  0  0  0
   -8.7726    1.0336    1.5553 H   0  0  0  0  0  0  0  0  0  0  0  0
   -8.9026   -0.7321    1.4564 H   0  0  0  0  0  0  0  0  0  0  0  0
   -9.8669    1.3353   -0.6164 H   0  0  0  0  0  0  0  0  0  0  0  0
  -10.8968    0.2824    0.3828 H   0  0  0  0  0  0  0  0  0  0  0  0
  1  2  1  0
  2  3  1  0
  3  4  1  0
  4  5  1  0
  5  6  1  0
  6  7  2  0
  7  8  1  0
  8  9  2  0
  9 10  1  0
 10 11  1  0
 11 12  1  0
 12 13  2  0
 13 14  1  0
 14 15  1  0
 15 16  1  0
 15 17  2  0
 17 18  1  0
 18 19  2  0
 19 20  1  0
 20 21  2  0
 21 22  1  0
 22 23  1  0
 23 24  2  0
 23 25  1  0
 25 26  2  0
 26 27  1  0
 27 28  2  0
 28 29  1  0
 29 30  1  0
 29 31  1  0
 29 32  1  0
 28 33  1  0
 33 34  2  0
 21 35  1  0
 35 36  2  0
 17 37  1  0
 37 38  2  0
 38 39  1  0
 10 40  2  0
  5 41  1  0
 41 42  1  0
 42  2  1  0
 40  6  1  0
 39 11  2  0
 39 14  1  0
 36 18  1  0
 34 25  1  0
  1 43  1  0
  1 44  1  0
  1 45  1  0
  2 46  1  0
  3 47  1  0
  3 48  1  0
  4 49  1  0
  4 50  1  0
  7 51  1  0
  8 52  1  0
  9 53  1  0
 12 54  1  0
 16 55  1  0
 16 56  1  0
 19 57  1  0
 20 58  1  0
 22 59  1  0
 26 60  1  0
 27 61  1  0
 33 62  1  0
 34 63  1  0
 35 64  1  0
 36 65  1  0
 37 66  1  0
 40 67  1  0
 41 68  1  0
 41 69  1  0
 42 70  1  0
 42 71  1  0
M  CHG  1   2   1
M  END
$$$$
