
     RDKit          3D

 68 73  0  0  0  0  0  0  0  0999 V2000
   -1.5277    3.4228   -0.6189 C   0  0  0  0  0  0  0  0  0  0  0  0
   -1.6166    2.4369    0.4008 O   0  0  0  0  0  0  0  0  0  0  0  0
   -1.5588    1.1092   -0.1277 C   0  0  1  0  0  0  0  0  0  0  0  0
   -0.2360    0.7965   -0.5762 O   0  0  0  0  0  0  0  0  0  0  0  0
    0.7343    0.8549    0.4816 C   0  0  2  0  0  0  0  0  0  0  0  0
    2.1056    0.5409   -0.1402 C   0  0  0  0  0  0  0  0  0  0  0  0
    3.1184    0.6112    0.8641 O   0  0  0  0  0  0  0  0  0  0  0  0
    4.4048    0.3700    0.4689 C   0  0  0  0  0  0  0  0  0  0  0  0
    4.8200    0.0339   -0.8177 C   0  0  0  0  0  0  0  0  0  0  0  0
    6.1774   -0.1920   -1.0824 C   0  0  0  0  0  0  0  0  0  0  0  0
    7.1463   -0.0861   -0.0720 C   0  0  0  0  0  0  0  0  0  0  0  0
    8.5709   -0.3232   -0.3566 C   0  0  0  0  0  0  0  0  0  0  0  0
    9.5447    0.6334   -0.0238 C   0  0  0  0  0  0  0  0  0  0  0  0
   10.8975    0.4096   -0.2943 C   0  0  0  0  0  0  0  0  0  0  0  0
   11.2999   -0.7769   -0.9020 C   0  0  0  0  0  0  0  0  0  0  0  0
   10.3514   -1.7388   -1.2395 C   0  0  0  0  0  0  0  0  0  0  0  0
    8.9989   -1.5129   -0.9693 C   0  0  0  0  0  0  0  0  0  0  0  0
    6.7114    0.2541    1.2171 C   0  0  0  0  0  0  0  0  0  0  0  0
    5.3568    0.4785    1.4832 C   0  0  0  0  0  0  0  0  0  0  0  0
    0.3869   -0.1273    1.6153 C   0  0  1  0  0  0  0  0  0  0  0  0
    1.2424    0.0108    2.7584 O   0  0  0  0  0  0  0  0  0  0  0  0
   -1.0572    0.0704    2.0977 C   0  0  2  0  0  0  0  0  0  0  0  0
   -1.3676   -1.0073    3.0030 O   0  0  0  0  0  0  0  0  0  0  0  0
   -2.0310    0.0759    0.9170 C   0  0  1  0  0  0  0  0  0  0  0  0
   -3.3506    0.4364    1.3761 O   0  0  0  0  0  0  0  0  0  0  0  0
   -4.3309   -0.4279    0.9714 C   0  0  0  0  0  0  0  0  0  0  0  0
   -4.3120   -1.7876    1.3297 C   0  0  0  0  0  0  0  0  0  0  0  0
   -5.3433   -2.6348    0.9296 C   0  0  0  0  0  0  0  0  0  0  0  0
   -6.3688   -2.0663    0.1964 C   0  0  0  0  0  0  0  0  0  0  0  0
   -6.4373   -0.7034   -0.1512 C   0  0  0  0  0  0  0  0  0  0  0  0
   -5.4004    0.1253    0.2544 C   0  0  0  0  0  0  0  0  0  0  0  0
   -7.6427   -0.3605   -0.9099 C   0  0  0  0  0  0  0  0  0  0  0  0
   -8.0370    0.8752   -1.4045 C   0  0  0  0  0  0  0  0  0  0  0  0
   -9.2462    0.9735   -2.1098 C   0  0  0  0  0  0  0  0  0  0  0  0
  -10.0603   -0.1536   -2.3219 C   0  0  0  0  0  0  0  0  0  0  0  0
   -9.6818   -1.4013   -1.8326 C   0  0  0  0  0  0  0  0  0  0  0  0
   -8.4853   -1.4639   -1.1425 C   0  0  0  0  0  0  0  0  0  0  0  0
   -7.7837   -2.9095   -0.4248 S   0  0  0  0  0  0  0  0  0  0  0  0
   -8.6075   -3.3188    0.6914 O   0  0  0  0  0  0  0  0  0  0  0  0
   -7.3601   -3.7927   -1.4898 O   0  0  0  0  0  0  0  0  0  0  0  0
   -1.5677    4.4080   -0.1464 H   0  0  0  0  0  0  0  0  0  0  0  0
   -2.3709    3.3362   -1.3109 H   0  0  0  0  0  0  0  0  0  0  0  0
   -0.5823    3.3376   -1.1628 H   0  0  0  0  0  0  0  0  0  0  0  0
   -2.2319    1.0469   -0.9918 H   0  0  0  0  0  0  0  0  0  0  0  0
    0.7861    1.8730    0.8896 H   0  0  0  0  0  0  0  0  0  0  0  0
    2.3055    1.2697   -0.9362 H   0  0  0  0  0  0  0  0  0  0  0  0
    2.0774   -0.4614   -0.5872 H   0  0  0  0  0  0  0  0  0  0  0  0
    4.1220   -0.0601   -1.6428 H   0  0  0  0  0  0  0  0  0  0  0  0
    6.4782   -0.4421   -2.0985 H   0  0  0  0  0  0  0  0  0  0  0  0
    9.2513    1.5722    0.4418 H   0  0  0  0  0  0  0  0  0  0  0  0
   11.6347    1.1637   -0.0317 H   0  0  0  0  0  0  0  0  0  0  0  0
   12.3518   -0.9519   -1.1118 H   0  0  0  0  0  0  0  0  0  0  0  0
   10.6624   -2.6676   -1.7105 H   0  0  0  0  0  0  0  0  0  0  0  0
    8.2763   -2.2835   -1.2305 H   0  0  0  0  0  0  0  0  0  0  0  0
    7.4276    0.3363    2.0324 H   0  0  0  0  0  0  0  0  0  0  0  0
    5.0487    0.7398    2.4927 H   0  0  0  0  0  0  0  0  0  0  0  0
    0.4986   -1.1600    1.2606 H   0  0  0  0  0  0  0  0  0  0  0  0
    2.1631    0.0552    2.4292 H   0  0  0  0  0  0  0  0  0  0  0  0
   -1.1535    0.9916    2.6854 H   0  0  0  0  0  0  0  0  0  0  0  0
   -0.6554   -0.9795    3.6735 H   0  0  0  0  0  0  0  0  0  0  0  0
   -2.0133   -0.9203    0.4523 H   0  0  0  0  0  0  0  0  0  0  0  0
   -3.5006   -2.1800    1.9395 H   0  0  0  0  0  0  0  0  0  0  0  0
   -5.3477   -3.6871    1.1929 H   0  0  0  0  0  0  0  0  0  0  0  0
   -5.4014    1.1875    0.0311 H   0  0  0  0  0  0  0  0  0  0  0  0
   -7.4319    1.7644   -1.2542 H   0  0  0  0  0  0  0  0  0  0  0  0
   -9.5623    1.9399   -2.4989 H   0  0  0  0  0  0  0  0  0  0  0  0
  -10.9935   -0.0472   -2.8714 H   0  0  0  0  0  0  0  0  0  0  0  0
  -10.2960   -2.2825   -1.9839 H   0  0  0  0  0  0  0  0  0  0  0  0
  1  2  1  0
  2  3  1  0
  3  4  1  0
  4  5  1  0
  5  6  1  0
  6  7  1  0
  7  8  1  0
  8  9  2  0
  9 10  1  0
 10 11  2  0
 11 12  1  0
 12 13  2  0
 13 14  1  0
 14 15  2  0
 15 16  1  0
 16 17  2  0
 11 18  1  0
 18 19  2  0
  5 20  1  0
 20 21  1  0
 20 22  1  0
 22 23  1  0
 22 24  1  0
 24 25  1  0
 25 26  1  0
 26 27  2  0
 27 28  1  0
 28 29  2  0
 29 30  1  0
 30 31  2  0
 30 32  1  0
 32 33  2  0
 33 34  1  0
 34 35  2  0
 35 36  1  0
 36 37  2  0
 37 38  1  0
 38 39  2  0
 38 40  2  0
 24  3  1  0
 31 26  1  0
 37 32  1  0
 19  8  1  0
 38 29  1  0
 17 12  1  0
  1 41  1  0
  1 42  1  0
  1 43  1  0
  3 44  1  6
  5 45  1  1
  6 46  1  0
  6 47  1  0
  9 48  1  0
 10 49  1  0
 13 50  1  0
 14 51  1  0
 15 52  1  0
 16 53  1  0
 17 54  1  0
 18 55  1  0
 19 56  1  0
 20 57  1  6
 21 58  1  0
 22 59  1  1
 23 60  1  0
 24 61  1  6
 27 62  1  0
 28 63  1  0
 31 64  1  0
 33 65  1  0
 34 66  1  0
 35 67  1  0
 36 68  1  0
M  END
$$$$
