
     RDKit          3D

 77 82  0  0  0  0  0  0  0  0999 V2000
   10.9092    2.3340    2.8200 C   0  0  0  0  0  0  0  0  0  0  0  0
   10.0187    1.5942    1.8841 N   0  0  0  0  0  0  0  0  0  0  0  0
    9.8407    0.1214    2.2266 C   0  0  0  0  0  0  0  0  0  0  0  0
    8.6143   -0.4302    1.4576 C   0  0  0  0  0  0  0  0  0  0  0  0
    8.4030    0.3152    0.2003 N   0  0  0  0  0  0  0  0  0  0  0  0
    7.1760    0.2862   -0.4445 C   0  0  0  0  0  0  0  0  0  0  0  0
    6.8060    1.2735   -1.3701 C   0  0  0  0  0  0  0  0  0  0  0  0
    5.5547    1.2670   -2.0065 C   0  0  0  0  0  0  0  0  0  0  0  0
    4.6183    0.2688   -1.7312 C   0  0  0  0  0  0  0  0  0  0  0  0
    3.3261    0.2706   -2.3974 C   0  0  0  0  0  0  0  0  0  0  0  0
    2.9891    0.6740   -3.7061 C   0  0  0  0  0  0  0  0  0  0  0  0
    1.6909    0.5619   -3.9777 N   0  0  0  0  0  0  0  0  0  0  0  0
    1.1463    0.0729   -2.8231 N   0  0  0  0  0  0  0  0  0  0  0  0
   -0.2270   -0.2134   -2.5892 C   0  0  0  0  0  0  0  0  0  0  0  0
   -1.0959    0.0333   -3.6341 N   0  0  0  0  0  0  0  0  0  0  0  0
   -0.5822   -0.6837   -1.3725 C   0  0  0  0  0  0  0  0  0  0  0  0
   -1.9565   -1.0209   -0.9794 C   0  0  0  0  0  0  0  0  0  0  0  0
   -2.5986   -0.2951    0.0283 C   0  0  0  0  0  0  0  0  0  0  0  0
   -3.9042   -0.6185    0.4184 C   0  0  0  0  0  0  0  0  0  0  0  0
   -4.5880   -1.6716   -0.1902 C   0  0  0  0  0  0  0  0  0  0  0  0
   -5.9021   -2.0579    0.1441 N   0  0  0  0  0  0  0  0  0  0  0  0
   -6.7204   -1.5100    1.1208 C   0  0  0  0  0  0  0  0  0  0  0  0
   -6.4212   -0.6090    1.8953 O   0  0  0  0  0  0  0  0  0  0  0  0
   -8.0778   -2.2001    1.1612 C   0  0  0  0  0  0  0  0  0  0  0  0
   -9.1206   -1.4622    2.0017 C   0  0  0  0  0  0  0  0  0  0  0  0
   -9.5979   -0.1460    1.3794 C   0  0  0  0  0  0  0  0  0  0  0  0
  -10.3252   -0.3050    0.0443 C   0  0  0  0  0  0  0  0  0  0  0  0
  -11.1639    0.9637   -0.1013 C   0  0  0  0  0  0  0  0  0  0  0  0
  -11.2507    1.5851    1.2918 C   0  0  0  0  0  0  0  0  0  0  0  0
  -10.6486    0.5560    2.2382 C   0  0  0  0  0  0  0  0  0  0  0  0
   -3.9450   -2.3966   -1.2009 C   0  0  0  0  0  0  0  0  0  0  0  0
   -2.6400   -2.0767   -1.5917 C   0  0  0  0  0  0  0  0  0  0  0  0
    0.5383   -0.8412   -0.3915 C   0  0  0  0  0  0  0  0  0  0  0  0
    1.7958   -0.5839   -0.5879 N   0  0  0  0  0  0  0  0  0  0  0  0
    2.1214   -0.1161   -1.8332 C   0  0  0  0  0  0  0  0  0  0  0  0
    4.9686   -0.7223   -0.8147 C   0  0  0  0  0  0  0  0  0  0  0  0
    6.2214   -0.7079   -0.1833 C   0  0  0  0  0  0  0  0  0  0  0  0
    9.6177    0.7867   -0.4846 C   0  0  0  0  0  0  0  0  0  0  0  0
   10.3926    1.7784    0.4145 C   0  0  0  0  0  0  0  0  0  0  0  0
   11.9093    1.8959    2.7692 H   0  0  0  0  0  0  0  0  0  0  0  0
   10.9263    3.3837    2.5158 H   0  0  0  0  0  0  0  0  0  0  0  0
   10.4947    2.2441    3.8273 H   0  0  0  0  0  0  0  0  0  0  0  0
    9.0664    1.9876    1.9464 H   0  0  0  0  0  0  0  0  0  0  0  0
   10.7666   -0.3888    1.9395 H   0  0  0  0  0  0  0  0  0  0  0  0
    9.6939    0.0338    3.3079 H   0  0  0  0  0  0  0  0  0  0  0  0
    7.7397   -0.3084    2.1091 H   0  0  0  0  0  0  0  0  0  0  0  0
    8.7497   -1.5002    1.2631 H   0  0  0  0  0  0  0  0  0  0  0  0
    7.4670    2.1032   -1.6011 H   0  0  0  0  0  0  0  0  0  0  0  0
    5.3191    2.0702   -2.7016 H   0  0  0  0  0  0  0  0  0  0  0  0
    3.6460    1.0455   -4.4822 H   0  0  0  0  0  0  0  0  0  0  0  0
   -0.7007    0.4296   -4.4859 H   0  0  0  0  0  0  0  0  0  0  0  0
   -2.0976   -0.0495   -3.5190 H   0  0  0  0  0  0  0  0  0  0  0  0
   -2.1000    0.5387    0.5190 H   0  0  0  0  0  0  0  0  0  0  0  0
   -4.3591   -0.0193    1.2015 H   0  0  0  0  0  0  0  0  0  0  0  0
   -6.2879   -2.8282   -0.3877 H   0  0  0  0  0  0  0  0  0  0  0  0
   -8.4433   -2.3512    0.1396 H   0  0  0  0  0  0  0  0  0  0  0  0
   -7.9140   -3.1939    1.5964 H   0  0  0  0  0  0  0  0  0  0  0  0
   -8.7163   -1.2619    3.0017 H   0  0  0  0  0  0  0  0  0  0  0  0
   -9.9808   -2.1290    2.1439 H   0  0  0  0  0  0  0  0  0  0  0  0
   -8.7464    0.5331    1.2427 H   0  0  0  0  0  0  0  0  0  0  0  0
  -10.9853   -1.1809    0.0623 H   0  0  0  0  0  0  0  0  0  0  0  0
   -9.6330   -0.4271   -0.7947 H   0  0  0  0  0  0  0  0  0  0  0  0
  -10.6933    1.6655   -0.7987 H   0  0  0  0  0  0  0  0  0  0  0  0
  -12.1574    0.7270   -0.4968 H   0  0  0  0  0  0  0  0  0  0  0  0
  -10.6623    2.5099    1.3196 H   0  0  0  0  0  0  0  0  0  0  0  0
  -12.2789    1.8401    1.5664 H   0  0  0  0  0  0  0  0  0  0  0  0
  -10.2158    1.0221    3.1287 H   0  0  0  0  0  0  0  0  0  0  0  0
  -11.4230   -0.1487    2.5654 H   0  0  0  0  0  0  0  0  0  0  0  0
   -4.4462   -3.2232   -1.6986 H   0  0  0  0  0  0  0  0  0  0  0  0
   -2.1633   -2.6604   -2.3772 H   0  0  0  0  0  0  0  0  0  0  0  0
    0.2421   -1.2242    0.6006 H   0  0  0  0  0  0  0  0  0  0  0  0
    4.2735   -1.5263   -0.5795 H   0  0  0  0  0  0  0  0  0  0  0  0
    6.4278   -1.5210    0.5068 H   0  0  0  0  0  0  0  0  0  0  0  0
   10.2549   -0.0846   -0.6853 H   0  0  0  0  0  0  0  0  0  0  0  0
    9.4381    1.2468   -1.4614 H   0  0  0  0  0  0  0  0  0  0  0  0
   11.4742    1.6380    0.3153 H   0  0  0  0  0  0  0  0  0  0  0  0
   10.1322    2.8126    0.1658 H   0  0  0  0  0  0  0  0  0  0  0  0
  1  2  1  0
  2  3  1  0
  3  4  1  0
  4  5  1  0
  5  6  1  0
  6  7  2  0
  7  8  1  0
  8  9  2  0
  9 10  1  0
 10 11  1  0
 11 12  2  0
 12 13  1  0
 13 14  1  0
 14 15  1  0
 14 16  2  0
 16 17  1  0
 17 18  2  0
 18 19  1  0
 19 20  2  0
 20 21  1  0
 21 22  1  0
 22 23  2  0
 22 24  1  0
 24 25  1  0
 25 26  1  0
 26 27  1  0
 27 28  1  0
 28 29  1  0
 29 30  1  0
 20 31  1  0
 31 32  2  0
 16 33  1  0
 33 34  2  0
 34 35  1  0
  9 36  1  0
 36 37  2  0
  5 38  1  0
 38 39  1  0
 39  2  1  0
 37  6  1  0
 35 10  2  0
 35 13  1  0
 32 17  1  0
 30 26  1  0
  1 40  1  0
  1 41  1  0
  1 42  1  0
  2 43  1  0
  3 44  1  0
  3 45  1  0
  4 46  1  0
  4 47  1  0
  7 48  1  0
  8 49  1  0
 11 50  1  0
 15 51  1  0
 15 52  1  0
 18 53  1  0
 19 54  1  0
 21 55  1  0
 24 56  1  0
 24 57  1  0
 25 58  1  0
 25 59  1  0
 26 60  1  0
 27 61  1  0
 27 62  1  0
 28 63  1  0
 28 64  1  0
 29 65  1  0
 29 66  1  0
 30 67  1  0
 30 68  1  0
 31 69  1  0
 32 70  1  0
 33 71  1  0
 36 72  1  0
 37 73  1  0
 38 74  1  0
 38 75  1  0
 39 76  1  0
 39 77  1  0
M  CHG  1   2   1
M  END
$$$$
