
     RDKit          3D

 71 74  0  0  0  0  0  0  0  0999 V2000
   -1.7553   -0.4254   -1.1141 C   0  0  0  0  0  0  0  0  0  0  0  0
   -0.9477   -0.4973    0.1025 N   0  0  0  0  0  0  0  0  0  0  0  0
   -1.4063   -0.9927    1.3367 C   0  0  0  0  0  0  0  0  0  0  0  0
   -0.6473   -1.0279    2.3159 O   0  0  0  0  0  0  0  0  0  0  0  0
   -2.8722   -1.5225    1.5008 C   0  0  0  0  0  0  0  0  0  0  0  0
   -3.0273   -2.0712    2.9474 C   0  0  0  0  0  0  0  0  0  0  0  0
   -3.0822   -2.7354    0.5680 C   0  0  0  0  0  0  0  0  0  0  0  0
   -3.9172   -0.3982    1.3702 C   0  0  0  0  0  0  0  0  0  0  0  0
   -3.6594    0.8739    1.9180 C   0  0  0  0  0  0  0  0  0  0  0  0
   -4.5875    1.9246    1.8213 C   0  0  0  0  0  0  0  0  0  0  0  0
   -4.2683    3.2731    2.4255 C   0  0  0  0  0  0  0  0  0  0  0  0
   -5.0062    4.2872    1.8975 F   0  0  0  0  0  0  0  0  0  0  0  0
   -2.9646    3.6274    2.2391 F   0  0  0  0  0  0  0  0  0  0  0  0
   -4.4787    3.3052    3.7678 F   0  0  0  0  0  0  0  0  0  0  0  0
   -5.8152    1.6883    1.1886 C   0  0  0  0  0  0  0  0  0  0  0  0
   -6.1130    0.4291    0.6478 C   0  0  0  0  0  0  0  0  0  0  0  0
   -7.4497    0.1652   -0.0103 C   0  0  0  0  0  0  0  0  0  0  0  0
   -8.0559    1.2970   -0.4615 F   0  0  0  0  0  0  0  0  0  0  0  0
   -8.3328   -0.4306    0.8338 F   0  0  0  0  0  0  0  0  0  0  0  0
   -7.3437   -0.6571   -1.0911 F   0  0  0  0  0  0  0  0  0  0  0  0
   -5.1642   -0.6044    0.7554 C   0  0  0  0  0  0  0  0  0  0  0  0
    0.4082   -0.0054    0.0112 C   0  0  0  0  0  0  0  0  0  0  0  0
    0.9111    0.8279    1.0215 C   0  0  0  0  0  0  0  0  0  0  0  0
    2.1611    1.3570    1.0578 N   0  0  0  0  0  0  0  0  0  0  0  0
    2.9651    1.0317    0.0487 C   0  0  0  0  0  0  0  0  0  0  0  0
    4.2895    1.5528    0.2055 N   0  0  0  0  0  0  0  0  0  0  0  0
    4.7440    2.5075   -0.8395 C   0  0  0  0  0  0  0  0  0  0  0  0
    6.2586    2.4085   -0.7641 C   0  0  0  0  0  0  0  0  0  0  0  0
    6.4846    0.9244   -0.5201 C   0  0  2  0  0  0  0  0  0  0  0  0
    6.2971    0.2428   -1.7657 O   0  0  0  0  0  0  0  0  0  0  0  0
    5.3606    0.4998    0.4501 C   0  0  1  0  0  0  0  0  0  0  0  0
    5.7569    0.5802    1.9342 C   0  0  0  0  0  0  0  0  0  0  0  0
    5.7895    1.9512    2.3387 O   0  0  0  0  0  0  0  0  0  0  0  0
    2.5939    0.2283   -1.0154 C   0  0  0  0  0  0  0  0  0  0  0  0
    1.2925   -0.3120   -1.0497 C   0  0  0  0  0  0  0  0  0  0  0  0
    0.9914   -1.2654   -2.1353 C   0  0  0  0  0  0  0  0  0  0  0  0
    0.7469   -0.7800   -3.4347 C   0  0  0  0  0  0  0  0  0  0  0  0
    0.4638   -1.6530   -4.4878 C   0  0  0  0  0  0  0  0  0  0  0  0
    0.4303   -3.0269   -4.2658 C   0  0  0  0  0  0  0  0  0  0  0  0
    0.6863   -3.5320   -2.9922 C   0  0  0  0  0  0  0  0  0  0  0  0
    0.9698   -2.6614   -1.9357 C   0  0  0  0  0  0  0  0  0  0  0  0
    1.3169   -3.3626   -0.3924 Cl  0  0  0  0  0  0  0  0  0  0  0  0
   -2.7948   -0.1988   -0.8881 H   0  0  0  0  0  0  0  0  0  0  0  0
   -1.7161   -1.3831   -1.6372 H   0  0  0  0  0  0  0  0  0  0  0  0
   -1.3993    0.3797   -1.7648 H   0  0  0  0  0  0  0  0  0  0  0  0
   -2.3269   -2.8939    3.1361 H   0  0  0  0  0  0  0  0  0  0  0  0
   -4.0409   -2.4504    3.1267 H   0  0  0  0  0  0  0  0  0  0  0  0
   -2.8317   -1.3000    3.7025 H   0  0  0  0  0  0  0  0  0  0  0  0
   -3.9381   -3.3436    0.8853 H   0  0  0  0  0  0  0  0  0  0  0  0
   -2.2018   -3.3889    0.5694 H   0  0  0  0  0  0  0  0  0  0  0  0
   -3.2777   -2.4505   -0.4684 H   0  0  0  0  0  0  0  0  0  0  0  0
   -2.7227    1.0607    2.4466 H   0  0  0  0  0  0  0  0  0  0  0  0
   -6.5519    2.4914    1.1221 H   0  0  0  0  0  0  0  0  0  0  0  0
   -5.4285   -1.5822    0.3526 H   0  0  0  0  0  0  0  0  0  0  0  0
    0.2882    1.1288    1.8629 H   0  0  0  0  0  0  0  0  0  0  0  0
    4.2210    2.0847    1.0918 H   0  0  0  0  0  0  0  0  0  0  0  0
    4.3662    3.5063   -0.6008 H   0  0  0  0  0  0  0  0  0  0  0  0
    4.3747    2.1872   -1.8200 H   0  0  0  0  0  0  0  0  0  0  0  0
    6.7205    2.7654   -1.6898 H   0  0  0  0  0  0  0  0  0  0  0  0
    6.6412    3.0061    0.0702 H   0  0  0  0  0  0  0  0  0  0  0  0
    7.4855    0.6914   -0.1452 H   0  0  0  0  0  0  0  0  0  0  0  0
    7.1242    0.3227   -2.2814 H   0  0  0  0  0  0  0  0  0  0  0  0
    4.9830   -0.4991    0.2006 H   0  0  0  0  0  0  0  0  0  0  0  0
    6.7343    0.1227    2.1141 H   0  0  0  0  0  0  0  0  0  0  0  0
    5.0076    0.0713    2.5494 H   0  0  0  0  0  0  0  0  0  0  0  0
    6.0427    1.9654    3.2848 H   0  0  0  0  0  0  0  0  0  0  0  0
    3.3097   -0.0282   -1.7921 H   0  0  0  0  0  0  0  0  0  0  0  0
    0.7613    0.2900   -3.6363 H   0  0  0  0  0  0  0  0  0  0  0  0
    0.2679   -1.2614   -5.4844 H   0  0  0  0  0  0  0  0  0  0  0  0
    0.2102   -3.7070   -5.0864 H   0  0  0  0  0  0  0  0  0  0  0  0
    0.6685   -4.6079   -2.8312 H   0  0  0  0  0  0  0  0  0  0  0  0
  1  2  1  0
  2  3  1  0
  3  4  2  0
  3  5  1  0
  5  6  1  0
  5  7  1  0
  5  8  1  0
  8  9  2  0
  9 10  1  0
 10 11  1  0
 11 12  1  0
 11 13  1  0
 11 14  1  0
 10 15  2  0
 15 16  1  0
 16 17  1  0
 17 18  1  0
 17 19  1  0
 17 20  1  0
 16 21  2  0
  2 22  1  0
 22 23  2  0
 23 24  1  0
 24 25  2  0
 25 26  1  0
 26 27  1  0
 27 28  1  0
 28 29  1  0
 29 30  1  0
 29 31  1  0
 31 32  1  0
 32 33  1  0
 25 34  1  0
 34 35  2  0
 35 36  1  0
 36 37  2  0
 37 38  1  0
 38 39  2  0
 39 40  1  0
 40 41  2  0
 41 42  1  0
 21  8  1  0
 35 22  1  0
 41 36  1  0
 31 26  1  0
  1 43  1  0
  1 44  1  0
  1 45  1  0
  6 46  1  0
  6 47  1  0
  6 48  1  0
  7 49  1  0
  7 50  1  0
  7 51  1  0
  9 52  1  0
 15 53  1  0
 21 54  1  0
 23 55  1  0
 26 56  1  0
 27 57  1  0
 27 58  1  0
 28 59  1  0
 28 60  1  0
 29 61  1  1
 30 62  1  0
 31 63  1  6
 32 64  1  0
 32 65  1  0
 33 66  1  0
 34 67  1  0
 37 68  1  0
 38 69  1  0
 39 70  1  0
 40 71  1  0
M  CHG  1  26   1
M  END
$$$$
