
     RDKit          3D

 55 59  0  0  0  0  0  0  0  0999 V2000
    3.9490    2.6559    1.2018 C   0  0  0  0  0  0  0  0  0  0  0  0
    3.9650    1.2122    0.7866 C   0  0  0  0  0  0  0  0  0  0  0  0
    2.7324    0.5558    0.5613 C   0  0  0  0  0  0  0  0  0  0  0  0
    2.6827   -0.7857    0.1744 C   0  0  0  0  0  0  0  0  0  0  0  0
    1.4920   -1.5098   -0.0492 N   0  0  0  0  0  0  0  0  0  0  0  0
    0.1853   -1.0499   -0.0096 C   0  0  0  0  0  0  0  0  0  0  0  0
   -0.1606    0.1146    0.1364 O   0  0  0  0  0  0  0  0  0  0  0  0
   -0.6951   -2.1198   -0.1505 N   0  0  0  0  0  0  0  0  0  0  0  0
   -2.0982   -2.0699   -0.2874 C   0  0  0  0  0  0  0  0  0  0  0  0
   -2.8227   -0.8889   -0.4846 C   0  0  0  0  0  0  0  0  0  0  0  0
   -4.2243   -0.8711   -0.6105 C   0  0  0  0  0  0  0  0  0  0  0  0
   -4.9071    0.3253   -0.8008 N   0  0  0  0  0  0  0  0  0  0  0  0
   -6.2824    0.3482   -1.3208 C   0  0  0  0  0  0  0  0  0  0  0  0
   -6.6142    1.7283   -1.9079 C   0  0  0  0  0  0  0  0  0  0  0  0
   -6.3874    2.7779   -0.9564 O   0  0  0  0  0  0  0  0  0  0  0  0
   -4.9990    2.7951   -0.5818 C   0  0  0  0  0  0  0  0  0  0  0  0
   -4.5681    1.4725    0.0710 C   0  0  0  0  0  0  0  0  0  0  0  0
   -4.8793   -2.1089   -0.5617 C   0  0  0  0  0  0  0  0  0  0  0  0
   -4.1816   -3.3150   -0.3731 C   0  0  0  0  0  0  0  0  0  0  0  0
   -4.9291   -4.6209   -0.3434 C   0  0  0  0  0  0  0  0  0  0  0  0
   -6.1317   -4.5349    0.2930 F   0  0  0  0  0  0  0  0  0  0  0  0
   -4.2501   -5.6207    0.2869 F   0  0  0  0  0  0  0  0  0  0  0  0
   -5.2048   -5.0903   -1.5922 F   0  0  0  0  0  0  0  0  0  0  0  0
   -2.7873   -3.2829   -0.2442 C   0  0  0  0  0  0  0  0  0  0  0  0
    3.8807   -1.4861    0.0091 C   0  0  0  0  0  0  0  0  0  0  0  0
    5.1040   -0.8536    0.2283 C   0  0  0  0  0  0  0  0  0  0  0  0
    5.1597    0.4907    0.6182 C   0  0  0  0  0  0  0  0  0  0  0  0
    6.6213    1.1025    0.8493 C   0  0  0  0  0  0  0  0  0  0  0  0
    7.7818    0.3539    0.6773 N   0  0  0  0  0  0  0  0  0  0  0  0
    8.7603    1.2146    0.9669 C   0  0  0  0  0  0  0  0  0  0  0  0
   10.0910    1.1263    0.9982 N   0  0  0  0  0  0  0  0  0  0  0  0
   10.4850    2.4306    1.3954 N   0  0  0  0  0  0  0  0  0  0  0  0
    9.3137    3.1459    1.5554 C   0  0  0  0  0  0  0  0  0  0  0  0
    8.2424    2.3783    1.2856 C   0  0  0  0  0  0  0  0  0  0  0  0
    6.9076    2.4041    1.2397 N   0  0  0  0  0  0  0  0  0  0  0  0
    4.3974    2.7788    2.1923 H   0  0  0  0  0  0  0  0  0  0  0  0
    4.4654    3.2769    0.4636 H   0  0  0  0  0  0  0  0  0  0  0  0
    2.9241    3.0380    1.2710 H   0  0  0  0  0  0  0  0  0  0  0  0
    1.8196    1.1246    0.7037 H   0  0  0  0  0  0  0  0  0  0  0  0
    1.6315   -2.4682   -0.3229 H   0  0  0  0  0  0  0  0  0  0  0  0
   -0.2822   -3.0336   -0.0544 H   0  0  0  0  0  0  0  0  0  0  0  0
   -2.2867    0.0490   -0.5890 H   0  0  0  0  0  0  0  0  0  0  0  0
   -6.9766    0.1232   -0.5020 H   0  0  0  0  0  0  0  0  0  0  0  0
   -6.4194   -0.3966   -2.1134 H   0  0  0  0  0  0  0  0  0  0  0  0
   -6.0191    1.9260   -2.8078 H   0  0  0  0  0  0  0  0  0  0  0  0
   -7.6700    1.7633   -2.1950 H   0  0  0  0  0  0  0  0  0  0  0  0
   -4.3927    3.0096   -1.4702 H   0  0  0  0  0  0  0  0  0  0  0  0
   -4.8576    3.6198    0.1239 H   0  0  0  0  0  0  0  0  0  0  0  0
   -3.5006    1.5408    0.2993 H   0  0  0  0  0  0  0  0  0  0  0  0
   -5.1034    1.3462    1.0205 H   0  0  0  0  0  0  0  0  0  0  0  0
   -5.9626   -2.1546   -0.6479 H   0  0  0  0  0  0  0  0  0  0  0  0
   -2.2448   -4.2157   -0.1027 H   0  0  0  0  0  0  0  0  0  0  0  0
    3.8978   -2.5289   -0.2885 H   0  0  0  0  0  0  0  0  0  0  0  0
    6.0367   -1.4021    0.1006 H   0  0  0  0  0  0  0  0  0  0  0  0
    9.3122    4.1792    1.8586 H   0  0  0  0  0  0  0  0  0  0  0  0
  1  2  1  0
  2  3  2  0
  3  4  1  0
  4  5  1  0
  5  6  1  0
  6  7  2  0
  6  8  1  0
  8  9  1  0
  9 10  2  0
 10 11  1  0
 11 12  1  0
 12 13  1  0
 13 14  1  0
 14 15  1  0
 15 16  1  0
 16 17  1  0
 11 18  2  0
 18 19  1  0
 19 20  1  0
 20 21  1  0
 20 22  1  0
 20 23  1  0
 19 24  2  0
  4 25  2  0
 25 26  1  0
 26 27  2  0
 27 28  1  0
 28 29  2  0
 29 30  1  0
 30 31  1  0
 31 32  1  0
 32 33  2  0
 33 34  1  0
 34 35  1  0
 27  2  1  0
 35 28  1  0
 24  9  1  0
 34 30  2  0
 17 12  1  0
  1 36  1  0
  1 37  1  0
  1 38  1  0
  3 39  1  0
  5 40  1  0
  8 41  1  0
 10 42  1  0
 13 43  1  0
 13 44  1  0
 14 45  1  0
 14 46  1  0
 16 47  1  0
 16 48  1  0
 17 49  1  0
 17 50  1  0
 18 51  1  0
 24 52  1  0
 25 53  1  0
 26 54  1  0
 33 55  1  0
M  CHG  2  31  -1  35  -1
M  END
$$$$
