
     RDKit          3D

 63 67  0  0  0  0  0  0  0  0999 V2000
   10.3551    0.5807    1.2485 C   0  0  0  0  0  0  0  0  0  0  0  0
    8.9931    0.1230    0.8663 N   0  0  0  0  0  0  0  0  0  0  0  0
    8.1274   -0.1913    2.0207 C   0  0  0  0  0  0  0  0  0  0  0  0
    8.2888    1.2826   -0.1474 S   0  0  0  0  0  0  0  0  0  0  0  0
    8.3038    2.4891    0.6423 O   0  0  0  0  0  0  0  0  0  0  0  0
    9.0672    1.1193   -1.3509 O   0  0  0  0  0  0  0  0  0  0  0  0
    6.6172    0.8278   -0.5054 C   0  0  0  0  0  0  0  0  0  0  0  0
    6.3602   -0.1391   -1.4828 C   0  0  0  0  0  0  0  0  0  0  0  0
    5.0411   -0.5264   -1.7347 C   0  0  0  0  0  0  0  0  0  0  0  0
    3.9802    0.0459   -1.0179 C   0  0  0  0  0  0  0  0  0  0  0  0
    2.6158   -0.3763   -1.2758 C   0  0  0  0  0  0  0  0  0  0  0  0
    1.9702   -0.6667   -2.4915 C   0  0  0  0  0  0  0  0  0  0  0  0
    0.7042   -1.0433   -2.3361 N   0  0  0  0  0  0  0  0  0  0  0  0
    0.4850   -0.9922   -0.9921 N   0  0  0  0  0  0  0  0  0  0  0  0
   -0.7020   -1.2715   -0.2856 C   0  0  0  0  0  0  0  0  0  0  0  0
   -1.9547   -1.6679   -0.9653 C   0  0  0  0  0  0  0  0  0  0  0  0
   -1.9725   -2.7309   -1.8759 C   0  0  0  0  0  0  0  0  0  0  0  0
   -3.1600   -3.1003   -2.5071 C   0  0  0  0  0  0  0  0  0  0  0  0
   -4.3434   -2.4147   -2.2288 C   0  0  0  0  0  0  0  0  0  0  0  0
   -4.3528   -1.3535   -1.3176 C   0  0  0  0  0  0  0  0  0  0  0  0
   -5.5873   -0.7102   -1.0845 N   0  0  0  0  0  0  0  0  0  0  0  0
   -5.8519    0.2755   -0.1503 C   0  0  0  0  0  0  0  0  0  0  0  0
   -5.0865    0.6926    0.7112 O   0  0  0  0  0  0  0  0  0  0  0  0
   -7.2362    0.8275   -0.1897 C   0  0  0  0  0  0  0  0  0  0  0  0
   -7.9267    1.0028   -1.3952 C   0  0  0  0  0  0  0  0  0  0  0  0
   -9.2214    1.5242   -1.3869 C   0  0  0  0  0  0  0  0  0  0  0  0
   -9.8258    1.8825   -0.1802 C   0  0  0  0  0  0  0  0  0  0  0  0
   -9.1376    1.7395    1.0345 C   0  0  0  0  0  0  0  0  0  0  0  0
   -9.7883    2.1170    2.3435 C   0  0  0  0  0  0  0  0  0  0  0  0
  -10.3300    1.0403    2.9758 F   0  0  0  0  0  0  0  0  0  0  0  0
  -10.8001    3.0172    2.2006 F   0  0  0  0  0  0  0  0  0  0  0  0
   -8.9164    2.6736    3.2286 F   0  0  0  0  0  0  0  0  0  0  0  0
   -7.8384    1.2063    1.0180 C   0  0  0  0  0  0  0  0  0  0  0  0
   -3.1545   -0.9814   -0.7019 C   0  0  0  0  0  0  0  0  0  0  0  0
   -0.6948   -1.1820    1.0583 C   0  0  0  0  0  0  0  0  0  0  0  0
    0.5901   -0.7841    1.6826 C   0  0  0  0  0  0  0  0  0  0  0  0
    1.6983   -0.5152    1.0623 N   0  0  0  0  0  0  0  0  0  0  0  0
    1.6546   -0.6059   -0.3066 C   0  0  0  0  0  0  0  0  0  0  0  0
    4.2571    1.0381   -0.0658 C   0  0  0  0  0  0  0  0  0  0  0  0
    5.5701    1.4376    0.1894 C   0  0  0  0  0  0  0  0  0  0  0  0
   10.2852    1.4632    1.8913 H   0  0  0  0  0  0  0  0  0  0  0  0
   10.8342   -0.2357    1.7973 H   0  0  0  0  0  0  0  0  0  0  0  0
   10.9420    0.7893    0.3495 H   0  0  0  0  0  0  0  0  0  0  0  0
    9.0869   -0.6748    0.2372 H   0  0  0  0  0  0  0  0  0  0  0  0
    8.6583   -0.9101    2.6522 H   0  0  0  0  0  0  0  0  0  0  0  0
    7.2069   -0.6615    1.6671 H   0  0  0  0  0  0  0  0  0  0  0  0
    7.9191    0.7182    2.5916 H   0  0  0  0  0  0  0  0  0  0  0  0
    7.1606   -0.5939   -2.0637 H   0  0  0  0  0  0  0  0  0  0  0  0
    4.8466   -1.2876   -2.4897 H   0  0  0  0  0  0  0  0  0  0  0  0
    2.3712   -0.6144   -3.4960 H   0  0  0  0  0  0  0  0  0  0  0  0
   -1.0607   -3.2767   -2.1100 H   0  0  0  0  0  0  0  0  0  0  0  0
   -3.1620   -3.9228   -3.2182 H   0  0  0  0  0  0  0  0  0  0  0  0
   -5.2543   -2.7270   -2.7330 H   0  0  0  0  0  0  0  0  0  0  0  0
   -6.3689   -1.0520   -1.6289 H   0  0  0  0  0  0  0  0  0  0  0  0
   -7.4629    0.7678   -2.3497 H   0  0  0  0  0  0  0  0  0  0  0  0
   -9.7590    1.6628   -2.3230 H   0  0  0  0  0  0  0  0  0  0  0  0
  -10.8375    2.2881   -0.1915 H   0  0  0  0  0  0  0  0  0  0  0  0
   -7.2906    1.0854    1.9533 H   0  0  0  0  0  0  0  0  0  0  0  0
   -3.1295   -0.1379   -0.0186 H   0  0  0  0  0  0  0  0  0  0  0  0
   -1.5439   -1.3802    1.6993 H   0  0  0  0  0  0  0  0  0  0  0  0
    0.5718   -0.7214    2.7837 H   0  0  0  0  0  0  0  0  0  0  0  0
    3.4415    1.5120    0.4815 H   0  0  0  0  0  0  0  0  0  0  0  0
    5.7461    2.2190    0.9271 H   0  0  0  0  0  0  0  0  0  0  0  0
  1  2  1  0
  2  3  1  0
  2  4  1  0
  4  5  2  0
  4  6  2  0
  4  7  1  0
  7  8  2  0
  8  9  1  0
  9 10  2  0
 10 11  1  0
 11 12  1  0
 12 13  2  0
 13 14  1  0
 14 15  1  0
 15 16  1  0
 16 17  2  0
 17 18  1  0
 18 19  2  0
 19 20  1  0
 20 21  1  0
 21 22  1  0
 22 23  2  0
 22 24  1  0
 24 25  2  0
 25 26  1  0
 26 27  2  0
 27 28  1  0
 28 29  1  0
 29 30  1  0
 29 31  1  0
 29 32  1  0
 28 33  2  0
 20 34  2  0
 15 35  2  0
 35 36  1  0
 36 37  2  0
 37 38  1  0
 10 39  1  0
 39 40  2  0
 40  7  1  0
 38 11  2  0
 38 14  1  0
 34 16  1  0
 33 24  1  0
  1 41  1  0
  1 42  1  0
  1 43  1  0
  2 44  1  0
  3 45  1  0
  3 46  1  0
  3 47  1  0
  8 48  1  0
  9 49  1  0
 12 50  1  0
 17 51  1  0
 18 52  1  0
 19 53  1  0
 21 54  1  0
 25 55  1  0
 26 56  1  0
 27 57  1  0
 33 58  1  0
 34 59  1  0
 35 60  1  0
 36 61  1  0
 39 62  1  0
 40 63  1  0
M  CHG  1   2   1
M  END
$$$$
