
     RDKit          3D

 69 74  0  0  0  0  0  0  0  0999 V2000
    3.9378    1.6967   -3.6023 C   0  0  0  0  0  0  0  0  0  0  0  0
    5.2514    2.1006   -3.2333 O   0  0  0  0  0  0  0  0  0  0  0  0
    5.7781    1.5335   -2.1078 C   0  0  0  0  0  0  0  0  0  0  0  0
    7.0235    2.0191   -1.7318 C   0  0  0  0  0  0  0  0  0  0  0  0
    7.6631    1.5110   -0.5988 C   0  0  0  0  0  0  0  0  0  0  0  0
    7.0870    0.5232    0.1856 C   0  0  0  0  0  0  0  0  0  0  0  0
    7.7774    0.0810    1.2460 N   0  0  0  0  0  0  0  0  0  0  0  0
    7.2600   -0.8785    2.0231 C   0  0  0  0  0  0  0  0  0  0  0  0
    8.0102   -1.3099    3.1071 C   0  0  0  0  0  0  0  0  0  0  0  0
    7.5367   -2.2945    3.9703 C   0  0  0  0  0  0  0  0  0  0  0  0
    8.4979   -2.8002    5.3044 Cl  0  0  0  0  0  0  0  0  0  0  0  0
    6.2902   -2.8663    3.7637 C   0  0  0  0  0  0  0  0  0  0  0  0
    5.5225   -2.4467    2.6788 C   0  0  0  0  0  0  0  0  0  0  0  0
    5.9976   -1.4541    1.7867 C   0  0  0  0  0  0  0  0  0  0  0  0
    5.2654   -0.9806    0.6670 C   0  0  0  0  0  0  0  0  0  0  0  0
    3.9893   -1.5383    0.3897 N   0  0  0  0  0  0  0  0  0  0  0  0
    2.7234   -0.9326    0.4382 C   0  0  0  0  0  0  0  0  0  0  0  0
    1.6168   -1.6146   -0.0748 C   0  0  0  0  0  0  0  0  0  0  0  0
    0.3432   -1.0270   -0.0874 C   0  0  0  0  0  0  0  0  0  0  0  0
    0.1347    0.2619    0.4061 C   0  0  0  0  0  0  0  0  0  0  0  0
   -1.1059    0.9071    0.4184 N   0  0  0  0  0  0  0  0  0  0  0  0
   -2.3867    0.5597   -0.0100 C   0  0  0  0  0  0  0  0  0  0  0  0
   -2.6371   -0.6052   -0.5891 N   0  0  0  0  0  0  0  0  0  0  0  0
   -3.8890   -0.8186   -0.9529 C   0  0  0  0  0  0  0  0  0  0  0  0
   -4.1405   -2.0277   -1.5408 N   0  0  0  0  0  0  0  0  0  0  0  0
   -5.4516   -2.4116   -2.0231 C   0  0  0  0  0  0  0  0  0  0  0  0
   -6.3668   -2.8354   -0.8696 C   0  0  0  0  0  0  0  0  0  0  0  0
   -5.7619   -3.8936   -0.1252 O   0  0  0  0  0  0  0  0  0  0  0  0
   -4.8723    0.0461   -0.7722 N   0  0  0  0  0  0  0  0  0  0  0  0
   -4.5480    1.1901   -0.1891 C   0  0  0  0  0  0  0  0  0  0  0  0
   -5.4964    2.1795    0.0662 N   0  0  0  0  0  0  0  0  0  0  0  0
   -6.8636    2.3120   -0.2022 C   0  0  0  0  0  0  0  0  0  0  0  0
   -7.6107    1.3844   -0.9348 C   0  0  0  0  0  0  0  0  0  0  0  0
   -8.9804    1.5683   -1.1577 C   0  0  0  0  0  0  0  0  0  0  0  0
   -9.6291    2.6878   -0.6464 C   0  0  0  0  0  0  0  0  0  0  0  0
   -8.9081    3.6230    0.0874 C   0  0  0  0  0  0  0  0  0  0  0  0
   -7.5401    3.4339    0.3065 C   0  0  0  0  0  0  0  0  0  0  0  0
   -3.3152    1.4844    0.2096 N   0  0  0  0  0  0  0  0  0  0  0  0
    1.2507    0.9456    0.9098 C   0  0  0  0  0  0  0  0  0  0  0  0
    2.5240    0.3613    0.9224 C   0  0  0  0  0  0  0  0  0  0  0  0
    5.8202    0.0265   -0.1681 C   0  0  0  0  0  0  0  0  0  0  0  0
    5.1883    0.5355   -1.3347 C   0  0  0  0  0  0  0  0  0  0  0  0
    3.9144    0.6361   -3.8733 H   0  0  0  0  0  0  0  0  0  0  0  0
    3.6476    2.2724   -4.4865 H   0  0  0  0  0  0  0  0  0  0  0  0
    3.2166    1.9193   -2.8086 H   0  0  0  0  0  0  0  0  0  0  0  0
    7.5062    2.7942   -2.3215 H   0  0  0  0  0  0  0  0  0  0  0  0
    8.6420    1.8977   -0.3242 H   0  0  0  0  0  0  0  0  0  0  0  0
    8.9855   -0.8609    3.2794 H   0  0  0  0  0  0  0  0  0  0  0  0
    5.9086   -3.6276    4.4387 H   0  0  0  0  0  0  0  0  0  0  0  0
    4.5385   -2.8894    2.5409 H   0  0  0  0  0  0  0  0  0  0  0  0
    3.9938   -2.5441    0.2645 H   0  0  0  0  0  0  0  0  0  0  0  0
    1.7286   -2.6163   -0.4820 H   0  0  0  0  0  0  0  0  0  0  0  0
   -0.4764   -1.6088   -0.4966 H   0  0  0  0  0  0  0  0  0  0  0  0
   -1.1309    1.8307    0.8257 H   0  0  0  0  0  0  0  0  0  0  0  0
   -3.3353   -2.6135   -1.7014 H   0  0  0  0  0  0  0  0  0  0  0  0
   -5.9124   -1.6122   -2.6144 H   0  0  0  0  0  0  0  0  0  0  0  0
   -5.3158   -3.2696   -2.6916 H   0  0  0  0  0  0  0  0  0  0  0  0
   -6.5710   -2.0093   -0.1818 H   0  0  0  0  0  0  0  0  0  0  0  0
   -7.3225   -3.1983   -1.2593 H   0  0  0  0  0  0  0  0  0  0  0  0
   -4.8913   -3.5464    0.1462 H   0  0  0  0  0  0  0  0  0  0  0  0
   -5.0545    2.9524    0.5417 H   0  0  0  0  0  0  0  0  0  0  0  0
   -7.1444    0.5011   -1.3571 H   0  0  0  0  0  0  0  0  0  0  0  0
   -9.5369    0.8330   -1.7330 H   0  0  0  0  0  0  0  0  0  0  0  0
  -10.6925    2.8295   -0.8193 H   0  0  0  0  0  0  0  0  0  0  0  0
   -9.4070    4.4995    0.4923 H   0  0  0  0  0  0  0  0  0  0  0  0
   -7.0033    4.1796    0.8881 H   0  0  0  0  0  0  0  0  0  0  0  0
    1.1458    1.9543    1.3027 H   0  0  0  0  0  0  0  0  0  0  0  0
    3.3544    0.9350    1.3261 H   0  0  0  0  0  0  0  0  0  0  0  0
    4.2260    0.1247   -1.6211 H   0  0  0  0  0  0  0  0  0  0  0  0
  1  2  1  0
  2  3  1  0
  3  4  2  0
  4  5  1  0
  5  6  2  0
  6  7  1  0
  7  8  2  0
  8  9  1  0
  9 10  2  0
 10 11  1  0
 10 12  1  0
 12 13  2  0
 13 14  1  0
 14 15  2  0
 15 16  1  0
 16 17  1  0
 17 18  2  0
 18 19  1  0
 19 20  2  0
 20 21  1  0
 21 22  1  0
 22 23  2  0
 23 24  1  0
 24 25  1  0
 25 26  1  0
 26 27  1  0
 27 28  1  0
 24 29  2  0
 29 30  1  0
 30 31  1  0
 31 32  1  0
 32 33  2  0
 33 34  1  0
 34 35  2  0
 35 36  1  0
 36 37  2  0
 30 38  2  0
 20 39  1  0
 39 40  2  0
 15 41  1  0
 41 42  2  0
 42  3  1  0
 41  6  1  0
 14  8  1  0
 40 17  1  0
 38 22  1  0
 37 32  1  0
  1 43  1  0
  1 44  1  0
  1 45  1  0
  4 46  1  0
  5 47  1  0
  9 48  1  0
 12 49  1  0
 13 50  1  0
 16 51  1  0
 18 52  1  0
 19 53  1  0
 21 54  1  0
 25 55  1  0
 26 56  1  0
 26 57  1  0
 27 58  1  0
 27 59  1  0
 28 60  1  0
 31 61  1  0
 33 62  1  0
 34 63  1  0
 35 64  1  0
 36 65  1  0
 37 66  1  0
 39 67  1  0
 40 68  1  0
 42 69  1  0
M  END
$$$$
