
     RDKit          3D

 62 65  0  0  0  0  0  0  0  0999 V2000
   -3.6224   -2.3617    0.5324 O   0  0  0  0  0  0  0  0  0  0  0  0
   -3.2568   -1.3681   -0.0796 C   0  0  0  0  0  0  0  0  0  0  0  0
   -3.9418   -0.1838   -0.2679 N   0  0  0  0  0  0  0  0  0  0  0  0
   -5.1963    0.1690    0.2729 C   0  0  0  0  0  0  0  0  0  0  0  0
   -5.9242   -0.6384    1.1469 C   0  0  0  0  0  0  0  0  0  0  0  0
   -7.1607   -0.2139    1.6423 C   0  0  0  0  0  0  0  0  0  0  0  0
   -7.6796    1.0254    1.2726 C   0  0  0  0  0  0  0  0  0  0  0  0
   -6.9621    1.8575    0.4051 C   0  0  0  0  0  0  0  0  0  0  0  0
   -7.5156    3.1945   -0.0205 C   0  0  0  0  0  0  0  0  0  0  0  0
   -6.5420    4.1397   -0.1583 F   0  0  0  0  0  0  0  0  0  0  0  0
   -8.4160    3.7142    0.8573 F   0  0  0  0  0  0  0  0  0  0  0  0
   -8.1471    3.1340   -1.2238 F   0  0  0  0  0  0  0  0  0  0  0  0
   -5.7240    1.4139   -0.0949 C   0  0  0  0  0  0  0  0  0  0  0  0
   -1.9216   -1.4134   -0.7248 C   0  0  0  0  0  0  0  0  0  0  0  0
   -1.0043   -0.3656   -0.5442 C   0  0  0  0  0  0  0  0  0  0  0  0
    0.2754   -0.4123   -1.1144 C   0  0  0  0  0  0  0  0  0  0  0  0
    1.2301    0.5848   -0.9038 N   0  0  0  0  0  0  0  0  0  0  0  0
    1.9431    1.1166   -2.0809 C   0  0  0  0  0  0  0  0  0  0  0  0
    3.3487    1.5723   -1.6693 C   0  0  0  0  0  0  0  0  0  0  0  0
    3.5998    1.4186   -0.1578 C   0  0  0  0  0  0  0  0  0  0  0  0
    3.6676   -0.0481    0.2350 N   0  0  0  0  0  0  0  0  0  0  0  0
    3.7975   -0.4010    1.6832 C   0  0  0  0  0  0  0  0  0  0  0  0
    5.2301   -0.1752    2.1596 C   0  0  0  0  0  0  0  0  0  0  0  0
    6.2261   -1.0102    1.3515 C   0  0  0  0  0  0  0  0  0  0  0  0
    6.0974   -0.7683   -0.1471 C   0  0  0  0  0  0  0  0  0  0  0  0
    4.6474   -0.8184   -0.5335 C   0  0  0  0  0  0  0  0  0  0  0  0
    4.1584   -1.4298   -1.4618 O   0  0  0  0  0  0  0  0  0  0  0  0
    2.4468    2.1345    0.5611 C   0  0  0  0  0  0  0  0  0  0  0  0
    1.0877    1.5096    0.2323 C   0  0  0  0  0  0  0  0  0  0  0  0
    0.5927   -1.5534   -1.8741 C   0  0  0  0  0  0  0  0  0  0  0  0
   -0.3120   -2.6184   -2.0588 C   0  0  0  0  0  0  0  0  0  0  0  0
    0.1098   -3.8361   -2.8463 C   0  0  0  0  0  0  0  0  0  0  0  0
    0.7760   -3.5068   -3.9871 F   0  0  0  0  0  0  0  0  0  0  0  0
   -0.9277   -4.6255   -3.2280 F   0  0  0  0  0  0  0  0  0  0  0  0
    0.9562   -4.6294   -2.1347 F   0  0  0  0  0  0  0  0  0  0  0  0
   -1.5727   -2.5444   -1.4627 C   0  0  0  0  0  0  0  0  0  0  0  0
   -3.5278    0.4935   -0.8955 H   0  0  0  0  0  0  0  0  0  0  0  0
   -5.5618   -1.6118    1.4638 H   0  0  0  0  0  0  0  0  0  0  0  0
   -7.7199   -0.8589    2.3172 H   0  0  0  0  0  0  0  0  0  0  0  0
   -8.6468    1.3378    1.6648 H   0  0  0  0  0  0  0  0  0  0  0  0
   -5.1790    2.0604   -0.7808 H   0  0  0  0  0  0  0  0  0  0  0  0
   -1.3083    0.4812    0.0651 H   0  0  0  0  0  0  0  0  0  0  0  0
    1.3781    1.9620   -2.4933 H   0  0  0  0  0  0  0  0  0  0  0  0
    2.0405    0.3878   -2.8921 H   0  0  0  0  0  0  0  0  0  0  0  0
    4.1069    1.0519   -2.2645 H   0  0  0  0  0  0  0  0  0  0  0  0
    3.4603    2.6304   -1.9421 H   0  0  0  0  0  0  0  0  0  0  0  0
    4.5602    1.8705    0.1130 H   0  0  0  0  0  0  0  0  0  0  0  0
    2.7731   -0.4439   -0.1153 H   0  0  0  0  0  0  0  0  0  0  0  0
    3.5172   -1.4573    1.7781 H   0  0  0  0  0  0  0  0  0  0  0  0
    3.0783    0.1824    2.2616 H   0  0  0  0  0  0  0  0  0  0  0  0
    5.3066   -0.4492    3.2180 H   0  0  0  0  0  0  0  0  0  0  0  0
    5.4920    0.8868    2.0874 H   0  0  0  0  0  0  0  0  0  0  0  0
    7.2490   -0.7910    1.6772 H   0  0  0  0  0  0  0  0  0  0  0  0
    6.0458   -2.0725    1.5607 H   0  0  0  0  0  0  0  0  0  0  0  0
    6.4931    0.2149   -0.4215 H   0  0  0  0  0  0  0  0  0  0  0  0
    6.6504   -1.5297   -0.7057 H   0  0  0  0  0  0  0  0  0  0  0  0
    2.4329    3.1854    0.2410 H   0  0  0  0  0  0  0  0  0  0  0  0
    2.5980    2.1755    1.6449 H   0  0  0  0  0  0  0  0  0  0  0  0
    0.7503    0.9636    1.1222 H   0  0  0  0  0  0  0  0  0  0  0  0
    0.3490    2.2899    0.0140 H   0  0  0  0  0  0  0  0  0  0  0  0
    1.5833   -1.6588   -2.3179 H   0  0  0  0  0  0  0  0  0  0  0  0
   -2.2851   -3.3637   -1.5667 H   0  0  0  0  0  0  0  0  0  0  0  0
  1  2  2  0
  2  3  1  0
  3  4  1  0
  4  5  2  0
  5  6  1  0
  6  7  2  0
  7  8  1  0
  8  9  1  0
  9 10  1  0
  9 11  1  0
  9 12  1  0
  8 13  2  0
  2 14  1  0
 14 15  2  0
 15 16  1  0
 16 17  1  0
 17 18  1  0
 18 19  1  0
 19 20  1  0
 20 21  1  0
 21 22  1  0
 22 23  1  0
 23 24  1  0
 24 25  1  0
 25 26  1  0
 26 27  2  0
 20 28  1  0
 28 29  1  0
 16 30  2  0
 30 31  1  0
 31 32  1  0
 32 33  1  0
 32 34  1  0
 32 35  1  0
 31 36  2  0
 13  4  1  0
 36 14  1  0
 29 17  1  0
 26 21  1  0
  3 37  1  0
  5 38  1  0
  6 39  1  0
  7 40  1  0
 13 41  1  0
 15 42  1  0
 18 43  1  0
 18 44  1  0
 19 45  1  0
 19 46  1  0
 20 47  1  0
 21 48  1  0
 22 49  1  0
 22 50  1  0
 23 51  1  0
 23 52  1  0
 24 53  1  0
 24 54  1  0
 25 55  1  0
 25 56  1  0
 28 57  1  0
 28 58  1  0
 29 59  1  0
 29 60  1  0
 30 61  1  0
 36 62  1  0
M  CHG  1  21   1
M  END
$$$$
