
     RDKit          3D

 67 70  0  0  0  0  0  0  0  0999 V2000
    6.5481   -0.1507   -2.5443 C   0  0  0  0  0  0  0  0  0  0  0  0
    7.0682    0.8503   -1.5497 C   0  0  0  0  0  0  0  0  0  0  0  0
    6.5333    1.9394   -1.3705 O   0  0  0  0  0  0  0  0  0  0  0  0
    8.1553    0.4089   -0.8357 N   0  0  0  0  0  0  0  0  0  0  0  0
    8.8071    1.2089    0.1891 C   0  0  0  0  0  0  0  0  0  0  0  0
    8.2609    0.9864    1.6096 C   0  0  1  0  0  0  0  0  0  0  0  0
    6.8319    1.4311    1.8254 C   0  0  0  0  0  0  0  0  0  0  0  0
    6.0821    0.2174    1.6752 N   0  0  0  0  0  0  0  0  0  0  0  0
    4.6730    0.1812    1.5208 C   0  0  0  0  0  0  0  0  0  0  0  0
    3.9227    1.3638    1.5080 C   0  0  0  0  0  0  0  0  0  0  0  0
    2.5274    1.3483    1.3415 C   0  0  0  0  0  0  0  0  0  0  0  0
    1.8153    0.1549    1.1796 C   0  0  0  0  0  0  0  0  0  0  0  0
    0.4358    0.1750    1.0179 N   0  0  0  0  0  0  0  0  0  0  0  0
   -0.1784    1.0943    0.0494 C   0  0  0  0  0  0  0  0  0  0  0  0
   -0.5827    0.3109   -1.2210 C   0  0  0  0  0  0  0  0  0  0  0  0
   -1.3983   -0.9224   -0.9075 N   0  0  0  0  0  0  0  0  0  0  0  0
   -2.8307   -0.6246   -0.6960 C   0  0  0  0  0  0  0  0  0  0  0  0
   -3.1037    0.1031    0.2315 O   0  0  0  0  0  0  0  0  0  0  0  0
   -3.8249   -1.2428   -1.6709 C   0  0  0  0  0  0  0  0  0  0  0  0
   -3.2989   -1.8866   -2.5792 O   0  0  0  0  0  0  0  0  0  0  0  0
   -5.2927   -1.1037   -1.5597 C   0  0  0  0  0  0  0  0  0  0  0  0
   -5.9603   -0.4914   -0.5711 C   0  0  0  0  0  0  0  0  0  0  0  0
   -7.4289   -0.3913   -0.5423 C   0  0  0  0  0  0  0  0  0  0  0  0
   -8.0150    0.7919   -0.0754 C   0  0  0  0  0  0  0  0  0  0  0  0
   -9.4061    0.9205   -0.0067 C   0  0  0  0  0  0  0  0  0  0  0  0
  -10.2406   -0.1350   -0.3991 C   0  0  0  0  0  0  0  0  0  0  0  0
  -11.7432   -0.0059   -0.3028 C   0  0  0  0  0  0  0  0  0  0  0  0
  -12.1783    1.2727   -0.4741 F   0  0  0  0  0  0  0  0  0  0  0  0
  -12.4003   -0.7525   -1.2326 F   0  0  0  0  0  0  0  0  0  0  0  0
  -12.2164   -0.4076    0.9076 F   0  0  0  0  0  0  0  0  0  0  0  0
   -9.6528   -1.3285   -0.8413 C   0  0  0  0  0  0  0  0  0  0  0  0
   -8.2613   -1.4561   -0.9101 C   0  0  0  0  0  0  0  0  0  0  0  0
   -0.8180   -1.7894    0.1886 C   0  0  0  0  0  0  0  0  0  0  0  0
   -0.4042   -0.9613    1.4230 C   0  0  0  0  0  0  0  0  0  0  0  0
    2.5841   -1.0209    1.2084 C   0  0  0  0  0  0  0  0  0  0  0  0
    1.9914   -2.2130    1.0252 F   0  0  0  0  0  0  0  0  0  0  0  0
    3.9736   -1.0162    1.3699 C   0  0  0  0  0  0  0  0  0  0  0  0
    6.9506   -0.8623    1.7655 C   0  0  0  0  0  0  0  0  0  0  0  0
    6.6905   -2.0542    1.7305 O   0  0  0  0  0  0  0  0  0  0  0  0
    8.2418   -0.4151    1.9092 O   0  0  0  0  0  0  0  0  0  0  0  0
    6.0345    0.3740   -3.3545 H   0  0  0  0  0  0  0  0  0  0  0  0
    7.3661   -0.7360   -2.9737 H   0  0  0  0  0  0  0  0  0  0  0  0
    5.8470   -0.8232   -2.0426 H   0  0  0  0  0  0  0  0  0  0  0  0
    8.5121   -0.5261   -1.0016 H   0  0  0  0  0  0  0  0  0  0  0  0
    8.7474    2.2687   -0.0813 H   0  0  0  0  0  0  0  0  0  0  0  0
    9.8608    0.9096    0.1635 H   0  0  0  0  0  0  0  0  0  0  0  0
    8.9217    1.4930    2.3220 H   0  0  0  0  0  0  0  0  0  0  0  0
    6.6910    1.7793    2.8557 H   0  0  0  0  0  0  0  0  0  0  0  0
    6.5293    2.2235    1.1378 H   0  0  0  0  0  0  0  0  0  0  0  0
    4.3936    2.3353    1.6347 H   0  0  0  0  0  0  0  0  0  0  0  0
    2.0053    2.3022    1.3799 H   0  0  0  0  0  0  0  0  0  0  0  0
   -1.0581    1.5594    0.5074 H   0  0  0  0  0  0  0  0  0  0  0  0
    0.4851    1.9149   -0.2440 H   0  0  0  0  0  0  0  0  0  0  0  0
    0.3125   -0.0508   -1.7399 H   0  0  0  0  0  0  0  0  0  0  0  0
   -1.1588    0.9320   -1.9152 H   0  0  0  0  0  0  0  0  0  0  0  0
   -1.4196   -1.4983   -1.7654 H   0  0  0  0  0  0  0  0  0  0  0  0
   -5.8274   -1.5587   -2.3916 H   0  0  0  0  0  0  0  0  0  0  0  0
   -5.4679   -0.0082    0.2684 H   0  0  0  0  0  0  0  0  0  0  0  0
   -7.3997    1.6338    0.2369 H   0  0  0  0  0  0  0  0  0  0  0  0
   -9.8392    1.8525    0.3565 H   0  0  0  0  0  0  0  0  0  0  0  0
  -10.2815   -2.1704   -1.1316 H   0  0  0  0  0  0  0  0  0  0  0  0
   -7.8479   -2.4056   -1.2426 H   0  0  0  0  0  0  0  0  0  0  0  0
    0.0466   -2.2852   -0.2629 H   0  0  0  0  0  0  0  0  0  0  0  0
   -1.5590   -2.5546    0.4439 H   0  0  0  0  0  0  0  0  0  0  0  0
    0.0802   -1.5958    2.1735 H   0  0  0  0  0  0  0  0  0  0  0  0
   -1.3006   -0.5673    1.9163 H   0  0  0  0  0  0  0  0  0  0  0  0
    4.4690   -1.9809    1.3646 H   0  0  0  0  0  0  0  0  0  0  0  0
  1  2  1  0
  2  3  2  0
  2  4  1  0
  4  5  1  0
  5  6  1  0
  6  7  1  0
  7  8  1  0
  8  9  1  0
  9 10  2  0
 10 11  1  0
 11 12  2  0
 12 13  1  0
 13 14  1  0
 14 15  1  0
 15 16  1  0
 16 17  1  0
 17 18  2  0
 17 19  1  0
 19 20  2  0
 19 21  1  0
 21 22  2  0
 22 23  1  0
 23 24  2  0
 24 25  1  0
 25 26  2  0
 26 27  1  0
 27 28  1  0
 27 29  1  0
 27 30  1  0
 26 31  1  0
 31 32  2  0
 16 33  1  0
 33 34  1  0
 12 35  1  0
 35 36  1  0
 35 37  2  0
  8 38  1  0
 38 39  2  0
 38 40  1  0
 40  6  1  0
 37  9  1  0
 34 13  1  0
 32 23  1  0
  1 41  1  0
  1 42  1  0
  1 43  1  0
  4 44  1  0
  5 45  1  0
  5 46  1  0
  6 47  1  1
  7 48  1  0
  7 49  1  0
 10 50  1  0
 11 51  1  0
 14 52  1  0
 14 53  1  0
 15 54  1  0
 15 55  1  0
 16 56  1  0
 21 57  1  0
 22 58  1  0
 24 59  1  0
 25 60  1  0
 31 61  1  0
 32 62  1  0
 33 63  1  0
 33 64  1  0
 34 65  1  0
 34 66  1  0
 37 67  1  0
M  CHG  1  16   1
M  END
$$$$
