
     RDKit          3D

 53 56  0  0  0  0  0  0  0  0999 V2000
   -8.5443    3.7127    0.9191 N   0  0  0  0  0  0  0  0  0  0  0  0
   -7.7889    3.9515    0.0711 C   0  0  0  0  0  0  0  0  0  0  0  0
   -6.8014    4.2799   -0.9544 C   0  0  0  0  0  0  0  0  0  0  0  0
   -6.2523    3.0143   -1.5731 C   0  0  0  0  0  0  0  0  0  0  0  0
   -6.7023    2.5993   -2.6373 O   0  0  0  0  0  0  0  0  0  0  0  0
   -5.2333    2.4357   -0.8303 N   0  0  0  0  0  0  0  0  0  0  0  0
   -4.4914    1.2786   -1.1505 C   0  0  0  0  0  0  0  0  0  0  0  0
   -4.6525    0.5424   -2.3220 C   0  0  0  0  0  0  0  0  0  0  0  0
   -3.8696   -0.5973   -2.5638 C   0  0  0  0  0  0  0  0  0  0  0  0
   -2.9052   -1.0375   -1.6424 C   0  0  0  0  0  0  0  0  0  0  0  0
   -2.0763   -2.2377   -1.8788 C   0  0  0  0  0  0  0  0  0  0  0  0
   -2.5322   -3.3422   -2.5677 C   0  0  0  0  0  0  0  0  0  0  0  0
   -1.6455   -4.3812   -2.6936 C   0  0  0  0  0  0  0  0  0  0  0  0
   -0.3998   -4.3595   -2.1908 N   0  0  0  0  0  0  0  0  0  0  0  0
   -0.0238   -3.2516   -1.5331 C   0  0  0  0  0  0  0  0  0  0  0  0
    1.2705   -3.2853   -1.0239 N   0  0  0  0  0  0  0  0  0  0  0  0
    2.0696   -2.3659   -0.3411 C   0  0  0  0  0  0  0  0  0  0  0  0
    1.7016   -1.0480   -0.0827 C   0  0  0  0  0  0  0  0  0  0  0  0
    2.5485   -0.1779    0.6255 C   0  0  0  0  0  0  0  0  0  0  0  0
    3.7990   -0.5814    1.1108 C   0  0  0  0  0  0  0  0  0  0  0  0
    4.6280    0.2779    1.8059 N   0  0  0  0  0  0  0  0  0  0  0  0
    4.1207    1.4931    2.4613 C   0  0  0  0  0  0  0  0  0  0  0  0
    5.0283    1.8723    3.6441 C   0  0  0  0  0  0  0  0  0  0  0  0
    6.3948    2.1145    3.2816 O   0  0  0  0  0  0  0  0  0  0  0  0
    6.8147    1.3721    2.1282 C   0  0  0  0  0  0  0  0  0  0  0  0
    6.0737    0.0380    1.9336 C   0  0  0  0  0  0  0  0  0  0  0  0
    4.1574   -1.9092    0.8486 C   0  0  0  0  0  0  0  0  0  0  0  0
    3.3143   -2.7821    0.1424 C   0  0  0  0  0  0  0  0  0  0  0  0
   -0.8292   -2.1953   -1.3584 N   0  0  0  0  0  0  0  0  0  0  0  0
   -2.7502   -0.2774   -0.4710 C   0  0  0  0  0  0  0  0  0  0  0  0
   -3.5300    0.8601   -0.2264 C   0  0  0  0  0  0  0  0  0  0  0  0
   -5.9796    4.8660   -0.5286 H   0  0  0  0  0  0  0  0  0  0  0  0
   -7.2523    4.8875   -1.7464 H   0  0  0  0  0  0  0  0  0  0  0  0
   -4.9972    2.8654    0.0568 H   0  0  0  0  0  0  0  0  0  0  0  0
   -5.3748    0.8244   -3.0817 H   0  0  0  0  0  0  0  0  0  0  0  0
   -4.0204   -1.1236   -3.5041 H   0  0  0  0  0  0  0  0  0  0  0  0
   -3.5316   -3.4118   -2.9737 H   0  0  0  0  0  0  0  0  0  0  0  0
   -1.9198   -5.2934   -3.2152 H   0  0  0  0  0  0  0  0  0  0  0  0
    1.6807   -4.1822   -1.2373 H   0  0  0  0  0  0  0  0  0  0  0  0
    0.7547   -0.6535   -0.4374 H   0  0  0  0  0  0  0  0  0  0  0  0
    2.2049    0.8432    0.7645 H   0  0  0  0  0  0  0  0  0  0  0  0
    4.0975    2.3095    1.7301 H   0  0  0  0  0  0  0  0  0  0  0  0
    3.1085    1.3396    2.8526 H   0  0  0  0  0  0  0  0  0  0  0  0
    5.0237    1.0734    4.3952 H   0  0  0  0  0  0  0  0  0  0  0  0
    4.6525    2.7780    4.1308 H   0  0  0  0  0  0  0  0  0  0  0  0
    6.6704    2.0157    1.2522 H   0  0  0  0  0  0  0  0  0  0  0  0
    7.8903    1.1936    2.2266 H   0  0  0  0  0  0  0  0  0  0  0  0
    6.4775   -0.4403    1.0338 H   0  0  0  0  0  0  0  0  0  0  0  0
    6.2515   -0.6184    2.7933 H   0  0  0  0  0  0  0  0  0  0  0  0
    5.0997   -2.3090    1.2119 H   0  0  0  0  0  0  0  0  0  0  0  0
    3.6494   -3.8040   -0.0170 H   0  0  0  0  0  0  0  0  0  0  0  0
   -2.0116   -0.5764    0.2725 H   0  0  0  0  0  0  0  0  0  0  0  0
   -3.3668    1.4034    0.7007 H   0  0  0  0  0  0  0  0  0  0  0  0
  1  2  3  0
  2  3  1  0
  3  4  1  0
  4  5  2  0
  4  6  1  0
  6  7  1  0
  7  8  2  0
  8  9  1  0
  9 10  2  0
 10 11  1  0
 11 12  2  0
 12 13  1  0
 13 14  2  0
 14 15  1  0
 15 16  1  0
 16 17  1  0
 17 18  2  0
 18 19  1  0
 19 20  2  0
 20 21  1  0
 21 22  1  0
 22 23  1  0
 23 24  1  0
 24 25  1  0
 25 26  1  0
 20 27  1  0
 27 28  2  0
 15 29  2  0
 10 30  1  0
 30 31  2  0
 31  7  1  0
 29 11  1  0
 28 17  1  0
 26 21  1  0
  3 32  1  0
  3 33  1  0
  6 34  1  0
  8 35  1  0
  9 36  1  0
 12 37  1  0
 13 38  1  0
 16 39  1  0
 18 40  1  0
 19 41  1  0
 22 42  1  0
 22 43  1  0
 23 44  1  0
 23 45  1  0
 25 46  1  0
 25 47  1  0
 26 48  1  0
 26 49  1  0
 27 50  1  0
 28 51  1  0
 30 52  1  0
 31 53  1  0
M  END
$$$$
