
     RDKit          3D

 66 69  0  0  0  0  0  0  0  0999 V2000
   -1.0488    1.3314   -0.5342 C   0  0  0  0  0  0  0  0  0  0  0  0
   -0.4712    0.4260    0.4592 N   0  0  0  0  0  0  0  0  0  0  0  0
   -1.1339   -0.0399    1.6043 C   0  0  0  0  0  0  0  0  0  0  0  0
   -0.5671   -0.8007    2.4007 O   0  0  0  0  0  0  0  0  0  0  0  0
   -2.5984    0.4165    1.9243 C   0  0  0  0  0  0  0  0  0  0  0  0
   -2.6169    1.9476    2.1306 C   0  0  0  0  0  0  0  0  0  0  0  0
   -3.0075   -0.1974    3.2937 C   0  0  0  0  0  0  0  0  0  0  0  0
   -3.6230   -0.1265    0.9092 C   0  0  0  0  0  0  0  0  0  0  0  0
   -4.7368    0.6268    0.4986 C   0  0  0  0  0  0  0  0  0  0  0  0
   -5.6685    0.1210   -0.4256 C   0  0  0  0  0  0  0  0  0  0  0  0
   -6.8581    0.9565   -0.8406 C   0  0  0  0  0  0  0  0  0  0  0  0
   -7.3600    0.6072   -2.0570 F   0  0  0  0  0  0  0  0  0  0  0  0
   -7.8918    0.8562    0.0380 F   0  0  0  0  0  0  0  0  0  0  0  0
   -6.5647    2.2841   -0.9268 F   0  0  0  0  0  0  0  0  0  0  0  0
   -5.4970   -1.1782   -0.9241 C   0  0  0  0  0  0  0  0  0  0  0  0
   -4.4158   -1.9695   -0.5116 C   0  0  0  0  0  0  0  0  0  0  0  0
   -4.2289   -3.3657   -1.0612 C   0  0  0  0  0  0  0  0  0  0  0  0
   -3.4414   -3.3783   -2.1706 F   0  0  0  0  0  0  0  0  0  0  0  0
   -3.6455   -4.2159   -0.1730 F   0  0  0  0  0  0  0  0  0  0  0  0
   -5.4017   -3.9545   -1.4262 F   0  0  0  0  0  0  0  0  0  0  0  0
   -3.4893   -1.4331    0.3983 C   0  0  0  0  0  0  0  0  0  0  0  0
    0.8638   -0.0518    0.1726 C   0  0  0  0  0  0  0  0  0  0  0  0
    1.1541   -1.4121    0.2745 C   0  0  0  0  0  0  0  0  0  0  0  0
    2.3393   -1.9882   -0.0476 N   0  0  0  0  0  0  0  0  0  0  0  0
    3.3427   -1.2060   -0.4821 C   0  0  0  0  0  0  0  0  0  0  0  0
    4.5286   -1.8067   -0.7957 N   0  0  0  0  0  0  0  0  0  0  0  0
    4.6563   -3.2604   -0.7728 C   0  0  0  0  0  0  0  0  0  0  0  0
    6.0168   -3.5239   -1.4224 C   0  0  0  0  0  0  0  0  0  0  0  0
    6.8040   -2.2562   -1.1221 C   0  0  2  0  0  0  0  0  0  0  0  0
    7.3193   -2.3132    0.2110 O   0  0  0  0  0  0  0  0  0  0  0  0
    5.7463   -1.1490   -1.2516 C   0  0  0  0  0  0  0  0  0  0  0  0
    3.1529    0.1685   -0.5828 C   0  0  0  0  0  0  0  0  0  0  0  0
    1.9177    0.7747   -0.2601 C   0  0  0  0  0  0  0  0  0  0  0  0
    1.8563    2.2513   -0.2681 C   0  0  0  0  0  0  0  0  0  0  0  0
    1.7812    2.9324    0.9638 C   0  0  0  0  0  0  0  0  0  0  0  0
    1.7363    4.3272    1.0200 C   0  0  0  0  0  0  0  0  0  0  0  0
    1.7710    5.0722   -0.1547 C   0  0  0  0  0  0  0  0  0  0  0  0
    1.8517    4.4229   -1.3856 C   0  0  0  0  0  0  0  0  0  0  0  0
    1.8970    3.0251   -1.4448 C   0  0  0  0  0  0  0  0  0  0  0  0
    1.9716    2.3004   -3.0150 Cl  0  0  0  0  0  0  0  0  0  0  0  0
   -0.5992    1.1647   -1.5179 H   0  0  0  0  0  0  0  0  0  0  0  0
   -2.1164    1.1618   -0.6541 H   0  0  0  0  0  0  0  0  0  0  0  0
   -0.8978    2.3660   -0.2188 H   0  0  0  0  0  0  0  0  0  0  0  0
   -3.5068    2.2685    2.6857 H   0  0  0  0  0  0  0  0  0  0  0  0
   -1.7416    2.2773    2.7029 H   0  0  0  0  0  0  0  0  0  0  0  0
   -2.6240    2.5063    1.1917 H   0  0  0  0  0  0  0  0  0  0  0  0
   -2.3424    0.1445    4.0960 H   0  0  0  0  0  0  0  0  0  0  0  0
   -2.9637   -1.2934    3.2816 H   0  0  0  0  0  0  0  0  0  0  0  0
   -4.0314    0.0830    3.5700 H   0  0  0  0  0  0  0  0  0  0  0  0
   -4.9030    1.6283    0.8946 H   0  0  0  0  0  0  0  0  0  0  0  0
   -6.2194   -1.5829   -1.6355 H   0  0  0  0  0  0  0  0  0  0  0  0
   -2.6560   -2.0616    0.7198 H   0  0  0  0  0  0  0  0  0  0  0  0
    0.4033   -2.1290    0.5956 H   0  0  0  0  0  0  0  0  0  0  0  0
    3.8643   -3.7636   -1.3388 H   0  0  0  0  0  0  0  0  0  0  0  0
    4.6452   -3.6260    0.2607 H   0  0  0  0  0  0  0  0  0  0  0  0
    6.4804   -4.4305   -1.0226 H   0  0  0  0  0  0  0  0  0  0  0  0
    5.8902   -3.6374   -2.5056 H   0  0  0  0  0  0  0  0  0  0  0  0
    7.6476   -2.1095   -1.8018 H   0  0  0  0  0  0  0  0  0  0  0  0
    6.5541   -2.2288    0.8117 H   0  0  0  0  0  0  0  0  0  0  0  0
    5.6311   -0.8380   -2.2955 H   0  0  0  0  0  0  0  0  0  0  0  0
    6.0075   -0.2888   -0.6265 H   0  0  0  0  0  0  0  0  0  0  0  0
    3.9752    0.8009   -0.9029 H   0  0  0  0  0  0  0  0  0  0  0  0
    1.7623    2.3674    1.8958 H   0  0  0  0  0  0  0  0  0  0  0  0
    1.6806    4.8294    1.9833 H   0  0  0  0  0  0  0  0  0  0  0  0
    1.7396    6.1583   -0.1127 H   0  0  0  0  0  0  0  0  0  0  0  0
    1.8797    5.0124   -2.2991 H   0  0  0  0  0  0  0  0  0  0  0  0
  1  2  1  0
  2  3  1  0
  3  4  2  0
  3  5  1  0
  5  6  1  0
  5  7  1  0
  5  8  1  0
  8  9  2  0
  9 10  1  0
 10 11  1  0
 11 12  1  0
 11 13  1  0
 11 14  1  0
 10 15  2  0
 15 16  1  0
 16 17  1  0
 17 18  1  0
 17 19  1  0
 17 20  1  0
 16 21  2  0
  2 22  1  0
 22 23  2  0
 23 24  1  0
 24 25  2  0
 25 26  1  0
 26 27  1  0
 27 28  1  0
 28 29  1  0
 29 30  1  0
 29 31  1  0
 25 32  1  0
 32 33  2  0
 33 34  1  0
 34 35  2  0
 35 36  1  0
 36 37  2  0
 37 38  1  0
 38 39  2  0
 39 40  1  0
 21  8  1  0
 33 22  1  0
 39 34  1  0
 31 26  1  0
  1 41  1  0
  1 42  1  0
  1 43  1  0
  6 44  1  0
  6 45  1  0
  6 46  1  0
  7 47  1  0
  7 48  1  0
  7 49  1  0
  9 50  1  0
 15 51  1  0
 21 52  1  0
 23 53  1  0
 27 54  1  0
 27 55  1  0
 28 56  1  0
 28 57  1  0
 29 58  1  6
 30 59  1  0
 31 60  1  0
 31 61  1  0
 32 62  1  0
 35 63  1  0
 36 64  1  0
 37 65  1  0
 38 66  1  0
M  END
$$$$
