
     RDKit          3D

 71 76  0  0  0  0  0  0  0  0999 V2000
  -11.2056   -2.5370   -0.3677 C   0  0  0  0  0  0  0  0  0  0  0  0
  -10.1680   -1.4593   -0.4247 N   0  0  0  0  0  0  0  0  0  0  0  0
   -9.5384   -1.1947    0.9400 C   0  0  0  0  0  0  0  0  0  0  0  0
   -8.5387   -0.0238    0.8599 C   0  0  0  0  0  0  0  0  0  0  0  0
   -7.5564   -0.2412   -0.2119 N   0  0  0  0  0  0  0  0  0  0  0  0
   -6.3286    0.4173   -0.1608 C   0  0  0  0  0  0  0  0  0  0  0  0
   -5.2059   -0.1141   -0.8115 C   0  0  0  0  0  0  0  0  0  0  0  0
   -3.9573    0.5219   -0.7711 C   0  0  0  0  0  0  0  0  0  0  0  0
   -3.7859    1.7157   -0.0687 C   0  0  0  0  0  0  0  0  0  0  0  0
   -2.5027    2.3994   -0.0262 C   0  0  0  0  0  0  0  0  0  0  0  0
   -2.2219    3.7812    0.0124 C   0  0  0  0  0  0  0  0  0  0  0  0
   -0.9205    4.0576    0.0552 N   0  0  0  0  0  0  0  0  0  0  0  0
   -0.3161    2.8314    0.0525 N   0  0  0  0  0  0  0  0  0  0  0  0
    1.0826    2.5769    0.0895 C   0  0  0  0  0  0  0  0  0  0  0  0
    1.9112    3.6819    0.1108 N   0  0  0  0  0  0  0  0  0  0  0  0
    1.4970    1.2902    0.0862 C   0  0  0  0  0  0  0  0  0  0  0  0
    2.9034    0.8689    0.1195 C   0  0  0  0  0  0  0  0  0  0  0  0
    3.4618    0.1935   -0.9698 C   0  0  0  0  0  0  0  0  0  0  0  0
    4.7981   -0.2241   -0.9402 C   0  0  0  0  0  0  0  0  0  0  0  0
    5.5958    0.0232    0.1777 C   0  0  0  0  0  0  0  0  0  0  0  0
    6.9487   -0.3622    0.2815 N   0  0  0  0  0  0  0  0  0  0  0  0
    7.6800   -1.1023   -0.6309 C   0  0  0  0  0  0  0  0  0  0  0  0
    7.2586   -1.6322   -1.6517 O   0  0  0  0  0  0  0  0  0  0  0  0
    9.1162   -1.2915   -0.2797 C   0  0  0  0  0  0  0  0  0  0  0  0
    9.8665   -0.2795    0.3319 C   0  0  0  0  0  0  0  0  0  0  0  0
   11.2132   -0.4977    0.6399 C   0  0  0  0  0  0  0  0  0  0  0  0
   11.8309   -1.7201    0.3280 C   0  0  0  0  0  0  0  0  0  0  0  0
   13.2807   -1.9585    0.6826 C   0  0  0  0  0  0  0  0  0  0  0  0
   14.0354   -0.8266    0.6176 F   0  0  0  0  0  0  0  0  0  0  0  0
   13.8915   -2.8623   -0.1317 F   0  0  0  0  0  0  0  0  0  0  0  0
   13.4264   -2.4337    1.9497 F   0  0  0  0  0  0  0  0  0  0  0  0
   11.0728   -2.7246   -0.2930 C   0  0  0  0  0  0  0  0  0  0  0  0
    9.7275   -2.5085   -0.6030 C   0  0  0  0  0  0  0  0  0  0  0  0
    5.0373    0.7042    1.2662 C   0  0  0  0  0  0  0  0  0  0  0  0
    3.7020    1.1215    1.2399 C   0  0  0  0  0  0  0  0  0  0  0  0
    0.4079    0.2637    0.0365 C   0  0  0  0  0  0  0  0  0  0  0  0
   -0.8719    0.4789   -0.0040 N   0  0  0  0  0  0  0  0  0  0  0  0
   -1.2572    1.7930    0.0014 C   0  0  0  0  0  0  0  0  0  0  0  0
   -4.8944    2.2567    0.5885 C   0  0  0  0  0  0  0  0  0  0  0  0
   -6.1409    1.6133    0.5458 C   0  0  0  0  0  0  0  0  0  0  0  0
   -8.0776   -0.5950   -1.5440 C   0  0  0  0  0  0  0  0  0  0  0  0
   -9.0833   -1.7598   -1.4552 C   0  0  0  0  0  0  0  0  0  0  0  0
  -11.6458   -2.6362   -1.3632 H   0  0  0  0  0  0  0  0  0  0  0  0
  -11.9718   -2.2317    0.3496 H   0  0  0  0  0  0  0  0  0  0  0  0
  -10.7273   -3.4694   -0.0564 H   0  0  0  0  0  0  0  0  0  0  0  0
  -10.6310   -0.5898   -0.7186 H   0  0  0  0  0  0  0  0  0  0  0  0
   -9.0419   -2.1213    1.2494 H   0  0  0  0  0  0  0  0  0  0  0  0
  -10.3516   -0.9606    1.6344 H   0  0  0  0  0  0  0  0  0  0  0  0
   -8.0447    0.0537    1.8361 H   0  0  0  0  0  0  0  0  0  0  0  0
   -9.0831    0.9107    0.6764 H   0  0  0  0  0  0  0  0  0  0  0  0
   -5.2661   -1.0611   -1.3409 H   0  0  0  0  0  0  0  0  0  0  0  0
   -3.1203    0.0634   -1.2941 H   0  0  0  0  0  0  0  0  0  0  0  0
   -2.9218    4.6070    0.0033 H   0  0  0  0  0  0  0  0  0  0  0  0
    1.4674    4.5983    0.0673 H   0  0  0  0  0  0  0  0  0  0  0  0
    2.9161    3.5898    0.0392 H   0  0  0  0  0  0  0  0  0  0  0  0
    2.8721   -0.0100   -1.8616 H   0  0  0  0  0  0  0  0  0  0  0  0
    5.1868   -0.7366   -1.8153 H   0  0  0  0  0  0  0  0  0  0  0  0
    7.4146   -0.1036    1.1414 H   0  0  0  0  0  0  0  0  0  0  0  0
    9.4301    0.6926    0.5464 H   0  0  0  0  0  0  0  0  0  0  0  0
   11.7887    0.2975    1.1139 H   0  0  0  0  0  0  0  0  0  0  0  0
   11.5299   -3.6809   -0.5462 H   0  0  0  0  0  0  0  0  0  0  0  0
    9.1554   -3.2926   -1.0968 H   0  0  0  0  0  0  0  0  0  0  0  0
    5.6284    0.9159    2.1537 H   0  0  0  0  0  0  0  0  0  0  0  0
    3.2918    1.6432    2.1029 H   0  0  0  0  0  0  0  0  0  0  0  0
    0.7520   -0.7853    0.0393 H   0  0  0  0  0  0  0  0  0  0  0  0
   -4.8052    3.1807    1.1559 H   0  0  0  0  0  0  0  0  0  0  0  0
   -6.9631    2.0924    1.0690 H   0  0  0  0  0  0  0  0  0  0  0  0
   -8.5729    0.2846   -1.9745 H   0  0  0  0  0  0  0  0  0  0  0  0
   -7.2879   -0.8929   -2.2415 H   0  0  0  0  0  0  0  0  0  0  0  0
   -9.5824   -1.9125   -2.4174 H   0  0  0  0  0  0  0  0  0  0  0  0
   -8.5904   -2.6870   -1.1417 H   0  0  0  0  0  0  0  0  0  0  0  0
  1  2  1  0
  2  3  1  0
  3  4  1  0
  4  5  1  0
  5  6  1  0
  6  7  2  0
  7  8  1  0
  8  9  2  0
  9 10  1  0
 10 11  1  0
 11 12  2  0
 12 13  1  0
 13 14  1  0
 14 15  1  0
 14 16  2  0
 16 17  1  0
 17 18  2  0
 18 19  1  0
 19 20  2  0
 20 21  1  0
 21 22  1  0
 22 23  2  0
 22 24  1  0
 24 25  2  0
 25 26  1  0
 26 27  2  0
 27 28  1  0
 28 29  1  0
 28 30  1  0
 28 31  1  0
 27 32  1  0
 32 33  2  0
 20 34  1  0
 34 35  2  0
 16 36  1  0
 36 37  2  0
 37 38  1  0
  9 39  1  0
 39 40  2  0
  5 41  1  0
 41 42  1  0
 42  2  1  0
 40  6  1  0
 38 10  2  0
 38 13  1  0
 35 17  1  0
 33 24  1  0
  1 43  1  0
  1 44  1  0
  1 45  1  0
  2 46  1  0
  3 47  1  0
  3 48  1  0
  4 49  1  0
  4 50  1  0
  7 51  1  0
  8 52  1  0
 11 53  1  0
 15 54  1  0
 15 55  1  0
 18 56  1  0
 19 57  1  0
 21 58  1  0
 25 59  1  0
 26 60  1  0
 32 61  1  0
 33 62  1  0
 34 63  1  0
 35 64  1  0
 36 65  1  0
 39 66  1  0
 40 67  1  0
 41 68  1  0
 41 69  1  0
 42 70  1  0
 42 71  1  0
M  CHG  1   2   1
M  END
$$$$
