
     RDKit          3D

 83 88  0  0  0  0  0  0  0  0999 V2000
    3.2549    0.6718   -1.9708 C   0  0  0  0  0  0  0  0  0  0  0  0
    2.4369   -0.0364   -1.1680 C   0  0  0  0  0  0  0  0  0  0  0  0
    0.9392    0.2536   -1.2674 C   0  0  2  0  0  0  0  0  0  0  0  0
    0.4050    1.2711   -0.2547 C   0  0  0  0  0  0  0  0  0  0  0  0
   -1.1084    1.1934   -0.4838 C   0  0  2  0  0  0  0  0  0  0  0  0
   -1.3939    1.8490   -1.7213 O   0  0  0  0  0  0  0  0  0  0  0  0
   -1.8864    1.8148    0.6349 C   0  0  1  0  0  0  0  0  0  0  0  0
   -2.6337    2.9834    0.2957 O   0  0  0  0  0  0  0  0  0  0  0  0
   -3.4183    1.8226    0.6697 C   0  0  2  0  0  0  0  0  0  0  0  0
   -4.0065    1.7730    2.0265 C   0  0  0  0  0  0  0  0  0  0  0  0
   -5.2024    1.3610    2.4644 C   0  0  0  0  0  0  0  0  0  0  0  0
   -6.3436    0.7731    1.7563 C   0  0  0  0  0  0  0  0  0  0  0  0
   -7.1723    0.1504    2.4154 O   0  0  0  0  0  0  0  0  0  0  0  0
   -6.4863    0.9078    0.4285 O   0  0  0  0  0  0  0  0  0  0  0  0
   -5.6992    1.7113   -0.4819 C   0  0  0  0  0  0  0  0  0  0  0  0
   -6.3552    1.4556   -1.8620 C   0  0  0  0  0  0  0  0  0  0  0  0
   -5.9086    3.2138   -0.2028 C   0  0  0  0  0  0  0  0  0  0  0  0
   -4.2020    1.2686   -0.5217 C   0  0  2  0  0  0  0  0  0  0  0  0
   -3.9962   -0.2686   -0.6995 C   0  0  2  0  0  0  0  0  0  0  0  0
   -4.1127   -0.9426    0.5722 O   0  0  0  0  0  0  0  0  0  0  0  0
   -4.5716   -2.2261    0.5447 C   0  0  0  0  0  0  0  0  0  0  0  0
   -4.6672   -2.7638    1.9393 C   0  0  0  0  0  0  0  0  0  0  0  0
   -4.8548   -2.8594   -0.4614 O   0  0  0  0  0  0  0  0  0  0  0  0
   -2.6629   -0.6652   -1.3770 C   0  0  0  0  0  0  0  0  0  0  0  0
   -1.3841   -0.3217   -0.5958 C   0  0  1  0  0  0  0  0  0  0  0  0
   -0.0370   -0.9515   -1.1447 C   0  0  1  0  0  0  0  0  0  0  0  0
   -0.1638   -1.6374   -2.5191 C   0  0  0  0  0  0  0  0  0  0  0  0
    0.4730   -1.9764   -0.1032 C   0  0  0  0  0  0  0  0  0  0  0  0
    1.9445   -2.3417   -0.2885 C   0  0  0  0  0  0  0  0  0  0  0  0
    2.8870   -1.1172   -0.1786 C   0  0  2  0  0  0  0  0  0  0  0  0
    2.6775   -0.5681    1.1339 O   0  0  0  0  0  0  0  0  0  0  0  0
    4.3812   -1.6276   -0.2189 C   0  0  1  0  0  0  0  0  0  0  0  0
    4.7953   -2.2541   -1.5635 C   0  0  0  0  0  0  0  0  0  0  0  0
    5.4098   -0.5834    0.3212 C   0  0  1  0  0  0  0  0  0  0  0  0
    5.6957   -0.7761    1.8162 C   0  0  0  0  0  0  0  0  0  0  0  0
    6.7887    0.1547    2.2327 C   0  0  0  0  0  0  0  0  0  0  0  0
    7.7086    0.5933    1.3582 C   0  0  0  0  0  0  0  0  0  0  0  0
    8.8189    1.5258    1.7282 C   0  0  0  0  0  0  0  0  0  0  0  0
    7.7076    0.0931   -0.0429 C   0  0  0  0  0  0  0  0  0  0  0  0
    8.6284    0.3354   -0.8126 O   0  0  0  0  0  0  0  0  0  0  0  0
    6.6526   -0.6787   -0.4112 O   0  0  0  0  0  0  0  0  0  0  0  0
    2.8638    1.4199   -2.6574 H   0  0  0  0  0  0  0  0  0  0  0  0
    4.3315    0.5560   -1.9954 H   0  0  0  0  0  0  0  0  0  0  0  0
    0.7697    0.6950   -2.2628 H   0  0  0  0  0  0  0  0  0  0  0  0
    0.6656    0.9979    0.7733 H   0  0  0  0  0  0  0  0  0  0  0  0
    0.8008    2.2733   -0.4549 H   0  0  0  0  0  0  0  0  0  0  0  0
   -1.5005    2.7968   -1.5131 H   0  0  0  0  0  0  0  0  0  0  0  0
   -1.3545    1.8008    1.5788 H   0  0  0  0  0  0  0  0  0  0  0  0
   -3.3540    2.1641    2.8092 H   0  0  0  0  0  0  0  0  0  0  0  0
   -5.3885    1.4111    3.5362 H   0  0  0  0  0  0  0  0  0  0  0  0
   -5.8109    1.9572   -2.6690 H   0  0  0  0  0  0  0  0  0  0  0  0
   -7.3899    1.8206   -1.8722 H   0  0  0  0  0  0  0  0  0  0  0  0
   -6.4287    0.3895   -2.0960 H   0  0  0  0  0  0  0  0  0  0  0  0
   -5.3755    3.8292   -0.9356 H   0  0  0  0  0  0  0  0  0  0  0  0
   -6.9741    3.4695   -0.2497 H   0  0  0  0  0  0  0  0  0  0  0  0
   -5.5857    3.5219    0.7935 H   0  0  0  0  0  0  0  0  0  0  0  0
   -3.8082    1.7428   -1.4306 H   0  0  0  0  0  0  0  0  0  0  0  0
   -4.7826   -0.6398   -1.3634 H   0  0  0  0  0  0  0  0  0  0  0  0
   -5.4000   -2.1898    2.5107 H   0  0  0  0  0  0  0  0  0  0  0  0
   -3.6865   -2.7227    2.4200 H   0  0  0  0  0  0  0  0  0  0  0  0
   -4.9920   -3.8075    1.9033 H   0  0  0  0  0  0  0  0  0  0  0  0
   -2.6358   -0.2285   -2.3819 H   0  0  0  0  0  0  0  0  0  0  0  0
   -2.6833   -1.7531   -1.5112 H   0  0  0  0  0  0  0  0  0  0  0  0
   -1.5330   -0.7043    0.4238 H   0  0  0  0  0  0  0  0  0  0  0  0
    0.8129   -1.9410   -2.9105 H   0  0  0  0  0  0  0  0  0  0  0  0
   -0.7851   -2.5373   -2.4656 H   0  0  0  0  0  0  0  0  0  0  0  0
   -0.6039   -0.9641   -3.2626 H   0  0  0  0  0  0  0  0  0  0  0  0
    0.3465   -1.5869    0.9153 H   0  0  0  0  0  0  0  0  0  0  0  0
   -0.1360   -2.8883   -0.1503 H   0  0  0  0  0  0  0  0  0  0  0  0
    2.1960   -3.0682    0.4955 H   0  0  0  0  0  0  0  0  0  0  0  0
    2.0666   -2.8557   -1.2465 H   0  0  0  0  0  0  0  0  0  0  0  0
    2.8493    0.3879    1.0792 H   0  0  0  0  0  0  0  0  0  0  0  0
    4.4233   -2.4653    0.4941 H   0  0  0  0  0  0  0  0  0  0  0  0
    4.0801   -3.0071   -1.9031 H   0  0  0  0  0  0  0  0  0  0  0  0
    4.9086   -1.5165   -2.3603 H   0  0  0  0  0  0  0  0  0  0  0  0
    5.7550   -2.7737   -1.4599 H   0  0  0  0  0  0  0  0  0  0  0  0
    5.0318    0.4325    0.1568 H   0  0  0  0  0  0  0  0  0  0  0  0
    6.0196   -1.8012    2.0319 H   0  0  0  0  0  0  0  0  0  0  0  0
    4.8025   -0.5731    2.4134 H   0  0  0  0  0  0  0  0  0  0  0  0
    6.8190    0.4648    3.2735 H   0  0  0  0  0  0  0  0  0  0  0  0
    9.7922    1.0476    1.5767 H   0  0  0  0  0  0  0  0  0  0  0  0
    8.7761    2.4327    1.1161 H   0  0  0  0  0  0  0  0  0  0  0  0
    8.7602    1.8322    2.7781 H   0  0  0  0  0  0  0  0  0  0  0  0
  1  2  2  0
  2  3  1  0
  3  4  1  0
  4  5  1  0
  5  6  1  6
  5  7  1  0
  7  8  1  0
  9  8  1  6
  9 10  1  0
 10 11  2  0
 11 12  1  0
 12 13  2  0
 12 14  1  0
 14 15  1  0
 15 16  1  0
 15 17  1  0
 15 18  1  0
 18 19  1  0
 19 20  1  0
 20 21  1  0
 21 22  1  0
 21 23  2  0
 19 24  1  0
 24 25  1  0
 25 26  1  0
 26 27  1  6
 26 28  1  0
 28 29  1  0
 29 30  1  0
 30 31  1  1
 30 32  1  0
 32 33  1  0
 32 34  1  0
 34 35  1  0
 35 36  1  0
 36 37  2  0
 37 38  1  0
 37 39  1  0
 39 40  2  0
 39 41  1  0
 30  2  1  0
 41 34  1  0
 26  3  1  0
 25  5  1  0
  9  7  1  0
 18  9  1  0
  1 42  1  0
  1 43  1  0
  3 44  1  6
  4 45  1  0
  4 46  1  0
  6 47  1  0
  7 48  1  1
 10 49  1  0
 11 50  1  0
 16 51  1  0
 16 52  1  0
 16 53  1  0
 17 54  1  0
 17 55  1  0
 17 56  1  0
 18 57  1  6
 19 58  1  6
 22 59  1  0
 22 60  1  0
 22 61  1  0
 24 62  1  0
 24 63  1  0
 25 64  1  1
 27 65  1  0
 27 66  1  0
 27 67  1  0
 28 68  1  0
 28 69  1  0
 29 70  1  0
 29 71  1  0
 31 72  1  0
 32 73  1  1
 33 74  1  0
 33 75  1  0
 33 76  1  0
 34 77  1  1
 35 78  1  0
 35 79  1  0
 36 80  1  0
 38 81  1  0
 38 82  1  0
 38 83  1  0
M  END
$$$$
