LIB_SNKYRRUHFHNPGP__M_PUB_ALL__e8__s20260927
     RDKit          3D

 57 61  0  0  0  0  0  0  0  0999 V2000
   10.9690   -7.8510  -10.2360 O   0  0  0  0  0  0  0  0  0  0  0  0
   11.4510   -8.1210  -11.3290 C   0  0  0  0  0  0  0  0  0  0  0  0
   11.9650   -7.1920  -12.2240 N   0  0  0  0  0  0  0  0  0  0  0  0
   11.9600   -5.7860  -12.1080 C   0  0  0  0  0  0  0  0  0  0  0  0
   10.9400   -5.0530  -11.5000 C   0  0  0  0  0  0  0  0  0  0  0  0
   11.0090   -3.6560  -11.4320 C   0  0  0  0  0  0  0  0  0  0  0  0
   12.1040   -2.9640  -11.9660 C   0  0  0  0  0  0  0  0  0  0  0  0
   12.1660   -1.4570  -11.9110 C   0  0  0  0  0  0  0  0  0  0  0  0
   12.4520   -0.9970  -10.6630 F   0  0  0  0  0  0  0  0  0  0  0  0
   13.1140   -0.9280  -12.7340 F   0  0  0  0  0  0  0  0  0  0  0  0
   10.9920   -0.8640  -12.2680 F   0  0  0  0  0  0  0  0  0  0  0  0
   13.1210   -3.7000  -12.5880 C   0  0  0  0  0  0  0  0  0  0  0  0
   13.0490   -5.0960  -12.6540 C   0  0  0  0  0  0  0  0  0  0  0  0
   11.5540   -9.4010  -11.8540 N   0  0  0  0  0  0  0  0  0  0  0  0
   11.2630  -10.6220  -11.2070 C   0  0  0  0  0  0  0  0  0  0  0  0
    9.9370  -11.0720  -11.2590 C   0  0  0  0  0  0  0  0  0  0  0  0
    9.5720  -12.2720  -10.6500 C   0  0  0  0  0  0  0  0  0  0  0  0
   10.5300  -13.0340   -9.9820 C   0  0  0  0  0  0  0  0  0  0  0  0
   11.8630  -12.6080   -9.9120 C   0  0  0  0  0  0  0  0  0  0  0  0
   12.8650  -13.4460   -9.2060 C   0  0  0  0  0  0  0  0  0  0  0  0
   13.9640  -13.8770   -9.8610 C   0  0  0  0  0  0  0  0  0  0  0  0
   14.8780  -14.6430   -9.1710 N   0  0  0  0  0  0  0  0  0  0  0  0
   16.0610  -15.2220   -9.5390 C   0  0  0  0  0  0  0  0  0  0  0  0
   16.5150  -15.8610   -8.4020 C   0  0  0  0  0  0  0  0  0  0  0  0
   15.6450  -15.6870   -7.3500 N   0  0  0  0  0  0  0  0  0  0  0  0
   14.6760  -14.9510   -7.8550 C   0  0  0  0  0  0  0  0  0  0  0  0
   13.4860  -14.4570   -7.1870 C   0  0  0  0  0  0  0  0  0  0  0  0
   13.2610  -14.7500   -5.8650 N   0  0  0  0  0  0  0  0  0  0  0  0
   12.1020  -14.3270   -5.1300 C   0  0  0  0  0  0  0  0  0  0  0  0
   12.5100  -13.3380   -4.0700 C   0  0  0  0  0  0  0  0  0  0  0  0
   11.6600  -13.0460   -2.9980 C   0  0  0  0  0  0  0  0  0  0  0  0
   12.0690  -12.1100   -2.0620 C   0  0  0  0  0  0  0  0  0  0  0  0
   13.2460  -11.4510   -2.1240 N   0  0  0  0  0  0  0  0  0  0  0  0
   14.0460  -11.7340   -3.1730 C   0  0  0  0  0  0  0  0  0  0  0  0
   13.7260  -12.6530   -4.1600 C   0  0  0  0  0  0  0  0  0  0  0  0
   12.6270  -13.7270   -7.8620 N   0  0  0  0  0  0  0  0  0  0  0  0
   12.2170  -11.4030  -10.5470 C   0  0  0  0  0  0  0  0  0  0  0  0
   12.4500   -7.5640  -13.0240 H   0  0  0  0  0  0  0  0  0  0  0  0
   10.0738   -5.5774  -11.0702 H   0  0  0  0  0  0  0  0  0  0  0  0
   10.1931   -3.0947  -10.9532 H   0  0  0  0  0  0  0  0  0  0  0  0
   13.9827   -3.1765  -13.0279 H   0  0  0  0  0  0  0  0  0  0  0  0
   13.8588   -5.6587  -13.1414 H   0  0  0  0  0  0  0  0  0  0  0  0
   11.7910   -9.4690  -12.8310 H   0  0  0  0  0  0  0  0  0  0  0  0
    9.1780  -10.4738  -11.7844 H   0  0  0  0  0  0  0  0  0  0  0  0
    8.5287  -12.6175  -10.6965 H   0  0  0  0  0  0  0  0  0  0  0  0
   10.2358  -13.9803   -9.5046 H   0  0  0  0  0  0  0  0  0  0  0  0
   14.1257  -13.6230  -10.9190 H   0  0  0  0  0  0  0  0  0  0  0  0
   16.5455  -15.1865  -10.5259 H   0  0  0  0  0  0  0  0  0  0  0  0
   17.4515  -16.4352   -8.3446 H   0  0  0  0  0  0  0  0  0  0  0  0
   13.9580  -15.3220   -5.3980 H   0  0  0  0  0  0  0  0  0  0  0  0
   11.3856  -13.8528   -5.8170 H   0  0  0  0  0  0  0  0  0  0  0  0
   11.6322  -15.2003   -4.6538 H   0  0  0  0  0  0  0  0  0  0  0  0
   10.6868  -13.5493   -2.9002 H   0  0  0  0  0  0  0  0  0  0  0  0
   11.3962  -11.8910   -1.2198 H   0  0  0  0  0  0  0  0  0  0  0  0
   15.0074  -11.2050   -3.2493 H   0  0  0  0  0  0  0  0  0  0  0  0
   14.4146  -12.8398   -4.9972 H   0  0  0  0  0  0  0  0  0  0  0  0
   13.2648  -11.0689  -10.5237 H   0  0  0  0  0  0  0  0  0  0  0  0
  1  2  2  0
  2  3  1  0
  3  4  1  0
  4  5  2  0
  5  6  1  0
  6  7  2  0
  7  8  1  0
  8  9  1  0
  8 10  1  0
  8 11  1  0
  7 12  1  0
 12 13  2  0
  2 14  1  0
 14 15  1  0
 15 16  2  0
 16 17  1  0
 17 18  2  0
 18 19  1  0
 19 20  1  0
 20 21  2  0
 21 22  1  0
 22 23  1  0
 23 24  2  0
 24 25  1  0
 25 26  2  0
 26 27  1  0
 27 28  1  0
 28 29  1  0
 29 30  1  0
 30 31  2  0
 31 32  1  0
 32 33  2  0
 33 34  1  0
 34 35  2  0
 27 36  2  0
 19 37  2  0
 13  4  1  0
 37 15  1  0
 36 20  1  0
 26 22  1  0
 35 30  1  0
  3 38  1  0
  5 39  1  0
  6 40  1  0
 12 41  1  0
 13 42  1  0
 14 43  1  0
 16 44  1  0
 17 45  1  0
 18 46  1  0
 21 47  1  0
 23 48  1  0
 24 49  1  0
 28 50  1  0
 29 51  1  0
 29 52  1  0
 31 53  1  0
 32 54  1  0
 34 55  1  0
 35 56  1  0
 37 57  1  0
M  END
>  <meeko>  (1) 
{"is_sidechain": [false], "free_energy": -10.591, "intermolecular_energy": -14.306, "internal_energy": -0.781}

$$$$
LIB_SNKYRRUHFHNPGP__M_PUB_ALL__e8__s20260927
     RDKit          3D

 57 61  0  0  0  0  0  0  0  0999 V2000
   -5.8480  -15.2130    4.3910 O   0  0  0  0  0  0  0  0  0  0  0  0
   -5.5680  -16.3270    4.8160 C   0  0  0  0  0  0  0  0  0  0  0  0
   -6.3630  -17.0740    5.6750 N   0  0  0  0  0  0  0  0  0  0  0  0
   -7.5740  -16.6870    6.2880 C   0  0  0  0  0  0  0  0  0  0  0  0
   -7.6590  -16.0830    7.5430 C   0  0  0  0  0  0  0  0  0  0  0  0
   -8.9030  -15.7360    8.0840 C   0  0  0  0  0  0  0  0  0  0  0  0
  -10.0870  -15.9810    7.3770 C   0  0  0  0  0  0  0  0  0  0  0  0
  -11.4280  -15.6260    7.9710 C   0  0  0  0  0  0  0  0  0  0  0  0
  -12.2580  -16.7020    8.0540 F   0  0  0  0  0  0  0  0  0  0  0  0
  -11.3420  -15.1190    9.2320 F   0  0  0  0  0  0  0  0  0  0  0  0
  -12.1010  -14.6920    7.2420 F   0  0  0  0  0  0  0  0  0  0  0  0
  -10.0010  -16.5990    6.1230 C   0  0  0  0  0  0  0  0  0  0  0  0
   -8.7560  -16.9450    5.5850 C   0  0  0  0  0  0  0  0  0  0  0  0
   -4.4050  -17.0200    4.5140 N   0  0  0  0  0  0  0  0  0  0  0  0
   -3.4050  -16.6600    3.5830 C   0  0  0  0  0  0  0  0  0  0  0  0
   -2.7610  -17.7000    2.9020 C   0  0  0  0  0  0  0  0  0  0  0  0
   -1.7690  -17.4250    1.9630 C   0  0  0  0  0  0  0  0  0  0  0  0
   -1.4080  -16.1050    1.6970 C   0  0  0  0  0  0  0  0  0  0  0  0
   -2.0330  -15.0420    2.3650 C   0  0  0  0  0  0  0  0  0  0  0  0
   -1.6400  -13.6460    2.0520 C   0  0  0  0  0  0  0  0  0  0  0  0
   -2.2260  -12.6190    2.7040 C   0  0  0  0  0  0  0  0  0  0  0  0
   -1.8270  -11.3370    2.3960 N   0  0  0  0  0  0  0  0  0  0  0  0
   -2.2180  -10.1120    2.8630 C   0  0  0  0  0  0  0  0  0  0  0  0
   -1.4480   -9.2020    2.1660 C   0  0  0  0  0  0  0  0  0  0  0  0
   -0.5980   -9.8340    1.2890 N   0  0  0  0  0  0  0  0  0  0  0  0
   -0.8580  -11.1150    1.4590 C   0  0  0  0  0  0  0  0  0  0  0  0
   -0.2470  -12.2490    0.7900 C   0  0  0  0  0  0  0  0  0  0  0  0
    0.7300  -12.0530   -0.1540 N   0  0  0  0  0  0  0  0  0  0  0  0
    1.3720  -13.1110   -0.8830 C   0  0  0  0  0  0  0  0  0  0  0  0
    1.9190  -12.5710   -2.1780 C   0  0  0  0  0  0  0  0  0  0  0  0
    2.4020  -11.2610   -2.2600 C   0  0  0  0  0  0  0  0  0  0  0  0
    2.8710  -10.8020   -3.4810 C   0  0  0  0  0  0  0  0  0  0  0  0
    2.8860  -11.5460   -4.6080 N   0  0  0  0  0  0  0  0  0  0  0  0
    2.4020  -12.8020   -4.5130 C   0  0  0  0  0  0  0  0  0  0  0  0
    1.9100  -13.3510   -3.3390 C   0  0  0  0  0  0  0  0  0  0  0  0
   -0.6400  -13.4640    1.0990 N   0  0  0  0  0  0  0  0  0  0  0  0
   -3.0460  -15.3390    3.2970 C   0  0  0  0  0  0  0  0  0  0  0  0
   -6.0740  -18.0250    5.8360 H   0  0  0  0  0  0  0  0  0  0  0  0
   -6.7405  -15.8776    8.1124 H   0  0  0  0  0  0  0  0  0  0  0  0
   -8.9510  -15.2650    9.0769 H   0  0  0  0  0  0  0  0  0  0  0  0
  -10.9191  -16.8141    5.5565 H   0  0  0  0  0  0  0  0  0  0  0  0
   -8.7062  -17.4259    4.5969 H   0  0  0  0  0  0  0  0  0  0  0  0
   -4.2080  -17.8350    5.0730 H   0  0  0  0  0  0  0  0  0  0  0  0
   -3.0406  -18.7433    3.1101 H   0  0  0  0  0  0  0  0  0  0  0  0
   -1.2708  -18.2493    1.4317 H   0  0  0  0  0  0  0  0  0  0  0  0
   -0.6239  -15.8948    0.9547 H   0  0  0  0  0  0  0  0  0  0  0  0
   -3.0022  -12.8014    3.4618 H   0  0  0  0  0  0  0  0  0  0  0  0
   -2.9798   -9.8985    3.6272 H   0  0  0  0  0  0  0  0  0  0  0  0
   -1.5070   -8.1113    2.2957 H   0  0  0  0  0  0  0  0  0  0  0  0
    0.9880  -11.0910   -0.3530 H   0  0  0  0  0  0  0  0  0  0  0  0
    2.1953  -13.5233   -0.2812 H   0  0  0  0  0  0  0  0  0  0  0  0
    0.6403  -13.9039   -1.0973 H   0  0  0  0  0  0  0  0  0  0  0  0
    2.4095  -10.6087   -1.3743 H   0  0  0  0  0  0  0  0  0  0  0  0
    3.2532   -9.7719   -3.5351 H   0  0  0  0  0  0  0  0  0  0  0  0
    2.3976  -13.4259   -5.4189 H   0  0  0  0  0  0  0  0  0  0  0  0
    1.5203  -14.3795   -3.3208 H   0  0  0  0  0  0  0  0  0  0  0  0
   -3.5650  -14.5159    3.8100 H   0  0  0  0  0  0  0  0  0  0  0  0
  1  2  2  0
  2  3  1  0
  3  4  1  0
  4  5  2  0
  5  6  1  0
  6  7  2  0
  7  8  1  0
  8  9  1  0
  8 10  1  0
  8 11  1  0
  7 12  1  0
 12 13  2  0
  2 14  1  0
 14 15  1  0
 15 16  2  0
 16 17  1  0
 17 18  2  0
 18 19  1  0
 19 20  1  0
 20 21  2  0
 21 22  1  0
 22 23  1  0
 23 24  2  0
 24 25  1  0
 25 26  2  0
 26 27  1  0
 27 28  1  0
 28 29  1  0
 29 30  1  0
 30 31  2  0
 31 32  1  0
 32 33  2  0
 33 34  1  0
 34 35  2  0
 27 36  2  0
 19 37  2  0
 13  4  1  0
 37 15  1  0
 36 20  1  0
 26 22  1  0
 35 30  1  0
  3 38  1  0
  5 39  1  0
  6 40  1  0
 12 41  1  0
 13 42  1  0
 14 43  1  0
 16 44  1  0
 17 45  1  0
 18 46  1  0
 21 47  1  0
 23 48  1  0
 24 49  1  0
 28 50  1  0
 29 51  1  0
 29 52  1  0
 31 53  1  0
 32 54  1  0
 34 55  1  0
 35 56  1  0
 37 57  1  0
M  END
>  <meeko>  (2) 
{"is_sidechain": [false], "free_energy": -9.32, "intermolecular_energy": -12.635, "internal_energy": -0.735}

$$$$
LIB_SNKYRRUHFHNPGP__M_PUB_ALL__e8__s20260927
     RDKit          3D

 57 61  0  0  0  0  0  0  0  0999 V2000
    6.5920  -14.6980   -5.6790 O   0  0  0  0  0  0  0  0  0  0  0  0
    6.5260  -13.7220   -6.4140 C   0  0  0  0  0  0  0  0  0  0  0  0
    5.8060  -12.5670   -6.1400 N   0  0  0  0  0  0  0  0  0  0  0  0
    4.9590  -12.3170   -5.0400 C   0  0  0  0  0  0  0  0  0  0  0  0
    5.3990  -11.8440   -3.8030 C   0  0  0  0  0  0  0  0  0  0  0  0
    4.4930  -11.6270   -2.7580 C   0  0  0  0  0  0  0  0  0  0  0  0
    3.1250  -11.8750   -2.9320 C   0  0  0  0  0  0  0  0  0  0  0  0
    2.1520  -11.6620   -1.7980 C   0  0  0  0  0  0  0  0  0  0  0  0
    1.2580  -12.6820   -1.6860 F   0  0  0  0  0  0  0  0  0  0  0  0
    2.7560  -11.5560   -0.5820 F   0  0  0  0  0  0  0  0  0  0  0  0
    1.4080  -10.5290   -1.9430 F   0  0  0  0  0  0  0  0  0  0  0  0
    2.6850  -12.3620   -4.1700 C   0  0  0  0  0  0  0  0  0  0  0  0
    3.5940  -12.5770   -5.2120 C   0  0  0  0  0  0  0  0  0  0  0  0
    7.1540  -13.6150   -7.6470 N   0  0  0  0  0  0  0  0  0  0  0  0
    8.0740  -14.5170   -8.2250 C   0  0  0  0  0  0  0  0  0  0  0  0
    7.5710  -15.4300   -9.1600 C   0  0  0  0  0  0  0  0  0  0  0  0
    8.4180  -16.3480   -9.7800 C   0  0  0  0  0  0  0  0  0  0  0  0
    9.7770  -16.3630   -9.4690 C   0  0  0  0  0  0  0  0  0  0  0  0
   10.3080  -15.4630   -8.5340 C   0  0  0  0  0  0  0  0  0  0  0  0
   11.7610  -15.4920   -8.2320 C   0  0  0  0  0  0  0  0  0  0  0  0
   12.6570  -15.5720   -9.2380 C   0  0  0  0  0  0  0  0  0  0  0  0
   13.9970  -15.5850   -8.9210 N   0  0  0  0  0  0  0  0  0  0  0  0
   15.1270  -15.6600   -9.6890 C   0  0  0  0  0  0  0  0  0  0  0  0
   16.1730  -15.6280   -8.7890 C   0  0  0  0  0  0  0  0  0  0  0  0
   15.7170  -15.5330   -7.4950 N   0  0  0  0  0  0  0  0  0  0  0  0
   14.4060  -15.5110   -7.6190 C   0  0  0  0  0  0  0  0  0  0  0  0
   13.4090  -15.4140   -6.5690 C   0  0  0  0  0  0  0  0  0  0  0  0
   13.7920  -15.3360   -5.2530 N   0  0  0  0  0  0  0  0  0  0  0  0
   12.8780  -15.2630   -4.1480 C   0  0  0  0  0  0  0  0  0  0  0  0
   12.9860  -13.9120   -3.4920 C   0  0  0  0  0  0  0  0  0  0  0  0
   12.0310  -13.4900   -2.5620 C   0  0  0  0  0  0  0  0  0  0  0  0
   12.1600  -12.2280   -2.0040 C   0  0  0  0  0  0  0  0  0  0  0  0
   13.1570  -11.3700   -2.3100 N   0  0  0  0  0  0  0  0  0  0  0  0
   14.0600  -11.7890   -3.2210 C   0  0  0  0  0  0  0  0  0  0  0  0
   14.0170  -13.0310   -3.8340 C   0  0  0  0  0  0  0  0  0  0  0  0
   12.1350  -15.4020   -6.8920 N   0  0  0  0  0  0  0  0  0  0  0  0
    9.4410  -14.5310   -7.9320 C   0  0  0  0  0  0  0  0  0  0  0  0
    5.9480  -11.7930   -6.7690 H   0  0  0  0  0  0  0  0  0  0  0  0
    6.4686  -11.6396   -3.6475 H   0  0  0  0  0  0  0  0  0  0  0  0
    4.8594  -11.2574   -1.7889 H   0  0  0  0  0  0  0  0  0  0  0  0
    1.6172  -12.5769   -4.3239 H   0  0  0  0  0  0  0  0  0  0  0  0
    3.2313  -12.9553   -6.1791 H   0  0  0  0  0  0  0  0  0  0  0  0
    6.8670  -12.8460   -8.2330 H   0  0  0  0  0  0  0  0  0  0  0  0
    6.4992  -15.4230   -9.4074 H   0  0  0  0  0  0  0  0  0  0  0  0
    8.0139  -17.0603  -10.5144 H   0  0  0  0  0  0  0  0  0  0  0  0
   10.4400  -17.0889   -9.9626 H   0  0  0  0  0  0  0  0  0  0  0  0
   12.3251  -15.6255  -10.2854 H   0  0  0  0  0  0  0  0  0  0  0  0
   15.1884  -15.7305  -10.7850 H   0  0  0  0  0  0  0  0  0  0  0  0
   17.2354  -15.6728   -9.0707 H   0  0  0  0  0  0  0  0  0  0  0  0
   14.7900  -15.3540   -5.0650 H   0  0  0  0  0  0  0  0  0  0  0  0
   11.8508  -15.4122   -4.5120 H   0  0  0  0  0  0  0  0  0  0  0  0
   13.1264  -16.0456   -3.4160 H   0  0  0  0  0  0  0  0  0  0  0  0
   11.1946  -14.1461   -2.2791 H   0  0  0  0  0  0  0  0  0  0  0  0
   11.4069  -11.9066   -1.2695 H   0  0  0  0  0  0  0  0  0  0  0  0
   14.8775  -11.1051   -3.4927 H   0  0  0  0  0  0  0  0  0  0  0  0
   14.7781  -13.3181   -4.5744 H   0  0  0  0  0  0  0  0  0  0  0  0
    9.8470  -13.7999   -7.2174 H   0  0  0  0  0  0  0  0  0  0  0  0
  1  2  2  0
  2  3  1  0
  3  4  1  0
  4  5  2  0
  5  6  1  0
  6  7  2  0
  7  8  1  0
  8  9  1  0
  8 10  1  0
  8 11  1  0
  7 12  1  0
 12 13  2  0
  2 14  1  0
 14 15  1  0
 15 16  2  0
 16 17  1  0
 17 18  2  0
 18 19  1  0
 19 20  1  0
 20 21  2  0
 21 22  1  0
 22 23  1  0
 23 24  2  0
 24 25  1  0
 25 26  2  0
 26 27  1  0
 27 28  1  0
 28 29  1  0
 29 30  1  0
 30 31  2  0
 31 32  1  0
 32 33  2  0
 33 34  1  0
 34 35  2  0
 27 36  2  0
 19 37  2  0
 13  4  1  0
 37 15  1  0
 36 20  1  0
 26 22  1  0
 35 30  1  0
  3 38  1  0
  5 39  1  0
  6 40  1  0
 12 41  1  0
 13 42  1  0
 14 43  1  0
 16 44  1  0
 17 45  1  0
 18 46  1  0
 21 47  1  0
 23 48  1  0
 24 49  1  0
 28 50  1  0
 29 51  1  0
 29 52  1  0
 31 53  1  0
 32 54  1  0
 34 55  1  0
 35 56  1  0
 37 57  1  0
M  END
>  <meeko>  (3) 
{"is_sidechain": [false], "free_energy": -9.312, "intermolecular_energy": -12.114, "internal_energy": -1.245}

$$$$
LIB_SNKYRRUHFHNPGP__M_PUB_ALL__e8__s20260927
     RDKit          3D

 57 61  0  0  0  0  0  0  0  0999 V2000
    5.5610  -12.0370   -7.1370 O   0  0  0  0  0  0  0  0  0  0  0  0
    5.7110  -13.2330   -6.9250 C   0  0  0  0  0  0  0  0  0  0  0  0
    5.1760  -13.9230   -5.8450 N   0  0  0  0  0  0  0  0  0  0  0  0
    4.4480  -13.3960   -4.7570 C   0  0  0  0  0  0  0  0  0  0  0  0
    4.9630  -13.2470   -3.4690 C   0  0  0  0  0  0  0  0  0  0  0  0
    4.1710  -12.7210   -2.4410 C   0  0  0  0  0  0  0  0  0  0  0  0
    2.8480  -12.3270   -2.6840 C   0  0  0  0  0  0  0  0  0  0  0  0
    1.9890  -11.7800   -1.5710 C   0  0  0  0  0  0  0  0  0  0  0  0
    1.3560  -10.6280   -1.9240 F   0  0  0  0  0  0  0  0  0  0  0  0
    1.0100  -12.6400   -1.1730 F   0  0  0  0  0  0  0  0  0  0  0  0
    2.7010  -11.4850   -0.4460 F   0  0  0  0  0  0  0  0  0  0  0  0
    2.3290  -12.4890   -3.9750 C   0  0  0  0  0  0  0  0  0  0  0  0
    3.1230  -13.0160   -5.0000 C   0  0  0  0  0  0  0  0  0  0  0  0
    6.4480  -14.0930   -7.7260 N   0  0  0  0  0  0  0  0  0  0  0  0
    7.0420  -13.8090   -8.9760 C   0  0  0  0  0  0  0  0  0  0  0  0
    6.2260  -13.9160  -10.1090 C   0  0  0  0  0  0  0  0  0  0  0  0
    6.7370  -13.6440  -11.3780 C   0  0  0  0  0  0  0  0  0  0  0  0
    8.0700  -13.2640  -11.5260 C   0  0  0  0  0  0  0  0  0  0  0  0
    8.9110  -13.1510  -10.4090 C   0  0  0  0  0  0  0  0  0  0  0  0
   10.3220  -12.7320  -10.5940 C   0  0  0  0  0  0  0  0  0  0  0  0
   11.3050  -13.6570  -10.6040 C   0  0  0  0  0  0  0  0  0  0  0  0
   12.6020  -13.2330  -10.7900 N   0  0  0  0  0  0  0  0  0  0  0  0
   13.7940  -13.9030  -10.8460 C   0  0  0  0  0  0  0  0  0  0  0  0
   14.7440  -12.9230  -11.0550 C   0  0  0  0  0  0  0  0  0  0  0  0
   14.1690  -11.6760  -11.1300 N   0  0  0  0  0  0  0  0  0  0  0  0
   12.8830  -11.9070  -10.9650 C   0  0  0  0  0  0  0  0  0  0  0  0
   11.7950  -10.9460  -10.9580 C   0  0  0  0  0  0  0  0  0  0  0  0
   12.0490   -9.6090  -11.1350 N   0  0  0  0  0  0  0  0  0  0  0  0
   11.0410   -8.5860  -11.1180 C   0  0  0  0  0  0  0  0  0  0  0  0
   11.5770   -7.3390  -11.7690 C   0  0  0  0  0  0  0  0  0  0  0  0
   11.6260   -6.1300  -11.0670 C   0  0  0  0  0  0  0  0  0  0  0  0
   12.1040   -5.0040  -11.7180 C   0  0  0  0  0  0  0  0  0  0  0  0
   12.5240   -4.9990  -13.0010 N   0  0  0  0  0  0  0  0  0  0  0  0
   12.4530   -6.1710  -13.6670 C   0  0  0  0  0  0  0  0  0  0  0  0
   11.9910   -7.3500  -13.1050 C   0  0  0  0  0  0  0  0  0  0  0  0
   10.5640  -11.3720  -10.7810 N   0  0  0  0  0  0  0  0  0  0  0  0
    8.3730  -13.4120   -9.1350 C   0  0  0  0  0  0  0  0  0  0  0  0
    5.2660  -14.9260   -5.8680 H   0  0  0  0  0  0  0  0  0  0  0  0
    6.0007  -13.5455   -3.2591 H   0  0  0  0  0  0  0  0  0  0  0  0
    4.5923  -12.6157   -1.4303 H   0  0  0  0  0  0  0  0  0  0  0  0
    1.2887  -12.1996   -4.1849 H   0  0  0  0  0  0  0  0  0  0  0  0
    2.7006  -13.1330   -6.0089 H   0  0  0  0  0  0  0  0  0  0  0  0
    6.6510  -15.0030   -7.3430 H   0  0  0  0  0  0  0  0  0  0  0  0
    5.1739  -14.2169   -9.9973 H   0  0  0  0  0  0  0  0  0  0  0  0
    6.0881  -13.7294  -12.2621 H   0  0  0  0  0  0  0  0  0  0  0  0
    8.4667  -13.0504  -12.5295 H   0  0  0  0  0  0  0  0  0  0  0  0
   11.0756  -14.7240  -10.4669 H   0  0  0  0  0  0  0  0  0  0  0  0
   13.9592  -14.9859  -10.7463 H   0  0  0  0  0  0  0  0  0  0  0  0
   15.8230  -13.1152  -11.1494 H   0  0  0  0  0  0  0  0  0  0  0  0
   13.0200   -9.3410  -11.2620 H   0  0  0  0  0  0  0  0  0  0  0  0
   10.1555   -8.9352  -11.6693 H   0  0  0  0  0  0  0  0  0  0  0  0
   10.7626   -8.3643  -10.0772 H   0  0  0  0  0  0  0  0  0  0  0  0
   11.2922   -6.0743  -10.0204 H   0  0  0  0  0  0  0  0  0  0  0  0
   12.1435   -4.0589  -11.1565 H   0  0  0  0  0  0  0  0  0  0  0  0
   12.7810   -6.1911  -14.7168 H   0  0  0  0  0  0  0  0  0  0  0  0
   11.9506   -8.2760  -13.6974 H   0  0  0  0  0  0  0  0  0  0  0  0
    9.0124  -13.3014   -8.2468 H   0  0  0  0  0  0  0  0  0  0  0  0
  1  2  2  0
  2  3  1  0
  3  4  1  0
  4  5  2  0
  5  6  1  0
  6  7  2  0
  7  8  1  0
  8  9  1  0
  8 10  1  0
  8 11  1  0
  7 12  1  0
 12 13  2  0
  2 14  1  0
 14 15  1  0
 15 16  2  0
 16 17  1  0
 17 18  2  0
 18 19  1  0
 19 20  1  0
 20 21  2  0
 21 22  1  0
 22 23  1  0
 23 24  2  0
 24 25  1  0
 25 26  2  0
 26 27  1  0
 27 28  1  0
 28 29  1  0
 29 30  1  0
 30 31  2  0
 31 32  1  0
 32 33  2  0
 33 34  1  0
 34 35  2  0
 27 36  2  0
 19 37  2  0
 13  4  1  0
 37 15  1  0
 36 20  1  0
 26 22  1  0
 35 30  1  0
  3 38  1  0
  5 39  1  0
  6 40  1  0
 12 41  1  0
 13 42  1  0
 14 43  1  0
 16 44  1  0
 17 45  1  0
 18 46  1  0
 21 47  1  0
 23 48  1  0
 24 49  1  0
 28 50  1  0
 29 51  1  0
 29 52  1  0
 31 53  1  0
 32 54  1  0
 34 55  1  0
 35 56  1  0
 37 57  1  0
M  END
>  <meeko>  (4) 
{"is_sidechain": [false], "free_energy": -9.211, "intermolecular_energy": -12.274, "internal_energy": -0.949}

$$$$
LIB_SNKYRRUHFHNPGP__M_PUB_ALL__e8__s20260927
     RDKit          3D

 57 61  0  0  0  0  0  0  0  0999 V2000
   -5.0160  -16.1360    5.9670 O   0  0  0  0  0  0  0  0  0  0  0  0
   -5.4370  -17.0640    5.2890 C   0  0  0  0  0  0  0  0  0  0  0  0
   -6.7670  -17.4550    5.2140 N   0  0  0  0  0  0  0  0  0  0  0  0
   -7.8610  -16.9430    5.9420 C   0  0  0  0  0  0  0  0  0  0  0  0
   -7.8090  -16.5950    7.2930 C   0  0  0  0  0  0  0  0  0  0  0  0
   -8.9440  -16.0990    7.9450 C   0  0  0  0  0  0  0  0  0  0  0  0
  -10.1540  -15.9360    7.2580 C   0  0  0  0  0  0  0  0  0  0  0  0
  -11.3830  -15.4220    7.9680 C   0  0  0  0  0  0  0  0  0  0  0  0
  -11.0740  -14.7080    9.0840 F   0  0  0  0  0  0  0  0  0  0  0  0
  -12.1480  -14.6020    7.1950 F   0  0  0  0  0  0  0  0  0  0  0  0
  -12.2130  -16.4210    8.3820 F   0  0  0  0  0  0  0  0  0  0  0  0
  -10.2080  -16.2990    5.9050 C   0  0  0  0  0  0  0  0  0  0  0  0
   -9.0720  -16.7940    5.2560 C   0  0  0  0  0  0  0  0  0  0  0  0
   -4.6500  -17.8820    4.4910 N   0  0  0  0  0  0  0  0  0  0  0  0
   -3.2760  -17.7350    4.1990 C   0  0  0  0  0  0  0  0  0  0  0  0
   -2.3680  -18.3310    5.0830 C   0  0  0  0  0  0  0  0  0  0  0  0
   -0.9950  -18.2360    4.8590 C   0  0  0  0  0  0  0  0  0  0  0  0
   -0.5160  -17.5420    3.7490 C   0  0  0  0  0  0  0  0  0  0  0  0
   -1.4010  -16.9330    2.8490 C   0  0  0  0  0  0  0  0  0  0  0  0
   -0.8650  -16.2120    1.6680 C   0  0  0  0  0  0  0  0  0  0  0  0
    0.2080  -16.7000    1.0100 C   0  0  0  0  0  0  0  0  0  0  0  0
    0.6720  -16.0110   -0.0890 N   0  0  0  0  0  0  0  0  0  0  0  0
    1.7130  -16.2360   -0.9480 C   0  0  0  0  0  0  0  0  0  0  0  0
    1.6640  -15.1910   -1.8490 C   0  0  0  0  0  0  0  0  0  0  0  0
    0.6240  -14.3360   -1.5670 N   0  0  0  0  0  0  0  0  0  0  0  0
    0.0540  -14.8650   -0.5040 C   0  0  0  0  0  0  0  0  0  0  0  0
   -1.1030  -14.3800    0.2260 C   0  0  0  0  0  0  0  0  0  0  0  0
   -1.7430  -13.2330   -0.1710 N   0  0  0  0  0  0  0  0  0  0  0  0
   -2.8780  -12.6660    0.5040 C   0  0  0  0  0  0  0  0  0  0  0  0
   -2.4280  -11.5230    1.3750 C   0  0  0  0  0  0  0  0  0  0  0  0
   -2.4410  -10.2100    0.8950 C   0  0  0  0  0  0  0  0  0  0  0  0
   -1.9930   -9.1950    1.7260 C   0  0  0  0  0  0  0  0  0  0  0  0
   -1.5340   -9.3980    2.9800 N   0  0  0  0  0  0  0  0  0  0  0  0
   -1.5140  -10.6740    3.4190 C   0  0  0  0  0  0  0  0  0  0  0  0
   -1.9400  -11.7560    2.6650 C   0  0  0  0  0  0  0  0  0  0  0  0
   -1.5300  -15.0530    1.2710 N   0  0  0  0  0  0  0  0  0  0  0  0
   -2.7840  -17.0540    3.0810 C   0  0  0  0  0  0  0  0  0  0  0  0
   -6.9900  -18.1460    4.5150 H   0  0  0  0  0  0  0  0  0  0  0  0
   -6.8677  -16.7116    7.8501 H   0  0  0  0  0  0  0  0  0  0  0  0
   -8.8851  -15.8337    9.0109 H   0  0  0  0  0  0  0  0  0  0  0  0
  -11.1514  -16.1937    5.3492 H   0  0  0  0  0  0  0  0  0  0  0  0
   -9.1311  -17.0697    4.1928 H   0  0  0  0  0  0  0  0  0  0  0  0
   -5.0850  -18.7190    4.1370 H   0  0  0  0  0  0  0  0  0  0  0  0
   -2.7409  -18.8785    5.9612 H   0  0  0  0  0  0  0  0  0  0  0  0
   -0.2897  -18.7088    5.5583 H   0  0  0  0  0  0  0  0  0  0  0  0
    0.5683  -17.4716    3.5776 H   0  0  0  0  0  0  0  0  0  0  0  0
    0.7000  -17.6256    1.3434 H   0  0  0  0  0  0  0  0  0  0  0  0
    2.4321  -17.0681   -0.9256 H   0  0  0  0  0  0  0  0  0  0  0  0
    2.3665  -15.0591   -2.6851 H   0  0  0  0  0  0  0  0  0  0  0  0
   -1.3640  -12.7550   -0.9820 H   0  0  0  0  0  0  0  0  0  0  0  0
   -3.5999  -12.2975   -0.2397 H   0  0  0  0  0  0  0  0  0  0  0  0
   -3.3540  -13.4362    1.1287 H   0  0  0  0  0  0  0  0  0  0  0  0
   -2.7992   -9.9870   -0.1208 H   0  0  0  0  0  0  0  0  0  0  0  0
   -2.0124   -8.1644    1.3419 H   0  0  0  0  0  0  0  0  0  0  0  0
   -1.1376  -10.8665    4.4345 H   0  0  0  0  0  0  0  0  0  0  0  0
   -1.8953  -12.7767    3.0725 H   0  0  0  0  0  0  0  0  0  0  0  0
   -3.4916  -16.6041    2.3690 H   0  0  0  0  0  0  0  0  0  0  0  0
  1  2  2  0
  2  3  1  0
  3  4  1  0
  4  5  2  0
  5  6  1  0
  6  7  2  0
  7  8  1  0
  8  9  1  0
  8 10  1  0
  8 11  1  0
  7 12  1  0
 12 13  2  0
  2 14  1  0
 14 15  1  0
 15 16  2  0
 16 17  1  0
 17 18  2  0
 18 19  1  0
 19 20  1  0
 20 21  2  0
 21 22  1  0
 22 23  1  0
 23 24  2  0
 24 25  1  0
 25 26  2  0
 26 27  1  0
 27 28  1  0
 28 29  1  0
 29 30  1  0
 30 31  2  0
 31 32  1  0
 32 33  2  0
 33 34  1  0
 34 35  2  0
 27 36  2  0
 19 37  2  0
 13  4  1  0
 37 15  1  0
 36 20  1  0
 26 22  1  0
 35 30  1  0
  3 38  1  0
  5 39  1  0
  6 40  1  0
 12 41  1  0
 13 42  1  0
 14 43  1  0
 16 44  1  0
 17 45  1  0
 18 46  1  0
 21 47  1  0
 23 48  1  0
 24 49  1  0
 28 50  1  0
 29 51  1  0
 29 52  1  0
 31 53  1  0
 32 54  1  0
 34 55  1  0
 35 56  1  0
 37 57  1  0
M  END
>  <meeko>  (5) 
{"is_sidechain": [false], "free_energy": -9.17, "intermolecular_energy": -12.171, "internal_energy": -0.996}

$$$$
LIB_SNKYRRUHFHNPGP__M_PUB_ALL__e8__s20260927
     RDKit          3D

 57 61  0  0  0  0  0  0  0  0999 V2000
    6.6840  -10.8130   -1.1010 O   0  0  0  0  0  0  0  0  0  0  0  0
    6.6420  -12.0220   -0.9130 C   0  0  0  0  0  0  0  0  0  0  0  0
    7.7170  -12.8010   -0.5050 N   0  0  0  0  0  0  0  0  0  0  0  0
    9.0550  -12.3970   -0.3140 C   0  0  0  0  0  0  0  0  0  0  0  0
    9.5450  -11.8470    0.8710 C   0  0  0  0  0  0  0  0  0  0  0  0
   10.8880  -11.4650    0.9770 C   0  0  0  0  0  0  0  0  0  0  0  0
   11.7690  -11.6310   -0.0990 C   0  0  0  0  0  0  0  0  0  0  0  0
   13.2110  -11.1980    0.0090 C   0  0  0  0  0  0  0  0  0  0  0  0
   13.3370   -9.9390    0.5090 F   0  0  0  0  0  0  0  0  0  0  0  0
   13.9550  -12.0010    0.8200 F   0  0  0  0  0  0  0  0  0  0  0  0
   13.8540  -11.1890   -1.1930 F   0  0  0  0  0  0  0  0  0  0  0  0
   11.2720  -12.1710   -1.2930 C   0  0  0  0  0  0  0  0  0  0  0  0
    9.9290  -12.5510   -1.3960 C   0  0  0  0  0  0  0  0  0  0  0  0
    5.5140  -12.8110   -1.0850 N   0  0  0  0  0  0  0  0  0  0  0  0
    4.1990  -12.3830   -1.3690 C   0  0  0  0  0  0  0  0  0  0  0  0
    3.8810  -12.1410   -2.7120 C   0  0  0  0  0  0  0  0  0  0  0  0
    2.6020  -11.7220   -3.0730 C   0  0  0  0  0  0  0  0  0  0  0  0
    1.6260  -11.5380   -2.0940 C   0  0  0  0  0  0  0  0  0  0  0  0
    1.9160  -11.7700   -0.7410 C   0  0  0  0  0  0  0  0  0  0  0  0
    0.8550  -11.5800    0.2780 C   0  0  0  0  0  0  0  0  0  0  0  0
    0.0430  -10.5030    0.2140 C   0  0  0  0  0  0  0  0  0  0  0  0
   -0.9390  -10.3660    1.1710 N   0  0  0  0  0  0  0  0  0  0  0  0
   -1.8960   -9.4120    1.3810 C   0  0  0  0  0  0  0  0  0  0  0  0
   -2.5810   -9.8330    2.5020 C   0  0  0  0  0  0  0  0  0  0  0  0
   -2.0720  -11.0170    2.9830 N   0  0  0  0  0  0  0  0  0  0  0  0
   -1.0880  -11.3020    2.1550 C   0  0  0  0  0  0  0  0  0  0  0  0
   -0.2000  -12.4500    2.1810 C   0  0  0  0  0  0  0  0  0  0  0  0
   -0.3300  -13.4060    3.1580 N   0  0  0  0  0  0  0  0  0  0  0  0
    0.5170  -14.5600    3.2760 C   0  0  0  0  0  0  0  0  0  0  0  0
   -0.2440  -15.7890    2.8560 C   0  0  0  0  0  0  0  0  0  0  0  0
   -0.1120  -16.3050    1.5630 C   0  0  0  0  0  0  0  0  0  0  0  0
   -0.8520  -17.4240    1.2160 C   0  0  0  0  0  0  0  0  0  0  0  0
   -1.7060  -18.0490    2.0540 N   0  0  0  0  0  0  0  0  0  0  0  0
   -1.8320  -17.5280    3.2930 C   0  0  0  0  0  0  0  0  0  0  0  0
   -1.1360  -16.4130    3.7340 C   0  0  0  0  0  0  0  0  0  0  0  0
    0.7290  -12.5630    1.2580 N   0  0  0  0  0  0  0  0  0  0  0  0
    3.2080  -12.2100   -0.3980 C   0  0  0  0  0  0  0  0  0  0  0  0
    7.5070  -13.7560   -0.2600 H   0  0  0  0  0  0  0  0  0  0  0  0
    8.8705  -11.7123    1.7294 H   0  0  0  0  0  0  0  0  0  0  0  0
   11.2558  -11.0289    1.9175 H   0  0  0  0  0  0  0  0  0  0  0  0
   11.9426  -12.2971   -2.1558 H   0  0  0  0  0  0  0  0  0  0  0  0
    9.5557  -12.9761   -2.3394 H   0  0  0  0  0  0  0  0  0  0  0  0
    5.6590  -13.8090   -1.0840 H   0  0  0  0  0  0  0  0  0  0  0  0
    4.6476  -12.2830   -3.4880 H   0  0  0  0  0  0  0  0  0  0  0  0
    2.3621  -11.5363   -4.1304 H   0  0  0  0  0  0  0  0  0  0  0  0
    0.6182  -11.2075   -2.3856 H   0  0  0  0  0  0  0  0  0  0  0  0
    0.1624   -9.7536   -0.5823 H   0  0  0  0  0  0  0  0  0  0  0  0
   -2.0797   -8.5057    0.7854 H   0  0  0  0  0  0  0  0  0  0  0  0
   -3.4256   -9.2916    2.9532 H   0  0  0  0  0  0  0  0  0  0  0  0
   -1.0630  -13.2610    3.8450 H   0  0  0  0  0  0  0  0  0  0  0  0
    1.3977  -14.4356    2.6288 H   0  0  0  0  0  0  0  0  0  0  0  0
    0.8413  -14.6702    4.3213 H   0  0  0  0  0  0  0  0  0  0  0  0
    0.5653  -15.8324    0.8364 H   0  0  0  0  0  0  0  0  0  0  0  0
   -0.7368  -17.8263    0.1987 H   0  0  0  0  0  0  0  0  0  0  0  0
   -2.5265  -18.0160    3.9926 H   0  0  0  0  0  0  0  0  0  0  0  0
   -1.2824  -16.0270    4.7536 H   0  0  0  0  0  0  0  0  0  0  0  0
    3.4430  -12.4221    0.6555 H   0  0  0  0  0  0  0  0  0  0  0  0
  1  2  2  0
  2  3  1  0
  3  4  1  0
  4  5  2  0
  5  6  1  0
  6  7  2  0
  7  8  1  0
  8  9  1  0
  8 10  1  0
  8 11  1  0
  7 12  1  0
 12 13  2  0
  2 14  1  0
 14 15  1  0
 15 16  2  0
 16 17  1  0
 17 18  2  0
 18 19  1  0
 19 20  1  0
 20 21  2  0
 21 22  1  0
 22 23  1  0
 23 24  2  0
 24 25  1  0
 25 26  2  0
 26 27  1  0
 27 28  1  0
 28 29  1  0
 29 30  1  0
 30 31  2  0
 31 32  1  0
 32 33  2  0
 33 34  1  0
 34 35  2  0
 27 36  2  0
 19 37  2  0
 13  4  1  0
 37 15  1  0
 36 20  1  0
 26 22  1  0
 35 30  1  0
  3 38  1  0
  5 39  1  0
  6 40  1  0
 12 41  1  0
 13 42  1  0
 14 43  1  0
 16 44  1  0
 17 45  1  0
 18 46  1  0
 21 47  1  0
 23 48  1  0
 24 49  1  0
 28 50  1  0
 29 51  1  0
 29 52  1  0
 31 53  1  0
 32 54  1  0
 34 55  1  0
 35 56  1  0
 37 57  1  0
M  END
>  <meeko>  (6) 
{"is_sidechain": [false], "free_energy": -9.122, "intermolecular_energy": -11.927, "internal_energy": -1.175}

$$$$
LIB_SNKYRRUHFHNPGP__M_PUB_ALL__e8__s20260927
     RDKit          3D

 57 61  0  0  0  0  0  0  0  0999 V2000
    6.1500  -12.4050   -5.4960 O   0  0  0  0  0  0  0  0  0  0  0  0
    5.2520  -12.7490   -6.2530 C   0  0  0  0  0  0  0  0  0  0  0  0
    5.4390  -13.2850   -7.5200 N   0  0  0  0  0  0  0  0  0  0  0  0
    6.6550  -13.4570   -8.2150 C   0  0  0  0  0  0  0  0  0  0  0  0
    7.6080  -14.4260   -7.8980 C   0  0  0  0  0  0  0  0  0  0  0  0
    8.7950  -14.5260   -8.6340 C   0  0  0  0  0  0  0  0  0  0  0  0
    9.0490  -13.6620   -9.7070 C   0  0  0  0  0  0  0  0  0  0  0  0
   10.3380  -13.7570  -10.4860 C   0  0  0  0  0  0  0  0  0  0  0  0
   10.9950  -14.9270  -10.2590 F   0  0  0  0  0  0  0  0  0  0  0  0
   10.1590  -13.6820  -11.8350 F   0  0  0  0  0  0  0  0  0  0  0  0
   11.2210  -12.7660  -10.1750 F   0  0  0  0  0  0  0  0  0  0  0  0
    8.0970  -12.6810  -10.0160 C   0  0  0  0  0  0  0  0  0  0  0  0
    6.9120  -12.5830   -9.2780 C   0  0  0  0  0  0  0  0  0  0  0  0
    3.8970  -12.6530   -5.9680 N   0  0  0  0  0  0  0  0  0  0  0  0
    3.2990  -12.2800   -4.7440 C   0  0  0  0  0  0  0  0  0  0  0  0
    3.2810  -10.9150   -4.4320 C   0  0  0  0  0  0  0  0  0  0  0  0
    2.7020  -10.4670   -3.2450 C   0  0  0  0  0  0  0  0  0  0  0  0
    2.1380  -11.3810   -2.3570 C   0  0  0  0  0  0  0  0  0  0  0  0
    2.1440  -12.7540   -2.6410 C   0  0  0  0  0  0  0  0  0  0  0  0
    1.5230  -13.7040   -1.6850 C   0  0  0  0  0  0  0  0  0  0  0  0
    1.7920  -15.0240   -1.7760 C   0  0  0  0  0  0  0  0  0  0  0  0
    1.2080  -15.8750   -0.8640 N   0  0  0  0  0  0  0  0  0  0  0  0
    1.2730  -17.2310   -0.6930 C   0  0  0  0  0  0  0  0  0  0  0  0
    0.4660  -17.4920    0.3970 C   0  0  0  0  0  0  0  0  0  0  0  0
   -0.0880  -16.3380    0.8970 N   0  0  0  0  0  0  0  0  0  0  0  0
    0.3820  -15.3900    0.1120 C   0  0  0  0  0  0  0  0  0  0  0  0
    0.1290  -13.9630    0.1800 C   0  0  0  0  0  0  0  0  0  0  0  0
   -0.6940  -13.4500    1.1510 N   0  0  0  0  0  0  0  0  0  0  0  0
   -1.0210  -12.0570    1.2800 C   0  0  0  0  0  0  0  0  0  0  0  0
   -2.3980  -11.8090    0.7250 C   0  0  0  0  0  0  0  0  0  0  0  0
   -3.4090  -12.7660    0.8630 C   0  0  0  0  0  0  0  0  0  0  0  0
   -4.6530  -12.5020    0.3120 C   0  0  0  0  0  0  0  0  0  0  0  0
   -4.9510  -11.3700   -0.3610 N   0  0  0  0  0  0  0  0  0  0  0  0
   -3.9590  -10.4650   -0.4970 C   0  0  0  0  0  0  0  0  0  0  0  0
   -2.6840  -10.6370    0.0170 C   0  0  0  0  0  0  0  0  0  0  0  0
    0.6970  -13.1680   -0.6990 N   0  0  0  0  0  0  0  0  0  0  0  0
    2.7160  -13.1860   -3.8530 C   0  0  0  0  0  0  0  0  0  0  0  0
    4.6180  -13.6480   -7.9770 H   0  0  0  0  0  0  0  0  0  0  0  0
    7.4250  -15.1175   -7.0623 H   0  0  0  0  0  0  0  0  0  0  0  0
    9.5372  -15.2925   -8.3663 H   0  0  0  0  0  0  0  0  0  0  0  0
    8.2827  -11.9825  -10.8452 H   0  0  0  0  0  0  0  0  0  0  0  0
    6.1735  -11.8098   -9.5363 H   0  0  0  0  0  0  0  0  0  0  0  0
    3.2640  -12.7900   -6.7410 H   0  0  0  0  0  0  0  0  0  0  0  0
    3.7272  -10.1902   -5.1288 H   0  0  0  0  0  0  0  0  0  0  0  0
    2.6905   -9.3925   -3.0098 H   0  0  0  0  0  0  0  0  0  0  0  0
    1.6829  -11.0211   -1.4225 H   0  0  0  0  0  0  0  0  0  0  0  0
    2.4610  -15.4102   -2.5591 H   0  0  0  0  0  0  0  0  0  0  0  0
    1.8436  -17.9553   -1.2929 H   0  0  0  0  0  0  0  0  0  0  0  0
    0.2893  -18.4953    0.8119 H   0  0  0  0  0  0  0  0  0  0  0  0
   -1.1070  -14.1140    1.7980 H   0  0  0  0  0  0  0  0  0  0  0  0
   -0.9975  -11.7721    2.3422 H   0  0  0  0  0  0  0  0  0  0  0  0
   -0.2880  -11.4561    0.7217 H   0  0  0  0  0  0  0  0  0  0  0  0
   -3.2205  -13.7086    1.3978 H   0  0  0  0  0  0  0  0  0  0  0  0
   -5.4431  -13.2582    0.4297 H   0  0  0  0  0  0  0  0  0  0  0  0
   -4.1752   -9.5376   -1.0476 H   0  0  0  0  0  0  0  0  0  0  0  0
   -1.9119   -9.8672   -0.1288 H   0  0  0  0  0  0  0  0  0  0  0  0
    2.7039  -14.2570   -4.1036 H   0  0  0  0  0  0  0  0  0  0  0  0
  1  2  2  0
  2  3  1  0
  3  4  1  0
  4  5  2  0
  5  6  1  0
  6  7  2  0
  7  8  1  0
  8  9  1  0
  8 10  1  0
  8 11  1  0
  7 12  1  0
 12 13  2  0
  2 14  1  0
 14 15  1  0
 15 16  2  0
 16 17  1  0
 17 18  2  0
 18 19  1  0
 19 20  1  0
 20 21  2  0
 21 22  1  0
 22 23  1  0
 23 24  2  0
 24 25  1  0
 25 26  2  0
 26 27  1  0
 27 28  1  0
 28 29  1  0
 29 30  1  0
 30 31  2  0
 31 32  1  0
 32 33  2  0
 33 34  1  0
 34 35  2  0
 27 36  2  0
 19 37  2  0
 13  4  1  0
 37 15  1  0
 36 20  1  0
 26 22  1  0
 35 30  1  0
  3 38  1  0
  5 39  1  0
  6 40  1  0
 12 41  1  0
 13 42  1  0
 14 43  1  0
 16 44  1  0
 17 45  1  0
 18 46  1  0
 21 47  1  0
 23 48  1  0
 24 49  1  0
 28 50  1  0
 29 51  1  0
 29 52  1  0
 31 53  1  0
 32 54  1  0
 34 55  1  0
 35 56  1  0
 37 57  1  0
M  END
>  <meeko>  (7) 
{"is_sidechain": [false], "free_energy": -9.061, "intermolecular_energy": -11.906, "internal_energy": -1.114}

$$$$
LIB_SNKYRRUHFHNPGP__M_PUB_ALL__e8__s20260927
     RDKit          3D

 57 61  0  0  0  0  0  0  0  0999 V2000
    3.8600  -12.7240    1.0560 O   0  0  0  0  0  0  0  0  0  0  0  0
    3.4730  -12.9090   -0.0910 C   0  0  0  0  0  0  0  0  0  0  0  0
    2.3050  -12.3880   -0.6310 N   0  0  0  0  0  0  0  0  0  0  0  0
    1.3080  -11.6370    0.0270 C   0  0  0  0  0  0  0  0  0  0  0  0
    1.1610  -10.2550   -0.0940 C   0  0  0  0  0  0  0  0  0  0  0  0
    0.1470   -9.5830    0.6000 C   0  0  0  0  0  0  0  0  0  0  0  0
   -0.7440  -10.2820    1.4240 C   0  0  0  0  0  0  0  0  0  0  0  0
   -1.8230   -9.5540    2.1880 C   0  0  0  0  0  0  0  0  0  0  0  0
   -2.6620  -10.4070    2.8360 F   0  0  0  0  0  0  0  0  0  0  0  0
   -1.3330   -8.7120    3.1410 F   0  0  0  0  0  0  0  0  0  0  0  0
   -2.6150   -8.7870    1.3870 F   0  0  0  0  0  0  0  0  0  0  0  0
   -0.5870  -11.6680    1.5550 C   0  0  0  0  0  0  0  0  0  0  0  0
    0.4280  -12.3370    0.8600 C   0  0  0  0  0  0  0  0  0  0  0  0
    4.1380  -13.6770   -1.0360 N   0  0  0  0  0  0  0  0  0  0  0  0
    5.4150  -14.2700   -0.9200 C   0  0  0  0  0  0  0  0  0  0  0  0
    5.4600  -15.6380   -0.6250 C   0  0  0  0  0  0  0  0  0  0  0  0
    6.6820  -16.2970   -0.5010 C   0  0  0  0  0  0  0  0  0  0  0  0
    7.8740  -15.5920   -0.6690 C   0  0  0  0  0  0  0  0  0  0  0  0
    7.8600  -14.2210   -0.9630 C   0  0  0  0  0  0  0  0  0  0  0  0
    9.1420  -13.4980   -1.1500 C   0  0  0  0  0  0  0  0  0  0  0  0
    9.6830  -12.8070   -0.1240 C   0  0  0  0  0  0  0  0  0  0  0  0
   10.8810  -12.1590   -0.3310 N   0  0  0  0  0  0  0  0  0  0  0  0
   11.6670  -11.3910    0.4830 C   0  0  0  0  0  0  0  0  0  0  0  0
   12.7430  -11.0250   -0.3010 C   0  0  0  0  0  0  0  0  0  0  0  0
   12.6370  -11.5470   -1.5690 N   0  0  0  0  0  0  0  0  0  0  0  0
   11.5050  -12.2200   -1.5450 C   0  0  0  0  0  0  0  0  0  0  0  0
   10.8940  -12.9830   -2.6180 C   0  0  0  0  0  0  0  0  0  0  0  0
   11.5020  -13.0630   -3.8460 N   0  0  0  0  0  0  0  0  0  0  0  0
   10.9600  -13.7730   -4.9710 C   0  0  0  0  0  0  0  0  0  0  0  0
   12.0480  -14.5770   -5.6320 C   0  0  0  0  0  0  0  0  0  0  0  0
   13.3960  -14.2990   -5.3810 C   0  0  0  0  0  0  0  0  0  0  0  0
   14.3610  -15.0500   -6.0340 C   0  0  0  0  0  0  0  0  0  0  0  0
   14.0790  -16.0380   -6.9100 N   0  0  0  0  0  0  0  0  0  0  0  0
   12.7730  -16.2810   -7.1510 C   0  0  0  0  0  0  0  0  0  0  0  0
   11.7360  -15.5850   -6.5490 C   0  0  0  0  0  0  0  0  0  0  0  0
    9.7530  -13.5960   -2.4000 N   0  0  0  0  0  0  0  0  0  0  0  0
    6.6160  -13.5770   -1.1020 C   0  0  0  0  0  0  0  0  0  0  0  0
    2.1800  -12.5090   -1.6230 H   0  0  0  0  0  0  0  0  0  0  0  0
    1.8475   -9.6882   -0.7401 H   0  0  0  0  0  0  0  0  0  0  0  0
    0.0491   -8.4923    0.4966 H   0  0  0  0  0  0  0  0  0  0  0  0
   -1.2662  -12.2349    2.2087 H   0  0  0  0  0  0  0  0  0  0  0  0
    0.5349  -13.4262    0.9702 H   0  0  0  0  0  0  0  0  0  0  0  0
    3.6250  -13.9050   -1.8730 H   0  0  0  0  0  0  0  0  0  0  0  0
    4.5227  -16.1976   -0.4899 H   0  0  0  0  0  0  0  0  0  0  0  0
    6.7064  -17.3724   -0.2708 H   0  0  0  0  0  0  0  0  0  0  0  0
    8.8354  -16.1173   -0.5698 H   0  0  0  0  0  0  0  0  0  0  0  0
    9.1797  -12.7625    0.8531 H   0  0  0  0  0  0  0  0  0  0  0  0
   11.4822  -11.1231    1.5338 H   0  0  0  0  0  0  0  0  0  0  0  0
   13.5775  -10.3969    0.0441 H   0  0  0  0  0  0  0  0  0  0  0  0
   12.3800  -12.5650   -3.9550 H   0  0  0  0  0  0  0  0  0  0  0  0
   10.1624  -14.4485   -4.6280 H   0  0  0  0  0  0  0  0  0  0  0  0
   10.5473  -13.0532   -5.6932 H   0  0  0  0  0  0  0  0  0  0  0  0
   13.6840  -13.5014   -4.6803 H   0  0  0  0  0  0  0  0  0  0  0  0
   15.4182  -14.8281   -5.8264 H   0  0  0  0  0  0  0  0  0  0  0  0
   12.5170  -17.0768   -7.8660 H   0  0  0  0  0  0  0  0  0  0  0  0
   10.6886  -15.8212   -6.7882 H   0  0  0  0  0  0  0  0  0  0  0  0
    6.5880  -12.5078   -1.3588 H   0  0  0  0  0  0  0  0  0  0  0  0
  1  2  2  0
  2  3  1  0
  3  4  1  0
  4  5  2  0
  5  6  1  0
  6  7  2  0
  7  8  1  0
  8  9  1  0
  8 10  1  0
  8 11  1  0
  7 12  1  0
 12 13  2  0
  2 14  1  0
 14 15  1  0
 15 16  2  0
 16 17  1  0
 17 18  2  0
 18 19  1  0
 19 20  1  0
 20 21  2  0
 21 22  1  0
 22 23  1  0
 23 24  2  0
 24 25  1  0
 25 26  2  0
 26 27  1  0
 27 28  1  0
 28 29  1  0
 29 30  1  0
 30 31  2  0
 31 32  1  0
 32 33  2  0
 33 34  1  0
 34 35  2  0
 27 36  2  0
 19 37  2  0
 13  4  1  0
 37 15  1  0
 36 20  1  0
 26 22  1  0
 35 30  1  0
  3 38  1  0
  5 39  1  0
  6 40  1  0
 12 41  1  0
 13 42  1  0
 14 43  1  0
 16 44  1  0
 17 45  1  0
 18 46  1  0
 21 47  1  0
 23 48  1  0
 24 49  1  0
 28 50  1  0
 29 51  1  0
 29 52  1  0
 31 53  1  0
 32 54  1  0
 34 55  1  0
 35 56  1  0
 37 57  1  0
M  END
>  <meeko>  (8) 
{"is_sidechain": [false], "free_energy": -8.818, "intermolecular_energy": -11.663, "internal_energy": -1.028}

$$$$
LIB_SNKYRRUHFHNPGP__M_PUB_ALL__e8__s20260927
     RDKit          3D

 57 61  0  0  0  0  0  0  0  0999 V2000
    5.8310  -14.2620   -2.4700 O   0  0  0  0  0  0  0  0  0  0  0  0
    5.6050  -13.0590   -2.5030 C   0  0  0  0  0  0  0  0  0  0  0  0
    6.5720  -12.0650   -2.4340 N   0  0  0  0  0  0  0  0  0  0  0  0
    7.9590  -12.2210   -2.2300 C   0  0  0  0  0  0  0  0  0  0  0  0
    8.5410  -12.5270   -0.9990 C   0  0  0  0  0  0  0  0  0  0  0  0
    9.9300  -12.6590   -0.8800 C   0  0  0  0  0  0  0  0  0  0  0  0
   10.7650  -12.4940   -1.9930 C   0  0  0  0  0  0  0  0  0  0  0  0
   12.2630  -12.6150   -1.8590 C   0  0  0  0  0  0  0  0  0  0  0  0
   12.9250  -11.6970   -2.6150 F   0  0  0  0  0  0  0  0  0  0  0  0
   12.7060  -12.4410   -0.5830 F   0  0  0  0  0  0  0  0  0  0  0  0
   12.7350  -13.8320   -2.2520 F   0  0  0  0  0  0  0  0  0  0  0  0
   10.1810  -12.1740   -3.2260 C   0  0  0  0  0  0  0  0  0  0  0  0
    8.7920  -12.0430   -3.3410 C   0  0  0  0  0  0  0  0  0  0  0  0
    4.3420  -12.4930   -2.6050 N   0  0  0  0  0  0  0  0  0  0  0  0
    3.1160  -13.1600   -2.8230 C   0  0  0  0  0  0  0  0  0  0  0  0
    2.6970  -13.3090   -4.1510 C   0  0  0  0  0  0  0  0  0  0  0  0
    1.5010  -13.9610   -4.4470 C   0  0  0  0  0  0  0  0  0  0  0  0
    0.7110  -14.4700   -3.4170 C   0  0  0  0  0  0  0  0  0  0  0  0
    1.1030  -14.3330   -2.0780 C   0  0  0  0  0  0  0  0  0  0  0  0
    0.2500  -14.8960   -1.0030 C   0  0  0  0  0  0  0  0  0  0  0  0
    0.5420  -16.1030   -0.4730 C   0  0  0  0  0  0  0  0  0  0  0  0
   -0.2650  -16.5890    0.5320 N   0  0  0  0  0  0  0  0  0  0  0  0
   -0.2410  -17.7490    1.2560 C   0  0  0  0  0  0  0  0  0  0  0  0
   -1.3140  -17.6550    2.1180 C   0  0  0  0  0  0  0  0  0  0  0  0
   -1.9920  -16.4710    1.9450 N   0  0  0  0  0  0  0  0  0  0  0  0
   -1.3300  -15.8610    0.9830 C   0  0  0  0  0  0  0  0  0  0  0  0
   -1.6020  -14.5630    0.3930 C   0  0  0  0  0  0  0  0  0  0  0  0
   -2.6640  -13.8110    0.8300 N   0  0  0  0  0  0  0  0  0  0  0  0
   -3.0220  -12.5290    0.2900 C   0  0  0  0  0  0  0  0  0  0  0  0
   -2.4890  -11.4390    1.1800 C   0  0  0  0  0  0  0  0  0  0  0  0
   -1.9300  -11.7420    2.4260 C   0  0  0  0  0  0  0  0  0  0  0  0
   -1.4760  -10.7010    3.2210 C   0  0  0  0  0  0  0  0  0  0  0  0
   -1.5450   -9.4000    2.8660 N   0  0  0  0  0  0  0  0  0  0  0  0
   -2.1010   -9.1260    1.6670 C   0  0  0  0  0  0  0  0  0  0  0  0
   -2.5840  -10.0960    0.8030 C   0  0  0  0  0  0  0  0  0  0  0  0
   -0.8190  -14.1170   -0.5630 N   0  0  0  0  0  0  0  0  0  0  0  0
    2.3230  -13.6870   -1.7990 C   0  0  0  0  0  0  0  0  0  0  0  0
    6.2580  -11.1240   -2.6070 H   0  0  0  0  0  0  0  0  0  0  0  0
    7.9027  -12.6658   -0.1140 H   0  0  0  0  0  0  0  0  0  0  0  0
   10.3711  -12.8952    0.0996 H   0  0  0  0  0  0  0  0  0  0  0  0
   10.8186  -12.0247   -4.1098 H   0  0  0  0  0  0  0  0  0  0  0  0
    8.3492  -11.7969   -4.3174 H   0  0  0  0  0  0  0  0  0  0  0  0
    4.2770  -11.5030   -2.4300 H   0  0  0  0  0  0  0  0  0  0  0  0
    3.3165  -12.9084   -4.9669 H   0  0  0  0  0  0  0  0  0  0  0  0
    1.1805  -14.0739   -5.4932 H   0  0  0  0  0  0  0  0  0  0  0  0
   -0.2307  -14.9850   -3.6578 H   0  0  0  0  0  0  0  0  0  0  0  0
    1.4031  -16.6840   -0.8349 H   0  0  0  0  0  0  0  0  0  0  0  0
    0.4778  -18.5772    1.1697 H   0  0  0  0  0  0  0  0  0  0  0  0
   -1.5917  -18.4279    2.8498 H   0  0  0  0  0  0  0  0  0  0  0  0
   -3.2350  -14.2110    1.5690 H   0  0  0  0  0  0  0  0  0  0  0  0
   -2.5915  -12.4228   -0.7167 H   0  0  0  0  0  0  0  0  0  0  0  0
   -4.1177  -12.4502    0.2325 H   0  0  0  0  0  0  0  0  0  0  0  0
   -1.8523  -12.7846    2.7679 H   0  0  0  0  0  0  0  0  0  0  0  0
   -1.0341  -10.9491    4.1973 H   0  0  0  0  0  0  0  0  0  0  0  0
   -2.1750   -8.0729    1.3580 H   0  0  0  0  0  0  0  0  0  0  0  0
   -3.0334   -9.8147   -0.1608 H   0  0  0  0  0  0  0  0  0  0  0  0
    2.6585  -13.5953   -0.7554 H   0  0  0  0  0  0  0  0  0  0  0  0
  1  2  2  0
  2  3  1  0
  3  4  1  0
  4  5  2  0
  5  6  1  0
  6  7  2  0
  7  8  1  0
  8  9  1  0
  8 10  1  0
  8 11  1  0
  7 12  1  0
 12 13  2  0
  2 14  1  0
 14 15  1  0
 15 16  2  0
 16 17  1  0
 17 18  2  0
 18 19  1  0
 19 20  1  0
 20 21  2  0
 21 22  1  0
 22 23  1  0
 23 24  2  0
 24 25  1  0
 25 26  2  0
 26 27  1  0
 27 28  1  0
 28 29  1  0
 29 30  1  0
 30 31  2  0
 31 32  1  0
 32 33  2  0
 33 34  1  0
 34 35  2  0
 27 36  2  0
 19 37  2  0
 13  4  1  0
 37 15  1  0
 36 20  1  0
 26 22  1  0
 35 30  1  0
  3 38  1  0
  5 39  1  0
  6 40  1  0
 12 41  1  0
 13 42  1  0
 14 43  1  0
 16 44  1  0
 17 45  1  0
 18 46  1  0
 21 47  1  0
 23 48  1  0
 24 49  1  0
 28 50  1  0
 29 51  1  0
 29 52  1  0
 31 53  1  0
 32 54  1  0
 34 55  1  0
 35 56  1  0
 37 57  1  0
M  END
>  <meeko>  (9) 
{"is_sidechain": [false], "free_energy": -8.797, "intermolecular_energy": -11.573, "internal_energy": -1.09}

$$$$
