LIB_UXWQKBQYLIAPJN__M_PUB_ALL__e8__s20260927
     RDKit          3D

 64 69  0  0  0  0  0  0  0  0999 V2000
   11.0690   -6.9220  -10.2830 O   0  0  0  0  0  0  0  0  0  0  0  0
   11.4000   -7.1020  -11.4490 C   0  0  0  0  0  0  0  0  0  0  0  0
   11.4250   -8.3100  -12.1230 N   0  0  0  0  0  0  0  0  0  0  0  0
   10.9710   -9.5590  -11.6510 C   0  0  0  0  0  0  0  0  0  0  0  0
    9.6100   -9.8480  -11.8020 C   0  0  0  0  0  0  0  0  0  0  0  0
    9.0890  -11.0650  -11.3590 C   0  0  0  0  0  0  0  0  0  0  0  0
    9.9250  -12.0080  -10.7620 C   0  0  0  0  0  0  0  0  0  0  0  0
   11.2890  -11.7410  -10.5950 C   0  0  0  0  0  0  0  0  0  0  0  0
   12.1860  -12.7370   -9.9690 C   0  0  0  0  0  0  0  0  0  0  0  0
   11.9410  -13.1220   -8.7020 C   0  0  0  0  0  0  0  0  0  0  0  0
   12.8740  -14.1220   -8.1280 C   0  0  0  0  0  0  0  0  0  0  0  0
   13.8970  -14.6530   -8.7250 N   0  0  0  0  0  0  0  0  0  0  0  0
   14.1170  -14.2410  -10.0150 C   0  0  0  0  0  0  0  0  0  0  0  0
   15.0730  -14.5940  -10.9470 C   0  0  0  0  0  0  0  0  0  0  0  0
   16.1650  -15.5500  -10.8280 C   0  0  0  0  0  0  0  0  0  0  0  0
   16.9460  -15.8230   -9.7270 C   0  0  0  0  0  0  0  0  0  0  0  0
   17.8620  -16.7870  -10.0200 O   0  0  0  0  0  0  0  0  0  0  0  0
   17.6730  -17.1270  -11.3290 C   0  0  0  0  0  0  0  0  0  0  0  0
   18.5740  -18.1710  -11.8720 C   0  0  0  0  0  0  0  0  0  0  0  0
   17.8210  -19.4230  -12.2320 N   0  0  0  0  0  0  0  0  0  0  0  0
   17.4050  -19.5100  -13.6720 C   0  0  0  0  0  0  0  0  0  0  0  0
   16.1940  -20.4160  -13.6270 C   0  0  0  0  0  0  0  0  0  0  0  0
   15.4830  -19.9560  -12.3700 C   0  0  0  0  0  0  0  0  0  0  0  0
   16.6050  -19.7060  -11.3760 C   0  0  0  0  0  0  0  0  0  0  0  0
   16.6370  -16.3950  -11.8650 C   0  0  0  0  0  0  0  0  0  0  0  0
   14.7810  -13.8240  -12.0820 C   0  0  0  0  0  0  0  0  0  0  0  0
   13.7250  -13.0320  -11.9130 N   0  0  0  0  0  0  0  0  0  0  0  0
   13.2910  -13.2890  -10.6470 N   0  0  0  0  0  0  0  0  0  0  0  0
   11.7970  -10.5060  -11.0370 C   0  0  0  0  0  0  0  0  0  0  0  0
   11.8780   -5.9300  -12.2360 C   0  0  0  0  0  0  0  0  0  0  0  0
   12.5580   -6.0830  -13.4500 C   0  0  0  0  0  0  0  0  0  0  0  0
   12.9870   -4.9570  -14.1540 C   0  0  0  0  0  0  0  0  0  0  0  0
   12.7310   -3.6780  -13.6570 C   0  0  0  0  0  0  0  0  0  0  0  0
   12.0270   -3.5050  -12.4560 C   0  0  0  0  0  0  0  0  0  0  0  0
   11.7530   -2.1260  -11.9090 C   0  0  0  0  0  0  0  0  0  0  0  0
   12.8010   -1.2790  -12.1050 F   0  0  0  0  0  0  0  0  0  0  0  0
   11.5150   -2.1240  -10.5680 F   0  0  0  0  0  0  0  0  0  0  0  0
   10.6730   -1.5250  -12.4800 F   0  0  0  0  0  0  0  0  0  0  0  0
   11.6050   -4.6440  -11.7490 C   0  0  0  0  0  0  0  0  0  0  0  0
   11.8640   -8.3200  -13.0360 H   0  0  0  0  0  0  0  0  0  0  0  0
    8.9450   -9.1097  -12.2739 H   0  0  0  0  0  0  0  0  0  0  0  0
    8.0172  -11.2805  -11.4811 H   0  0  0  0  0  0  0  0  0  0  0  0
    9.5101  -12.9677  -10.4202 H   0  0  0  0  0  0  0  0  0  0  0  0
   11.0963  -12.7175   -8.1251 H   0  0  0  0  0  0  0  0  0  0  0  0
   12.6799  -14.4455   -7.0947 H   0  0  0  0  0  0  0  0  0  0  0  0
   16.8441  -15.3313   -8.7483 H   0  0  0  0  0  0  0  0  0  0  0  0
   19.0691  -17.7810  -12.7735 H   0  0  0  0  0  0  0  0  0  0  0  0
   19.3114  -18.4252  -11.0963 H   0  0  0  0  0  0  0  0  0  0  0  0
   18.4910  -20.1840  -12.0450 H   0  0  0  0  0  0  0  0  0  0  0  0
   17.1411  -18.5179  -14.0671 H   0  0  0  0  0  0  0  0  0  0  0  0
   18.2021  -19.8871  -14.3296 H   0  0  0  0  0  0  0  0  0  0  0  0
   15.5604  -20.2762  -14.5153 H   0  0  0  0  0  0  0  0  0  0  0  0
   16.4485  -21.4861  -13.6188 H   0  0  0  0  0  0  0  0  0  0  0  0
   14.9161  -19.0324  -12.5585 H   0  0  0  0  0  0  0  0  0  0  0  0
   14.7539  -20.6942  -12.0048 H   0  0  0  0  0  0  0  0  0  0  0  0
   16.3713  -18.8421  -10.7365 H   0  0  0  0  0  0  0  0  0  0  0  0
   16.7610  -20.5604  -10.7010 H   0  0  0  0  0  0  0  0  0  0  0  0
   16.2518  -16.4539  -12.8936 H   0  0  0  0  0  0  0  0  0  0  0  0
   15.3635  -13.8698  -13.0140 H   0  0  0  0  0  0  0  0  0  0  0  0
   12.8645  -10.2807  -10.8970 H   0  0  0  0  0  0  0  0  0  0  0  0
   12.7539   -7.0894  -13.8485 H   0  0  0  0  0  0  0  0  0  0  0  0
   13.5287   -5.0778  -15.1037 H   0  0  0  0  0  0  0  0  0  0  0  0
   13.0848   -2.7970  -14.2126 H   0  0  0  0  0  0  0  0  0  0  0  0
   11.0549   -4.5252  -10.8039 H   0  0  0  0  0  0  0  0  0  0  0  0
  1  2  2  0
  2  3  1  0
  3  4  1  0
  4  5  2  0
  5  6  1  0
  6  7  2  0
  7  8  1  0
  8  9  1  0
  9 10  2  0
 10 11  1  0
 11 12  2  0
 12 13  1  0
 13 14  2  0
 14 15  1  0
 15 16  2  0
 16 17  1  0
 17 18  1  0
 18 19  1  0
 19 20  1  0
 20 21  1  0
 21 22  1  0
 22 23  1  0
 23 24  1  0
 18 25  2  0
 14 26  1  0
 26 27  2  0
 27 28  1  0
  8 29  2  0
  2 30  1  0
 30 31  2  0
 31 32  1  0
 32 33  2  0
 33 34  1  0
 34 35  1  0
 35 36  1  0
 35 37  1  0
 35 38  1  0
 34 39  2  0
 29  4  1  0
 39 30  1  0
 28  9  1  0
 28 13  1  0
 25 15  1  0
 24 20  1  0
  3 40  1  0
  5 41  1  0
  6 42  1  0
  7 43  1  0
 10 44  1  0
 11 45  1  0
 16 46  1  0
 19 47  1  0
 19 48  1  0
 20 49  1  0
 21 50  1  0
 21 51  1  0
 22 52  1  0
 22 53  1  0
 23 54  1  0
 23 55  1  0
 24 56  1  0
 24 57  1  0
 25 58  1  0
 26 59  1  0
 29 60  1  0
 31 61  1  0
 32 62  1  0
 33 63  1  0
 39 64  1  0
M  CHG  1  20   1
M  END
>  <meeko>  (1) 
{"is_sidechain": [false], "free_energy": -9.943, "intermolecular_energy": -14.012, "internal_energy": -1.097}

$$$$
LIB_UXWQKBQYLIAPJN__M_PUB_ALL__e8__s20260927
     RDKit          3D

 64 69  0  0  0  0  0  0  0  0999 V2000
    9.1620  -14.0330   -2.0570 O   0  0  0  0  0  0  0  0  0  0  0  0
    9.5660  -13.2940   -2.9460 C   0  0  0  0  0  0  0  0  0  0  0  0
    8.8680  -12.8970   -4.0720 N   0  0  0  0  0  0  0  0  0  0  0  0
    7.5160  -13.1640   -4.3750 C   0  0  0  0  0  0  0  0  0  0  0  0
    7.2510  -14.2200   -5.2550 C   0  0  0  0  0  0  0  0  0  0  0  0
    5.9380  -14.5440   -5.5990 C   0  0  0  0  0  0  0  0  0  0  0  0
    4.8750  -13.8170   -5.0660 C   0  0  0  0  0  0  0  0  0  0  0  0
    5.1140  -12.7520   -4.1880 C   0  0  0  0  0  0  0  0  0  0  0  0
    3.9930  -11.9780   -3.6120 C   0  0  0  0  0  0  0  0  0  0  0  0
    3.4980  -10.9390   -4.3110 C   0  0  0  0  0  0  0  0  0  0  0  0
    2.3760  -10.2010   -3.6810 C   0  0  0  0  0  0  0  0  0  0  0  0
    1.8340  -10.4570   -2.5300 N   0  0  0  0  0  0  0  0  0  0  0  0
    2.3600  -11.5220   -1.8450 C   0  0  0  0  0  0  0  0  0  0  0  0
    2.0350  -12.0910   -0.6300 C   0  0  0  0  0  0  0  0  0  0  0  0
    0.9910  -11.7120    0.3130 C   0  0  0  0  0  0  0  0  0  0  0  0
    0.7280  -10.4690    0.8420 C   0  0  0  0  0  0  0  0  0  0  0  0
   -0.3370  -10.5270    1.6890 O   0  0  0  0  0  0  0  0  0  0  0  0
   -0.7530  -11.8280    1.7120 C   0  0  0  0  0  0  0  0  0  0  0  0
   -1.9130  -12.1290    2.5830 C   0  0  0  0  0  0  0  0  0  0  0  0
   -3.0000  -12.8480    1.8310 N   0  0  0  0  0  0  0  0  0  0  0  0
   -3.6700  -12.0290    0.7650 C   0  0  0  0  0  0  0  0  0  0  0  0
   -5.0390  -12.6650    0.6510 C   0  0  0  0  0  0  0  0  0  0  0  0
   -5.3840  -12.9680    2.0950 C   0  0  0  0  0  0  0  0  0  0  0  0
   -4.0790  -13.4620    2.6970 C   0  0  0  0  0  0  0  0  0  0  0  0
    0.0330  -12.5920    0.8780 C   0  0  0  0  0  0  0  0  0  0  0  0
    2.9390  -13.1510   -0.4660 C   0  0  0  0  0  0  0  0  0  0  0  0
    3.7870  -13.2700   -1.4850 N   0  0  0  0  0  0  0  0  0  0  0  0
    3.4330  -12.2830   -2.3560 N   0  0  0  0  0  0  0  0  0  0  0  0
    6.4430  -12.4320   -3.8580 C   0  0  0  0  0  0  0  0  0  0  0  0
   10.9680  -12.7930   -2.8630 C   0  0  0  0  0  0  0  0  0  0  0  0
   11.8400  -12.8540   -3.9570 C   0  0  0  0  0  0  0  0  0  0  0  0
   13.1440  -12.3730   -3.8370 C   0  0  0  0  0  0  0  0  0  0  0  0
   13.5790  -11.8200   -2.6300 C   0  0  0  0  0  0  0  0  0  0  0  0
   12.7110  -11.7250   -1.5320 C   0  0  0  0  0  0  0  0  0  0  0  0
   13.1770  -11.1350   -0.2240 C   0  0  0  0  0  0  0  0  0  0  0  0
   13.4610  -12.0950    0.6990 F   0  0  0  0  0  0  0  0  0  0  0  0
   12.2480  -10.3230    0.3530 F   0  0  0  0  0  0  0  0  0  0  0  0
   14.3060  -10.3850   -0.3440 F   0  0  0  0  0  0  0  0  0  0  0  0
   11.4020  -12.2190   -1.6600 C   0  0  0  0  0  0  0  0  0  0  0  0
    9.3880  -12.4060   -4.7890 H   0  0  0  0  0  0  0  0  0  0  0  0
    8.0847  -14.7991   -5.6788 H   0  0  0  0  0  0  0  0  0  0  0  0
    5.7415  -15.3750   -6.2924 H   0  0  0  0  0  0  0  0  0  0  0  0
    3.8420  -14.0812   -5.3365 H   0  0  0  0  0  0  0  0  0  0  0  0
    3.9026  -10.6537   -5.2933 H   0  0  0  0  0  0  0  0  0  0  0  0
    1.9623   -9.3524   -4.2456 H   0  0  0  0  0  0  0  0  0  0  0  0
    1.2980   -9.5566    0.6129 H   0  0  0  0  0  0  0  0  0  0  0  0
   -1.5777  -12.7623    3.4176 H   0  0  0  0  0  0  0  0  0  0  0  0
   -2.3222  -11.1767    2.9514 H   0  0  0  0  0  0  0  0  0  0  0  0
   -2.5140  -13.6340    1.3730 H   0  0  0  0  0  0  0  0  0  0  0  0
   -3.7487  -10.9746    1.0685 H   0  0  0  0  0  0  0  0  0  0  0  0
   -3.1167  -12.0218   -0.1857 H   0  0  0  0  0  0  0  0  0  0  0  0
   -5.7650  -11.9679    0.2072 H   0  0  0  0  0  0  0  0  0  0  0  0
   -5.0563  -13.5526    0.0015 H   0  0  0  0  0  0  0  0  0  0  0  0
   -5.7325  -12.0612    2.6109 H   0  0  0  0  0  0  0  0  0  0  0  0
   -6.1952  -13.7051    2.1876 H   0  0  0  0  0  0  0  0  0  0  0  0
   -3.9797  -13.1235    3.7389 H   0  0  0  0  0  0  0  0  0  0  0  0
   -4.0202  -14.5602    2.7193 H   0  0  0  0  0  0  0  0  0  0  0  0
   -0.0633  -13.6711    0.6878 H   0  0  0  0  0  0  0  0  0  0  0  0
    2.9463  -13.8138    0.4119 H   0  0  0  0  0  0  0  0  0  0  0  0
    6.6422  -11.5892   -3.1798 H   0  0  0  0  0  0  0  0  0  0  0  0
   11.4968  -13.2811   -4.9108 H   0  0  0  0  0  0  0  0  0  0  0  0
   13.8310  -12.4292   -4.6943 H   0  0  0  0  0  0  0  0  0  0  0  0
   14.6128  -11.4553   -2.5397 H   0  0  0  0  0  0  0  0  0  0  0  0
   10.7103  -12.1547   -0.8071 H   0  0  0  0  0  0  0  0  0  0  0  0
  1  2  2  0
  2  3  1  0
  3  4  1  0
  4  5  2  0
  5  6  1  0
  6  7  2  0
  7  8  1  0
  8  9  1  0
  9 10  2  0
 10 11  1  0
 11 12  2  0
 12 13  1  0
 13 14  2  0
 14 15  1  0
 15 16  2  0
 16 17  1  0
 17 18  1  0
 18 19  1  0
 19 20  1  0
 20 21  1  0
 21 22  1  0
 22 23  1  0
 23 24  1  0
 18 25  2  0
 14 26  1  0
 26 27  2  0
 27 28  1  0
  8 29  2  0
  2 30  1  0
 30 31  2  0
 31 32  1  0
 32 33  2  0
 33 34  1  0
 34 35  1  0
 35 36  1  0
 35 37  1  0
 35 38  1  0
 34 39  2  0
 29  4  1  0
 39 30  1  0
 28  9  1  0
 28 13  1  0
 25 15  1  0
 24 20  1  0
  3 40  1  0
  5 41  1  0
  6 42  1  0
  7 43  1  0
 10 44  1  0
 11 45  1  0
 16 46  1  0
 19 47  1  0
 19 48  1  0
 20 49  1  0
 21 50  1  0
 21 51  1  0
 22 52  1  0
 22 53  1  0
 23 54  1  0
 23 55  1  0
 24 56  1  0
 24 57  1  0
 25 58  1  0
 26 59  1  0
 29 60  1  0
 31 61  1  0
 32 62  1  0
 33 63  1  0
 39 64  1  0
M  CHG  1  20   1
M  END
>  <meeko>  (2) 
{"is_sidechain": [false], "free_energy": -9.532, "intermolecular_energy": -13.257, "internal_energy": -1.272}

$$$$
LIB_UXWQKBQYLIAPJN__M_PUB_ALL__e8__s20260927
     RDKit          3D

 64 69  0  0  0  0  0  0  0  0999 V2000
    5.8460  -11.7790   -7.7720 O   0  0  0  0  0  0  0  0  0  0  0  0
    5.9580  -12.9790   -7.5520 C   0  0  0  0  0  0  0  0  0  0  0  0
    6.6420  -13.9010   -8.3250 N   0  0  0  0  0  0  0  0  0  0  0  0
    7.4420  -13.6370   -9.4560 C   0  0  0  0  0  0  0  0  0  0  0  0
    6.7920  -13.5170  -10.6900 C   0  0  0  0  0  0  0  0  0  0  0  0
    7.5190  -13.2550  -11.8530 C   0  0  0  0  0  0  0  0  0  0  0  0
    8.9040  -13.1090  -11.7940 C   0  0  0  0  0  0  0  0  0  0  0  0
    9.5780  -13.2310  -10.5730 C   0  0  0  0  0  0  0  0  0  0  0  0
   11.0470  -13.0720  -10.4980 C   0  0  0  0  0  0  0  0  0  0  0  0
   11.5730  -11.8420  -10.6560 C   0  0  0  0  0  0  0  0  0  0  0  0
   13.0510  -11.7450  -10.5710 C   0  0  0  0  0  0  0  0  0  0  0  0
   13.8780  -12.7250  -10.3650 N   0  0  0  0  0  0  0  0  0  0  0  0
   13.3090  -13.9630  -10.2060 C   0  0  0  0  0  0  0  0  0  0  0  0
   13.8560  -15.2060   -9.9560 C   0  0  0  0  0  0  0  0  0  0  0  0
   15.2530  -15.5760   -9.7750 C   0  0  0  0  0  0  0  0  0  0  0  0
   16.0070  -15.5290   -8.6240 C   0  0  0  0  0  0  0  0  0  0  0  0
   17.2750  -15.9620   -8.8660 O   0  0  0  0  0  0  0  0  0  0  0  0
   17.3370  -16.2790  -10.1930 C   0  0  0  0  0  0  0  0  0  0  0  0
   18.6430  -16.7760  -10.6880 C   0  0  0  0  0  0  0  0  0  0  0  0
   18.5430  -17.2900  -12.0990 N   0  0  0  0  0  0  0  0  0  0  0  0
   18.1190  -18.7260  -12.2120 C   0  0  0  0  0  0  0  0  0  0  0  0
   18.7120  -19.1570  -13.5370 C   0  0  0  0  0  0  0  0  0  0  0  0
   20.0650  -18.4740  -13.5310 C   0  0  0  0  0  0  0  0  0  0  0  0
   19.7900  -17.1030  -12.9370 C   0  0  0  0  0  0  0  0  0  0  0  0
   16.1160  -16.0610  -10.7920 C   0  0  0  0  0  0  0  0  0  0  0  0
   12.7650  -16.0860   -9.9070 C   0  0  0  0  0  0  0  0  0  0  0  0
   11.5990  -15.4760  -10.1080 N   0  0  0  0  0  0  0  0  0  0  0  0
   11.9140  -14.1600  -10.2770 N   0  0  0  0  0  0  0  0  0  0  0  0
    8.8330  -13.5040   -9.4110 C   0  0  0  0  0  0  0  0  0  0  0  0
    5.2550  -13.5460   -6.3660 C   0  0  0  0  0  0  0  0  0  0  0  0
    5.7080  -14.7050   -5.7240 C   0  0  0  0  0  0  0  0  0  0  0  0
    5.0200  -15.2020   -4.6160 C   0  0  0  0  0  0  0  0  0  0  0  0
    3.8870  -14.5390   -4.1390 C   0  0  0  0  0  0  0  0  0  0  0  0
    3.4360  -13.3600   -4.7520 C   0  0  0  0  0  0  0  0  0  0  0  0
    2.2090  -12.6430   -4.2460 C   0  0  0  0  0  0  0  0  0  0  0  0
    1.0650  -13.1250   -4.8060 F   0  0  0  0  0  0  0  0  0  0  0  0
    2.2250  -11.3080   -4.5150 F   0  0  0  0  0  0  0  0  0  0  0  0
    2.0410  -12.7500   -2.8990 F   0  0  0  0  0  0  0  0  0  0  0  0
    4.1300  -12.8720   -5.8720 C   0  0  0  0  0  0  0  0  0  0  0  0
    6.5180  -14.8780   -8.0940 H   0  0  0  0  0  0  0  0  0  0  0  0
    5.6992  -13.6301  -10.7439 H   0  0  0  0  0  0  0  0  0  0  0  0
    6.9979  -13.1637  -12.8174 H   0  0  0  0  0  0  0  0  0  0  0  0
    9.4709  -12.8966  -12.7124 H   0  0  0  0  0  0  0  0  0  0  0  0
   10.9423  -10.9593  -10.8378 H   0  0  0  0  0  0  0  0  0  0  0  0
   13.4898  -10.7439  -10.6947 H   0  0  0  0  0  0  0  0  0  0  0  0
   15.6367  -15.1891   -7.6455 H   0  0  0  0  0  0  0  0  0  0  0  0
   19.3721  -15.9529  -10.6590 H   0  0  0  0  0  0  0  0  0  0  0  0
   18.9617  -17.6070  -10.0415 H   0  0  0  0  0  0  0  0  0  0  0  0
   17.8130  -16.7040  -12.5300 H   0  0  0  0  0  0  0  0  0  0  0  0
   18.5267  -19.3243  -11.3838 H   0  0  0  0  0  0  0  0  0  0  0  0
   17.0282  -18.8595  -12.1631 H   0  0  0  0  0  0  0  0  0  0  0  0
   18.8194  -20.2506  -13.5871 H   0  0  0  0  0  0  0  0  0  0  0  0
   18.0897  -18.8879  -14.4032 H   0  0  0  0  0  0  0  0  0  0  0  0
   20.7805  -19.0319  -12.9090 H   0  0  0  0  0  0  0  0  0  0  0  0
   20.5111  -18.4156  -14.5348 H   0  0  0  0  0  0  0  0  0  0  0  0
   20.6328  -16.7756  -12.3105 H   0  0  0  0  0  0  0  0  0  0  0  0
   19.6593  -16.3327  -13.7113 H   0  0  0  0  0  0  0  0  0  0  0  0
   15.8605  -16.2293  -11.8486 H   0  0  0  0  0  0  0  0  0  0  0  0
   12.8625  -17.1659   -9.7221 H   0  0  0  0  0  0  0  0  0  0  0  0
    9.3549  -13.6149   -8.4490 H   0  0  0  0  0  0  0  0  0  0  0  0
    6.6054  -15.2234   -6.0926 H   0  0  0  0  0  0  0  0  0  0  0  0
    5.3708  -16.1176   -4.1175 H   0  0  0  0  0  0  0  0  0  0  0  0
    3.3426  -14.9453   -3.2738 H   0  0  0  0  0  0  0  0  0  0  0  0
    3.7867  -11.9512   -6.3663 H   0  0  0  0  0  0  0  0  0  0  0  0
  1  2  2  0
  2  3  1  0
  3  4  1  0
  4  5  2  0
  5  6  1  0
  6  7  2  0
  7  8  1  0
  8  9  1  0
  9 10  2  0
 10 11  1  0
 11 12  2  0
 12 13  1  0
 13 14  2  0
 14 15  1  0
 15 16  2  0
 16 17  1  0
 17 18  1  0
 18 19  1  0
 19 20  1  0
 20 21  1  0
 21 22  1  0
 22 23  1  0
 23 24  1  0
 18 25  2  0
 14 26  1  0
 26 27  2  0
 27 28  1  0
  8 29  2  0
  2 30  1  0
 30 31  2  0
 31 32  1  0
 32 33  2  0
 33 34  1  0
 34 35  1  0
 35 36  1  0
 35 37  1  0
 35 38  1  0
 34 39  2  0
 29  4  1  0
 39 30  1  0
 28  9  1  0
 28 13  1  0
 25 15  1  0
 24 20  1  0
  3 40  1  0
  5 41  1  0
  6 42  1  0
  7 43  1  0
 10 44  1  0
 11 45  1  0
 16 46  1  0
 19 47  1  0
 19 48  1  0
 20 49  1  0
 21 50  1  0
 21 51  1  0
 22 52  1  0
 22 53  1  0
 23 54  1  0
 23 55  1  0
 24 56  1  0
 24 57  1  0
 25 58  1  0
 26 59  1  0
 29 60  1  0
 31 61  1  0
 32 62  1  0
 33 63  1  0
 39 64  1  0
M  CHG  1  20   1
M  END
>  <meeko>  (3) 
{"is_sidechain": [false], "free_energy": -9.317, "intermolecular_energy": -13.032, "internal_energy": -1.195}

$$$$
LIB_UXWQKBQYLIAPJN__M_PUB_ALL__e8__s20260927
     RDKit          3D

 64 69  0  0  0  0  0  0  0  0999 V2000
    9.8610  -14.8240   -2.9580 O   0  0  0  0  0  0  0  0  0  0  0  0
    9.9930  -13.6640   -3.3300 C   0  0  0  0  0  0  0  0  0  0  0  0
    9.0840  -12.9240   -4.0650 N   0  0  0  0  0  0  0  0  0  0  0  0
    7.7780  -13.3060   -4.4400 C   0  0  0  0  0  0  0  0  0  0  0  0
    7.6540  -14.2350   -5.4790 C   0  0  0  0  0  0  0  0  0  0  0  0
    6.3940  -14.6610   -5.9030 C   0  0  0  0  0  0  0  0  0  0  0  0
    5.2440  -14.1640   -5.2910 C   0  0  0  0  0  0  0  0  0  0  0  0
    5.3420  -13.2290   -4.2530 C   0  0  0  0  0  0  0  0  0  0  0  0
    4.1300  -12.7000   -3.5910 C   0  0  0  0  0  0  0  0  0  0  0  0
    3.8080  -11.4050   -3.7720 C   0  0  0  0  0  0  0  0  0  0  0  0
    2.5820  -10.9320   -3.0830 C   0  0  0  0  0  0  0  0  0  0  0  0
    1.7990  -11.6410   -2.3280 N   0  0  0  0  0  0  0  0  0  0  0  0
    2.1550  -12.9560   -2.1670 C   0  0  0  0  0  0  0  0  0  0  0  0
    1.5670  -13.9920   -1.4700 C   0  0  0  0  0  0  0  0  0  0  0  0
    0.3460  -13.9910   -0.6760 C   0  0  0  0  0  0  0  0  0  0  0  0
   -0.7290  -14.8460   -0.7600 C   0  0  0  0  0  0  0  0  0  0  0  0
   -1.6760  -14.5150    0.1600 O   0  0  0  0  0  0  0  0  0  0  0  0
   -1.2050  -13.4250    0.8360 C   0  0  0  0  0  0  0  0  0  0  0  0
   -2.0850  -12.8820    1.8990 C   0  0  0  0  0  0  0  0  0  0  0  0
   -3.0660  -11.8820    1.3500 N   0  0  0  0  0  0  0  0  0  0  0  0
   -3.8680  -12.3720    0.1780 C   0  0  0  0  0  0  0  0  0  0  0  0
   -4.2290  -11.0940   -0.5500 C   0  0  0  0  0  0  0  0  0  0  0  0
   -2.9590  -10.2760   -0.4320 C   0  0  0  0  0  0  0  0  0  0  0  0
   -2.4740  -10.5390    0.9840 C   0  0  0  0  0  0  0  0  0  0  0  0
    0.0370  -13.0700    0.3580 C   0  0  0  0  0  0  0  0  0  0  0  0
    2.4040  -15.0980   -1.6800 C   0  0  0  0  0  0  0  0  0  0  0  0
    3.4530  -14.8150   -2.4490 N   0  0  0  0  0  0  0  0  0  0  0  0
    3.3060  -13.4990   -2.7740 N   0  0  0  0  0  0  0  0  0  0  0  0
    6.6190  -12.8020   -3.8430 C   0  0  0  0  0  0  0  0  0  0  0  0
   11.2730  -12.9650   -3.0210 C   0  0  0  0  0  0  0  0  0  0  0  0
   12.3120  -12.8800   -3.9550 C   0  0  0  0  0  0  0  0  0  0  0  0
   13.4930  -12.2150   -3.6230 C   0  0  0  0  0  0  0  0  0  0  0  0
   13.6370  -11.6240   -2.3660 C   0  0  0  0  0  0  0  0  0  0  0  0
   12.5950  -11.6750   -1.4280 C   0  0  0  0  0  0  0  0  0  0  0  0
   12.7470  -11.0460   -0.0650 C   0  0  0  0  0  0  0  0  0  0  0  0
   11.7500  -11.4160    0.7850 F   0  0  0  0  0  0  0  0  0  0  0  0
   12.7220   -9.6850   -0.1030 F   0  0  0  0  0  0  0  0  0  0  0  0
   13.9120  -11.3810    0.5550 F   0  0  0  0  0  0  0  0  0  0  0  0
   11.4120  -12.3540   -1.7670 C   0  0  0  0  0  0  0  0  0  0  0  0
    9.3980  -12.0310   -4.4240 H   0  0  0  0  0  0  0  0  0  0  0  0
    8.5567  -14.6329   -5.9657 H   0  0  0  0  0  0  0  0  0  0  0  0
    6.3082  -15.3905   -6.7218 H   0  0  0  0  0  0  0  0  0  0  0  0
    4.2542  -14.5082   -5.6254 H   0  0  0  0  0  0  0  0  0  0  0  0
    4.4192  -10.7358   -4.3953 H   0  0  0  0  0  0  0  0  0  0  0  0
    2.3094   -9.8759   -3.2260 H   0  0  0  0  0  0  0  0  0  0  0  0
   -0.8115  -15.6808   -1.4716 H   0  0  0  0  0  0  0  0  0  0  0  0
   -2.6413  -13.7115    2.3600 H   0  0  0  0  0  0  0  0  0  0  0  0
   -1.4531  -12.3719    2.6409 H   0  0  0  0  0  0  0  0  0  0  0  0
   -3.7150  -11.7100    2.1320 H   0  0  0  0  0  0  0  0  0  0  0  0
   -3.2672  -13.0348   -0.4621 H   0  0  0  0  0  0  0  0  0  0  0  0
   -4.7467  -12.9644    0.4729 H   0  0  0  0  0  0  0  0  0  0  0  0
   -4.4765  -11.2933   -1.6031 H   0  0  0  0  0  0  0  0  0  0  0  0
   -5.1143  -10.5896   -0.1354 H   0  0  0  0  0  0  0  0  0  0  0  0
   -2.2118  -10.6079   -1.1679 H   0  0  0  0  0  0  0  0  0  0  0  0
   -3.1279   -9.2067   -0.6269 H   0  0  0  0  0  0  0  0  0  0  0  0
   -1.3752  -10.5777    1.0167 H   0  0  0  0  0  0  0  0  0  0  0  0
   -2.7791   -9.7457    1.6823 H   0  0  0  0  0  0  0  0  0  0  0  0
    0.6648  -12.2375    0.7084 H   0  0  0  0  0  0  0  0  0  0  0  0
    2.2135  -16.0941   -1.2541 H   0  0  0  0  0  0  0  0  0  0  0  0
    6.7065  -12.0578   -3.0377 H   0  0  0  0  0  0  0  0  0  0  0  0
   12.1978  -13.3367   -4.9492 H   0  0  0  0  0  0  0  0  0  0  0  0
   14.3131  -12.1561   -4.3537 H   0  0  0  0  0  0  0  0  0  0  0  0
   14.5767  -11.1134   -2.1088 H   0  0  0  0  0  0  0  0  0  0  0  0
   10.5871  -12.4065   -1.0412 H   0  0  0  0  0  0  0  0  0  0  0  0
  1  2  2  0
  2  3  1  0
  3  4  1  0
  4  5  2  0
  5  6  1  0
  6  7  2  0
  7  8  1  0
  8  9  1  0
  9 10  2  0
 10 11  1  0
 11 12  2  0
 12 13  1  0
 13 14  2  0
 14 15  1  0
 15 16  2  0
 16 17  1  0
 17 18  1  0
 18 19  1  0
 19 20  1  0
 20 21  1  0
 21 22  1  0
 22 23  1  0
 23 24  1  0
 18 25  2  0
 14 26  1  0
 26 27  2  0
 27 28  1  0
  8 29  2  0
  2 30  1  0
 30 31  2  0
 31 32  1  0
 32 33  2  0
 33 34  1  0
 34 35  1  0
 35 36  1  0
 35 37  1  0
 35 38  1  0
 34 39  2  0
 29  4  1  0
 39 30  1  0
 28  9  1  0
 28 13  1  0
 25 15  1  0
 24 20  1  0
  3 40  1  0
  5 41  1  0
  6 42  1  0
  7 43  1  0
 10 44  1  0
 11 45  1  0
 16 46  1  0
 19 47  1  0
 19 48  1  0
 20 49  1  0
 21 50  1  0
 21 51  1  0
 22 52  1  0
 22 53  1  0
 23 54  1  0
 23 55  1  0
 24 56  1  0
 24 57  1  0
 25 58  1  0
 26 59  1  0
 29 60  1  0
 31 61  1  0
 32 62  1  0
 33 63  1  0
 39 64  1  0
M  CHG  1  20   1
M  END
>  <meeko>  (4) 
{"is_sidechain": [false], "free_energy": -9.295, "intermolecular_energy": -13.143, "internal_energy": -1.053}

$$$$
LIB_UXWQKBQYLIAPJN__M_PUB_ALL__e8__s20260927
     RDKit          3D

 64 69  0  0  0  0  0  0  0  0999 V2000
    0.6880  -14.6000    0.3450 O   0  0  0  0  0  0  0  0  0  0  0  0
    0.8600  -13.5830    1.0060 C   0  0  0  0  0  0  0  0  0  0  0  0
    2.0730  -13.0100    1.3410 N   0  0  0  0  0  0  0  0  0  0  0  0
    3.3540  -13.4070    0.9010 C   0  0  0  0  0  0  0  0  0  0  0  0
    4.2170  -13.9620    1.8520 C   0  0  0  0  0  0  0  0  0  0  0  0
    5.4990  -14.3790    1.4890 C   0  0  0  0  0  0  0  0  0  0  0  0
    5.9310  -14.2460    0.1700 C   0  0  0  0  0  0  0  0  0  0  0  0
    5.0880  -13.6880   -0.7990 C   0  0  0  0  0  0  0  0  0  0  0  0
    5.5330  -13.5490   -2.2030 C   0  0  0  0  0  0  0  0  0  0  0  0
    5.8250  -12.3200   -2.6690 C   0  0  0  0  0  0  0  0  0  0  0  0
    6.2650  -12.2430   -4.0840 C   0  0  0  0  0  0  0  0  0  0  0  0
    6.3920  -13.2390   -4.9070 N   0  0  0  0  0  0  0  0  0  0  0  0
    6.0890  -14.4770   -4.3990 C   0  0  0  0  0  0  0  0  0  0  0  0
    6.1250  -15.7380   -4.9590 C   0  0  0  0  0  0  0  0  0  0  0  0
    6.5170  -16.1380   -6.3040 C   0  0  0  0  0  0  0  0  0  0  0  0
    6.4650  -17.3900   -6.8720 C   0  0  0  0  0  0  0  0  0  0  0  0
    6.9210  -17.3510   -8.1540 O   0  0  0  0  0  0  0  0  0  0  0  0
    7.2810  -16.0580   -8.4060 C   0  0  0  0  0  0  0  0  0  0  0  0
    7.8160  -15.7780   -9.7600 C   0  0  0  0  0  0  0  0  0  0  0  0
    7.9040  -14.3000  -10.0280 N   0  0  0  0  0  0  0  0  0  0  0  0
    6.6480  -13.6890  -10.5810 C   0  0  0  0  0  0  0  0  0  0  0  0
    7.1580  -12.4830  -11.3410 C   0  0  0  0  0  0  0  0  0  0  0  0
    8.4250  -13.0090  -11.9850 C   0  0  0  0  0  0  0  0  0  0  0  0
    9.0590  -13.8780  -10.9110 C   0  0  0  0  0  0  0  0  0  0  0  0
    7.0470  -15.2750   -7.2970 C   0  0  0  0  0  0  0  0  0  0  0  0
    5.6950  -16.6040   -3.9420 C   0  0  0  0  0  0  0  0  0  0  0  0
    5.3990  -15.9670   -2.8110 N   0  0  0  0  0  0  0  0  0  0  0  0
    5.6550  -14.6530   -3.0690 N   0  0  0  0  0  0  0  0  0  0  0  0
    3.8020  -13.2640   -0.4160 C   0  0  0  0  0  0  0  0  0  0  0  0
   -0.3390  -12.8960    1.5660 C   0  0  0  0  0  0  0  0  0  0  0  0
   -1.4620  -13.6090    2.0030 C   0  0  0  0  0  0  0  0  0  0  0  0
   -2.5620  -12.9260    2.5220 C   0  0  0  0  0  0  0  0  0  0  0  0
   -2.5420  -11.5330    2.6160 C   0  0  0  0  0  0  0  0  0  0  0  0
   -1.4150  -10.8040    2.2090 C   0  0  0  0  0  0  0  0  0  0  0  0
   -1.3900   -9.2980    2.3010 C   0  0  0  0  0  0  0  0  0  0  0  0
   -0.2580   -8.7690    1.7590 F   0  0  0  0  0  0  0  0  0  0  0  0
   -1.4390   -8.8440    3.5840 F   0  0  0  0  0  0  0  0  0  0  0  0
   -2.4300   -8.7030    1.6540 F   0  0  0  0  0  0  0  0  0  0  0  0
   -0.3140  -11.5000    1.6800 C   0  0  0  0  0  0  0  0  0  0  0  0
    2.0570  -12.2570    2.0170 H   0  0  0  0  0  0  0  0  0  0  0  0
    3.8827  -14.0707    2.8943 H   0  0  0  0  0  0  0  0  0  0  0  0
    6.1696  -14.8133    2.2451 H   0  0  0  0  0  0  0  0  0  0  0  0
    6.9402  -14.5814   -0.1111 H   0  0  0  0  0  0  0  0  0  0  0  0
    5.7421  -11.4238   -2.0366 H   0  0  0  0  0  0  0  0  0  0  0  0
    6.5075  -11.2435   -4.4741 H   0  0  0  0  0  0  0  0  0  0  0  0
    6.1053  -18.2956   -6.3617 H   0  0  0  0  0  0  0  0  0  0  0  0
    8.8215  -16.2161   -9.8438 H   0  0  0  0  0  0  0  0  0  0  0  0
    7.1309  -16.2205  -10.4981 H   0  0  0  0  0  0  0  0  0  0  0  0
    8.0810  -13.8850   -9.1010 H   0  0  0  0  0  0  0  0  0  0  0  0
    6.1310  -14.3896  -11.2532 H   0  0  0  0  0  0  0  0  0  0  0  0
    5.9141  -13.4311   -9.8032 H   0  0  0  0  0  0  0  0  0  0  0  0
    6.4325  -12.1566  -12.1007 H   0  0  0  0  0  0  0  0  0  0  0  0
    7.3247  -11.6025  -10.7031 H   0  0  0  0  0  0  0  0  0  0  0  0
    8.1893  -13.6045  -12.8793 H   0  0  0  0  0  0  0  0  0  0  0  0
    9.0924  -12.2016  -12.3207 H   0  0  0  0  0  0  0  0  0  0  0  0
    9.5455  -14.7566  -11.3598 H   0  0  0  0  0  0  0  0  0  0  0  0
    9.8390  -13.3432  -10.3492 H   0  0  0  0  0  0  0  0  0  0  0  0
    7.2340  -14.1953   -7.2007 H   0  0  0  0  0  0  0  0  0  0  0  0
    5.6113  -17.6938   -4.0661 H   0  0  0  0  0  0  0  0  0  0  0  0
    3.1369  -12.8117   -1.1664 H   0  0  0  0  0  0  0  0  0  0  0  0
   -1.4768  -14.7069    1.9371 H   0  0  0  0  0  0  0  0  0  0  0  0
   -3.4471  -13.4860    2.8580 H   0  0  0  0  0  0  0  0  0  0  0  0
   -3.4194  -11.0017    3.0134 H   0  0  0  0  0  0  0  0  0  0  0  0
    0.5760  -10.9428    1.3523 H   0  0  0  0  0  0  0  0  0  0  0  0
  1  2  2  0
  2  3  1  0
  3  4  1  0
  4  5  2  0
  5  6  1  0
  6  7  2  0
  7  8  1  0
  8  9  1  0
  9 10  2  0
 10 11  1  0
 11 12  2  0
 12 13  1  0
 13 14  2  0
 14 15  1  0
 15 16  2  0
 16 17  1  0
 17 18  1  0
 18 19  1  0
 19 20  1  0
 20 21  1  0
 21 22  1  0
 22 23  1  0
 23 24  1  0
 18 25  2  0
 14 26  1  0
 26 27  2  0
 27 28  1  0
  8 29  2  0
  2 30  1  0
 30 31  2  0
 31 32  1  0
 32 33  2  0
 33 34  1  0
 34 35  1  0
 35 36  1  0
 35 37  1  0
 35 38  1  0
 34 39  2  0
 29  4  1  0
 39 30  1  0
 28  9  1  0
 28 13  1  0
 25 15  1  0
 24 20  1  0
  3 40  1  0
  5 41  1  0
  6 42  1  0
  7 43  1  0
 10 44  1  0
 11 45  1  0
 16 46  1  0
 19 47  1  0
 19 48  1  0
 20 49  1  0
 21 50  1  0
 21 51  1  0
 22 52  1  0
 22 53  1  0
 23 54  1  0
 23 55  1  0
 24 56  1  0
 24 57  1  0
 25 58  1  0
 26 59  1  0
 29 60  1  0
 31 61  1  0
 32 62  1  0
 33 63  1  0
 39 64  1  0
M  CHG  1  20   1
M  END
>  <meeko>  (5) 
{"is_sidechain": [false], "free_energy": -8.95, "intermolecular_energy": -12.673, "internal_energy": -1.036}

$$$$
LIB_UXWQKBQYLIAPJN__M_PUB_ALL__e8__s20260927
     RDKit          3D

 64 69  0  0  0  0  0  0  0  0999 V2000
    0.8400  -13.8600   -0.7340 O   0  0  0  0  0  0  0  0  0  0  0  0
    0.9160  -12.7840   -0.1540 C   0  0  0  0  0  0  0  0  0  0  0  0
    1.6100  -11.6640   -0.5760 N   0  0  0  0  0  0  0  0  0  0  0  0
    2.2770  -11.4890   -1.8070 C   0  0  0  0  0  0  0  0  0  0  0  0
    1.8840  -10.4080   -2.6030 C   0  0  0  0  0  0  0  0  0  0  0  0
    2.5000  -10.1710   -3.8330 C   0  0  0  0  0  0  0  0  0  0  0  0
    3.5180  -11.0130   -4.2790 C   0  0  0  0  0  0  0  0  0  0  0  0
    3.9250  -12.1050   -3.5030 C   0  0  0  0  0  0  0  0  0  0  0  0
    5.0090  -13.0010   -3.9640 C   0  0  0  0  0  0  0  0  0  0  0  0
    4.6790  -14.1360   -4.6080 C   0  0  0  0  0  0  0  0  0  0  0  0
    5.8080  -14.9940   -5.0450 C   0  0  0  0  0  0  0  0  0  0  0  0
    7.0710  -14.7570   -4.8640 N   0  0  0  0  0  0  0  0  0  0  0  0
    7.3720  -13.5910   -4.2070 C   0  0  0  0  0  0  0  0  0  0  0  0
    8.5760  -13.0110   -3.8610 C   0  0  0  0  0  0  0  0  0  0  0  0
    9.9310  -13.4840   -4.1090 C   0  0  0  0  0  0  0  0  0  0  0  0
   10.4410  -14.0530   -5.2540 C   0  0  0  0  0  0  0  0  0  0  0  0
   11.7570  -14.3610   -5.0890 O   0  0  0  0  0  0  0  0  0  0  0  0
   12.0910  -13.9950   -3.8160 C   0  0  0  0  0  0  0  0  0  0  0  0
   13.4950  -14.2440   -3.4100 C   0  0  0  0  0  0  0  0  0  0  0  0
   13.6710  -15.6240   -2.8370 N   0  0  0  0  0  0  0  0  0  0  0  0
   13.5750  -16.7350   -3.8440 C   0  0  0  0  0  0  0  0  0  0  0  0
   13.1290  -17.9180   -3.0100 C   0  0  0  0  0  0  0  0  0  0  0  0
   12.1290  -17.2930   -2.0580 C   0  0  0  0  0  0  0  0  0  0  0  0
   12.7520  -15.9590   -1.6820 C   0  0  0  0  0  0  0  0  0  0  0  0
   11.0000  -13.4480   -3.1770 C   0  0  0  0  0  0  0  0  0  0  0  0
    8.2350  -11.8240   -3.1960 C   0  0  0  0  0  0  0  0  0  0  0  0
    6.9200  -11.6380   -3.1100 N   0  0  0  0  0  0  0  0  0  0  0  0
    6.3700  -12.7130   -3.7460 N   0  0  0  0  0  0  0  0  0  0  0  0
    3.2880  -12.3360   -2.2700 C   0  0  0  0  0  0  0  0  0  0  0  0
    0.2440  -12.6490    1.1710 C   0  0  0  0  0  0  0  0  0  0  0  0
    0.1860  -13.7110    2.0810 C   0  0  0  0  0  0  0  0  0  0  0  0
   -0.4510  -13.5400    3.3110 C   0  0  0  0  0  0  0  0  0  0  0  0
   -1.0220  -12.3090    3.6400 C   0  0  0  0  0  0  0  0  0  0  0  0
   -0.9480  -11.2250    2.7520 C   0  0  0  0  0  0  0  0  0  0  0  0
   -1.5690   -9.8940    3.0990 C   0  0  0  0  0  0  0  0  0  0  0  0
   -1.4380   -9.5950    4.4210 F   0  0  0  0  0  0  0  0  0  0  0  0
   -2.9040   -9.8470    2.8340 F   0  0  0  0  0  0  0  0  0  0  0  0
   -1.0170   -8.8500    2.4210 F   0  0  0  0  0  0  0  0  0  0  0  0
   -0.3110  -11.4080    1.5130 C   0  0  0  0  0  0  0  0  0  0  0  0
    1.7010  -10.9020    0.0840 H   0  0  0  0  0  0  0  0  0  0  0  0
    1.0826   -9.7389   -2.2567 H   0  0  0  0  0  0  0  0  0  0  0  0
    2.1818   -9.3187   -4.4514 H   0  0  0  0  0  0  0  0  0  0  0  0
    4.0042  -10.8182   -5.2463 H   0  0  0  0  0  0  0  0  0  0  0  0
    3.6315  -14.4119   -4.7995 H   0  0  0  0  0  0  0  0  0  0  0  0
    5.5488  -15.9226   -5.5747 H   0  0  0  0  0  0  0  0  0  0  0  0
    9.8656  -14.2337   -6.1740 H   0  0  0  0  0  0  0  0  0  0  0  0
   14.1452  -14.1380   -4.2909 H   0  0  0  0  0  0  0  0  0  0  0  0
   13.7626  -13.5128   -2.6330 H   0  0  0  0  0  0  0  0  0  0  0  0
   14.6280  -15.6190   -2.4550 H   0  0  0  0  0  0  0  0  0  0  0  0
   12.8345  -16.4993   -4.6225 H   0  0  0  0  0  0  0  0  0  0  0  0
   14.5186  -16.9153   -4.3798 H   0  0  0  0  0  0  0  0  0  0  0  0
   12.6540  -18.6882   -3.6354 H   0  0  0  0  0  0  0  0  0  0  0  0
   13.9576  -18.4307   -2.4996 H   0  0  0  0  0  0  0  0  0  0  0  0
   11.1589  -17.1439   -2.5546 H   0  0  0  0  0  0  0  0  0  0  0  0
   11.9310  -17.9266   -1.1809 H   0  0  0  0  0  0  0  0  0  0  0  0
   11.9764  -15.1874   -1.5672 H   0  0  0  0  0  0  0  0  0  0  0  0
   13.2893  -16.0065   -0.7233 H   0  0  0  0  0  0  0  0  0  0  0  0
   10.9647  -13.0602   -2.1482 H   0  0  0  0  0  0  0  0  0  0  0  0
    8.9764  -11.1209   -2.7885 H   0  0  0  0  0  0  0  0  0  0  0  0
    3.5911  -13.1991   -1.6591 H   0  0  0  0  0  0  0  0  0  0  0  0
    0.6420  -14.6793    1.8270 H   0  0  0  0  0  0  0  0  0  0  0  0
   -0.5033  -14.3769    4.0229 H   0  0  0  0  0  0  0  0  0  0  0  0
   -1.5352  -12.1877    4.6054 H   0  0  0  0  0  0  0  0  0  0  0  0
   -0.2472  -10.5691    0.8044 H   0  0  0  0  0  0  0  0  0  0  0  0
  1  2  2  0
  2  3  1  0
  3  4  1  0
  4  5  2  0
  5  6  1  0
  6  7  2  0
  7  8  1  0
  8  9  1  0
  9 10  2  0
 10 11  1  0
 11 12  2  0
 12 13  1  0
 13 14  2  0
 14 15  1  0
 15 16  2  0
 16 17  1  0
 17 18  1  0
 18 19  1  0
 19 20  1  0
 20 21  1  0
 21 22  1  0
 22 23  1  0
 23 24  1  0
 18 25  2  0
 14 26  1  0
 26 27  2  0
 27 28  1  0
  8 29  2  0
  2 30  1  0
 30 31  2  0
 31 32  1  0
 32 33  2  0
 33 34  1  0
 34 35  1  0
 35 36  1  0
 35 37  1  0
 35 38  1  0
 34 39  2  0
 29  4  1  0
 39 30  1  0
 28  9  1  0
 28 13  1  0
 25 15  1  0
 24 20  1  0
  3 40  1  0
  5 41  1  0
  6 42  1  0
  7 43  1  0
 10 44  1  0
 11 45  1  0
 16 46  1  0
 19 47  1  0
 19 48  1  0
 20 49  1  0
 21 50  1  0
 21 51  1  0
 22 52  1  0
 22 53  1  0
 23 54  1  0
 23 55  1  0
 24 56  1  0
 24 57  1  0
 25 58  1  0
 26 59  1  0
 29 60  1  0
 31 61  1  0
 32 62  1  0
 33 63  1  0
 39 64  1  0
M  CHG  1  20   1
M  END
>  <meeko>  (6) 
{"is_sidechain": [false], "free_energy": -8.87, "intermolecular_energy": -12.495, "internal_energy": -1.101}

$$$$
LIB_UXWQKBQYLIAPJN__M_PUB_ALL__e8__s20260927
     RDKit          3D

 64 69  0  0  0  0  0  0  0  0999 V2000
   -2.4980  -14.4050   -0.3140 O   0  0  0  0  0  0  0  0  0  0  0  0
   -1.8050  -14.6210    0.6730 C   0  0  0  0  0  0  0  0  0  0  0  0
   -0.6640  -13.9340    1.0480 N   0  0  0  0  0  0  0  0  0  0  0  0
   -0.1270  -12.7780    0.4430 C   0  0  0  0  0  0  0  0  0  0  0  0
   -0.7400  -11.5550    0.7370 C   0  0  0  0  0  0  0  0  0  0  0  0
   -0.2620  -10.3690    0.1760 C   0  0  0  0  0  0  0  0  0  0  0  0
    0.8340  -10.3940   -0.6850 C   0  0  0  0  0  0  0  0  0  0  0  0
    1.4610  -11.6060   -0.9990 C   0  0  0  0  0  0  0  0  0  0  0  0
    2.6290  -11.6440   -1.9060 C   0  0  0  0  0  0  0  0  0  0  0  0
    2.4240  -11.5080   -3.2300 C   0  0  0  0  0  0  0  0  0  0  0  0
    3.6340  -11.5540   -4.0880 C   0  0  0  0  0  0  0  0  0  0  0  0
    4.8580  -11.7150   -3.6870 N   0  0  0  0  0  0  0  0  0  0  0  0
    5.0310  -11.8470   -2.3330 C   0  0  0  0  0  0  0  0  0  0  0  0
    6.1620  -12.0100   -1.5580 C   0  0  0  0  0  0  0  0  0  0  0  0
    7.5570  -12.0840   -1.9710 C   0  0  0  0  0  0  0  0  0  0  0  0
    8.1560  -11.5050   -3.0670 C   0  0  0  0  0  0  0  0  0  0  0  0
    9.4820  -11.8110   -3.1030 O   0  0  0  0  0  0  0  0  0  0  0  0
    9.7340  -12.6070   -2.0210 C   0  0  0  0  0  0  0  0  0  0  0  0
   11.1320  -13.0690   -1.8590 C   0  0  0  0  0  0  0  0  0  0  0  0
   12.0100  -12.5900   -2.9830 N   0  0  0  0  0  0  0  0  0  0  0  0
   12.7420  -13.6790   -3.7130 C   0  0  0  0  0  0  0  0  0  0  0  0
   13.9570  -12.9670   -4.2670 C   0  0  0  0  0  0  0  0  0  0  0  0
   14.3430  -12.0400   -3.1310 C   0  0  0  0  0  0  0  0  0  0  0  0
   13.0160  -11.5250   -2.6000 C   0  0  0  0  0  0  0  0  0  0  0  0
    8.5790  -12.7990   -1.2950 C   0  0  0  0  0  0  0  0  0  0  0  0
    5.6950  -12.0920   -0.2380 C   0  0  0  0  0  0  0  0  0  0  0  0
    4.3710  -11.9940   -0.1510 N   0  0  0  0  0  0  0  0  0  0  0  0
    3.9450  -11.8240   -1.4350 N   0  0  0  0  0  0  0  0  0  0  0  0
    0.9620  -12.7940   -0.4330 C   0  0  0  0  0  0  0  0  0  0  0  0
   -2.1710  -15.7670    1.5530 C   0  0  0  0  0  0  0  0  0  0  0  0
   -1.5970  -17.0340    1.3930 C   0  0  0  0  0  0  0  0  0  0  0  0
   -1.9670  -18.0790    2.2400 C   0  0  0  0  0  0  0  0  0  0  0  0
   -2.9010  -17.8610    3.2560 C   0  0  0  0  0  0  0  0  0  0  0  0
   -3.4640  -16.5910    3.4500 C   0  0  0  0  0  0  0  0  0  0  0  0
   -4.4790  -16.3510    4.5410 C   0  0  0  0  0  0  0  0  0  0  0  0
   -5.1310  -15.1660    4.3830 F   0  0  0  0  0  0  0  0  0  0  0  0
   -3.9230  -16.3110    5.7830 F   0  0  0  0  0  0  0  0  0  0  0  0
   -5.4460  -17.3070    4.5950 F   0  0  0  0  0  0  0  0  0  0  0  0
   -3.0920  -15.5470    2.5860 C   0  0  0  0  0  0  0  0  0  0  0  0
   -0.1180  -14.3260    1.8050 H   0  0  0  0  0  0  0  0  0  0  0  0
   -1.6054  -11.5276    1.4155 H   0  0  0  0  0  0  0  0  0  0  0  0
   -0.7513   -9.4130    0.4140 H   0  0  0  0  0  0  0  0  0  0  0  0
    1.2086   -9.4559   -1.1204 H   0  0  0  0  0  0  0  0  0  0  0  0
    1.4173  -11.3707   -3.6514 H   0  0  0  0  0  0  0  0  0  0  0  0
    3.4782  -11.4404   -5.1710 H   0  0  0  0  0  0  0  0  0  0  0  0
    7.6359  -10.8822   -3.8097 H   0  0  0  0  0  0  0  0  0  0  0  0
   11.5274  -12.6823   -0.9081 H   0  0  0  0  0  0  0  0  0  0  0  0
   11.1329  -14.1690   -1.8679 H   0  0  0  0  0  0  0  0  0  0  0  0
   11.3550  -12.1450   -3.6440 H   0  0  0  0  0  0  0  0  0  0  0  0
   13.0367  -14.4857   -3.0256 H   0  0  0  0  0  0  0  0  0  0  0  0
   12.1327  -14.1620   -4.4911 H   0  0  0  0  0  0  0  0  0  0  0  0
   14.7658  -13.6779   -4.4918 H   0  0  0  0  0  0  0  0  0  0  0  0
   13.7627  -12.4418   -5.2138 H   0  0  0  0  0  0  0  0  0  0  0  0
   14.8893  -12.5880   -2.3492 H   0  0  0  0  0  0  0  0  0  0  0  0
   15.0085  -11.2278   -3.4587 H   0  0  0  0  0  0  0  0  0  0  0  0
   13.0559  -11.4040   -1.5074 H   0  0  0  0  0  0  0  0  0  0  0  0
   12.7565  -10.5392   -3.0133 H   0  0  0  0  0  0  0  0  0  0  0  0
    8.4706  -13.3898   -0.3735 H   0  0  0  0  0  0  0  0  0  0  0  0
    6.3537  -12.2234    0.6331 H   0  0  0  0  0  0  0  0  0  0  0  0
    1.4380  -13.7532   -0.6848 H   0  0  0  0  0  0  0  0  0  0  0  0
   -0.8545  -17.2054    0.5997 H   0  0  0  0  0  0  0  0  0  0  0  0
   -1.5226  -19.0765    2.1077 H   0  0  0  0  0  0  0  0  0  0  0  0
   -3.1979  -18.6938    3.9104 H   0  0  0  0  0  0  0  0  0  0  0  0
   -3.5284  -14.5465    2.7220 H   0  0  0  0  0  0  0  0  0  0  0  0
  1  2  2  0
  2  3  1  0
  3  4  1  0
  4  5  2  0
  5  6  1  0
  6  7  2  0
  7  8  1  0
  8  9  1  0
  9 10  2  0
 10 11  1  0
 11 12  2  0
 12 13  1  0
 13 14  2  0
 14 15  1  0
 15 16  2  0
 16 17  1  0
 17 18  1  0
 18 19  1  0
 19 20  1  0
 20 21  1  0
 21 22  1  0
 22 23  1  0
 23 24  1  0
 18 25  2  0
 14 26  1  0
 26 27  2  0
 27 28  1  0
  8 29  2  0
  2 30  1  0
 30 31  2  0
 31 32  1  0
 32 33  2  0
 33 34  1  0
 34 35  1  0
 35 36  1  0
 35 37  1  0
 35 38  1  0
 34 39  2  0
 29  4  1  0
 39 30  1  0
 28  9  1  0
 28 13  1  0
 25 15  1  0
 24 20  1  0
  3 40  1  0
  5 41  1  0
  6 42  1  0
  7 43  1  0
 10 44  1  0
 11 45  1  0
 16 46  1  0
 19 47  1  0
 19 48  1  0
 20 49  1  0
 21 50  1  0
 21 51  1  0
 22 52  1  0
 22 53  1  0
 23 54  1  0
 23 55  1  0
 24 56  1  0
 24 57  1  0
 25 58  1  0
 26 59  1  0
 29 60  1  0
 31 61  1  0
 32 62  1  0
 33 63  1  0
 39 64  1  0
M  CHG  1  20   1
M  END
>  <meeko>  (7) 
{"is_sidechain": [false], "free_energy": -8.745, "intermolecular_energy": -12.351, "internal_energy": -1.07}

$$$$
LIB_UXWQKBQYLIAPJN__M_PUB_ALL__e8__s20260927
     RDKit          3D

 64 69  0  0  0  0  0  0  0  0999 V2000
    7.8920  -11.2520   -2.6760 O   0  0  0  0  0  0  0  0  0  0  0  0
    7.3150  -12.0680   -1.9680 C   0  0  0  0  0  0  0  0  0  0  0  0
    7.9010  -13.0550   -1.1960 N   0  0  0  0  0  0  0  0  0  0  0  0
    9.2800  -13.2550   -0.9740 C   0  0  0  0  0  0  0  0  0  0  0  0
    9.8700  -12.5550    0.0850 C   0  0  0  0  0  0  0  0  0  0  0  0
   11.2290  -12.7040    0.3650 C   0  0  0  0  0  0  0  0  0  0  0  0
   12.0130  -13.5580   -0.4090 C   0  0  0  0  0  0  0  0  0  0  0  0
   11.4480  -14.2660   -1.4770 C   0  0  0  0  0  0  0  0  0  0  0  0
   12.2700  -15.1790   -2.3010 C   0  0  0  0  0  0  0  0  0  0  0  0
   13.0710  -14.6520   -3.2470 C   0  0  0  0  0  0  0  0  0  0  0  0
   13.8700  -15.6180   -4.0410 C   0  0  0  0  0  0  0  0  0  0  0  0
   13.8660  -16.9100   -3.9150 N   0  0  0  0  0  0  0  0  0  0  0  0
   13.0410  -17.4130   -2.9420 C   0  0  0  0  0  0  0  0  0  0  0  0
   12.7950  -18.7030   -2.5150 C   0  0  0  0  0  0  0  0  0  0  0  0
   13.3710  -19.9540   -2.9900 C   0  0  0  0  0  0  0  0  0  0  0  0
   13.3410  -20.4800   -4.2620 C   0  0  0  0  0  0  0  0  0  0  0  0
   13.9970  -21.6730   -4.3000 O   0  0  0  0  0  0  0  0  0  0  0  0
   14.4420  -21.9200   -3.0320 C   0  0  0  0  0  0  0  0  0  0  0  0
   15.1910  -23.1830   -2.8350 C   0  0  0  0  0  0  0  0  0  0  0  0
   16.6650  -22.9340   -2.6640 N   0  0  0  0  0  0  0  0  0  0  0  0
   17.5420  -23.6940   -3.6180 C   0  0  0  0  0  0  0  0  0  0  0  0
   18.8510  -23.8070   -2.8670 C   0  0  0  0  0  0  0  0  0  0  0  0
   18.3960  -24.0690   -1.4460 C   0  0  0  0  0  0  0  0  0  0  0  0
   17.1930  -23.1590   -1.2630 C   0  0  0  0  0  0  0  0  0  0  0  0
   14.0830  -20.8870   -2.1930 C   0  0  0  0  0  0  0  0  0  0  0  0
   11.8450  -18.5770   -1.4910 C   0  0  0  0  0  0  0  0  0  0  0  0
   11.4940  -17.3140   -1.2630 N   0  0  0  0  0  0  0  0  0  0  0  0
   12.2370  -16.5780   -2.1390 N   0  0  0  0  0  0  0  0  0  0  0  0
   10.0790  -14.0970   -1.7530 C   0  0  0  0  0  0  0  0  0  0  0  0
    5.8240  -12.0570   -1.9520 C   0  0  0  0  0  0  0  0  0  0  0  0
    5.0930  -12.5400   -0.8600 C   0  0  0  0  0  0  0  0  0  0  0  0
    3.6980  -12.5100   -0.8870 C   0  0  0  0  0  0  0  0  0  0  0  0
    3.0290  -11.9900   -1.9960 C   0  0  0  0  0  0  0  0  0  0  0  0
    3.7450  -11.4750   -3.0880 C   0  0  0  0  0  0  0  0  0  0  0  0
    3.0280  -10.9180   -4.2920 C   0  0  0  0  0  0  0  0  0  0  0  0
    1.9870  -11.7060   -4.6800 F   0  0  0  0  0  0  0  0  0  0  0  0
    3.8350  -10.7990   -5.3830 F   0  0  0  0  0  0  0  0  0  0  0  0
    2.5020   -9.6800   -4.0800 F   0  0  0  0  0  0  0  0  0  0  0  0
    5.1490  -11.5170   -3.0550 C   0  0  0  0  0  0  0  0  0  0  0  0
    7.2870  -13.7450   -0.7840 H   0  0  0  0  0  0  0  0  0  0  0  0
    9.2570  -11.8815    0.7019 H   0  0  0  0  0  0  0  0  0  0  0  0
   11.6823  -12.1466    1.1979 H   0  0  0  0  0  0  0  0  0  0  0  0
   13.0822  -13.6765   -0.1794 H   0  0  0  0  0  0  0  0  0  0  0  0
   13.1295  -13.5674   -3.4211 H   0  0  0  0  0  0  0  0  0  0  0  0
   14.5313  -15.1976   -4.8130 H   0  0  0  0  0  0  0  0  0  0  0  0
   12.8553  -20.0036   -5.1264 H   0  0  0  0  0  0  0  0  0  0  0  0
   14.8080  -23.6883   -1.9361 H   0  0  0  0  0  0  0  0  0  0  0  0
   15.0500  -23.8087   -3.7286 H   0  0  0  0  0  0  0  0  0  0  0  0
   16.7760  -21.9280   -2.8580 H   0  0  0  0  0  0  0  0  0  0  0  0
   17.1230  -24.6882   -3.8326 H   0  0  0  0  0  0  0  0  0  0  0  0
   17.6461  -23.2005   -4.5956 H   0  0  0  0  0  0  0  0  0  0  0  0
   19.4575  -24.6410   -3.2498 H   0  0  0  0  0  0  0  0  0  0  0  0
   19.4893  -22.9165   -2.9645 H   0  0  0  0  0  0  0  0  0  0  0  0
   18.1103  -25.1233   -1.3165 H   0  0  0  0  0  0  0  0  0  0  0  0
   19.1878  -23.8722   -0.7082 H   0  0  0  0  0  0  0  0  0  0  0  0
   16.4315  -23.6442   -0.6347 H   0  0  0  0  0  0  0  0  0  0  0  0
   17.4566  -22.2163   -0.7611 H   0  0  0  0  0  0  0  0  0  0  0  0
   14.3046  -20.8028   -1.1188 H   0  0  0  0  0  0  0  0  0  0  0  0
   11.4334  -19.4322   -0.9349 H   0  0  0  0  0  0  0  0  0  0  0  0
    9.6285  -14.6379   -2.5982 H   0  0  0  0  0  0  0  0  0  0  0  0
    5.6179  -12.9429    0.0187 H   0  0  0  0  0  0  0  0  0  0  0  0
    3.1243  -12.8972   -0.0320 H   0  0  0  0  0  0  0  0  0  0  0  0
    1.9292  -11.9837   -2.0145 H   0  0  0  0  0  0  0  0  0  0  0  0
    5.7249  -11.1215   -3.9046 H   0  0  0  0  0  0  0  0  0  0  0  0
  1  2  2  0
  2  3  1  0
  3  4  1  0
  4  5  2  0
  5  6  1  0
  6  7  2  0
  7  8  1  0
  8  9  1  0
  9 10  2  0
 10 11  1  0
 11 12  2  0
 12 13  1  0
 13 14  2  0
 14 15  1  0
 15 16  2  0
 16 17  1  0
 17 18  1  0
 18 19  1  0
 19 20  1  0
 20 21  1  0
 21 22  1  0
 22 23  1  0
 23 24  1  0
 18 25  2  0
 14 26  1  0
 26 27  2  0
 27 28  1  0
  8 29  2  0
  2 30  1  0
 30 31  2  0
 31 32  1  0
 32 33  2  0
 33 34  1  0
 34 35  1  0
 35 36  1  0
 35 37  1  0
 35 38  1  0
 34 39  2  0
 29  4  1  0
 39 30  1  0
 28  9  1  0
 28 13  1  0
 25 15  1  0
 24 20  1  0
  3 40  1  0
  5 41  1  0
  6 42  1  0
  7 43  1  0
 10 44  1  0
 11 45  1  0
 16 46  1  0
 19 47  1  0
 19 48  1  0
 20 49  1  0
 21 50  1  0
 21 51  1  0
 22 52  1  0
 22 53  1  0
 23 54  1  0
 23 55  1  0
 24 56  1  0
 24 57  1  0
 25 58  1  0
 26 59  1  0
 29 60  1  0
 31 61  1  0
 32 62  1  0
 33 63  1  0
 39 64  1  0
M  CHG  1  20   1
M  END
>  <meeko>  (8) 
{"is_sidechain": [false], "free_energy": -8.678, "intermolecular_energy": -12.115, "internal_energy": -1.211}

$$$$
LIB_UXWQKBQYLIAPJN__M_PUB_ALL__e8__s20260927
     RDKit          3D

 64 69  0  0  0  0  0  0  0  0999 V2000
   -1.2540  -14.8460    0.1860 O   0  0  0  0  0  0  0  0  0  0  0  0
   -0.7060  -14.5600    1.2440 C   0  0  0  0  0  0  0  0  0  0  0  0
    0.1600  -13.5050    1.4680 N   0  0  0  0  0  0  0  0  0  0  0  0
    0.5020  -12.4770    0.5640 C   0  0  0  0  0  0  0  0  0  0  0  0
   -0.2630  -11.3050    0.6030 C   0  0  0  0  0  0  0  0  0  0  0  0
    0.0190  -10.2450   -0.2600 C   0  0  0  0  0  0  0  0  0  0  0  0
    1.0690  -10.3440   -1.1710 C   0  0  0  0  0  0  0  0  0  0  0  0
    1.8450  -11.5080   -1.2330 C   0  0  0  0  0  0  0  0  0  0  0  0
    2.9660  -11.6220   -2.1920 C   0  0  0  0  0  0  0  0  0  0  0  0
    2.7020  -11.5310   -3.5090 C   0  0  0  0  0  0  0  0  0  0  0  0
    3.8660  -11.6530   -4.4210 C   0  0  0  0  0  0  0  0  0  0  0  0
    5.1030  -11.8410   -4.0720 N   0  0  0  0  0  0  0  0  0  0  0  0
    5.3370  -11.9270   -2.7230 C   0  0  0  0  0  0  0  0  0  0  0  0
    6.4980  -12.1000   -1.9970 C   0  0  0  0  0  0  0  0  0  0  0  0
    7.8680  -12.2400   -2.4710 C   0  0  0  0  0  0  0  0  0  0  0  0
    8.5820  -11.3880   -3.2830 C   0  0  0  0  0  0  0  0  0  0  0  0
    9.8360  -11.8730   -3.4980 O   0  0  0  0  0  0  0  0  0  0  0  0
    9.9220  -13.0580   -2.8230 C   0  0  0  0  0  0  0  0  0  0  0  0
   11.2160  -13.7740   -2.9190 C   0  0  0  0  0  0  0  0  0  0  0  0
   12.1270  -13.4310   -1.7720 N   0  0  0  0  0  0  0  0  0  0  0  0
   11.5470  -13.6960   -0.4120 C   0  0  0  0  0  0  0  0  0  0  0  0
   12.2910  -12.7210    0.4760 C   0  0  0  0  0  0  0  0  0  0  0  0
   12.3740  -11.4810   -0.3910 C   0  0  0  0  0  0  0  0  0  0  0  0
   12.6650  -12.0160   -1.7830 C   0  0  0  0  0  0  0  0  0  0  0  0
    8.7360  -13.3220   -2.1740 C   0  0  0  0  0  0  0  0  0  0  0  0
    6.0930  -12.1150   -0.6540 C   0  0  0  0  0  0  0  0  0  0  0  0
    4.7780  -11.9660   -0.5080 N   0  0  0  0  0  0  0  0  0  0  0  0
    4.2960  -11.8310   -1.7770 N   0  0  0  0  0  0  0  0  0  0  0  0
    1.5430  -12.5720   -0.3640 C   0  0  0  0  0  0  0  0  0  0  0  0
   -0.9330  -15.4510    2.4180 C   0  0  0  0  0  0  0  0  0  0  0  0
   -1.5000  -16.7240    2.2810 C   0  0  0  0  0  0  0  0  0  0  0  0
   -1.6930  -17.5250    3.4070 C   0  0  0  0  0  0  0  0  0  0  0  0
   -1.3140  -17.0640    4.6690 C   0  0  0  0  0  0  0  0  0  0  0  0
   -0.7190  -15.8030    4.8220 C   0  0  0  0  0  0  0  0  0  0  0  0
   -0.3130  -15.2970    6.1840 C   0  0  0  0  0  0  0  0  0  0  0  0
   -1.2640  -15.5440    7.1280 F   0  0  0  0  0  0  0  0  0  0  0  0
   -0.1010  -13.9510    6.2090 F   0  0  0  0  0  0  0  0  0  0  0  0
    0.8340  -15.8640    6.6490 F   0  0  0  0  0  0  0  0  0  0  0  0
   -0.5350  -15.0000    3.6840 C   0  0  0  0  0  0  0  0  0  0  0  0
    0.6470  -13.4880    2.3550 H   0  0  0  0  0  0  0  0  0  0  0  0
   -1.0931  -11.2190    1.3197 H   0  0  0  0  0  0  0  0  0  0  0  0
   -0.5890   -9.3291   -0.2210 H   0  0  0  0  0  0  0  0  0  0  0  0
    1.2894   -9.5031   -1.8451 H   0  0  0  0  0  0  0  0  0  0  0  0
    1.6810  -11.3750   -3.8876 H   0  0  0  0  0  0  0  0  0  0  0  0
    3.6612  -11.5767   -5.4991 H   0  0  0  0  0  0  0  0  0  0  0  0
    8.1938  -10.4470   -3.6999 H   0  0  0  0  0  0  0  0  0  0  0  0
   11.0256  -14.8574   -2.9116 H   0  0  0  0  0  0  0  0  0  0  0  0
   11.7096  -13.4674   -3.8530 H   0  0  0  0  0  0  0  0  0  0  0  0
   12.9400  -14.0510   -1.9000 H   0  0  0  0  0  0  0  0  0  0  0  0
   10.4654  -13.4960   -0.3984 H   0  0  0  0  0  0  0  0  0  0  0  0
   11.6574  -14.7426   -0.0918 H   0  0  0  0  0  0  0  0  0  0  0  0
   11.7320  -12.5213    1.4021 H   0  0  0  0  0  0  0  0  0  0  0  0
   13.2732  -13.0911    0.8053 H   0  0  0  0  0  0  0  0  0  0  0  0
   11.4218  -10.9305   -0.3762 H   0  0  0  0  0  0  0  0  0  0  0  0
   13.1422  -10.7749   -0.0427 H   0  0  0  0  0  0  0  0  0  0  0  0
   12.1518  -11.4119   -2.5457 H   0  0  0  0  0  0  0  0  0  0  0  0
   13.7372  -11.9806   -2.0264 H   0  0  0  0  0  0  0  0  0  0  0  0
    8.5073  -14.1981   -1.5493 H   0  0  0  0  0  0  0  0  0  0  0  0
    6.7885  -12.2370    0.1895 H   0  0  0  0  0  0  0  0  0  0  0  0
    2.1372  -13.4962   -0.4157 H   0  0  0  0  0  0  0  0  0  0  0  0
   -1.7929  -17.0921    1.2867 H   0  0  0  0  0  0  0  0  0  0  0  0
   -2.1449  -18.5222    3.3001 H   0  0  0  0  0  0  0  0  0  0  0  0
   -1.4838  -17.6964    5.5529 H   0  0  0  0  0  0  0  0  0  0  0  0
   -0.0737  -14.0068    3.7876 H   0  0  0  0  0  0  0  0  0  0  0  0
  1  2  2  0
  2  3  1  0
  3  4  1  0
  4  5  2  0
  5  6  1  0
  6  7  2  0
  7  8  1  0
  8  9  1  0
  9 10  2  0
 10 11  1  0
 11 12  2  0
 12 13  1  0
 13 14  2  0
 14 15  1  0
 15 16  2  0
 16 17  1  0
 17 18  1  0
 18 19  1  0
 19 20  1  0
 20 21  1  0
 21 22  1  0
 22 23  1  0
 23 24  1  0
 18 25  2  0
 14 26  1  0
 26 27  2  0
 27 28  1  0
  8 29  2  0
  2 30  1  0
 30 31  2  0
 31 32  1  0
 32 33  2  0
 33 34  1  0
 34 35  1  0
 35 36  1  0
 35 37  1  0
 35 38  1  0
 34 39  2  0
 29  4  1  0
 39 30  1  0
 28  9  1  0
 28 13  1  0
 25 15  1  0
 24 20  1  0
  3 40  1  0
  5 41  1  0
  6 42  1  0
  7 43  1  0
 10 44  1  0
 11 45  1  0
 16 46  1  0
 19 47  1  0
 19 48  1  0
 20 49  1  0
 21 50  1  0
 21 51  1  0
 22 52  1  0
 22 53  1  0
 23 54  1  0
 23 55  1  0
 24 56  1  0
 24 57  1  0
 25 58  1  0
 26 59  1  0
 29 60  1  0
 31 61  1  0
 32 62  1  0
 33 63  1  0
 39 64  1  0
M  CHG  1  20   1
M  END
>  <meeko>  (9) 
{"is_sidechain": [false], "free_energy": -8.66, "intermolecular_energy": -12.183, "internal_energy": -1.117}

$$$$
