LIB_YLUXGJXUXWARJV__M_PUB_ALL__e8__s20260927
     RDKit          3D

 60 64  0  0  0  0  0  0  0  0999 V2000
   11.7050   -7.8640  -13.0710 O   0  0  0  0  0  0  0  0  0  0  0  0
   11.2590   -7.5300  -11.9810 C   0  0  0  0  0  0  0  0  0  0  0  0
   10.6920   -8.3980  -11.0560 N   0  0  0  0  0  0  0  0  0  0  0  0
   10.6370   -9.8070  -11.1210 C   0  0  0  0  0  0  0  0  0  0  0  0
    9.5020  -10.3740  -11.7110 C   0  0  0  0  0  0  0  0  0  0  0  0
    9.3700  -11.7590  -11.8070 C   0  0  0  0  0  0  0  0  0  0  0  0
   10.3750  -12.5900  -11.3140 C   0  0  0  0  0  0  0  0  0  0  0  0
   11.5250  -12.0500  -10.7220 C   0  0  0  0  0  0  0  0  0  0  0  0
   12.5730  -12.9580  -10.1910 C   0  0  0  0  0  0  0  0  0  0  0  0
   13.5000  -13.4760  -11.0230 C   0  0  0  0  0  0  0  0  0  0  0  0
   14.4540  -14.3200  -10.4980 N   0  0  0  0  0  0  0  0  0  0  0  0
   15.5070  -14.9780  -11.0710 C   0  0  0  0  0  0  0  0  0  0  0  0
   16.1070  -15.6620  -10.0370 C   0  0  0  0  0  0  0  0  0  0  0  0
   15.4510  -15.4440   -8.8500 N   0  0  0  0  0  0  0  0  0  0  0  0
   14.4580  -14.6350   -9.1650 C   0  0  0  0  0  0  0  0  0  0  0  0
   13.4280  -14.0660   -8.3080 C   0  0  0  0  0  0  0  0  0  0  0  0
   13.2950  -14.2850   -6.9600 N   0  0  0  0  0  0  0  0  0  0  0  0
   14.2000  -15.0150   -6.1000 C   0  0  0  0  0  0  0  0  0  0  0  0
   13.6250  -15.2070   -4.6910 C   0  0  0  0  0  0  0  0  0  0  0  0
   13.2350  -13.9050   -4.0310 C   0  0  0  0  0  0  0  0  0  0  0  0
   11.9220  -13.6860   -3.6060 C   0  0  0  0  0  0  0  0  0  0  0  0
   11.6140  -12.4860   -2.9850 C   0  0  0  0  0  0  0  0  0  0  0  0
   12.5130  -11.5020   -2.7620 N   0  0  0  0  0  0  0  0  0  0  0  0
   13.7750  -11.7330   -3.1800 C   0  0  0  0  0  0  0  0  0  0  0  0
   14.1810  -12.9010   -3.8090 C   0  0  0  0  0  0  0  0  0  0  0  0
   12.5280  -13.2590   -8.8340 N   0  0  0  0  0  0  0  0  0  0  0  0
   11.6320  -10.6510  -10.6190 C   0  0  0  0  0  0  0  0  0  0  0  0
   11.2420   -6.2300  -11.4940 N   0  0  0  0  0  0  0  0  0  0  0  0
   11.6290   -5.0520  -12.1660 C   0  0  0  0  0  0  0  0  0  0  0  0
   13.0030   -4.8360  -12.3340 C   0  0  0  0  0  0  0  0  0  0  0  0
   13.4730   -3.6940  -12.9870 C   0  0  0  0  0  0  0  0  0  0  0  0
   12.5720   -2.7520  -13.4750 C   0  0  0  0  0  0  0  0  0  0  0  0
   11.1930   -2.9390  -13.3090 C   0  0  0  0  0  0  0  0  0  0  0  0
   10.2030   -1.9350  -13.8440 C   0  0  0  0  0  0  0  0  0  0  0  0
   10.7870   -0.9430  -14.5690 F   0  0  0  0  0  0  0  0  0  0  0  0
    9.5010   -1.3170  -12.8540 F   0  0  0  0  0  0  0  0  0  0  0  0
    9.2680   -2.4900  -14.6680 F   0  0  0  0  0  0  0  0  0  0  0  0
   10.7340   -4.0980  -12.6550 C   0  0  0  0  0  0  0  0  0  0  0  0
   10.1950   -7.9740  -10.2890 H   0  0  0  0  0  0  0  0  0  0  0  0
    8.7073   -9.7219  -12.1023 H   0  0  0  0  0  0  0  0  0  0  0  0
    8.4735  -12.1955  -12.2714 H   0  0  0  0  0  0  0  0  0  0  0  0
   10.2642  -13.6817  -11.3905 H   0  0  0  0  0  0  0  0  0  0  0  0
   13.4943  -13.2303  -12.0952 H   0  0  0  0  0  0  0  0  0  0  0  0
   15.8093  -14.9640  -12.1286 H   0  0  0  0  0  0  0  0  0  0  0  0
   16.9962  -16.3001  -10.1474 H   0  0  0  0  0  0  0  0  0  0  0  0
   12.5450  -13.7700   -6.5150 H   0  0  0  0  0  0  0  0  0  0  0  0
   14.3912  -16.0034   -6.5432 H   0  0  0  0  0  0  0  0  0  0  0  0
   15.1286  -14.4321   -6.0113 H   0  0  0  0  0  0  0  0  0  0  0  0
   12.7324  -15.8461   -4.7606 H   0  0  0  0  0  0  0  0  0  0  0  0
   14.4113  -15.6665   -4.0741 H   0  0  0  0  0  0  0  0  0  0  0  0
   11.1476  -14.4516   -3.7614 H   0  0  0  0  0  0  0  0  0  0  0  0
   10.5773  -12.3251   -2.6543 H   0  0  0  0  0  0  0  0  0  0  0  0
   14.5271  -10.9481   -3.0119 H   0  0  0  0  0  0  0  0  0  0  0  0
   15.2258  -13.0339   -4.1263 H   0  0  0  0  0  0  0  0  0  0  0  0
   12.5164  -10.2124  -10.1337 H   0  0  0  0  0  0  0  0  0  0  0  0
   10.9820   -6.1200  -10.5270 H   0  0  0  0  0  0  0  0  0  0  0  0
   13.7204   -5.5746  -11.9470 H   0  0  0  0  0  0  0  0  0  0  0  0
   14.5545   -3.5393  -13.1154 H   0  0  0  0  0  0  0  0  0  0  0  0
   12.9442   -1.8562  -13.9936 H   0  0  0  0  0  0  0  0  0  0  0  0
    9.6528   -4.2548  -12.5271 H   0  0  0  0  0  0  0  0  0  0  0  0
  1  2  2  0
  2  3  1  0
  3  4  1  0
  4  5  2  0
  5  6  1  0
  6  7  2  0
  7  8  1  0
  8  9  1  0
  9 10  2  0
 10 11  1  0
 11 12  1  0
 12 13  2  0
 13 14  1  0
 14 15  2  0
 15 16  1  0
 16 17  1  0
 17 18  1  0
 18 19  1  0
 19 20  1  0
 20 21  2  0
 21 22  1  0
 22 23  2  0
 23 24  1  0
 24 25  2  0
 16 26  2  0
  8 27  2  0
  2 28  1  0
 28 29  1  0
 29 30  2  0
 30 31  1  0
 31 32  2  0
 32 33  1  0
 33 34  1  0
 34 35  1  0
 34 36  1  0
 34 37  1  0
 33 38  2  0
 27  4  1  0
 38 29  1  0
 26  9  1  0
 15 11  1  0
 25 20  1  0
  3 39  1  0
  5 40  1  0
  6 41  1  0
  7 42  1  0
 10 43  1  0
 12 44  1  0
 13 45  1  0
 17 46  1  0
 18 47  1  0
 18 48  1  0
 19 49  1  0
 19 50  1  0
 21 51  1  0
 22 52  1  0
 24 53  1  0
 25 54  1  0
 27 55  1  0
 28 56  1  0
 30 57  1  0
 31 58  1  0
 32 59  1  0
 38 60  1  0
M  END
>  <meeko>  (1) 
{"is_sidechain": [false], "free_energy": -10.021, "intermolecular_energy": -14.122, "internal_energy": -1.011}

$$$$
LIB_YLUXGJXUXWARJV__M_PUB_ALL__e8__s20260927
     RDKit          3D

 60 64  0  0  0  0  0  0  0  0999 V2000
    4.2060  -13.1880   -6.6220 O   0  0  0  0  0  0  0  0  0  0  0  0
    5.2390  -13.0130   -5.9890 C   0  0  0  0  0  0  0  0  0  0  0  0
    5.3190  -12.3580   -4.7670 N   0  0  0  0  0  0  0  0  0  0  0  0
    4.2520  -11.8960   -3.9680 C   0  0  0  0  0  0  0  0  0  0  0  0
    3.6300  -10.7050   -4.3620 C   0  0  0  0  0  0  0  0  0  0  0  0
    2.5720  -10.1790   -3.6210 C   0  0  0  0  0  0  0  0  0  0  0  0
    2.1250  -10.8420   -2.4790 C   0  0  0  0  0  0  0  0  0  0  0  0
    2.7250  -12.0380   -2.0630 C   0  0  0  0  0  0  0  0  0  0  0  0
    2.2390  -12.7150   -0.8340 C   0  0  0  0  0  0  0  0  0  0  0  0
    3.1220  -13.2140    0.0550 C   0  0  0  0  0  0  0  0  0  0  0  0
    2.6350  -13.8420    1.1810 N   0  0  0  0  0  0  0  0  0  0  0  0
    3.2650  -14.4250    2.2460 C   0  0  0  0  0  0  0  0  0  0  0  0
    2.2480  -14.8710    3.0620 C   0  0  0  0  0  0  0  0  0  0  0  0
    1.0170  -14.5800    2.5260 N   0  0  0  0  0  0  0  0  0  0  0  0
    1.2880  -13.9640    1.3920 C   0  0  0  0  0  0  0  0  0  0  0  0
    0.3710  -13.4250    0.3970 C   0  0  0  0  0  0  0  0  0  0  0  0
   -0.9990  -13.4700    0.4600 N   0  0  0  0  0  0  0  0  0  0  0  0
   -1.8070  -13.9450    1.5610 C   0  0  0  0  0  0  0  0  0  0  0  0
   -2.9480  -12.9770    1.8950 C   0  0  0  0  0  0  0  0  0  0  0  0
   -2.4870  -11.5430    2.0220 C   0  0  0  0  0  0  0  0  0  0  0  0
   -2.8030  -10.6030    1.0370 C   0  0  0  0  0  0  0  0  0  0  0  0
   -2.3800   -9.2950    1.2060 C   0  0  0  0  0  0  0  0  0  0  0  0
   -1.6730   -8.8640    2.2740 N   0  0  0  0  0  0  0  0  0  0  0  0
   -1.3780   -9.7880    3.2130 C   0  0  0  0  0  0  0  0  0  0  0  0
   -1.7580  -11.1190    3.1360 C   0  0  0  0  0  0  0  0  0  0  0  0
    0.8620  -12.8270   -0.6710 N   0  0  0  0  0  0  0  0  0  0  0  0
    3.8020  -12.5440   -2.8140 C   0  0  0  0  0  0  0  0  0  0  0  0
    6.4980  -13.4360   -6.3920 N   0  0  0  0  0  0  0  0  0  0  0  0
    6.8550  -14.0440   -7.6140 C   0  0  0  0  0  0  0  0  0  0  0  0
    7.2780  -15.3790   -7.5620 C   0  0  0  0  0  0  0  0  0  0  0  0
    7.6500  -16.0570   -8.7240 C   0  0  0  0  0  0  0  0  0  0  0  0
    7.6080  -15.4050   -9.9540 C   0  0  0  0  0  0  0  0  0  0  0  0
    7.2000  -14.0660  -10.0300 C   0  0  0  0  0  0  0  0  0  0  0  0
    7.1360  -13.3480  -11.3550 C   0  0  0  0  0  0  0  0  0  0  0  0
    6.7970  -12.0350  -11.2350 F   0  0  0  0  0  0  0  0  0  0  0  0
    6.2220  -13.8980  -12.2020 F   0  0  0  0  0  0  0  0  0  0  0  0
    8.3210  -13.3610  -12.0300 F   0  0  0  0  0  0  0  0  0  0  0  0
    6.8210  -13.3970   -8.8510 C   0  0  0  0  0  0  0  0  0  0  0  0
    6.2440  -12.1150   -4.4470 H   0  0  0  0  0  0  0  0  0  0  0  0
    3.9787  -10.1799   -5.2635 H   0  0  0  0  0  0  0  0  0  0  0  0
    2.0907   -9.2419   -3.9374 H   0  0  0  0  0  0  0  0  0  0  0  0
    1.2914  -10.4212   -1.8976 H   0  0  0  0  0  0  0  0  0  0  0  0
    4.2049  -13.1220   -0.1146 H   0  0  0  0  0  0  0  0  0  0  0  0
    4.3481  -14.5177    2.4145 H   0  0  0  0  0  0  0  0  0  0  0  0
    2.4019  -15.3923    4.0183 H   0  0  0  0  0  0  0  0  0  0  0  0
   -1.4770  -13.0040   -0.3010 H   0  0  0  0  0  0  0  0  0  0  0  0
   -2.2367  -14.9210    1.2911 H   0  0  0  0  0  0  0  0  0  0  0  0
   -1.1601  -14.0266    2.4469 H   0  0  0  0  0  0  0  0  0  0  0  0
   -3.7013  -13.0337    1.0954 H   0  0  0  0  0  0  0  0  0  0  0  0
   -3.3605  -13.2778    2.8693 H   0  0  0  0  0  0  0  0  0  0  0  0
   -3.3763  -10.8963    0.1452 H   0  0  0  0  0  0  0  0  0  0  0  0
   -2.6346   -8.5638    0.4247 H   0  0  0  0  0  0  0  0  0  0  0  0
   -0.8013   -9.4653    4.0923 H   0  0  0  0  0  0  0  0  0  0  0  0
   -1.4912  -11.8264    3.9351 H   0  0  0  0  0  0  0  0  0  0  0  0
    4.3000  -13.4684   -2.4863 H   0  0  0  0  0  0  0  0  0  0  0  0
    7.2340  -13.3570   -5.7090 H   0  0  0  0  0  0  0  0  0  0  0  0
    7.3174  -15.8990   -6.5935 H   0  0  0  0  0  0  0  0  0  0  0  0
    7.9763  -17.1060   -8.6683 H   0  0  0  0  0  0  0  0  0  0  0  0
    7.8961  -15.9428  -10.8693 H   0  0  0  0  0  0  0  0  0  0  0  0
    6.4930  -12.3484   -8.9049 H   0  0  0  0  0  0  0  0  0  0  0  0
  1  2  2  0
  2  3  1  0
  3  4  1  0
  4  5  2  0
  5  6  1  0
  6  7  2  0
  7  8  1  0
  8  9  1  0
  9 10  2  0
 10 11  1  0
 11 12  1  0
 12 13  2  0
 13 14  1  0
 14 15  2  0
 15 16  1  0
 16 17  1  0
 17 18  1  0
 18 19  1  0
 19 20  1  0
 20 21  2  0
 21 22  1  0
 22 23  2  0
 23 24  1  0
 24 25  2  0
 16 26  2  0
  8 27  2  0
  2 28  1  0
 28 29  1  0
 29 30  2  0
 30 31  1  0
 31 32  2  0
 32 33  1  0
 33 34  1  0
 34 35  1  0
 34 36  1  0
 34 37  1  0
 33 38  2  0
 27  4  1  0
 38 29  1  0
 26  9  1  0
 15 11  1  0
 25 20  1  0
  3 39  1  0
  5 40  1  0
  6 41  1  0
  7 42  1  0
 10 43  1  0
 12 44  1  0
 13 45  1  0
 17 46  1  0
 18 47  1  0
 18 48  1  0
 19 49  1  0
 19 50  1  0
 21 51  1  0
 22 52  1  0
 24 53  1  0
 25 54  1  0
 27 55  1  0
 28 56  1  0
 30 57  1  0
 31 58  1  0
 32 59  1  0
 38 60  1  0
M  END
>  <meeko>  (2) 
{"is_sidechain": [false], "free_energy": -9.572, "intermolecular_energy": -13.398, "internal_energy": -1.102}

$$$$
LIB_YLUXGJXUXWARJV__M_PUB_ALL__e8__s20260927
     RDKit          3D

 60 64  0  0  0  0  0  0  0  0999 V2000
    7.0210  -10.8110   -2.0670 O   0  0  0  0  0  0  0  0  0  0  0  0
    6.8490  -12.0140   -2.2120 C   0  0  0  0  0  0  0  0  0  0  0  0
    5.6100  -12.6400   -2.2550 N   0  0  0  0  0  0  0  0  0  0  0  0
    4.3390  -12.0270   -2.2740 C   0  0  0  0  0  0  0  0  0  0  0  0
    3.9640  -11.3730   -3.4530 C   0  0  0  0  0  0  0  0  0  0  0  0
    2.7260  -10.7380   -3.5490 C   0  0  0  0  0  0  0  0  0  0  0  0
    1.8500  -10.7540   -2.4640 C   0  0  0  0  0  0  0  0  0  0  0  0
    2.1970  -11.4040   -1.2730 C   0  0  0  0  0  0  0  0  0  0  0  0
    1.2510  -11.3920   -0.1280 C   0  0  0  0  0  0  0  0  0  0  0  0
    0.4290  -10.3380    0.0550 C   0  0  0  0  0  0  0  0  0  0  0  0
   -0.4310  -10.3580    1.1320 N   0  0  0  0  0  0  0  0  0  0  0  0
   -1.3710   -9.4640    1.5660 C   0  0  0  0  0  0  0  0  0  0  0  0
   -1.9210  -10.0410    2.6900 C   0  0  0  0  0  0  0  0  0  0  0  0
   -1.3440  -11.2590    2.9560 N   0  0  0  0  0  0  0  0  0  0  0  0
   -0.4480  -11.4160    2.0000 C   0  0  0  0  0  0  0  0  0  0  0  0
    0.4680  -12.5240    1.7720 C   0  0  0  0  0  0  0  0  0  0  0  0
    0.5750  -13.6500    2.5490 N   0  0  0  0  0  0  0  0  0  0  0  0
   -0.2650  -14.0220    3.6660 C   0  0  0  0  0  0  0  0  0  0  0  0
   -0.9640  -15.3680    3.4350 C   0  0  0  0  0  0  0  0  0  0  0  0
   -1.7840  -15.3960    2.1650 C   0  0  0  0  0  0  0  0  0  0  0  0
   -2.7840  -14.4460    1.9420 C   0  0  0  0  0  0  0  0  0  0  0  0
   -3.4950  -14.4950    0.7530 C   0  0  0  0  0  0  0  0  0  0  0  0
   -3.2810  -15.4140   -0.2140 N   0  0  0  0  0  0  0  0  0  0  0  0
   -2.3110  -16.3220    0.0220 C   0  0  0  0  0  0  0  0  0  0  0  0
   -1.5450  -16.3530    1.1770 C   0  0  0  0  0  0  0  0  0  0  0  0
    1.2800  -12.4830    0.7350 N   0  0  0  0  0  0  0  0  0  0  0  0
    3.4570  -12.0250   -1.1890 C   0  0  0  0  0  0  0  0  0  0  0  0
    7.8660  -12.9490   -2.3520 N   0  0  0  0  0  0  0  0  0  0  0  0
    9.2570  -12.7330   -2.2600 C   0  0  0  0  0  0  0  0  0  0  0  0
    9.9810  -12.7250   -3.4600 C   0  0  0  0  0  0  0  0  0  0  0  0
   11.3620  -12.5190   -3.4600 C   0  0  0  0  0  0  0  0  0  0  0  0
   12.0360  -12.3230   -2.2580 C   0  0  0  0  0  0  0  0  0  0  0  0
   11.3360  -12.3380   -1.0440 C   0  0  0  0  0  0  0  0  0  0  0  0
   12.0490  -12.1130    0.2660 C   0  0  0  0  0  0  0  0  0  0  0  0
   13.2840  -11.5620    0.1150 F   0  0  0  0  0  0  0  0  0  0  0  0
   12.2330  -13.2680    0.9640 F   0  0  0  0  0  0  0  0  0  0  0  0
   11.3750  -11.2770    1.1070 F   0  0  0  0  0  0  0  0  0  0  0  0
    9.9440  -12.5400   -1.0590 C   0  0  0  0  0  0  0  0  0  0  0  0
    5.6120  -13.6450   -2.1860 H   0  0  0  0  0  0  0  0  0  0  0  0
    4.6516  -11.3597   -4.3115 H   0  0  0  0  0  0  0  0  0  0  0  0
    2.4409  -10.2252   -4.4794 H   0  0  0  0  0  0  0  0  0  0  0  0
    0.8754  -10.2504   -2.5446 H   0  0  0  0  0  0  0  0  0  0  0  0
    0.4447   -9.4839   -0.6380 H   0  0  0  0  0  0  0  0  0  0  0  0
   -1.6313   -8.4948    1.1155 H   0  0  0  0  0  0  0  0  0  0  0  0
   -2.7184   -9.5855    3.2955 H   0  0  0  0  0  0  0  0  0  0  0  0
    1.2370  -14.3390    2.2140 H   0  0  0  0  0  0  0  0  0  0  0  0
    0.3577  -14.0955    4.5698 H   0  0  0  0  0  0  0  0  0  0  0  0
   -1.0411  -13.2508    3.7797 H   0  0  0  0  0  0  0  0  0  0  0  0
   -0.1981  -16.1553    3.3755 H   0  0  0  0  0  0  0  0  0  0  0  0
   -1.6538  -15.5299    4.2764 H   0  0  0  0  0  0  0  0  0  0  0  0
   -3.0027  -13.6745    2.6950 H   0  0  0  0  0  0  0  0  0  0  0  0
   -4.2792  -13.7417    0.5871 H   0  0  0  0  0  0  0  0  0  0  0  0
   -2.1165  -17.0830   -0.7481 H   0  0  0  0  0  0  0  0  0  0  0  0
   -0.7646  -17.1163    1.3123 H   0  0  0  0  0  0  0  0  0  0  0  0
    3.7538  -12.5184   -0.2517 H   0  0  0  0  0  0  0  0  0  0  0  0
    7.5820  -13.8800   -2.6100 H   0  0  0  0  0  0  0  0  0  0  0  0
    9.4551  -12.8829   -4.4131 H   0  0  0  0  0  0  0  0  0  0  0  0
   11.9172  -12.5116   -4.4096 H   0  0  0  0  0  0  0  0  0  0  0  0
   13.1232  -12.1555   -2.2610 H   0  0  0  0  0  0  0  0  0  0  0  0
    9.3876  -12.5461   -0.1101 H   0  0  0  0  0  0  0  0  0  0  0  0
  1  2  2  0
  2  3  1  0
  3  4  1  0
  4  5  2  0
  5  6  1  0
  6  7  2  0
  7  8  1  0
  8  9  1  0
  9 10  2  0
 10 11  1  0
 11 12  1  0
 12 13  2  0
 13 14  1  0
 14 15  2  0
 15 16  1  0
 16 17  1  0
 17 18  1  0
 18 19  1  0
 19 20  1  0
 20 21  2  0
 21 22  1  0
 22 23  2  0
 23 24  1  0
 24 25  2  0
 16 26  2  0
  8 27  2  0
  2 28  1  0
 28 29  1  0
 29 30  2  0
 30 31  1  0
 31 32  2  0
 32 33  1  0
 33 34  1  0
 34 35  1  0
 34 36  1  0
 34 37  1  0
 33 38  2  0
 27  4  1  0
 38 29  1  0
 26  9  1  0
 15 11  1  0
 25 20  1  0
  3 39  1  0
  5 40  1  0
  6 41  1  0
  7 42  1  0
 10 43  1  0
 12 44  1  0
 13 45  1  0
 17 46  1  0
 18 47  1  0
 18 48  1  0
 19 49  1  0
 19 50  1  0
 21 51  1  0
 22 52  1  0
 24 53  1  0
 25 54  1  0
 27 55  1  0
 28 56  1  0
 30 57  1  0
 31 58  1  0
 32 59  1  0
 38 60  1  0
M  END
>  <meeko>  (3) 
{"is_sidechain": [false], "free_energy": -9.469, "intermolecular_energy": -13.104, "internal_energy": -1.251}

$$$$
LIB_YLUXGJXUXWARJV__M_PUB_ALL__e8__s20260927
     RDKit          3D

 60 64  0  0  0  0  0  0  0  0999 V2000
    7.4750  -11.2840   -2.3690 O   0  0  0  0  0  0  0  0  0  0  0  0
    7.4910  -12.4410   -2.7680 C   0  0  0  0  0  0  0  0  0  0  0  0
    6.3620  -13.1940   -3.0640 N   0  0  0  0  0  0  0  0  0  0  0  0
    5.0210  -12.7560   -3.0950 C   0  0  0  0  0  0  0  0  0  0  0  0
    4.6990  -11.7500   -4.0120 C   0  0  0  0  0  0  0  0  0  0  0  0
    3.3960  -11.2590   -4.0980 C   0  0  0  0  0  0  0  0  0  0  0  0
    2.4020  -11.7730   -3.2660 C   0  0  0  0  0  0  0  0  0  0  0  0
    2.6950  -12.7830   -2.3410 C   0  0  0  0  0  0  0  0  0  0  0  0
    1.6200  -13.3010   -1.4560 C   0  0  0  0  0  0  0  0  0  0  0  0
    0.9300  -14.4050   -1.8100 C   0  0  0  0  0  0  0  0  0  0  0  0
   -0.0650  -14.8540   -0.9690 N   0  0  0  0  0  0  0  0  0  0  0  0
   -0.9110  -15.9260   -1.0450 C   0  0  0  0  0  0  0  0  0  0  0  0
   -1.6760  -15.8590    0.0990 C   0  0  0  0  0  0  0  0  0  0  0  0
   -1.3240  -14.7790    0.8700 N   0  0  0  0  0  0  0  0  0  0  0  0
   -0.3530  -14.1930    0.1950 C   0  0  0  0  0  0  0  0  0  0  0  0
    0.4060  -12.9960    0.5280 C   0  0  0  0  0  0  0  0  0  0  0  0
    0.2360  -12.2240    1.6500 N   0  0  0  0  0  0  0  0  0  0  0  0
   -0.6330  -12.4960    2.7730 C   0  0  0  0  0  0  0  0  0  0  0  0
   -1.7300  -11.4340    2.9220 C   0  0  0  0  0  0  0  0  0  0  0  0
   -2.6880  -11.4090    1.7530 C   0  0  0  0  0  0  0  0  0  0  0  0
   -2.5890  -10.4180    0.7720 C   0  0  0  0  0  0  0  0  0  0  0  0
   -3.4740  -10.4460   -0.2940 C   0  0  0  0  0  0  0  0  0  0  0  0
   -4.4370  -11.3810   -0.4480 N   0  0  0  0  0  0  0  0  0  0  0  0
   -4.5160  -12.3290    0.5100 C   0  0  0  0  0  0  0  0  0  0  0  0
   -3.6760  -12.3860    1.6120 C   0  0  0  0  0  0  0  0  0  0  0  0
    1.3540  -12.5880   -0.2920 N   0  0  0  0  0  0  0  0  0  0  0  0
    4.0180  -13.2530   -2.2570 C   0  0  0  0  0  0  0  0  0  0  0  0
    8.6390  -13.1900   -2.9830 N   0  0  0  0  0  0  0  0  0  0  0  0
    9.9730  -12.8250   -2.7060 C   0  0  0  0  0  0  0  0  0  0  0  0
   10.8450  -12.7190   -3.7970 C   0  0  0  0  0  0  0  0  0  0  0  0
   12.1830  -12.3630   -3.6110 C   0  0  0  0  0  0  0  0  0  0  0  0
   12.6650  -12.1150   -2.3280 C   0  0  0  0  0  0  0  0  0  0  0  0
   11.8160  -12.2270   -1.2200 C   0  0  0  0  0  0  0  0  0  0  0  0
   12.3180  -11.9490    0.1750 C   0  0  0  0  0  0  0  0  0  0  0  0
   13.5360  -11.3410    0.1920 F   0  0  0  0  0  0  0  0  0  0  0  0
   12.4490  -13.0830    0.9170 F   0  0  0  0  0  0  0  0  0  0  0  0
   11.4910  -11.1320    0.8900 F   0  0  0  0  0  0  0  0  0  0  0  0
   10.4680  -12.5790   -1.4230 C   0  0  0  0  0  0  0  0  0  0  0  0
    6.5040  -14.1830   -3.1970 H   0  0  0  0  0  0  0  0  0  0  0  0
    5.4799  -11.3425   -4.6710 H   0  0  0  0  0  0  0  0  0  0  0  0
    3.1529  -10.4670   -4.8216 H   0  0  0  0  0  0  0  0  0  0  0  0
    1.3767  -11.3810   -3.3369 H   0  0  0  0  0  0  0  0  0  0  0  0
    1.1563  -14.9340   -2.7475 H   0  0  0  0  0  0  0  0  0  0  0  0
   -0.9682  -16.6782   -1.8455 H   0  0  0  0  0  0  0  0  0  0  0  0
   -2.4665  -16.5778    0.3607 H   0  0  0  0  0  0  0  0  0  0  0  0
    0.8850  -11.4520    1.7390 H   0  0  0  0  0  0  0  0  0  0  0  0
   -1.1069  -13.4777    2.6256 H   0  0  0  0  0  0  0  0  0  0  0  0
   -0.0210  -12.4825    3.6869 H   0  0  0  0  0  0  0  0  0  0  0  0
   -2.3004  -11.6449    3.8386 H   0  0  0  0  0  0  0  0  0  0  0  0
   -1.2353  -10.4524    2.9641 H   0  0  0  0  0  0  0  0  0  0  0  0
   -1.8236   -9.6314    0.8448 H   0  0  0  0  0  0  0  0  0  0  0  0
   -3.3874   -9.6610   -1.0596 H   0  0  0  0  0  0  0  0  0  0  0  0
   -5.2925  -13.1018    0.4106 H   0  0  0  0  0  0  0  0  0  0  0  0
   -3.7857  -13.1849    2.3602 H   0  0  0  0  0  0  0  0  0  0  0  0
    4.2688  -14.0273   -1.5170 H   0  0  0  0  0  0  0  0  0  0  0  0
    8.5130  -14.0740   -3.4510 H   0  0  0  0  0  0  0  0  0  0  0  0
   10.4718  -12.9184   -4.8124 H   0  0  0  0  0  0  0  0  0  0  0  0
   12.8555  -12.2786   -4.4774 H   0  0  0  0  0  0  0  0  0  0  0  0
   13.7176  -11.8298   -2.1844 H   0  0  0  0  0  0  0  0  0  0  0  0
    9.7939  -12.6616   -0.5577 H   0  0  0  0  0  0  0  0  0  0  0  0
  1  2  2  0
  2  3  1  0
  3  4  1  0
  4  5  2  0
  5  6  1  0
  6  7  2  0
  7  8  1  0
  8  9  1  0
  9 10  2  0
 10 11  1  0
 11 12  1  0
 12 13  2  0
 13 14  1  0
 14 15  2  0
 15 16  1  0
 16 17  1  0
 17 18  1  0
 18 19  1  0
 19 20  1  0
 20 21  2  0
 21 22  1  0
 22 23  2  0
 23 24  1  0
 24 25  2  0
 16 26  2  0
  8 27  2  0
  2 28  1  0
 28 29  1  0
 29 30  2  0
 30 31  1  0
 31 32  2  0
 32 33  1  0
 33 34  1  0
 34 35  1  0
 34 36  1  0
 34 37  1  0
 33 38  2  0
 27  4  1  0
 38 29  1  0
 26  9  1  0
 15 11  1  0
 25 20  1  0
  3 39  1  0
  5 40  1  0
  6 41  1  0
  7 42  1  0
 10 43  1  0
 12 44  1  0
 13 45  1  0
 17 46  1  0
 18 47  1  0
 18 48  1  0
 19 49  1  0
 19 50  1  0
 21 51  1  0
 22 52  1  0
 24 53  1  0
 25 54  1  0
 27 55  1  0
 28 56  1  0
 30 57  1  0
 31 58  1  0
 32 59  1  0
 38 60  1  0
M  END
>  <meeko>  (4) 
{"is_sidechain": [false], "free_energy": -9.462, "intermolecular_energy": -13.281, "internal_energy": -1.065}

$$$$
LIB_YLUXGJXUXWARJV__M_PUB_ALL__e8__s20260927
     RDKit          3D

 60 64  0  0  0  0  0  0  0  0999 V2000
    7.0560  -10.8180   -1.1070 O   0  0  0  0  0  0  0  0  0  0  0  0
    6.9910  -12.0390   -1.1670 C   0  0  0  0  0  0  0  0  0  0  0  0
    5.8170  -12.7650   -1.3200 N   0  0  0  0  0  0  0  0  0  0  0  0
    4.5200  -12.2610   -1.5620 C   0  0  0  0  0  0  0  0  0  0  0  0
    4.2430  -11.8120   -2.8580 C   0  0  0  0  0  0  0  0  0  0  0  0
    2.9870  -11.2940   -3.1750 C   0  0  0  0  0  0  0  0  0  0  0  0
    1.9970  -11.2220   -2.1960 C   0  0  0  0  0  0  0  0  0  0  0  0
    2.2450  -11.6680   -0.8910 C   0  0  0  0  0  0  0  0  0  0  0  0
    1.1760  -11.5660    0.1350 C   0  0  0  0  0  0  0  0  0  0  0  0
    0.5340  -10.3950    0.3240 C   0  0  0  0  0  0  0  0  0  0  0  0
   -0.4480  -10.3350    1.2890 N   0  0  0  0  0  0  0  0  0  0  0  0
   -1.2650   -9.3170    1.6990 C   0  0  0  0  0  0  0  0  0  0  0  0
   -2.0470   -9.8640    2.6920 C   0  0  0  0  0  0  0  0  0  0  0  0
   -1.7300  -11.1840    2.9030 N   0  0  0  0  0  0  0  0  0  0  0  0
   -0.7610  -11.4330    2.0450 C   0  0  0  0  0  0  0  0  0  0  0  0
   -0.0300  -12.6720    1.8170 C   0  0  0  0  0  0  0  0  0  0  0  0
   -0.2210  -13.8520    2.4890 N   0  0  0  0  0  0  0  0  0  0  0  0
   -1.2500  -14.1440    3.4630 C   0  0  0  0  0  0  0  0  0  0  0  0
   -2.3760  -15.0000    2.8690 C   0  0  0  0  0  0  0  0  0  0  0  0
   -3.5350  -14.1770    2.3570 C   0  0  0  0  0  0  0  0  0  0  0  0
   -3.5750  -13.7540    1.0250 C   0  0  0  0  0  0  0  0  0  0  0  0
   -4.6680  -13.0210    0.5920 C   0  0  0  0  0  0  0  0  0  0  0  0
   -5.7100  -12.6840    1.3850 N   0  0  0  0  0  0  0  0  0  0  0  0
   -5.6510  -13.1010    2.6670 C   0  0  0  0  0  0  0  0  0  0  0  0
   -4.6020  -13.8410    3.1930 C   0  0  0  0  0  0  0  0  0  0  0  0
    0.9040  -12.7040    0.8870 N   0  0  0  0  0  0  0  0  0  0  0  0
    3.5230  -12.1720   -0.5870 C   0  0  0  0  0  0  0  0  0  0  0  0
    8.0800  -12.8970   -1.0880 N   0  0  0  0  0  0  0  0  0  0  0  0
    9.4260  -12.5620   -0.8320 C   0  0  0  0  0  0  0  0  0  0  0  0
    9.7600  -12.2290    0.4870 C   0  0  0  0  0  0  0  0  0  0  0  0
   11.0700  -11.8840    0.8270 C   0  0  0  0  0  0  0  0  0  0  0  0
   12.0600  -11.8630   -0.1510 C   0  0  0  0  0  0  0  0  0  0  0  0
   11.7480  -12.1810   -1.4800 C   0  0  0  0  0  0  0  0  0  0  0  0
   12.8120  -12.1770   -2.5490 C   0  0  0  0  0  0  0  0  0  0  0  0
   12.3640  -11.7050   -3.7450 F   0  0  0  0  0  0  0  0  0  0  0  0
   13.3080  -13.4210   -2.7950 F   0  0  0  0  0  0  0  0  0  0  0  0
   13.8900  -11.4040   -2.2310 F   0  0  0  0  0  0  0  0  0  0  0  0
   10.4260  -12.5330   -1.8070 C   0  0  0  0  0  0  0  0  0  0  0  0
    5.8790  -13.7580   -1.1630 H   0  0  0  0  0  0  0  0  0  0  0  0
    5.0217  -11.8679   -3.6330 H   0  0  0  0  0  0  0  0  0  0  0  0
    2.7780  -10.9428   -4.1963 H   0  0  0  0  0  0  0  0  0  0  0  0
    1.0094  -10.8102   -2.4511 H   0  0  0  0  0  0  0  0  0  0  0  0
    0.7880   -9.5096   -0.2773 H   0  0  0  0  0  0  0  0  0  0  0  0
   -1.2915   -8.2854    1.3181 H   0  0  0  0  0  0  0  0  0  0  0  0
   -2.8242   -9.3154    3.2443 H   0  0  0  0  0  0  0  0  0  0  0  0
    0.3480  -14.6250    2.1670 H   0  0  0  0  0  0  0  0  0  0  0  0
   -0.7976  -14.6872    4.3058 H   0  0  0  0  0  0  0  0  0  0  0  0
   -1.6863  -13.1898    3.7934 H   0  0  0  0  0  0  0  0  0  0  0  0
   -1.9667  -15.5871    2.0336 H   0  0  0  0  0  0  0  0  0  0  0  0
   -2.7597  -15.6441    3.6740 H   0  0  0  0  0  0  0  0  0  0  0  0
   -2.7546  -13.9984    0.3342 H   0  0  0  0  0  0  0  0  0  0  0  0
   -4.6893  -12.6941   -0.4581 H   0  0  0  0  0  0  0  0  0  0  0  0
   -6.4846  -12.8385    3.3350 H   0  0  0  0  0  0  0  0  0  0  0  0
   -4.6105  -14.1565    4.2467 H   0  0  0  0  0  0  0  0  0  0  0  0
    3.7417  -12.5027    0.4391 H   0  0  0  0  0  0  0  0  0  0  0  0
    7.9000  -13.8650   -1.3000 H   0  0  0  0  0  0  0  0  0  0  0  0
    8.9815  -12.2393    1.2640 H   0  0  0  0  0  0  0  0  0  0  0  0
   11.3192  -11.6289    1.8676 H   0  0  0  0  0  0  0  0  0  0  0  0
   13.0920  -11.5956    0.1202 H   0  0  0  0  0  0  0  0  0  0  0  0
   10.1756  -12.7895   -2.8470 H   0  0  0  0  0  0  0  0  0  0  0  0
  1  2  2  0
  2  3  1  0
  3  4  1  0
  4  5  2  0
  5  6  1  0
  6  7  2  0
  7  8  1  0
  8  9  1  0
  9 10  2  0
 10 11  1  0
 11 12  1  0
 12 13  2  0
 13 14  1  0
 14 15  2  0
 15 16  1  0
 16 17  1  0
 17 18  1  0
 18 19  1  0
 19 20  1  0
 20 21  2  0
 21 22  1  0
 22 23  2  0
 23 24  1  0
 24 25  2  0
 16 26  2  0
  8 27  2  0
  2 28  1  0
 28 29  1  0
 29 30  2  0
 30 31  1  0
 31 32  2  0
 32 33  1  0
 33 34  1  0
 34 35  1  0
 34 36  1  0
 34 37  1  0
 33 38  2  0
 27  4  1  0
 38 29  1  0
 26  9  1  0
 15 11  1  0
 25 20  1  0
  3 39  1  0
  5 40  1  0
  6 41  1  0
  7 42  1  0
 10 43  1  0
 12 44  1  0
 13 45  1  0
 17 46  1  0
 18 47  1  0
 18 48  1  0
 19 49  1  0
 19 50  1  0
 21 51  1  0
 22 52  1  0
 24 53  1  0
 25 54  1  0
 27 55  1  0
 28 56  1  0
 30 57  1  0
 31 58  1  0
 32 59  1  0
 38 60  1  0
M  END
>  <meeko>  (5) 
{"is_sidechain": [false], "free_energy": -9.404, "intermolecular_energy": -12.985, "internal_energy": -1.278}

$$$$
LIB_YLUXGJXUXWARJV__M_PUB_ALL__e8__s20260927
     RDKit          3D

 60 64  0  0  0  0  0  0  0  0999 V2000
    4.4340  -13.0860   -7.0380 O   0  0  0  0  0  0  0  0  0  0  0  0
    5.3170  -13.3450   -6.2300 C   0  0  0  0  0  0  0  0  0  0  0  0
    5.3020  -12.9750   -4.8920 N   0  0  0  0  0  0  0  0  0  0  0  0
    4.2470  -12.3630   -4.1810 C   0  0  0  0  0  0  0  0  0  0  0  0
    4.0150  -11.0060   -4.4280 C   0  0  0  0  0  0  0  0  0  0  0  0
    2.9950  -10.3280   -3.7600 C   0  0  0  0  0  0  0  0  0  0  0  0
    2.1970  -11.0040   -2.8390 C   0  0  0  0  0  0  0  0  0  0  0  0
    2.4040  -12.3650   -2.5750 C   0  0  0  0  0  0  0  0  0  0  0  0
    1.5480  -13.0570   -1.5780 C   0  0  0  0  0  0  0  0  0  0  0  0
    1.0840  -14.2970   -1.8340 C   0  0  0  0  0  0  0  0  0  0  0  0
    0.2870  -14.9070   -0.8890 N   0  0  0  0  0  0  0  0  0  0  0  0
   -0.3120  -16.1360   -0.8540 C   0  0  0  0  0  0  0  0  0  0  0  0
   -0.9690  -16.1800    0.3560 C   0  0  0  0  0  0  0  0  0  0  0  0
   -0.7920  -15.0140    1.0600 N   0  0  0  0  0  0  0  0  0  0  0  0
   -0.0340  -14.2680    0.2790 C   0  0  0  0  0  0  0  0  0  0  0  0
    0.4760  -12.9230    0.5050 C   0  0  0  0  0  0  0  0  0  0  0  0
    0.2430  -12.1530    1.6170 N   0  0  0  0  0  0  0  0  0  0  0  0
   -0.4440  -12.5500    2.8260 C   0  0  0  0  0  0  0  0  0  0  0  0
   -1.6680  -11.6690    3.1060 C   0  0  0  0  0  0  0  0  0  0  0  0
   -2.7710  -11.8500    2.0900 C   0  0  0  0  0  0  0  0  0  0  0  0
   -2.8070  -11.0700    0.9300 C   0  0  0  0  0  0  0  0  0  0  0  0
   -3.8230  -11.2860    0.0140 C   0  0  0  0  0  0  0  0  0  0  0  0
   -4.7940  -12.2120    0.1710 N   0  0  0  0  0  0  0  0  0  0  0  0
   -4.7420  -12.9540    1.2980 C   0  0  0  0  0  0  0  0  0  0  0  0
   -3.7650  -12.8140    2.2710 C   0  0  0  0  0  0  0  0  0  0  0  0
    1.2380  -12.3630   -0.4130 N   0  0  0  0  0  0  0  0  0  0  0  0
    3.4480  -13.0270   -3.2460 C   0  0  0  0  0  0  0  0  0  0  0  0
    6.4780  -14.0480   -6.5220 N   0  0  0  0  0  0  0  0  0  0  0  0
    6.9150  -14.5070   -7.7820 C   0  0  0  0  0  0  0  0  0  0  0  0
    7.3210  -15.8450   -7.8680 C   0  0  0  0  0  0  0  0  0  0  0  0
    7.7690  -16.3810   -9.0780 C   0  0  0  0  0  0  0  0  0  0  0  0
    7.8220  -15.5800  -10.2150 C   0  0  0  0  0  0  0  0  0  0  0  0
    7.4340  -14.2350  -10.1520 C   0  0  0  0  0  0  0  0  0  0  0  0
    7.4720  -13.3570  -11.3780 C   0  0  0  0  0  0  0  0  0  0  0  0
    8.7050  -13.2980  -11.9540 F   0  0  0  0  0  0  0  0  0  0  0  0
    7.1180  -12.0700  -11.1090 F   0  0  0  0  0  0  0  0  0  0  0  0
    6.6270  -13.7750  -12.3640 F   0  0  0  0  0  0  0  0  0  0  0  0
    6.9770  -13.7110   -8.9290 C   0  0  0  0  0  0  0  0  0  0  0  0
    6.1670  -13.0830   -4.3870 H   0  0  0  0  0  0  0  0  0  0  0  0
    4.6420  -10.4689   -5.1550 H   0  0  0  0  0  0  0  0  0  0  0  0
    2.8208   -9.2605   -3.9602 H   0  0  0  0  0  0  0  0  0  0  0  0
    1.3959  -10.4636   -2.3134 H   0  0  0  0  0  0  0  0  0  0  0  0
    1.3354  -14.8094   -2.7743 H   0  0  0  0  0  0  0  0  0  0  0  0
   -0.2768  -16.9197   -1.6251 H   0  0  0  0  0  0  0  0  0  0  0  0
   -1.5588  -17.0375    0.7121 H   0  0  0  0  0  0  0  0  0  0  0  0
    0.7160  -11.2570    1.6220 H   0  0  0  0  0  0  0  0  0  0  0  0
   -0.7743  -13.5939    2.7205 H   0  0  0  0  0  0  0  0  0  0  0  0
    0.2556  -12.4376    3.6673 H   0  0  0  0  0  0  0  0  0  0  0  0
   -2.0627  -11.9234    4.1008 H   0  0  0  0  0  0  0  0  0  0  0  0
   -1.3384  -10.6210    3.0503 H   0  0  0  0  0  0  0  0  0  0  0  0
   -2.0430  -10.2997    0.7485 H   0  0  0  0  0  0  0  0  0  0  0  0
   -3.8404  -10.6670   -0.8951 H   0  0  0  0  0  0  0  0  0  0  0  0
   -5.5213  -13.7147    1.4530 H   0  0  0  0  0  0  0  0  0  0  0  0
   -3.7724  -13.4500    3.1685 H   0  0  0  0  0  0  0  0  0  0  0  0
    3.6395  -14.0886   -3.0306 H   0  0  0  0  0  0  0  0  0  0  0  0
    7.0450  -14.3180   -5.7350 H   0  0  0  0  0  0  0  0  0  0  0  0
    7.2867  -16.4816   -6.9716 H   0  0  0  0  0  0  0  0  0  0  0  0
    8.0795  -17.4349   -9.1320 H   0  0  0  0  0  0  0  0  0  0  0  0
    8.1703  -16.0050  -11.1680 H   0  0  0  0  0  0  0  0  0  0  0  0
    6.6635  -12.6580   -8.8747 H   0  0  0  0  0  0  0  0  0  0  0  0
  1  2  2  0
  2  3  1  0
  3  4  1  0
  4  5  2  0
  5  6  1  0
  6  7  2  0
  7  8  1  0
  8  9  1  0
  9 10  2  0
 10 11  1  0
 11 12  1  0
 12 13  2  0
 13 14  1  0
 14 15  2  0
 15 16  1  0
 16 17  1  0
 17 18  1  0
 18 19  1  0
 19 20  1  0
 20 21  2  0
 21 22  1  0
 22 23  2  0
 23 24  1  0
 24 25  2  0
 16 26  2  0
  8 27  2  0
  2 28  1  0
 28 29  1  0
 29 30  2  0
 30 31  1  0
 31 32  2  0
 32 33  1  0
 33 34  1  0
 34 35  1  0
 34 36  1  0
 34 37  1  0
 33 38  2  0
 27  4  1  0
 38 29  1  0
 26  9  1  0
 15 11  1  0
 25 20  1  0
  3 39  1  0
  5 40  1  0
  6 41  1  0
  7 42  1  0
 10 43  1  0
 12 44  1  0
 13 45  1  0
 17 46  1  0
 18 47  1  0
 18 48  1  0
 19 49  1  0
 19 50  1  0
 21 51  1  0
 22 52  1  0
 24 53  1  0
 25 54  1  0
 27 55  1  0
 28 56  1  0
 30 57  1  0
 31 58  1  0
 32 59  1  0
 38 60  1  0
M  END
>  <meeko>  (6) 
{"is_sidechain": [false], "free_energy": -9.379, "intermolecular_energy": -13.285, "internal_energy": -0.945}

$$$$
LIB_YLUXGJXUXWARJV__M_PUB_ALL__e8__s20260927
     RDKit          3D

 60 64  0  0  0  0  0  0  0  0999 V2000
    7.1680  -13.6190   -2.8360 O   0  0  0  0  0  0  0  0  0  0  0  0
    7.2510  -12.4260   -2.5760 C   0  0  0  0  0  0  0  0  0  0  0  0
    6.2160  -11.5100   -2.7090 N   0  0  0  0  0  0  0  0  0  0  0  0
    4.8680  -11.7780   -3.0310 C   0  0  0  0  0  0  0  0  0  0  0  0
    4.4390  -11.4340   -4.3170 C   0  0  0  0  0  0  0  0  0  0  0  0
    3.1190  -11.6610   -4.7090 C   0  0  0  0  0  0  0  0  0  0  0  0
    2.2170  -12.2370   -3.8150 C   0  0  0  0  0  0  0  0  0  0  0  0
    2.6200  -12.5950   -2.5220 C   0  0  0  0  0  0  0  0  0  0  0  0
    1.6340  -13.1930   -1.5850 C   0  0  0  0  0  0  0  0  0  0  0  0
    1.0500  -14.3710   -1.8850 C   0  0  0  0  0  0  0  0  0  0  0  0
    0.1350  -14.8930   -0.9960 N   0  0  0  0  0  0  0  0  0  0  0  0
   -0.5990  -16.0480   -1.0130 C   0  0  0  0  0  0  0  0  0  0  0  0
   -1.3270  -16.0250    0.1560 C   0  0  0  0  0  0  0  0  0  0  0  0
   -1.0630  -14.8910    0.8850 N   0  0  0  0  0  0  0  0  0  0  0  0
   -0.1810  -14.2300    0.1600 C   0  0  0  0  0  0  0  0  0  0  0  0
    0.4620  -12.9530    0.4330 C   0  0  0  0  0  0  0  0  0  0  0  0
    0.2510  -12.1680    1.5390 N   0  0  0  0  0  0  0  0  0  0  0  0
   -0.5470  -12.4940    2.7000 C   0  0  0  0  0  0  0  0  0  0  0  0
   -1.6950  -11.4970    2.9050 C   0  0  0  0  0  0  0  0  0  0  0  0
   -2.6560  -11.4560    1.7390 C   0  0  0  0  0  0  0  0  0  0  0  0
   -2.6110  -10.4080    0.8150 C   0  0  0  0  0  0  0  0  0  0  0  0
   -3.4950  -10.4220   -0.2510 C   0  0  0  0  0  0  0  0  0  0  0  0
   -4.4080  -11.3960   -0.4580 N   0  0  0  0  0  0  0  0  0  0  0  0
   -4.4360  -12.3990    0.4450 C   0  0  0  0  0  0  0  0  0  0  0  0
   -3.5920  -12.4740    1.5430 C   0  0  0  0  0  0  0  0  0  0  0  0
    1.3350  -12.4760   -0.4320 N   0  0  0  0  0  0  0  0  0  0  0  0
    3.9500  -12.3430   -2.1390 C   0  0  0  0  0  0  0  0  0  0  0  0
    8.3960  -11.7940   -2.1110 N   0  0  0  0  0  0  0  0  0  0  0  0
    9.6810  -12.3500   -1.9410 C   0  0  0  0  0  0  0  0  0  0  0  0
    9.9810  -12.8890   -0.6830 C   0  0  0  0  0  0  0  0  0  0  0  0
   11.2300  -13.4590   -0.4290 C   0  0  0  0  0  0  0  0  0  0  0  0
   12.1980  -13.4910   -1.4300 C   0  0  0  0  0  0  0  0  0  0  0  0
   11.9260  -12.9460   -2.6920 C   0  0  0  0  0  0  0  0  0  0  0  0
   12.9570  -12.9840   -3.7920 C   0  0  0  0  0  0  0  0  0  0  0  0
   13.6780  -11.8340   -3.8880 F   0  0  0  0  0  0  0  0  0  0  0  0
   12.4020  -13.1860   -5.0200 F   0  0  0  0  0  0  0  0  0  0  0  0
   13.8750  -13.9800   -3.6330 F   0  0  0  0  0  0  0  0  0  0  0  0
   10.6600  -12.3820   -2.9370 C   0  0  0  0  0  0  0  0  0  0  0  0
    6.4670  -10.5360   -2.6460 H   0  0  0  0  0  0  0  0  0  0  0  0
    5.1480  -10.9807   -5.0254 H   0  0  0  0  0  0  0  0  0  0  0  0
    2.7904  -11.3859   -5.7221 H   0  0  0  0  0  0  0  0  0  0  0  0
    1.1773  -12.4122   -4.1286 H   0  0  0  0  0  0  0  0  0  0  0  0
    1.2977  -14.9020   -2.8159 H   0  0  0  0  0  0  0  0  0  0  0  0
   -0.6060  -16.8256   -1.7910 H   0  0  0  0  0  0  0  0  0  0  0  0
   -2.0292  -16.8130    0.4659 H   0  0  0  0  0  0  0  0  0  0  0  0
    0.8200  -11.3320    1.5840 H   0  0  0  0  0  0  0  0  0  0  0  0
   -0.9699  -13.5010    2.5692 H   0  0  0  0  0  0  0  0  0  0  0  0
    0.1050  -12.4489    3.5848 H   0  0  0  0  0  0  0  0  0  0  0  0
   -2.2522  -11.7848    3.8087 H   0  0  0  0  0  0  0  0  0  0  0  0
   -1.2489  -10.4960    2.9995 H   0  0  0  0  0  0  0  0  0  0  0  0
   -1.8873   -9.5879    0.9323 H   0  0  0  0  0  0  0  0  0  0  0  0
   -3.4512   -9.5916   -0.9711 H   0  0  0  0  0  0  0  0  0  0  0  0
   -5.1715  -13.2043    0.3015 H   0  0  0  0  0  0  0  0  0  0  0  0
   -3.6584  -13.3181    2.2452 H   0  0  0  0  0  0  0  0  0  0  0  0
    4.2745  -12.5950   -1.1186 H   0  0  0  0  0  0  0  0  0  0  0  0
    8.2840  -10.8430   -1.7980 H   0  0  0  0  0  0  0  0  0  0  0  0
    9.2234  -12.8628    0.1141 H   0  0  0  0  0  0  0  0  0  0  0  0
   11.4496  -13.8829    0.5620 H   0  0  0  0  0  0  0  0  0  0  0  0
   13.1793  -13.9456   -1.2292 H   0  0  0  0  0  0  0  0  0  0  0  0
   10.4380  -11.9598   -3.9282 H   0  0  0  0  0  0  0  0  0  0  0  0
  1  2  2  0
  2  3  1  0
  3  4  1  0
  4  5  2  0
  5  6  1  0
  6  7  2  0
  7  8  1  0
  8  9  1  0
  9 10  2  0
 10 11  1  0
 11 12  1  0
 12 13  2  0
 13 14  1  0
 14 15  2  0
 15 16  1  0
 16 17  1  0
 17 18  1  0
 18 19  1  0
 19 20  1  0
 20 21  2  0
 21 22  1  0
 22 23  2  0
 23 24  1  0
 24 25  2  0
 16 26  2  0
  8 27  2  0
  2 28  1  0
 28 29  1  0
 29 30  2  0
 30 31  1  0
 31 32  2  0
 32 33  1  0
 33 34  1  0
 34 35  1  0
 34 36  1  0
 34 37  1  0
 33 38  2  0
 27  4  1  0
 38 29  1  0
 26  9  1  0
 15 11  1  0
 25 20  1  0
  3 39  1  0
  5 40  1  0
  6 41  1  0
  7 42  1  0
 10 43  1  0
 12 44  1  0
 13 45  1  0
 17 46  1  0
 18 47  1  0
 18 48  1  0
 19 49  1  0
 19 50  1  0
 21 51  1  0
 22 52  1  0
 24 53  1  0
 25 54  1  0
 27 55  1  0
 28 56  1  0
 30 57  1  0
 31 58  1  0
 32 59  1  0
 38 60  1  0
M  END
>  <meeko>  (7) 
{"is_sidechain": [false], "free_energy": -9.194, "intermolecular_energy": -12.715, "internal_energy": -1.253}

$$$$
LIB_YLUXGJXUXWARJV__M_PUB_ALL__e8__s20260927
     RDKit          3D

 60 64  0  0  0  0  0  0  0  0999 V2000
    7.0290  -10.7480   -1.2860 O   0  0  0  0  0  0  0  0  0  0  0  0
    6.9450  -11.9410   -1.5450 C   0  0  0  0  0  0  0  0  0  0  0  0
    5.7680  -12.6000   -1.8770 N   0  0  0  0  0  0  0  0  0  0  0  0
    4.4990  -12.0280   -2.1070 C   0  0  0  0  0  0  0  0  0  0  0  0
    4.2890  -11.4190   -3.3500 C   0  0  0  0  0  0  0  0  0  0  0  0
    3.0630  -10.8250   -3.6500 C   0  0  0  0  0  0  0  0  0  0  0  0
    2.0350  -10.8370   -2.7090 C   0  0  0  0  0  0  0  0  0  0  0  0
    2.2150  -11.4430   -1.4590 C   0  0  0  0  0  0  0  0  0  0  0  0
    1.1070  -11.4280   -0.4700 C   0  0  0  0  0  0  0  0  0  0  0  0
    0.7110  -10.2610    0.0790 C   0  0  0  0  0  0  0  0  0  0  0  0
   -0.3160  -10.2850    0.9980 N   0  0  0  0  0  0  0  0  0  0  0  0
   -0.9350   -9.2890    1.7040 C   0  0  0  0  0  0  0  0  0  0  0  0
   -1.8970   -9.9280    2.4550 C   0  0  0  0  0  0  0  0  0  0  0  0
   -1.8830  -11.2830    2.2320 N   0  0  0  0  0  0  0  0  0  0  0  0
   -0.9160  -11.4640    1.3530 C   0  0  0  0  0  0  0  0  0  0  0  0
   -0.4440  -12.7010    0.7470 C   0  0  0  0  0  0  0  0  0  0  0  0
   -0.9360  -13.9570    0.9980 N   0  0  0  0  0  0  0  0  0  0  0  0
   -2.0830  -14.2980    1.8100 C   0  0  0  0  0  0  0  0  0  0  0  0
   -1.8510  -15.5790    2.6210 C   0  0  0  0  0  0  0  0  0  0  0  0
   -0.6770  -15.4740    3.5680 C   0  0  0  0  0  0  0  0  0  0  0  0
    0.4210  -16.3290    3.4400 C   0  0  0  0  0  0  0  0  0  0  0  0
    1.4850  -16.1820    4.3150 C   0  0  0  0  0  0  0  0  0  0  0  0
    1.5300  -15.2530    5.2960 N   0  0  0  0  0  0  0  0  0  0  0  0
    0.4590  -14.4380    5.4030 C   0  0  0  0  0  0  0  0  0  0  0  0
   -0.6510  -14.5060    4.5740 C   0  0  0  0  0  0  0  0  0  0  0  0
    0.5380  -12.6510   -0.1310 N   0  0  0  0  0  0  0  0  0  0  0  0
    3.4640  -12.0220   -1.1670 C   0  0  0  0  0  0  0  0  0  0  0  0
    8.0110  -12.8300   -1.5440 N   0  0  0  0  0  0  0  0  0  0  0  0
    9.3450  -12.5780   -1.1630 C   0  0  0  0  0  0  0  0  0  0  0  0
    9.5930  -12.3840    0.2020 C   0  0  0  0  0  0  0  0  0  0  0  0
   10.8850  -12.1280    0.6650 C   0  0  0  0  0  0  0  0  0  0  0  0
   11.9460  -12.0590   -0.2350 C   0  0  0  0  0  0  0  0  0  0  0  0
   11.7220  -12.2380   -1.6060 C   0  0  0  0  0  0  0  0  0  0  0  0
   12.8610  -12.1800   -2.5930 C   0  0  0  0  0  0  0  0  0  0  0  0
   13.8880  -11.3890   -2.1770 F   0  0  0  0  0  0  0  0  0  0  0  0
   12.4760  -11.6940   -3.8050 F   0  0  0  0  0  0  0  0  0  0  0  0
   13.4160  -13.4000   -2.8440 F   0  0  0  0  0  0  0  0  0  0  0  0
   10.4150  -12.5020   -2.0580 C   0  0  0  0  0  0  0  0  0  0  0  0
    5.8030  -13.6070   -1.8790 H   0  0  0  0  0  0  0  0  0  0  0  0
    5.0973  -11.4088   -4.0961 H   0  0  0  0  0  0  0  0  0  0  0  0
    2.9077  -10.3474   -4.6287 H   0  0  0  0  0  0  0  0  0  0  0  0
    1.0712  -10.3652   -2.9507 H   0  0  0  0  0  0  0  0  0  0  0  0
    1.1957   -9.3138   -0.1999 H   0  0  0  0  0  0  0  0  0  0  0  0
   -0.7126   -8.2121    1.6775 H   0  0  0  0  0  0  0  0  0  0  0  0
   -2.5870   -9.4189    3.1440 H   0  0  0  0  0  0  0  0  0  0  0  0
   -0.5160  -14.6980    0.4510 H   0  0  0  0  0  0  0  0  0  0  0  0
   -2.2856  -13.4695    2.5046 H   0  0  0  0  0  0  0  0  0  0  0  0
   -2.9365  -14.4707    1.1379 H   0  0  0  0  0  0  0  0  0  0  0  0
   -2.7569  -15.7913    3.2078 H   0  0  0  0  0  0  0  0  0  0  0  0
   -1.6265  -16.3847    1.9066 H   0  0  0  0  0  0  0  0  0  0  0  0
    0.4401  -17.1039    2.6595 H   0  0  0  0  0  0  0  0  0  0  0  0
    2.3434  -16.8610    4.2051 H   0  0  0  0  0  0  0  0  0  0  0  0
    0.4671  -13.6745    6.1948 H   0  0  0  0  0  0  0  0  0  0  0  0
   -1.4937  -13.8115    4.7064 H   0  0  0  0  0  0  0  0  0  0  0  0
    3.6292  -12.4787   -0.1800 H   0  0  0  0  0  0  0  0  0  0  0  0
    7.8260  -13.7470   -1.9190 H   0  0  0  0  0  0  0  0  0  0  0  0
    8.7594  -12.4340    0.9180 H   0  0  0  0  0  0  0  0  0  0  0  0
   11.0651  -11.9808    1.7401 H   0  0  0  0  0  0  0  0  0  0  0  0
   12.9641  -11.8631    0.1326 H   0  0  0  0  0  0  0  0  0  0  0  0
   10.2335  -12.6507   -3.1327 H   0  0  0  0  0  0  0  0  0  0  0  0
  1  2  2  0
  2  3  1  0
  3  4  1  0
  4  5  2  0
  5  6  1  0
  6  7  2  0
  7  8  1  0
  8  9  1  0
  9 10  2  0
 10 11  1  0
 11 12  1  0
 12 13  2  0
 13 14  1  0
 14 15  2  0
 15 16  1  0
 16 17  1  0
 17 18  1  0
 18 19  1  0
 19 20  1  0
 20 21  2  0
 21 22  1  0
 22 23  2  0
 23 24  1  0
 24 25  2  0
 16 26  2  0
  8 27  2  0
  2 28  1  0
 28 29  1  0
 29 30  2  0
 30 31  1  0
 31 32  2  0
 32 33  1  0
 33 34  1  0
 34 35  1  0
 34 36  1  0
 34 37  1  0
 33 38  2  0
 27  4  1  0
 38 29  1  0
 26  9  1  0
 15 11  1  0
 25 20  1  0
  3 39  1  0
  5 40  1  0
  6 41  1  0
  7 42  1  0
 10 43  1  0
 12 44  1  0
 13 45  1  0
 17 46  1  0
 18 47  1  0
 18 48  1  0
 19 49  1  0
 19 50  1  0
 21 51  1  0
 22 52  1  0
 24 53  1  0
 25 54  1  0
 27 55  1  0
 28 56  1  0
 30 57  1  0
 31 58  1  0
 32 59  1  0
 38 60  1  0
M  END
>  <meeko>  (8) 
{"is_sidechain": [false], "free_energy": -9.135, "intermolecular_energy": -12.748, "internal_energy": -1.137}

$$$$
LIB_YLUXGJXUXWARJV__M_PUB_ALL__e8__s20260927
     RDKit          3D

 60 64  0  0  0  0  0  0  0  0999 V2000
    6.9970  -10.7910   -2.0060 O   0  0  0  0  0  0  0  0  0  0  0  0
    6.8260  -11.9920   -2.1670 C   0  0  0  0  0  0  0  0  0  0  0  0
    5.5870  -12.6180   -2.2150 N   0  0  0  0  0  0  0  0  0  0  0  0
    4.3150  -12.0060   -2.2220 C   0  0  0  0  0  0  0  0  0  0  0  0
    3.9510  -11.3050   -3.3780 C   0  0  0  0  0  0  0  0  0  0  0  0
    2.7130  -10.6680   -3.4590 C   0  0  0  0  0  0  0  0  0  0  0  0
    1.8270  -10.7280   -2.3840 C   0  0  0  0  0  0  0  0  0  0  0  0
    2.1640  -11.4250   -1.2160 C   0  0  0  0  0  0  0  0  0  0  0  0
    1.2070  -11.4590   -0.0810 C   0  0  0  0  0  0  0  0  0  0  0  0
    0.4340  -10.3860    0.1810 C   0  0  0  0  0  0  0  0  0  0  0  0
   -0.4380  -10.4500    1.2460 N   0  0  0  0  0  0  0  0  0  0  0  0
   -1.3400   -9.5500    1.7440 C   0  0  0  0  0  0  0  0  0  0  0  0
   -1.9280  -10.1890    2.8140 C   0  0  0  0  0  0  0  0  0  0  0  0
   -1.4120  -11.4500    2.9860 N   0  0  0  0  0  0  0  0  0  0  0  0
   -0.5140  -11.5720    2.0270 C   0  0  0  0  0  0  0  0  0  0  0  0
    0.3520  -12.7010    1.7170 C   0  0  0  0  0  0  0  0  0  0  0  0
    0.3980  -13.8890    2.4020 N   0  0  0  0  0  0  0  0  0  0  0  0
   -0.4700  -14.3090    3.4800 C   0  0  0  0  0  0  0  0  0  0  0  0
   -0.9300  -15.7630    3.3130 C   0  0  0  0  0  0  0  0  0  0  0  0
   -2.0350  -16.1450    4.2700 C   0  0  0  0  0  0  0  0  0  0  0  0
   -1.7420  -16.5170    5.5850 C   0  0  0  0  0  0  0  0  0  0  0  0
   -2.7880  -16.8380    6.4350 C   0  0  0  0  0  0  0  0  0  0  0  0
   -4.0890  -16.8140    6.0700 N   0  0  0  0  0  0  0  0  0  0  0  0
   -4.3500  -16.4530    4.7960 C   0  0  0  0  0  0  0  0  0  0  0  0
   -3.3740  -16.1130    3.8730 C   0  0  0  0  0  0  0  0  0  0  0  0
    1.1760  -12.6160    0.6920 N   0  0  0  0  0  0  0  0  0  0  0  0
    3.4240  -12.0470   -1.1460 C   0  0  0  0  0  0  0  0  0  0  0  0
    7.8430  -12.9240   -2.3230 N   0  0  0  0  0  0  0  0  0  0  0  0
    9.2340  -12.7080   -2.2340 C   0  0  0  0  0  0  0  0  0  0  0  0
    9.9520  -12.6710   -3.4350 C   0  0  0  0  0  0  0  0  0  0  0  0
   11.3330  -12.4620   -3.4370 C   0  0  0  0  0  0  0  0  0  0  0  0
   12.0130  -12.2950   -2.2340 C   0  0  0  0  0  0  0  0  0  0  0  0
   11.3180  -12.3410   -1.0180 C   0  0  0  0  0  0  0  0  0  0  0  0
   12.0360  -12.1480    0.2950 C   0  0  0  0  0  0  0  0  0  0  0  0
   12.3890  -13.3210    0.8880 F   0  0  0  0  0  0  0  0  0  0  0  0
   11.2830  -11.4730    1.2070 F   0  0  0  0  0  0  0  0  0  0  0  0
   13.1940  -11.4360    0.1730 F   0  0  0  0  0  0  0  0  0  0  0  0
    9.9260  -12.5440   -1.0310 C   0  0  0  0  0  0  0  0  0  0  0  0
    5.5900  -13.6240   -2.1610 H   0  0  0  0  0  0  0  0  0  0  0  0
    4.6467  -11.2563   -4.2287 H   0  0  0  0  0  0  0  0  0  0  0  0
    2.4356  -10.1184   -4.3706 H   0  0  0  0  0  0  0  0  0  0  0  0
    0.8525  -10.2225   -2.4536 H   0  0  0  0  0  0  0  0  0  0  0  0
    0.4979   -9.4808   -0.4407 H   0  0  0  0  0  0  0  0  0  0  0  0
   -1.5502   -8.5366    1.3713 H   0  0  0  0  0  0  0  0  0  0  0  0
   -2.7098   -9.7461    3.4485 H   0  0  0  0  0  0  0  0  0  0  0  0
    1.0310  -14.5800    2.0180 H   0  0  0  0  0  0  0  0  0  0  0  0
    0.0743  -14.2156    4.4313 H   0  0  0  0  0  0  0  0  0  0  0  0
   -1.3626  -13.6663    3.4680 H   0  0  0  0  0  0  0  0  0  0  0  0
   -1.2943  -15.8997    2.2841 H   0  0  0  0  0  0  0  0  0  0  0  0
   -0.0668  -16.4089    3.5316 H   0  0  0  0  0  0  0  0  0  0  0  0
   -0.7010  -16.5542    5.9383 H   0  0  0  0  0  0  0  0  0  0  0  0
   -2.5453  -17.1295    7.4675 H   0  0  0  0  0  0  0  0  0  0  0  0
   -5.4005  -16.4271    4.4709 H   0  0  0  0  0  0  0  0  0  0  0  0
   -3.6482  -15.8236    2.8478 H   0  0  0  0  0  0  0  0  0  0  0  0
    3.7136  -12.5761   -0.2261 H   0  0  0  0  0  0  0  0  0  0  0  0
    7.5580  -13.8520   -2.5950 H   0  0  0  0  0  0  0  0  0  0  0  0
    9.4220  -12.8082   -4.3891 H   0  0  0  0  0  0  0  0  0  0  0  0
   11.8831  -12.4294   -4.3890 H   0  0  0  0  0  0  0  0  0  0  0  0
   13.1000  -12.1263   -2.2378 H   0  0  0  0  0  0  0  0  0  0  0  0
    9.3740  -12.5741   -0.0800 H   0  0  0  0  0  0  0  0  0  0  0  0
  1  2  2  0
  2  3  1  0
  3  4  1  0
  4  5  2  0
  5  6  1  0
  6  7  2  0
  7  8  1  0
  8  9  1  0
  9 10  2  0
 10 11  1  0
 11 12  1  0
 12 13  2  0
 13 14  1  0
 14 15  2  0
 15 16  1  0
 16 17  1  0
 17 18  1  0
 18 19  1  0
 19 20  1  0
 20 21  2  0
 21 22  1  0
 22 23  2  0
 23 24  1  0
 24 25  2  0
 16 26  2  0
  8 27  2  0
  2 28  1  0
 28 29  1  0
 29 30  2  0
 30 31  1  0
 31 32  2  0
 32 33  1  0
 33 34  1  0
 34 35  1  0
 34 36  1  0
 34 37  1  0
 33 38  2  0
 27  4  1  0
 38 29  1  0
 26  9  1  0
 15 11  1  0
 25 20  1  0
  3 39  1  0
  5 40  1  0
  6 41  1  0
  7 42  1  0
 10 43  1  0
 12 44  1  0
 13 45  1  0
 17 46  1  0
 18 47  1  0
 18 48  1  0
 19 49  1  0
 19 50  1  0
 21 51  1  0
 22 52  1  0
 24 53  1  0
 25 54  1  0
 27 55  1  0
 28 56  1  0
 30 57  1  0
 31 58  1  0
 32 59  1  0
 38 60  1  0
M  END
>  <meeko>  (9) 
{"is_sidechain": [false], "free_energy": -9.118, "intermolecular_energy": -12.938, "internal_energy": -0.923}

$$$$
