LIB_PSDSEDAUIJUGQT__M_PUB_ALL__e8__s20260927
     RDKit          3D

 57 61  0  0  0  0  0  0  0  0999 V2000
    2.3170  -11.7120    0.0050 O   0  0  0  0  0  0  0  0  0  0  0  0
    1.3700  -12.2370   -0.5640 C   0  0  0  0  0  0  0  0  0  0  0  0
    1.3110  -12.5020   -1.9270 N   0  0  0  0  0  0  0  0  0  0  0  0
    2.2420  -12.1240   -2.9190 C   0  0  0  0  0  0  0  0  0  0  0  0
    2.3450  -10.7590   -3.2100 C   0  0  0  0  0  0  0  0  0  0  0  0
    3.2470  -10.3040   -4.1730 C   0  0  0  0  0  0  0  0  0  0  0  0
    4.0530  -11.2140   -4.8550 C   0  0  0  0  0  0  0  0  0  0  0  0
    3.9700  -12.5870   -4.5870 C   0  0  0  0  0  0  0  0  0  0  0  0
    4.8520  -13.5320   -5.3190 C   0  0  0  0  0  0  0  0  0  0  0  0
    4.8970  -14.8300   -4.9560 C   0  0  0  0  0  0  0  0  0  0  0  0
    5.7170  -15.6800   -5.6630 N   0  0  0  0  0  0  0  0  0  0  0  0
    5.9760  -17.0180   -5.5390 C   0  0  0  0  0  0  0  0  0  0  0  0
    6.8840  -17.3020   -6.5360 C   0  0  0  0  0  0  0  0  0  0  0  0
    7.1850  -16.1790   -7.2690 N   0  0  0  0  0  0  0  0  0  0  0  0
    6.4650  -15.2230   -6.7150 C   0  0  0  0  0  0  0  0  0  0  0  0
    6.3770  -13.8170   -7.0790 C   0  0  0  0  0  0  0  0  0  0  0  0
    7.0620  -13.2260   -8.1080 N   0  0  0  0  0  0  0  0  0  0  0  0
    7.9890  -13.8900   -8.9860 C   0  0  0  0  0  0  0  0  0  0  0  0
    8.5270  -12.8960   -9.9840 C   0  0  0  0  0  0  0  0  0  0  0  0
    7.6900  -11.9370  -10.5620 C   0  0  0  0  0  0  0  0  0  0  0  0
    8.2390  -11.0270  -11.4530 C   0  0  0  0  0  0  0  0  0  0  0  0
    9.5440  -11.0030  -11.7930 N   0  0  0  0  0  0  0  0  0  0  0  0
   10.3390  -11.9290  -11.2150 C   0  0  0  0  0  0  0  0  0  0  0  0
    9.8860  -12.8800  -10.3150 C   0  0  0  0  0  0  0  0  0  0  0  0
    5.5840  -13.0230   -6.3890 N   0  0  0  0  0  0  0  0  0  0  0  0
    3.0670  -13.0250   -3.6000 C   0  0  0  0  0  0  0  0  0  0  0  0
    0.2000  -12.6610    0.0540 N   0  0  0  0  0  0  0  0  0  0  0  0
   -0.1150  -12.6680    1.4360 C   0  0  0  0  0  0  0  0  0  0  0  0
    0.2820  -13.7130    2.2820 C   0  0  0  0  0  0  0  0  0  0  0  0
   -0.0410  -13.7110    3.6430 C   0  0  0  0  0  0  0  0  0  0  0  0
   -0.7720  -12.6640    4.1860 C   0  0  0  0  0  0  0  0  0  0  0  0
   -1.1800  -11.6180    3.3640 C   0  0  0  0  0  0  0  0  0  0  0  0
   -0.8660  -11.6050    1.9870 C   0  0  0  0  0  0  0  0  0  0  0  0
   -1.3420  -10.4190    1.1900 C   0  0  0  0  0  0  0  0  0  0  0  0
   -0.3190   -9.6950    0.6570 F   0  0  0  0  0  0  0  0  0  0  0  0
   -2.1310  -10.7770    0.1390 F   0  0  0  0  0  0  0  0  0  0  0  0
   -2.0820   -9.5230    1.9110 F   0  0  0  0  0  0  0  0  0  0  0  0
    0.5550  -13.0890   -2.2420 H   0  0  0  0  0  0  0  0  0  0  0  0
    1.7093  -10.0382   -2.6749 H   0  0  0  0  0  0  0  0  0  0  0  0
    3.3217   -9.2289   -4.3934 H   0  0  0  0  0  0  0  0  0  0  0  0
    4.7627  -10.8501   -5.6126 H   0  0  0  0  0  0  0  0  0  0  0  0
    4.2928  -15.2007   -4.1149 H   0  0  0  0  0  0  0  0  0  0  0  0
    5.5512  -17.7160   -4.8026 H   0  0  0  0  0  0  0  0  0  0  0  0
    7.3123  -18.2981   -6.7211 H   0  0  0  0  0  0  0  0  0  0  0  0
    6.9020  -12.2350   -8.2310 H   0  0  0  0  0  0  0  0  0  0  0  0
    8.8197  -14.3061   -8.3970 H   0  0  0  0  0  0  0  0  0  0  0  0
    7.4754  -14.7050   -9.5170 H   0  0  0  0  0  0  0  0  0  0  0  0
    6.6185  -11.9049  -10.3153 H   0  0  0  0  0  0  0  0  0  0  0  0
    7.5712  -10.2813  -11.9090 H   0  0  0  0  0  0  0  0  0  0  0  0
   11.4081  -11.9282  -11.4737 H   0  0  0  0  0  0  0  0  0  0  0  0
   10.5807  -13.6075   -9.8699 H   0  0  0  0  0  0  0  0  0  0  0  0
    3.0091  -14.0968   -3.3596 H   0  0  0  0  0  0  0  0  0  0  0  0
   -0.5340  -12.9530   -0.5770 H   0  0  0  0  0  0  0  0  0  0  0  0
    0.8596  -14.5521    1.8669 H   0  0  0  0  0  0  0  0  0  0  0  0
    0.2856  -14.5423    4.2850 H   0  0  0  0  0  0  0  0  0  0  0  0
   -1.0266  -12.6609    5.2561 H   0  0  0  0  0  0  0  0  0  0  0  0
   -1.7574  -10.7864    3.7943 H   0  0  0  0  0  0  0  0  0  0  0  0
  1  2  2  0
  2  3  1  0
  3  4  1  0
  4  5  2  0
  5  6  1  0
  6  7  2  0
  7  8  1  0
  8  9  1  0
  9 10  2  0
 10 11  1  0
 11 12  1  0
 12 13  2  0
 13 14  1  0
 14 15  2  0
 15 16  1  0
 16 17  1  0
 17 18  1  0
 18 19  1  0
 19 20  2  0
 20 21  1  0
 21 22  2  0
 22 23  1  0
 23 24  2  0
 16 25  2  0
  8 26  2  0
  2 27  1  0
 27 28  1  0
 28 29  2  0
 29 30  1  0
 30 31  2  0
 31 32  1  0
 32 33  2  0
 33 34  1  0
 34 35  1  0
 34 36  1  0
 34 37  1  0
 26  4  1  0
 33 28  1  0
 25  9  1  0
 15 11  1  0
 24 19  1  0
  3 38  1  0
  5 39  1  0
  6 40  1  0
  7 41  1  0
 10 42  1  0
 12 43  1  0
 13 44  1  0
 17 45  1  0
 18 46  1  0
 18 47  1  0
 20 48  1  0
 21 49  1  0
 23 50  1  0
 24 51  1  0
 26 52  1  0
 27 53  1  0
 29 54  1  0
 30 55  1  0
 31 56  1  0
 32 57  1  0
M  END
>  <meeko>  (1) 
{"is_sidechain": [false], "free_energy": -9.001, "intermolecular_energy": -12.159, "internal_energy": -1.043}

$$$$
LIB_PSDSEDAUIJUGQT__M_PUB_ALL__e8__s20260927
     RDKit          3D

 57 61  0  0  0  0  0  0  0  0999 V2000
    8.8000  -12.1540   -1.8640 O   0  0  0  0  0  0  0  0  0  0  0  0
    9.4080  -12.6050   -0.9020 C   0  0  0  0  0  0  0  0  0  0  0  0
    8.8210  -13.0010    0.2930 N   0  0  0  0  0  0  0  0  0  0  0  0
    7.4710  -12.8560    0.6790 C   0  0  0  0  0  0  0  0  0  0  0  0
    7.0210  -11.5600    0.9510 C   0  0  0  0  0  0  0  0  0  0  0  0
    5.6980  -11.3320    1.3310 C   0  0  0  0  0  0  0  0  0  0  0  0
    4.8130  -12.4030    1.4450 C   0  0  0  0  0  0  0  0  0  0  0  0
    5.2360  -13.7130    1.1820 C   0  0  0  0  0  0  0  0  0  0  0  0
    4.2670  -14.8340    1.2970 C   0  0  0  0  0  0  0  0  0  0  0  0
    4.6270  -16.0770    0.9160 C   0  0  0  0  0  0  0  0  0  0  0  0
    3.7070  -17.0940    1.0460 N   0  0  0  0  0  0  0  0  0  0  0  0
    3.7690  -18.4280    0.7510 C   0  0  0  0  0  0  0  0  0  0  0  0
    2.5350  -18.9310    1.1030 C   0  0  0  0  0  0  0  0  0  0  0  0
    1.7220  -17.9450    1.6070 N   0  0  0  0  0  0  0  0  0  0  0  0
    2.4600  -16.8530    1.5570 C   0  0  0  0  0  0  0  0  0  0  0  0
    2.1200  -15.4990    1.9660 C   0  0  0  0  0  0  0  0  0  0  0  0
    0.9150  -15.1170    2.4970 N   0  0  0  0  0  0  0  0  0  0  0  0
   -0.2120  -15.9830    2.7220 C   0  0  0  0  0  0  0  0  0  0  0  0
   -1.3020  -15.6470    1.7360 C   0  0  0  0  0  0  0  0  0  0  0  0
   -1.9370  -16.6530    1.0020 C   0  0  0  0  0  0  0  0  0  0  0  0
   -2.9530  -16.2970    0.1290 C   0  0  0  0  0  0  0  0  0  0  0  0
   -3.3770  -15.0280   -0.0530 N   0  0  0  0  0  0  0  0  0  0  0  0
   -2.7590  -14.0730    0.6730 C   0  0  0  0  0  0  0  0  0  0  0  0
   -1.7350  -14.3270    1.5710 C   0  0  0  0  0  0  0  0  0  0  0  0
    3.0160  -14.5430    1.8340 N   0  0  0  0  0  0  0  0  0  0  0  0
    6.5690  -13.9210    0.7820 C   0  0  0  0  0  0  0  0  0  0  0  0
   10.7830  -12.8020   -0.8460 N   0  0  0  0  0  0  0  0  0  0  0  0
   11.7420  -12.6230   -1.8740 C   0  0  0  0  0  0  0  0  0  0  0  0
   11.5950  -13.2110   -3.1380 C   0  0  0  0  0  0  0  0  0  0  0  0
   12.5540  -13.0320   -4.1400 C   0  0  0  0  0  0  0  0  0  0  0  0
   13.6820  -12.2610   -3.8980 C   0  0  0  0  0  0  0  0  0  0  0  0
   13.8510  -11.6710   -2.6500 C   0  0  0  0  0  0  0  0  0  0  0  0
   12.8950  -11.8450   -1.6240 C   0  0  0  0  0  0  0  0  0  0  0  0
   13.1660  -11.1500   -0.3150 C   0  0  0  0  0  0  0  0  0  0  0  0
   13.3380  -12.0200    0.7190 F   0  0  0  0  0  0  0  0  0  0  0  0
   14.2940  -10.3870   -0.3510 F   0  0  0  0  0  0  0  0  0  0  0  0
   12.1680  -10.3050    0.0860 F   0  0  0  0  0  0  0  0  0  0  0  0
    9.4050  -13.5130    0.9360 H   0  0  0  0  0  0  0  0  0  0  0  0
    7.7167  -10.7124    0.8645 H   0  0  0  0  0  0  0  0  0  0  0  0
    5.3537  -10.3084    1.5404 H   0  0  0  0  0  0  0  0  0  0  0  0
    3.7709  -12.2179    1.7447 H   0  0  0  0  0  0  0  0  0  0  0  0
    5.6308  -16.2737    0.5114 H   0  0  0  0  0  0  0  0  0  0  0  0
    4.6197  -18.9801    0.3250 H   0  0  0  0  0  0  0  0  0  0  0  0
    2.2395  -19.9850    0.9945 H   0  0  0  0  0  0  0  0  0  0  0  0
    0.8270  -14.1350    2.7240 H   0  0  0  0  0  0  0  0  0  0  0  0
    0.0962  -17.0302    2.5865 H   0  0  0  0  0  0  0  0  0  0  0  0
   -0.5858  -15.8432    3.7470 H   0  0  0  0  0  0  0  0  0  0  0  0
   -1.6366  -17.7052    1.1149 H   0  0  0  0  0  0  0  0  0  0  0  0
   -3.4424  -17.0946   -0.4492 H   0  0  0  0  0  0  0  0  0  0  0  0
   -3.0877  -13.0312    0.5442 H   0  0  0  0  0  0  0  0  0  0  0  0
   -1.2724  -13.5084    2.1419 H   0  0  0  0  0  0  0  0  0  0  0  0
    6.9085  -14.9403    0.5457 H   0  0  0  0  0  0  0  0  0  0  0  0
   11.1390  -13.0590    0.0640 H   0  0  0  0  0  0  0  0  0  0  0  0
   10.7070  -13.8259   -3.3460 H   0  0  0  0  0  0  0  0  0  0  0  0
   12.4136  -13.5041   -5.1236 H   0  0  0  0  0  0  0  0  0  0  0  0
   14.4358  -12.1177   -4.6862 H   0  0  0  0  0  0  0  0  0  0  0  0
   14.7442  -11.0583   -2.4583 H   0  0  0  0  0  0  0  0  0  0  0  0
  1  2  2  0
  2  3  1  0
  3  4  1  0
  4  5  2  0
  5  6  1  0
  6  7  2  0
  7  8  1  0
  8  9  1  0
  9 10  2  0
 10 11  1  0
 11 12  1  0
 12 13  2  0
 13 14  1  0
 14 15  2  0
 15 16  1  0
 16 17  1  0
 17 18  1  0
 18 19  1  0
 19 20  2  0
 20 21  1  0
 21 22  2  0
 22 23  1  0
 23 24  2  0
 16 25  2  0
  8 26  2  0
  2 27  1  0
 27 28  1  0
 28 29  2  0
 29 30  1  0
 30 31  2  0
 31 32  1  0
 32 33  2  0
 33 34  1  0
 34 35  1  0
 34 36  1  0
 34 37  1  0
 26  4  1  0
 33 28  1  0
 25  9  1  0
 15 11  1  0
 24 19  1  0
  3 38  1  0
  5 39  1  0
  6 40  1  0
  7 41  1  0
 10 42  1  0
 12 43  1  0
 13 44  1  0
 17 45  1  0
 18 46  1  0
 18 47  1  0
 20 48  1  0
 21 49  1  0
 23 50  1  0
 24 51  1  0
 26 52  1  0
 27 53  1  0
 29 54  1  0
 30 55  1  0
 31 56  1  0
 32 57  1  0
M  END
>  <meeko>  (2) 
{"is_sidechain": [false], "free_energy": -8.892, "intermolecular_energy": -12.033, "internal_energy": -1.02}

$$$$
LIB_PSDSEDAUIJUGQT__M_PUB_ALL__e8__s20260927
     RDKit          3D

 57 61  0  0  0  0  0  0  0  0999 V2000
    7.0410  -10.7040   -1.0200 O   0  0  0  0  0  0  0  0  0  0  0  0
    6.9900  -11.9170   -1.1750 C   0  0  0  0  0  0  0  0  0  0  0  0
    5.8690  -12.6160   -1.6060 N   0  0  0  0  0  0  0  0  0  0  0  0
    4.5710  -12.1080   -1.8270 C   0  0  0  0  0  0  0  0  0  0  0  0
    4.2780  -11.6450   -3.1140 C   0  0  0  0  0  0  0  0  0  0  0  0
    3.0150  -11.1350   -3.4150 C   0  0  0  0  0  0  0  0  0  0  0  0
    2.0330  -11.0820   -2.4280 C   0  0  0  0  0  0  0  0  0  0  0  0
    2.2980  -11.5350   -1.1280 C   0  0  0  0  0  0  0  0  0  0  0  0
    1.2280  -11.4790   -0.0990 C   0  0  0  0  0  0  0  0  0  0  0  0
    0.6980  -10.2910    0.2590 C   0  0  0  0  0  0  0  0  0  0  0  0
   -0.2990  -10.2780    1.2080 N   0  0  0  0  0  0  0  0  0  0  0  0
   -1.0150   -9.2560    1.7700 C   0  0  0  0  0  0  0  0  0  0  0  0
   -1.8740   -9.8670    2.6580 C   0  0  0  0  0  0  0  0  0  0  0  0
   -1.7070  -11.2310    2.6540 N   0  0  0  0  0  0  0  0  0  0  0  0
   -0.7510  -11.4420    1.7700 C   0  0  0  0  0  0  0  0  0  0  0  0
   -0.1600  -12.7010    1.3450 C   0  0  0  0  0  0  0  0  0  0  0  0
   -0.5160  -13.9370    1.8170 N   0  0  0  0  0  0  0  0  0  0  0  0
   -1.5190  -14.1930    2.8180 C   0  0  0  0  0  0  0  0  0  0  0  0
   -0.8710  -14.8380    4.0170 C   0  0  0  0  0  0  0  0  0  0  0  0
    0.1850  -14.2100    4.6840 C   0  0  0  0  0  0  0  0  0  0  0  0
    0.7270  -14.8300    5.7990 C   0  0  0  0  0  0  0  0  0  0  0  0
    0.2910  -16.0090    6.2900 N   0  0  0  0  0  0  0  0  0  0  0  0
   -0.7370  -16.5940    5.6390 C   0  0  0  0  0  0  0  0  0  0  0  0
   -1.3460  -16.0540    4.5170 C   0  0  0  0  0  0  0  0  0  0  0  0
    0.7920  -12.6890    0.4340 N   0  0  0  0  0  0  0  0  0  0  0  0
    3.5720  -12.0630   -0.8480 C   0  0  0  0  0  0  0  0  0  0  0  0
    8.0430  -12.7960   -0.9520 N   0  0  0  0  0  0  0  0  0  0  0  0
    9.3830  -12.4970   -0.6010 C   0  0  0  0  0  0  0  0  0  0  0  0
    9.7570  -12.2000    0.7170 C   0  0  0  0  0  0  0  0  0  0  0  0
   11.0830  -11.9000    1.0470 C   0  0  0  0  0  0  0  0  0  0  0  0
   12.0630  -11.8880    0.0650 C   0  0  0  0  0  0  0  0  0  0  0  0
   11.7140  -12.1770   -1.2500 C   0  0  0  0  0  0  0  0  0  0  0  0
   10.3800  -12.4780   -1.6030 C   0  0  0  0  0  0  0  0  0  0  0  0
   10.1120  -12.7910   -3.0530 C   0  0  0  0  0  0  0  0  0  0  0  0
    9.2590  -11.9040   -3.6360 F   0  0  0  0  0  0  0  0  0  0  0  0
   11.2440  -12.7700   -3.8100 F   0  0  0  0  0  0  0  0  0  0  0  0
    9.5550  -14.0210   -3.2650 F   0  0  0  0  0  0  0  0  0  0  0  0
    6.0080  -13.5830   -1.8570 H   0  0  0  0  0  0  0  0  0  0  0  0
    5.0507  -11.6834   -3.8960 H   0  0  0  0  0  0  0  0  0  0  0  0
    2.7945  -10.7750   -4.4308 H   0  0  0  0  0  0  0  0  0  0  0  0
    1.0384  -10.6801   -2.6716 H   0  0  0  0  0  0  0  0  0  0  0  0
    1.0541   -9.3552   -0.1966 H   0  0  0  0  0  0  0  0  0  0  0  0
   -0.9246   -8.1803    1.5588 H   0  0  0  0  0  0  0  0  0  0  0  0
   -2.5995   -9.3319    3.2884 H   0  0  0  0  0  0  0  0  0  0  0  0
   -0.0060  -14.7200    1.4300 H   0  0  0  0  0  0  0  0  0  0  0  0
   -1.9883  -13.2448    3.1193 H   0  0  0  0  0  0  0  0  0  0  0  0
   -2.2872  -14.8649    2.4075 H   0  0  0  0  0  0  0  0  0  0  0  0
    0.5773  -13.2447    4.3316 H   0  0  0  0  0  0  0  0  0  0  0  0
    1.5616  -14.3317    6.3139 H   0  0  0  0  0  0  0  0  0  0  0  0
   -1.1130  -17.5546    6.0210 H   0  0  0  0  0  0  0  0  0  0  0  0
   -2.1857  -16.5716    4.0301 H   0  0  0  0  0  0  0  0  0  0  0  0
    3.7868  -12.4478    0.1599 H   0  0  0  0  0  0  0  0  0  0  0  0
    7.7980  -13.7760   -1.0010 H   0  0  0  0  0  0  0  0  0  0  0  0
    8.9924  -12.2029    1.5078 H   0  0  0  0  0  0  0  0  0  0  0  0
   11.3498  -11.6726    2.0897 H   0  0  0  0  0  0  0  0  0  0  0  0
   13.1058  -11.6522    0.3239 H   0  0  0  0  0  0  0  0  0  0  0  0
   12.4907  -12.1710   -2.0289 H   0  0  0  0  0  0  0  0  0  0  0  0
  1  2  2  0
  2  3  1  0
  3  4  1  0
  4  5  2  0
  5  6  1  0
  6  7  2  0
  7  8  1  0
  8  9  1  0
  9 10  2  0
 10 11  1  0
 11 12  1  0
 12 13  2  0
 13 14  1  0
 14 15  2  0
 15 16  1  0
 16 17  1  0
 17 18  1  0
 18 19  1  0
 19 20  2  0
 20 21  1  0
 21 22  2  0
 22 23  1  0
 23 24  2  0
 16 25  2  0
  8 26  2  0
  2 27  1  0
 27 28  1  0
 28 29  2  0
 29 30  1  0
 30 31  2  0
 31 32  1  0
 32 33  2  0
 33 34  1  0
 34 35  1  0
 34 36  1  0
 34 37  1  0
 26  4  1  0
 33 28  1  0
 25  9  1  0
 15 11  1  0
 24 19  1  0
  3 38  1  0
  5 39  1  0
  6 40  1  0
  7 41  1  0
 10 42  1  0
 12 43  1  0
 13 44  1  0
 17 45  1  0
 18 46  1  0
 18 47  1  0
 20 48  1  0
 21 49  1  0
 23 50  1  0
 24 51  1  0
 26 52  1  0
 27 53  1  0
 29 54  1  0
 30 55  1  0
 31 56  1  0
 32 57  1  0
M  END
>  <meeko>  (3) 
{"is_sidechain": [false], "free_energy": -8.822, "intermolecular_energy": -11.755, "internal_energy": -1.205}

$$$$
LIB_PSDSEDAUIJUGQT__M_PUB_ALL__e8__s20260927
     RDKit          3D

 57 61  0  0  0  0  0  0  0  0999 V2000
    2.5620  -11.8180    0.1790 O   0  0  0  0  0  0  0  0  0  0  0  0
    1.6070  -12.1990   -0.4860 C   0  0  0  0  0  0  0  0  0  0  0  0
    1.6580  -12.5120   -1.8390 N   0  0  0  0  0  0  0  0  0  0  0  0
    2.7460  -12.3440   -2.7220 C   0  0  0  0  0  0  0  0  0  0  0  0
    2.6370  -11.3330   -3.6840 C   0  0  0  0  0  0  0  0  0  0  0  0
    3.6730  -11.0990   -4.5880 C   0  0  0  0  0  0  0  0  0  0  0  0
    4.8280  -11.8770   -4.5390 C   0  0  0  0  0  0  0  0  0  0  0  0
    4.9650  -12.8990   -3.5890 C   0  0  0  0  0  0  0  0  0  0  0  0
    6.2140  -13.7030   -3.5510 C   0  0  0  0  0  0  0  0  0  0  0  0
    6.1720  -14.9930   -3.1580 C   0  0  0  0  0  0  0  0  0  0  0  0
    7.3470  -15.7120   -3.1450 N   0  0  0  0  0  0  0  0  0  0  0  0
    7.6250  -17.0060   -2.8020 C   0  0  0  0  0  0  0  0  0  0  0  0
    8.9810  -17.1450   -2.9970 C   0  0  0  0  0  0  0  0  0  0  0  0
    9.5420  -15.9760   -3.4510 N   0  0  0  0  0  0  0  0  0  0  0  0
    8.5280  -15.1350   -3.5280 C   0  0  0  0  0  0  0  0  0  0  0  0
    8.5240  -13.7450   -3.9550 C   0  0  0  0  0  0  0  0  0  0  0  0
    9.6270  -13.0450   -4.3680 N   0  0  0  0  0  0  0  0  0  0  0  0
   10.9690  -13.5610   -4.4330 C   0  0  0  0  0  0  0  0  0  0  0  0
   11.8390  -12.8090   -3.4570 C   0  0  0  0  0  0  0  0  0  0  0  0
   13.0550  -12.2520   -3.8640 C   0  0  0  0  0  0  0  0  0  0  0  0
   13.8050  -11.5450   -2.9370 C   0  0  0  0  0  0  0  0  0  0  0  0
   13.4270  -11.3530   -1.6560 N   0  0  0  0  0  0  0  0  0  0  0  0
   12.2450  -11.8880   -1.2850 C   0  0  0  0  0  0  0  0  0  0  0  0
   11.4240  -12.6090   -2.1370 C   0  0  0  0  0  0  0  0  0  0  0  0
    7.3880  -13.0780   -3.9610 N   0  0  0  0  0  0  0  0  0  0  0  0
    3.9170  -13.1080   -2.6730 C   0  0  0  0  0  0  0  0  0  0  0  0
    0.3190  -12.3890   -0.0010 N   0  0  0  0  0  0  0  0  0  0  0  0
   -0.1460  -12.2800    1.3330 C   0  0  0  0  0  0  0  0  0  0  0  0
   -0.0210  -13.3320    2.2520 C   0  0  0  0  0  0  0  0  0  0  0  0
   -0.4920  -13.2130    3.5640 C   0  0  0  0  0  0  0  0  0  0  0  0
   -1.0990  -12.0390    3.9850 C   0  0  0  0  0  0  0  0  0  0  0  0
   -1.2370  -10.9830    3.0890 C   0  0  0  0  0  0  0  0  0  0  0  0
   -0.7720  -11.0870    1.7600 C   0  0  0  0  0  0  0  0  0  0  0  0
   -0.9570   -9.8800    0.8770 C   0  0  0  0  0  0  0  0  0  0  0  0
   -1.6990   -8.9020    1.4670 F   0  0  0  0  0  0  0  0  0  0  0  0
    0.2250   -9.2960    0.5350 F   0  0  0  0  0  0  0  0  0  0  0  0
   -1.5860  -10.1460   -0.3080 F   0  0  0  0  0  0  0  0  0  0  0  0
    0.8510  -12.9760   -2.2260 H   0  0  0  0  0  0  0  0  0  0  0  0
    1.7262  -10.7177   -3.7274 H   0  0  0  0  0  0  0  0  0  0  0  0
    3.5784  -10.3009   -5.3391 H   0  0  0  0  0  0  0  0  0  0  0  0
    5.6419  -11.6871   -5.2541 H   0  0  0  0  0  0  0  0  0  0  0  0
    5.2228  -15.4592   -2.8554 H   0  0  0  0  0  0  0  0  0  0  0  0
    6.9183  -17.7706   -2.4471 H   0  0  0  0  0  0  0  0  0  0  0  0
    9.5428  -18.0727   -2.8130 H   0  0  0  0  0  0  0  0  0  0  0  0
    9.4650  -12.0800   -4.6260 H   0  0  0  0  0  0  0  0  0  0  0  0
   10.9648  -14.6300   -4.1737 H   0  0  0  0  0  0  0  0  0  0  0  0
   11.3637  -13.4350   -5.4520 H   0  0  0  0  0  0  0  0  0  0  0  0
   13.4093  -12.3723   -4.8984 H   0  0  0  0  0  0  0  0  0  0  0  0
   14.7634  -11.1158   -3.2645 H   0  0  0  0  0  0  0  0  0  0  0  0
   11.9141  -11.7433   -0.2460 H   0  0  0  0  0  0  0  0  0  0  0  0
   10.4655  -13.0156   -1.7822 H   0  0  0  0  0  0  0  0  0  0  0  0
    4.0207  -13.8872   -1.9036 H   0  0  0  0  0  0  0  0  0  0  0  0
   -0.3780  -12.5800   -0.7070 H   0  0  0  0  0  0  0  0  0  0  0  0
    0.4574  -14.2703    1.9346 H   0  0  0  0  0  0  0  0  0  0  0  0
   -0.3805  -14.0538    4.2645 H   0  0  0  0  0  0  0  0  0  0  0  0
   -1.4677  -11.9435    5.0170 H   0  0  0  0  0  0  0  0  0  0  0  0
   -1.7168  -10.0509    3.4222 H   0  0  0  0  0  0  0  0  0  0  0  0
  1  2  2  0
  2  3  1  0
  3  4  1  0
  4  5  2  0
  5  6  1  0
  6  7  2  0
  7  8  1  0
  8  9  1  0
  9 10  2  0
 10 11  1  0
 11 12  1  0
 12 13  2  0
 13 14  1  0
 14 15  2  0
 15 16  1  0
 16 17  1  0
 17 18  1  0
 18 19  1  0
 19 20  2  0
 20 21  1  0
 21 22  2  0
 22 23  1  0
 23 24  2  0
 16 25  2  0
  8 26  2  0
  2 27  1  0
 27 28  1  0
 28 29  2  0
 29 30  1  0
 30 31  2  0
 31 32  1  0
 32 33  2  0
 33 34  1  0
 34 35  1  0
 34 36  1  0
 34 37  1  0
 26  4  1  0
 33 28  1  0
 25  9  1  0
 15 11  1  0
 24 19  1  0
  3 38  1  0
  5 39  1  0
  6 40  1  0
  7 41  1  0
 10 42  1  0
 12 43  1  0
 13 44  1  0
 17 45  1  0
 18 46  1  0
 18 47  1  0
 20 48  1  0
 21 49  1  0
 23 50  1  0
 24 51  1  0
 26 52  1  0
 27 53  1  0
 29 54  1  0
 30 55  1  0
 31 56  1  0
 32 57  1  0
M  END
>  <meeko>  (4) 
{"is_sidechain": [false], "free_energy": -8.78, "intermolecular_energy": -11.728, "internal_energy": -1.176}

$$$$
LIB_PSDSEDAUIJUGQT__M_PUB_ALL__e8__s20260927
     RDKit          3D

 57 61  0  0  0  0  0  0  0  0999 V2000
    4.3030  -13.3080   -6.7310 O   0  0  0  0  0  0  0  0  0  0  0  0
    5.3290  -13.1210   -6.0910 C   0  0  0  0  0  0  0  0  0  0  0  0
    5.3840  -12.5330   -4.8330 N   0  0  0  0  0  0  0  0  0  0  0  0
    4.3240  -11.9410   -4.1120 C   0  0  0  0  0  0  0  0  0  0  0  0
    3.8000  -10.7450   -4.6150 C   0  0  0  0  0  0  0  0  0  0  0  0
    2.7470  -10.1010   -3.9650 C   0  0  0  0  0  0  0  0  0  0  0  0
    2.2100  -10.6500   -2.8020 C   0  0  0  0  0  0  0  0  0  0  0  0
    2.7160  -11.8450   -2.2720 C   0  0  0  0  0  0  0  0  0  0  0  0
    2.1140  -12.4140   -1.0390 C   0  0  0  0  0  0  0  0  0  0  0  0
    2.6280  -13.5360   -0.4940 C   0  0  0  0  0  0  0  0  0  0  0  0
    2.0520  -14.0300    0.6550 N   0  0  0  0  0  0  0  0  0  0  0  0
    2.3360  -15.1240    1.4250 C   0  0  0  0  0  0  0  0  0  0  0  0
    1.4130  -15.0930    2.4470 C   0  0  0  0  0  0  0  0  0  0  0  0
    0.5740  -14.0110    2.3270 N   0  0  0  0  0  0  0  0  0  0  0  0
    0.9880  -13.3940    1.2370 C   0  0  0  0  0  0  0  0  0  0  0  0
    0.4750  -12.1800    0.6230 C   0  0  0  0  0  0  0  0  0  0  0  0
   -0.5770  -11.4410    1.0990 N   0  0  0  0  0  0  0  0  0  0  0  0
   -1.3530  -11.7490    2.2700 C   0  0  0  0  0  0  0  0  0  0  0  0
   -2.7450  -12.1510    1.8530 C   0  0  0  0  0  0  0  0  0  0  0  0
   -3.5640  -12.8890    2.7120 C   0  0  0  0  0  0  0  0  0  0  0  0
   -4.8470  -13.2100    2.2940 C   0  0  0  0  0  0  0  0  0  0  0  0
   -5.3610  -12.8430    1.1020 N   0  0  0  0  0  0  0  0  0  0  0  0
   -4.5590  -12.1200    0.2910 C   0  0  0  0  0  0  0  0  0  0  0  0
   -3.2640  -11.7500    0.6180 C   0  0  0  0  0  0  0  0  0  0  0  0
    1.0430  -11.7260   -0.4750 N   0  0  0  0  0  0  0  0  0  0  0  0
    3.7660  -12.4890   -2.9520 C   0  0  0  0  0  0  0  0  0  0  0  0
    6.6080  -13.4670   -6.5110 N   0  0  0  0  0  0  0  0  0  0  0  0
    6.9920  -14.1700   -7.6800 C   0  0  0  0  0  0  0  0  0  0  0  0
    7.2050  -13.5180   -8.9020 C   0  0  0  0  0  0  0  0  0  0  0  0
    7.5770  -14.2260  -10.0500 C   0  0  0  0  0  0  0  0  0  0  0  0
    7.7430  -15.6020   -9.9990 C   0  0  0  0  0  0  0  0  0  0  0  0
    7.5340  -16.2710   -8.7970 C   0  0  0  0  0  0  0  0  0  0  0  0
    7.1540  -15.5730   -7.6290 C   0  0  0  0  0  0  0  0  0  0  0  0
    6.9680  -16.3900   -6.3770 C   0  0  0  0  0  0  0  0  0  0  0  0
    7.4670  -17.6530   -6.4910 F   0  0  0  0  0  0  0  0  0  0  0  0
    7.5900  -15.8410   -5.2970 F   0  0  0  0  0  0  0  0  0  0  0  0
    5.6630  -16.5490   -6.0020 F   0  0  0  0  0  0  0  0  0  0  0  0
    6.2630  -12.5930   -4.3430 H   0  0  0  0  0  0  0  0  0  0  0  0
    4.2225  -10.3083   -5.5319 H   0  0  0  0  0  0  0  0  0  0  0  0
    2.3414   -9.1619   -4.3695 H   0  0  0  0  0  0  0  0  0  0  0  0
    1.3789  -10.1393   -2.2937 H   0  0  0  0  0  0  0  0  0  0  0  0
    3.4869  -14.0442   -0.9566 H   0  0  0  0  0  0  0  0  0  0  0  0
    3.1300  -15.8679    1.2631 H   0  0  0  0  0  0  0  0  0  0  0  0
    1.3549  -15.8377    3.2545 H   0  0  0  0  0  0  0  0  0  0  0  0
   -0.8230  -10.6250    0.5540 H   0  0  0  0  0  0  0  0  0  0  0  0
   -0.8796  -12.5775    2.8172 H   0  0  0  0  0  0  0  0  0  0  0  0
   -1.4043  -10.8642    2.9216 H   0  0  0  0  0  0  0  0  0  0  0  0
   -3.1987  -13.2086    3.6991 H   0  0  0  0  0  0  0  0  0  0  0  0
   -5.4818  -13.7976    2.9735 H   0  0  0  0  0  0  0  0  0  0  0  0
   -4.9565  -11.8066   -0.6856 H   0  0  0  0  0  0  0  0  0  0  0  0
   -2.6573  -11.1535   -0.0792 H   0  0  0  0  0  0  0  0  0  0  0  0
    4.1557  -13.4417   -2.5641 H   0  0  0  0  0  0  0  0  0  0  0  0
    7.3560  -13.1260   -5.9230 H   0  0  0  0  0  0  0  0  0  0  0  0
    7.0771  -12.4270   -8.9599 H   0  0  0  0  0  0  0  0  0  0  0  0
    7.7384  -13.6893  -10.9965 H   0  0  0  0  0  0  0  0  0  0  0  0
    8.0372  -16.1594  -10.9006 H   0  0  0  0  0  0  0  0  0  0  0  0
    7.6669  -17.3621   -8.7555 H   0  0  0  0  0  0  0  0  0  0  0  0
  1  2  2  0
  2  3  1  0
  3  4  1  0
  4  5  2  0
  5  6  1  0
  6  7  2  0
  7  8  1  0
  8  9  1  0
  9 10  2  0
 10 11  1  0
 11 12  1  0
 12 13  2  0
 13 14  1  0
 14 15  2  0
 15 16  1  0
 16 17  1  0
 17 18  1  0
 18 19  1  0
 19 20  2  0
 20 21  1  0
 21 22  2  0
 22 23  1  0
 23 24  2  0
 16 25  2  0
  8 26  2  0
  2 27  1  0
 27 28  1  0
 28 29  2  0
 29 30  1  0
 30 31  2  0
 31 32  1  0
 32 33  2  0
 33 34  1  0
 34 35  1  0
 34 36  1  0
 34 37  1  0
 26  4  1  0
 33 28  1  0
 25  9  1  0
 15 11  1  0
 24 19  1  0
  3 38  1  0
  5 39  1  0
  6 40  1  0
  7 41  1  0
 10 42  1  0
 12 43  1  0
 13 44  1  0
 17 45  1  0
 18 46  1  0
 18 47  1  0
 20 48  1  0
 21 49  1  0
 23 50  1  0
 24 51  1  0
 26 52  1  0
 27 53  1  0
 29 54  1  0
 30 55  1  0
 31 56  1  0
 32 57  1  0
M  END
>  <meeko>  (5) 
{"is_sidechain": [false], "free_energy": -8.732, "intermolecular_energy": -11.687, "internal_energy": -1.15}

$$$$
LIB_PSDSEDAUIJUGQT__M_PUB_ALL__e8__s20260927
     RDKit          3D

 57 61  0  0  0  0  0  0  0  0999 V2000
    1.5840  -13.1980   -1.7170 O   0  0  0  0  0  0  0  0  0  0  0  0
    2.0590  -12.1640   -1.2660 C   0  0  0  0  0  0  0  0  0  0  0  0
    1.4380  -11.3490   -0.3270 N   0  0  0  0  0  0  0  0  0  0  0  0
    0.1300  -11.4730    0.1900 C   0  0  0  0  0  0  0  0  0  0  0  0
   -0.7020  -10.3520    0.0960 C   0  0  0  0  0  0  0  0  0  0  0  0
   -2.0110  -10.3970    0.5770 C   0  0  0  0  0  0  0  0  0  0  0  0
   -2.4970  -11.5650    1.1610 C   0  0  0  0  0  0  0  0  0  0  0  0
   -1.6860  -12.7020    1.2730 C   0  0  0  0  0  0  0  0  0  0  0  0
   -2.2360  -13.9380    1.8870 C   0  0  0  0  0  0  0  0  0  0  0  0
   -1.5900  -15.1130    1.7320 C   0  0  0  0  0  0  0  0  0  0  0  0
   -2.1220  -16.2360    2.3240 N   0  0  0  0  0  0  0  0  0  0  0  0
   -1.7120  -17.5410    2.3460 C   0  0  0  0  0  0  0  0  0  0  0  0
   -2.6560  -18.2010    3.1030 C   0  0  0  0  0  0  0  0  0  0  0  0
   -3.6290  -17.3380    3.5470 N   0  0  0  0  0  0  0  0  0  0  0  0
   -3.2750  -16.1650    3.0580 C   0  0  0  0  0  0  0  0  0  0  0  0
   -3.9320  -14.8760    3.2080 C   0  0  0  0  0  0  0  0  0  0  0  0
   -5.0840  -14.6580    3.9170 N   0  0  0  0  0  0  0  0  0  0  0  0
   -5.8410  -15.6640    4.6140 C   0  0  0  0  0  0  0  0  0  0  0  0
   -5.8050  -15.3770    6.0940 C   0  0  0  0  0  0  0  0  0  0  0  0
   -4.9890  -16.1240    6.9480 C   0  0  0  0  0  0  0  0  0  0  0  0
   -4.9690  -15.8030    8.2970 C   0  0  0  0  0  0  0  0  0  0  0  0
   -5.6890  -14.7990    8.8400 N   0  0  0  0  0  0  0  0  0  0  0  0
   -6.4610  -14.0820    7.9970 C   0  0  0  0  0  0  0  0  0  0  0  0
   -6.5490  -14.3240    6.6360 C   0  0  0  0  0  0  0  0  0  0  0  0
   -3.4030  -13.8150    2.6350 N   0  0  0  0  0  0  0  0  0  0  0  0
   -0.3750  -12.6440    0.7650 C   0  0  0  0  0  0  0  0  0  0  0  0
    3.2960  -11.6350   -1.6120 N   0  0  0  0  0  0  0  0  0  0  0  0
    4.2900  -12.1920   -2.4550 C   0  0  0  0  0  0  0  0  0  0  0  0
    5.3050  -13.0220   -1.9600 C   0  0  0  0  0  0  0  0  0  0  0  0
    6.2830  -13.5590   -2.8030 C   0  0  0  0  0  0  0  0  0  0  0  0
    6.2670  -13.2750   -4.1610 C   0  0  0  0  0  0  0  0  0  0  0  0
    5.2710  -12.4510   -4.6750 C   0  0  0  0  0  0  0  0  0  0  0  0
    4.2780  -11.8960   -3.8370 C   0  0  0  0  0  0  0  0  0  0  0  0
    3.2360  -11.0290   -4.4970 C   0  0  0  0  0  0  0  0  0  0  0  0
    3.5830  -10.6550   -5.7590 F   0  0  0  0  0  0  0  0  0  0  0  0
    2.0320  -11.6550   -4.6110 F   0  0  0  0  0  0  0  0  0  0  0  0
    2.9780   -9.8630   -3.8310 F   0  0  0  0  0  0  0  0  0  0  0  0
    2.0040  -10.6250    0.0880 H   0  0  0  0  0  0  0  0  0  0  0  0
   -0.3207   -9.4270   -0.3612 H   0  0  0  0  0  0  0  0  0  0  0  0
   -2.6585   -9.5115    0.4953 H   0  0  0  0  0  0  0  0  0  0  0  0
   -3.5297  -11.5948    1.5386 H   0  0  0  0  0  0  0  0  0  0  0  0
   -0.6606  -15.1717    1.1466 H   0  0  0  0  0  0  0  0  0  0  0  0
   -0.8215  -17.9706    1.8638 H   0  0  0  0  0  0  0  0  0  0  0  0
   -2.6335  -19.2785    3.3232 H   0  0  0  0  0  0  0  0  0  0  0  0
   -5.4250  -13.7050    3.9210 H   0  0  0  0  0  0  0  0  0  0  0  0
   -6.8830  -15.6497    4.2620 H   0  0  0  0  0  0  0  0  0  0  0  0
   -5.4046  -16.6549    4.4196 H   0  0  0  0  0  0  0  0  0  0  0  0
   -4.3753  -16.9495    6.5582 H   0  0  0  0  0  0  0  0  0  0  0  0
   -4.3295  -16.4012    8.9627 H   0  0  0  0  0  0  0  0  0  0  0  0
   -7.0556  -13.2565    8.4153 H   0  0  0  0  0  0  0  0  0  0  0  0
   -7.1904  -13.7012    5.9951 H   0  0  0  0  0  0  0  0  0  0  0  0
    0.2651  -13.5368    0.8211 H   0  0  0  0  0  0  0  0  0  0  0  0
    3.4810  -10.7100   -1.2480 H   0  0  0  0  0  0  0  0  0  0  0  0
    5.3329  -13.2560   -0.8855 H   0  0  0  0  0  0  0  0  0  0  0  0
    7.0676  -14.2088   -2.3881 H   0  0  0  0  0  0  0  0  0  0  0  0
    7.0351  -13.6977   -4.8253 H   0  0  0  0  0  0  0  0  0  0  0  0
    5.2563  -12.2278   -5.7520 H   0  0  0  0  0  0  0  0  0  0  0  0
  1  2  2  0
  2  3  1  0
  3  4  1  0
  4  5  2  0
  5  6  1  0
  6  7  2  0
  7  8  1  0
  8  9  1  0
  9 10  2  0
 10 11  1  0
 11 12  1  0
 12 13  2  0
 13 14  1  0
 14 15  2  0
 15 16  1  0
 16 17  1  0
 17 18  1  0
 18 19  1  0
 19 20  2  0
 20 21  1  0
 21 22  2  0
 22 23  1  0
 23 24  2  0
 16 25  2  0
  8 26  2  0
  2 27  1  0
 27 28  1  0
 28 29  2  0
 29 30  1  0
 30 31  2  0
 31 32  1  0
 32 33  2  0
 33 34  1  0
 34 35  1  0
 34 36  1  0
 34 37  1  0
 26  4  1  0
 33 28  1  0
 25  9  1  0
 15 11  1  0
 24 19  1  0
  3 38  1  0
  5 39  1  0
  6 40  1  0
  7 41  1  0
 10 42  1  0
 12 43  1  0
 13 44  1  0
 17 45  1  0
 18 46  1  0
 18 47  1  0
 20 48  1  0
 21 49  1  0
 23 50  1  0
 24 51  1  0
 26 52  1  0
 27 53  1  0
 29 54  1  0
 30 55  1  0
 31 56  1  0
 32 57  1  0
M  END
>  <meeko>  (6) 
{"is_sidechain": [false], "free_energy": -8.567, "intermolecular_energy": -11.535, "internal_energy": -1.079}

$$$$
LIB_PSDSEDAUIJUGQT__M_PUB_ALL__e8__s20260927
     RDKit          3D

 57 61  0  0  0  0  0  0  0  0999 V2000
   14.0270  -10.4690   11.2510 O   0  0  0  0  0  0  0  0  0  0  0  0
   13.9550  -10.0940   12.4140 C   0  0  0  0  0  0  0  0  0  0  0  0
   13.2250  -10.7330   13.4090 N   0  0  0  0  0  0  0  0  0  0  0  0
   12.3510  -11.8310   13.2660 C   0  0  0  0  0  0  0  0  0  0  0  0
   10.9810  -11.5520   13.2020 C   0  0  0  0  0  0  0  0  0  0  0  0
   10.0530  -12.5830   13.0540 C   0  0  0  0  0  0  0  0  0  0  0  0
   10.4880  -13.9040   12.9690 C   0  0  0  0  0  0  0  0  0  0  0  0
   11.8530  -14.2150   13.0330 C   0  0  0  0  0  0  0  0  0  0  0  0
   12.2890  -15.6310   12.9260 C   0  0  0  0  0  0  0  0  0  0  0  0
   11.3710  -16.6110   12.7990 C   0  0  0  0  0  0  0  0  0  0  0  0
   11.8110  -17.9110   12.6910 N   0  0  0  0  0  0  0  0  0  0  0  0
   11.1410  -19.0970   12.5580 C   0  0  0  0  0  0  0  0  0  0  0  0
   12.1260  -20.0590   12.4980 C   0  0  0  0  0  0  0  0  0  0  0  0
   13.3770  -19.4980   12.5890 N   0  0  0  0  0  0  0  0  0  0  0  0
   13.1480  -18.2040   12.7050 C   0  0  0  0  0  0  0  0  0  0  0  0
   14.1030  -17.1150   12.8310 C   0  0  0  0  0  0  0  0  0  0  0  0
   15.4650  -17.2610   12.8530 N   0  0  0  0  0  0  0  0  0  0  0  0
   16.1740  -18.5110   12.7700 C   0  0  0  0  0  0  0  0  0  0  0  0
   16.8330  -18.6210   11.4190 C   0  0  0  0  0  0  0  0  0  0  0  0
   18.0450  -17.9760   11.1590 C   0  0  0  0  0  0  0  0  0  0  0  0
   18.6260  -18.1310    9.9090 C   0  0  0  0  0  0  0  0  0  0  0  0
   18.0920  -18.8790    8.9210 N   0  0  0  0  0  0  0  0  0  0  0  0
   16.9270  -19.5030    9.1950 C   0  0  0  0  0  0  0  0  0  0  0  0
   16.2690  -19.4110   10.4110 C   0  0  0  0  0  0  0  0  0  0  0  0
   13.6590  -15.8790   12.9310 N   0  0  0  0  0  0  0  0  0  0  0  0
   12.7760  -13.1610   13.1650 C   0  0  0  0  0  0  0  0  0  0  0  0
   14.5930   -8.9750   12.9340 N   0  0  0  0  0  0  0  0  0  0  0  0
   15.5070   -8.1020   12.2930 C   0  0  0  0  0  0  0  0  0  0  0  0
   15.0790   -6.9870   11.5590 C   0  0  0  0  0  0  0  0  0  0  0  0
   15.9920   -6.1380   10.9250 C   0  0  0  0  0  0  0  0  0  0  0  0
   17.3540   -6.3880   11.0100 C   0  0  0  0  0  0  0  0  0  0  0  0
   17.8010   -7.4910   11.7310 C   0  0  0  0  0  0  0  0  0  0  0  0
   16.8940   -8.3610   12.3740 C   0  0  0  0  0  0  0  0  0  0  0  0
   17.4840   -9.5160   13.1410 C   0  0  0  0  0  0  0  0  0  0  0  0
   17.5100  -10.6710   12.4190 F   0  0  0  0  0  0  0  0  0  0  0  0
   18.7710   -9.2870   13.5230 F   0  0  0  0  0  0  0  0  0  0  0  0
   16.8120   -9.8240   14.2910 F   0  0  0  0  0  0  0  0  0  0  0  0
   13.3860  -10.4250   14.3560 H   0  0  0  0  0  0  0  0  0  0  0  0
   10.6330  -10.5107   13.2690 H   0  0  0  0  0  0  0  0  0  0  0  0
    8.9784  -12.3532   13.0044 H   0  0  0  0  0  0  0  0  0  0  0  0
    9.7514  -14.7123   12.8503 H   0  0  0  0  0  0  0  0  0  0  0  0
   10.2963  -16.3771   12.7821 H   0  0  0  0  0  0  0  0  0  0  0  0
   10.0527  -19.2493   12.5095 H   0  0  0  0  0  0  0  0  0  0  0  0
   11.9353  -21.1370   12.3910 H   0  0  0  0  0  0  0  0  0  0  0  0
   15.9980  -16.4070   12.9570 H   0  0  0  0  0  0  0  0  0  0  0  0
   16.9411  -18.5514   13.5574 H   0  0  0  0  0  0  0  0  0  0  0  0
   15.4688  -19.3443   12.9050 H   0  0  0  0  0  0  0  0  0  0  0  0
   18.5285  -17.3579   11.9299 H   0  0  0  0  0  0  0  0  0  0  0  0
   19.5769  -17.6144    9.7118 H   0  0  0  0  0  0  0  0  0  0  0  0
   16.4731  -20.1211    8.4064 H   0  0  0  0  0  0  0  0  0  0  0  0
   15.3237  -19.9474   10.5803 H   0  0  0  0  0  0  0  0  0  0  0  0
   13.8524  -13.3866   13.1893 H   0  0  0  0  0  0  0  0  0  0  0  0
   14.3250   -8.7330   13.8780 H   0  0  0  0  0  0  0  0  0  0  0  0
   14.0025   -6.7753   11.4800 H   0  0  0  0  0  0  0  0  0  0  0  0
   15.6288   -5.2689   10.3569 H   0  0  0  0  0  0  0  0  0  0  0  0
   18.0733   -5.7209   10.5124 H   0  0  0  0  0  0  0  0  0  0  0  0
   18.8808   -7.6887   11.8012 H   0  0  0  0  0  0  0  0  0  0  0  0
  1  2  2  0
  2  3  1  0
  3  4  1  0
  4  5  2  0
  5  6  1  0
  6  7  2  0
  7  8  1  0
  8  9  1  0
  9 10  2  0
 10 11  1  0
 11 12  1  0
 12 13  2  0
 13 14  1  0
 14 15  2  0
 15 16  1  0
 16 17  1  0
 17 18  1  0
 18 19  1  0
 19 20  2  0
 20 21  1  0
 21 22  2  0
 22 23  1  0
 23 24  2  0
 16 25  2  0
  8 26  2  0
  2 27  1  0
 27 28  1  0
 28 29  2  0
 29 30  1  0
 30 31  2  0
 31 32  1  0
 32 33  2  0
 33 34  1  0
 34 35  1  0
 34 36  1  0
 34 37  1  0
 26  4  1  0
 33 28  1  0
 25  9  1  0
 15 11  1  0
 24 19  1  0
  3 38  1  0
  5 39  1  0
  6 40  1  0
  7 41  1  0
 10 42  1  0
 12 43  1  0
 13 44  1  0
 17 45  1  0
 18 46  1  0
 18 47  1  0
 20 48  1  0
 21 49  1  0
 23 50  1  0
 24 51  1  0
 26 52  1  0
 27 53  1  0
 29 54  1  0
 30 55  1  0
 31 56  1  0
 32 57  1  0
M  END
>  <meeko>  (7) 
{"is_sidechain": [false], "free_energy": -8.56, "intermolecular_energy": -11.438, "internal_energy": -1.167}

$$$$
LIB_PSDSEDAUIJUGQT__M_PUB_ALL__e8__s20260927
     RDKit          3D

 57 61  0  0  0  0  0  0  0  0999 V2000
    0.4630  -14.6120   -2.3080 O   0  0  0  0  0  0  0  0  0  0  0  0
    0.9220  -14.0470   -1.3240 C   0  0  0  0  0  0  0  0  0  0  0  0
    1.8420  -13.0060   -1.3640 N   0  0  0  0  0  0  0  0  0  0  0  0
    2.5050  -12.4860   -2.4970 C   0  0  0  0  0  0  0  0  0  0  0  0
    2.3190  -11.1270   -2.7770 C   0  0  0  0  0  0  0  0  0  0  0  0
    2.9450  -10.5360   -3.8740 C   0  0  0  0  0  0  0  0  0  0  0  0
    3.7620  -11.3020   -4.7040 C   0  0  0  0  0  0  0  0  0  0  0  0
    3.9640  -12.6650   -4.4520 C   0  0  0  0  0  0  0  0  0  0  0  0
    4.8510  -13.4530   -5.3450 C   0  0  0  0  0  0  0  0  0  0  0  0
    5.1400  -14.7370   -5.0470 C   0  0  0  0  0  0  0  0  0  0  0  0
    5.9570  -15.4410   -5.9030 N   0  0  0  0  0  0  0  0  0  0  0  0
    6.4240  -16.7270   -5.8730 C   0  0  0  0  0  0  0  0  0  0  0  0
    7.1990  -16.8530   -7.0060 C   0  0  0  0  0  0  0  0  0  0  0  0
    7.2170  -15.6840   -7.7290 N   0  0  0  0  0  0  0  0  0  0  0  0
    6.4590  -14.8570   -7.0340 C   0  0  0  0  0  0  0  0  0  0  0  0
    6.1120  -13.4740   -7.3230 C   0  0  0  0  0  0  0  0  0  0  0  0
    6.5370  -12.7690   -8.4180 N   0  0  0  0  0  0  0  0  0  0  0  0
    7.4050  -13.2690   -9.4510 C   0  0  0  0  0  0  0  0  0  0  0  0
    7.8700  -12.1210  -10.3100 C   0  0  0  0  0  0  0  0  0  0  0  0
    9.0840  -12.1880  -11.0000 C   0  0  0  0  0  0  0  0  0  0  0  0
    9.4540  -11.1180  -11.8000 C   0  0  0  0  0  0  0  0  0  0  0  0
    8.7040  -10.0080  -11.9630 N   0  0  0  0  0  0  0  0  0  0  0  0
    7.5290   -9.9670  -11.2980 C   0  0  0  0  0  0  0  0  0  0  0  0
    7.0720  -10.9840  -10.4760 C   0  0  0  0  0  0  0  0  0  0  0  0
    5.3280  -12.8220   -6.4910 N   0  0  0  0  0  0  0  0  0  0  0  0
    3.3380  -13.2400   -3.3300 C   0  0  0  0  0  0  0  0  0  0  0  0
    0.6000  -14.3470   -0.0060 N   0  0  0  0  0  0  0  0  0  0  0  0
   -0.3610  -15.2680    0.4790 C   0  0  0  0  0  0  0  0  0  0  0  0
   -1.7190  -14.9370    0.5900 C   0  0  0  0  0  0  0  0  0  0  0  0
   -2.6550  -15.8540    1.0770 C   0  0  0  0  0  0  0  0  0  0  0  0
   -2.2530  -17.1230    1.4670 C   0  0  0  0  0  0  0  0  0  0  0  0
   -0.9100  -17.4730    1.3690 C   0  0  0  0  0  0  0  0  0  0  0  0
    0.0500  -16.5590    0.8830 C   0  0  0  0  0  0  0  0  0  0  0  0
    1.4750  -17.0430    0.8040 C   0  0  0  0  0  0  0  0  0  0  0  0
    2.3280  -16.3050    1.5660 F   0  0  0  0  0  0  0  0  0  0  0  0
    1.6140  -18.3300    1.2300 F   0  0  0  0  0  0  0  0  0  0  0  0
    2.0030  -17.0190   -0.4570 F   0  0  0  0  0  0  0  0  0  0  0  0
    2.0090  -12.5160   -0.4990 H   0  0  0  0  0  0  0  0  0  0  0  0
    1.6731  -10.5198   -2.1257 H   0  0  0  0  0  0  0  0  0  0  0  0
    2.7943   -9.4668   -4.0841 H   0  0  0  0  0  0  0  0  0  0  0  0
    4.2541  -10.8304   -5.5674 H   0  0  0  0  0  0  0  0  0  0  0  0
    4.7324  -15.2101   -4.1414 H   0  0  0  0  0  0  0  0  0  0  0  0
    6.2242  -17.4939   -5.1101 H   0  0  0  0  0  0  0  0  0  0  0  0
    7.7337  -17.7701   -7.2942 H   0  0  0  0  0  0  0  0  0  0  0  0
    6.2180  -11.8100   -8.4750 H   0  0  0  0  0  0  0  0  0  0  0  0
    8.2755  -13.7614   -8.9930 H   0  0  0  0  0  0  0  0  0  0  0  0
    6.8594  -13.9956  -10.0709 H   0  0  0  0  0  0  0  0  0  0  0  0
    9.7325  -13.0719  -10.9100 H   0  0  0  0  0  0  0  0  0  0  0  0
   10.4145  -11.1772  -12.3328 H   0  0  0  0  0  0  0  0  0  0  0  0
    6.8981   -9.0737  -11.4161 H   0  0  0  0  0  0  0  0  0  0  0  0
    6.1019  -10.8994   -9.9644 H   0  0  0  0  0  0  0  0  0  0  0  0
    3.5072  -14.3031   -3.1039 H   0  0  0  0  0  0  0  0  0  0  0  0
    1.1650  -13.8770    0.6880 H   0  0  0  0  0  0  0  0  0  0  0  0
   -2.0550  -13.9343    0.2874 H   0  0  0  0  0  0  0  0  0  0  0  0
   -3.7146  -15.5681    1.1512 H   0  0  0  0  0  0  0  0  0  0  0  0
   -2.9888  -17.8455    1.8500 H   0  0  0  0  0  0  0  0  0  0  0  0
   -0.5905  -18.4799    1.6757 H   0  0  0  0  0  0  0  0  0  0  0  0
  1  2  2  0
  2  3  1  0
  3  4  1  0
  4  5  2  0
  5  6  1  0
  6  7  2  0
  7  8  1  0
  8  9  1  0
  9 10  2  0
 10 11  1  0
 11 12  1  0
 12 13  2  0
 13 14  1  0
 14 15  2  0
 15 16  1  0
 16 17  1  0
 17 18  1  0
 18 19  1  0
 19 20  2  0
 20 21  1  0
 21 22  2  0
 22 23  1  0
 23 24  2  0
 16 25  2  0
  8 26  2  0
  2 27  1  0
 27 28  1  0
 28 29  2  0
 29 30  1  0
 30 31  2  0
 31 32  1  0
 32 33  2  0
 33 34  1  0
 34 35  1  0
 34 36  1  0
 34 37  1  0
 26  4  1  0
 33 28  1  0
 25  9  1  0
 15 11  1  0
 24 19  1  0
  3 38  1  0
  5 39  1  0
  6 40  1  0
  7 41  1  0
 10 42  1  0
 12 43  1  0
 13 44  1  0
 17 45  1  0
 18 46  1  0
 18 47  1  0
 20 48  1  0
 21 49  1  0
 23 50  1  0
 24 51  1  0
 26 52  1  0
 27 53  1  0
 29 54  1  0
 30 55  1  0
 31 56  1  0
 32 57  1  0
M  END
>  <meeko>  (8) 
{"is_sidechain": [false], "free_energy": -8.383, "intermolecular_energy": -11.258, "internal_energy": -1.109}

$$$$
LIB_PSDSEDAUIJUGQT__M_PUB_ALL__e8__s20260927
     RDKit          3D

 57 61  0  0  0  0  0  0  0  0999 V2000
    0.6940  -13.6800   -0.9850 O   0  0  0  0  0  0  0  0  0  0  0  0
    1.1160  -12.8480   -0.1920 C   0  0  0  0  0  0  0  0  0  0  0  0
    2.0850  -11.8950   -0.4830 N   0  0  0  0  0  0  0  0  0  0  0  0
    2.8440  -11.7720   -1.6660 C   0  0  0  0  0  0  0  0  0  0  0  0
    2.3120  -10.9730   -2.6850 C   0  0  0  0  0  0  0  0  0  0  0  0
    3.0050  -10.7960   -3.8830 C   0  0  0  0  0  0  0  0  0  0  0  0
    4.2370  -11.4180   -4.0720 C   0  0  0  0  0  0  0  0  0  0  0  0
    4.7930  -12.2270   -3.0720 C   0  0  0  0  0  0  0  0  0  0  0  0
    6.1150  -12.8670   -3.2960 C   0  0  0  0  0  0  0  0  0  0  0  0
    6.4330  -13.3460   -4.5160 C   0  0  0  0  0  0  0  0  0  0  0  0
    7.6710  -13.9230   -4.6910 N   0  0  0  0  0  0  0  0  0  0  0  0
    8.2710  -14.4910   -5.7820 C   0  0  0  0  0  0  0  0  0  0  0  0
    9.5130  -14.8920   -5.3390 C   0  0  0  0  0  0  0  0  0  0  0  0
    9.6920  -14.5840   -4.0110 N   0  0  0  0  0  0  0  0  0  0  0  0
    8.5620  -14.0030   -3.6550 C   0  0  0  0  0  0  0  0  0  0  0  0
    8.1810  -13.4620   -2.3600 C   0  0  0  0  0  0  0  0  0  0  0  0
    8.9730  -13.4690   -1.2410 N   0  0  0  0  0  0  0  0  0  0  0  0
   10.2980  -14.0220   -1.1570 C   0  0  0  0  0  0  0  0  0  0  0  0
   11.3020  -12.8990   -1.0790 C   0  0  0  0  0  0  0  0  0  0  0  0
   11.4130  -12.1170    0.0740 C   0  0  0  0  0  0  0  0  0  0  0  0
   12.3710  -11.1150    0.1070 C   0  0  0  0  0  0  0  0  0  0  0  0
   13.2160  -10.8500   -0.9110 N   0  0  0  0  0  0  0  0  0  0  0  0
   13.1010  -11.6240   -2.0110 C   0  0  0  0  0  0  0  0  0  0  0  0
   12.1770  -12.6490   -2.1410 C   0  0  0  0  0  0  0  0  0  0  0  0
    6.9930  -12.9130   -2.2170 N   0  0  0  0  0  0  0  0  0  0  0  0
    4.0880  -12.3800   -1.8630 C   0  0  0  0  0  0  0  0  0  0  0  0
    0.6940  -12.7120    1.1250 N   0  0  0  0  0  0  0  0  0  0  0  0
   -0.3400  -13.4110    1.7960 C   0  0  0  0  0  0  0  0  0  0  0  0
   -0.2030  -14.7530    2.1770 C   0  0  0  0  0  0  0  0  0  0  0  0
   -1.2350  -15.4330    2.8330 C   0  0  0  0  0  0  0  0  0  0  0  0
   -2.4270  -14.7840    3.1210 C   0  0  0  0  0  0  0  0  0  0  0  0
   -2.5860  -13.4530    2.7490 C   0  0  0  0  0  0  0  0  0  0  0  0
   -1.5570  -12.7520    2.0820 C   0  0  0  0  0  0  0  0  0  0  0  0
   -1.8260  -11.3100    1.7380 C   0  0  0  0  0  0  0  0  0  0  0  0
   -1.8520  -11.0830    0.3960 F   0  0  0  0  0  0  0  0  0  0  0  0
   -3.0270  -10.8750    2.2120 F   0  0  0  0  0  0  0  0  0  0  0  0
   -0.9000  -10.4350    2.2360 F   0  0  0  0  0  0  0  0  0  0  0  0
    2.2180  -11.1630    0.1980 H   0  0  0  0  0  0  0  0  0  0  0  0
    1.3392  -10.4804   -2.5400 H   0  0  0  0  0  0  0  0  0  0  0  0
    2.5788  -10.1658   -4.6775 H   0  0  0  0  0  0  0  0  0  0  0  0
    4.7799  -11.2724   -5.0175 H   0  0  0  0  0  0  0  0  0  0  0  0
    5.7205  -13.2774   -5.3512 H   0  0  0  0  0  0  0  0  0  0  0  0
    7.8527  -14.6032   -6.7932 H   0  0  0  0  0  0  0  0  0  0  0  0
   10.2641  -15.3937   -5.9668 H   0  0  0  0  0  0  0  0  0  0  0  0
    8.5630  -13.0620   -0.4100 H   0  0  0  0  0  0  0  0  0  0  0  0
   10.3780  -14.6497   -0.2572 H   0  0  0  0  0  0  0  0  0  0  0  0
   10.4989  -14.6351   -2.0479 H   0  0  0  0  0  0  0  0  0  0  0  0
   10.7542  -12.2927    0.9372 H   0  0  0  0  0  0  0  0  0  0  0  0
   12.4465  -10.5003    1.0161 H   0  0  0  0  0  0  0  0  0  0  0  0
   13.7806  -11.4298   -2.8539 H   0  0  0  0  0  0  0  0  0  0  0  0
   12.1329  -13.2527   -3.0595 H   0  0  0  0  0  0  0  0  0  0  0  0
    4.5240  -12.9895   -1.0578 H   0  0  0  0  0  0  0  0  0  0  0  0
    1.2340  -12.0630    1.6800 H   0  0  0  0  0  0  0  0  0  0  0  0
    0.7354  -15.2826    1.9556 H   0  0  0  0  0  0  0  0  0  0  0  0
   -1.1008  -16.4860    3.1214 H   0  0  0  0  0  0  0  0  0  0  0  0
   -3.2384  -15.3167    3.6385 H   0  0  0  0  0  0  0  0  0  0  0  0
   -3.5301  -12.9372    2.9784 H   0  0  0  0  0  0  0  0  0  0  0  0
  1  2  2  0
  2  3  1  0
  3  4  1  0
  4  5  2  0
  5  6  1  0
  6  7  2  0
  7  8  1  0
  8  9  1  0
  9 10  2  0
 10 11  1  0
 11 12  1  0
 12 13  2  0
 13 14  1  0
 14 15  2  0
 15 16  1  0
 16 17  1  0
 17 18  1  0
 18 19  1  0
 19 20  2  0
 20 21  1  0
 21 22  2  0
 22 23  1  0
 23 24  2  0
 16 25  2  0
  8 26  2  0
  2 27  1  0
 27 28  1  0
 28 29  2  0
 29 30  1  0
 30 31  2  0
 31 32  1  0
 32 33  2  0
 33 34  1  0
 34 35  1  0
 34 36  1  0
 34 37  1  0
 26  4  1  0
 33 28  1  0
 25  9  1  0
 15 11  1  0
 24 19  1  0
  3 38  1  0
  5 39  1  0
  6 40  1  0
  7 41  1  0
 10 42  1  0
 12 43  1  0
 13 44  1  0
 17 45  1  0
 18 46  1  0
 18 47  1  0
 20 48  1  0
 21 49  1  0
 23 50  1  0
 24 51  1  0
 26 52  1  0
 27 53  1  0
 29 54  1  0
 30 55  1  0
 31 56  1  0
 32 57  1  0
M  END
>  <meeko>  (9) 
{"is_sidechain": [false], "free_energy": -8.312, "intermolecular_energy": -11.053, "internal_energy": -1.218}

$$$$
