LIB_GKROVQJERPLMAG__M_PUB_ALL__e8__s20260927
     RDKit          3D

 60 64  0  0  0  0  0  0  0  0999 V2000
    8.2820  -10.9860    1.0600 O   0  0  0  0  0  0  0  0  0  0  0  0
    8.4150  -12.1820    0.8350 C   0  0  0  0  0  0  0  0  0  0  0  0
    7.4120  -13.0840    1.0990 N   0  0  0  0  0  0  0  0  0  0  0  0
    6.1560  -12.6480    1.6600 C   0  0  0  0  0  0  0  0  0  0  0  0
    5.1000  -12.5610    0.5930 C   0  0  0  0  0  0  0  0  0  0  0  0
    5.4390  -12.6980   -0.7590 C   0  0  0  0  0  0  0  0  0  0  0  0
    4.4630  -12.5670   -1.7460 C   0  0  0  0  0  0  0  0  0  0  0  0
    3.1410  -12.2950   -1.3910 C   0  0  0  0  0  0  0  0  0  0  0  0
    2.7720  -12.1580   -0.0450 C   0  0  0  0  0  0  0  0  0  0  0  0
    1.3640  -11.8570    0.3010 C   0  0  0  0  0  0  0  0  0  0  0  0
    1.0570  -10.6830    0.8910 C   0  0  0  0  0  0  0  0  0  0  0  0
   -0.2610  -10.4410    1.2160 N   0  0  0  0  0  0  0  0  0  0  0  0
   -0.8860   -9.3760    1.8040 C   0  0  0  0  0  0  0  0  0  0  0  0
   -2.2180   -9.7310    1.8590 C   0  0  0  0  0  0  0  0  0  0  0  0
   -2.4260  -10.9810    1.3250 N   0  0  0  0  0  0  0  0  0  0  0  0
   -1.2250  -11.3720    0.9510 C   0  0  0  0  0  0  0  0  0  0  0  0
   -0.8460  -12.6280    0.3280 C   0  0  0  0  0  0  0  0  0  0  0  0
   -1.7940  -13.5840    0.0590 N   0  0  0  0  0  0  0  0  0  0  0  0
   -1.5140  -14.8500   -0.5570 C   0  0  0  0  0  0  0  0  0  0  0  0
   -1.3910  -15.9120    0.5040 C   0  0  0  0  0  0  0  0  0  0  0  0
   -0.1450  -16.4630    0.8240 C   0  0  0  0  0  0  0  0  0  0  0  0
   -0.0860  -17.4550    1.7880 C   0  0  0  0  0  0  0  0  0  0  0  0
   -1.1670  -17.9340    2.4390 N   0  0  0  0  0  0  0  0  0  0  0  0
   -2.3610  -17.4020    2.1060 C   0  0  0  0  0  0  0  0  0  0  0  0
   -2.5230  -16.4060    1.1570 C   0  0  0  0  0  0  0  0  0  0  0  0
    0.4160  -12.8390    0.0260 N   0  0  0  0  0  0  0  0  0  0  0  0
    3.7670  -12.2800    0.9380 C   0  0  0  0  0  0  0  0  0  0  0  0
    9.5210  -12.8020    0.3010 N   0  0  0  0  0  0  0  0  0  0  0  0
   10.7440  -12.2130   -0.0790 C   0  0  0  0  0  0  0  0  0  0  0  0
   11.3150  -11.2970    0.8130 C   0  0  0  0  0  0  0  0  0  0  0  0
   12.5260  -10.6690    0.5160 C   0  0  0  0  0  0  0  0  0  0  0  0
   13.1780  -10.9480   -0.6830 C   0  0  0  0  0  0  0  0  0  0  0  0
   12.6230  -11.8550   -1.5950 C   0  0  0  0  0  0  0  0  0  0  0  0
   13.3200  -12.1810   -2.8920 C   0  0  0  0  0  0  0  0  0  0  0  0
   12.6200  -11.7770   -3.9880 F   0  0  0  0  0  0  0  0  0  0  0  0
   14.5490  -11.5990   -3.0050 F   0  0  0  0  0  0  0  0  0  0  0  0
   13.5310  -13.5180   -3.0500 F   0  0  0  0  0  0  0  0  0  0  0  0
   11.4040  -12.4850   -1.2790 C   0  0  0  0  0  0  0  0  0  0  0  0
    7.5570  -14.0720    0.9630 H   0  0  0  0  0  0  0  0  0  0  0  0
    5.8348  -13.3665    2.4285 H   0  0  0  0  0  0  0  0  0  0  0  0
    6.2936  -11.6511    2.1040 H   0  0  0  0  0  0  0  0  0  0  0  0
    6.4802  -12.9100   -1.0435 H   0  0  0  0  0  0  0  0  0  0  0  0
    4.7353  -12.6782   -2.8059 H   0  0  0  0  0  0  0  0  0  0  0  0
    2.3789  -12.1867   -2.1768 H   0  0  0  0  0  0  0  0  0  0  0  0
    1.8375   -9.9386    1.1070 H   0  0  0  0  0  0  0  0  0  0  0  0
   -0.4268   -8.4405    2.1562 H   0  0  0  0  0  0  0  0  0  0  0  0
   -3.0124   -9.0951    2.2768 H   0  0  0  0  0  0  0  0  0  0  0  0
   -2.7520  -13.3640    0.3160 H   0  0  0  0  0  0  0  0  0  0  0  0
   -2.3323  -15.1118   -1.2439 H   0  0  0  0  0  0  0  0  0  0  0  0
   -0.5700  -14.7826   -1.1176 H   0  0  0  0  0  0  0  0  0  0  0  0
    0.7687  -16.1151    0.3200 H   0  0  0  0  0  0  0  0  0  0  0  0
    0.8986  -17.8771    2.0378 H   0  0  0  0  0  0  0  0  0  0  0  0
   -3.2580  -17.7810    2.6177 H   0  0  0  0  0  0  0  0  0  0  0  0
   -3.5228  -16.0120    0.9223 H   0  0  0  0  0  0  0  0  0  0  0  0
    3.4984  -12.1534    1.9971 H   0  0  0  0  0  0  0  0  0  0  0  0
    9.4390  -13.7950    0.1530 H   0  0  0  0  0  0  0  0  0  0  0  0
   10.8030  -11.0694    1.7596 H   0  0  0  0  0  0  0  0  0  0  0  0
   12.9649   -9.9546    1.2281 H   0  0  0  0  0  0  0  0  0  0  0  0
   14.1330  -10.4538   -0.9147 H   0  0  0  0  0  0  0  0  0  0  0  0
   10.9651  -13.2022   -1.9882 H   0  0  0  0  0  0  0  0  0  0  0  0
  1  2  2  0
  2  3  1  0
  3  4  1  0
  4  5  1  0
  5  6  2  0
  6  7  1  0
  7  8  2  0
  8  9  1  0
  9 10  1  0
 10 11  2  0
 11 12  1  0
 12 13  1  0
 13 14  2  0
 14 15  1  0
 15 16  2  0
 16 17  1  0
 17 18  1  0
 18 19  1  0
 19 20  1  0
 20 21  2  0
 21 22  1  0
 22 23  2  0
 23 24  1  0
 24 25  2  0
 17 26  2  0
  9 27  2  0
  2 28  1  0
 28 29  1  0
 29 30  2  0
 30 31  1  0
 31 32  2  0
 32 33  1  0
 33 34  1  0
 34 35  1  0
 34 36  1  0
 34 37  1  0
 33 38  2  0
 27  5  1  0
 38 29  1  0
 26 10  1  0
 16 12  1  0
 25 20  1  0
  3 39  1  0
  4 40  1  0
  4 41  1  0
  6 42  1  0
  7 43  1  0
  8 44  1  0
 11 45  1  0
 13 46  1  0
 14 47  1  0
 18 48  1  0
 19 49  1  0
 19 50  1  0
 21 51  1  0
 22 52  1  0
 24 53  1  0
 25 54  1  0
 27 55  1  0
 28 56  1  0
 30 57  1  0
 31 58  1  0
 32 59  1  0
 38 60  1  0
M  END
>  <meeko>  (1) 
{"is_sidechain": [false], "free_energy": -9.652, "intermolecular_energy": -13.602, "internal_energy": -0.808}

$$$$
LIB_GKROVQJERPLMAG__M_PUB_ALL__e8__s20260927
     RDKit          3D

 60 64  0  0  0  0  0  0  0  0999 V2000
    7.9540  -11.3800   -0.2380 O   0  0  0  0  0  0  0  0  0  0  0  0
    8.3490  -12.2090    0.5710 C   0  0  0  0  0  0  0  0  0  0  0  0
    7.4830  -12.8790    1.4020 N   0  0  0  0  0  0  0  0  0  0  0  0
    6.0640  -12.6220    1.3510 C   0  0  0  0  0  0  0  0  0  0  0  0
    5.2910  -13.9120    1.3550 C   0  0  0  0  0  0  0  0  0  0  0  0
    5.8370  -15.0730    0.7940 C   0  0  0  0  0  0  0  0  0  0  0  0
    5.0960  -16.2530    0.7570 C   0  0  0  0  0  0  0  0  0  0  0  0
    3.8020  -16.2830    1.2780 C   0  0  0  0  0  0  0  0  0  0  0  0
    3.2320  -15.1380    1.8510 C   0  0  0  0  0  0  0  0  0  0  0  0
    1.8520  -15.1950    2.3860 C   0  0  0  0  0  0  0  0  0  0  0  0
    1.5810  -15.9740    3.4550 C   0  0  0  0  0  0  0  0  0  0  0  0
    0.2830  -16.0180    3.9170 N   0  0  0  0  0  0  0  0  0  0  0  0
   -0.3050  -16.6890    4.9540 C   0  0  0  0  0  0  0  0  0  0  0  0
   -1.6340  -16.3240    4.9060 C   0  0  0  0  0  0  0  0  0  0  0  0
   -1.8780  -15.4520    3.8710 N   0  0  0  0  0  0  0  0  0  0  0  0
   -0.7000  -15.2960    3.3020 C   0  0  0  0  0  0  0  0  0  0  0  0
   -0.3640  -14.4820    2.1470 C   0  0  0  0  0  0  0  0  0  0  0  0
   -1.3350  -13.7530    1.5060 N   0  0  0  0  0  0  0  0  0  0  0  0
   -1.0970  -12.9190    0.3620 C   0  0  0  0  0  0  0  0  0  0  0  0
   -0.9250  -11.4900    0.8050 C   0  0  0  0  0  0  0  0  0  0  0  0
    0.2230  -10.7670    0.4600 C   0  0  0  0  0  0  0  0  0  0  0  0
    0.3480   -9.4650    0.9130 C   0  0  0  0  0  0  0  0  0  0  0  0
   -0.5740   -8.8450    1.6810 N   0  0  0  0  0  0  0  0  0  0  0  0
   -1.6660   -9.5640    2.0170 C   0  0  0  0  0  0  0  0  0  0  0  0
   -1.8820  -10.8710    1.6120 C   0  0  0  0  0  0  0  0  0  0  0  0
    0.8790  -14.4540    1.7210 N   0  0  0  0  0  0  0  0  0  0  0  0
    3.9840  -13.9530    1.8720 C   0  0  0  0  0  0  0  0  0  0  0  0
    9.6510  -12.6040    0.7780 N   0  0  0  0  0  0  0  0  0  0  0  0
   10.8110  -12.1320    0.1310 C   0  0  0  0  0  0  0  0  0  0  0  0
   11.5550  -11.1470    0.7940 C   0  0  0  0  0  0  0  0  0  0  0  0
   12.7190  -10.6260    0.2240 C   0  0  0  0  0  0  0  0  0  0  0  0
   13.1490  -11.0840   -1.0190 C   0  0  0  0  0  0  0  0  0  0  0  0
   12.4180  -12.0630   -1.7040 C   0  0  0  0  0  0  0  0  0  0  0  0
   12.8750  -12.5810   -3.0460 C   0  0  0  0  0  0  0  0  0  0  0  0
   11.8800  -12.6000   -3.9750 F   0  0  0  0  0  0  0  0  0  0  0  0
   13.8780  -11.8390   -3.5960 F   0  0  0  0  0  0  0  0  0  0  0  0
   13.3530  -13.8540   -2.9780 F   0  0  0  0  0  0  0  0  0  0  0  0
   11.2500  -12.5830   -1.1160 C   0  0  0  0  0  0  0  0  0  0  0  0
    7.8290  -13.5150    2.1030 H   0  0  0  0  0  0  0  0  0  0  0  0
    5.7734  -12.0239    2.2273 H   0  0  0  0  0  0  0  0  0  0  0  0
    5.8361  -12.0754    0.4240 H   0  0  0  0  0  0  0  0  0  0  0  0
    6.8561  -15.0537    0.3803 H   0  0  0  0  0  0  0  0  0  0  0  0
    5.5320  -17.1618    0.3165 H   0  0  0  0  0  0  0  0  0  0  0  0
    3.2220  -17.2169    1.2385 H   0  0  0  0  0  0  0  0  0  0  0  0
    2.3747  -16.5578    3.9441 H   0  0  0  0  0  0  0  0  0  0  0  0
    0.1771  -17.3709    5.6699 H   0  0  0  0  0  0  0  0  0  0  0  0
   -2.4015  -16.6846    5.6067 H   0  0  0  0  0  0  0  0  0  0  0  0
   -2.2770  -13.8160    1.8800 H   0  0  0  0  0  0  0  0  0  0  0  0
   -0.1846  -13.2550   -0.1524 H   0  0  0  0  0  0  0  0  0  0  0  0
   -1.9537  -12.9878   -0.3245 H   0  0  0  0  0  0  0  0  0  0  0  0
    1.0096  -11.2241   -0.1584 H   0  0  0  0  0  0  0  0  0  0  0  0
    1.2505   -8.9027    0.6312 H   0  0  0  0  0  0  0  0  0  0  0  0
   -2.4282   -9.0844    2.6488 H   0  0  0  0  0  0  0  0  0  0  0  0
   -2.7896  -11.4108    1.9200 H   0  0  0  0  0  0  0  0  0  0  0  0
    3.5433  -13.0407    2.3003 H   0  0  0  0  0  0  0  0  0  0  0  0
    9.7870  -13.3270    1.4660 H   0  0  0  0  0  0  0  0  0  0  0  0
   11.2185  -10.7797    1.7748 H   0  0  0  0  0  0  0  0  0  0  0  0
   13.2953   -9.8549    0.7562 H   0  0  0  0  0  0  0  0  0  0  0  0
   14.0674  -10.6748   -1.4651 H   0  0  0  0  0  0  0  0  0  0  0  0
   10.6743  -13.3560   -1.6462 H   0  0  0  0  0  0  0  0  0  0  0  0
  1  2  2  0
  2  3  1  0
  3  4  1  0
  4  5  1  0
  5  6  2  0
  6  7  1  0
  7  8  2  0
  8  9  1  0
  9 10  1  0
 10 11  2  0
 11 12  1  0
 12 13  1  0
 13 14  2  0
 14 15  1  0
 15 16  2  0
 16 17  1  0
 17 18  1  0
 18 19  1  0
 19 20  1  0
 20 21  2  0
 21 22  1  0
 22 23  2  0
 23 24  1  0
 24 25  2  0
 17 26  2  0
  9 27  2  0
  2 28  1  0
 28 29  1  0
 29 30  2  0
 30 31  1  0
 31 32  2  0
 32 33  1  0
 33 34  1  0
 34 35  1  0
 34 36  1  0
 34 37  1  0
 33 38  2  0
 27  5  1  0
 38 29  1  0
 26 10  1  0
 16 12  1  0
 25 20  1  0
  3 39  1  0
  4 40  1  0
  4 41  1  0
  6 42  1  0
  7 43  1  0
  8 44  1  0
 11 45  1  0
 13 46  1  0
 14 47  1  0
 18 48  1  0
 19 49  1  0
 19 50  1  0
 21 51  1  0
 22 52  1  0
 24 53  1  0
 25 54  1  0
 27 55  1  0
 28 56  1  0
 30 57  1  0
 31 58  1  0
 32 59  1  0
 38 60  1  0
M  END
>  <meeko>  (2) 
{"is_sidechain": [false], "free_energy": -9.517, "intermolecular_energy": -13.029, "internal_energy": -1.19}

$$$$
LIB_GKROVQJERPLMAG__M_PUB_ALL__e8__s20260927
     RDKit          3D

 60 64  0  0  0  0  0  0  0  0999 V2000
    7.2990  -14.0730   -3.3710 O   0  0  0  0  0  0  0  0  0  0  0  0
    7.5050  -13.0260   -3.9700 C   0  0  0  0  0  0  0  0  0  0  0  0
    6.5560  -12.4610   -4.7890 N   0  0  0  0  0  0  0  0  0  0  0  0
    5.2720  -13.0930   -4.9740 C   0  0  0  0  0  0  0  0  0  0  0  0
    4.2140  -12.3870   -4.1710 C   0  0  0  0  0  0  0  0  0  0  0  0
    3.7100  -11.1490   -4.5880 C   0  0  0  0  0  0  0  0  0  0  0  0
    2.7650  -10.4770   -3.8140 C   0  0  0  0  0  0  0  0  0  0  0  0
    2.3180  -11.0350   -2.6150 C   0  0  0  0  0  0  0  0  0  0  0  0
    2.8010  -12.2750   -2.1760 C   0  0  0  0  0  0  0  0  0  0  0  0
    2.3180  -12.8380   -0.8940 C   0  0  0  0  0  0  0  0  0  0  0  0
    2.8830  -13.9600   -0.4020 C   0  0  0  0  0  0  0  0  0  0  0  0
    2.3990  -14.4670    0.7850 N   0  0  0  0  0  0  0  0  0  0  0  0
    2.7460  -15.5590    1.5330 C   0  0  0  0  0  0  0  0  0  0  0  0
    1.8930  -15.5350    2.6170 C   0  0  0  0  0  0  0  0  0  0  0  0
    1.0330  -14.4640    2.5530 N   0  0  0  0  0  0  0  0  0  0  0  0
    1.3700  -13.8490    1.4380 C   0  0  0  0  0  0  0  0  0  0  0  0
    0.7840  -12.6510    0.8640 C   0  0  0  0  0  0  0  0  0  0  0  0
   -0.2560  -12.0160    1.4950 N   0  0  0  0  0  0  0  0  0  0  0  0
   -0.8940  -10.8260    1.0060 C   0  0  0  0  0  0  0  0  0  0  0  0
   -2.2980  -11.1510    0.5660 C   0  0  0  0  0  0  0  0  0  0  0  0
   -2.9220  -12.3330    0.9790 C   0  0  0  0  0  0  0  0  0  0  0  0
   -4.2040  -12.6000    0.5270 C   0  0  0  0  0  0  0  0  0  0  0  0
   -4.8930  -11.7860   -0.3000 N   0  0  0  0  0  0  0  0  0  0  0  0
   -4.2690  -10.6580   -0.7000 C   0  0  0  0  0  0  0  0  0  0  0  0
   -2.9900  -10.3040   -0.3030 C   0  0  0  0  0  0  0  0  0  0  0  0
    1.2600  -12.1840   -0.2690 N   0  0  0  0  0  0  0  0  0  0  0  0
    3.7610  -12.9360   -2.9590 C   0  0  0  0  0  0  0  0  0  0  0  0
    8.6520  -12.2650   -3.9310 N   0  0  0  0  0  0  0  0  0  0  0  0
    9.8400  -12.5280   -3.2200 C   0  0  0  0  0  0  0  0  0  0  0  0
   10.8940  -13.1130   -3.9330 C   0  0  0  0  0  0  0  0  0  0  0  0
   12.1060  -13.4050   -3.3050 C   0  0  0  0  0  0  0  0  0  0  0  0
   12.2770  -13.1170   -1.9540 C   0  0  0  0  0  0  0  0  0  0  0  0
   11.2350  -12.5380   -1.2180 C   0  0  0  0  0  0  0  0  0  0  0  0
   11.4040  -12.2060    0.2440 C   0  0  0  0  0  0  0  0  0  0  0  0
   10.2230  -11.9440    0.8700 F   0  0  0  0  0  0  0  0  0  0  0  0
   11.9850  -13.2110    0.9610 F   0  0  0  0  0  0  0  0  0  0  0  0
   12.1890  -11.1110    0.4430 F   0  0  0  0  0  0  0  0  0  0  0  0
   10.0190  -12.2440   -1.8640 C   0  0  0  0  0  0  0  0  0  0  0  0
    6.7620  -11.6310   -5.3210 H   0  0  0  0  0  0  0  0  0  0  0  0
    5.0014  -13.0568   -6.0396 H   0  0  0  0  0  0  0  0  0  0  0  0
    5.3381  -14.1369   -4.6335 H   0  0  0  0  0  0  0  0  0  0  0  0
    4.0614  -10.7045   -5.5308 H   0  0  0  0  0  0  0  0  0  0  0  0
    2.3711   -9.5059   -4.1485 H   0  0  0  0  0  0  0  0  0  0  0  0
    1.5774  -10.4945   -2.0072 H   0  0  0  0  0  0  0  0  0  0  0  0
    3.7078  -14.4569   -0.9338 H   0  0  0  0  0  0  0  0  0  0  0  0
    3.5337  -16.2957    1.3170 H   0  0  0  0  0  0  0  0  0  0  0  0
    1.9000  -16.2775    3.4286 H   0  0  0  0  0  0  0  0  0  0  0  0
   -0.5820  -12.4240    2.3660 H   0  0  0  0  0  0  0  0  0  0  0  0
   -0.9262  -10.0723    1.8065 H   0  0  0  0  0  0  0  0  0  0  0  0
   -0.3251  -10.4307    0.1515 H   0  0  0  0  0  0  0  0  0  0  0  0
   -2.4053  -13.0360    1.6489 H   0  0  0  0  0  0  0  0  0  0  0  0
   -4.6884  -13.5292    0.8615 H   0  0  0  0  0  0  0  0  0  0  0  0
   -4.8069   -9.9811   -1.3801 H   0  0  0  0  0  0  0  0  0  0  0  0
   -2.5281   -9.3737   -0.6651 H   0  0  0  0  0  0  0  0  0  0  0  0
    4.1656  -13.9003   -2.6179 H   0  0  0  0  0  0  0  0  0  0  0  0
    8.6310  -11.4110   -4.4650 H   0  0  0  0  0  0  0  0  0  0  0  0
   10.7652  -13.3451   -5.0005 H   0  0  0  0  0  0  0  0  0  0  0  0
   12.9260  -13.8627   -3.8778 H   0  0  0  0  0  0  0  0  0  0  0  0
   13.2342  -13.3449   -1.4622 H   0  0  0  0  0  0  0  0  0  0  0  0
    9.1987  -11.7844   -1.2931 H   0  0  0  0  0  0  0  0  0  0  0  0
  1  2  2  0
  2  3  1  0
  3  4  1  0
  4  5  1  0
  5  6  2  0
  6  7  1  0
  7  8  2  0
  8  9  1  0
  9 10  1  0
 10 11  2  0
 11 12  1  0
 12 13  1  0
 13 14  2  0
 14 15  1  0
 15 16  2  0
 16 17  1  0
 17 18  1  0
 18 19  1  0
 19 20  1  0
 20 21  2  0
 21 22  1  0
 22 23  2  0
 23 24  1  0
 24 25  2  0
 17 26  2  0
  9 27  2  0
  2 28  1  0
 28 29  1  0
 29 30  2  0
 30 31  1  0
 31 32  2  0
 32 33  1  0
 33 34  1  0
 34 35  1  0
 34 36  1  0
 34 37  1  0
 33 38  2  0
 27  5  1  0
 38 29  1  0
 26 10  1  0
 16 12  1  0
 25 20  1  0
  3 39  1  0
  4 40  1  0
  4 41  1  0
  6 42  1  0
  7 43  1  0
  8 44  1  0
 11 45  1  0
 13 46  1  0
 14 47  1  0
 18 48  1  0
 19 49  1  0
 19 50  1  0
 21 51  1  0
 22 52  1  0
 24 53  1  0
 25 54  1  0
 27 55  1  0
 28 56  1  0
 30 57  1  0
 31 58  1  0
 32 59  1  0
 38 60  1  0
M  END
>  <meeko>  (3) 
{"is_sidechain": [false], "free_energy": -9.51, "intermolecular_energy": -12.941, "internal_energy": -1.269}

$$$$
LIB_GKROVQJERPLMAG__M_PUB_ALL__e8__s20260927
     RDKit          3D

 60 64  0  0  0  0  0  0  0  0999 V2000
    4.9380  -15.0170   -5.2640 O   0  0  0  0  0  0  0  0  0  0  0  0
    5.6130  -13.9980   -5.1960 C   0  0  0  0  0  0  0  0  0  0  0  0
    5.5560  -13.1640   -4.1050 N   0  0  0  0  0  0  0  0  0  0  0  0
    4.6880  -13.4620   -2.9920 C   0  0  0  0  0  0  0  0  0  0  0  0
    3.6480  -12.3880   -2.8280 C   0  0  0  0  0  0  0  0  0  0  0  0
    3.5150  -11.3720   -3.7830 C   0  0  0  0  0  0  0  0  0  0  0  0
    2.5830  -10.3520   -3.6000 C   0  0  0  0  0  0  0  0  0  0  0  0
    1.7780  -10.3360   -2.4600 C   0  0  0  0  0  0  0  0  0  0  0  0
    1.8850  -11.3420   -1.4910 C   0  0  0  0  0  0  0  0  0  0  0  0
    1.0260  -11.2940   -0.2850 C   0  0  0  0  0  0  0  0  0  0  0  0
    0.2880  -10.1920   -0.0350 C   0  0  0  0  0  0  0  0  0  0  0  0
   -0.4880  -10.1720    1.1040 N   0  0  0  0  0  0  0  0  0  0  0  0
   -1.3320   -9.2330    1.6310 C   0  0  0  0  0  0  0  0  0  0  0  0
   -1.8170   -9.7990    2.7910 C   0  0  0  0  0  0  0  0  0  0  0  0
   -1.2930  -11.0550    2.9920 N   0  0  0  0  0  0  0  0  0  0  0  0
   -0.5000  -11.2400    1.9570 C   0  0  0  0  0  0  0  0  0  0  0  0
    0.3220  -12.3980    1.6540 C   0  0  0  0  0  0  0  0  0  0  0  0
    0.3340  -13.4800    2.4990 N   0  0  0  0  0  0  0  0  0  0  0  0
    1.1100  -14.6680    2.2800 C   0  0  0  0  0  0  0  0  0  0  0  0
    0.2370  -15.8820    2.4620 C   0  0  0  0  0  0  0  0  0  0  0  0
    0.3840  -16.7080    3.5810 C   0  0  0  0  0  0  0  0  0  0  0  0
   -0.4240  -17.8280    3.6910 C   0  0  0  0  0  0  0  0  0  0  0  0
   -1.3490  -18.1790    2.7730 N   0  0  0  0  0  0  0  0  0  0  0  0
   -1.4650  -17.3790    1.6920 C   0  0  0  0  0  0  0  0  0  0  0  0
   -0.7040  -16.2390    1.4920 C   0  0  0  0  0  0  0  0  0  0  0  0
    1.0540  -12.3980    0.5630 N   0  0  0  0  0  0  0  0  0  0  0  0
    2.8360  -12.3580   -1.6810 C   0  0  0  0  0  0  0  0  0  0  0  0
    6.5030  -13.5340   -6.1380 N   0  0  0  0  0  0  0  0  0  0  0  0
    6.8150  -14.1070   -7.3870 C   0  0  0  0  0  0  0  0  0  0  0  0
    7.3430  -15.4040   -7.3790 C   0  0  0  0  0  0  0  0  0  0  0  0
    7.6780  -16.0470   -8.5730 C   0  0  0  0  0  0  0  0  0  0  0  0
    7.4920  -15.3950   -9.7900 C   0  0  0  0  0  0  0  0  0  0  0  0
    6.9710  -14.0950   -9.8230 C   0  0  0  0  0  0  0  0  0  0  0  0
    6.7500  -13.3770  -11.1310 C   0  0  0  0  0  0  0  0  0  0  0  0
    7.7320  -13.6170  -12.0420 F   0  0  0  0  0  0  0  0  0  0  0  0
    5.5830  -13.7270  -11.7460 F   0  0  0  0  0  0  0  0  0  0  0  0
    6.6950  -12.0250  -10.9810 F   0  0  0  0  0  0  0  0  0  0  0  0
    6.6330  -13.4610   -8.6120 C   0  0  0  0  0  0  0  0  0  0  0  0
    6.0740  -12.2990   -4.0890 H   0  0  0  0  0  0  0  0  0  0  0  0
    4.1877  -14.4250   -3.1717 H   0  0  0  0  0  0  0  0  0  0  0  0
    5.2929  -13.5122   -2.0747 H   0  0  0  0  0  0  0  0  0  0  0  0
    4.1492  -11.3792   -4.6818 H   0  0  0  0  0  0  0  0  0  0  0  0
    2.4818   -9.5585   -4.3551 H   0  0  0  0  0  0  0  0  0  0  0  0
    1.0502   -9.5231   -2.3206 H   0  0  0  0  0  0  0  0  0  0  0  0
    0.3053   -9.3329   -0.7218 H   0  0  0  0  0  0  0  0  0  0  0  0
   -1.5716   -8.2417    1.2188 H   0  0  0  0  0  0  0  0  0  0  0  0
   -2.5314   -9.3090    3.4689 H   0  0  0  0  0  0  0  0  0  0  0  0
   -0.2520  -13.4220    3.3270 H   0  0  0  0  0  0  0  0  0  0  0  0
    1.5144  -14.6578    1.2571 H   0  0  0  0  0  0  0  0  0  0  0  0
    1.9384  -14.7019    3.0029 H   0  0  0  0  0  0  0  0  0  0  0  0
    1.1262  -16.4731    4.3581 H   0  0  0  0  0  0  0  0  0  0  0  0
   -0.3048  -18.4681    4.5776 H   0  0  0  0  0  0  0  0  0  0  0  0
   -2.2068  -17.6479    0.9255 H   0  0  0  0  0  0  0  0  0  0  0  0
   -0.8375  -15.6269    0.5879 H   0  0  0  0  0  0  0  0  0  0  0  0
    2.9473  -13.1437   -0.9192 H   0  0  0  0  0  0  0  0  0  0  0  0
    6.9980  -12.6910   -5.8970 H   0  0  0  0  0  0  0  0  0  0  0  0
    7.4958  -15.9226   -6.4211 H   0  0  0  0  0  0  0  0  0  0  0  0
    8.0884  -17.0674   -8.5523 H   0  0  0  0  0  0  0  0  0  0  0  0
    7.7554  -15.9033  -10.7293 H   0  0  0  0  0  0  0  0  0  0  0  0
    6.2195  -12.4419   -8.6310 H   0  0  0  0  0  0  0  0  0  0  0  0
  1  2  2  0
  2  3  1  0
  3  4  1  0
  4  5  1  0
  5  6  2  0
  6  7  1  0
  7  8  2  0
  8  9  1  0
  9 10  1  0
 10 11  2  0
 11 12  1  0
 12 13  1  0
 13 14  2  0
 14 15  1  0
 15 16  2  0
 16 17  1  0
 17 18  1  0
 18 19  1  0
 19 20  1  0
 20 21  2  0
 21 22  1  0
 22 23  2  0
 23 24  1  0
 24 25  2  0
 17 26  2  0
  9 27  2  0
  2 28  1  0
 28 29  1  0
 29 30  2  0
 30 31  1  0
 31 32  2  0
 32 33  1  0
 33 34  1  0
 34 35  1  0
 34 36  1  0
 34 37  1  0
 33 38  2  0
 27  5  1  0
 38 29  1  0
 26 10  1  0
 16 12  1  0
 25 20  1  0
  3 39  1  0
  4 40  1  0
  4 41  1  0
  6 42  1  0
  7 43  1  0
  8 44  1  0
 11 45  1  0
 13 46  1  0
 14 47  1  0
 18 48  1  0
 19 49  1  0
 19 50  1  0
 21 51  1  0
 22 52  1  0
 24 53  1  0
 25 54  1  0
 27 55  1  0
 28 56  1  0
 30 57  1  0
 31 58  1  0
 32 59  1  0
 38 60  1  0
M  END
>  <meeko>  (4) 
{"is_sidechain": [false], "free_energy": -9.32, "intermolecular_energy": -12.993, "internal_energy": -0.949}

$$$$
LIB_GKROVQJERPLMAG__M_PUB_ALL__e8__s20260927
     RDKit          3D

 60 64  0  0  0  0  0  0  0  0999 V2000
    8.2160  -13.3310    0.2980 O   0  0  0  0  0  0  0  0  0  0  0  0
    8.0830  -12.1140    0.3250 C   0  0  0  0  0  0  0  0  0  0  0  0
    9.0760  -11.2890    0.7960 N   0  0  0  0  0  0  0  0  0  0  0  0
   10.3210  -11.8340    1.2830 C   0  0  0  0  0  0  0  0  0  0  0  0
   11.3900  -11.7350    0.2300 C   0  0  0  0  0  0  0  0  0  0  0  0
   12.4780  -10.8700    0.3980 C   0  0  0  0  0  0  0  0  0  0  0  0
   13.4400  -10.7460   -0.6030 C   0  0  0  0  0  0  0  0  0  0  0  0
   13.3220  -11.4840   -1.7810 C   0  0  0  0  0  0  0  0  0  0  0  0
   12.2470  -12.3630   -1.9740 C   0  0  0  0  0  0  0  0  0  0  0  0
   12.1410  -13.1250   -3.2400 C   0  0  0  0  0  0  0  0  0  0  0  0
   13.2600  -13.5740   -3.8450 C   0  0  0  0  0  0  0  0  0  0  0  0
   13.1280  -14.2650   -5.0310 N   0  0  0  0  0  0  0  0  0  0  0  0
   14.0410  -14.8400   -5.8710 C   0  0  0  0  0  0  0  0  0  0  0  0
   13.2930  -15.3830   -6.8940 C   0  0  0  0  0  0  0  0  0  0  0  0
   11.9490  -15.1560   -6.7070 N   0  0  0  0  0  0  0  0  0  0  0  0
   11.8940  -14.4810   -5.5770 C   0  0  0  0  0  0  0  0  0  0  0  0
   10.7190  -13.9670   -4.8970 C   0  0  0  0  0  0  0  0  0  0  0  0
    9.4680  -14.1620   -5.4290 N   0  0  0  0  0  0  0  0  0  0  0  0
    8.2510  -13.6950   -4.8270 C   0  0  0  0  0  0  0  0  0  0  0  0
    7.3050  -14.8520   -4.6370 C   0  0  0  0  0  0  0  0  0  0  0  0
    7.0000  -15.3240   -3.3560 C   0  0  0  0  0  0  0  0  0  0  0  0
    6.1450  -16.4070   -3.2340 C   0  0  0  0  0  0  0  0  0  0  0  0
    5.5890  -17.0460   -4.2850 N   0  0  0  0  0  0  0  0  0  0  0  0
    5.9070  -16.5870   -5.5130 C   0  0  0  0  0  0  0  0  0  0  0  0
    6.7510  -15.5110   -5.7380 C   0  0  0  0  0  0  0  0  0  0  0  0
   10.8660  -13.3100   -3.7680 N   0  0  0  0  0  0  0  0  0  0  0  0
   11.2790  -12.4690   -0.9630 C   0  0  0  0  0  0  0  0  0  0  0  0
    6.9870  -11.3940   -0.0920 N   0  0  0  0  0  0  0  0  0  0  0  0
    5.7760  -11.8900   -0.6160 C   0  0  0  0  0  0  0  0  0  0  0  0
    4.7570  -12.1830    0.3000 C   0  0  0  0  0  0  0  0  0  0  0  0
    3.5250  -12.6760   -0.1350 C   0  0  0  0  0  0  0  0  0  0  0  0
    3.2990  -12.8840   -1.4930 C   0  0  0  0  0  0  0  0  0  0  0  0
    4.3050  -12.6050   -2.4280 C   0  0  0  0  0  0  0  0  0  0  0  0
    4.0770  -12.8120   -3.9050 C   0  0  0  0  0  0  0  0  0  0  0  0
    2.9750  -12.1590   -4.3680 F   0  0  0  0  0  0  0  0  0  0  0  0
    5.1140  -12.3770   -4.6760 F   0  0  0  0  0  0  0  0  0  0  0  0
    3.9020  -14.1230   -4.2270 F   0  0  0  0  0  0  0  0  0  0  0  0
    5.5410  -12.1040   -1.9760 C   0  0  0  0  0  0  0  0  0  0  0  0
    8.9300  -10.2940    0.8670 H   0  0  0  0  0  0  0  0  0  0  0  0
   10.6379  -11.2718    2.1738 H   0  0  0  0  0  0  0  0  0  0  0  0
   10.1694  -12.8937    1.5359 H   0  0  0  0  0  0  0  0  0  0  0  0
   12.5741  -10.2852    1.3247 H   0  0  0  0  0  0  0  0  0  0  0  0
   14.2931  -10.0656   -0.4640 H   0  0  0  0  0  0  0  0  0  0  0  0
   14.0822  -11.3748   -2.5685 H   0  0  0  0  0  0  0  0  0  0  0  0
   14.2514  -13.3937   -3.4040 H   0  0  0  0  0  0  0  0  0  0  0  0
   15.1347  -14.8641   -5.7556 H   0  0  0  0  0  0  0  0  0  0  0  0
   13.7167  -15.9281   -7.7504 H   0  0  0  0  0  0  0  0  0  0  0  0
    9.4180  -14.6760   -6.3030 H   0  0  0  0  0  0  0  0  0  0  0  0
    8.4761  -13.2419   -3.8502 H   0  0  0  0  0  0  0  0  0  0  0  0
    7.7838  -12.9448   -5.4819 H   0  0  0  0  0  0  0  0  0  0  0  0
    7.4302  -14.8451   -2.4641 H   0  0  0  0  0  0  0  0  0  0  0  0
    5.9054  -16.7670   -2.2226 H   0  0  0  0  0  0  0  0  0  0  0  0
    5.4715  -17.0958   -6.3856 H   0  0  0  0  0  0  0  0  0  0  0  0
    6.9802  -15.1823   -6.7624 H   0  0  0  0  0  0  0  0  0  0  0  0
   10.4183  -13.1386   -1.1072 H   0  0  0  0  0  0  0  0  0  0  0  0
    7.0680  -10.3930   -0.0270 H   0  0  0  0  0  0  0  0  0  0  0  0
    4.9295  -12.0228    1.3745 H   0  0  0  0  0  0  0  0  0  0  0  0
    2.7333  -12.9000    0.5951 H   0  0  0  0  0  0  0  0  0  0  0  0
    2.3265  -13.2690   -1.8335 H   0  0  0  0  0  0  0  0  0  0  0  0
    6.3332  -11.8778   -2.7049 H   0  0  0  0  0  0  0  0  0  0  0  0
  1  2  2  0
  2  3  1  0
  3  4  1  0
  4  5  1  0
  5  6  2  0
  6  7  1  0
  7  8  2  0
  8  9  1  0
  9 10  1  0
 10 11  2  0
 11 12  1  0
 12 13  1  0
 13 14  2  0
 14 15  1  0
 15 16  2  0
 16 17  1  0
 17 18  1  0
 18 19  1  0
 19 20  1  0
 20 21  2  0
 21 22  1  0
 22 23  2  0
 23 24  1  0
 24 25  2  0
 17 26  2  0
  9 27  2  0
  2 28  1  0
 28 29  1  0
 29 30  2  0
 30 31  1  0
 31 32  2  0
 32 33  1  0
 33 34  1  0
 34 35  1  0
 34 36  1  0
 34 37  1  0
 33 38  2  0
 27  5  1  0
 38 29  1  0
 26 10  1  0
 16 12  1  0
 25 20  1  0
  3 39  1  0
  4 40  1  0
  4 41  1  0
  6 42  1  0
  7 43  1  0
  8 44  1  0
 11 45  1  0
 13 46  1  0
 14 47  1  0
 18 48  1  0
 19 49  1  0
 19 50  1  0
 21 51  1  0
 22 52  1  0
 24 53  1  0
 25 54  1  0
 27 55  1  0
 28 56  1  0
 30 57  1  0
 31 58  1  0
 32 59  1  0
 38 60  1  0
M  END
>  <meeko>  (5) 
{"is_sidechain": [false], "free_energy": -9.268, "intermolecular_energy": -11.375, "internal_energy": -2.494}

$$$$
LIB_GKROVQJERPLMAG__M_PUB_ALL__e8__s20260927
     RDKit          3D

 60 64  0  0  0  0  0  0  0  0999 V2000
    5.8120  -12.1430   -7.8060 O   0  0  0  0  0  0  0  0  0  0  0  0
    6.2680  -13.1820   -7.3470 C   0  0  0  0  0  0  0  0  0  0  0  0
    6.7940  -14.1610   -8.1550 N   0  0  0  0  0  0  0  0  0  0  0  0
    6.8250  -13.9970   -9.5880 C   0  0  0  0  0  0  0  0  0  0  0  0
    8.1470  -13.4330  -10.0300 C   0  0  0  0  0  0  0  0  0  0  0  0
    8.2130  -12.5020  -11.0730 C   0  0  0  0  0  0  0  0  0  0  0  0
    9.4460  -12.0200  -11.5100 C   0  0  0  0  0  0  0  0  0  0  0  0
   10.6240  -12.4670  -10.9100 C   0  0  0  0  0  0  0  0  0  0  0  0
   10.5880  -13.3940   -9.8600 C   0  0  0  0  0  0  0  0  0  0  0  0
   11.8550  -13.8600   -9.2490 C   0  0  0  0  0  0  0  0  0  0  0  0
   12.9190  -14.1240  -10.0370 C   0  0  0  0  0  0  0  0  0  0  0  0
   14.0770  -14.5710   -9.4390 N   0  0  0  0  0  0  0  0  0  0  0  0
   15.3020  -14.9170   -9.9410 C   0  0  0  0  0  0  0  0  0  0  0  0
   16.0480  -15.2860   -8.8420 C   0  0  0  0  0  0  0  0  0  0  0  0
   15.3170  -15.1780   -7.6820 N   0  0  0  0  0  0  0  0  0  0  0  0
   14.1390  -14.7470   -8.0850 C   0  0  0  0  0  0  0  0  0  0  0  0
   12.9650  -14.4630   -7.2790 C   0  0  0  0  0  0  0  0  0  0  0  0
   12.9980  -14.6390   -5.9180 N   0  0  0  0  0  0  0  0  0  0  0  0
   11.8910  -14.3810   -5.0420 C   0  0  0  0  0  0  0  0  0  0  0  0
   12.2930  -13.3640   -4.0060 C   0  0  0  0  0  0  0  0  0  0  0  0
   11.4460  -13.0630   -2.9330 C   0  0  0  0  0  0  0  0  0  0  0  0
   11.8490  -12.1020   -2.0200 C   0  0  0  0  0  0  0  0  0  0  0  0
   13.0140  -11.4260   -2.1060 N   0  0  0  0  0  0  0  0  0  0  0  0
   13.8100  -11.7190   -3.1560 C   0  0  0  0  0  0  0  0  0  0  0  0
   13.4960  -12.6640   -4.1200 C   0  0  0  0  0  0  0  0  0  0  0  0
   11.8700  -14.0370   -7.8680 N   0  0  0  0  0  0  0  0  0  0  0  0
    9.3410  -13.8800   -9.4370 C   0  0  0  0  0  0  0  0  0  0  0  0
    6.3390  -13.5350   -6.0180 N   0  0  0  0  0  0  0  0  0  0  0  0
    5.8880  -12.8000   -4.9030 C   0  0  0  0  0  0  0  0  0  0  0  0
    6.8440  -12.4500   -3.9410 C   0  0  0  0  0  0  0  0  0  0  0  0
    6.4820  -11.7200   -2.8060 C   0  0  0  0  0  0  0  0  0  0  0  0
    5.1570  -11.3340   -2.6210 C   0  0  0  0  0  0  0  0  0  0  0  0
    4.1820  -11.6780   -3.5670 C   0  0  0  0  0  0  0  0  0  0  0  0
    2.7430  -11.2580   -3.3910 C   0  0  0  0  0  0  0  0  0  0  0  0
    2.5630   -9.9140   -3.5140 F   0  0  0  0  0  0  0  0  0  0  0  0
    1.9010  -11.8270   -4.3010 F   0  0  0  0  0  0  0  0  0  0  0  0
    2.2470  -11.5960   -2.1690 F   0  0  0  0  0  0  0  0  0  0  0  0
    4.5610  -12.4100   -4.7080 C   0  0  0  0  0  0  0  0  0  0  0  0
    7.1120  -15.0350   -7.7670 H   0  0  0  0  0  0  0  0  0  0  0  0
    6.6716  -14.9754  -10.0668 H   0  0  0  0  0  0  0  0  0  0  0  0
    6.0269  -13.2991   -9.8814 H   0  0  0  0  0  0  0  0  0  0  0  0
    7.2871  -12.1488  -11.5504 H   0  0  0  0  0  0  0  0  0  0  0  0
    9.4904  -11.2866  -12.3286 H   0  0  0  0  0  0  0  0  0  0  0  0
   11.5929  -12.0868  -11.2659 H   0  0  0  0  0  0  0  0  0  0  0  0
   12.8629  -13.9860  -11.1269 H   0  0  0  0  0  0  0  0  0  0  0  0
   15.6221  -14.9036  -10.9933 H   0  0  0  0  0  0  0  0  0  0  0  0
   17.0939  -15.6236   -8.8871 H   0  0  0  0  0  0  0  0  0  0  0  0
   13.8720  -14.9710   -5.5210 H   0  0  0  0  0  0  0  0  0  0  0  0
   11.0441  -13.9928   -5.6268 H   0  0  0  0  0  0  0  0  0  0  0  0
   11.5955  -15.3150   -4.5417 H   0  0  0  0  0  0  0  0  0  0  0  0
   10.4811  -13.5784   -2.8172 H   0  0  0  0  0  0  0  0  0  0  0  0
   11.1806  -11.8769   -1.1759 H   0  0  0  0  0  0  0  0  0  0  0  0
   14.7623  -11.1768   -3.2521 H   0  0  0  0  0  0  0  0  0  0  0  0
   14.1809  -12.8588   -4.9584 H   0  0  0  0  0  0  0  0  0  0  0  0
    9.2971  -14.6235   -8.6275 H   0  0  0  0  0  0  0  0  0  0  0  0
    6.7800  -14.4190   -5.8220 H   0  0  0  0  0  0  0  0  0  0  0  0
    7.8921  -12.7534   -4.0807 H   0  0  0  0  0  0  0  0  0  0  0  0
    7.2432  -11.4504   -2.0591 H   0  0  0  0  0  0  0  0  0  0  0  0
    4.8744  -10.7565   -1.7284 H   0  0  0  0  0  0  0  0  0  0  0  0
    3.8013  -12.6787   -5.4568 H   0  0  0  0  0  0  0  0  0  0  0  0
  1  2  2  0
  2  3  1  0
  3  4  1  0
  4  5  1  0
  5  6  2  0
  6  7  1  0
  7  8  2  0
  8  9  1  0
  9 10  1  0
 10 11  2  0
 11 12  1  0
 12 13  1  0
 13 14  2  0
 14 15  1  0
 15 16  2  0
 16 17  1  0
 17 18  1  0
 18 19  1  0
 19 20  1  0
 20 21  2  0
 21 22  1  0
 22 23  2  0
 23 24  1  0
 24 25  2  0
 17 26  2  0
  9 27  2  0
  2 28  1  0
 28 29  1  0
 29 30  2  0
 30 31  1  0
 31 32  2  0
 32 33  1  0
 33 34  1  0
 34 35  1  0
 34 36  1  0
 34 37  1  0
 33 38  2  0
 27  5  1  0
 38 29  1  0
 26 10  1  0
 16 12  1  0
 25 20  1  0
  3 39  1  0
  4 40  1  0
  4 41  1  0
  6 42  1  0
  7 43  1  0
  8 44  1  0
 11 45  1  0
 13 46  1  0
 14 47  1  0
 18 48  1  0
 19 49  1  0
 19 50  1  0
 21 51  1  0
 22 52  1  0
 24 53  1  0
 25 54  1  0
 27 55  1  0
 28 56  1  0
 30 57  1  0
 31 58  1  0
 32 59  1  0
 38 60  1  0
M  END
>  <meeko>  (6) 
{"is_sidechain": [false], "free_energy": -9.259, "intermolecular_energy": -12.474, "internal_energy": -1.382}

$$$$
LIB_GKROVQJERPLMAG__M_PUB_ALL__e8__s20260927
     RDKit          3D

 60 64  0  0  0  0  0  0  0  0999 V2000
    8.6020  -13.8160   -2.3300 O   0  0  0  0  0  0  0  0  0  0  0  0
    8.6960  -12.6510   -1.9690 C   0  0  0  0  0  0  0  0  0  0  0  0
    9.8230  -12.1760   -1.3410 N   0  0  0  0  0  0  0  0  0  0  0  0
   10.9450  -13.0460   -1.0810 C   0  0  0  0  0  0  0  0  0  0  0  0
   12.0400  -12.8130   -2.0850 C   0  0  0  0  0  0  0  0  0  0  0  0
   13.0210  -11.8400   -1.8560 C   0  0  0  0  0  0  0  0  0  0  0  0
   14.0050  -11.5950   -2.8120 C   0  0  0  0  0  0  0  0  0  0  0  0
   14.0160  -12.3170   -4.0070 C   0  0  0  0  0  0  0  0  0  0  0  0
   13.0500  -13.3010   -4.2600 C   0  0  0  0  0  0  0  0  0  0  0  0
   13.0790  -14.0440   -5.5410 C   0  0  0  0  0  0  0  0  0  0  0  0
   14.2510  -14.5170   -6.0130 C   0  0  0  0  0  0  0  0  0  0  0  0
   14.2460  -15.1890   -7.2160 N   0  0  0  0  0  0  0  0  0  0  0  0
   15.2390  -15.7790   -7.9490 C   0  0  0  0  0  0  0  0  0  0  0  0
   14.6060  -16.2890   -9.0630 C   0  0  0  0  0  0  0  0  0  0  0  0
   13.2560  -16.0260   -9.0360 N   0  0  0  0  0  0  0  0  0  0  0  0
   13.0820  -15.3640   -7.9110 C   0  0  0  0  0  0  0  0  0  0  0  0
   11.8460  -14.8260   -7.3710 C   0  0  0  0  0  0  0  0  0  0  0  0
   10.6650  -14.9800   -8.0530 N   0  0  0  0  0  0  0  0  0  0  0  0
    9.3970  -14.4870   -7.5950 C   0  0  0  0  0  0  0  0  0  0  0  0
    8.5950  -13.9880   -8.7690 C   0  0  0  0  0  0  0  0  0  0  0  0
    7.2490  -14.3390   -8.9170 C   0  0  0  0  0  0  0  0  0  0  0  0
    6.5610  -13.8780  -10.0270 C   0  0  0  0  0  0  0  0  0  0  0  0
    7.1160  -13.1100  -10.9880 N   0  0  0  0  0  0  0  0  0  0  0  0
    8.4190  -12.7950  -10.8370 C   0  0  0  0  0  0  0  0  0  0  0  0
    9.1910  -13.2070   -9.7620 C   0  0  0  0  0  0  0  0  0  0  0  0
   11.8730  -14.1870   -6.2210 N   0  0  0  0  0  0  0  0  0  0  0  0
   12.0570  -13.5300   -3.2940 C   0  0  0  0  0  0  0  0  0  0  0  0
    7.7520  -11.6610   -2.1210 N   0  0  0  0  0  0  0  0  0  0  0  0
    6.4710  -11.7700   -2.7000 C   0  0  0  0  0  0  0  0  0  0  0  0
    5.3730  -11.7300   -1.8320 C   0  0  0  0  0  0  0  0  0  0  0  0
    4.0700  -11.8300   -2.3220 C   0  0  0  0  0  0  0  0  0  0  0  0
    3.8500  -11.9730   -3.6900 C   0  0  0  0  0  0  0  0  0  0  0  0
    4.9330  -12.0210   -4.5780 C   0  0  0  0  0  0  0  0  0  0  0  0
    4.7160  -12.1630   -6.0640 C   0  0  0  0  0  0  0  0  0  0  0  0
    5.8800  -12.2640   -6.7640 F   0  0  0  0  0  0  0  0  0  0  0  0
    3.9880  -13.2670   -6.4000 F   0  0  0  0  0  0  0  0  0  0  0  0
    4.0460  -11.1040   -6.5970 F   0  0  0  0  0  0  0  0  0  0  0  0
    6.2420  -11.9150   -4.0700 C   0  0  0  0  0  0  0  0  0  0  0  0
    9.8630  -11.2300   -0.9970 H   0  0  0  0  0  0  0  0  0  0  0  0
   11.3319  -12.8449   -0.0711 H   0  0  0  0  0  0  0  0  0  0  0  0
   10.6090  -14.0905   -1.1591 H   0  0  0  0  0  0  0  0  0  0  0  0
   13.0148  -11.2666   -0.9173 H   0  0  0  0  0  0  0  0  0  0  0  0
   14.7744  -10.8314   -2.6248 H   0  0  0  0  0  0  0  0  0  0  0  0
   14.7920  -12.1113   -4.7590 H   0  0  0  0  0  0  0  0  0  0  0  0
   15.1859  -14.3701   -5.4523 H   0  0  0  0  0  0  0  0  0  0  0  0
   16.3097  -15.8345   -7.7032 H   0  0  0  0  0  0  0  0  0  0  0  0
   15.1154  -16.8361   -9.8699 H   0  0  0  0  0  0  0  0  0  0  0  0
   10.7080  -15.4810   -8.9350 H   0  0  0  0  0  0  0  0  0  0  0  0
    8.8478  -15.2982   -7.0947 H   0  0  0  0  0  0  0  0  0  0  0  0
    9.5602  -13.6615   -6.8866 H   0  0  0  0  0  0  0  0  0  0  0  0
    6.7473  -14.9683   -8.1671 H   0  0  0  0  0  0  0  0  0  0  0  0
    5.5012  -14.1537  -10.1314 H   0  0  0  0  0  0  0  0  0  0  0  0
    8.8960  -12.1759  -11.6111 H   0  0  0  0  0  0  0  0  0  0  0  0
   10.2518  -12.9246   -9.6923 H   0  0  0  0  0  0  0  0  0  0  0  0
   11.2790  -14.2834   -3.4866 H   0  0  0  0  0  0  0  0  0  0  0  0
    8.0170  -10.7460   -1.7920 H   0  0  0  0  0  0  0  0  0  0  0  0
    5.5395  -11.6184   -0.7504 H   0  0  0  0  0  0  0  0  0  0  0  0
    3.2171  -11.7959   -1.6282 H   0  0  0  0  0  0  0  0  0  0  0  0
    2.8222  -12.0485   -4.0747 H   0  0  0  0  0  0  0  0  0  0  0  0
    7.0964  -11.9469   -4.7621 H   0  0  0  0  0  0  0  0  0  0  0  0
  1  2  2  0
  2  3  1  0
  3  4  1  0
  4  5  1  0
  5  6  2  0
  6  7  1  0
  7  8  2  0
  8  9  1  0
  9 10  1  0
 10 11  2  0
 11 12  1  0
 12 13  1  0
 13 14  2  0
 14 15  1  0
 15 16  2  0
 16 17  1  0
 17 18  1  0
 18 19  1  0
 19 20  1  0
 20 21  2  0
 21 22  1  0
 22 23  2  0
 23 24  1  0
 24 25  2  0
 17 26  2  0
  9 27  2  0
  2 28  1  0
 28 29  1  0
 29 30  2  0
 30 31  1  0
 31 32  2  0
 32 33  1  0
 33 34  1  0
 34 35  1  0
 34 36  1  0
 34 37  1  0
 33 38  2  0
 27  5  1  0
 38 29  1  0
 26 10  1  0
 16 12  1  0
 25 20  1  0
  3 39  1  0
  4 40  1  0
  4 41  1  0
  6 42  1  0
  7 43  1  0
  8 44  1  0
 11 45  1  0
 13 46  1  0
 14 47  1  0
 18 48  1  0
 19 49  1  0
 19 50  1  0
 21 51  1  0
 22 52  1  0
 24 53  1  0
 25 54  1  0
 27 55  1  0
 28 56  1  0
 30 57  1  0
 31 58  1  0
 32 59  1  0
 38 60  1  0
M  END
>  <meeko>  (7) 
{"is_sidechain": [false], "free_energy": -9.15, "intermolecular_energy": -11.986, "internal_energy": -1.717}

$$$$
LIB_GKROVQJERPLMAG__M_PUB_ALL__e8__s20260927
     RDKit          3D

 60 64  0  0  0  0  0  0  0  0999 V2000
    6.0670  -14.9620   -5.4560 O   0  0  0  0  0  0  0  0  0  0  0  0
    6.2090  -13.9610   -6.1460 C   0  0  0  0  0  0  0  0  0  0  0  0
    7.2060  -13.8680   -7.0890 N   0  0  0  0  0  0  0  0  0  0  0  0
    8.1290  -14.9570   -7.2960 C   0  0  0  0  0  0  0  0  0  0  0  0
    9.4770  -14.6260   -6.7170 C   0  0  0  0  0  0  0  0  0  0  0  0
   10.6450  -14.8430   -7.4580 C   0  0  0  0  0  0  0  0  0  0  0  0
   11.8940  -14.5810   -6.8980 C   0  0  0  0  0  0  0  0  0  0  0  0
   11.9870  -14.1020   -5.5910 C   0  0  0  0  0  0  0  0  0  0  0  0
   10.8350  -13.8690   -4.8270 C   0  0  0  0  0  0  0  0  0  0  0  0
   10.9650  -13.3710   -3.4370 C   0  0  0  0  0  0  0  0  0  0  0  0
   12.0060  -12.5800   -3.1060 C   0  0  0  0  0  0  0  0  0  0  0  0
   12.1070  -12.1470   -1.8010 N   0  0  0  0  0  0  0  0  0  0  0  0
   13.0170  -11.3540   -1.1580 C   0  0  0  0  0  0  0  0  0  0  0  0
   12.5740  -11.2870    0.1460 C   0  0  0  0  0  0  0  0  0  0  0  0
   11.4230  -12.0180    0.3220 N   0  0  0  0  0  0  0  0  0  0  0  0
   11.1770  -12.5190   -0.8710 C   0  0  0  0  0  0  0  0  0  0  0  0
   10.0800  -13.3830   -1.2710 C   0  0  0  0  0  0  0  0  0  0  0  0
    9.1380  -13.7770   -0.3540 N   0  0  0  0  0  0  0  0  0  0  0  0
    8.0190  -14.6250   -0.6580 C   0  0  0  0  0  0  0  0  0  0  0  0
    6.7500  -13.8130   -0.6380 C   0  0  0  0  0  0  0  0  0  0  0  0
    5.7930  -14.0060    0.3640 C   0  0  0  0  0  0  0  0  0  0  0  0
    4.6300  -13.2550    0.3260 C   0  0  0  0  0  0  0  0  0  0  0  0
    4.3570  -12.3440   -0.6320 N   0  0  0  0  0  0  0  0  0  0  0  0
    5.2850  -12.1830   -1.5990 C   0  0  0  0  0  0  0  0  0  0  0  0
    6.4770  -12.8860   -1.6470 C   0  0  0  0  0  0  0  0  0  0  0  0
   10.0020  -13.7840   -2.5200 N   0  0  0  0  0  0  0  0  0  0  0  0
    9.5840  -14.1490   -5.3990 C   0  0  0  0  0  0  0  0  0  0  0  0
    5.4400  -12.8200   -6.1130 N   0  0  0  0  0  0  0  0  0  0  0  0
    4.3450  -12.5400   -5.2720 C   0  0  0  0  0  0  0  0  0  0  0  0
    4.0530  -11.1910   -5.0320 C   0  0  0  0  0  0  0  0  0  0  0  0
    2.9840  -10.8260   -4.2110 C   0  0  0  0  0  0  0  0  0  0  0  0
    2.1940  -11.8090   -3.6190 C   0  0  0  0  0  0  0  0  0  0  0  0
    2.4700  -13.1640   -3.8390 C   0  0  0  0  0  0  0  0  0  0  0  0
    1.6200  -14.2440   -3.2170 C   0  0  0  0  0  0  0  0  0  0  0  0
    2.3490  -15.3020   -2.7660 F   0  0  0  0  0  0  0  0  0  0  0  0
    0.8990  -13.8100   -2.1430 F   0  0  0  0  0  0  0  0  0  0  0  0
    0.7080  -14.7570   -4.0890 F   0  0  0  0  0  0  0  0  0  0  0  0
    3.5490  -13.5180   -4.6720 C   0  0  0  0  0  0  0  0  0  0  0  0
    7.3460  -13.0160   -7.6090 H   0  0  0  0  0  0  0  0  0  0  0  0
    7.7373  -15.8608   -6.8064 H   0  0  0  0  0  0  0  0  0  0  0  0
    8.2396  -15.1273   -8.3771 H   0  0  0  0  0  0  0  0  0  0  0  0
   10.5764  -15.2225   -8.4882 H   0  0  0  0  0  0  0  0  0  0  0  0
   12.8072  -14.7520   -7.4870 H   0  0  0  0  0  0  0  0  0  0  0  0
   12.9771  -13.9046   -5.1543 H   0  0  0  0  0  0  0  0  0  0  0  0
   12.7546  -12.2881   -3.8573 H   0  0  0  0  0  0  0  0  0  0  0  0
   13.9086  -10.8740   -1.5877 H   0  0  0  0  0  0  0  0  0  0  0  0
   13.0773  -10.7209    0.9437 H   0  0  0  0  0  0  0  0  0  0  0  0
    9.2510  -13.4360    0.5950 H   0  0  0  0  0  0  0  0  0  0  0  0
    8.1551  -15.0672   -1.6560 H   0  0  0  0  0  0  0  0  0  0  0  0
    7.9525  -15.4257    0.0933 H   0  0  0  0  0  0  0  0  0  0  0  0
    5.9609  -14.7397    1.1662 H   0  0  0  0  0  0  0  0  0  0  0  0
    3.8864  -13.4097    1.1217 H   0  0  0  0  0  0  0  0  0  0  0  0
    5.0826  -11.4511   -2.3948 H   0  0  0  0  0  0  0  0  0  0  0  0
    7.1948  -12.7179   -2.4634 H   0  0  0  0  0  0  0  0  0  0  0  0
    8.6713  -13.9924   -4.8054 H   0  0  0  0  0  0  0  0  0  0  0  0
    5.6840  -12.1070   -6.7820 H   0  0  0  0  0  0  0  0  0  0  0  0
    4.6733  -10.4099   -5.4959 H   0  0  0  0  0  0  0  0  0  0  0  0
    2.7658   -9.7629   -4.0318 H   0  0  0  0  0  0  0  0  0  0  0  0
    1.3498  -11.5194   -2.9760 H   0  0  0  0  0  0  0  0  0  0  0  0
    3.7680  -14.5807   -4.8527 H   0  0  0  0  0  0  0  0  0  0  0  0
  1  2  2  0
  2  3  1  0
  3  4  1  0
  4  5  1  0
  5  6  2  0
  6  7  1  0
  7  8  2  0
  8  9  1  0
  9 10  1  0
 10 11  2  0
 11 12  1  0
 12 13  1  0
 13 14  2  0
 14 15  1  0
 15 16  2  0
 16 17  1  0
 17 18  1  0
 18 19  1  0
 19 20  1  0
 20 21  2  0
 21 22  1  0
 22 23  2  0
 23 24  1  0
 24 25  2  0
 17 26  2  0
  9 27  2  0
  2 28  1  0
 28 29  1  0
 29 30  2  0
 30 31  1  0
 31 32  2  0
 32 33  1  0
 33 34  1  0
 34 35  1  0
 34 36  1  0
 34 37  1  0
 33 38  2  0
 27  5  1  0
 38 29  1  0
 26 10  1  0
 16 12  1  0
 25 20  1  0
  3 39  1  0
  4 40  1  0
  4 41  1  0
  6 42  1  0
  7 43  1  0
  8 44  1  0
 11 45  1  0
 13 46  1  0
 14 47  1  0
 18 48  1  0
 19 49  1  0
 19 50  1  0
 21 51  1  0
 22 52  1  0
 24 53  1  0
 25 54  1  0
 27 55  1  0
 28 56  1  0
 30 57  1  0
 31 58  1  0
 32 59  1  0
 38 60  1  0
M  END
>  <meeko>  (8) 
{"is_sidechain": [false], "free_energy": -9.13, "intermolecular_energy": -11.922, "internal_energy": -1.752}

$$$$
LIB_GKROVQJERPLMAG__M_PUB_ALL__e8__s20260927
     RDKit          3D

 60 64  0  0  0  0  0  0  0  0999 V2000
    5.8940  -12.2150   -7.9490 O   0  0  0  0  0  0  0  0  0  0  0  0
    6.2910  -13.3470   -7.7080 C   0  0  0  0  0  0  0  0  0  0  0  0
    6.7440  -14.1820   -8.7020 N   0  0  0  0  0  0  0  0  0  0  0  0
    6.7620  -13.7490  -10.0780 C   0  0  0  0  0  0  0  0  0  0  0  0
    8.1740  -13.5220  -10.5440 C   0  0  0  0  0  0  0  0  0  0  0  0
    8.4280  -12.9670  -11.8040 C   0  0  0  0  0  0  0  0  0  0  0  0
    9.7390  -12.8040  -12.2510 C   0  0  0  0  0  0  0  0  0  0  0  0
   10.8060  -13.1990  -11.4430 C   0  0  0  0  0  0  0  0  0  0  0  0
   10.5820  -13.7520  -10.1750 C   0  0  0  0  0  0  0  0  0  0  0  0
   11.7340  -14.1720   -9.3430 C   0  0  0  0  0  0  0  0  0  0  0  0
   12.8570  -14.6240   -9.9390 C   0  0  0  0  0  0  0  0  0  0  0  0
   13.9050  -15.0230   -9.1360 N   0  0  0  0  0  0  0  0  0  0  0  0
   15.1490  -15.5150   -9.4190 C   0  0  0  0  0  0  0  0  0  0  0  0
   15.7370  -15.7280   -8.1900 C   0  0  0  0  0  0  0  0  0  0  0  0
   14.8890  -15.3840   -7.1630 N   0  0  0  0  0  0  0  0  0  0  0  0
   13.8000  -14.9660   -7.7750 C   0  0  0  0  0  0  0  0  0  0  0  0
   12.5660  -14.4860   -7.1790 C   0  0  0  0  0  0  0  0  0  0  0  0
   12.4320  -14.4270   -5.8140 N   0  0  0  0  0  0  0  0  0  0  0  0
   11.2540  -13.9630   -5.1360 C   0  0  0  0  0  0  0  0  0  0  0  0
   11.6510  -13.1370   -3.9410 C   0  0  0  0  0  0  0  0  0  0  0  0
   12.8880  -12.4840   -3.9010 C   0  0  0  0  0  0  0  0  0  0  0  0
   13.2190  -11.7580   -2.7700 C   0  0  0  0  0  0  0  0  0  0  0  0
   12.4190  -11.6460   -1.6890 N   0  0  0  0  0  0  0  0  0  0  0  0
   11.2370  -12.2950   -1.7390 C   0  0  0  0  0  0  0  0  0  0  0  0
   10.8160  -13.0460   -2.8250 C   0  0  0  0  0  0  0  0  0  0  0  0
   11.5790  -14.1100   -7.9610 N   0  0  0  0  0  0  0  0  0  0  0  0
    9.2560  -13.9210   -9.7420 C   0  0  0  0  0  0  0  0  0  0  0  0
    6.3620  -13.9520   -6.4730 N   0  0  0  0  0  0  0  0  0  0  0  0
    5.9740  -13.4190   -5.2270 C   0  0  0  0  0  0  0  0  0  0  0  0
    4.6700  -13.6900   -4.7950 C   0  0  0  0  0  0  0  0  0  0  0  0
    4.2060  -13.2020   -3.5720 C   0  0  0  0  0  0  0  0  0  0  0  0
    5.0440  -12.4330   -2.7670 C   0  0  0  0  0  0  0  0  0  0  0  0
    6.3500  -12.1430   -3.1810 C   0  0  0  0  0  0  0  0  0  0  0  0
    7.2770  -11.3230   -2.3180 C   0  0  0  0  0  0  0  0  0  0  0  0
    6.6570  -10.2630   -1.7300 F   0  0  0  0  0  0  0  0  0  0  0  0
    7.8350  -12.0360   -1.2980 F   0  0  0  0  0  0  0  0  0  0  0  0
    8.3230  -10.8060   -3.0210 F   0  0  0  0  0  0  0  0  0  0  0  0
    6.8070  -12.6450   -4.4150 C   0  0  0  0  0  0  0  0  0  0  0  0
    7.0130  -15.1310   -8.4960 H   0  0  0  0  0  0  0  0  0  0  0  0
    6.2940  -14.5214  -10.7060 H   0  0  0  0  0  0  0  0  0  0  0  0
    6.2058  -12.8034  -10.1592 H   0  0  0  0  0  0  0  0  0  0  0  0
    7.5891  -12.6579  -12.4448 H   0  0  0  0  0  0  0  0  0  0  0  0
    9.9320  -12.3640  -13.2405 H   0  0  0  0  0  0  0  0  0  0  0  0
   11.8368  -13.0746  -11.8063 H   0  0  0  0  0  0  0  0  0  0  0  0
   12.9346  -14.6729  -11.0352 H   0  0  0  0  0  0  0  0  0  0  0  0
   15.5858  -15.7006  -10.4114 H   0  0  0  0  0  0  0  0  0  0  0  0
   16.7541  -16.1225   -8.0489 H   0  0  0  0  0  0  0  0  0  0  0  0
   13.2280  -14.7310   -5.2620 H   0  0  0  0  0  0  0  0  0  0  0  0
   10.6544  -13.3480   -5.8232 H   0  0  0  0  0  0  0  0  0  0  0  0
   10.6607  -14.8269   -4.8020 H   0  0  0  0  0  0  0  0  0  0  0  0
   13.5832  -12.5464   -4.7512 H   0  0  0  0  0  0  0  0  0  0  0  0
   14.1905  -11.2424   -2.7512 H   0  0  0  0  0  0  0  0  0  0  0  0
   10.5693  -12.2239   -0.8678 H   0  0  0  0  0  0  0  0  0  0  0  0
    9.8437  -13.5601   -2.8084 H   0  0  0  0  0  0  0  0  0  0  0  0
    9.0619  -14.3734   -8.7583 H   0  0  0  0  0  0  0  0  0  0  0  0
    6.7500  -14.8810   -6.4610 H   0  0  0  0  0  0  0  0  0  0  0  0
    4.0030  -14.2948   -5.4269 H   0  0  0  0  0  0  0  0  0  0  0  0
    3.1798  -13.4244   -3.2442 H   0  0  0  0  0  0  0  0  0  0  0  0
    4.6781  -12.0521   -1.8021 H   0  0  0  0  0  0  0  0  0  0  0  0
    7.8333  -12.4248   -4.7439 H   0  0  0  0  0  0  0  0  0  0  0  0
  1  2  2  0
  2  3  1  0
  3  4  1  0
  4  5  1  0
  5  6  2  0
  6  7  1  0
  7  8  2  0
  8  9  1  0
  9 10  1  0
 10 11  2  0
 11 12  1  0
 12 13  1  0
 13 14  2  0
 14 15  1  0
 15 16  2  0
 16 17  1  0
 17 18  1  0
 18 19  1  0
 19 20  1  0
 20 21  2  0
 21 22  1  0
 22 23  2  0
 23 24  1  0
 24 25  2  0
 17 26  2  0
  9 27  2  0
  2 28  1  0
 28 29  1  0
 29 30  2  0
 30 31  1  0
 31 32  2  0
 32 33  1  0
 33 34  1  0
 34 35  1  0
 34 36  1  0
 34 37  1  0
 33 38  2  0
 27  5  1  0
 38 29  1  0
 26 10  1  0
 16 12  1  0
 25 20  1  0
  3 39  1  0
  4 40  1  0
  4 41  1  0
  6 42  1  0
  7 43  1  0
  8 44  1  0
 11 45  1  0
 13 46  1  0
 14 47  1  0
 18 48  1  0
 19 49  1  0
 19 50  1  0
 21 51  1  0
 22 52  1  0
 24 53  1  0
 25 54  1  0
 27 55  1  0
 28 56  1  0
 30 57  1  0
 31 58  1  0
 32 59  1  0
 38 60  1  0
M  END
>  <meeko>  (9) 
{"is_sidechain": [false], "free_energy": -8.946, "intermolecular_energy": -11.481, "internal_energy": -1.933}

$$$$
