LIB_NWEIPABWNQPRCZ__M_PUB_ALL__e8__s20260927
     RDKit          3D

 57 61  0  0  0  0  0  0  0  0999 V2000
    4.0600  -12.9560   -6.6130 O   0  0  0  0  0  0  0  0  0  0  0  0
    5.0530  -12.8440   -5.9080 C   0  0  0  0  0  0  0  0  0  0  0  0
    5.0850  -12.2090   -4.6740 N   0  0  0  0  0  0  0  0  0  0  0  0
    4.0040  -11.6430   -3.9640 C   0  0  0  0  0  0  0  0  0  0  0  0
    3.3300  -10.4860   -4.3540 C   0  0  0  0  0  0  0  0  0  0  0  0
    2.2590  -10.0040   -3.5980 C   0  0  0  0  0  0  0  0  0  0  0  0
    1.8570  -10.6690   -2.4400 C   0  0  0  0  0  0  0  0  0  0  0  0
    2.5250  -11.8250   -2.0180 C   0  0  0  0  0  0  0  0  0  0  0  0
    2.1220  -12.5650   -0.7980 C   0  0  0  0  0  0  0  0  0  0  0  0
    2.7540  -13.7110   -0.4690 C   0  0  0  0  0  0  0  0  0  0  0  0
    2.3470  -14.3800    0.6640 N   0  0  0  0  0  0  0  0  0  0  0  0
    2.7720  -15.5360    1.2570 C   0  0  0  0  0  0  0  0  0  0  0  0
    1.9690  -15.6830    2.3700 C   0  0  0  0  0  0  0  0  0  0  0  0
    1.0650  -14.6530    2.4730 N   0  0  0  0  0  0  0  0  0  0  0  0
    1.3240  -13.8930    1.4290 C   0  0  0  0  0  0  0  0  0  0  0  0
    0.6650  -12.6610    1.0320 C   0  0  0  0  0  0  0  0  0  0  0  0
   -0.3640  -12.1530    1.7830 N   0  0  0  0  0  0  0  0  0  0  0  0
   -1.0450  -10.9230    1.4950 C   0  0  0  0  0  0  0  0  0  0  0  0
   -2.3810  -11.2180    0.8650 C   0  0  0  0  0  0  0  0  0  0  0  0
   -2.9160  -10.3700   -0.1090 C   0  0  0  0  0  0  0  0  0  0  0  0
   -4.1600  -10.6720   -0.6410 C   0  0  0  0  0  0  0  0  0  0  0  0
   -4.8970  -11.7400   -0.2680 N   0  0  0  0  0  0  0  0  0  0  0  0
   -4.3710  -12.5380    0.6840 C   0  0  0  0  0  0  0  0  0  0  0  0
   -3.1360  -12.3210    1.2760 C   0  0  0  0  0  0  0  0  0  0  0  0
    1.0660  -12.0420   -0.0560 N   0  0  0  0  0  0  0  0  0  0  0  0
    3.5890  -12.3060   -2.7990 C   0  0  0  0  0  0  0  0  0  0  0  0
    6.3130  -13.3340   -6.2310 N   0  0  0  0  0  0  0  0  0  0  0  0
    6.7100  -13.9800   -7.4200 C   0  0  0  0  0  0  0  0  0  0  0  0
    7.0720  -15.3290   -7.3200 C   0  0  0  0  0  0  0  0  0  0  0  0
    7.4780  -16.0480   -8.4470 C   0  0  0  0  0  0  0  0  0  0  0  0
    7.5300  -15.4210   -9.6900 C   0  0  0  0  0  0  0  0  0  0  0  0
    7.1820  -14.0690   -9.8130 C   0  0  0  0  0  0  0  0  0  0  0  0
    7.2200  -13.3760  -11.1540 C   0  0  0  0  0  0  0  0  0  0  0  0
    6.4670  -14.0150  -12.0920 F   0  0  0  0  0  0  0  0  0  0  0  0
    8.4750  -13.2920  -11.6800 F   0  0  0  0  0  0  0  0  0  0  0  0
    6.7550  -12.0970  -11.1050 F   0  0  0  0  0  0  0  0  0  0  0  0
    6.7690  -13.3590   -8.6700 C   0  0  0  0  0  0  0  0  0  0  0  0
    5.9880  -12.1050   -4.2410 H   0  0  0  0  0  0  0  0  0  0  0  0
    3.6436   -9.9501   -5.2620 H   0  0  0  0  0  0  0  0  0  0  0  0
    1.7295   -9.0945   -3.9179 H   0  0  0  0  0  0  0  0  0  0  0  0
    1.0097  -10.2829   -1.8543 H   0  0  0  0  0  0  0  0  0  0  0  0
    3.5737  -14.1011   -1.0902 H   0  0  0  0  0  0  0  0  0  0  0  0
    3.5786  -16.2039    0.9204 H   0  0  0  0  0  0  0  0  0  0  0  0
    2.0431  -16.5174    3.0830 H   0  0  0  0  0  0  0  0  0  0  0  0
   -0.6180  -12.6700    2.6200 H   0  0  0  0  0  0  0  0  0  0  0  0
   -1.1970  -10.3618    2.4288 H   0  0  0  0  0  0  0  0  0  0  0  0
   -0.4382  -10.3249    0.7993 H   0  0  0  0  0  0  0  0  0  0  0  0
   -2.3616   -9.4818   -0.4462 H   0  0  0  0  0  0  0  0  0  0  0  0
   -4.5704  -10.0028   -1.4116 H   0  0  0  0  0  0  0  0  0  0  0  0
   -4.9555  -13.4112    1.0094 H   0  0  0  0  0  0  0  0  0  0  0  0
   -2.7581  -13.0022    2.0526 H   0  0  0  0  0  0  0  0  0  0  0  0
    4.1094  -13.2245   -2.4898 H   0  0  0  0  0  0  0  0  0  0  0  0
    7.0200  -13.2550   -5.5180 H   0  0  0  0  0  0  0  0  0  0  0  0
    7.0362  -15.8293   -6.3410 H   0  0  0  0  0  0  0  0  0  0  0  0
    7.7563  -17.1080   -8.3530 H   0  0  0  0  0  0  0  0  0  0  0  0
    7.8452  -15.9889  -10.5778 H   0  0  0  0  0  0  0  0  0  0  0  0
    6.4885  -12.2994   -8.7624 H   0  0  0  0  0  0  0  0  0  0  0  0
  1  2  2  0
  2  3  1  0
  3  4  1  0
  4  5  2  0
  5  6  1  0
  6  7  2  0
  7  8  1  0
  8  9  1  0
  9 10  2  0
 10 11  1  0
 11 12  1  0
 12 13  2  0
 13 14  1  0
 14 15  2  0
 15 16  1  0
 16 17  1  0
 17 18  1  0
 18 19  1  0
 19 20  2  0
 20 21  1  0
 21 22  2  0
 22 23  1  0
 23 24  2  0
 16 25  2  0
  8 26  2  0
  2 27  1  0
 27 28  1  0
 28 29  2  0
 29 30  1  0
 30 31  2  0
 31 32  1  0
 32 33  1  0
 33 34  1  0
 33 35  1  0
 33 36  1  0
 32 37  2  0
 26  4  1  0
 37 28  1  0
 25  9  1  0
 15 11  1  0
 24 19  1  0
  3 38  1  0
  5 39  1  0
  6 40  1  0
  7 41  1  0
 10 42  1  0
 12 43  1  0
 13 44  1  0
 17 45  1  0
 18 46  1  0
 18 47  1  0
 20 48  1  0
 21 49  1  0
 23 50  1  0
 24 51  1  0
 26 52  1  0
 27 53  1  0
 29 54  1  0
 30 55  1  0
 31 56  1  0
 37 57  1  0
M  END
>  <meeko>  (1) 
{"is_sidechain": [false], "free_energy": -9.65, "intermolecular_energy": -13.034, "internal_energy": -1.065}

$$$$
LIB_NWEIPABWNQPRCZ__M_PUB_ALL__e8__s20260927
     RDKit          3D

 57 61  0  0  0  0  0  0  0  0999 V2000
    7.0090  -10.6900   -1.4780 O   0  0  0  0  0  0  0  0  0  0  0  0
    6.8660  -11.9010   -1.3830 C   0  0  0  0  0  0  0  0  0  0  0  0
    5.6600  -12.5730   -1.5250 N   0  0  0  0  0  0  0  0  0  0  0  0
    4.4030  -12.0310   -1.8680 C   0  0  0  0  0  0  0  0  0  0  0  0
    4.0650  -11.5810   -3.1440 C   0  0  0  0  0  0  0  0  0  0  0  0
    2.7900  -11.0720   -3.4000 C   0  0  0  0  0  0  0  0  0  0  0  0
    1.8420  -11.0000   -2.3790 C   0  0  0  0  0  0  0  0  0  0  0  0
    2.1590  -11.4310   -1.0850 C   0  0  0  0  0  0  0  0  0  0  0  0
    1.1760  -11.3780    0.0240 C   0  0  0  0  0  0  0  0  0  0  0  0
    0.4180  -10.2740    0.1950 C   0  0  0  0  0  0  0  0  0  0  0  0
   -0.4750  -10.2530    1.2430 N   0  0  0  0  0  0  0  0  0  0  0  0
   -1.3670   -9.3110    1.6770 C   0  0  0  0  0  0  0  0  0  0  0  0
   -1.9780   -9.8770    2.7780 C   0  0  0  0  0  0  0  0  0  0  0  0
   -1.4840  -11.1350    3.0310 N   0  0  0  0  0  0  0  0  0  0  0  0
   -0.5840  -11.3220    2.0870 C   0  0  0  0  0  0  0  0  0  0  0  0
    0.2590  -12.4850    1.8720 C   0  0  0  0  0  0  0  0  0  0  0  0
    0.1700  -13.5700    2.7060 N   0  0  0  0  0  0  0  0  0  0  0  0
    0.9280  -14.7780    2.5460 C   0  0  0  0  0  0  0  0  0  0  0  0
   -0.0080  -15.9580    2.4790 C   0  0  0  0  0  0  0  0  0  0  0  0
   -0.2430  -16.7500    3.6060 C   0  0  0  0  0  0  0  0  0  0  0  0
   -1.0930  -17.8380    3.4870 C   0  0  0  0  0  0  0  0  0  0  0  0
   -1.7070  -18.1880    2.3370 N   0  0  0  0  0  0  0  0  0  0  0  0
   -1.4560  -17.4210    1.2560 C   0  0  0  0  0  0  0  0  0  0  0  0
   -0.6230  -16.3130    1.2740 C   0  0  0  0  0  0  0  0  0  0  0  0
    1.1100  -12.4820    0.8690 N   0  0  0  0  0  0  0  0  0  0  0  0
    3.4410  -11.9570   -0.8500 C   0  0  0  0  0  0  0  0  0  0  0  0
    7.8910  -12.8000   -1.1150 N   0  0  0  0  0  0  0  0  0  0  0  0
    9.2440  -12.5120   -0.8420 C   0  0  0  0  0  0  0  0  0  0  0  0
    9.5710  -12.1810    0.4790 C   0  0  0  0  0  0  0  0  0  0  0  0
   10.8870  -11.8830    0.8380 C   0  0  0  0  0  0  0  0  0  0  0  0
   11.8950  -11.9090   -0.1240 C   0  0  0  0  0  0  0  0  0  0  0  0
   11.5900  -12.2280   -1.4550 C   0  0  0  0  0  0  0  0  0  0  0  0
   12.6700  -12.2740   -2.5090 C   0  0  0  0  0  0  0  0  0  0  0  0
   13.7670  -11.5460   -2.1620 F   0  0  0  0  0  0  0  0  0  0  0  0
   12.2650  -11.7820   -3.7140 F   0  0  0  0  0  0  0  0  0  0  0  0
   13.1170  -13.5360   -2.7570 F   0  0  0  0  0  0  0  0  0  0  0  0
   10.2600  -12.5320   -1.8010 C   0  0  0  0  0  0  0  0  0  0  0  0
    5.6660  -13.5610   -1.3280 H   0  0  0  0  0  0  0  0  0  0  0  0
    4.8076  -11.6273   -3.9542 H   0  0  0  0  0  0  0  0  0  0  0  0
    2.5319  -10.7261   -4.4118 H   0  0  0  0  0  0  0  0  0  0  0  0
    0.8389  -10.6020   -2.5919 H   0  0  0  0  0  0  0  0  0  0  0  0
    0.5113   -9.4142   -0.4847 H   0  0  0  0  0  0  0  0  0  0  0  0
   -1.5563   -8.3181    1.2430 H   0  0  0  0  0  0  0  0  0  0  0  0
   -2.7594   -9.3850    3.3758 H   0  0  0  0  0  0  0  0  0  0  0  0
   -0.5170  -13.5170    3.4530 H   0  0  0  0  0  0  0  0  0  0  0  0
    1.5136  -14.7222    1.6165 H   0  0  0  0  0  0  0  0  0  0  0  0
    1.6072  -14.8990    3.4028 H   0  0  0  0  0  0  0  0  0  0  0  0
    0.2367  -16.5148    4.5675 H   0  0  0  0  0  0  0  0  0  0  0  0
   -1.2780  -18.4516    4.3810 H   0  0  0  0  0  0  0  0  0  0  0  0
   -1.9401  -17.6902    0.3057 H   0  0  0  0  0  0  0  0  0  0  0  0
   -0.4494  -15.7257    0.3603 H   0  0  0  0  0  0  0  0  0  0  0  0
    3.6961  -12.3194    0.1568 H   0  0  0  0  0  0  0  0  0  0  0  0
    7.6510  -13.7770   -1.1570 H   0  0  0  0  0  0  0  0  0  0  0  0
    8.7807  -12.1555    1.2437 H   0  0  0  0  0  0  0  0  0  0  0  0
   11.1282  -11.6276    1.8804 H   0  0  0  0  0  0  0  0  0  0  0  0
   12.9321  -11.6788    0.1614 H   0  0  0  0  0  0  0  0  0  0  0  0
   10.0167  -12.7893   -2.8424 H   0  0  0  0  0  0  0  0  0  0  0  0
  1  2  2  0
  2  3  1  0
  3  4  1  0
  4  5  2  0
  5  6  1  0
  6  7  2  0
  7  8  1  0
  8  9  1  0
  9 10  2  0
 10 11  1  0
 11 12  1  0
 12 13  2  0
 13 14  1  0
 14 15  2  0
 15 16  1  0
 16 17  1  0
 17 18  1  0
 18 19  1  0
 19 20  2  0
 20 21  1  0
 21 22  2  0
 22 23  1  0
 23 24  2  0
 16 25  2  0
  8 26  2  0
  2 27  1  0
 27 28  1  0
 28 29  2  0
 29 30  1  0
 30 31  2  0
 31 32  1  0
 32 33  1  0
 33 34  1  0
 33 35  1  0
 33 36  1  0
 32 37  2  0
 26  4  1  0
 37 28  1  0
 25  9  1  0
 15 11  1  0
 24 19  1  0
  3 38  1  0
  5 39  1  0
  6 40  1  0
  7 41  1  0
 10 42  1  0
 12 43  1  0
 13 44  1  0
 17 45  1  0
 18 46  1  0
 18 47  1  0
 20 48  1  0
 21 49  1  0
 23 50  1  0
 24 51  1  0
 26 52  1  0
 27 53  1  0
 29 54  1  0
 30 55  1  0
 31 56  1  0
 37 57  1  0
M  END
>  <meeko>  (2) 
{"is_sidechain": [false], "free_energy": -9.185, "intermolecular_energy": -12.408, "internal_energy": -1.064}

$$$$
LIB_NWEIPABWNQPRCZ__M_PUB_ALL__e8__s20260927
     RDKit          3D

 57 61  0  0  0  0  0  0  0  0999 V2000
    7.7970  -10.9580   -2.9900 O   0  0  0  0  0  0  0  0  0  0  0  0
    7.7510  -12.1430   -3.2890 C   0  0  0  0  0  0  0  0  0  0  0  0
    6.6020  -12.8260   -3.6650 N   0  0  0  0  0  0  0  0  0  0  0  0
    5.3040  -12.3010   -3.8450 C   0  0  0  0  0  0  0  0  0  0  0  0
    4.8200  -11.8060   -5.0550 C   0  0  0  0  0  0  0  0  0  0  0  0
    3.5140  -11.3180   -5.1470 C   0  0  0  0  0  0  0  0  0  0  0  0
    2.6830  -11.3130   -4.0280 C   0  0  0  0  0  0  0  0  0  0  0  0
    3.1490  -11.7910   -2.7970 C   0  0  0  0  0  0  0  0  0  0  0  0
    2.2930  -11.8100   -1.5860 C   0  0  0  0  0  0  0  0  0  0  0  0
    1.4450  -10.7860   -1.3490 C   0  0  0  0  0  0  0  0  0  0  0  0
    0.6730  -10.8280   -0.2090 N   0  0  0  0  0  0  0  0  0  0  0  0
   -0.2610   -9.9730    0.3070 C   0  0  0  0  0  0  0  0  0  0  0  0
   -0.6840  -10.5680    1.4770 C   0  0  0  0  0  0  0  0  0  0  0  0
   -0.0350  -11.7610    1.6940 N   0  0  0  0  0  0  0  0  0  0  0  0
    0.7720  -11.8790    0.6590 C   0  0  0  0  0  0  0  0  0  0  0  0
    1.7050  -12.9540    0.3700 C   0  0  0  0  0  0  0  0  0  0  0  0
    1.8220  -14.0190    1.2260 N   0  0  0  0  0  0  0  0  0  0  0  0
    2.6820  -15.1470    1.0020 C   0  0  0  0  0  0  0  0  0  0  0  0
    4.1140  -14.7510    1.2560 C   0  0  0  0  0  0  0  0  0  0  0  0
    5.1550  -15.3120    0.5110 C   0  0  0  0  0  0  0  0  0  0  0  0
    6.4560  -14.9330    0.8000 C   0  0  0  0  0  0  0  0  0  0  0  0
    6.7840  -14.0530    1.7700 N   0  0  0  0  0  0  0  0  0  0  0  0
    5.7670  -13.5350    2.4890 C   0  0  0  0  0  0  0  0  0  0  0  0
    4.4340  -13.8490    2.2760 C   0  0  0  0  0  0  0  0  0  0  0  0
    2.4360  -12.8910   -0.7210 N   0  0  0  0  0  0  0  0  0  0  0  0
    4.4590  -12.2940   -2.7250 C   0  0  0  0  0  0  0  0  0  0  0  0
    8.8460  -12.9980   -3.2990 N   0  0  0  0  0  0  0  0  0  0  0  0
   10.1730  -12.7090   -2.9200 C   0  0  0  0  0  0  0  0  0  0  0  0
   11.1280  -12.6480   -3.9420 C   0  0  0  0  0  0  0  0  0  0  0  0
   12.4660  -12.3670   -3.6570 C   0  0  0  0  0  0  0  0  0  0  0  0
   12.8660  -12.1460   -2.3410 C   0  0  0  0  0  0  0  0  0  0  0  0
   11.9300  -12.2120   -1.3000 C   0  0  0  0  0  0  0  0  0  0  0  0
   12.3410  -11.9630    0.1310 C   0  0  0  0  0  0  0  0  0  0  0  0
   13.5200  -11.2870    0.2240 F   0  0  0  0  0  0  0  0  0  0  0  0
   12.5150  -13.1100    0.8470 F   0  0  0  0  0  0  0  0  0  0  0  0
   11.4300  -11.2300    0.8270 F   0  0  0  0  0  0  0  0  0  0  0  0
   10.5840  -12.4900   -1.6030 C   0  0  0  0  0  0  0  0  0  0  0  0
    6.6880  -13.8210   -3.7940 H   0  0  0  0  0  0  0  0  0  0  0  0
    5.4700  -11.7996   -5.9424 H   0  0  0  0  0  0  0  0  0  0  0  0
    3.1395  -10.9356   -6.1080 H   0  0  0  0  0  0  0  0  0  0  0  0
    1.6548  -10.9312   -4.1124 H   0  0  0  0  0  0  0  0  0  0  0  0
    1.3727   -9.9401   -2.0484 H   0  0  0  0  0  0  0  0  0  0  0  0
   -0.6013   -9.0176   -0.1189 H   0  0  0  0  0  0  0  0  0  0  0  0
   -1.4430  -10.1430    2.1502 H   0  0  0  0  0  0  0  0  0  0  0  0
    1.2200  -14.0170    2.0440 H   0  0  0  0  0  0  0  0  0  0  0  0
    2.4013  -15.9624    1.6849 H   0  0  0  0  0  0  0  0  0  0  0  0
    2.5763  -15.4852   -0.0394 H   0  0  0  0  0  0  0  0  0  0  0  0
    4.9459  -16.0389   -0.2877 H   0  0  0  0  0  0  0  0  0  0  0  0
    7.2687  -15.3747    0.2047 H   0  0  0  0  0  0  0  0  0  0  0  0
    6.0097  -12.8221    3.2908 H   0  0  0  0  0  0  0  0  0  0  0  0
    3.6447  -13.3986    2.8958 H   0  0  0  0  0  0  0  0  0  0  0  0
    4.8305  -12.6913   -1.7689 H   0  0  0  0  0  0  0  0  0  0  0  0
    8.6850  -13.9260   -3.6570 H   0  0  0  0  0  0  0  0  0  0  0  0
   10.8203  -12.8238   -4.9834 H   0  0  0  0  0  0  0  0  0  0  0  0
   13.2039  -12.3202   -4.4715 H   0  0  0  0  0  0  0  0  0  0  0  0
   13.9191  -11.9191   -2.1184 H   0  0  0  0  0  0  0  0  0  0  0  0
    9.8442  -12.5355   -0.7902 H   0  0  0  0  0  0  0  0  0  0  0  0
  1  2  2  0
  2  3  1  0
  3  4  1  0
  4  5  2  0
  5  6  1  0
  6  7  2  0
  7  8  1  0
  8  9  1  0
  9 10  2  0
 10 11  1  0
 11 12  1  0
 12 13  2  0
 13 14  1  0
 14 15  2  0
 15 16  1  0
 16 17  1  0
 17 18  1  0
 18 19  1  0
 19 20  2  0
 20 21  1  0
 21 22  2  0
 22 23  1  0
 23 24  2  0
 16 25  2  0
  8 26  2  0
  2 27  1  0
 27 28  1  0
 28 29  2  0
 29 30  1  0
 30 31  2  0
 31 32  1  0
 32 33  1  0
 33 34  1  0
 33 35  1  0
 33 36  1  0
 32 37  2  0
 26  4  1  0
 37 28  1  0
 25  9  1  0
 15 11  1  0
 24 19  1  0
  3 38  1  0
  5 39  1  0
  6 40  1  0
  7 41  1  0
 10 42  1  0
 12 43  1  0
 13 44  1  0
 17 45  1  0
 18 46  1  0
 18 47  1  0
 20 48  1  0
 21 49  1  0
 23 50  1  0
 24 51  1  0
 26 52  1  0
 27 53  1  0
 29 54  1  0
 30 55  1  0
 31 56  1  0
 37 57  1  0
M  END
>  <meeko>  (3) 
{"is_sidechain": [false], "free_energy": -9.126, "intermolecular_energy": -12.16, "internal_energy": -1.232}

$$$$
LIB_NWEIPABWNQPRCZ__M_PUB_ALL__e8__s20260927
     RDKit          3D

 57 61  0  0  0  0  0  0  0  0999 V2000
    7.5380  -10.8200   -2.8200 O   0  0  0  0  0  0  0  0  0  0  0  0
    7.3790  -12.0230   -2.9740 C   0  0  0  0  0  0  0  0  0  0  0  0
    6.1580  -12.6420   -3.2080 N   0  0  0  0  0  0  0  0  0  0  0  0
    4.8980  -12.0300   -3.3820 C   0  0  0  0  0  0  0  0  0  0  0  0
    4.4630  -11.4580   -4.5770 C   0  0  0  0  0  0  0  0  0  0  0  0
    3.1920  -10.8860   -4.6650 C   0  0  0  0  0  0  0  0  0  0  0  0
    2.3460  -10.8730   -3.5560 C   0  0  0  0  0  0  0  0  0  0  0  0
    2.7630  -11.4270   -2.3400 C   0  0  0  0  0  0  0  0  0  0  0  0
    1.8900  -11.4390   -1.1420 C   0  0  0  0  0  0  0  0  0  0  0  0
    0.9600  -10.4750   -0.9800 C   0  0  0  0  0  0  0  0  0  0  0  0
    0.1740  -10.5080    0.1500 N   0  0  0  0  0  0  0  0  0  0  0  0
   -0.8350   -9.7010    0.5980 C   0  0  0  0  0  0  0  0  0  0  0  0
   -1.2300  -10.2550    1.7990 C   0  0  0  0  0  0  0  0  0  0  0  0
   -0.4920  -11.3750    2.0990 N   0  0  0  0  0  0  0  0  0  0  0  0
    0.3400  -11.4920    1.0840 C   0  0  0  0  0  0  0  0  0  0  0  0
    1.3610  -12.5040    0.8750 C   0  0  0  0  0  0  0  0  0  0  0  0
    1.5480  -13.5010    1.7980 N   0  0  0  0  0  0  0  0  0  0  0  0
    2.4980  -14.5670    1.6570 C   0  0  0  0  0  0  0  0  0  0  0  0
    1.8850  -15.8590    2.1320 C   0  0  0  0  0  0  0  0  0  0  0  0
    2.4450  -17.0900    1.7770 C   0  0  0  0  0  0  0  0  0  0  0  0
    1.8300  -18.2500    2.2190 C   0  0  0  0  0  0  0  0  0  0  0  0
    0.7090  -18.2660    2.9710 N   0  0  0  0  0  0  0  0  0  0  0  0
    0.1740  -17.0690    3.2900 C   0  0  0  0  0  0  0  0  0  0  0  0
    0.7150  -15.8550    2.8980 C   0  0  0  0  0  0  0  0  0  0  0  0
    2.1040  -12.4500   -0.2080 N   0  0  0  0  0  0  0  0  0  0  0  0
    4.0380  -12.0140   -2.2730 C   0  0  0  0  0  0  0  0  0  0  0  0
    8.3980  -12.9670   -2.9390 N   0  0  0  0  0  0  0  0  0  0  0  0
    9.7650  -12.7530   -2.6640 C   0  0  0  0  0  0  0  0  0  0  0  0
   10.6490  -12.8100   -3.7490 C   0  0  0  0  0  0  0  0  0  0  0  0
   12.0190  -12.6100   -3.5690 C   0  0  0  0  0  0  0  0  0  0  0  0
   12.5230  -12.3530   -2.2960 C   0  0  0  0  0  0  0  0  0  0  0  0
   11.6600  -12.3000   -1.1930 C   0  0  0  0  0  0  0  0  0  0  0  0
   12.1860  -12.0100    0.1920 C   0  0  0  0  0  0  0  0  0  0  0  0
   13.2010  -11.1030    0.1830 F   0  0  0  0  0  0  0  0  0  0  0  0
   12.6810  -13.1140    0.8210 F   0  0  0  0  0  0  0  0  0  0  0  0
   11.2360  -11.5060    1.0270 F   0  0  0  0  0  0  0  0  0  0  0  0
   10.2800  -12.4980   -1.3910 C   0  0  0  0  0  0  0  0  0  0  0  0
    6.1550  -13.6490   -3.2220 H   0  0  0  0  0  0  0  0  0  0  0  0
    5.1249  -11.4573   -5.4556 H   0  0  0  0  0  0  0  0  0  0  0  0
    2.8561  -10.4432   -5.6143 H   0  0  0  0  0  0  0  0  0  0  0  0
    1.3449  -10.4246   -3.6375 H   0  0  0  0  0  0  0  0  0  0  0  0
    0.8329   -9.6824   -1.7320 H   0  0  0  0  0  0  0  0  0  0  0  0
   -1.2432   -8.8049    0.1077 H   0  0  0  0  0  0  0  0  0  0  0  0
   -2.0324   -9.8519    2.4344 H   0  0  0  0  0  0  0  0  0  0  0  0
    0.9330  -13.4970    2.6070 H   0  0  0  0  0  0  0  0  0  0  0  0
    2.7836  -14.6648    0.5992 H   0  0  0  0  0  0  0  0  0  0  0  0
    3.3897  -14.3429    2.2609 H   0  0  0  0  0  0  0  0  0  0  0  0
    3.3544  -17.1364    1.1599 H   0  0  0  0  0  0  0  0  0  0  0  0
    2.2813  -19.2139    1.9411 H   0  0  0  0  0  0  0  0  0  0  0  0
   -0.7440  -17.0562    3.8958 H   0  0  0  0  0  0  0  0  0  0  0  0
    0.2341  -14.9078    3.1834 H   0  0  0  0  0  0  0  0  0  0  0  0
    4.3698  -12.4716   -1.3293 H   0  0  0  0  0  0  0  0  0  0  0  0
    8.1420  -13.9110   -3.1750 H   0  0  0  0  0  0  0  0  0  0  0  0
   10.2585  -13.0151   -4.7567 H   0  0  0  0  0  0  0  0  0  0  0  0
   12.6999  -12.6553   -4.4317 H   0  0  0  0  0  0  0  0  0  0  0  0
   13.6020  -12.1911   -2.1560 H   0  0  0  0  0  0  0  0  0  0  0  0
    9.5971  -12.4511   -0.5299 H   0  0  0  0  0  0  0  0  0  0  0  0
  1  2  2  0
  2  3  1  0
  3  4  1  0
  4  5  2  0
  5  6  1  0
  6  7  2  0
  7  8  1  0
  8  9  1  0
  9 10  2  0
 10 11  1  0
 11 12  1  0
 12 13  2  0
 13 14  1  0
 14 15  2  0
 15 16  1  0
 16 17  1  0
 17 18  1  0
 18 19  1  0
 19 20  2  0
 20 21  1  0
 21 22  2  0
 22 23  1  0
 23 24  2  0
 16 25  2  0
  8 26  2  0
  2 27  1  0
 27 28  1  0
 28 29  2  0
 29 30  1  0
 30 31  2  0
 31 32  1  0
 32 33  1  0
 33 34  1  0
 33 35  1  0
 33 36  1  0
 32 37  2  0
 26  4  1  0
 37 28  1  0
 25  9  1  0
 15 11  1  0
 24 19  1  0
  3 38  1  0
  5 39  1  0
  6 40  1  0
  7 41  1  0
 10 42  1  0
 12 43  1  0
 13 44  1  0
 17 45  1  0
 18 46  1  0
 18 47  1  0
 20 48  1  0
 21 49  1  0
 23 50  1  0
 24 51  1  0
 26 52  1  0
 27 53  1  0
 29 54  1  0
 30 55  1  0
 31 56  1  0
 37 57  1  0
M  END
>  <meeko>  (4) 
{"is_sidechain": [false], "free_energy": -8.946, "intermolecular_energy": -12.084, "internal_energy": -1.064}

$$$$
LIB_NWEIPABWNQPRCZ__M_PUB_ALL__e8__s20260927
     RDKit          3D

 57 61  0  0  0  0  0  0  0  0999 V2000
    1.6280  -11.9730   -0.8370 O   0  0  0  0  0  0  0  0  0  0  0  0
    1.3950  -10.8940   -1.3630 C   0  0  0  0  0  0  0  0  0  0  0  0
    2.0720  -10.3790   -2.4600 N   0  0  0  0  0  0  0  0  0  0  0  0
    3.0860  -11.0010   -3.2200 C   0  0  0  0  0  0  0  0  0  0  0  0
    2.9470  -11.3770   -4.5550 C   0  0  0  0  0  0  0  0  0  0  0  0
    4.0100  -11.9750   -5.2360 C   0  0  0  0  0  0  0  0  0  0  0  0
    5.2200  -12.2100   -4.5850 C   0  0  0  0  0  0  0  0  0  0  0  0
    5.3830  -11.8550   -3.2400 C   0  0  0  0  0  0  0  0  0  0  0  0
    6.6570  -12.0820   -2.5160 C   0  0  0  0  0  0  0  0  0  0  0  0
    7.8240  -12.0800   -3.1960 C   0  0  0  0  0  0  0  0  0  0  0  0
    8.9880  -12.3060   -2.4950 N   0  0  0  0  0  0  0  0  0  0  0  0
   10.2990  -12.3640   -2.8770 C   0  0  0  0  0  0  0  0  0  0  0  0
   10.9990  -12.6240   -1.7160 C   0  0  0  0  0  0  0  0  0  0  0  0
   10.1540  -12.7270   -0.6370 N   0  0  0  0  0  0  0  0  0  0  0  0
    8.9560  -12.5310   -1.1470 C   0  0  0  0  0  0  0  0  0  0  0  0
    7.6770  -12.5350   -0.4580 C   0  0  0  0  0  0  0  0  0  0  0  0
    7.6190  -12.7600    0.8930 N   0  0  0  0  0  0  0  0  0  0  0  0
    6.4090  -12.7380    1.6660 C   0  0  0  0  0  0  0  0  0  0  0  0
    5.6370  -14.0110    1.4330 C   0  0  0  0  0  0  0  0  0  0  0  0
    6.3000  -15.2140    1.1760 C   0  0  0  0  0  0  0  0  0  0  0  0
    5.5440  -16.3520    0.9440 C   0  0  0  0  0  0  0  0  0  0  0  0
    4.1940  -16.3690    0.9440 N   0  0  0  0  0  0  0  0  0  0  0  0
    3.5720  -15.1960    1.1780 C   0  0  0  0  0  0  0  0  0  0  0  0
    4.2390  -14.0050    1.4220 C   0  0  0  0  0  0  0  0  0  0  0  0
    6.5780  -12.3230   -1.1470 N   0  0  0  0  0  0  0  0  0  0  0  0
    4.3100  -11.2400   -2.5750 C   0  0  0  0  0  0  0  0  0  0  0  0
    0.4130  -10.0050   -0.9420 N   0  0  0  0  0  0  0  0  0  0  0  0
   -0.4430  -10.1260    0.1720 C   0  0  0  0  0  0  0  0  0  0  0  0
   -0.2480   -9.2240    1.2260 C   0  0  0  0  0  0  0  0  0  0  0  0
   -1.0510   -9.2710    2.3670 C   0  0  0  0  0  0  0  0  0  0  0  0
   -2.0590  -10.2270    2.4700 C   0  0  0  0  0  0  0  0  0  0  0  0
   -2.2680  -11.1460    1.4330 C   0  0  0  0  0  0  0  0  0  0  0  0
   -3.3640  -12.1810    1.5210 C   0  0  0  0  0  0  0  0  0  0  0  0
   -4.3570  -11.9650    0.6140 F   0  0  0  0  0  0  0  0  0  0  0  0
   -3.9750  -12.2140    2.7390 F   0  0  0  0  0  0  0  0  0  0  0  0
   -2.9180  -13.4480    1.2980 F   0  0  0  0  0  0  0  0  0  0  0  0
   -1.4550  -11.0830    0.2860 C   0  0  0  0  0  0  0  0  0  0  0  0
    1.8420   -9.4380   -2.7340 H   0  0  0  0  0  0  0  0  0  0  0  0
    1.9940  -11.2017   -5.0757 H   0  0  0  0  0  0  0  0  0  0  0  0
    3.8916  -12.2619   -6.2913 H   0  0  0  0  0  0  0  0  0  0  0  0
    6.0525  -12.6774   -5.1313 H   0  0  0  0  0  0  0  0  0  0  0  0
    7.8443  -11.9025   -4.2814 H   0  0  0  0  0  0  0  0  0  0  0  0
   10.7076  -12.2321   -3.8897 H   0  0  0  0  0  0  0  0  0  0  0  0
   12.0921  -12.7345   -1.6615 H   0  0  0  0  0  0  0  0  0  0  0  0
    8.5040  -12.9030    1.3720 H   0  0  0  0  0  0  0  0  0  0  0  0
    6.6583  -12.6513    2.7339 H   0  0  0  0  0  0  0  0  0  0  0  0
    5.7957  -11.8777    1.3600 H   0  0  0  0  0  0  0  0  0  0  0  0
    7.3990  -15.2567    1.1582 H   0  0  0  0  0  0  0  0  0  0  0  0
    6.0743  -17.2957    0.7486 H   0  0  0  0  0  0  0  0  0  0  0  0
    2.4721  -15.1829    1.1752 H   0  0  0  0  0  0  0  0  0  0  0  0
    3.6799  -13.0751    1.6031 H   0  0  0  0  0  0  0  0  0  0  0  0
    4.4312  -10.9384   -1.5241 H   0  0  0  0  0  0  0  0  0  0  0  0
    0.2640   -9.1950   -1.5220 H   0  0  0  0  0  0  0  0  0  0  0  0
    0.5484   -8.4687    1.1536 H   0  0  0  0  0  0  0  0  0  0  0  0
   -0.8878   -8.5533    3.1845 H   0  0  0  0  0  0  0  0  0  0  0  0
   -2.6930  -10.2606    3.3683 H   0  0  0  0  0  0  0  0  0  0  0  0
   -1.6187  -11.7982   -0.5336 H   0  0  0  0  0  0  0  0  0  0  0  0
  1  2  2  0
  2  3  1  0
  3  4  1  0
  4  5  2  0
  5  6  1  0
  6  7  2  0
  7  8  1  0
  8  9  1  0
  9 10  2  0
 10 11  1  0
 11 12  1  0
 12 13  2  0
 13 14  1  0
 14 15  2  0
 15 16  1  0
 16 17  1  0
 17 18  1  0
 18 19  1  0
 19 20  2  0
 20 21  1  0
 21 22  2  0
 22 23  1  0
 23 24  2  0
 16 25  2  0
  8 26  2  0
  2 27  1  0
 27 28  1  0
 28 29  2  0
 29 30  1  0
 30 31  2  0
 31 32  1  0
 32 33  1  0
 33 34  1  0
 33 35  1  0
 33 36  1  0
 32 37  2  0
 26  4  1  0
 37 28  1  0
 25  9  1  0
 15 11  1  0
 24 19  1  0
  3 38  1  0
  5 39  1  0
  6 40  1  0
  7 41  1  0
 10 42  1  0
 12 43  1  0
 13 44  1  0
 17 45  1  0
 18 46  1  0
 18 47  1  0
 20 48  1  0
 21 49  1  0
 23 50  1  0
 24 51  1  0
 26 52  1  0
 27 53  1  0
 29 54  1  0
 30 55  1  0
 31 56  1  0
 37 57  1  0
M  END
>  <meeko>  (5) 
{"is_sidechain": [false], "free_energy": -8.857, "intermolecular_energy": -11.952, "internal_energy": -1.076}

$$$$
LIB_NWEIPABWNQPRCZ__M_PUB_ALL__e8__s20260927
     RDKit          3D

 57 61  0  0  0  0  0  0  0  0999 V2000
    7.1800  -14.5690   -5.4790 O   0  0  0  0  0  0  0  0  0  0  0  0
    6.8770  -13.7250   -6.3100 C   0  0  0  0  0  0  0  0  0  0  0  0
    7.2990  -13.7210   -7.6330 N   0  0  0  0  0  0  0  0  0  0  0  0
    8.0810  -14.6940   -8.2930 C   0  0  0  0  0  0  0  0  0  0  0  0
    7.5730  -15.6250   -9.1980 C   0  0  0  0  0  0  0  0  0  0  0  0
    8.4230  -16.5440   -9.8180 C   0  0  0  0  0  0  0  0  0  0  0  0
    9.7880  -16.5460   -9.5330 C   0  0  0  0  0  0  0  0  0  0  0  0
   10.3220  -15.6300   -8.6180 C   0  0  0  0  0  0  0  0  0  0  0  0
   11.7690  -15.5950   -8.2950 C   0  0  0  0  0  0  0  0  0  0  0  0
   12.6800  -15.6560   -9.2900 C   0  0  0  0  0  0  0  0  0  0  0  0
   14.0160  -15.6340   -8.9540 N   0  0  0  0  0  0  0  0  0  0  0  0
   15.1570  -15.6770   -9.7060 C   0  0  0  0  0  0  0  0  0  0  0  0
   16.1890  -15.6200   -8.7910 C   0  0  0  0  0  0  0  0  0  0  0  0
   15.7130  -15.5450   -7.5040 N   0  0  0  0  0  0  0  0  0  0  0  0
   14.4030  -15.5570   -7.6460 C   0  0  0  0  0  0  0  0  0  0  0  0
   13.3890  -15.5040   -6.6070 C   0  0  0  0  0  0  0  0  0  0  0  0
   13.7530  -15.4280   -5.2870 N   0  0  0  0  0  0  0  0  0  0  0  0
   12.8250  -15.3260   -4.1970 C   0  0  0  0  0  0  0  0  0  0  0  0
   12.9340  -13.9630   -3.5640 C   0  0  0  0  0  0  0  0  0  0  0  0
   11.9760  -13.5210   -2.6460 C   0  0  0  0  0  0  0  0  0  0  0  0
   12.1080  -12.2500   -2.1110 C   0  0  0  0  0  0  0  0  0  0  0  0
   13.1070  -11.4000   -2.4300 N   0  0  0  0  0  0  0  0  0  0  0  0
   14.0120  -11.8380   -3.3300 C   0  0  0  0  0  0  0  0  0  0  0  0
   13.9680  -13.0920   -3.9190 C   0  0  0  0  0  0  0  0  0  0  0  0
   12.1200  -15.5320   -6.9490 N   0  0  0  0  0  0  0  0  0  0  0  0
    9.4570  -14.7020   -8.0160 C   0  0  0  0  0  0  0  0  0  0  0  0
    6.0580  -12.6290   -6.0630 N   0  0  0  0  0  0  0  0  0  0  0  0
    5.4820  -12.2400   -4.8360 C   0  0  0  0  0  0  0  0  0  0  0  0
    4.0850  -12.1530   -4.7890 C   0  0  0  0  0  0  0  0  0  0  0  0
    3.4300  -11.7760   -3.6140 C   0  0  0  0  0  0  0  0  0  0  0  0
    4.1680  -11.4770   -2.4710 C   0  0  0  0  0  0  0  0  0  0  0  0
    5.5670  -11.5480   -2.4970 C   0  0  0  0  0  0  0  0  0  0  0  0
    6.3830  -11.2400   -1.2650 C   0  0  0  0  0  0  0  0  0  0  0  0
    6.8150   -9.9490   -1.2350 F   0  0  0  0  0  0  0  0  0  0  0  0
    7.5050  -12.0080   -1.1580 F   0  0  0  0  0  0  0  0  0  0  0  0
    5.6930  -11.4340   -0.1070 F   0  0  0  0  0  0  0  0  0  0  0  0
    6.2140  -11.9350   -3.6860 C   0  0  0  0  0  0  0  0  0  0  0  0
    7.0520  -12.9170   -8.1850 H   0  0  0  0  0  0  0  0  0  0  0  0
    6.4968  -15.6359   -9.4251 H   0  0  0  0  0  0  0  0  0  0  0  0
    8.0131  -17.2703  -10.5352 H   0  0  0  0  0  0  0  0  0  0  0  0
   10.4492  -17.2713  -10.0297 H   0  0  0  0  0  0  0  0  0  0  0  0
   12.3636  -15.7216  -10.3415 H   0  0  0  0  0  0  0  0  0  0  0  0
   15.2355  -15.7427  -10.8012 H   0  0  0  0  0  0  0  0  0  0  0  0
   17.2560  -15.6330   -9.0579 H   0  0  0  0  0  0  0  0  0  0  0  0
   14.7490  -15.3950   -5.0880 H   0  0  0  0  0  0  0  0  0  0  0  0
   11.8018  -15.4741   -4.5727 H   0  0  0  0  0  0  0  0  0  0  0  0
   13.0577  -16.0961   -3.4468 H   0  0  0  0  0  0  0  0  0  0  0  0
   11.1358  -14.1686   -2.3550 H   0  0  0  0  0  0  0  0  0  0  0  0
   11.3545  -11.9137   -1.3836 H   0  0  0  0  0  0  0  0  0  0  0  0
   14.8317  -11.1610   -3.6125 H   0  0  0  0  0  0  0  0  0  0  0  0
   14.7311  -13.3955   -4.6508 H   0  0  0  0  0  0  0  0  0  0  0  0
    9.8673  -13.9641   -7.3109 H   0  0  0  0  0  0  0  0  0  0  0  0
    5.8130  -12.0650   -6.8600 H   0  0  0  0  0  0  0  0  0  0  0  0
    3.4960  -12.3845   -5.6887 H   0  0  0  0  0  0  0  0  0  0  0  0
    2.3319  -11.7153   -3.5914 H   0  0  0  0  0  0  0  0  0  0  0  0
    3.6509  -11.1843   -1.5453 H   0  0  0  0  0  0  0  0  0  0  0  0
    7.3119  -11.9981   -3.7098 H   0  0  0  0  0  0  0  0  0  0  0  0
  1  2  2  0
  2  3  1  0
  3  4  1  0
  4  5  2  0
  5  6  1  0
  6  7  2  0
  7  8  1  0
  8  9  1  0
  9 10  2  0
 10 11  1  0
 11 12  1  0
 12 13  2  0
 13 14  1  0
 14 15  2  0
 15 16  1  0
 16 17  1  0
 17 18  1  0
 18 19  1  0
 19 20  2  0
 20 21  1  0
 21 22  2  0
 22 23  1  0
 23 24  2  0
 16 25  2  0
  8 26  2  0
  2 27  1  0
 27 28  1  0
 28 29  2  0
 29 30  1  0
 30 31  2  0
 31 32  1  0
 32 33  1  0
 33 34  1  0
 33 35  1  0
 33 36  1  0
 32 37  2  0
 26  4  1  0
 37 28  1  0
 25  9  1  0
 15 11  1  0
 24 19  1  0
  3 38  1  0
  5 39  1  0
  6 40  1  0
  7 41  1  0
 10 42  1  0
 12 43  1  0
 13 44  1  0
 17 45  1  0
 18 46  1  0
 18 47  1  0
 20 48  1  0
 21 49  1  0
 23 50  1  0
 24 51  1  0
 26 52  1  0
 27 53  1  0
 29 54  1  0
 30 55  1  0
 31 56  1  0
 37 57  1  0
M  END
>  <meeko>  (6) 
{"is_sidechain": [false], "free_energy": -8.836, "intermolecular_energy": -11.731, "internal_energy": -1.27}

$$$$
LIB_NWEIPABWNQPRCZ__M_PUB_ALL__e8__s20260927
     RDKit          3D

 57 61  0  0  0  0  0  0  0  0999 V2000
    7.5750  -11.4210   -1.2350 O   0  0  0  0  0  0  0  0  0  0  0  0
    7.6700  -12.5250   -0.7160 C   0  0  0  0  0  0  0  0  0  0  0  0
    6.6030  -13.3640   -0.4280 N   0  0  0  0  0  0  0  0  0  0  0  0
    5.2390  -13.1620   -0.7260 C   0  0  0  0  0  0  0  0  0  0  0  0
    4.7660  -12.6780   -1.9460 C   0  0  0  0  0  0  0  0  0  0  0  0
    3.3950  -12.5220   -2.1610 C   0  0  0  0  0  0  0  0  0  0  0  0
    2.4830  -12.8410   -1.1560 C   0  0  0  0  0  0  0  0  0  0  0  0
    2.9300  -13.3160    0.0830 C   0  0  0  0  0  0  0  0  0  0  0  0
    1.9920  -13.6740    1.1740 C   0  0  0  0  0  0  0  0  0  0  0  0
    2.2140  -14.7810    1.9130 C   0  0  0  0  0  0  0  0  0  0  0  0
    1.3150  -15.0920    2.9100 N   0  0  0  0  0  0  0  0  0  0  0  0
    1.2570  -16.1160    3.8140 C   0  0  0  0  0  0  0  0  0  0  0  0
    0.1150  -15.8770    4.5520 C   0  0  0  0  0  0  0  0  0  0  0  0
   -0.5270  -14.7390    4.1240 N   0  0  0  0  0  0  0  0  0  0  0  0
    0.2260  -14.2990    3.1370 C   0  0  0  0  0  0  0  0  0  0  0  0
    0.0200  -13.1220    2.3100 C   0  0  0  0  0  0  0  0  0  0  0  0
   -1.0660  -12.3110    2.5170 N   0  0  0  0  0  0  0  0  0  0  0  0
   -1.3280  -11.1060    1.7820 C   0  0  0  0  0  0  0  0  0  0  0  0
   -2.6150  -11.2520    1.0120 C   0  0  0  0  0  0  0  0  0  0  0  0
   -3.4930  -12.3070    1.2790 C   0  0  0  0  0  0  0  0  0  0  0  0
   -4.6520  -12.4110    0.5270 C   0  0  0  0  0  0  0  0  0  0  0  0
   -4.9860  -11.5530   -0.4600 N   0  0  0  0  0  0  0  0  0  0  0  0
   -4.1200  -10.5510   -0.7130 C   0  0  0  0  0  0  0  0  0  0  0  0
   -2.9370  -10.3610   -0.0170 C   0  0  0  0  0  0  0  0  0  0  0  0
    0.8870  -12.8470    1.3600 N   0  0  0  0  0  0  0  0  0  0  0  0
    4.3120  -13.4830    0.2770 C   0  0  0  0  0  0  0  0  0  0  0  0
    8.8670  -13.1160   -0.3300 N   0  0  0  0  0  0  0  0  0  0  0  0
   10.1640  -12.5650   -0.3920 C   0  0  0  0  0  0  0  0  0  0  0  0
   10.6300  -11.9040    0.7520 C   0  0  0  0  0  0  0  0  0  0  0  0
   11.9020  -11.3290    0.7790 C   0  0  0  0  0  0  0  0  0  0  0  0
   12.7250  -11.4060   -0.3430 C   0  0  0  0  0  0  0  0  0  0  0  0
   12.2770  -12.0530   -1.5030 C   0  0  0  0  0  0  0  0  0  0  0  0
   13.1580  -12.1570   -2.7240 C   0  0  0  0  0  0  0  0  0  0  0  0
   14.3090  -11.4400   -2.5970 F   0  0  0  0  0  0  0  0  0  0  0  0
   12.5590  -11.6980   -3.8590 F   0  0  0  0  0  0  0  0  0  0  0  0
   13.5370  -13.4350   -2.9980 F   0  0  0  0  0  0  0  0  0  0  0  0
   10.9940  -12.6330   -1.5130 C   0  0  0  0  0  0  0  0  0  0  0  0
    6.8140  -14.2050    0.0860 H   0  0  0  0  0  0  0  0  0  0  0  0
    5.4774  -12.4176   -2.7436 H   0  0  0  0  0  0  0  0  0  0  0  0
    3.0326  -12.1453   -3.1289 H   0  0  0  0  0  0  0  0  0  0  0  0
    1.4050  -12.7187   -1.3376 H   0  0  0  0  0  0  0  0  0  0  0  0
    3.0901  -15.4188    1.7244 H   0  0  0  0  0  0  0  0  0  0  0  0
    1.9661  -16.9491    3.9284 H   0  0  0  0  0  0  0  0  0  0  0  0
   -0.2361  -16.5150    5.3764 H   0  0  0  0  0  0  0  0  0  0  0  0
   -1.6910  -12.5680    3.2750 H   0  0  0  0  0  0  0  0  0  0  0  0
   -1.4142  -10.2619    2.4820 H   0  0  0  0  0  0  0  0  0  0  0  0
   -0.5019  -10.9200    1.0799 H   0  0  0  0  0  0  0  0  0  0  0  0
   -3.2684  -13.0386    2.0691 H   0  0  0  0  0  0  0  0  0  0  0  0
   -5.3398  -13.2408    0.7470 H   0  0  0  0  0  0  0  0  0  0  0  0
   -4.3669   -9.8436   -1.5184 H   0  0  0  0  0  0  0  0  0  0  0  0
   -2.2652   -9.5270   -0.2684 H   0  0  0  0  0  0  0  0  0  0  0  0
    4.6756  -13.8748    1.2384 H   0  0  0  0  0  0  0  0  0  0  0  0
    8.8110  -14.0660   -0.0020 H   0  0  0  0  0  0  0  0  0  0  0  0
    9.9852  -11.8372    1.6407 H   0  0  0  0  0  0  0  0  0  0  0  0
   12.2544  -10.8154    1.6856 H   0  0  0  0  0  0  0  0  0  0  0  0
   13.7292  -10.9577   -0.3183 H   0  0  0  0  0  0  0  0  0  0  0  0
   10.6398  -13.1479   -2.4182 H   0  0  0  0  0  0  0  0  0  0  0  0
  1  2  2  0
  2  3  1  0
  3  4  1  0
  4  5  2  0
  5  6  1  0
  6  7  2  0
  7  8  1  0
  8  9  1  0
  9 10  2  0
 10 11  1  0
 11 12  1  0
 12 13  2  0
 13 14  1  0
 14 15  2  0
 15 16  1  0
 16 17  1  0
 17 18  1  0
 18 19  1  0
 19 20  2  0
 20 21  1  0
 21 22  2  0
 22 23  1  0
 23 24  2  0
 16 25  2  0
  8 26  2  0
  2 27  1  0
 27 28  1  0
 28 29  2  0
 29 30  1  0
 30 31  2  0
 31 32  1  0
 32 33  1  0
 33 34  1  0
 33 35  1  0
 33 36  1  0
 32 37  2  0
 26  4  1  0
 37 28  1  0
 25  9  1  0
 15 11  1  0
 24 19  1  0
  3 38  1  0
  5 39  1  0
  6 40  1  0
  7 41  1  0
 10 42  1  0
 12 43  1  0
 13 44  1  0
 17 45  1  0
 18 46  1  0
 18 47  1  0
 20 48  1  0
 21 49  1  0
 23 50  1  0
 24 51  1  0
 26 52  1  0
 27 53  1  0
 29 54  1  0
 30 55  1  0
 31 56  1  0
 37 57  1  0
M  END
>  <meeko>  (7) 
{"is_sidechain": [false], "free_energy": -8.816, "intermolecular_energy": -12.09, "internal_energy": -0.884}

$$$$
LIB_NWEIPABWNQPRCZ__M_PUB_ALL__e8__s20260927
     RDKit          3D

 57 61  0  0  0  0  0  0  0  0999 V2000
    4.0460  -12.9960   -6.6080 O   0  0  0  0  0  0  0  0  0  0  0  0
    5.0510  -12.8550   -5.9260 C   0  0  0  0  0  0  0  0  0  0  0  0
    5.0980  -12.2040   -4.7010 N   0  0  0  0  0  0  0  0  0  0  0  0
    4.0220  -11.6500   -3.9750 C   0  0  0  0  0  0  0  0  0  0  0  0
    3.3240  -10.5060   -4.3590 C   0  0  0  0  0  0  0  0  0  0  0  0
    2.2600  -10.0340   -3.5870 C   0  0  0  0  0  0  0  0  0  0  0  0
    1.8890  -10.6970   -2.4180 C   0  0  0  0  0  0  0  0  0  0  0  0
    2.5820  -11.8410   -2.0010 C   0  0  0  0  0  0  0  0  0  0  0  0
    2.2130  -12.5780   -0.7690 C   0  0  0  0  0  0  0  0  0  0  0  0
    1.1160  -12.2120   -0.0720 C   0  0  0  0  0  0  0  0  0  0  0  0
    0.8090  -12.9100    1.0750 N   0  0  0  0  0  0  0  0  0  0  0  0
   -0.2080  -12.7930    1.9820 C   0  0  0  0  0  0  0  0  0  0  0  0
    0.0300  -13.7830    2.9150 C   0  0  0  0  0  0  0  0  0  0  0  0
    1.1620  -14.4990    2.6050 N   0  0  0  0  0  0  0  0  0  0  0  0
    1.6000  -13.9420    1.4950 C   0  0  0  0  0  0  0  0  0  0  0  0
    2.7760  -14.2950    0.7200 C   0  0  0  0  0  0  0  0  0  0  0  0
    3.5860  -15.3270    1.1200 N   0  0  0  0  0  0  0  0  0  0  0  0
    4.7420  -15.7760    0.3970 C   0  0  0  0  0  0  0  0  0  0  0  0
    5.8360  -14.7450    0.4990 C   0  0  0  0  0  0  0  0  0  0  0  0
    6.7190  -14.5310   -0.5640 C   0  0  0  0  0  0  0  0  0  0  0  0
    7.7230  -13.5890   -0.4120 C   0  0  0  0  0  0  0  0  0  0  0  0
    7.9090  -12.8640    0.7120 N   0  0  0  0  0  0  0  0  0  0  0  0
    7.0570  -13.0950    1.7320 C   0  0  0  0  0  0  0  0  0  0  0  0
    6.0210  -14.0150    1.6770 C   0  0  0  0  0  0  0  0  0  0  0  0
    3.0550  -13.6120   -0.3690 N   0  0  0  0  0  0  0  0  0  0  0  0
    3.6390  -12.3110   -2.7990 C   0  0  0  0  0  0  0  0  0  0  0  0
    6.3130  -13.3260   -6.2710 N   0  0  0  0  0  0  0  0  0  0  0  0
    6.6970  -13.9800   -7.4600 C   0  0  0  0  0  0  0  0  0  0  0  0
    7.0930  -15.3190   -7.3500 C   0  0  0  0  0  0  0  0  0  0  0  0
    7.4890  -16.0440   -8.4760 C   0  0  0  0  0  0  0  0  0  0  0  0
    7.4950  -15.4340   -9.7290 C   0  0  0  0  0  0  0  0  0  0  0  0
    7.1120  -14.0930   -9.8630 C   0  0  0  0  0  0  0  0  0  0  0  0
    7.1010  -13.4190  -11.2140 C   0  0  0  0  0  0  0  0  0  0  0  0
    6.1670  -13.9490  -12.0520 F   0  0  0  0  0  0  0  0  0  0  0  0
    8.2900  -13.5180  -11.8730 F   0  0  0  0  0  0  0  0  0  0  0  0
    6.8290  -12.0870  -11.1410 F   0  0  0  0  0  0  0  0  0  0  0  0
    6.7100  -13.3760   -8.7200 C   0  0  0  0  0  0  0  0  0  0  0  0
    6.0080  -12.0770   -4.2900 H   0  0  0  0  0  0  0  0  0  0  0  0
    3.6131   -9.9716   -5.2760 H   0  0  0  0  0  0  0  0  0  0  0  0
    1.7118   -9.1343   -3.9031 H   0  0  0  0  0  0  0  0  0  0  0  0
    1.0469  -10.3195   -1.8193 H   0  0  0  0  0  0  0  0  0  0  0  0
    0.4840  -11.3781   -0.4114 H   0  0  0  0  0  0  0  0  0  0  0  0
   -1.0354  -12.0682    1.9708 H   0  0  0  0  0  0  0  0  0  0  0  0
   -0.6044  -13.9741    3.7931 H   0  0  0  0  0  0  0  0  0  0  0  0
    3.3100  -15.8250    1.9620 H   0  0  0  0  0  0  0  0  0  0  0  0
    5.0942  -16.7265    0.8242 H   0  0  0  0  0  0  0  0  0  0  0  0
    4.4765  -15.9225   -0.6604 H   0  0  0  0  0  0  0  0  0  0  0  0
    6.6184  -15.0986   -1.5008 H   0  0  0  0  0  0  0  0  0  0  0  0
    8.4086  -13.4218   -1.2558 H   0  0  0  0  0  0  0  0  0  0  0  0
    7.1918  -12.5207    2.6605 H   0  0  0  0  0  0  0  0  0  0  0  0
    5.3587  -14.1673    2.5419 H   0  0  0  0  0  0  0  0  0  0  0  0
    4.1790  -13.2194   -2.4938 H   0  0  0  0  0  0  0  0  0  0  0  0
    7.0330  -13.2240   -5.5750 H   0  0  0  0  0  0  0  0  0  0  0  0
    7.0921  -15.8060   -6.3637 H   0  0  0  0  0  0  0  0  0  0  0  0
    7.7958  -17.0954   -8.3740 H   0  0  0  0  0  0  0  0  0  0  0  0
    7.8016  -16.0075  -10.6162 H   0  0  0  0  0  0  0  0  0  0  0  0
    6.4016  -12.3249   -8.8203 H   0  0  0  0  0  0  0  0  0  0  0  0
  1  2  2  0
  2  3  1  0
  3  4  1  0
  4  5  2  0
  5  6  1  0
  6  7  2  0
  7  8  1  0
  8  9  1  0
  9 10  2  0
 10 11  1  0
 11 12  1  0
 12 13  2  0
 13 14  1  0
 14 15  2  0
 15 16  1  0
 16 17  1  0
 17 18  1  0
 18 19  1  0
 19 20  2  0
 20 21  1  0
 21 22  2  0
 22 23  1  0
 23 24  2  0
 16 25  2  0
  8 26  2  0
  2 27  1  0
 27 28  1  0
 28 29  2  0
 29 30  1  0
 30 31  2  0
 31 32  1  0
 32 33  1  0
 33 34  1  0
 33 35  1  0
 33 36  1  0
 32 37  2  0
 26  4  1  0
 37 28  1  0
 25  9  1  0
 15 11  1  0
 24 19  1  0
  3 38  1  0
  5 39  1  0
  6 40  1  0
  7 41  1  0
 10 42  1  0
 12 43  1  0
 13 44  1  0
 17 45  1  0
 18 46  1  0
 18 47  1  0
 20 48  1  0
 21 49  1  0
 23 50  1  0
 24 51  1  0
 26 52  1  0
 27 53  1  0
 29 54  1  0
 30 55  1  0
 31 56  1  0
 37 57  1  0
M  END
>  <meeko>  (8) 
{"is_sidechain": [false], "free_energy": -8.686, "intermolecular_energy": -11.846, "internal_energy": -0.953}

$$$$
LIB_NWEIPABWNQPRCZ__M_PUB_ALL__e8__s20260927
     RDKit          3D

 57 61  0  0  0  0  0  0  0  0999 V2000
    7.5070  -11.0220   -2.2860 O   0  0  0  0  0  0  0  0  0  0  0  0
    7.3830  -12.2230   -2.0920 C   0  0  0  0  0  0  0  0  0  0  0  0
    6.1900  -12.9260   -2.1870 N   0  0  0  0  0  0  0  0  0  0  0  0
    4.9270  -12.4370   -2.5830 C   0  0  0  0  0  0  0  0  0  0  0  0
    4.6690  -11.8400   -3.8170 C   0  0  0  0  0  0  0  0  0  0  0  0
    3.3830  -11.3960   -4.1330 C   0  0  0  0  0  0  0  0  0  0  0  0
    2.3440  -11.5370   -3.2140 C   0  0  0  0  0  0  0  0  0  0  0  0
    2.5770  -12.1200   -1.9620 C   0  0  0  0  0  0  0  0  0  0  0  0
    1.4970  -12.2950   -0.9630 C   0  0  0  0  0  0  0  0  0  0  0  0
    1.1580  -11.2670   -0.1560 C   0  0  0  0  0  0  0  0  0  0  0  0
    0.1580  -11.4670    0.7710 N   0  0  0  0  0  0  0  0  0  0  0  0
   -0.4080  -10.6500    1.7100 C   0  0  0  0  0  0  0  0  0  0  0  0
   -1.3630  -11.4270    2.3330 C   0  0  0  0  0  0  0  0  0  0  0  0
   -1.3960  -12.6960    1.8030 N   0  0  0  0  0  0  0  0  0  0  0  0
   -0.4670  -12.6780    0.8700 C   0  0  0  0  0  0  0  0  0  0  0  0
   -0.0630  -13.7590   -0.0120 C   0  0  0  0  0  0  0  0  0  0  0  0
   -0.6750  -14.9840    0.0680 N   0  0  0  0  0  0  0  0  0  0  0  0
   -0.3750  -16.0960   -0.7890 C   0  0  0  0  0  0  0  0  0  0  0  0
    0.6300  -16.9960   -0.1170 C   0  0  0  0  0  0  0  0  0  0  0  0
    0.4570  -17.3970    1.2110 C   0  0  0  0  0  0  0  0  0  0  0  0
    1.4220  -18.2050    1.7910 C   0  0  0  0  0  0  0  0  0  0  0  0
    2.5320  -18.6280    1.1500 N   0  0  0  0  0  0  0  0  0  0  0  0
    2.6890  -18.2190   -0.1260 C   0  0  0  0  0  0  0  0  0  0  0  0
    1.7810  -17.4120   -0.7940 C   0  0  0  0  0  0  0  0  0  0  0  0
    0.8970  -13.5490   -0.8850 N   0  0  0  0  0  0  0  0  0  0  0  0
    3.8730  -12.5760   -1.6670 C   0  0  0  0  0  0  0  0  0  0  0  0
    8.4210  -13.0790   -1.7420 N   0  0  0  0  0  0  0  0  0  0  0  0
    9.7670  -12.7460   -1.4850 C   0  0  0  0  0  0  0  0  0  0  0  0
   10.1090  -12.4620   -0.1570 C   0  0  0  0  0  0  0  0  0  0  0  0
   11.4190  -12.1240    0.1890 C   0  0  0  0  0  0  0  0  0  0  0  0
   12.4050  -12.0630   -0.7940 C   0  0  0  0  0  0  0  0  0  0  0  0
   12.0850  -12.3330   -2.1310 C   0  0  0  0  0  0  0  0  0  0  0  0
   13.1410  -12.2850   -3.2080 C   0  0  0  0  0  0  0  0  0  0  0  0
   12.6090  -12.3230   -4.4610 F   0  0  0  0  0  0  0  0  0  0  0  0
   14.0200  -13.3260   -3.1460 F   0  0  0  0  0  0  0  0  0  0  0  0
   13.9030  -11.1570   -3.1550 F   0  0  0  0  0  0  0  0  0  0  0  0
   10.7610  -12.6790   -2.4640 C   0  0  0  0  0  0  0  0  0  0  0  0
    6.2110  -13.8940   -1.9090 H   0  0  0  0  0  0  0  0  0  0  0  0
    5.4837  -11.7181   -4.5460 H   0  0  0  0  0  0  0  0  0  0  0  0
    3.1890  -10.9328   -5.1117 H   0  0  0  0  0  0  0  0  0  0  0  0
    1.3339  -11.1878   -3.4742 H   0  0  0  0  0  0  0  0  0  0  0  0
    1.6668  -10.2951   -0.2363 H   0  0  0  0  0  0  0  0  0  0  0  0
   -0.1565   -9.6005    1.9227 H   0  0  0  0  0  0  0  0  0  0  0  0
   -2.0137  -11.0770    3.1479 H   0  0  0  0  0  0  0  0  0  0  0  0
   -1.4190  -15.0800    0.7530 H   0  0  0  0  0  0  0  0  0  0  0  0
   -1.2964  -16.6621   -0.9901 H   0  0  0  0  0  0  0  0  0  0  0  0
    0.0433  -15.7246   -1.7361 H   0  0  0  0  0  0  0  0  0  0  0  0
   -0.4264  -17.0779    1.7835 H   0  0  0  0  0  0  0  0  0  0  0  0
    1.2748  -18.5200    2.8346 H   0  0  0  0  0  0  0  0  0  0  0  0
    3.5894  -18.5446   -0.6676 H   0  0  0  0  0  0  0  0  0  0  0  0
    1.9620  -17.1053   -1.8347 H   0  0  0  0  0  0  0  0  0  0  0  0
    4.0659  -13.0533   -0.6949 H   0  0  0  0  0  0  0  0  0  0  0  0
    8.1980  -14.0600   -1.7060 H   0  0  0  0  0  0  0  0  0  0  0  0
    9.3355  -12.5058    0.6239 H   0  0  0  0  0  0  0  0  0  0  0  0
   11.6725  -11.9060    1.2369 H   0  0  0  0  0  0  0  0  0  0  0  0
   13.4377  -11.8021   -0.5193 H   0  0  0  0  0  0  0  0  0  0  0  0
   10.5058  -12.8998   -3.5110 H   0  0  0  0  0  0  0  0  0  0  0  0
  1  2  2  0
  2  3  1  0
  3  4  1  0
  4  5  2  0
  5  6  1  0
  6  7  2  0
  7  8  1  0
  8  9  1  0
  9 10  2  0
 10 11  1  0
 11 12  1  0
 12 13  2  0
 13 14  1  0
 14 15  2  0
 15 16  1  0
 16 17  1  0
 17 18  1  0
 18 19  1  0
 19 20  2  0
 20 21  1  0
 21 22  2  0
 22 23  1  0
 23 24  2  0
 16 25  2  0
  8 26  2  0
  2 27  1  0
 27 28  1  0
 28 29  2  0
 29 30  1  0
 30 31  2  0
 31 32  1  0
 32 33  1  0
 33 34  1  0
 33 35  1  0
 33 36  1  0
 32 37  2  0
 26  4  1  0
 37 28  1  0
 25  9  1  0
 15 11  1  0
 24 19  1  0
  3 38  1  0
  5 39  1  0
  6 40  1  0
  7 41  1  0
 10 42  1  0
 12 43  1  0
 13 44  1  0
 17 45  1  0
 18 46  1  0
 18 47  1  0
 20 48  1  0
 21 49  1  0
 23 50  1  0
 24 51  1  0
 26 52  1  0
 27 53  1  0
 29 54  1  0
 30 55  1  0
 31 56  1  0
 37 57  1  0
M  END
>  <meeko>  (9) 
{"is_sidechain": [false], "free_energy": -8.507, "intermolecular_energy": -11.45, "internal_energy": -1.106}

$$$$
