LIB_PGAGZKDWBHDEKT__M_PUB_ALL__e8__s20260927
     RDKit          3D

 60 64  0  0  0  0  0  0  0  0999 V2000
   11.4640  -15.9740   -6.4230 C   0  0  0  0  0  0  0  0  0  0  0  0
   12.7260  -15.2530   -6.5020 N   0  0  0  0  0  0  0  0  0  0  0  0
   13.5080  -15.1650   -5.2720 C   0  0  0  0  0  0  0  0  0  0  0  0
   13.2540  -13.8630   -4.5480 C   0  0  0  0  0  0  0  0  0  0  0  0
   14.2970  -12.9860   -4.2350 C   0  0  0  0  0  0  0  0  0  0  0  0
   13.9980  -11.8040   -3.5750 C   0  0  0  0  0  0  0  0  0  0  0  0
   12.7510  -11.4360   -3.2090 N   0  0  0  0  0  0  0  0  0  0  0  0
   11.7560  -12.2930   -3.5270 C   0  0  0  0  0  0  0  0  0  0  0  0
   11.9560  -13.4960   -4.1840 C   0  0  0  0  0  0  0  0  0  0  0  0
   13.2000  -14.7330   -7.7090 C   0  0  0  0  0  0  0  0  0  0  0  0
   12.4580  -13.8490   -8.3520 N   0  0  0  0  0  0  0  0  0  0  0  0
   12.8820  -13.3010   -9.5530 C   0  0  0  0  0  0  0  0  0  0  0  0
   12.0100  -12.2900  -10.1860 C   0  0  0  0  0  0  0  0  0  0  0  0
   10.8070  -12.6460  -10.8070 C   0  0  0  0  0  0  0  0  0  0  0  0
   10.0010  -11.6690  -11.3890 C   0  0  0  0  0  0  0  0  0  0  0  0
   10.3870  -10.3270  -11.3450 C   0  0  0  0  0  0  0  0  0  0  0  0
   11.5790   -9.9460  -10.7160 C   0  0  0  0  0  0  0  0  0  0  0  0
   11.8920   -8.5690  -10.7060 N   0  0  0  0  0  0  0  0  0  0  0  0
   11.7300   -7.6530  -11.7370 C   0  0  0  0  0  0  0  0  0  0  0  0
   11.3380   -7.9240  -12.8640 O   0  0  0  0  0  0  0  0  0  0  0  0
   12.0760   -6.3780  -11.3070 N   0  0  0  0  0  0  0  0  0  0  0  0
   12.1830   -5.2080  -12.0890 C   0  0  0  0  0  0  0  0  0  0  0  0
   13.3810   -4.7330  -12.6250 C   0  0  0  0  0  0  0  0  0  0  0  0
   13.4070   -3.5590  -13.3810 C   0  0  0  0  0  0  0  0  0  0  0  0
   12.2340   -2.8420  -13.6070 C   0  0  0  0  0  0  0  0  0  0  0  0
   11.0190   -3.2970  -13.0790 C   0  0  0  0  0  0  0  0  0  0  0  0
    9.7470   -2.5180  -13.2940 C   0  0  0  0  0  0  0  0  0  0  0  0
    8.6470   -3.1990  -12.8710 F   0  0  0  0  0  0  0  0  0  0  0  0
    9.7250   -1.3250  -12.6390 F   0  0  0  0  0  0  0  0  0  0  0  0
    9.5210   -2.2250  -14.6060 F   0  0  0  0  0  0  0  0  0  0  0  0
   11.0090   -4.4770  -12.3130 C   0  0  0  0  0  0  0  0  0  0  0  0
   12.3840  -10.9350  -10.1470 C   0  0  0  0  0  0  0  0  0  0  0  0
   14.0530  -13.6200  -10.1360 C   0  0  0  0  0  0  0  0  0  0  0  0
   14.8570  -14.5410   -9.5050 N   0  0  0  0  0  0  0  0  0  0  0  0
   16.0780  -15.0590   -9.8420 C   0  0  0  0  0  0  0  0  0  0  0  0
   16.3840  -15.9390   -8.8280 C   0  0  0  0  0  0  0  0  0  0  0  0
   15.3870  -15.9720   -7.8850 N   0  0  0  0  0  0  0  0  0  0  0  0
   14.4820  -15.1150   -8.3190 C   0  0  0  0  0  0  0  0  0  0  0  0
   11.1950  -16.1277   -5.3675 H   0  0  0  0  0  0  0  0  0  0  0  0
   10.6761  -15.3897   -6.9209 H   0  0  0  0  0  0  0  0  0  0  0  0
   11.5672  -16.9494   -6.9209 H   0  0  0  0  0  0  0  0  0  0  0  0
   13.2323  -16.0009   -4.6122 H   0  0  0  0  0  0  0  0  0  0  0  0
   14.5748  -15.2113   -5.5364 H   0  0  0  0  0  0  0  0  0  0  0  0
   15.3347  -13.2292   -4.5071 H   0  0  0  0  0  0  0  0  0  0  0  0
   14.8281  -11.1235   -3.3344 H   0  0  0  0  0  0  0  0  0  0  0  0
   10.7277  -12.0196   -3.2480 H   0  0  0  0  0  0  0  0  0  0  0  0
   11.1048  -14.1531   -4.4159 H   0  0  0  0  0  0  0  0  0  0  0  0
   10.4965  -13.7009  -10.8358 H   0  0  0  0  0  0  0  0  0  0  0  0
    9.0607  -11.9547  -11.8831 H   0  0  0  0  0  0  0  0  0  0  0  0
    9.7479   -9.5615  -11.8093 H   0  0  0  0  0  0  0  0  0  0  0  0
   12.3480   -8.2310   -9.8740 H   0  0  0  0  0  0  0  0  0  0  0  0
   12.1970   -6.2590  -10.3140 H   0  0  0  0  0  0  0  0  0  0  0  0
   14.3140   -5.2889  -12.4502 H   0  0  0  0  0  0  0  0  0  0  0  0
   14.3581   -3.1987  -13.8000 H   0  0  0  0  0  0  0  0  0  0  0  0
   12.2621   -1.9168  -14.2013 H   0  0  0  0  0  0  0  0  0  0  0  0
   10.0615   -4.8324  -11.8818 H   0  0  0  0  0  0  0  0  0  0  0  0
   13.3277  -10.6490   -9.6595 H   0  0  0  0  0  0  0  0  0  0  0  0
   14.3573  -13.1587  -11.0871 H   0  0  0  0  0  0  0  0  0  0  0  0
   16.6833  -14.8236  -10.7298 H   0  0  0  0  0  0  0  0  0  0  0  0
   17.3061  -16.5369   -8.7800 H   0  0  0  0  0  0  0  0  0  0  0  0
  1  2  1  0
  2  3  1  0
  3  4  1  0
  4  5  2  0
  5  6  1  0
  6  7  2  0
  7  8  1  0
  8  9  2  0
  2 10  1  0
 10 11  2  0
 11 12  1  0
 12 13  1  0
 13 14  2  0
 14 15  1  0
 15 16  2  0
 16 17  1  0
 17 18  1  0
 18 19  1  0
 19 20  2  0
 19 21  1  0
 21 22  1  0
 22 23  2  0
 23 24  1  0
 24 25  2  0
 25 26  1  0
 26 27  1  0
 27 28  1  0
 27 29  1  0
 27 30  1  0
 26 31  2  0
 17 32  2  0
 12 33  2  0
 33 34  1  0
 34 35  1  0
 35 36  2  0
 36 37  1  0
 37 38  2  0
  9  4  1  0
 38 10  1  0
 32 13  1  0
 38 34  1  0
 31 22  1  0
  1 39  1  0
  1 40  1  0
  1 41  1  0
  3 42  1  0
  3 43  1  0
  5 44  1  0
  6 45  1  0
  8 46  1  0
  9 47  1  0
 14 48  1  0
 15 49  1  0
 16 50  1  0
 18 51  1  0
 21 52  1  0
 23 53  1  0
 24 54  1  0
 25 55  1  0
 31 56  1  0
 32 57  1  0
 33 58  1  0
 35 59  1  0
 36 60  1  0
M  END
>  <meeko>  (1) 
{"is_sidechain": [false], "free_energy": -10.038, "intermolecular_energy": -14.145, "internal_energy": -0.672}

$$$$
LIB_PGAGZKDWBHDEKT__M_PUB_ALL__e8__s20260927
     RDKit          3D

 60 64  0  0  0  0  0  0  0  0999 V2000
   -2.0420  -14.3310   -0.2000 C   0  0  0  0  0  0  0  0  0  0  0  0
   -1.2140  -13.6630    0.7920 N   0  0  0  0  0  0  0  0  0  0  0  0
   -1.8920  -13.1760    1.9900 C   0  0  0  0  0  0  0  0  0  0  0  0
   -1.9090  -11.6650    2.0400 C   0  0  0  0  0  0  0  0  0  0  0  0
   -2.3470  -10.9050    0.9520 C   0  0  0  0  0  0  0  0  0  0  0  0
   -2.3450   -9.5220    1.0620 C   0  0  0  0  0  0  0  0  0  0  0  0
   -1.9430   -8.8520    2.1630 N   0  0  0  0  0  0  0  0  0  0  0  0
   -1.5320   -9.6050    3.2070 C   0  0  0  0  0  0  0  0  0  0  0  0
   -1.4980  -10.9900    3.1910 C   0  0  0  0  0  0  0  0  0  0  0  0
    0.1710  -13.5570    0.6410 C   0  0  0  0  0  0  0  0  0  0  0  0
    0.6450  -12.9270   -0.4200 N   0  0  0  0  0  0  0  0  0  0  0  0
    2.0100  -12.7920   -0.6180 C   0  0  0  0  0  0  0  0  0  0  0  0
    2.4540  -12.0390   -1.8090 C   0  0  0  0  0  0  0  0  0  0  0  0
    1.8440  -10.8350   -2.1850 C   0  0  0  0  0  0  0  0  0  0  0  0
    2.2910  -10.1430   -3.3090 C   0  0  0  0  0  0  0  0  0  0  0  0
    3.3570  -10.6430   -4.0600 C   0  0  0  0  0  0  0  0  0  0  0  0
    3.9930  -11.8360   -3.6950 C   0  0  0  0  0  0  0  0  0  0  0  0
    5.0690  -12.2670   -4.5000 N   0  0  0  0  0  0  0  0  0  0  0  0
    5.0090  -12.9920   -5.6830 C   0  0  0  0  0  0  0  0  0  0  0  0
    3.9840  -13.4320   -6.1880 O   0  0  0  0  0  0  0  0  0  0  0  0
    6.2810  -13.1460   -6.2180 N   0  0  0  0  0  0  0  0  0  0  0  0
    6.6570  -13.9340   -7.3270 C   0  0  0  0  0  0  0  0  0  0  0  0
    7.0880  -15.2580   -7.2350 C   0  0  0  0  0  0  0  0  0  0  0  0
    7.4520  -15.9700   -8.3810 C   0  0  0  0  0  0  0  0  0  0  0  0
    7.3940  -15.3630   -9.6340 C   0  0  0  0  0  0  0  0  0  0  0  0
    6.9650  -14.0350   -9.7530 C   0  0  0  0  0  0  0  0  0  0  0  0
    6.9210  -13.3590  -11.0990 C   0  0  0  0  0  0  0  0  0  0  0  0
    8.0760  -13.5290  -11.8000 F   0  0  0  0  0  0  0  0  0  0  0  0
    5.9230  -13.8160  -11.9030 F   0  0  0  0  0  0  0  0  0  0  0  0
    6.7380  -12.0110  -11.0090 F   0  0  0  0  0  0  0  0  0  0  0  0
    6.6080  -13.3280   -8.5900 C   0  0  0  0  0  0  0  0  0  0  0  0
    3.5280  -12.5270   -2.5730 C   0  0  0  0  0  0  0  0  0  0  0  0
    2.9310  -13.2780    0.2360 C   0  0  0  0  0  0  0  0  0  0  0  0
    2.4840  -13.9460    1.3520 N   0  0  0  0  0  0  0  0  0  0  0  0
    3.1600  -14.5420    2.3820 C   0  0  0  0  0  0  0  0  0  0  0  0
    2.1800  -15.0500    3.2050 C   0  0  0  0  0  0  0  0  0  0  0  0
    0.9280  -14.7810    2.7080 N   0  0  0  0  0  0  0  0  0  0  0  0
    1.1450  -14.1110    1.5920 C   0  0  0  0  0  0  0  0  0  0  0  0
   -2.8012  -14.9435    0.3085 H   0  0  0  0  0  0  0  0  0  0  0  0
   -2.5394  -13.5783   -0.8293 H   0  0  0  0  0  0  0  0  0  0  0  0
   -1.4115  -14.9764   -0.8293 H   0  0  0  0  0  0  0  0  0  0  0  0
   -2.9281  -13.5455    1.9898 H   0  0  0  0  0  0  0  0  0  0  0  0
   -1.3455  -13.5449    2.8705 H   0  0  0  0  0  0  0  0  0  0  0  0
   -2.6866  -11.3936    0.0268 H   0  0  0  0  0  0  0  0  0  0  0  0
   -2.6924   -8.9352    0.1989 H   0  0  0  0  0  0  0  0  0  0  0  0
   -1.2057   -9.0889    4.1220 H   0  0  0  0  0  0  0  0  0  0  0  0
   -1.1521  -11.5498    4.0725 H   0  0  0  0  0  0  0  0  0  0  0  0
    1.0093  -10.4346   -1.5909 H   0  0  0  0  0  0  0  0  0  0  0  0
    1.8038   -9.2022   -3.6049 H   0  0  0  0  0  0  0  0  0  0  0  0
    3.7010  -10.0933   -4.9485 H   0  0  0  0  0  0  0  0  0  0  0  0
    5.9890  -12.0830   -4.1340 H   0  0  0  0  0  0  0  0  0  0  0  0
    7.0080  -12.5780   -5.8140 H   0  0  0  0  0  0  0  0  0  0  0  0
    7.1418  -15.7461   -6.2507 H   0  0  0  0  0  0  0  0  0  0  0  0
    7.7859  -17.0145   -8.2936 H   0  0  0  0  0  0  0  0  0  0  0  0
    7.6858  -15.9280  -10.5316 H   0  0  0  0  0  0  0  0  0  0  0  0
    6.2844  -12.2800   -8.6735 H   0  0  0  0  0  0  0  0  0  0  0  0
    4.0118  -13.4711   -2.2821 H   0  0  0  0  0  0  0  0  0  0  0  0
    4.0064  -13.1449    0.0470 H   0  0  0  0  0  0  0  0  0  0  0  0
    4.2494  -14.6021    2.5219 H   0  0  0  0  0  0  0  0  0  0  0  0
    2.3742  -15.5992    4.1381 H   0  0  0  0  0  0  0  0  0  0  0  0
  1  2  1  0
  2  3  1  0
  3  4  1  0
  4  5  2  0
  5  6  1  0
  6  7  2  0
  7  8  1  0
  8  9  2  0
  2 10  1  0
 10 11  2  0
 11 12  1  0
 12 13  1  0
 13 14  2  0
 14 15  1  0
 15 16  2  0
 16 17  1  0
 17 18  1  0
 18 19  1  0
 19 20  2  0
 19 21  1  0
 21 22  1  0
 22 23  2  0
 23 24  1  0
 24 25  2  0
 25 26  1  0
 26 27  1  0
 27 28  1  0
 27 29  1  0
 27 30  1  0
 26 31  2  0
 17 32  2  0
 12 33  2  0
 33 34  1  0
 34 35  1  0
 35 36  2  0
 36 37  1  0
 37 38  2  0
  9  4  1  0
 38 10  1  0
 32 13  1  0
 38 34  1  0
 31 22  1  0
  1 39  1  0
  1 40  1  0
  1 41  1  0
  3 42  1  0
  3 43  1  0
  5 44  1  0
  6 45  1  0
  8 46  1  0
  9 47  1  0
 14 48  1  0
 15 49  1  0
 16 50  1  0
 18 51  1  0
 21 52  1  0
 23 53  1  0
 24 54  1  0
 25 55  1  0
 31 56  1  0
 32 57  1  0
 33 58  1  0
 35 59  1  0
 36 60  1  0
M  END
>  <meeko>  (2) 
{"is_sidechain": [false], "free_energy": -9.81, "intermolecular_energy": -13.276, "internal_energy": -1.22}

$$$$
LIB_PGAGZKDWBHDEKT__M_PUB_ALL__e8__s20260927
     RDKit          3D

 60 64  0  0  0  0  0  0  0  0999 V2000
   -0.4300  -13.1120    3.3510 C   0  0  0  0  0  0  0  0  0  0  0  0
   -0.6860  -12.5900    2.0170 N   0  0  0  0  0  0  0  0  0  0  0  0
   -1.3780  -11.3070    1.9360 C   0  0  0  0  0  0  0  0  0  0  0  0
   -2.6590  -11.4190    1.1420 C   0  0  0  0  0  0  0  0  0  0  0  0
   -3.6640  -12.3210    1.5030 C   0  0  0  0  0  0  0  0  0  0  0  0
   -4.8190  -12.3710    0.7370 C   0  0  0  0  0  0  0  0  0  0  0  0
   -5.0420  -11.5980   -0.3480 N   0  0  0  0  0  0  0  0  0  0  0  0
   -4.0620  -10.7280   -0.6750 C   0  0  0  0  0  0  0  0  0  0  0  0
   -2.8750  -10.6050    0.0280 C   0  0  0  0  0  0  0  0  0  0  0  0
   -0.2280  -13.2480    0.8710 C   0  0  0  0  0  0  0  0  0  0  0  0
    0.7640  -12.7080    0.1860 N   0  0  0  0  0  0  0  0  0  0  0  0
    1.2570  -13.3190   -0.9560 C   0  0  0  0  0  0  0  0  0  0  0  0
    2.3940  -12.6690   -1.6400 C   0  0  0  0  0  0  0  0  0  0  0  0
    2.2040  -11.5880   -2.5120 C   0  0  0  0  0  0  0  0  0  0  0  0
    3.2970  -10.9900   -3.1360 C   0  0  0  0  0  0  0  0  0  0  0  0
    4.5880  -11.4600   -2.8870 C   0  0  0  0  0  0  0  0  0  0  0  0
    4.8040  -12.5280   -2.0090 C   0  0  0  0  0  0  0  0  0  0  0  0
    6.1400  -12.9360   -1.8030 N   0  0  0  0  0  0  0  0  0  0  0  0
    7.1760  -12.2020   -1.2400 C   0  0  0  0  0  0  0  0  0  0  0  0
    7.0970  -11.0330   -0.8830 O   0  0  0  0  0  0  0  0  0  0  0  0
    8.3190  -12.9830   -1.1360 N   0  0  0  0  0  0  0  0  0  0  0  0
    9.6110  -12.5680   -0.7510 C   0  0  0  0  0  0  0  0  0  0  0  0
    9.9450  -12.1460    0.5360 C   0  0  0  0  0  0  0  0  0  0  0  0
   11.2470  -11.7390    0.8380 C   0  0  0  0  0  0  0  0  0  0  0  0
   12.2320  -11.7470   -0.1480 C   0  0  0  0  0  0  0  0  0  0  0  0
   11.9220  -12.1660   -1.4480 C   0  0  0  0  0  0  0  0  0  0  0  0
   12.9720  -12.1540   -2.5300 C   0  0  0  0  0  0  0  0  0  0  0  0
   12.5130  -11.6060   -3.6880 F   0  0  0  0  0  0  0  0  0  0  0  0
   14.0870  -11.4480   -2.1960 F   0  0  0  0  0  0  0  0  0  0  0  0
   13.4080  -13.4040   -2.8580 F   0  0  0  0  0  0  0  0  0  0  0  0
   10.6050  -12.5650   -1.7390 C   0  0  0  0  0  0  0  0  0  0  0  0
    3.7000  -13.1280   -1.3980 C   0  0  0  0  0  0  0  0  0  0  0  0
    0.7750  -14.4800   -1.4380 C   0  0  0  0  0  0  0  0  0  0  0  0
   -0.2610  -15.0780   -0.7590 N   0  0  0  0  0  0  0  0  0  0  0  0
   -0.9510  -16.2360   -0.9960 C   0  0  0  0  0  0  0  0  0  0  0  0
   -1.8790  -16.3120    0.0200 C   0  0  0  0  0  0  0  0  0  0  0  0
   -1.7750  -15.2360    0.8660 N   0  0  0  0  0  0  0  0  0  0  0  0
   -0.7880  -14.5120    0.3730 C   0  0  0  0  0  0  0  0  0  0  0  0
   -0.7841  -12.3899    4.1015 H   0  0  0  0  0  0  0  0  0  0  0  0
   -0.9626  -14.0658    3.4800 H   0  0  0  0  0  0  0  0  0  0  0  0
    0.6502  -13.2749    3.4800 H   0  0  0  0  0  0  0  0  0  0  0  0
   -1.6168  -10.9646    2.9537 H   0  0  0  0  0  0  0  0  0  0  0  0
   -0.7175  -10.5896    1.4270 H   0  0  0  0  0  0  0  0  0  0  0  0
   -3.5412  -12.9778    2.3768 H   0  0  0  0  0  0  0  0  0  0  0  0
   -5.6025  -13.0848    1.0314 H   0  0  0  0  0  0  0  0  0  0  0  0
   -4.2155  -10.0796   -1.5503 H   0  0  0  0  0  0  0  0  0  0  0  0
   -2.1132   -9.8765   -0.2867 H   0  0  0  0  0  0  0  0  0  0  0  0
    1.1888  -11.2106   -2.7043 H   0  0  0  0  0  0  0  0  0  0  0  0
    3.1426  -10.1469   -3.8254 H   0  0  0  0  0  0  0  0  0  0  0  0
    5.4452  -10.9852   -3.3868 H   0  0  0  0  0  0  0  0  0  0  0  0
    6.3820  -13.8410   -2.1720 H   0  0  0  0  0  0  0  0  0  0  0  0
    8.1980  -13.9730   -1.2850 H   0  0  0  0  0  0  0  0  0  0  0  0
    9.1750  -12.1335    1.3215 H   0  0  0  0  0  0  0  0  0  0  0  0
   11.4957  -11.4109    1.8581 H   0  0  0  0  0  0  0  0  0  0  0  0
   13.2549  -11.4236    0.0953 H   0  0  0  0  0  0  0  0  0  0  0  0
   10.3504  -12.8807   -2.7615 H   0  0  0  0  0  0  0  0  0  0  0  0
    3.8561  -13.9757   -0.7146 H   0  0  0  0  0  0  0  0  0  0  0  0
    1.1964  -14.9359   -2.3461 H   0  0  0  0  0  0  0  0  0  0  0  0
   -0.7981  -16.9504   -1.8183 H   0  0  0  0  0  0  0  0  0  0  0  0
   -2.6074  -17.1278    0.1376 H   0  0  0  0  0  0  0  0  0  0  0  0
  1  2  1  0
  2  3  1  0
  3  4  1  0
  4  5  2  0
  5  6  1  0
  6  7  2  0
  7  8  1  0
  8  9  2  0
  2 10  1  0
 10 11  2  0
 11 12  1  0
 12 13  1  0
 13 14  2  0
 14 15  1  0
 15 16  2  0
 16 17  1  0
 17 18  1  0
 18 19  1  0
 19 20  2  0
 19 21  1  0
 21 22  1  0
 22 23  2  0
 23 24  1  0
 24 25  2  0
 25 26  1  0
 26 27  1  0
 27 28  1  0
 27 29  1  0
 27 30  1  0
 26 31  2  0
 17 32  2  0
 12 33  2  0
 33 34  1  0
 34 35  1  0
 35 36  2  0
 36 37  1  0
 37 38  2  0
  9  4  1  0
 38 10  1  0
 32 13  1  0
 38 34  1  0
 31 22  1  0
  1 39  1  0
  1 40  1  0
  1 41  1  0
  3 42  1  0
  3 43  1  0
  5 44  1  0
  6 45  1  0
  8 46  1  0
  9 47  1  0
 14 48  1  0
 15 49  1  0
 16 50  1  0
 18 51  1  0
 21 52  1  0
 23 53  1  0
 24 54  1  0
 25 55  1  0
 31 56  1  0
 32 57  1  0
 33 58  1  0
 35 59  1  0
 36 60  1  0
M  END
>  <meeko>  (3) 
{"is_sidechain": [false], "free_energy": -9.638, "intermolecular_energy": -13.122, "internal_energy": -1.132}

$$$$
LIB_PGAGZKDWBHDEKT__M_PUB_ALL__e8__s20260927
     RDKit          3D

 60 64  0  0  0  0  0  0  0  0999 V2000
   -2.2040  -13.7150    0.6260 C   0  0  0  0  0  0  0  0  0  0  0  0
   -0.7880  -13.6510    0.9530 N   0  0  0  0  0  0  0  0  0  0  0  0
   -0.4380  -13.0480    2.2360 C   0  0  0  0  0  0  0  0  0  0  0  0
   -0.7070  -11.5600    2.2390 C   0  0  0  0  0  0  0  0  0  0  0  0
   -1.5860  -10.9800    3.1580 C   0  0  0  0  0  0  0  0  0  0  0  0
   -1.7860   -9.6080    3.1130 C   0  0  0  0  0  0  0  0  0  0  0  0
   -1.1820   -8.7840    2.2300 N   0  0  0  0  0  0  0  0  0  0  0  0
   -0.3300   -9.3630    1.3560 C   0  0  0  0  0  0  0  0  0  0  0  0
   -0.0660  -10.7230    1.3230 C   0  0  0  0  0  0  0  0  0  0  0  0
    0.1850  -14.2050    0.1150 C   0  0  0  0  0  0  0  0  0  0  0  0
    0.8430  -13.4040   -0.7040 N   0  0  0  0  0  0  0  0  0  0  0  0
    1.8190  -13.9000   -1.5550 C   0  0  0  0  0  0  0  0  0  0  0  0
    2.5360  -12.9310   -2.4090 C   0  0  0  0  0  0  0  0  0  0  0  0
    2.1860  -11.5740   -2.4300 C   0  0  0  0  0  0  0  0  0  0  0  0
    2.8870  -10.6820   -3.2400 C   0  0  0  0  0  0  0  0  0  0  0  0
    3.9470  -11.1370   -4.0270 C   0  0  0  0  0  0  0  0  0  0  0  0
    4.3240  -12.4850   -4.0110 C   0  0  0  0  0  0  0  0  0  0  0  0
    5.4130  -12.8610   -4.8270 N   0  0  0  0  0  0  0  0  0  0  0  0
    5.3790  -13.2780   -6.1510 C   0  0  0  0  0  0  0  0  0  0  0  0
    4.3620  -13.4470   -6.8100 O   0  0  0  0  0  0  0  0  0  0  0  0
    6.6690  -13.4770   -6.6260 N   0  0  0  0  0  0  0  0  0  0  0  0
    7.0510  -14.0320   -7.8660 C   0  0  0  0  0  0  0  0  0  0  0  0
    7.3160  -15.3870   -8.0680 C   0  0  0  0  0  0  0  0  0  0  0  0
    7.7000  -15.8580   -9.3260 C   0  0  0  0  0  0  0  0  0  0  0  0
    7.8280  -14.9770  -10.3980 C   0  0  0  0  0  0  0  0  0  0  0  0
    7.5690  -13.6130  -10.2210 C   0  0  0  0  0  0  0  0  0  0  0  0
    7.7280  -12.6450  -11.3660 C   0  0  0  0  0  0  0  0  0  0  0  0
    8.8910  -11.9410  -11.2880 F   0  0  0  0  0  0  0  0  0  0  0  0
    7.7340  -13.2460  -12.5870 F   0  0  0  0  0  0  0  0  0  0  0  0
    6.7330  -11.7140  -11.4140 F   0  0  0  0  0  0  0  0  0  0  0  0
    7.1910  -13.1510   -8.9470 C   0  0  0  0  0  0  0  0  0  0  0  0
    3.6070  -13.3720   -3.2040 C   0  0  0  0  0  0  0  0  0  0  0  0
    2.1590  -15.2020   -1.6070 C   0  0  0  0  0  0  0  0  0  0  0  0
    1.4950  -16.0740   -0.7750 N   0  0  0  0  0  0  0  0  0  0  0  0
    1.6120  -17.4270   -0.6020 C   0  0  0  0  0  0  0  0  0  0  0  0
    0.6840  -17.7440    0.3650 C   0  0  0  0  0  0  0  0  0  0  0  0
    0.0060  -16.6270    0.7840 N   0  0  0  0  0  0  0  0  0  0  0  0
    0.5200  -15.6350    0.0810 C   0  0  0  0  0  0  0  0  0  0  0  0
   -2.7938  -13.7417    1.5541 H   0  0  0  0  0  0  0  0  0  0  0  0
   -2.4850  -12.8286    0.0383 H   0  0  0  0  0  0  0  0  0  0  0  0
   -2.4039  -14.6231    0.0383 H   0  0  0  0  0  0  0  0  0  0  0  0
   -1.0361  -13.5212    3.0287 H   0  0  0  0  0  0  0  0  0  0  0  0
    0.6366  -13.2055    2.4104 H   0  0  0  0  0  0  0  0  0  0  0  0
   -2.1087  -11.5990    3.9020 H   0  0  0  0  0  0  0  0  0  0  0  0
   -2.4797   -9.1637    3.8419 H   0  0  0  0  0  0  0  0  0  0  0  0
    0.1839   -8.7176    0.6285 H   0  0  0  0  0  0  0  0  0  0  0  0
    0.6380  -11.1372    0.5862 H   0  0  0  0  0  0  0  0  0  0  0  0
    1.3559  -11.2119   -1.8056 H   0  0  0  0  0  0  0  0  0  0  0  0
    2.6050   -9.6189   -3.2593 H   0  0  0  0  0  0  0  0  0  0  0  0
    4.4922  -10.4277   -4.6671 H   0  0  0  0  0  0  0  0  0  0  0  0
    6.3110  -12.8940   -4.3700 H   0  0  0  0  0  0  0  0  0  0  0  0
    7.4160  -13.1220   -6.0520 H   0  0  0  0  0  0  0  0  0  0  0  0
    7.2216  -16.0914   -7.2284 H   0  0  0  0  0  0  0  0  0  0  0  0
    7.9023  -16.9295   -9.4709 H   0  0  0  0  0  0  0  0  0  0  0  0
    8.1332  -15.3543  -11.3852 H   0  0  0  0  0  0  0  0  0  0  0  0
    7.0017  -12.0779   -8.7965 H   0  0  0  0  0  0  0  0  0  0  0  0
    3.8864  -14.4358   -3.1909 H   0  0  0  0  0  0  0  0  0  0  0  0
    2.9425  -15.5571   -2.2926 H   0  0  0  0  0  0  0  0  0  0  0  0
    2.2979  -18.1119   -1.1221 H   0  0  0  0  0  0  0  0  0  0  0  0
    0.5093  -18.7592    0.7508 H   0  0  0  0  0  0  0  0  0  0  0  0
  1  2  1  0
  2  3  1  0
  3  4  1  0
  4  5  2  0
  5  6  1  0
  6  7  2  0
  7  8  1  0
  8  9  2  0
  2 10  1  0
 10 11  2  0
 11 12  1  0
 12 13  1  0
 13 14  2  0
 14 15  1  0
 15 16  2  0
 16 17  1  0
 17 18  1  0
 18 19  1  0
 19 20  2  0
 19 21  1  0
 21 22  1  0
 22 23  2  0
 23 24  1  0
 24 25  2  0
 25 26  1  0
 26 27  1  0
 27 28  1  0
 27 29  1  0
 27 30  1  0
 26 31  2  0
 17 32  2  0
 12 33  2  0
 33 34  1  0
 34 35  1  0
 35 36  2  0
 36 37  1  0
 37 38  2  0
  9  4  1  0
 38 10  1  0
 32 13  1  0
 38 34  1  0
 31 22  1  0
  1 39  1  0
  1 40  1  0
  1 41  1  0
  3 42  1  0
  3 43  1  0
  5 44  1  0
  6 45  1  0
  8 46  1  0
  9 47  1  0
 14 48  1  0
 15 49  1  0
 16 50  1  0
 18 51  1  0
 21 52  1  0
 23 53  1  0
 24 54  1  0
 25 55  1  0
 31 56  1  0
 32 57  1  0
 33 58  1  0
 35 59  1  0
 36 60  1  0
M  END
>  <meeko>  (4) 
{"is_sidechain": [false], "free_energy": -9.607, "intermolecular_energy": -12.889, "internal_energy": -1.321}

$$$$
LIB_PGAGZKDWBHDEKT__M_PUB_ALL__e8__s20260927
     RDKit          3D

 60 64  0  0  0  0  0  0  0  0999 V2000
   -0.0460  -14.2790    3.6380 C   0  0  0  0  0  0  0  0  0  0  0  0
   -0.5500  -13.8750    2.3340 N   0  0  0  0  0  0  0  0  0  0  0  0
   -1.5360  -14.7540    1.7110 C   0  0  0  0  0  0  0  0  0  0  0  0
   -2.9110  -14.1260    1.7070 C   0  0  0  0  0  0  0  0  0  0  0  0
   -3.4510  -13.5620    0.5480 C   0  0  0  0  0  0  0  0  0  0  0  0
   -4.7210  -13.0070    0.6080 C   0  0  0  0  0  0  0  0  0  0  0  0
   -5.4800  -12.9740    1.7240 N   0  0  0  0  0  0  0  0  0  0  0  0
   -4.9440  -13.5320    2.8310 C   0  0  0  0  0  0  0  0  0  0  0  0
   -3.6850  -14.1090    2.8690 C   0  0  0  0  0  0  0  0  0  0  0  0
   -0.1640  -12.6700    1.7390 C   0  0  0  0  0  0  0  0  0  0  0  0
    0.7850  -12.6940    0.8200 N   0  0  0  0  0  0  0  0  0  0  0  0
    1.2030  -11.5280    0.1980 C   0  0  0  0  0  0  0  0  0  0  0  0
    2.2420  -11.6490   -0.8470 C   0  0  0  0  0  0  0  0  0  0  0  0
    1.9960  -11.2640   -2.1710 C   0  0  0  0  0  0  0  0  0  0  0  0
    2.9980  -11.3820   -3.1330 C   0  0  0  0  0  0  0  0  0  0  0  0
    4.2560  -11.8750   -2.7770 C   0  0  0  0  0  0  0  0  0  0  0  0
    4.5280  -12.2510   -1.4560 C   0  0  0  0  0  0  0  0  0  0  0  0
    5.8270  -12.7290   -1.1760 N   0  0  0  0  0  0  0  0  0  0  0  0
    6.9560  -11.9870   -0.8580 C   0  0  0  0  0  0  0  0  0  0  0  0
    7.0110  -10.7640   -0.8330 O   0  0  0  0  0  0  0  0  0  0  0  0
    8.0220  -12.8300   -0.5690 N   0  0  0  0  0  0  0  0  0  0  0  0
    9.3660  -12.4670   -0.3400 C   0  0  0  0  0  0  0  0  0  0  0  0
    9.8570  -12.0200    0.8870 C   0  0  0  0  0  0  0  0  0  0  0  0
   11.2010  -11.6690    1.0320 C   0  0  0  0  0  0  0  0  0  0  0  0
   12.0720  -11.7600   -0.0520 C   0  0  0  0  0  0  0  0  0  0  0  0
   11.6040  -12.2060   -1.2950 C   0  0  0  0  0  0  0  0  0  0  0  0
   12.5290  -12.2840   -2.4820 C   0  0  0  0  0  0  0  0  0  0  0  0
   11.9150  -11.9170   -3.6400 F   0  0  0  0  0  0  0  0  0  0  0  0
   13.6250  -11.4840   -2.3690 F   0  0  0  0  0  0  0  0  0  0  0  0
   13.0080  -13.5420   -2.6990 F   0  0  0  0  0  0  0  0  0  0  0  0
   10.2460  -12.5470   -1.4280 C   0  0  0  0  0  0  0  0  0  0  0  0
    3.5130  -12.1400   -0.5030 C   0  0  0  0  0  0  0  0  0  0  0  0
    0.6860  -10.3170    0.4760 C   0  0  0  0  0  0  0  0  0  0  0  0
   -0.3020  -10.2430    1.4300 N   0  0  0  0  0  0  0  0  0  0  0  0
   -1.0090   -9.1790    1.9220 C   0  0  0  0  0  0  0  0  0  0  0  0
   -1.8590   -9.7190    2.8620 C   0  0  0  0  0  0  0  0  0  0  0  0
   -1.6910  -11.0780    2.9560 N   0  0  0  0  0  0  0  0  0  0  0  0
   -0.7490  -11.3650    2.0780 C   0  0  0  0  0  0  0  0  0  0  0  0
   -0.6441  -13.7995    4.4269 H   0  0  0  0  0  0  0  0  0  0  0  0
   -0.1182  -15.3722    3.7364 H   0  0  0  0  0  0  0  0  0  0  0  0
    1.0053  -13.9706    3.7364 H   0  0  0  0  0  0  0  0  0  0  0  0
   -1.2313  -14.9548    0.6733 H   0  0  0  0  0  0  0  0  0  0  0  0
   -1.5835  -15.6871    2.2916 H   0  0  0  0  0  0  0  0  0  0  0  0
   -2.8807  -13.5582   -0.3926 H   0  0  0  0  0  0  0  0  0  0  0  0
   -5.1353  -12.5664   -0.3108 H   0  0  0  0  0  0  0  0  0  0  0  0
   -5.5410  -13.5281    3.7549 H   0  0  0  0  0  0  0  0  0  0  0  0
   -3.3005  -14.5476    3.8016 H   0  0  0  0  0  0  0  0  0  0  0  0
    1.0094  -10.8674   -2.4525 H   0  0  0  0  0  0  0  0  0  0  0  0
    2.7980  -11.0866   -4.1736 H   0  0  0  0  0  0  0  0  0  0  0  0
    5.0406  -11.9687   -3.5423 H   0  0  0  0  0  0  0  0  0  0  0  0
    5.9610  -13.7210   -1.2880 H   0  0  0  0  0  0  0  0  0  0  0  0
    7.7980  -13.8030   -0.4380 H   0  0  0  0  0  0  0  0  0  0  0  0
    9.1784  -11.9432    1.7493 H   0  0  0  0  0  0  0  0  0  0  0  0
   11.5736  -11.3192    2.0061 H   0  0  0  0  0  0  0  0  0  0  0  0
   13.1292  -11.4811    0.0685 H   0  0  0  0  0  0  0  0  0  0  0  0
    9.8673  -12.8829   -2.4046 H   0  0  0  0  0  0  0  0  0  0  0  0
    3.7121  -12.4424    0.5357 H   0  0  0  0  0  0  0  0  0  0  0  0
    1.0422   -9.4151   -0.0432 H   0  0  0  0  0  0  0  0  0  0  0  0
   -0.9181   -8.1223    1.6301 H   0  0  0  0  0  0  0  0  0  0  0  0
   -2.5775   -9.1378    3.4585 H   0  0  0  0  0  0  0  0  0  0  0  0
  1  2  1  0
  2  3  1  0
  3  4  1  0
  4  5  2  0
  5  6  1  0
  6  7  2  0
  7  8  1  0
  8  9  2  0
  2 10  1  0
 10 11  2  0
 11 12  1  0
 12 13  1  0
 13 14  2  0
 14 15  1  0
 15 16  2  0
 16 17  1  0
 17 18  1  0
 18 19  1  0
 19 20  2  0
 19 21  1  0
 21 22  1  0
 22 23  2  0
 23 24  1  0
 24 25  2  0
 25 26  1  0
 26 27  1  0
 27 28  1  0
 27 29  1  0
 27 30  1  0
 26 31  2  0
 17 32  2  0
 12 33  2  0
 33 34  1  0
 34 35  1  0
 35 36  2  0
 36 37  1  0
 37 38  2  0
  9  4  1  0
 38 10  1  0
 32 13  1  0
 38 34  1  0
 31 22  1  0
  1 39  1  0
  1 40  1  0
  1 41  1  0
  3 42  1  0
  3 43  1  0
  5 44  1  0
  6 45  1  0
  8 46  1  0
  9 47  1  0
 14 48  1  0
 15 49  1  0
 16 50  1  0
 18 51  1  0
 21 52  1  0
 23 53  1  0
 24 54  1  0
 25 55  1  0
 31 56  1  0
 32 57  1  0
 33 58  1  0
 35 59  1  0
 36 60  1  0
M  END
>  <meeko>  (5) 
{"is_sidechain": [false], "free_energy": -9.532, "intermolecular_energy": -12.811, "internal_energy": -1.293}

$$$$
LIB_PGAGZKDWBHDEKT__M_PUB_ALL__e8__s20260927
     RDKit          3D

 60 64  0  0  0  0  0  0  0  0999 V2000
    0.0600   -9.1710    1.2360 C   0  0  0  0  0  0  0  0  0  0  0  0
   -0.3450  -10.5520    1.4500 N   0  0  0  0  0  0  0  0  0  0  0  0
   -1.5960  -10.7640    2.1730 C   0  0  0  0  0  0  0  0  0  0  0  0
   -2.7350  -11.0690    1.2280 C   0  0  0  0  0  0  0  0  0  0  0  0
   -2.9950  -10.2640    0.1150 C   0  0  0  0  0  0  0  0  0  0  0  0
   -4.0520  -10.6000   -0.7180 C   0  0  0  0  0  0  0  0  0  0  0  0
   -4.8570  -11.6670   -0.5250 N   0  0  0  0  0  0  0  0  0  0  0  0
   -4.5840  -12.4370    0.5510 C   0  0  0  0  0  0  0  0  0  0  0  0
   -3.5520  -12.1820    1.4390 C   0  0  0  0  0  0  0  0  0  0  0  0
    0.3890  -11.6220    0.9280 C   0  0  0  0  0  0  0  0  0  0  0  0
    1.1610  -11.4060   -0.1220 N   0  0  0  0  0  0  0  0  0  0  0  0
    1.9110  -12.4310   -0.6780 C   0  0  0  0  0  0  0  0  0  0  0  0
    2.7780  -12.0950   -1.8260 C   0  0  0  0  0  0  0  0  0  0  0  0
    2.3510  -11.2260   -2.8380 C   0  0  0  0  0  0  0  0  0  0  0  0
    3.1950  -10.9210   -3.9040 C   0  0  0  0  0  0  0  0  0  0  0  0
    4.4760  -11.4750   -3.9620 C   0  0  0  0  0  0  0  0  0  0  0  0
    4.9310  -12.3340   -2.9550 C   0  0  0  0  0  0  0  0  0  0  0  0
    6.2420  -12.8420   -3.0820 N   0  0  0  0  0  0  0  0  0  0  0  0
    7.4290  -12.2400   -2.6880 C   0  0  0  0  0  0  0  0  0  0  0  0
    7.5250  -11.1170   -2.2120 O   0  0  0  0  0  0  0  0  0  0  0  0
    8.5000  -13.0970   -2.9090 N   0  0  0  0  0  0  0  0  0  0  0  0
    9.8740  -12.8070   -2.7730 C   0  0  0  0  0  0  0  0  0  0  0  0
   10.7720  -12.7620   -3.8400 C   0  0  0  0  0  0  0  0  0  0  0  0
   12.1230  -12.4780   -3.6230 C   0  0  0  0  0  0  0  0  0  0  0  0
   12.5920  -12.2370   -2.3340 C   0  0  0  0  0  0  0  0  0  0  0  0
   11.7110  -12.2770   -1.2460 C   0  0  0  0  0  0  0  0  0  0  0  0
   12.2100  -12.0440    0.1570 C   0  0  0  0  0  0  0  0  0  0  0  0
   12.3140  -13.2010    0.8670 F   0  0  0  0  0  0  0  0  0  0  0  0
   13.4400  -11.4630    0.2050 F   0  0  0  0  0  0  0  0  0  0  0  0
   11.3880  -11.2350    0.8850 F   0  0  0  0  0  0  0  0  0  0  0  0
   10.3560  -12.5730   -1.4780 C   0  0  0  0  0  0  0  0  0  0  0  0
    4.0720  -12.6420   -1.8970 C   0  0  0  0  0  0  0  0  0  0  0  0
    1.9090  -13.6890   -0.2000 C   0  0  0  0  0  0  0  0  0  0  0  0
    1.1160  -13.9620    0.8910 N   0  0  0  0  0  0  0  0  0  0  0  0
    0.9030  -15.1200    1.5900 C   0  0  0  0  0  0  0  0  0  0  0  0
    0.0040  -14.7800    2.5760 C   0  0  0  0  0  0  0  0  0  0  0  0
   -0.3380  -13.4530    2.4990 N   0  0  0  0  0  0  0  0  0  0  0  0
    0.3520  -12.9850    1.4750 C   0  0  0  0  0  0  0  0  0  0  0  0
    0.2050   -8.6766    2.2079 H   0  0  0  0  0  0  0  0  0  0  0  0
    1.0024   -9.1489    0.6692 H   0  0  0  0  0  0  0  0  0  0  0  0
   -0.7212   -8.6434    0.6692 H   0  0  0  0  0  0  0  0  0  0  0  0
   -1.4700  -11.6090    2.8659 H   0  0  0  0  0  0  0  0  0  0  0  0
   -1.8391   -9.8419    2.7214 H   0  0  0  0  0  0  0  0  0  0  0  0
   -2.3734   -9.3813   -0.0961 H   0  0  0  0  0  0  0  0  0  0  0  0
   -4.2465   -9.9577   -1.5896 H   0  0  0  0  0  0  0  0  0  0  0  0
   -5.2180  -13.3174    0.7324 H   0  0  0  0  0  0  0  0  0  0  0  0
   -3.3784  -12.8466    2.2982 H   0  0  0  0  0  0  0  0  0  0  0  0
    1.3454  -10.7825   -2.7911 H   0  0  0  0  0  0  0  0  0  0  0  0
    2.8524  -10.2437   -4.7002 H   0  0  0  0  0  0  0  0  0  0  0  0
    5.1349  -11.2333   -4.8090 H   0  0  0  0  0  0  0  0  0  0  0  0
    6.3250  -13.7140   -3.5800 H   0  0  0  0  0  0  0  0  0  0  0  0
    8.2690  -14.0540   -3.1220 H   0  0  0  0  0  0  0  0  0  0  0  0
   10.4129  -12.9520   -4.8622 H   0  0  0  0  0  0  0  0  0  0  0  0
   12.8191  -12.4447   -4.4741 H   0  0  0  0  0  0  0  0  0  0  0  0
   13.6568  -12.0147   -2.1701 H   0  0  0  0  0  0  0  0  0  0  0  0
    9.6611  -12.6218   -0.6267 H   0  0  0  0  0  0  0  0  0  0  0  0
    4.4138  -13.3247   -1.1051 H   0  0  0  0  0  0  0  0  0  0  0  0
    2.5219  -14.4742   -0.6666 H   0  0  0  0  0  0  0  0  0  0  0  0
    1.3522  -16.1068    1.4043 H   0  0  0  0  0  0  0  0  0  0  0  0
   -0.3889  -15.4806    3.3275 H   0  0  0  0  0  0  0  0  0  0  0  0
  1  2  1  0
  2  3  1  0
  3  4  1  0
  4  5  2  0
  5  6  1  0
  6  7  2  0
  7  8  1  0
  8  9  2  0
  2 10  1  0
 10 11  2  0
 11 12  1  0
 12 13  1  0
 13 14  2  0
 14 15  1  0
 15 16  2  0
 16 17  1  0
 17 18  1  0
 18 19  1  0
 19 20  2  0
 19 21  1  0
 21 22  1  0
 22 23  2  0
 23 24  1  0
 24 25  2  0
 25 26  1  0
 26 27  1  0
 27 28  1  0
 27 29  1  0
 27 30  1  0
 26 31  2  0
 17 32  2  0
 12 33  2  0
 33 34  1  0
 34 35  1  0
 35 36  2  0
 36 37  1  0
 37 38  2  0
  9  4  1  0
 38 10  1  0
 32 13  1  0
 38 34  1  0
 31 22  1  0
  1 39  1  0
  1 40  1  0
  1 41  1  0
  3 42  1  0
  3 43  1  0
  5 44  1  0
  6 45  1  0
  8 46  1  0
  9 47  1  0
 14 48  1  0
 15 49  1  0
 16 50  1  0
 18 51  1  0
 21 52  1  0
 23 53  1  0
 24 54  1  0
 25 55  1  0
 31 56  1  0
 32 57  1  0
 33 58  1  0
 35 59  1  0
 36 60  1  0
M  END
>  <meeko>  (6) 
{"is_sidechain": [false], "free_energy": -9.381, "intermolecular_energy": -13.226, "internal_energy": -0.667}

$$$$
LIB_PGAGZKDWBHDEKT__M_PUB_ALL__e8__s20260927
     RDKit          3D

 60 64  0  0  0  0  0  0  0  0999 V2000
   -2.2970  -13.5870    0.2390 C   0  0  0  0  0  0  0  0  0  0  0  0
   -0.9150  -13.6140    0.6950 N   0  0  0  0  0  0  0  0  0  0  0  0
   -0.6540  -13.0790    2.0280 C   0  0  0  0  0  0  0  0  0  0  0  0
   -0.8460  -11.5800    2.0700 C   0  0  0  0  0  0  0  0  0  0  0  0
   -1.7200  -10.9810    2.9800 C   0  0  0  0  0  0  0  0  0  0  0  0
   -1.8470   -9.6000    2.9720 C   0  0  0  0  0  0  0  0  0  0  0  0
   -1.1740   -8.7840    2.1330 N   0  0  0  0  0  0  0  0  0  0  0  0
   -0.3270   -9.3820    1.2670 C   0  0  0  0  0  0  0  0  0  0  0  0
   -0.1340  -10.7520    1.2000 C   0  0  0  0  0  0  0  0  0  0  0  0
    0.1010  -14.1890   -0.0750 C   0  0  0  0  0  0  0  0  0  0  0  0
    0.7910  -13.4130   -0.8910 N   0  0  0  0  0  0  0  0  0  0  0  0
    1.8100  -13.9310   -1.6750 C   0  0  0  0  0  0  0  0  0  0  0  0
    2.5580  -12.9860   -2.5310 C   0  0  0  0  0  0  0  0  0  0  0  0
    1.9470  -12.3330   -3.6090 C   0  0  0  0  0  0  0  0  0  0  0  0
    2.6770  -11.4410   -4.3930 C   0  0  0  0  0  0  0  0  0  0  0  0
    4.0200  -11.1890   -4.1010 C   0  0  0  0  0  0  0  0  0  0  0  0
    4.6470  -11.8190   -3.0190 C   0  0  0  0  0  0  0  0  0  0  0  0
    6.0020  -11.5010   -2.7850 N   0  0  0  0  0  0  0  0  0  0  0  0
    7.1130  -12.3080   -2.9940 C   0  0  0  0  0  0  0  0  0  0  0  0
    7.0770  -13.4730   -3.3660 O   0  0  0  0  0  0  0  0  0  0  0  0
    8.2780  -11.6030   -2.7210 N   0  0  0  0  0  0  0  0  0  0  0  0
    9.5960  -12.1060   -2.6770 C   0  0  0  0  0  0  0  0  0  0  0  0
   10.2950  -12.5650   -3.7940 C   0  0  0  0  0  0  0  0  0  0  0  0
   11.5960  -13.0590   -3.6680 C   0  0  0  0  0  0  0  0  0  0  0  0
   12.2130  -13.1030   -2.4190 C   0  0  0  0  0  0  0  0  0  0  0  0
   11.5320  -12.6490   -1.2830 C   0  0  0  0  0  0  0  0  0  0  0  0
   12.1780  -12.7150    0.0780 C   0  0  0  0  0  0  0  0  0  0  0  0
   11.3460  -12.2840    1.0660 F   0  0  0  0  0  0  0  0  0  0  0  0
   12.5640  -13.9710    0.4340 F   0  0  0  0  0  0  0  0  0  0  0  0
   13.2960  -11.9410    0.1720 F   0  0  0  0  0  0  0  0  0  0  0  0
   10.2200  -12.1620   -1.4240 C   0  0  0  0  0  0  0  0  0  0  0  0
    3.9090  -12.7200   -2.2470 C   0  0  0  0  0  0  0  0  0  0  0  0
    2.1630  -15.2290   -1.6620 C   0  0  0  0  0  0  0  0  0  0  0  0
    1.4690  -16.0770   -0.8300 N   0  0  0  0  0  0  0  0  0  0  0  0
    1.5890  -17.4210   -0.5990 C   0  0  0  0  0  0  0  0  0  0  0  0
    0.6190  -17.7110    0.3340 C   0  0  0  0  0  0  0  0  0  0  0  0
   -0.0890  -16.5850    0.6780 N   0  0  0  0  0  0  0  0  0  0  0  0
    0.4500  -15.6160   -0.0370 C   0  0  0  0  0  0  0  0  0  0  0  0
   -2.9700  -13.5739    1.1090 H   0  0  0  0  0  0  0  0  0  0  0  0
   -2.4652  -12.6854   -0.3683 H   0  0  0  0  0  0  0  0  0  0  0  0
   -2.5003  -14.4813   -0.3683 H   0  0  0  0  0  0  0  0  0  0  0  0
   -1.3455  -13.5482    2.7433 H   0  0  0  0  0  0  0  0  0  0  0  0
    0.3908  -13.3009    2.2908 H   0  0  0  0  0  0  0  0  0  0  0  0
   -2.2965  -11.5929    3.6894 H   0  0  0  0  0  0  0  0  0  0  0  0
   -2.5388   -9.1412    3.6938 H   0  0  0  0  0  0  0  0  0  0  0  0
    0.2424   -8.7440    0.5750 H   0  0  0  0  0  0  0  0  0  0  0  0
    0.5700  -11.1814    0.4720 H   0  0  0  0  0  0  0  0  0  0  0  0
    0.8882  -12.5246   -3.8376 H   0  0  0  0  0  0  0  0  0  0  0  0
    2.1952  -10.9349   -5.2425 H   0  0  0  0  0  0  0  0  0  0  0  0
    4.5909  -10.4882   -4.7279 H   0  0  0  0  0  0  0  0  0  0  0  0
    6.1730  -10.6080   -2.3510 H   0  0  0  0  0  0  0  0  0  0  0  0
    8.1820  -10.6060   -2.6110 H   0  0  0  0  0  0  0  0  0  0  0  0
    9.8168  -12.5377   -4.7842 H   0  0  0  0  0  0  0  0  0  0  0  0
   12.1355  -13.4146   -4.5582 H   0  0  0  0  0  0  0  0  0  0  0  0
   13.2365  -13.4950   -2.3256 H   0  0  0  0  0  0  0  0  0  0  0  0
    9.6734  -11.8185   -0.5333 H   0  0  0  0  0  0  0  0  0  0  0  0
    4.3938  -13.2304   -1.4018 H   0  0  0  0  0  0  0  0  0  0  0  0
    2.9809  -15.6008   -2.2967 H   0  0  0  0  0  0  0  0  0  0  0  0
    2.3050  -18.1180   -1.0590 H   0  0  0  0  0  0  0  0  0  0  0  0
    0.4350  -18.7128    0.7495 H   0  0  0  0  0  0  0  0  0  0  0  0
  1  2  1  0
  2  3  1  0
  3  4  1  0
  4  5  2  0
  5  6  1  0
  6  7  2  0
  7  8  1  0
  8  9  2  0
  2 10  1  0
 10 11  2  0
 11 12  1  0
 12 13  1  0
 13 14  2  0
 14 15  1  0
 15 16  2  0
 16 17  1  0
 17 18  1  0
 18 19  1  0
 19 20  2  0
 19 21  1  0
 21 22  1  0
 22 23  2  0
 23 24  1  0
 24 25  2  0
 25 26  1  0
 26 27  1  0
 27 28  1  0
 27 29  1  0
 27 30  1  0
 26 31  2  0
 17 32  2  0
 12 33  2  0
 33 34  1  0
 34 35  1  0
 35 36  2  0
 36 37  1  0
 37 38  2  0
  9  4  1  0
 38 10  1  0
 32 13  1  0
 38 34  1  0
 31 22  1  0
  1 39  1  0
  1 40  1  0
  1 41  1  0
  3 42  1  0
  3 43  1  0
  5 44  1  0
  6 45  1  0
  8 46  1  0
  9 47  1  0
 14 48  1  0
 15 49  1  0
 16 50  1  0
 18 51  1  0
 21 52  1  0
 23 53  1  0
 24 54  1  0
 25 55  1  0
 31 56  1  0
 32 57  1  0
 33 58  1  0
 35 59  1  0
 36 60  1  0
M  END
>  <meeko>  (7) 
{"is_sidechain": [false], "free_energy": -9.273, "intermolecular_energy": -12.539, "internal_energy": -1.201}

$$$$
LIB_PGAGZKDWBHDEKT__M_PUB_ALL__e8__s20260927
     RDKit          3D

 60 64  0  0  0  0  0  0  0  0999 V2000
   -2.5930  -14.4310    0.1840 C   0  0  0  0  0  0  0  0  0  0  0  0
   -1.2300  -14.2320    0.6520 N   0  0  0  0  0  0  0  0  0  0  0  0
   -0.5310  -15.4100    1.1550 C   0  0  0  0  0  0  0  0  0  0  0  0
    0.1210  -15.1380    2.4910 C   0  0  0  0  0  0  0  0  0  0  0  0
    1.5110  -15.0810    2.6270 C   0  0  0  0  0  0  0  0  0  0  0  0
    2.0480  -14.8210    3.8790 C   0  0  0  0  0  0  0  0  0  0  0  0
    1.3090  -14.6170    4.9900 N   0  0  0  0  0  0  0  0  0  0  0  0
   -0.0320  -14.6680    4.8370 C   0  0  0  0  0  0  0  0  0  0  0  0
   -0.6600  -14.9210    3.6280 C   0  0  0  0  0  0  0  0  0  0  0  0
   -0.5970  -12.9890    0.5580 C   0  0  0  0  0  0  0  0  0  0  0  0
    0.4520  -12.8720   -0.2370 N   0  0  0  0  0  0  0  0  0  0  0  0
    1.1160  -11.6630   -0.3680 C   0  0  0  0  0  0  0  0  0  0  0  0
    2.2550  -11.6090   -1.3080 C   0  0  0  0  0  0  0  0  0  0  0  0
    2.1350  -11.0130   -2.5710 C   0  0  0  0  0  0  0  0  0  0  0  0
    3.2290  -10.9700   -3.4330 C   0  0  0  0  0  0  0  0  0  0  0  0
    4.4530  -11.5130   -3.0370 C   0  0  0  0  0  0  0  0  0  0  0  0
    4.6010  -12.1000   -1.7740 C   0  0  0  0  0  0  0  0  0  0  0  0
    5.8740  -12.6150   -1.4470 N   0  0  0  0  0  0  0  0  0  0  0  0
    6.9910  -11.9120   -1.0160 C   0  0  0  0  0  0  0  0  0  0  0  0
    7.0600  -10.6940   -0.9130 O   0  0  0  0  0  0  0  0  0  0  0  0
    8.0260  -12.7890   -0.7160 N   0  0  0  0  0  0  0  0  0  0  0  0
    9.3590  -12.4630   -0.3850 C   0  0  0  0  0  0  0  0  0  0  0  0
    9.7710  -12.0520    0.8830 C   0  0  0  0  0  0  0  0  0  0  0  0
   11.1090  -11.7370    1.1300 C   0  0  0  0  0  0  0  0  0  0  0  0
   12.0520  -11.8260    0.1080 C   0  0  0  0  0  0  0  0  0  0  0  0
   11.6640  -12.2350   -1.1740 C   0  0  0  0  0  0  0  0  0  0  0  0
   12.6690  -12.3100   -2.2950 C   0  0  0  0  0  0  0  0  0  0  0  0
   13.7790  -11.5640   -2.0440 F   0  0  0  0  0  0  0  0  0  0  0  0
   13.1130  -13.5740   -2.5400 F   0  0  0  0  0  0  0  0  0  0  0  0
   12.1750  -11.8530   -3.4810 F   0  0  0  0  0  0  0  0  0  0  0  0
   10.3110  -12.5410   -1.4100 C   0  0  0  0  0  0  0  0  0  0  0  0
    3.4940  -12.1480   -0.9230 C   0  0  0  0  0  0  0  0  0  0  0  0
    0.7500  -10.5460    0.2870 C   0  0  0  0  0  0  0  0  0  0  0  0
   -0.3350  -10.6200    1.1310 N   0  0  0  0  0  0  0  0  0  0  0  0
   -0.9360   -9.6770    1.9200 C   0  0  0  0  0  0  0  0  0  0  0  0
   -1.9730  -10.3390    2.5390 C   0  0  0  0  0  0  0  0  0  0  0  0
   -2.0210  -11.6550    2.1520 N   0  0  0  0  0  0  0  0  0  0  0  0
   -1.0230  -11.7940    1.2990 C   0  0  0  0  0  0  0  0  0  0  0  0
   -3.2667  -14.5294    1.0480 H   0  0  0  0  0  0  0  0  0  0  0  0
   -2.9012  -13.5683   -0.4249 H   0  0  0  0  0  0  0  0  0  0  0  0
   -2.6417  -15.3458   -0.4249 H   0  0  0  0  0  0  0  0  0  0  0  0
   -1.2528  -16.2320    1.2702 H   0  0  0  0  0  0  0  0  0  0  0  0
    0.2560  -15.6783    0.4349 H   0  0  0  0  0  0  0  0  0  0  0  0
    2.1663  -15.2393    1.7578 H   0  0  0  0  0  0  0  0  0  0  0  0
    3.1432  -14.7784    3.9724 H   0  0  0  0  0  0  0  0  0  0  0  0
   -0.6617  -14.4990    5.7230 H   0  0  0  0  0  0  0  0  0  0  0  0
   -1.7578  -14.9505    3.5649 H   0  0  0  0  0  0  0  0  0  0  0  0
    1.1740  -10.5778   -2.8827 H   0  0  0  0  0  0  0  0  0  0  0  0
    3.1283  -10.5080   -4.4262 H   0  0  0  0  0  0  0  0  0  0  0  0
    5.3108  -11.4793   -3.7248 H   0  0  0  0  0  0  0  0  0  0  0  0
    6.0010  -13.6010   -1.6110 H   0  0  0  0  0  0  0  0  0  0  0  0
    7.7820  -13.7640   -0.6590 H   0  0  0  0  0  0  0  0  0  0  0  0
    9.0345  -11.9753    1.6964 H   0  0  0  0  0  0  0  0  0  0  0  0
   11.4197  -11.4173    2.1356 H   0  0  0  0  0  0  0  0  0  0  0  0
   13.1039  -11.5744    0.3087 H   0  0  0  0  0  0  0  0  0  0  0  0
    9.9948  -12.8472   -2.4181 H   0  0  0  0  0  0  0  0  0  0  0  0
    3.5944  -12.6166    0.0671 H   0  0  0  0  0  0  0  0  0  0  0  0
    1.3006   -9.6033    0.1523 H   0  0  0  0  0  0  0  0  0  0  0  0
   -0.6525   -8.6204    2.0348 H   0  0  0  0  0  0  0  0  0  0  0  0
   -2.6713   -9.8740    3.2504 H   0  0  0  0  0  0  0  0  0  0  0  0
  1  2  1  0
  2  3  1  0
  3  4  1  0
  4  5  2  0
  5  6  1  0
  6  7  2  0
  7  8  1  0
  8  9  2  0
  2 10  1  0
 10 11  2  0
 11 12  1  0
 12 13  1  0
 13 14  2  0
 14 15  1  0
 15 16  2  0
 16 17  1  0
 17 18  1  0
 18 19  1  0
 19 20  2  0
 19 21  1  0
 21 22  1  0
 22 23  2  0
 23 24  1  0
 24 25  2  0
 25 26  1  0
 26 27  1  0
 27 28  1  0
 27 29  1  0
 27 30  1  0
 26 31  2  0
 17 32  2  0
 12 33  2  0
 33 34  1  0
 34 35  1  0
 35 36  2  0
 36 37  1  0
 37 38  2  0
  9  4  1  0
 38 10  1  0
 32 13  1  0
 38 34  1  0
 31 22  1  0
  1 39  1  0
  1 40  1  0
  1 41  1  0
  3 42  1  0
  3 43  1  0
  5 44  1  0
  6 45  1  0
  8 46  1  0
  9 47  1  0
 14 48  1  0
 15 49  1  0
 16 50  1  0
 18 51  1  0
 21 52  1  0
 23 53  1  0
 24 54  1  0
 25 55  1  0
 31 56  1  0
 32 57  1  0
 33 58  1  0
 35 59  1  0
 36 60  1  0
M  END
>  <meeko>  (8) 
{"is_sidechain": [false], "free_energy": -9.267, "intermolecular_energy": -12.409, "internal_energy": -1.322}

$$$$
LIB_PGAGZKDWBHDEKT__M_PUB_ALL__e8__s20260927
     RDKit          3D

 60 64  0  0  0  0  0  0  0  0999 V2000
    0.2250  -14.0920    4.0660 C   0  0  0  0  0  0  0  0  0  0  0  0
   -0.3130  -13.8820    2.7300 N   0  0  0  0  0  0  0  0  0  0  0  0
   -1.1970  -14.9210    2.2090 C   0  0  0  0  0  0  0  0  0  0  0  0
   -0.4430  -15.9030    1.3430 C   0  0  0  0  0  0  0  0  0  0  0  0
    0.3510  -16.9090    1.9010 C   0  0  0  0  0  0  0  0  0  0  0  0
    1.0130  -17.7840    1.0520 C   0  0  0  0  0  0  0  0  0  0  0  0
    0.9410  -17.7290   -0.2960 N   0  0  0  0  0  0  0  0  0  0  0  0
    0.1620  -16.7560   -0.8160 C   0  0  0  0  0  0  0  0  0  0  0  0
   -0.5360  -15.8360   -0.0490 C   0  0  0  0  0  0  0  0  0  0  0  0
   -0.0560  -12.7110    2.0110 C   0  0  0  0  0  0  0  0  0  0  0  0
    0.8870  -12.7310    1.0860 N   0  0  0  0  0  0  0  0  0  0  0  0
    1.1810  -11.5990    0.3430 C   0  0  0  0  0  0  0  0  0  0  0  0
    2.2220  -11.7190   -0.6990 C   0  0  0  0  0  0  0  0  0  0  0  0
    1.9740  -11.3530   -2.0280 C   0  0  0  0  0  0  0  0  0  0  0  0
    2.9780  -11.4700   -2.9870 C   0  0  0  0  0  0  0  0  0  0  0  0
    4.2410  -11.9440   -2.6240 C   0  0  0  0  0  0  0  0  0  0  0  0
    4.5160  -12.3020   -1.2990 C   0  0  0  0  0  0  0  0  0  0  0  0
    5.8200  -12.7610   -1.0120 N   0  0  0  0  0  0  0  0  0  0  0  0
    6.9460  -12.0010   -0.7230 C   0  0  0  0  0  0  0  0  0  0  0  0
    6.9910  -10.7780   -0.7360 O   0  0  0  0  0  0  0  0  0  0  0  0
    8.0190  -12.8270   -0.4150 N   0  0  0  0  0  0  0  0  0  0  0  0
    9.3620  -12.4480   -0.2050 C   0  0  0  0  0  0  0  0  0  0  0  0
    9.8460  -11.9170    0.9910 C   0  0  0  0  0  0  0  0  0  0  0  0
   11.1900  -11.5560    1.1180 C   0  0  0  0  0  0  0  0  0  0  0  0
   12.0650  -11.7180    0.0460 C   0  0  0  0  0  0  0  0  0  0  0  0
   11.6030  -12.2470   -1.1650 C   0  0  0  0  0  0  0  0  0  0  0  0
   12.5340  -12.4040   -2.3400 C   0  0  0  0  0  0  0  0  0  0  0  0
   12.8260  -13.7080   -2.5980 F   0  0  0  0  0  0  0  0  0  0  0  0
   12.0330  -11.8950   -3.5000 F   0  0  0  0  0  0  0  0  0  0  0  0
   13.7350  -11.7860   -2.1520 F   0  0  0  0  0  0  0  0  0  0  0  0
   10.2460  -12.6000   -1.2810 C   0  0  0  0  0  0  0  0  0  0  0  0
    3.4980  -12.1920   -0.3480 C   0  0  0  0  0  0  0  0  0  0  0  0
    0.5420  -10.4250    0.5040 C   0  0  0  0  0  0  0  0  0  0  0  0
   -0.4440  -10.3550    1.4600 N   0  0  0  0  0  0  0  0  0  0  0  0
   -1.2540   -9.3230    1.8520 C   0  0  0  0  0  0  0  0  0  0  0  0
   -2.0410   -9.8490    2.8540 C   0  0  0  0  0  0  0  0  0  0  0  0
   -1.7340  -11.1670    3.0830 N   0  0  0  0  0  0  0  0  0  0  0  0
   -0.7700  -11.4450    2.2250 C   0  0  0  0  0  0  0  0  0  0  0  0
   -0.5263  -13.7988    4.8141 H   0  0  0  0  0  0  0  0  0  0  0  0
    0.4773  -15.1546    4.1968 H   0  0  0  0  0  0  0  0  0  0  0  0
    1.1305  -13.4813    4.1968 H   0  0  0  0  0  0  0  0  0  0  0  0
   -1.6496  -15.4621    3.0530 H   0  0  0  0  0  0  0  0  0  0  0  0
   -1.9714  -14.4400    1.5934 H   0  0  0  0  0  0  0  0  0  0  0  0
    0.4491  -17.0051    2.9924 H   0  0  0  0  0  0  0  0  0  0  0  0
    1.6347  -18.5709    1.5041 H   0  0  0  0  0  0  0  0  0  0  0  0
    0.0765  -16.6897   -1.9107 H   0  0  0  0  0  0  0  0  0  0  0  0
   -1.1545  -15.0640   -0.5300 H   0  0  0  0  0  0  0  0  0  0  0  0
    0.9831  -10.9718   -2.3157 H   0  0  0  0  0  0  0  0  0  0  0  0
    2.7759  -11.1888   -4.0311 H   0  0  0  0  0  0  0  0  0  0  0  0
    5.0276  -12.0369   -3.3873 H   0  0  0  0  0  0  0  0  0  0  0  0
    5.9610  -13.7560   -1.0940 H   0  0  0  0  0  0  0  0  0  0  0  0
    7.8030  -13.7970   -0.2530 H   0  0  0  0  0  0  0  0  0  0  0  0
    9.1629  -11.7812    1.8424 H   0  0  0  0  0  0  0  0  0  0  0  0
   11.5586  -11.1422    2.0682 H   0  0  0  0  0  0  0  0  0  0  0  0
   13.1213  -11.4296    0.1514 H   0  0  0  0  0  0  0  0  0  0  0  0
    9.8724  -13.0027   -2.2340 H   0  0  0  0  0  0  0  0  0  0  0  0
    3.6990  -12.4809    0.6942 H   0  0  0  0  0  0  0  0  0  0  0  0
    0.8004   -9.5495   -0.1097 H   0  0  0  0  0  0  0  0  0  0  0  0
   -1.2726   -8.2977    1.4541 H   0  0  0  0  0  0  0  0  0  0  0  0
   -2.8136   -9.2864    3.3985 H   0  0  0  0  0  0  0  0  0  0  0  0
  1  2  1  0
  2  3  1  0
  3  4  1  0
  4  5  2  0
  5  6  1  0
  6  7  2  0
  7  8  1  0
  8  9  2  0
  2 10  1  0
 10 11  2  0
 11 12  1  0
 12 13  1  0
 13 14  2  0
 14 15  1  0
 15 16  2  0
 16 17  1  0
 17 18  1  0
 18 19  1  0
 19 20  2  0
 19 21  1  0
 21 22  1  0
 22 23  2  0
 23 24  1  0
 24 25  2  0
 25 26  1  0
 26 27  1  0
 27 28  1  0
 27 29  1  0
 27 30  1  0
 26 31  2  0
 17 32  2  0
 12 33  2  0
 33 34  1  0
 34 35  1  0
 35 36  2  0
 36 37  1  0
 37 38  2  0
  9  4  1  0
 38 10  1  0
 32 13  1  0
 38 34  1  0
 31 22  1  0
  1 39  1  0
  1 40  1  0
  1 41  1  0
  3 42  1  0
  3 43  1  0
  5 44  1  0
  6 45  1  0
  8 46  1  0
  9 47  1  0
 14 48  1  0
 15 49  1  0
 16 50  1  0
 18 51  1  0
 21 52  1  0
 23 53  1  0
 24 54  1  0
 25 55  1  0
 31 56  1  0
 32 57  1  0
 33 58  1  0
 35 59  1  0
 36 60  1  0
M  END
>  <meeko>  (9) 
{"is_sidechain": [false], "free_energy": -9.21, "intermolecular_energy": -12.355, "internal_energy": -1.295}

$$$$
