LIB_MYAFDHCCQBIZLC__W_7USX_LOCAL_COMPLETE__e8__s20260927
     RDKit          3D

 58 62  0  0  0  0  0  0  0  0999 V2000
  129.4270  186.5890  163.9360 O   0  0  0  0  0  0  0  0  0  0  0  0
  129.3880  186.4720  162.7180 C   0  0  0  0  0  0  0  0  0  0  0  0
  130.3400  185.8090  161.9540 N   0  0  0  0  0  0  0  0  0  0  0  0
  131.5700  185.2720  162.3900 C   0  0  0  0  0  0  0  0  0  0  0  0
  132.7370  185.8920  161.9290 C   0  0  0  0  0  0  0  0  0  0  0  0
  133.9910  185.4240  162.3200 C   0  0  0  0  0  0  0  0  0  0  0  0
  134.0880  184.3280  163.1760 C   0  0  0  0  0  0  0  0  0  0  0  0
  132.9370  183.6860  163.6520 C   0  0  0  0  0  0  0  0  0  0  0  0
  133.0720  182.5300  164.5770 C   0  0  0  0  0  0  0  0  0  0  0  0
  134.0500  182.5230  165.5080 C   0  0  0  0  0  0  0  0  0  0  0  0
  134.1360  181.4410  166.3570 N   0  0  0  0  0  0  0  0  0  0  0  0
  134.9930  181.1370  167.3780 C   0  0  0  0  0  0  0  0  0  0  0  0
  134.5680  179.9120  167.8490 C   0  0  0  0  0  0  0  0  0  0  0  0
  133.4740  179.4590  167.1480 N   0  0  0  0  0  0  0  0  0  0  0  0
  133.2480  180.4080  166.2600 C   0  0  0  0  0  0  0  0  0  0  0  0
  132.2050  180.4610  165.2520 C   0  0  0  0  0  0  0  0  0  0  0  0
  131.2970  179.4380  165.1360 N   0  0  0  0  0  0  0  0  0  0  0  0
  130.2480  179.3940  164.1560 C   0  0  0  0  0  0  0  0  0  0  0  0
  130.6630  178.5030  163.0110 C   0  0  0  0  0  0  0  0  0  0  0  0
  131.6180  178.9400  162.0790 C   0  0  0  0  0  0  0  0  0  0  0  0
  131.9820  178.1250  161.0060 C   0  0  0  0  0  0  0  0  0  0  0  0
  131.3920  176.8730  160.8470 C   0  0  0  0  0  0  0  0  0  0  0  0
  130.4320  176.4340  161.7590 C   0  0  0  0  0  0  0  0  0  0  0  0
  130.0660  177.2460  162.8330 C   0  0  0  0  0  0  0  0  0  0  0  0
  132.1390  181.5030  164.4530 N   0  0  0  0  0  0  0  0  0  0  0  0
  131.6810  184.1830  163.2610 C   0  0  0  0  0  0  0  0  0  0  0  0
  128.3850  186.9790  161.9030 N   0  0  0  0  0  0  0  0  0  0  0  0
  127.1940  187.6220  162.2990 C   0  0  0  0  0  0  0  0  0  0  0  0
  127.1370  189.0130  162.1390 C   0  0  0  0  0  0  0  0  0  0  0  0
  125.9960  189.7280  162.5050 C   0  0  0  0  0  0  0  0  0  0  0  0
  124.8930  189.0600  163.0310 C   0  0  0  0  0  0  0  0  0  0  0  0
  124.9220  187.6670  163.1900 C   0  0  0  0  0  0  0  0  0  0  0  0
  123.7430  186.9280  163.7720 C   0  0  0  0  0  0  0  0  0  0  0  0
  124.0640  185.6870  164.2300 F   0  0  0  0  0  0  0  0  0  0  0  0
  122.7330  186.7380  162.8750 F   0  0  0  0  0  0  0  0  0  0  0  0
  123.1840  187.5860  164.8240 F   0  0  0  0  0  0  0  0  0  0  0  0
  126.0830  186.9590  162.8230 C   0  0  0  0  0  0  0  0  0  0  0  0
  130.0920  185.6160  160.9970 H   0  0  0  0  0  0  0  0  0  0  0  0
  132.6643  186.7561  161.2522 H   0  0  0  0  0  0  0  0  0  0  0  0
  134.9024  185.9190  161.9535 H   0  0  0  0  0  0  0  0  0  0  0  0
  135.0797  183.9629  163.4813 H   0  0  0  0  0  0  0  0  0  0  0  0
  134.7599  183.3596  165.5867 H   0  0  0  0  0  0  0  0  0  0  0  0
  135.8379  181.7386  167.7444 H   0  0  0  0  0  0  0  0  0  0  0  0
  135.0427  179.3673  168.6784 H   0  0  0  0  0  0  0  0  0  0  0  0
  131.3990  178.6580  165.7770 H   0  0  0  0  0  0  0  0  0  0  0  0
  129.3325  178.9951  164.6172 H   0  0  0  0  0  0  0  0  0  0  0  0
  130.0574  180.4095  163.7786 H   0  0  0  0  0  0  0  0  0  0  0  0
  132.0820  179.9305  162.1952 H   0  0  0  0  0  0  0  0  0  0  0  0
  132.7363  178.4719  160.2844 H   0  0  0  0  0  0  0  0  0  0  0  0
  131.6830  176.2309  160.0026 H   0  0  0  0  0  0  0  0  0  0  0  0
  129.9633  175.4471  161.6313 H   0  0  0  0  0  0  0  0  0  0  0  0
  129.3036  176.8980  163.5455 H   0  0  0  0  0  0  0  0  0  0  0  0
  130.7681  183.7062  163.6475 H   0  0  0  0  0  0  0  0  0  0  0  0
  128.5550  186.9390  160.9100 H   0  0  0  0  0  0  0  0  0  0  0  0
  128.0021  189.5477  161.7199 H   0  0  0  0  0  0  0  0  0  0  0  0
  125.9677  190.8203  162.3779 H   0  0  0  0  0  0  0  0  0  0  0  0
  123.9964  189.6267  163.3226 H   0  0  0  0  0  0  0  0  0  0  0  0
  126.1147  185.8670  162.9513 H   0  0  0  0  0  0  0  0  0  0  0  0
  1  2  2  0
  2  3  1  0
  3  4  1  0
  4  5  2  0
  5  6  1  0
  6  7  2  0
  7  8  1  0
  8  9  1  0
  9 10  2  0
 10 11  1  0
 11 12  1  0
 12 13  2  0
 13 14  1  0
 14 15  2  0
 15 16  1  0
 16 17  1  0
 17 18  1  0
 18 19  1  0
 19 20  2  0
 20 21  1  0
 21 22  2  0
 22 23  1  0
 23 24  2  0
 16 25  2  0
  8 26  2  0
  2 27  1  0
 27 28  1  0
 28 29  2  0
 29 30  1  0
 30 31  2  0
 31 32  1  0
 32 33  1  0
 33 34  1  0
 33 35  1  0
 33 36  1  0
 32 37  2  0
 26  4  1  0
 37 28  1  0
 25  9  1  0
 15 11  1  0
 24 19  1  0
  3 38  1  0
  5 39  1  0
  6 40  1  0
  7 41  1  0
 10 42  1  0
 12 43  1  0
 13 44  1  0
 17 45  1  0
 18 46  1  0
 18 47  1  0
 20 48  1  0
 21 49  1  0
 22 50  1  0
 23 51  1  0
 24 52  1  0
 26 53  1  0
 27 54  1  0
 29 55  1  0
 30 56  1  0
 31 57  1  0
 37 58  1  0
M  END
>  <meeko>  (1) 
{"is_sidechain": [false], "free_energy": -9.081, "intermolecular_energy": -12.266, "internal_energy": -1.054}

$$$$
LIB_MYAFDHCCQBIZLC__W_7USX_LOCAL_COMPLETE__e8__s20260927
     RDKit          3D

 58 62  0  0  0  0  0  0  0  0999 V2000
  125.9830  188.2220  165.0190 O   0  0  0  0  0  0  0  0  0  0  0  0
  125.9140  188.6280  163.8660 C   0  0  0  0  0  0  0  0  0  0  0  0
  127.0070  188.9000  163.0540 N   0  0  0  0  0  0  0  0  0  0  0  0
  128.3700  188.8990  163.4190 C   0  0  0  0  0  0  0  0  0  0  0  0
  128.7250  189.6210  164.5650 C   0  0  0  0  0  0  0  0  0  0  0  0
  130.0510  189.6640  164.9950 C   0  0  0  0  0  0  0  0  0  0  0  0
  131.0360  188.9840  164.2780 C   0  0  0  0  0  0  0  0  0  0  0  0
  130.7110  188.2560  163.1260 C   0  0  0  0  0  0  0  0  0  0  0  0
  131.7790  187.5280  162.3930 C   0  0  0  0  0  0  0  0  0  0  0  0
  132.4590  188.1480  161.4040 C   0  0  0  0  0  0  0  0  0  0  0  0
  133.4520  187.4470  160.7550 N   0  0  0  0  0  0  0  0  0  0  0  0
  134.2990  187.7800  159.7340 C   0  0  0  0  0  0  0  0  0  0  0  0
  135.0680  186.6540  159.5250 C   0  0  0  0  0  0  0  0  0  0  0  0
  134.7180  185.6430  160.3890 N   0  0  0  0  0  0  0  0  0  0  0  0
  133.7420  186.1610  161.1100 C   0  0  0  0  0  0  0  0  0  0  0  0
  132.9940  185.5360  162.1860 C   0  0  0  0  0  0  0  0  0  0  0  0
  133.2680  184.2460  162.5660 N   0  0  0  0  0  0  0  0  0  0  0  0
  132.5670  183.5400  163.6020 C   0  0  0  0  0  0  0  0  0  0  0  0
  133.1500  182.1570  163.7540 C   0  0  0  0  0  0  0  0  0  0  0  0
  134.5130  181.9850  164.0380 C   0  0  0  0  0  0  0  0  0  0  0  0
  135.0560  180.7040  164.1530 C   0  0  0  0  0  0  0  0  0  0  0  0
  134.2460  179.5840  163.9760 C   0  0  0  0  0  0  0  0  0  0  0  0
  132.8930  179.7420  163.6810 C   0  0  0  0  0  0  0  0  0  0  0  0
  132.3480  181.0210  163.5650 C   0  0  0  0  0  0  0  0  0  0  0  0
  132.0520  186.2230  162.7940 N   0  0  0  0  0  0  0  0  0  0  0  0
  129.3650  188.2100  162.7180 C   0  0  0  0  0  0  0  0  0  0  0  0
  124.7320  188.8750  163.1810 N   0  0  0  0  0  0  0  0  0  0  0  0
  123.4140  188.6250  163.6170 C   0  0  0  0  0  0  0  0  0  0  0  0
  122.5970  189.7400  163.8480 C   0  0  0  0  0  0  0  0  0  0  0  0
  121.2790  189.5830  164.2800 C   0  0  0  0  0  0  0  0  0  0  0  0
  120.7590  188.3070  164.4810 C   0  0  0  0  0  0  0  0  0  0  0  0
  121.5530  187.1760  164.2450 C   0  0  0  0  0  0  0  0  0  0  0  0
  121.0110  185.7870  164.4720 C   0  0  0  0  0  0  0  0  0  0  0  0
  120.0290  185.4470  163.5920 F   0  0  0  0  0  0  0  0  0  0  0  0
  120.4660  185.6190  165.7110 F   0  0  0  0  0  0  0  0  0  0  0  0
  121.9690  184.8280  164.3570 F   0  0  0  0  0  0  0  0  0  0  0  0
  122.8830  187.3490  163.8170 C   0  0  0  0  0  0  0  0  0  0  0  0
  126.8150  189.0360  162.0740 H   0  0  0  0  0  0  0  0  0  0  0  0
  127.9508  190.1593  165.1314 H   0  0  0  0  0  0  0  0  0  0  0  0
  130.3197  190.2328  165.8974 H   0  0  0  0  0  0  0  0  0  0  0  0
  132.0804  189.0199  164.6214 H   0  0  0  0  0  0  0  0  0  0  0  0
  132.2259  189.1859  161.1240 H   0  0  0  0  0  0  0  0  0  0  0  0
  134.3549  188.7379  159.1962 H   0  0  0  0  0  0  0  0  0  0  0  0
  135.8593  186.5750  158.7650 H   0  0  0  0  0  0  0  0  0  0  0  0
  134.0040  183.7630  162.0600 H   0  0  0  0  0  0  0  0  0  0  0  0
  132.6686  184.0867  164.5511 H   0  0  0  0  0  0  0  0  0  0  0  0
  131.5028  183.4611  163.3353 H   0  0  0  0  0  0  0  0  0  0  0  0
  135.1585  182.8657  164.1710 H   0  0  0  0  0  0  0  0  0  0  0  0
  136.1242  180.5787  164.3836 H   0  0  0  0  0  0  0  0  0  0  0  0
  134.6744  178.5752  164.0691 H   0  0  0  0  0  0  0  0  0  0  0  0
  132.2544  178.8576  163.5395 H   0  0  0  0  0  0  0  0  0  0  0  0
  131.2814  181.1399  163.3235 H   0  0  0  0  0  0  0  0  0  0  0  0
  129.0901  187.6208  161.8307 H   0  0  0  0  0  0  0  0  0  0  0  0
  124.8210  189.3450  162.2950 H   0  0  0  0  0  0  0  0  0  0  0  0
  122.9992  190.7511  163.6869 H   0  0  0  0  0  0  0  0  0  0  0  0
  120.6509  190.4676  164.4617 H   0  0  0  0  0  0  0  0  0  0  0  0
  119.7216  188.1860  164.8262 H   0  0  0  0  0  0  0  0  0  0  0  0
  123.5135  186.4657  163.6374 H   0  0  0  0  0  0  0  0  0  0  0  0
  1  2  2  0
  2  3  1  0
  3  4  1  0
  4  5  2  0
  5  6  1  0
  6  7  2  0
  7  8  1  0
  8  9  1  0
  9 10  2  0
 10 11  1  0
 11 12  1  0
 12 13  2  0
 13 14  1  0
 14 15  2  0
 15 16  1  0
 16 17  1  0
 17 18  1  0
 18 19  1  0
 19 20  2  0
 20 21  1  0
 21 22  2  0
 22 23  1  0
 23 24  2  0
 16 25  2  0
  8 26  2  0
  2 27  1  0
 27 28  1  0
 28 29  2  0
 29 30  1  0
 30 31  2  0
 31 32  1  0
 32 33  1  0
 33 34  1  0
 33 35  1  0
 33 36  1  0
 32 37  2  0
 26  4  1  0
 37 28  1  0
 25  9  1  0
 15 11  1  0
 24 19  1  0
  3 38  1  0
  5 39  1  0
  6 40  1  0
  7 41  1  0
 10 42  1  0
 12 43  1  0
 13 44  1  0
 17 45  1  0
 18 46  1  0
 18 47  1  0
 20 48  1  0
 21 49  1  0
 22 50  1  0
 23 51  1  0
 24 52  1  0
 26 53  1  0
 27 54  1  0
 29 55  1  0
 30 56  1  0
 31 57  1  0
 37 58  1  0
M  END
>  <meeko>  (2) 
{"is_sidechain": [false], "free_energy": -9.046, "intermolecular_energy": -12.59, "internal_energy": -0.683}

$$$$
LIB_MYAFDHCCQBIZLC__W_7USX_LOCAL_COMPLETE__e8__s20260927
     RDKit          3D

 58 62  0  0  0  0  0  0  0  0999 V2000
  126.4250  188.3300  163.7450 O   0  0  0  0  0  0  0  0  0  0  0  0
  126.4980  187.8340  164.8620 C   0  0  0  0  0  0  0  0  0  0  0  0
  127.6320  187.8500  165.6640 N   0  0  0  0  0  0  0  0  0  0  0  0
  128.9240  188.3000  165.3160 C   0  0  0  0  0  0  0  0  0  0  0  0
  129.4040  189.4360  165.9790 C   0  0  0  0  0  0  0  0  0  0  0  0
  130.6730  189.9390  165.6960 C   0  0  0  0  0  0  0  0  0  0  0  0
  131.4740  189.3090  164.7440 C   0  0  0  0  0  0  0  0  0  0  0  0
  131.0190  188.1720  164.0630 C   0  0  0  0  0  0  0  0  0  0  0  0
  131.9020  187.5130  163.0650 C   0  0  0  0  0  0  0  0  0  0  0  0
  132.5640  188.2590  162.1550 C   0  0  0  0  0  0  0  0  0  0  0  0
  133.3840  187.6150  161.2540 N   0  0  0  0  0  0  0  0  0  0  0  0
  134.1670  188.0720  160.2310 C   0  0  0  0  0  0  0  0  0  0  0  0
  134.7490  186.9420  159.6930 C   0  0  0  0  0  0  0  0  0  0  0  0
  134.3470  185.8080  160.3600 N   0  0  0  0  0  0  0  0  0  0  0  0
  133.5260  186.2570  161.2890 C   0  0  0  0  0  0  0  0  0  0  0  0
  132.8040  185.4940  162.2920 C   0  0  0  0  0  0  0  0  0  0  0  0
  132.9320  184.1290  162.3520 N   0  0  0  0  0  0  0  0  0  0  0  0
  132.2410  183.2920  163.2930 C   0  0  0  0  0  0  0  0  0  0  0  0
  133.0450  182.0380  163.5370 C   0  0  0  0  0  0  0  0  0  0  0  0
  132.4210  180.7810  163.5390 C   0  0  0  0  0  0  0  0  0  0  0  0
  133.1610  179.6250  163.7910 C   0  0  0  0  0  0  0  0  0  0  0  0
  134.5270  179.7130  164.0520 C   0  0  0  0  0  0  0  0  0  0  0  0
  135.1560  180.9570  164.0660 C   0  0  0  0  0  0  0  0  0  0  0  0
  134.4180  182.1150  163.8150 C   0  0  0  0  0  0  0  0  0  0  0  0
  132.0280  186.1290  163.1430 N   0  0  0  0  0  0  0  0  0  0  0  0
  129.7430  187.6690  164.3750 C   0  0  0  0  0  0  0  0  0  0  0  0
  125.4590  187.1810  165.5100 N   0  0  0  0  0  0  0  0  0  0  0  0
  124.1230  187.0460  165.0800 C   0  0  0  0  0  0  0  0  0  0  0  0
  123.6640  185.7460  164.8270 C   0  0  0  0  0  0  0  0  0  0  0  0
  122.3550  185.5210  164.3980 C   0  0  0  0  0  0  0  0  0  0  0  0
  121.4860  186.5940  164.2210 C   0  0  0  0  0  0  0  0  0  0  0  0
  121.9180  187.9030  164.4790 C   0  0  0  0  0  0  0  0  0  0  0  0
  120.9940  189.0780  164.2790 C   0  0  0  0  0  0  0  0  0  0  0  0
  121.5680  190.0950  163.5790 F   0  0  0  0  0  0  0  0  0  0  0  0
  120.5700  189.6330  165.4500 F   0  0  0  0  0  0  0  0  0  0  0  0
  119.8640  188.7430  163.5990 F   0  0  0  0  0  0  0  0  0  0  0  0
  123.2430  188.1150  164.9040 C   0  0  0  0  0  0  0  0  0  0  0  0
  127.5040  187.5850  166.6270 H   0  0  0  0  0  0  0  0  0  0  0  0
  128.7743  189.9359  166.7297 H   0  0  0  0  0  0  0  0  0  0  0  0
  131.0419  190.8314  166.2228 H   0  0  0  0  0  0  0  0  0  0  0  0
  132.4749  189.7094  164.5251 H   0  0  0  0  0  0  0  0  0  0  0  0
  132.4516  189.3530  162.1334 H   0  0  0  0  0  0  0  0  0  0  0  0
  134.3037  189.1142  159.9069 H   0  0  0  0  0  0  0  0  0  0  0  0
  135.4445  186.9475  158.8408 H   0  0  0  0  0  0  0  0  0  0  0  0
  133.5410  183.6930  161.6670 H   0  0  0  0  0  0  0  0  0  0  0  0
  132.1121  183.8350  164.2409 H   0  0  0  0  0  0  0  0  0  0  0  0
  131.2547  183.0219  162.8878 H   0  0  0  0  0  0  0  0  0  0  0  0
  131.3416  180.7065  163.3406 H   0  0  0  0  0  0  0  0  0  0  0  0
  132.6653  178.6430  163.7836 H   0  0  0  0  0  0  0  0  0  0  0  0
  135.1093  178.8004  164.2471 H   0  0  0  0  0  0  0  0  0  0  0  0
  136.2338  181.0261  164.2748 H   0  0  0  0  0  0  0  0  0  0  0  0
  134.9167  183.0953  163.8353 H   0  0  0  0  0  0  0  0  0  0  0  0
  129.3825  186.7614  163.8687 H   0  0  0  0  0  0  0  0  0  0  0  0
  125.7000  186.6940  166.3590 H   0  0  0  0  0  0  0  0  0  0  0  0
  124.3437  184.8927  164.9683 H   0  0  0  0  0  0  0  0  0  0  0  0
  122.0100  184.4955  164.1997 H   0  0  0  0  0  0  0  0  0  0  0  0
  120.4566  186.4144  163.8774 H   0  0  0  0  0  0  0  0  0  0  0  0
  123.5906  189.1399  165.1007 H   0  0  0  0  0  0  0  0  0  0  0  0
  1  2  2  0
  2  3  1  0
  3  4  1  0
  4  5  2  0
  5  6  1  0
  6  7  2  0
  7  8  1  0
  8  9  1  0
  9 10  2  0
 10 11  1  0
 11 12  1  0
 12 13  2  0
 13 14  1  0
 14 15  2  0
 15 16  1  0
 16 17  1  0
 17 18  1  0
 18 19  1  0
 19 20  2  0
 20 21  1  0
 21 22  2  0
 22 23  1  0
 23 24  2  0
 16 25  2  0
  8 26  2  0
  2 27  1  0
 27 28  1  0
 28 29  2  0
 29 30  1  0
 30 31  2  0
 31 32  1  0
 32 33  1  0
 33 34  1  0
 33 35  1  0
 33 36  1  0
 32 37  2  0
 26  4  1  0
 37 28  1  0
 25  9  1  0
 15 11  1  0
 24 19  1  0
  3 38  1  0
  5 39  1  0
  6 40  1  0
  7 41  1  0
 10 42  1  0
 12 43  1  0
 13 44  1  0
 17 45  1  0
 18 46  1  0
 18 47  1  0
 20 48  1  0
 21 49  1  0
 22 50  1  0
 23 51  1  0
 24 52  1  0
 26 53  1  0
 27 54  1  0
 29 55  1  0
 30 56  1  0
 31 57  1  0
 37 58  1  0
M  END
>  <meeko>  (3) 
{"is_sidechain": [false], "free_energy": -9.018, "intermolecular_energy": -12.29, "internal_energy": -0.945}

$$$$
LIB_MYAFDHCCQBIZLC__W_7USX_LOCAL_COMPLETE__e8__s20260927
     RDKit          3D

 58 62  0  0  0  0  0  0  0  0999 V2000
  132.4350  183.3800  164.0170 O   0  0  0  0  0  0  0  0  0  0  0  0
  131.9570  183.3840  162.8900 C   0  0  0  0  0  0  0  0  0  0  0  0
  131.6720  184.5260  162.1530 N   0  0  0  0  0  0  0  0  0  0  0  0
  131.7440  185.8680  162.5850 C   0  0  0  0  0  0  0  0  0  0  0  0
  132.8300  186.6270  162.1330 C   0  0  0  0  0  0  0  0  0  0  0  0
  132.9680  187.9620  162.5110 C   0  0  0  0  0  0  0  0  0  0  0  0
  132.0200  188.5500  163.3480 C   0  0  0  0  0  0  0  0  0  0  0  0
  130.9240  187.8130  163.8180 C   0  0  0  0  0  0  0  0  0  0  0  0
  129.9210  188.4700  164.6960 C   0  0  0  0  0  0  0  0  0  0  0  0
  130.3160  189.0730  165.8380 C   0  0  0  0  0  0  0  0  0  0  0  0
  129.3610  189.6840  166.6190 N   0  0  0  0  0  0  0  0  0  0  0  0
  129.4350  190.3590  167.8060 C   0  0  0  0  0  0  0  0  0  0  0  0
  128.1370  190.7360  168.0850 C   0  0  0  0  0  0  0  0  0  0  0  0
  127.2720  190.3130  167.1030 N   0  0  0  0  0  0  0  0  0  0  0  0
  128.0480  189.6840  166.2420 C   0  0  0  0  0  0  0  0  0  0  0  0
  127.6670  189.0340  165.0010 C   0  0  0  0  0  0  0  0  0  0  0  0
  126.3560  189.0230  164.5960 N   0  0  0  0  0  0  0  0  0  0  0  0
  125.8840  188.3870  163.3980 C   0  0  0  0  0  0  0  0  0  0  0  0
  124.8120  187.3840  163.7470 C   0  0  0  0  0  0  0  0  0  0  0  0
  123.4630  187.6600  163.4760 C   0  0  0  0  0  0  0  0  0  0  0  0
  122.4700  186.7420  163.8240 C   0  0  0  0  0  0  0  0  0  0  0  0
  122.8120  185.5470  164.4520 C   0  0  0  0  0  0  0  0  0  0  0  0
  124.1480  185.2680  164.7390 C   0  0  0  0  0  0  0  0  0  0  0  0
  125.1430  186.1830  164.3930 C   0  0  0  0  0  0  0  0  0  0  0  0
  128.5960  188.4580  164.2680 N   0  0  0  0  0  0  0  0  0  0  0  0
  130.7920  186.4720  163.4120 C   0  0  0  0  0  0  0  0  0  0  0  0
  131.6260  182.2480  162.1640 N   0  0  0  0  0  0  0  0  0  0  0  0
  131.8560  180.9010  162.5160 C   0  0  0  0  0  0  0  0  0  0  0  0
  132.7160  180.6630  163.5960 C   0  0  0  0  0  0  0  0  0  0  0  0
  132.9980  179.3610  164.0110 C   0  0  0  0  0  0  0  0  0  0  0  0
  132.4180  178.2790  163.3530 C   0  0  0  0  0  0  0  0  0  0  0  0
  131.5450  178.4930  162.2780 C   0  0  0  0  0  0  0  0  0  0  0  0
  130.9190  177.3320  161.5450 C   0  0  0  0  0  0  0  0  0  0  0  0
  130.4770  177.6630  160.3000 F   0  0  0  0  0  0  0  0  0  0  0  0
  129.8390  176.8090  162.1910 F   0  0  0  0  0  0  0  0  0  0  0  0
  131.7850  176.2960  161.3740 F   0  0  0  0  0  0  0  0  0  0  0  0
  131.2750  179.8110  161.8650 C   0  0  0  0  0  0  0  0  0  0  0  0
  131.4690  184.3910  161.1760 H   0  0  0  0  0  0  0  0  0  0  0  0
  133.5808  186.1663  161.4741 H   0  0  0  0  0  0  0  0  0  0  0  0
  133.8238  188.5509  162.1494 H   0  0  0  0  0  0  0  0  0  0  0  0
  132.1335  189.6037  163.6427 H   0  0  0  0  0  0  0  0  0  0  0  0
  131.3746  189.0759  166.1368 H   0  0  0  0  0  0  0  0  0  0  0  0
  130.3340  190.5582  168.4078 H   0  0  0  0  0  0  0  0  0  0  0  0
  127.8333  191.3020  168.9780 H   0  0  0  0  0  0  0  0  0  0  0  0
  125.6830  189.4800  165.2030 H   0  0  0  0  0  0  0  0  0  0  0  0
  125.4681  189.1465  162.7196 H   0  0  0  0  0  0  0  0  0  0  0  0
  126.7205  187.8711  162.9040 H   0  0  0  0  0  0  0  0  0  0  0  0
  123.1861  188.6053  162.9864 H   0  0  0  0  0  0  0  0  0  0  0  0
  121.4156  186.9632  163.6017 H   0  0  0  0  0  0  0  0  0  0  0  0
  122.0286  184.8233  164.7216 H   0  0  0  0  0  0  0  0  0  0  0  0
  124.4176  184.3258  165.2386 H   0  0  0  0  0  0  0  0  0  0  0  0
  126.1944  185.9613  164.6283 H   0  0  0  0  0  0  0  0  0  0  0  0
  129.9238  185.8882  163.7516 H   0  0  0  0  0  0  0  0  0  0  0  0
  131.1050  182.3980  161.3150 H   0  0  0  0  0  0  0  0  0  0  0  0
  133.1744  181.5127  164.1231 H   0  0  0  0  0  0  0  0  0  0  0  0
  133.6785  179.1890  164.8580 H   0  0  0  0  0  0  0  0  0  0  0  0
  132.6460  177.2532  163.6783 H   0  0  0  0  0  0  0  0  0  0  0  0
  130.5963  179.9850  161.0170 H   0  0  0  0  0  0  0  0  0  0  0  0
  1  2  2  0
  2  3  1  0
  3  4  1  0
  4  5  2  0
  5  6  1  0
  6  7  2  0
  7  8  1  0
  8  9  1  0
  9 10  2  0
 10 11  1  0
 11 12  1  0
 12 13  2  0
 13 14  1  0
 14 15  2  0
 15 16  1  0
 16 17  1  0
 17 18  1  0
 18 19  1  0
 19 20  2  0
 20 21  1  0
 21 22  2  0
 22 23  1  0
 23 24  2  0
 16 25  2  0
  8 26  2  0
  2 27  1  0
 27 28  1  0
 28 29  2  0
 29 30  1  0
 30 31  2  0
 31 32  1  0
 32 33  1  0
 33 34  1  0
 33 35  1  0
 33 36  1  0
 32 37  2  0
 26  4  1  0
 37 28  1  0
 25  9  1  0
 15 11  1  0
 24 19  1  0
  3 38  1  0
  5 39  1  0
  6 40  1  0
  7 41  1  0
 10 42  1  0
 12 43  1  0
 13 44  1  0
 17 45  1  0
 18 46  1  0
 18 47  1  0
 20 48  1  0
 21 49  1  0
 22 50  1  0
 23 51  1  0
 24 52  1  0
 26 53  1  0
 27 54  1  0
 29 55  1  0
 30 56  1  0
 31 57  1  0
 37 58  1  0
M  END
>  <meeko>  (4) 
{"is_sidechain": [false], "free_energy": -8.636, "intermolecular_energy": -12.247, "internal_energy": -0.472}

$$$$
LIB_MYAFDHCCQBIZLC__W_7USX_LOCAL_COMPLETE__e8__s20260927
     RDKit          3D

 58 62  0  0  0  0  0  0  0  0999 V2000
  131.3050  183.1270  163.5570 O   0  0  0  0  0  0  0  0  0  0  0  0
  132.3210  183.8080  163.6040 C   0  0  0  0  0  0  0  0  0  0  0  0
  132.3900  185.1540  163.2680 N   0  0  0  0  0  0  0  0  0  0  0  0
  131.3750  185.9500  162.6940 C   0  0  0  0  0  0  0  0  0  0  0  0
  131.6640  186.5680  161.4720 C   0  0  0  0  0  0  0  0  0  0  0  0
  130.7110  187.3650  160.8380 C   0  0  0  0  0  0  0  0  0  0  0  0
  129.4600  187.5520  161.4250 C   0  0  0  0  0  0  0  0  0  0  0  0
  129.1440  186.9480  162.6490 C   0  0  0  0  0  0  0  0  0  0  0  0
  127.7970  187.1520  163.2420 C   0  0  0  0  0  0  0  0  0  0  0  0
  126.7000  187.0980  162.4570 C   0  0  0  0  0  0  0  0  0  0  0  0
  125.4660  187.2780  163.0430 N   0  0  0  0  0  0  0  0  0  0  0  0
  124.1970  187.2860  162.5350 C   0  0  0  0  0  0  0  0  0  0  0  0
  123.3780  187.5180  163.6210 C   0  0  0  0  0  0  0  0  0  0  0  0
  124.1090  187.6490  164.7790 N   0  0  0  0  0  0  0  0  0  0  0  0
  125.3590  187.5000  164.3860 C   0  0  0  0  0  0  0  0  0  0  0  0
  126.5640  187.5400  165.1960 C   0  0  0  0  0  0  0  0  0  0  0  0
  126.4850  187.7570  166.5490 N   0  0  0  0  0  0  0  0  0  0  0  0
  127.6220  187.8350  167.4240 C   0  0  0  0  0  0  0  0  0  0  0  0
  127.6290  186.6430  168.3500 C   0  0  0  0  0  0  0  0  0  0  0  0
  126.5530  185.7420  168.3600 C   0  0  0  0  0  0  0  0  0  0  0  0
  126.5490  184.6540  169.2340 C   0  0  0  0  0  0  0  0  0  0  0  0
  127.6140  184.4600  170.1120 C   0  0  0  0  0  0  0  0  0  0  0  0
  128.6820  185.3560  170.1210 C   0  0  0  0  0  0  0  0  0  0  0  0
  128.6890  186.4440  169.2480 C   0  0  0  0  0  0  0  0  0  0  0  0
  127.7320  187.3630  164.6170 N   0  0  0  0  0  0  0  0  0  0  0  0
  130.1120  186.1330  163.2650 C   0  0  0  0  0  0  0  0  0  0  0  0
  133.5670  183.3480  164.0060 N   0  0  0  0  0  0  0  0  0  0  0  0
  133.8920  182.0760  164.5210 C   0  0  0  0  0  0  0  0  0  0  0  0
  134.7000  181.2530  163.7250 C   0  0  0  0  0  0  0  0  0  0  0  0
  135.0690  179.9790  164.1580 C   0  0  0  0  0  0  0  0  0  0  0  0
  134.6400  179.5130  165.3980 C   0  0  0  0  0  0  0  0  0  0  0  0
  133.8420  180.3230  166.2180 C   0  0  0  0  0  0  0  0  0  0  0  0
  133.3560  179.8280  167.5580 C   0  0  0  0  0  0  0  0  0  0  0  0
  132.9430  178.5310  167.5300 F   0  0  0  0  0  0  0  0  0  0  0  0
  132.2980  180.5400  168.0410 F   0  0  0  0  0  0  0  0  0  0  0  0
  134.3170  179.8970  168.5190 F   0  0  0  0  0  0  0  0  0  0  0  0
  133.4700  181.6020  165.7650 C   0  0  0  0  0  0  0  0  0  0  0  0
  133.2300  185.6410  163.5370 H   0  0  0  0  0  0  0  0  0  0  0  0
  132.6508  186.4240  161.0078 H   0  0  0  0  0  0  0  0  0  0  0  0
  130.9458  187.8452  159.8766 H   0  0  0  0  0  0  0  0  0  0  0  0
  128.7120  188.1815  160.9208 H   0  0  0  0  0  0  0  0  0  0  0  0
  126.7891  186.9148  161.3760 H   0  0  0  0  0  0  0  0  0  0  0  0
  123.8944  187.1393  161.4877 H   0  0  0  0  0  0  0  0  0  0  0  0
  122.2816  187.5891  163.5677 H   0  0  0  0  0  0  0  0  0  0  0  0
  125.5580  187.8900  166.9410 H   0  0  0  0  0  0  0  0  0  0  0  0
  128.5451  187.8396  166.8257 H   0  0  0  0  0  0  0  0  0  0  0  0
  127.5643  188.7593  168.0176 H   0  0  0  0  0  0  0  0  0  0  0  0
  125.7067  185.8945  167.6740 H   0  0  0  0  0  0  0  0  0  0  0  0
  125.7047  183.9490  169.2300 H   0  0  0  0  0  0  0  0  0  0  0  0
  127.6118  183.6000  170.7978 H   0  0  0  0  0  0  0  0  0  0  0  0
  129.5201  185.2049  170.8173 H   0  0  0  0  0  0  0  0  0  0  0  0
  129.5315  187.1511  169.2636 H   0  0  0  0  0  0  0  0  0  0  0  0
  129.8704  185.6307  164.2133 H   0  0  0  0  0  0  0  0  0  0  0  0
  134.3430  183.9730  163.8550 H   0  0  0  0  0  0  0  0  0  0  0  0
  135.0477  181.6159  162.7465 H   0  0  0  0  0  0  0  0  0  0  0  0
  135.6991  179.3424  163.5195 H   0  0  0  0  0  0  0  0  0  0  0  0
  134.9281  178.5064  165.7352 H   0  0  0  0  0  0  0  0  0  0  0  0
  132.8369  182.2386  166.4006 H   0  0  0  0  0  0  0  0  0  0  0  0
  1  2  2  0
  2  3  1  0
  3  4  1  0
  4  5  2  0
  5  6  1  0
  6  7  2  0
  7  8  1  0
  8  9  1  0
  9 10  2  0
 10 11  1  0
 11 12  1  0
 12 13  2  0
 13 14  1  0
 14 15  2  0
 15 16  1  0
 16 17  1  0
 17 18  1  0
 18 19  1  0
 19 20  2  0
 20 21  1  0
 21 22  2  0
 22 23  1  0
 23 24  2  0
 16 25  2  0
  8 26  2  0
  2 27  1  0
 27 28  1  0
 28 29  2  0
 29 30  1  0
 30 31  2  0
 31 32  1  0
 32 33  1  0
 33 34  1  0
 33 35  1  0
 33 36  1  0
 32 37  2  0
 26  4  1  0
 37 28  1  0
 25  9  1  0
 15 11  1  0
 24 19  1  0
  3 38  1  0
  5 39  1  0
  6 40  1  0
  7 41  1  0
 10 42  1  0
 12 43  1  0
 13 44  1  0
 17 45  1  0
 18 46  1  0
 18 47  1  0
 20 48  1  0
 21 49  1  0
 22 50  1  0
 23 51  1  0
 24 52  1  0
 26 53  1  0
 27 54  1  0
 29 55  1  0
 30 56  1  0
 31 57  1  0
 37 58  1  0
M  END
>  <meeko>  (5) 
{"is_sidechain": [false], "free_energy": -8.531, "intermolecular_energy": -11.509, "internal_energy": -1.069}

$$$$
LIB_MYAFDHCCQBIZLC__W_7USX_LOCAL_COMPLETE__e8__s20260927
     RDKit          3D

 58 62  0  0  0  0  0  0  0  0999 V2000
  132.4280  183.4590  164.0360 O   0  0  0  0  0  0  0  0  0  0  0  0
  132.0700  183.4040  162.8670 C   0  0  0  0  0  0  0  0  0  0  0  0
  131.8620  184.5080  162.0490 N   0  0  0  0  0  0  0  0  0  0  0  0
  131.8850  185.8690  162.4210 C   0  0  0  0  0  0  0  0  0  0  0  0
  132.9070  186.6600  161.8830 C   0  0  0  0  0  0  0  0  0  0  0  0
  132.9940  188.0170  162.1970 C   0  0  0  0  0  0  0  0  0  0  0  0
  132.0580  188.5930  163.0560 C   0  0  0  0  0  0  0  0  0  0  0  0
  131.0260  187.8240  163.6120 C   0  0  0  0  0  0  0  0  0  0  0  0
  130.0350  188.4690  164.5110 C   0  0  0  0  0  0  0  0  0  0  0  0
  130.4480  189.0800  165.6420 C   0  0  0  0  0  0  0  0  0  0  0  0
  129.5020  189.6790  166.4450 N   0  0  0  0  0  0  0  0  0  0  0  0
  129.5940  190.3580  167.6280 C   0  0  0  0  0  0  0  0  0  0  0  0
  128.2980  190.7160  167.9370 C   0  0  0  0  0  0  0  0  0  0  0  0
  127.4170  190.2790  166.9760 N   0  0  0  0  0  0  0  0  0  0  0  0
  128.1810  189.6590  166.0980 C   0  0  0  0  0  0  0  0  0  0  0  0
  127.7810  189.0020  164.8670 C   0  0  0  0  0  0  0  0  0  0  0  0
  126.4610  188.9710  164.4920 N   0  0  0  0  0  0  0  0  0  0  0  0
  125.9710  188.3260  163.3070 C   0  0  0  0  0  0  0  0  0  0  0  0
  124.8740  187.3570  163.6760 C   0  0  0  0  0  0  0  0  0  0  0  0
  123.5430  187.6160  163.3140 C   0  0  0  0  0  0  0  0  0  0  0  0
  122.5260  186.7320  163.6780 C   0  0  0  0  0  0  0  0  0  0  0  0
  122.8260  185.5880  164.4150 C   0  0  0  0  0  0  0  0  0  0  0  0
  124.1430  185.3270  164.7930 C   0  0  0  0  0  0  0  0  0  0  0  0
  125.1610  186.2090  164.4300 C   0  0  0  0  0  0  0  0  0  0  0  0
  128.7000  188.4380  164.1140 N   0  0  0  0  0  0  0  0  0  0  0  0
  130.9450  186.4620  163.2690 C   0  0  0  0  0  0  0  0  0  0  0  0
  131.8200  182.2320  162.1670 N   0  0  0  0  0  0  0  0  0  0  0  0
  132.0150  180.9060  162.6060 C   0  0  0  0  0  0  0  0  0  0  0  0
  131.3160  179.9000  161.9260 C   0  0  0  0  0  0  0  0  0  0  0  0
  131.4510  178.5610  162.2950 C   0  0  0  0  0  0  0  0  0  0  0  0
  132.2930  178.2100  163.3470 C   0  0  0  0  0  0  0  0  0  0  0  0
  133.0120  179.1980  164.0350 C   0  0  0  0  0  0  0  0  0  0  0  0
  133.9170  178.8360  165.1860 C   0  0  0  0  0  0  0  0  0  0  0  0
  133.6300  177.6210  165.7290 F   0  0  0  0  0  0  0  0  0  0  0  0
  133.8520  179.7240  166.2190 F   0  0  0  0  0  0  0  0  0  0  0  0
  135.2280  178.7870  164.8230 F   0  0  0  0  0  0  0  0  0  0  0  0
  132.8600  180.5450  163.6570 C   0  0  0  0  0  0  0  0  0  0  0  0
  131.7630  184.3240  161.0640 H   0  0  0  0  0  0  0  0  0  0  0  0
  133.6478  186.2081  161.2070 H   0  0  0  0  0  0  0  0  0  0  0  0
  133.7993  188.6313  161.7679 H   0  0  0  0  0  0  0  0  0  0  0  0
  132.1304  189.6631  163.3000 H   0  0  0  0  0  0  0  0  0  0  0  0
  131.5133  189.0991  165.9156 H   0  0  0  0  0  0  0  0  0  0  0  0
  130.5039  190.5724  168.2077 H   0  0  0  0  0  0  0  0  0  0  0  0
  128.0069  191.2786  168.8363 H   0  0  0  0  0  0  0  0  0  0  0  0
  125.7960  189.4200  165.1140 H   0  0  0  0  0  0  0  0  0  0  0  0
  125.5734  189.0834  162.6155 H   0  0  0  0  0  0  0  0  0  0  0  0
  126.7931  187.7801  162.8212 H   0  0  0  0  0  0  0  0  0  0  0  0
  123.2996  188.5219  162.7395 H   0  0  0  0  0  0  0  0  0  0  0  0
  121.4867  186.9386  163.3828 H   0  0  0  0  0  0  0  0  0  0  0  0
  122.0240  184.8906  164.6987 H   0  0  0  0  0  0  0  0  0  0  0  0
  124.3790  184.4255  165.3775 H   0  0  0  0  0  0  0  0  0  0  0  0
  126.1969  186.0029  164.7373 H   0  0  0  0  0  0  0  0  0  0  0  0
  130.1256  185.8515  163.6762 H   0  0  0  0  0  0  0  0  0  0  0  0
  131.3900  182.3380  161.2610 H   0  0  0  0  0  0  0  0  0  0  0  0
  130.6525  180.1690  161.0909 H   0  0  0  0  0  0  0  0  0  0  0  0
  130.8922  177.7827  161.7547 H   0  0  0  0  0  0  0  0  0  0  0  0
  132.3945  177.1544  163.6393 H   0  0  0  0  0  0  0  0  0  0  0  0
  133.4155  181.3253  164.1979 H   0  0  0  0  0  0  0  0  0  0  0  0
  1  2  2  0
  2  3  1  0
  3  4  1  0
  4  5  2  0
  5  6  1  0
  6  7  2  0
  7  8  1  0
  8  9  1  0
  9 10  2  0
 10 11  1  0
 11 12  1  0
 12 13  2  0
 13 14  1  0
 14 15  2  0
 15 16  1  0
 16 17  1  0
 17 18  1  0
 18 19  1  0
 19 20  2  0
 20 21  1  0
 21 22  2  0
 22 23  1  0
 23 24  2  0
 16 25  2  0
  8 26  2  0
  2 27  1  0
 27 28  1  0
 28 29  2  0
 29 30  1  0
 30 31  2  0
 31 32  1  0
 32 33  1  0
 33 34  1  0
 33 35  1  0
 33 36  1  0
 32 37  2  0
 26  4  1  0
 37 28  1  0
 25  9  1  0
 15 11  1  0
 24 19  1  0
  3 38  1  0
  5 39  1  0
  6 40  1  0
  7 41  1  0
 10 42  1  0
 12 43  1  0
 13 44  1  0
 17 45  1  0
 18 46  1  0
 18 47  1  0
 20 48  1  0
 21 49  1  0
 22 50  1  0
 23 51  1  0
 24 52  1  0
 26 53  1  0
 27 54  1  0
 29 55  1  0
 30 56  1  0
 31 57  1  0
 37 58  1  0
M  END
>  <meeko>  (6) 
{"is_sidechain": [false], "free_energy": -8.472, "intermolecular_energy": -11.827, "internal_energy": -0.671}

$$$$
LIB_MYAFDHCCQBIZLC__W_7USX_LOCAL_COMPLETE__e8__s20260927
     RDKit          3D

 58 62  0  0  0  0  0  0  0  0999 V2000
  132.5870  183.6100  163.5960 O   0  0  0  0  0  0  0  0  0  0  0  0
  133.7460  183.6680  163.2070 C   0  0  0  0  0  0  0  0  0  0  0  0
  134.2940  184.7330  162.5030 N   0  0  0  0  0  0  0  0  0  0  0  0
  133.6190  185.8620  161.9900 C   0  0  0  0  0  0  0  0  0  0  0  0
  134.2540  186.5740  160.9660 C   0  0  0  0  0  0  0  0  0  0  0  0
  133.6490  187.6970  160.4020 C   0  0  0  0  0  0  0  0  0  0  0  0
  132.4020  188.1200  160.8630 C   0  0  0  0  0  0  0  0  0  0  0  0
  131.7450  187.4290  161.8900 C   0  0  0  0  0  0  0  0  0  0  0  0
  130.4100  187.8930  162.3490 C   0  0  0  0  0  0  0  0  0  0  0  0
  129.2970  187.4900  161.7000 C   0  0  0  0  0  0  0  0  0  0  0  0
  128.0750  187.9290  162.1610 N   0  0  0  0  0  0  0  0  0  0  0  0
  126.7950  187.7110  161.7330 C   0  0  0  0  0  0  0  0  0  0  0  0
  125.9990  188.4230  162.6060 C   0  0  0  0  0  0  0  0  0  0  0  0
  126.7550  189.0690  163.5580 N   0  0  0  0  0  0  0  0  0  0  0  0
  127.9960  188.7470  163.2530 C   0  0  0  0  0  0  0  0  0  0  0  0
  129.2180  189.1470  163.9280 C   0  0  0  0  0  0  0  0  0  0  0  0
  129.1670  189.9640  165.0300 N   0  0  0  0  0  0  0  0  0  0  0  0
  130.3220  190.4290  165.7470 C   0  0  0  0  0  0  0  0  0  0  0  0
  130.4860  189.6250  167.0140 C   0  0  0  0  0  0  0  0  0  0  0  0
  129.4180  188.8720  167.5230 C   0  0  0  0  0  0  0  0  0  0  0  0
  129.5640  188.1490  168.7090 C   0  0  0  0  0  0  0  0  0  0  0  0
  130.7730  188.1800  169.4010 C   0  0  0  0  0  0  0  0  0  0  0  0
  131.8370  188.9370  168.9120 C   0  0  0  0  0  0  0  0  0  0  0  0
  131.6940  189.6600  167.7270 C   0  0  0  0  0  0  0  0  0  0  0  0
  130.3730  188.7150  163.4720 N   0  0  0  0  0  0  0  0  0  0  0  0
  132.3630  186.2870  162.4330 C   0  0  0  0  0  0  0  0  0  0  0  0
  134.7020  182.6830  163.4100 N   0  0  0  0  0  0  0  0  0  0  0  0
  134.5740  181.4990  164.1660 C   0  0  0  0  0  0  0  0  0  0  0  0
  135.5240  181.2800  165.1730 C   0  0  0  0  0  0  0  0  0  0  0  0
  135.4710  180.1350  165.9680 C   0  0  0  0  0  0  0  0  0  0  0  0
  134.4630  179.1950  165.7700 C   0  0  0  0  0  0  0  0  0  0  0  0
  133.4950  179.3970  164.7760 C   0  0  0  0  0  0  0  0  0  0  0  0
  132.4050  178.3820  164.5380 C   0  0  0  0  0  0  0  0  0  0  0  0
  132.1650  177.5930  165.6210 F   0  0  0  0  0  0  0  0  0  0  0  0
  132.6840  177.5260  163.5140 F   0  0  0  0  0  0  0  0  0  0  0  0
  131.2140  178.9610  164.2220 F   0  0  0  0  0  0  0  0  0  0  0  0
  133.5650  180.5530  163.9760 C   0  0  0  0  0  0  0  0  0  0  0  0
  135.2970  184.7440  162.4150 H   0  0  0  0  0  0  0  0  0  0  0  0
  135.2388  186.2451  160.6028 H   0  0  0  0  0  0  0  0  0  0  0  0
  134.1541  188.2482  159.5951 H   0  0  0  0  0  0  0  0  0  0  0  0
  131.9289  189.0063  160.4151 H   0  0  0  0  0  0  0  0  0  0  0  0
  129.3640  186.8274  160.8245 H   0  0  0  0  0  0  0  0  0  0  0  0
  126.4703  187.1002  160.8778 H   0  0  0  0  0  0  0  0  0  0  0  0
  124.9014  188.4687  162.5489 H   0  0  0  0  0  0  0  0  0  0  0  0
  128.2480  190.2690  165.3350 H   0  0  0  0  0  0  0  0  0  0  0  0
  131.2166  190.3089  165.1183 H   0  0  0  0  0  0  0  0  0  0  0  0
  130.1921  191.4913  166.0014 H   0  0  0  0  0  0  0  0  0  0  0  0
  128.4590  188.8506  166.9846 H   0  0  0  0  0  0  0  0  0  0  0  0
  128.7238  187.5546  169.0972 H   0  0  0  0  0  0  0  0  0  0  0  0
  130.8881  187.6073  170.3331 H   0  0  0  0  0  0  0  0  0  0  0  0
  132.7899  188.9643  169.4608 H   0  0  0  0  0  0  0  0  0  0  0  0
  132.5340  190.2615  167.3493 H   0  0  0  0  0  0  0  0  0  0  0  0
  131.8479  185.7180  163.2210 H   0  0  0  0  0  0  0  0  0  0  0  0
  135.5700  182.7940  162.9090 H   0  0  0  0  0  0  0  0  0  0  0  0
  136.3210  182.0199  165.3384 H   0  0  0  0  0  0  0  0  0  0  0  0
  136.2259  179.9746  166.7518 H   0  0  0  0  0  0  0  0  0  0  0  0
  134.4260  178.2909  166.3955 H   0  0  0  0  0  0  0  0  0  0  0  0
  132.8133  180.7135  163.1891 H   0  0  0  0  0  0  0  0  0  0  0  0
  1  2  2  0
  2  3  1  0
  3  4  1  0
  4  5  2  0
  5  6  1  0
  6  7  2  0
  7  8  1  0
  8  9  1  0
  9 10  2  0
 10 11  1  0
 11 12  1  0
 12 13  2  0
 13 14  1  0
 14 15  2  0
 15 16  1  0
 16 17  1  0
 17 18  1  0
 18 19  1  0
 19 20  2  0
 20 21  1  0
 21 22  2  0
 22 23  1  0
 23 24  2  0
 16 25  2  0
  8 26  2  0
  2 27  1  0
 27 28  1  0
 28 29  2  0
 29 30  1  0
 30 31  2  0
 31 32  1  0
 32 33  1  0
 33 34  1  0
 33 35  1  0
 33 36  1  0
 32 37  2  0
 26  4  1  0
 37 28  1  0
 25  9  1  0
 15 11  1  0
 24 19  1  0
  3 38  1  0
  5 39  1  0
  6 40  1  0
  7 41  1  0
 10 42  1  0
 12 43  1  0
 13 44  1  0
 17 45  1  0
 18 46  1  0
 18 47  1  0
 20 48  1  0
 21 49  1  0
 22 50  1  0
 23 51  1  0
 24 52  1  0
 26 53  1  0
 27 54  1  0
 29 55  1  0
 30 56  1  0
 31 57  1  0
 37 58  1  0
M  END
>  <meeko>  (7) 
{"is_sidechain": [false], "free_energy": -8.467, "intermolecular_energy": -11.878, "internal_energy": -0.614}

$$$$
LIB_MYAFDHCCQBIZLC__W_7USX_LOCAL_COMPLETE__e8__s20260927
     RDKit          3D

 58 62  0  0  0  0  0  0  0  0999 V2000
  130.9660  183.5470  163.9370 O   0  0  0  0  0  0  0  0  0  0  0  0
  131.7970  183.8920  163.1080 C   0  0  0  0  0  0  0  0  0  0  0  0
  131.7710  185.0930  162.4100 N   0  0  0  0  0  0  0  0  0  0  0  0
  130.7480  186.0650  162.4110 C   0  0  0  0  0  0  0  0  0  0  0  0
  130.5640  186.7990  161.2330 C   0  0  0  0  0  0  0  0  0  0  0  0
  129.5690  187.7730  161.1520 C   0  0  0  0  0  0  0  0  0  0  0  0
  128.7500  188.0230  162.2530 C   0  0  0  0  0  0  0  0  0  0  0  0
  128.9130  187.3050  163.4460 C   0  0  0  0  0  0  0  0  0  0  0  0
  128.0140  187.5820  164.5960 C   0  0  0  0  0  0  0  0  0  0  0  0
  128.5280  188.0370  165.7590 C   0  0  0  0  0  0  0  0  0  0  0  0
  127.6640  188.2950  166.8000 N   0  0  0  0  0  0  0  0  0  0  0  0
  127.8650  188.7480  168.0740 C   0  0  0  0  0  0  0  0  0  0  0  0
  126.6070  188.8020  168.6380 C   0  0  0  0  0  0  0  0  0  0  0  0
  125.6420  188.3990  167.7450 N   0  0  0  0  0  0  0  0  0  0  0  0
  126.3200  188.1010  166.6540 C   0  0  0  0  0  0  0  0  0  0  0  0
  125.8070  187.6220  165.3820 C   0  0  0  0  0  0  0  0  0  0  0  0
  124.4610  187.4230  165.2060 N   0  0  0  0  0  0  0  0  0  0  0  0
  123.8660  186.9300  163.9950 C   0  0  0  0  0  0  0  0  0  0  0  0
  122.3870  187.2290  164.0010 C   0  0  0  0  0  0  0  0  0  0  0  0
  121.9280  188.5480  164.1340 C   0  0  0  0  0  0  0  0  0  0  0  0
  120.5590  188.8210  164.1650 C   0  0  0  0  0  0  0  0  0  0  0  0
  119.6370  187.7800  164.0730 C   0  0  0  0  0  0  0  0  0  0  0  0
  120.0820  186.4640  163.9530 C   0  0  0  0  0  0  0  0  0  0  0  0
  121.4490  186.1880  163.9220 C   0  0  0  0  0  0  0  0  0  0  0  0
  126.6490  187.3830  164.4010 N   0  0  0  0  0  0  0  0  0  0  0  0
  129.9100  186.3140  163.5020 C   0  0  0  0  0  0  0  0  0  0  0  0
  132.9040  183.1420  162.7340 N   0  0  0  0  0  0  0  0  0  0  0  0
  133.3430  181.9190  163.2810 C   0  0  0  0  0  0  0  0  0  0  0  0
  134.6510  181.8770  163.7800 C   0  0  0  0  0  0  0  0  0  0  0  0
  135.1650  180.7060  164.3400 C   0  0  0  0  0  0  0  0  0  0  0  0
  134.3740  179.5630  164.4130 C   0  0  0  0  0  0  0  0  0  0  0  0
  133.0580  179.5840  163.9320 C   0  0  0  0  0  0  0  0  0  0  0  0
  132.1910  178.3500  163.9900 C   0  0  0  0  0  0  0  0  0  0  0  0
  130.9570  178.5390  163.4460 F   0  0  0  0  0  0  0  0  0  0  0  0
  131.9690  177.9100  165.2610 F   0  0  0  0  0  0  0  0  0  0  0  0
  132.7390  177.2970  163.3250 F   0  0  0  0  0  0  0  0  0  0  0  0
  132.5550  180.7690  163.3630 C   0  0  0  0  0  0  0  0  0  0  0  0
  132.6090  185.3390  161.9090 H   0  0  0  0  0  0  0  0  0  0  0  0
  131.2098  186.6058  160.3638 H   0  0  0  0  0  0  0  0  0  0  0  0
  129.4304  188.3430  160.2215 H   0  0  0  0  0  0  0  0  0  0  0  0
  127.9670  188.7926  162.1844 H   0  0  0  0  0  0  0  0  0  0  0  0
  129.6103  188.1976  165.8721 H   0  0  0  0  0  0  0  0  0  0  0  0
  128.8223  189.0122  168.5470 H   0  0  0  0  0  0  0  0  0  0  0  0
  126.4023  189.1257  169.6692 H   0  0  0  0  0  0  0  0  0  0  0  0
  123.8590  187.6200  165.9990 H   0  0  0  0  0  0  0  0  0  0  0  0
  124.3355  187.4210  163.1299 H   0  0  0  0  0  0  0  0  0  0  0  0
  124.0192  185.8427  163.9284 H   0  0  0  0  0  0  0  0  0  0  0  0
  122.6515  189.3727  164.2144 H   0  0  0  0  0  0  0  0  0  0  0  0
  120.2078  189.8589  164.2621 H   0  0  0  0  0  0  0  0  0  0  0  0
  118.5587  187.9964  164.0950 H   0  0  0  0  0  0  0  0  0  0  0  0
  119.3541  185.6423  163.8827 H   0  0  0  0  0  0  0  0  0  0  0  0
  121.7942  185.1472  163.8350 H   0  0  0  0  0  0  0  0  0  0  0  0
  130.0326  185.7236  164.4220 H   0  0  0  0  0  0  0  0  0  0  0  0
  133.4210  183.4780  161.9360 H   0  0  0  0  0  0  0  0  0  0  0  0
  135.2808  182.7774  163.7301 H   0  0  0  0  0  0  0  0  0  0  0  0
  136.1957  180.6866  164.7238 H   0  0  0  0  0  0  0  0  0  0  0  0
  134.7833  178.6401  164.8497 H   0  0  0  0  0  0  0  0  0  0  0  0
  131.5252  180.7896  162.9769 H   0  0  0  0  0  0  0  0  0  0  0  0
  1  2  2  0
  2  3  1  0
  3  4  1  0
  4  5  2  0
  5  6  1  0
  6  7  2  0
  7  8  1  0
  8  9  1  0
  9 10  2  0
 10 11  1  0
 11 12  1  0
 12 13  2  0
 13 14  1  0
 14 15  2  0
 15 16  1  0
 16 17  1  0
 17 18  1  0
 18 19  1  0
 19 20  2  0
 20 21  1  0
 21 22  2  0
 22 23  1  0
 23 24  2  0
 16 25  2  0
  8 26  2  0
  2 27  1  0
 27 28  1  0
 28 29  2  0
 29 30  1  0
 30 31  2  0
 31 32  1  0
 32 33  1  0
 33 34  1  0
 33 35  1  0
 33 36  1  0
 32 37  2  0
 26  4  1  0
 37 28  1  0
 25  9  1  0
 15 11  1  0
 24 19  1  0
  3 38  1  0
  5 39  1  0
  6 40  1  0
  7 41  1  0
 10 42  1  0
 12 43  1  0
 13 44  1  0
 17 45  1  0
 18 46  1  0
 18 47  1  0
 20 48  1  0
 21 49  1  0
 22 50  1  0
 23 51  1  0
 24 52  1  0
 26 53  1  0
 27 54  1  0
 29 55  1  0
 30 56  1  0
 31 57  1  0
 37 58  1  0
M  END
>  <meeko>  (8) 
{"is_sidechain": [false], "free_energy": -8.452, "intermolecular_energy": -11.954, "internal_energy": -0.517}

$$$$
LIB_MYAFDHCCQBIZLC__W_7USX_LOCAL_COMPLETE__e8__s20260927
     RDKit          3D

 58 62  0  0  0  0  0  0  0  0999 V2000
  126.7760  184.6390  170.5570 O   0  0  0  0  0  0  0  0  0  0  0  0
  127.9880  184.7080  170.7130 C   0  0  0  0  0  0  0  0  0  0  0  0
  128.7920  185.7350  170.2370 N   0  0  0  0  0  0  0  0  0  0  0  0
  128.4150  186.8000  169.3900 C   0  0  0  0  0  0  0  0  0  0  0  0
  128.2090  188.0480  169.9880 C   0  0  0  0  0  0  0  0  0  0  0  0
  127.8400  189.1520  169.2190 C   0  0  0  0  0  0  0  0  0  0  0  0
  127.6730  189.0130  167.8410 C   0  0  0  0  0  0  0  0  0  0  0  0
  127.8700  187.7750  167.2150 C   0  0  0  0  0  0  0  0  0  0  0  0
  127.7010  187.6610  165.7440 C   0  0  0  0  0  0  0  0  0  0  0  0
  126.4620  187.6470  165.2070 C   0  0  0  0  0  0  0  0  0  0  0  0
  126.3430  187.5550  163.8380 N   0  0  0  0  0  0  0  0  0  0  0  0
  125.2570  187.5130  163.0080 C   0  0  0  0  0  0  0  0  0  0  0  0
  125.7830  187.4180  161.7350 C   0  0  0  0  0  0  0  0  0  0  0  0
  127.1580  187.4040  161.7630 N   0  0  0  0  0  0  0  0  0  0  0  0
  127.4530  187.4860  163.0450 C   0  0  0  0  0  0  0  0  0  0  0  0
  128.7670  187.5160  163.6620 C   0  0  0  0  0  0  0  0  0  0  0  0
  129.9000  187.4530  162.8900 N   0  0  0  0  0  0  0  0  0  0  0  0
  131.2380  187.4530  163.4120 C   0  0  0  0  0  0  0  0  0  0  0  0
  132.2020  187.8690  162.3290 C   0  0  0  0  0  0  0  0  0  0  0  0
  133.1510  188.8760  162.5680 C   0  0  0  0  0  0  0  0  0  0  0  0
  134.0260  189.2780  161.5570 C   0  0  0  0  0  0  0  0  0  0  0  0
  133.9560  188.6860  160.2970 C   0  0  0  0  0  0  0  0  0  0  0  0
  133.0090  187.6950  160.0440 C   0  0  0  0  0  0  0  0  0  0  0  0
  132.1330  187.2910  161.0520 C   0  0  0  0  0  0  0  0  0  0  0  0
  128.8590  187.6070  164.9710 N   0  0  0  0  0  0  0  0  0  0  0  0
  128.2590  186.6780  168.0060 C   0  0  0  0  0  0  0  0  0  0  0  0
  128.7550  183.7730  171.3950 N   0  0  0  0  0  0  0  0  0  0  0  0
  128.3040  182.6450  172.1110 C   0  0  0  0  0  0  0  0  0  0  0  0
  128.6240  181.3860  171.5840 C   0  0  0  0  0  0  0  0  0  0  0  0
  128.2170  180.2170  172.2290 C   0  0  0  0  0  0  0  0  0  0  0  0
  127.4900  180.2920  173.4150 C   0  0  0  0  0  0  0  0  0  0  0  0
  127.1690  181.5400  173.9680 C   0  0  0  0  0  0  0  0  0  0  0  0
  126.3700  181.6390  175.2430 C   0  0  0  0  0  0  0  0  0  0  0  0
  125.0570  181.9310  175.0280 F   0  0  0  0  0  0  0  0  0  0  0  0
  126.8260  182.6070  176.0890 F   0  0  0  0  0  0  0  0  0  0  0  0
  126.3870  180.4830  175.9600 F   0  0  0  0  0  0  0  0  0  0  0  0
  127.5790  182.7110  173.3020 C   0  0  0  0  0  0  0  0  0  0  0  0
  129.7310  185.7740  170.5990 H   0  0  0  0  0  0  0  0  0  0  0  0
  128.3392  188.1598  171.0745 H   0  0  0  0  0  0  0  0  0  0  0  0
  127.6812  190.1294  169.6979 H   0  0  0  0  0  0  0  0  0  0  0  0
  127.3830  189.8863  167.2383 H   0  0  0  0  0  0  0  0  0  0  0  0
  125.5696  187.7076  165.8473 H   0  0  0  0  0  0  0  0  0  0  0  0
  124.1951  187.5474  163.2927 H   0  0  0  0  0  0  0  0  0  0  0  0
  125.1801  187.3609  160.8167 H   0  0  0  0  0  0  0  0  0  0  0  0
  129.7690  187.3800  161.8860 H   0  0  0  0  0  0  0  0  0  0  0  0
  131.3035  188.1600  164.2521 H   0  0  0  0  0  0  0  0  0  0  0  0
  131.4944  186.4421  163.7616 H   0  0  0  0  0  0  0  0  0  0  0  0
  133.2054  189.3514  163.5585 H   0  0  0  0  0  0  0  0  0  0  0  0
  134.7712  190.0625  161.7550 H   0  0  0  0  0  0  0  0  0  0  0  0
  134.6482  189.0009  159.5022 H   0  0  0  0  0  0  0  0  0  0  0  0
  132.9522  187.2309  159.0483 H   0  0  0  0  0  0  0  0  0  0  0  0
  131.3828  186.5138  160.8443 H   0  0  0  0  0  0  0  0  0  0  0  0
  128.4439  185.7056  167.5261 H   0  0  0  0  0  0  0  0  0  0  0  0
  129.7540  183.8770  171.3190 H   0  0  0  0  0  0  0  0  0  0  0  0
  129.2028  181.3186  170.6510 H   0  0  0  0  0  0  0  0  0  0  0  0
  128.4704  179.2360  171.8006 H   0  0  0  0  0  0  0  0  0  0  0  0
  127.1668  179.3694  173.9192 H   0  0  0  0  0  0  0  0  0  0  0  0
  127.3240  183.6930  173.7269 H   0  0  0  0  0  0  0  0  0  0  0  0
  1  2  2  0
  2  3  1  0
  3  4  1  0
  4  5  2  0
  5  6  1  0
  6  7  2  0
  7  8  1  0
  8  9  1  0
  9 10  2  0
 10 11  1  0
 11 12  1  0
 12 13  2  0
 13 14  1  0
 14 15  2  0
 15 16  1  0
 16 17  1  0
 17 18  1  0
 18 19  1  0
 19 20  2  0
 20 21  1  0
 21 22  2  0
 22 23  1  0
 23 24  2  0
 16 25  2  0
  8 26  2  0
  2 27  1  0
 27 28  1  0
 28 29  2  0
 29 30  1  0
 30 31  2  0
 31 32  1  0
 32 33  1  0
 33 34  1  0
 33 35  1  0
 33 36  1  0
 32 37  2  0
 26  4  1  0
 37 28  1  0
 25  9  1  0
 15 11  1  0
 24 19  1  0
  3 38  1  0
  5 39  1  0
  6 40  1  0
  7 41  1  0
 10 42  1  0
 12 43  1  0
 13 44  1  0
 17 45  1  0
 18 46  1  0
 18 47  1  0
 20 48  1  0
 21 49  1  0
 22 50  1  0
 23 51  1  0
 24 52  1  0
 26 53  1  0
 27 54  1  0
 29 55  1  0
 30 56  1  0
 31 57  1  0
 37 58  1  0
M  END
>  <meeko>  (9) 
{"is_sidechain": [false], "free_energy": -8.408, "intermolecular_energy": -11.469, "internal_energy": -0.943}

$$$$
