LIB_YWDIXVZCRMMQQY__W_7USX_LOCAL_COMPLETE__e8__s20260927
     RDKit          3D

 55 59  0  0  0  0  0  0  0  0999 V2000
  122.7750  169.7350  169.3150 O   0  0  0  0  0  0  0  0  0  0  0  0
  121.5980  169.6080  169.6240 C   0  0  0  0  0  0  0  0  0  0  0  0
  120.5490  169.4920  168.7220 N   0  0  0  0  0  0  0  0  0  0  0  0
  120.6330  169.3620  167.3190 C   0  0  0  0  0  0  0  0  0  0  0  0
  120.3380  170.4970  166.5530 C   0  0  0  0  0  0  0  0  0  0  0  0
  120.3940  170.4460  165.1600 C   0  0  0  0  0  0  0  0  0  0  0  0
  120.7450  169.2580  164.5210 C   0  0  0  0  0  0  0  0  0  0  0  0
  121.0480  168.1070  165.2620 C   0  0  0  0  0  0  0  0  0  0  0  0
  121.4040  166.8520  164.5530 C   0  0  0  0  0  0  0  0  0  0  0  0
  121.2430  166.7590  163.2170 C   0  0  0  0  0  0  0  0  0  0  0  0
  121.5700  165.5720  162.6030 N   0  0  0  0  0  0  0  0  0  0  0  0
  121.5250  165.1630  161.2980 C   0  0  0  0  0  0  0  0  0  0  0  0
  121.9780  163.8600  161.3150 C   0  0  0  0  0  0  0  0  0  0  0  0
  122.2970  163.4580  162.5910 N   0  0  0  0  0  0  0  0  0  0  0  0
  122.0400  164.5180  163.3330 C   0  0  0  0  0  0  0  0  0  0  0  0
  122.1950  164.6500  164.7750 C   0  0  0  0  0  0  0  0  0  0  0  0
  122.6630  163.5530  165.4720 N   0  0  0  0  0  0  0  0  0  0  0  0
  122.9710  163.3830  166.8300 C   0  0  0  0  0  0  0  0  0  0  0  0
  124.2950  163.0600  167.1750 C   0  0  0  0  0  0  0  0  0  0  0  0
  124.6760  162.8580  168.5060 C   0  0  0  0  0  0  0  0  0  0  0  0
  123.7330  162.9720  169.5220 C   0  0  0  0  0  0  0  0  0  0  0  0
  122.4160  163.2860  169.2020 C   0  0  0  0  0  0  0  0  0  0  0  0
  122.0410  163.4870  167.8680 C   0  0  0  0  0  0  0  0  0  0  0  0
  121.8690  165.7950  165.3290 N   0  0  0  0  0  0  0  0  0  0  0  0
  120.9700  168.1730  166.6650 C   0  0  0  0  0  0  0  0  0  0  0  0
  121.1190  169.5650  170.9260 N   0  0  0  0  0  0  0  0  0  0  0  0
  121.8460  169.7530  172.1200 C   0  0  0  0  0  0  0  0  0  0  0  0
  122.2810  168.6020  172.7900 C   0  0  0  0  0  0  0  0  0  0  0  0
  123.0060  168.6970  173.9790 C   0  0  0  0  0  0  0  0  0  0  0  0
  123.3020  169.9480  174.5160 C   0  0  0  0  0  0  0  0  0  0  0  0
  122.8660  171.1130  173.8710 C   0  0  0  0  0  0  0  0  0  0  0  0
  123.1890  172.4770  174.4320 C   0  0  0  0  0  0  0  0  0  0  0  0
  122.4380  173.4740  173.8820 F   0  0  0  0  0  0  0  0  0  0  0  0
  122.9750  172.5520  175.7740 F   0  0  0  0  0  0  0  0  0  0  0  0
  124.4850  172.8420  174.2330 F   0  0  0  0  0  0  0  0  0  0  0  0
  122.1420  171.0030  172.6690 C   0  0  0  0  0  0  0  0  0  0  0  0
  119.6200  169.5930  169.0980 H   0  0  0  0  0  0  0  0  0  0  0  0
  120.0599  171.4361  167.0538 H   0  0  0  0  0  0  0  0  0  0  0  0
  120.1614  171.3425  164.5665 H   0  0  0  0  0  0  0  0  0  0  0  0
  120.7848  169.2231  163.4223 H   0  0  0  0  0  0  0  0  0  0  0  0
  120.8604  167.6096  162.6339 H   0  0  0  0  0  0  0  0  0  0  0  0
  121.1984  165.7466  160.4247 H   0  0  0  0  0  0  0  0  0  0  0  0
  122.0720  163.2241  160.4224 H   0  0  0  0  0  0  0  0  0  0  0  0
  122.8270  162.7410  164.8840 H   0  0  0  0  0  0  0  0  0  0  0  0
  125.0491  162.9638  166.3799 H   0  0  0  0  0  0  0  0  0  0  0  0
  125.7197  162.6094  168.7485 H   0  0  0  0  0  0  0  0  0  0  0  0
  124.0263  162.8151  170.5705 H   0  0  0  0  0  0  0  0  0  0  0  0
  121.6655  163.3768  170.0010 H   0  0  0  0  0  0  0  0  0  0  0  0
  120.9947  163.7314  167.6326 H   0  0  0  0  0  0  0  0  0  0  0  0
  121.1783  167.2712  167.2594 H   0  0  0  0  0  0  0  0  0  0  0  0
  120.1510  169.3060  171.0370 H   0  0  0  0  0  0  0  0  0  0  0  0
  122.0482  167.6108  172.3737 H   0  0  0  0  0  0  0  0  0  0  0  0
  123.3436  167.7843  174.4919 H   0  0  0  0  0  0  0  0  0  0  0  0
  123.8797  170.0214  175.4492 H   0  0  0  0  0  0  0  0  0  0  0  0
  121.8043  171.9147  172.1544 H   0  0  0  0  0  0  0  0  0  0  0  0
  1  2  2  0
  2  3  1  0
  3  4  1  0
  4  5  2  0
  5  6  1  0
  6  7  2  0
  7  8  1  0
  8  9  1  0
  9 10  2  0
 10 11  1  0
 11 12  1  0
 12 13  2  0
 13 14  1  0
 14 15  2  0
 15 16  1  0
 16 17  1  0
 17 18  1  0
 18 19  2  0
 19 20  1  0
 20 21  2  0
 21 22  1  0
 22 23  2  0
 16 24  2  0
  8 25  2  0
  2 26  1  0
 26 27  1  0
 27 28  2  0
 28 29  1  0
 29 30  2  0
 30 31  1  0
 31 32  1  0
 32 33  1  0
 32 34  1  0
 32 35  1  0
 31 36  2  0
 25  4  1  0
 36 27  1  0
 24  9  1  0
 15 11  1  0
 23 18  1  0
  3 37  1  0
  5 38  1  0
  6 39  1  0
  7 40  1  0
 10 41  1  0
 12 42  1  0
 13 43  1  0
 17 44  1  0
 19 45  1  0
 20 46  1  0
 21 47  1  0
 22 48  1  0
 23 49  1  0
 25 50  1  0
 26 51  1  0
 28 52  1  0
 29 53  1  0
 30 54  1  0
 36 55  1  0
M  END
>  <meeko>  (1) 
{"is_sidechain": [false], "free_energy": -9.283, "intermolecular_energy": -11.996, "internal_energy": -1.16}

$$$$
LIB_YWDIXVZCRMMQQY__W_7USX_LOCAL_COMPLETE__e8__s20260927
     RDKit          3D

 55 59  0  0  0  0  0  0  0  0999 V2000
  122.9700  169.2640  169.4230 O   0  0  0  0  0  0  0  0  0  0  0  0
  121.7940  169.2110  169.7570 C   0  0  0  0  0  0  0  0  0  0  0  0
  120.7200  169.2150  168.8770 N   0  0  0  0  0  0  0  0  0  0  0  0
  120.7630  169.1410  167.4670 C   0  0  0  0  0  0  0  0  0  0  0  0
  120.4230  170.2980  166.7570 C   0  0  0  0  0  0  0  0  0  0  0  0
  120.4370  170.3030  165.3620 C   0  0  0  0  0  0  0  0  0  0  0  0
  120.7910  169.1480  164.6660 C   0  0  0  0  0  0  0  0  0  0  0  0
  121.1380  167.9750  165.3510 C   0  0  0  0  0  0  0  0  0  0  0  0
  121.4950  166.7560  164.5830 C   0  0  0  0  0  0  0  0  0  0  0  0
  121.3360  166.7280  163.2430 C   0  0  0  0  0  0  0  0  0  0  0  0
  121.6640  165.5720  162.5730 N   0  0  0  0  0  0  0  0  0  0  0  0
  121.6210  165.2270  161.2500 C   0  0  0  0  0  0  0  0  0  0  0  0
  122.0750  163.9250  161.2040 C   0  0  0  0  0  0  0  0  0  0  0  0
  122.3910  163.4610  162.4600 N   0  0  0  0  0  0  0  0  0  0  0  0
  122.1330  164.4840  163.2520 C   0  0  0  0  0  0  0  0  0  0  0  0
  122.2860  164.5460  164.6990 C   0  0  0  0  0  0  0  0  0  0  0  0
  122.7540  163.4170  165.3420 N   0  0  0  0  0  0  0  0  0  0  0  0
  123.0600  163.1810  166.6900 C   0  0  0  0  0  0  0  0  0  0  0  0
  124.4120  163.0470  167.0510 C   0  0  0  0  0  0  0  0  0  0  0  0
  124.7960  162.7940  168.3720 C   0  0  0  0  0  0  0  0  0  0  0  0
  123.8280  162.6660  169.3630 C   0  0  0  0  0  0  0  0  0  0  0  0
  122.4840  162.7900  169.0270 C   0  0  0  0  0  0  0  0  0  0  0  0
  122.1060  163.0430  167.7030 C   0  0  0  0  0  0  0  0  0  0  0  0
  121.9600  165.6630  165.3070 N   0  0  0  0  0  0  0  0  0  0  0  0
  121.1020  167.9850  166.7580 C   0  0  0  0  0  0  0  0  0  0  0  0
  121.3410  169.1460  171.0670 N   0  0  0  0  0  0  0  0  0  0  0  0
  122.1070  169.2270  172.2490 C   0  0  0  0  0  0  0  0  0  0  0  0
  121.9970  170.4030  173.0010 C   0  0  0  0  0  0  0  0  0  0  0  0
  122.7210  170.5660  174.1840 C   0  0  0  0  0  0  0  0  0  0  0  0
  123.5680  169.5540  174.6270 C   0  0  0  0  0  0  0  0  0  0  0  0
  123.7050  168.3730  173.8840 C   0  0  0  0  0  0  0  0  0  0  0  0
  124.6080  167.2600  174.3560 C   0  0  0  0  0  0  0  0  0  0  0  0
  125.0640  167.4420  175.6290 F   0  0  0  0  0  0  0  0  0  0  0  0
  123.9860  166.0490  174.3570 F   0  0  0  0  0  0  0  0  0  0  0  0
  125.7210  167.1130  173.5860 F   0  0  0  0  0  0  0  0  0  0  0  0
  122.9640  168.2190  172.6980 C   0  0  0  0  0  0  0  0  0  0  0  0
  119.8090  169.3680  169.2800 H   0  0  0  0  0  0  0  0  0  0  0  0
  120.1425  171.2107  167.3032 H   0  0  0  0  0  0  0  0  0  0  0  0
  120.1691  171.2171  164.8119 H   0  0  0  0  0  0  0  0  0  0  0  0
  120.7981  169.1572  163.5661 H   0  0  0  0  0  0  0  0  0  0  0  0
  120.9544  167.6059  162.7011 H   0  0  0  0  0  0  0  0  0  0  0  0
  121.2951  165.8522  160.4057 H   0  0  0  0  0  0  0  0  0  0  0  0
  122.1719  163.3338  160.2815 H   0  0  0  0  0  0  0  0  0  0  0  0
  122.9190  162.6340  164.7160 H   0  0  0  0  0  0  0  0  0  0  0  0
  125.1866  163.1434  166.2759 H   0  0  0  0  0  0  0  0  0  0  0  0
  125.8616  162.6964  168.6269 H   0  0  0  0  0  0  0  0  0  0  0  0
  124.1232  162.4683  170.4040 H   0  0  0  0  0  0  0  0  0  0  0  0
  121.7139  162.6887  169.8059 H   0  0  0  0  0  0  0  0  0  0  0  0
  121.0383  163.1350  167.4549 H   0  0  0  0  0  0  0  0  0  0  0  0
  121.3453  167.0654  167.3103 H   0  0  0  0  0  0  0  0  0  0  0  0
  120.3600  168.9560  171.1910 H   0  0  0  0  0  0  0  0  0  0  0  0
  121.3321  171.2084  172.6557 H   0  0  0  0  0  0  0  0  0  0  0  0
  122.6220  171.4942  174.7659 H   0  0  0  0  0  0  0  0  0  0  0  0
  124.1316  169.6813  175.5630 H   0  0  0  0  0  0  0  0  0  0  0  0
  123.0608  167.2910  172.1154 H   0  0  0  0  0  0  0  0  0  0  0  0
  1  2  2  0
  2  3  1  0
  3  4  1  0
  4  5  2  0
  5  6  1  0
  6  7  2  0
  7  8  1  0
  8  9  1  0
  9 10  2  0
 10 11  1  0
 11 12  1  0
 12 13  2  0
 13 14  1  0
 14 15  2  0
 15 16  1  0
 16 17  1  0
 17 18  1  0
 18 19  2  0
 19 20  1  0
 20 21  2  0
 21 22  1  0
 22 23  2  0
 16 24  2  0
  8 25  2  0
  2 26  1  0
 26 27  1  0
 27 28  2  0
 28 29  1  0
 29 30  2  0
 30 31  1  0
 31 32  1  0
 32 33  1  0
 32 34  1  0
 32 35  1  0
 31 36  2  0
 25  4  1  0
 36 27  1  0
 24  9  1  0
 15 11  1  0
 23 18  1  0
  3 37  1  0
  5 38  1  0
  6 39  1  0
  7 40  1  0
 10 41  1  0
 12 42  1  0
 13 43  1  0
 17 44  1  0
 19 45  1  0
 20 46  1  0
 21 47  1  0
 22 48  1  0
 23 49  1  0
 25 50  1  0
 26 51  1  0
 28 52  1  0
 29 53  1  0
 30 54  1  0
 36 55  1  0
M  END
>  <meeko>  (2) 
{"is_sidechain": [false], "free_energy": -8.777, "intermolecular_energy": -11.271, "internal_energy": -1.233}

$$$$
LIB_YWDIXVZCRMMQQY__W_7USX_LOCAL_COMPLETE__e8__s20260927
     RDKit          3D

 55 59  0  0  0  0  0  0  0  0999 V2000
  121.8270  164.7750  169.5700 O   0  0  0  0  0  0  0  0  0  0  0  0
  123.0460  164.7910  169.6800 C   0  0  0  0  0  0  0  0  0  0  0  0
  123.9260  164.1120  168.8480 N   0  0  0  0  0  0  0  0  0  0  0  0
  123.6180  163.4040  167.6650 C   0  0  0  0  0  0  0  0  0  0  0  0
  123.8480  162.0230  167.6700 C   0  0  0  0  0  0  0  0  0  0  0  0
  123.5740  161.2560  166.5370 C   0  0  0  0  0  0  0  0  0  0  0  0
  123.0660  161.8640  165.3910 C   0  0  0  0  0  0  0  0  0  0  0  0
  122.8240  163.2450  165.3580 C   0  0  0  0  0  0  0  0  0  0  0  0
  122.2970  163.8680  164.1170 C   0  0  0  0  0  0  0  0  0  0  0  0
  122.3560  163.1990  162.9470 C   0  0  0  0  0  0  0  0  0  0  0  0
  121.8710  163.8210  161.8180 N   0  0  0  0  0  0  0  0  0  0  0  0
  121.7850  163.4270  160.5110 C   0  0  0  0  0  0  0  0  0  0  0  0
  121.2090  164.4930  159.8530 C   0  0  0  0  0  0  0  0  0  0  0  0
  120.9420  165.5300  160.7170 N   0  0  0  0  0  0  0  0  0  0  0  0
  121.3530  165.0830  161.8880 C   0  0  0  0  0  0  0  0  0  0  0  0
  121.3120  165.7770  163.1670 C   0  0  0  0  0  0  0  0  0  0  0  0
  120.7880  167.0550  163.1850 N   0  0  0  0  0  0  0  0  0  0  0  0
  120.5600  167.9470  164.2440 C   0  0  0  0  0  0  0  0  0  0  0  0
  119.8850  169.1480  163.9670 C   0  0  0  0  0  0  0  0  0  0  0  0
  119.6360  170.0940  164.9660 C   0  0  0  0  0  0  0  0  0  0  0  0
  120.0620  169.8560  166.2690 C   0  0  0  0  0  0  0  0  0  0  0  0
  120.7360  168.6760  166.5640 C   0  0  0  0  0  0  0  0  0  0  0  0
  120.9830  167.7330  165.5590 C   0  0  0  0  0  0  0  0  0  0  0  0
  121.7860  165.1570  164.2220 N   0  0  0  0  0  0  0  0  0  0  0  0
  123.1220  164.0050  166.5040 C   0  0  0  0  0  0  0  0  0  0  0  0
  123.7460  165.4840  170.6570 N   0  0  0  0  0  0  0  0  0  0  0  0
  123.2190  166.2060  171.7480 C   0  0  0  0  0  0  0  0  0  0  0  0
  123.0070  165.4980  172.9380 C   0  0  0  0  0  0  0  0  0  0  0  0
  122.4870  166.1350  174.0660 C   0  0  0  0  0  0  0  0  0  0  0  0
  122.1690  167.4900  174.0160 C   0  0  0  0  0  0  0  0  0  0  0  0
  122.3610  168.2170  172.8330 C   0  0  0  0  0  0  0  0  0  0  0  0
  122.0340  169.6890  172.7640 C   0  0  0  0  0  0  0  0  0  0  0  0
  120.8100  169.9910  173.2840 F   0  0  0  0  0  0  0  0  0  0  0  0
  122.9260  170.4530  173.4530 F   0  0  0  0  0  0  0  0  0  0  0  0
  122.0230  170.1730  171.4920 F   0  0  0  0  0  0  0  0  0  0  0  0
  122.8920  167.5630  171.7050 C   0  0  0  0  0  0  0  0  0  0  0  0
  124.8810  164.0460  169.1620 H   0  0  0  0  0  0  0  0  0  0  0  0
  124.2475  161.5392  168.5735 H   0  0  0  0  0  0  0  0  0  0  0  0
  123.7590  160.1717  166.5486 H   0  0  0  0  0  0  0  0  0  0  0  0
  122.8521  161.2535  164.5013 H   0  0  0  0  0  0  0  0  0  0  0  0
  122.7796  162.1851  162.8962 H   0  0  0  0  0  0  0  0  0  0  0  0
  122.1058  162.4678  160.0786 H   0  0  0  0  0  0  0  0  0  0  0  0
  120.9908  164.5120  158.7750 H   0  0  0  0  0  0  0  0  0  0  0  0
  120.5040  167.3890  162.2680 H   0  0  0  0  0  0  0  0  0  0  0  0
  119.5446  169.3485  162.9404 H   0  0  0  0  0  0  0  0  0  0  0  0
  119.1039  171.0253  164.7221 H   0  0  0  0  0  0  0  0  0  0  0  0
  119.8671  170.5955  167.0596 H   0  0  0  0  0  0  0  0  0  0  0  0
  121.0767  168.4825  167.5918 H   0  0  0  0  0  0  0  0  0  0  0  0
  121.5201  166.8062  165.8090 H   0  0  0  0  0  0  0  0  0  0  0  0
  122.9617  165.0931  166.4862 H   0  0  0  0  0  0  0  0  0  0  0  0
  124.7460  165.5320  170.5390 H   0  0  0  0  0  0  0  0  0  0  0  0
  123.2533  164.4269  172.9841 H   0  0  0  0  0  0  0  0  0  0  0  0
  122.3284  165.5667  174.9944 H   0  0  0  0  0  0  0  0  0  0  0  0
  121.7657  167.9915  174.9081 H   0  0  0  0  0  0  0  0  0  0  0  0
  123.0517  168.1295  170.7757 H   0  0  0  0  0  0  0  0  0  0  0  0
  1  2  2  0
  2  3  1  0
  3  4  1  0
  4  5  2  0
  5  6  1  0
  6  7  2  0
  7  8  1  0
  8  9  1  0
  9 10  2  0
 10 11  1  0
 11 12  1  0
 12 13  2  0
 13 14  1  0
 14 15  2  0
 15 16  1  0
 16 17  1  0
 17 18  1  0
 18 19  2  0
 19 20  1  0
 20 21  2  0
 21 22  1  0
 22 23  2  0
 16 24  2  0
  8 25  2  0
  2 26  1  0
 26 27  1  0
 27 28  2  0
 28 29  1  0
 29 30  2  0
 30 31  1  0
 31 32  1  0
 32 33  1  0
 32 34  1  0
 32 35  1  0
 31 36  2  0
 25  4  1  0
 36 27  1  0
 24  9  1  0
 15 11  1  0
 23 18  1  0
  3 37  1  0
  5 38  1  0
  6 39  1  0
  7 40  1  0
 10 41  1  0
 12 42  1  0
 13 43  1  0
 17 44  1  0
 19 45  1  0
 20 46  1  0
 21 47  1  0
 22 48  1  0
 23 49  1  0
 25 50  1  0
 26 51  1  0
 28 52  1  0
 29 53  1  0
 30 54  1  0
 36 55  1  0
M  END
>  <meeko>  (3) 
{"is_sidechain": [false], "free_energy": -8.645, "intermolecular_energy": -11.465, "internal_energy": -0.867}

$$$$
LIB_YWDIXVZCRMMQQY__W_7USX_LOCAL_COMPLETE__e8__s20260927
     RDKit          3D

 55 59  0  0  0  0  0  0  0  0999 V2000
  131.6090  183.4710  163.0230 O   0  0  0  0  0  0  0  0  0  0  0  0
  132.7140  183.9230  162.7520 C   0  0  0  0  0  0  0  0  0  0  0  0
  132.9400  185.0410  161.9620 N   0  0  0  0  0  0  0  0  0  0  0  0
  131.9790  185.9360  161.4420 C   0  0  0  0  0  0  0  0  0  0  0  0
  132.0960  186.2860  160.0910 C   0  0  0  0  0  0  0  0  0  0  0  0
  131.1880  187.1680  159.5070 C   0  0  0  0  0  0  0  0  0  0  0  0
  130.1530  187.7080  160.2690 C   0  0  0  0  0  0  0  0  0  0  0  0
  130.0100  187.3740  161.6230 C   0  0  0  0  0  0  0  0  0  0  0  0
  128.9070  187.9770  162.4130 C   0  0  0  0  0  0  0  0  0  0  0  0
  127.6750  188.0960  161.8760 C   0  0  0  0  0  0  0  0  0  0  0  0
  126.6860  188.6750  162.6390 N   0  0  0  0  0  0  0  0  0  0  0  0
  125.3660  188.9370  162.3960 C   0  0  0  0  0  0  0  0  0  0  0  0
  124.9010  189.5380  163.5470 C   0  0  0  0  0  0  0  0  0  0  0  0
  125.8990  189.6550  164.4870 N   0  0  0  0  0  0  0  0  0  0  0  0
  126.9530  189.1210  163.9010 C   0  0  0  0  0  0  0  0  0  0  0  0
  128.2970  188.9840  164.4470 C   0  0  0  0  0  0  0  0  0  0  0  0
  128.5210  189.4600  165.7240 N   0  0  0  0  0  0  0  0  0  0  0  0
  129.6630  189.4240  166.5370 C   0  0  0  0  0  0  0  0  0  0  0  0
  129.5960  188.7110  167.7460 C   0  0  0  0  0  0  0  0  0  0  0  0
  130.6880  188.6430  168.6180 C   0  0  0  0  0  0  0  0  0  0  0  0
  131.8740  189.2950  168.2960 C   0  0  0  0  0  0  0  0  0  0  0  0
  131.9600  190.0120  167.1060 C   0  0  0  0  0  0  0  0  0  0  0  0
  130.8640  190.0760  166.2390 C   0  0  0  0  0  0  0  0  0  0  0  0
  129.2170  188.4300  163.6920 N   0  0  0  0  0  0  0  0  0  0  0  0
  130.9460  186.4950  162.1990 C   0  0  0  0  0  0  0  0  0  0  0  0
  133.9190  183.3890  163.1850 N   0  0  0  0  0  0  0  0  0  0  0  0
  134.1230  182.1990  163.9160 C   0  0  0  0  0  0  0  0  0  0  0  0
  135.1190  182.2190  164.9010 C   0  0  0  0  0  0  0  0  0  0  0  0
  135.3870  181.0860  165.6700 C   0  0  0  0  0  0  0  0  0  0  0  0
  134.6630  179.9140  165.4590 C   0  0  0  0  0  0  0  0  0  0  0  0
  133.6700  179.8660  164.4710 C   0  0  0  0  0  0  0  0  0  0  0  0
  132.8670  178.6100  164.2380 C   0  0  0  0  0  0  0  0  0  0  0  0
  131.5210  178.8110  164.3210 F   0  0  0  0  0  0  0  0  0  0  0  0
  133.0850  178.0730  163.0060 F   0  0  0  0  0  0  0  0  0  0  0  0
  133.1470  177.6250  165.1350 F   0  0  0  0  0  0  0  0  0  0  0  0
  133.4060  181.0190  163.7080 C   0  0  0  0  0  0  0  0  0  0  0  0
  133.8880  185.1900  161.6550 H   0  0  0  0  0  0  0  0  0  0  0  0
  132.9107  185.8616  159.4859 H   0  0  0  0  0  0  0  0  0  0  0  0
  131.2882  187.4378  158.4453 H   0  0  0  0  0  0  0  0  0  0  0  0
  129.4404  188.4041  159.8025 H   0  0  0  0  0  0  0  0  0  0  0  0
  127.4664  187.7401  160.8563 H   0  0  0  0  0  0  0  0  0  0  0  0
  124.7978  188.7161  161.4804 H   0  0  0  0  0  0  0  0  0  0  0  0
  123.8659  189.8797  163.6945 H   0  0  0  0  0  0  0  0  0  0  0  0
  127.7020  189.8910  166.1440 H   0  0  0  0  0  0  0  0  0  0  0  0
  128.6626  188.1939  168.0133 H   0  0  0  0  0  0  0  0  0  0  0  0
  130.6089  188.0749  169.5566 H   0  0  0  0  0  0  0  0  0  0  0  0
  132.7369  189.2443  168.9763 H   0  0  0  0  0  0  0  0  0  0  0  0
  132.8945  190.5309  166.8460 H   0  0  0  0  0  0  0  0  0  0  0  0
  130.9484  190.6503  165.3046 H   0  0  0  0  0  0  0  0  0  0  0  0
  130.8628  186.2429  163.2665 H   0  0  0  0  0  0  0  0  0  0  0  0
  134.7410  183.9460  163.0140 H   0  0  0  0  0  0  0  0  0  0  0  0
  135.6970  183.1394  165.0703 H   0  0  0  0  0  0  0  0  0  0  0  0
  136.1694  181.1178  166.4425 H   0  0  0  0  0  0  0  0  0  0  0  0
  134.8716  179.0234  166.0700 H   0  0  0  0  0  0  0  0  0  0  0  0
  132.6229  180.9900  162.9360 H   0  0  0  0  0  0  0  0  0  0  0  0
  1  2  2  0
  2  3  1  0
  3  4  1  0
  4  5  2  0
  5  6  1  0
  6  7  2  0
  7  8  1  0
  8  9  1  0
  9 10  2  0
 10 11  1  0
 11 12  1  0
 12 13  2  0
 13 14  1  0
 14 15  2  0
 15 16  1  0
 16 17  1  0
 17 18  1  0
 18 19  2  0
 19 20  1  0
 20 21  2  0
 21 22  1  0
 22 23  2  0
 16 24  2  0
  8 25  2  0
  2 26  1  0
 26 27  1  0
 27 28  2  0
 28 29  1  0
 29 30  2  0
 30 31  1  0
 31 32  1  0
 32 33  1  0
 32 34  1  0
 32 35  1  0
 31 36  2  0
 25  4  1  0
 36 27  1  0
 24  9  1  0
 15 11  1  0
 23 18  1  0
  3 37  1  0
  5 38  1  0
  6 39  1  0
  7 40  1  0
 10 41  1  0
 12 42  1  0
 13 43  1  0
 17 44  1  0
 19 45  1  0
 20 46  1  0
 21 47  1  0
 22 48  1  0
 23 49  1  0
 25 50  1  0
 26 51  1  0
 28 52  1  0
 29 53  1  0
 30 54  1  0
 36 55  1  0
M  END
>  <meeko>  (4) 
{"is_sidechain": [false], "free_energy": -8.484, "intermolecular_energy": -11.429, "internal_energy": -0.695}

$$$$
LIB_YWDIXVZCRMMQQY__W_7USX_LOCAL_COMPLETE__e8__s20260927
     RDKit          3D

 55 59  0  0  0  0  0  0  0  0999 V2000
  125.6150  167.5880  173.7170 O   0  0  0  0  0  0  0  0  0  0  0  0
  124.7240  166.8810  174.1700 C   0  0  0  0  0  0  0  0  0  0  0  0
  123.4330  166.8140  173.6670 N   0  0  0  0  0  0  0  0  0  0  0  0
  122.9360  167.4180  172.4910 C   0  0  0  0  0  0  0  0  0  0  0  0
  122.4220  168.7150  172.6070 C   0  0  0  0  0  0  0  0  0  0  0  0
  121.9080  169.3760  171.4910 C   0  0  0  0  0  0  0  0  0  0  0  0
  121.9030  168.7440  170.2490 C   0  0  0  0  0  0  0  0  0  0  0  0
  122.4130  167.4460  170.1030 C   0  0  0  0  0  0  0  0  0  0  0  0
  122.3810  166.7920  168.7700 C   0  0  0  0  0  0  0  0  0  0  0  0
  121.8600  167.4420  167.7090 C   0  0  0  0  0  0  0  0  0  0  0  0
  121.8360  166.7920  166.4960 N   0  0  0  0  0  0  0  0  0  0  0  0
  121.3880  167.1630  165.2580 C   0  0  0  0  0  0  0  0  0  0  0  0
  121.6320  166.0740  164.4470 C   0  0  0  0  0  0  0  0  0  0  0  0
  122.2140  165.0460  165.1530 N   0  0  0  0  0  0  0  0  0  0  0  0
  122.3210  165.5210  166.3780 C   0  0  0  0  0  0  0  0  0  0  0  0
  122.8690  164.8460  167.5470 C   0  0  0  0  0  0  0  0  0  0  0  0
  123.3370  163.5570  167.3800 N   0  0  0  0  0  0  0  0  0  0  0  0
  123.9650  162.6780  168.2760 C   0  0  0  0  0  0  0  0  0  0  0  0
  123.2750  162.3200  169.4470 C   0  0  0  0  0  0  0  0  0  0  0  0
  123.8410  161.4620  170.3960 C   0  0  0  0  0  0  0  0  0  0  0  0
  125.1160  160.9470  170.1910 C   0  0  0  0  0  0  0  0  0  0  0  0
  125.8190  161.2920  169.0410 C   0  0  0  0  0  0  0  0  0  0  0  0
  125.2470  162.1510  168.0960 C   0  0  0  0  0  0  0  0  0  0  0  0
  122.8730  165.4930  168.6890 N   0  0  0  0  0  0  0  0  0  0  0  0
  122.9120  166.7890  171.2430 C   0  0  0  0  0  0  0  0  0  0  0  0
  124.8590  166.0360  175.2630 N   0  0  0  0  0  0  0  0  0  0  0  0
  125.9770  165.8950  176.1120 C   0  0  0  0  0  0  0  0  0  0  0  0
  125.9870  166.6600  177.2850 C   0  0  0  0  0  0  0  0  0  0  0  0
  127.0550  166.5830  178.1810 C   0  0  0  0  0  0  0  0  0  0  0  0
  128.1300  165.7400  177.9100 C   0  0  0  0  0  0  0  0  0  0  0  0
  128.1490  164.9740  176.7370 C   0  0  0  0  0  0  0  0  0  0  0  0
  129.2990  164.0450  176.4340 C   0  0  0  0  0  0  0  0  0  0  0  0
  130.5190  164.6220  176.6310 F   0  0  0  0  0  0  0  0  0  0  0  0
  129.2880  162.9300  177.2160 F   0  0  0  0  0  0  0  0  0  0  0  0
  129.3040  163.6040  175.1470 F   0  0  0  0  0  0  0  0  0  0  0  0
  127.0620  165.0570  175.8460 C   0  0  0  0  0  0  0  0  0  0  0  0
  122.7490  166.3510  174.2440 H   0  0  0  0  0  0  0  0  0  0  0  0
  122.4234  169.2169  173.5858 H   0  0  0  0  0  0  0  0  0  0  0  0
  121.5070  170.3954  171.5914 H   0  0  0  0  0  0  0  0  0  0  0  0
  121.4943  169.2693  169.3732 H   0  0  0  0  0  0  0  0  0  0  0  0
  121.4651  168.4636  167.8105 H   0  0  0  0  0  0  0  0  0  0  0  0
  120.9319  168.1220  164.9712 H   0  0  0  0  0  0  0  0  0  0  0  0
  121.3923  166.0327  163.3742 H   0  0  0  0  0  0  0  0  0  0  0  0
  123.2190  163.2030  166.4350 H   0  0  0  0  0  0  0  0  0  0  0  0
  122.2667  162.7238  169.6213 H   0  0  0  0  0  0  0  0  0  0  0  0
  123.2783  161.1953  171.3028 H   0  0  0  0  0  0  0  0  0  0  0  0
  125.5660  160.2712  170.9331 H   0  0  0  0  0  0  0  0  0  0  0  0
  126.8284  160.8880  168.8740 H   0  0  0  0  0  0  0  0  0  0  0  0
  125.8175  162.4167  167.1938 H   0  0  0  0  0  0  0  0  0  0  0  0
  123.2906  165.7604  171.1502 H   0  0  0  0  0  0  0  0  0  0  0  0
  124.0940  165.4030  175.4340 H   0  0  0  0  0  0  0  0  0  0  0  0
  125.1425  167.3302  177.5033 H   0  0  0  0  0  0  0  0  0  0  0  0
  127.0474  167.1875  179.1000 H   0  0  0  0  0  0  0  0  0  0  0  0
  128.9677  165.6753  178.6199 H   0  0  0  0  0  0  0  0  0  0  0  0
  127.0675  164.4529  174.9268 H   0  0  0  0  0  0  0  0  0  0  0  0
  1  2  2  0
  2  3  1  0
  3  4  1  0
  4  5  2  0
  5  6  1  0
  6  7  2  0
  7  8  1  0
  8  9  1  0
  9 10  2  0
 10 11  1  0
 11 12  1  0
 12 13  2  0
 13 14  1  0
 14 15  2  0
 15 16  1  0
 16 17  1  0
 17 18  1  0
 18 19  2  0
 19 20  1  0
 20 21  2  0
 21 22  1  0
 22 23  2  0
 16 24  2  0
  8 25  2  0
  2 26  1  0
 26 27  1  0
 27 28  2  0
 28 29  1  0
 29 30  2  0
 30 31  1  0
 31 32  1  0
 32 33  1  0
 32 34  1  0
 32 35  1  0
 31 36  2  0
 25  4  1  0
 36 27  1  0
 24  9  1  0
 15 11  1  0
 23 18  1  0
  3 37  1  0
  5 38  1  0
  6 39  1  0
  7 40  1  0
 10 41  1  0
 12 42  1  0
 13 43  1  0
 17 44  1  0
 19 45  1  0
 20 46  1  0
 21 47  1  0
 22 48  1  0
 23 49  1  0
 25 50  1  0
 26 51  1  0
 28 52  1  0
 29 53  1  0
 30 54  1  0
 36 55  1  0
M  END
>  <meeko>  (5) 
{"is_sidechain": [false], "free_energy": -8.276, "intermolecular_energy": -10.804, "internal_energy": -1.052}

$$$$
LIB_YWDIXVZCRMMQQY__W_7USX_LOCAL_COMPLETE__e8__s20260927
     RDKit          3D

 55 59  0  0  0  0  0  0  0  0999 V2000
  130.0680  185.8620  170.0330 O   0  0  0  0  0  0  0  0  0  0  0  0
  128.9010  186.2300  170.0110 C   0  0  0  0  0  0  0  0  0  0  0  0
  128.4100  187.2600  169.2200 N   0  0  0  0  0  0  0  0  0  0  0  0
  129.0990  187.9750  168.2150 C   0  0  0  0  0  0  0  0  0  0  0  0
  129.9360  189.0160  168.6320 C   0  0  0  0  0  0  0  0  0  0  0  0
  130.6450  189.7720  167.6990 C   0  0  0  0  0  0  0  0  0  0  0  0
  130.5220  189.4920  166.3390 C   0  0  0  0  0  0  0  0  0  0  0  0
  129.6930  188.4550  165.8920 C   0  0  0  0  0  0  0  0  0  0  0  0
  129.5690  188.1890  164.4360 C   0  0  0  0  0  0  0  0  0  0  0  0
  130.6750  187.9970  163.6870 C   0  0  0  0  0  0  0  0  0  0  0  0
  130.5150  187.7710  162.3390 N   0  0  0  0  0  0  0  0  0  0  0  0
  131.4080  187.5440  161.3280 C   0  0  0  0  0  0  0  0  0  0  0  0
  130.6370  187.3950  160.1950 C   0  0  0  0  0  0  0  0  0  0  0  0
  129.2970  187.5270  160.4810 N   0  0  0  0  0  0  0  0  0  0  0  0
  129.2690  187.7480  161.7800 C   0  0  0  0  0  0  0  0  0  0  0  0
  128.0980  187.9670  162.6180 C   0  0  0  0  0  0  0  0  0  0  0  0
  126.8610  187.9460  162.0050 N   0  0  0  0  0  0  0  0  0  0  0  0
  125.5660  188.0610  162.5330 C   0  0  0  0  0  0  0  0  0  0  0  0
  125.0460  189.3500  162.7430 C   0  0  0  0  0  0  0  0  0  0  0  0
  123.7700  189.5470  163.2810 C   0  0  0  0  0  0  0  0  0  0  0  0
  122.9860  188.4510  163.6240 C   0  0  0  0  0  0  0  0  0  0  0  0
  123.4820  187.1650  163.4280 C   0  0  0  0  0  0  0  0  0  0  0  0
  124.7600  186.9760  162.8900 C   0  0  0  0  0  0  0  0  0  0  0  0
  128.2860  188.1840  163.8990 N   0  0  0  0  0  0  0  0  0  0  0  0
  128.9720  187.7140  166.8480 C   0  0  0  0  0  0  0  0  0  0  0  0
  127.8800  185.6840  170.7760 N   0  0  0  0  0  0  0  0  0  0  0  0
  127.9860  184.6950  171.7760 C   0  0  0  0  0  0  0  0  0  0  0  0
  128.1860  185.1360  173.0900 C   0  0  0  0  0  0  0  0  0  0  0  0
  128.3030  184.2250  174.1410 C   0  0  0  0  0  0  0  0  0  0  0  0
  128.2260  182.8570  173.8880 C   0  0  0  0  0  0  0  0  0  0  0  0
  128.0390  182.3910  172.5800 C   0  0  0  0  0  0  0  0  0  0  0  0
  127.9390  180.9130  172.2900 C   0  0  0  0  0  0  0  0  0  0  0  0
  126.9060  180.5990  171.4570 F   0  0  0  0  0  0  0  0  0  0  0  0
  129.0590  180.4240  171.6900 F   0  0  0  0  0  0  0  0  0  0  0  0
  127.7500  180.1620  173.4090 F   0  0  0  0  0  0  0  0  0  0  0  0
  127.9150  183.3210  171.5310 C   0  0  0  0  0  0  0  0  0  0  0  0
  127.4850  187.5930  169.4390 H   0  0  0  0  0  0  0  0  0  0  0  0
  130.0355  189.2398  169.7044 H   0  0  0  0  0  0  0  0  0  0  0  0
  131.3007  190.5885  168.0359 H   0  0  0  0  0  0  0  0  0  0  0  0
  131.0828  190.0927  165.6078 H   0  0  0  0  0  0  0  0  0  0  0  0
  131.6765  188.0205  164.1413 H   0  0  0  0  0  0  0  0  0  0  0  0
  132.5042  187.4917  161.4029 H   0  0  0  0  0  0  0  0  0  0  0  0
  131.0407  187.1962  159.1913 H   0  0  0  0  0  0  0  0  0  0  0  0
  126.9090  187.8010  161.0010 H   0  0  0  0  0  0  0  0  0  0  0  0
  125.6575  190.2251  162.4778 H   0  0  0  0  0  0  0  0  0  0  0  0
  123.3874  190.5671  163.4325 H   0  0  0  0  0  0  0  0  0  0  0  0
  121.9814  188.5990  164.0470 H   0  0  0  0  0  0  0  0  0  0  0  0
  122.8668  186.2938  163.6971 H   0  0  0  0  0  0  0  0  0  0  0  0
  125.1379  185.9532  162.7451 H   0  0  0  0  0  0  0  0  0  0  0  0
  128.2956  186.9141  166.5123 H   0  0  0  0  0  0  0  0  0  0  0  0
  126.9440  185.9800  170.5480 H   0  0  0  0  0  0  0  0  0  0  0  0
  128.2518  186.2144  173.2966 H   0  0  0  0  0  0  0  0  0  0  0  0
  128.4559  184.5869  175.1685 H   0  0  0  0  0  0  0  0  0  0  0  0
  128.3123  182.1404  174.7181 H   0  0  0  0  0  0  0  0  0  0  0  0
  127.7599  182.9611  170.5032 H   0  0  0  0  0  0  0  0  0  0  0  0
  1  2  2  0
  2  3  1  0
  3  4  1  0
  4  5  2  0
  5  6  1  0
  6  7  2  0
  7  8  1  0
  8  9  1  0
  9 10  2  0
 10 11  1  0
 11 12  1  0
 12 13  2  0
 13 14  1  0
 14 15  2  0
 15 16  1  0
 16 17  1  0
 17 18  1  0
 18 19  2  0
 19 20  1  0
 20 21  2  0
 21 22  1  0
 22 23  2  0
 16 24  2  0
  8 25  2  0
  2 26  1  0
 26 27  1  0
 27 28  2  0
 28 29  1  0
 29 30  2  0
 30 31  1  0
 31 32  1  0
 32 33  1  0
 32 34  1  0
 32 35  1  0
 31 36  2  0
 25  4  1  0
 36 27  1  0
 24  9  1  0
 15 11  1  0
 23 18  1  0
  3 37  1  0
  5 38  1  0
  6 39  1  0
  7 40  1  0
 10 41  1  0
 12 42  1  0
 13 43  1  0
 17 44  1  0
 19 45  1  0
 20 46  1  0
 21 47  1  0
 22 48  1  0
 23 49  1  0
 25 50  1  0
 26 51  1  0
 28 52  1  0
 29 53  1  0
 30 54  1  0
 36 55  1  0
M  END
>  <meeko>  (6) 
{"is_sidechain": [false], "free_energy": -8.212, "intermolecular_energy": -10.727, "internal_energy": -1.046}

$$$$
LIB_YWDIXVZCRMMQQY__W_7USX_LOCAL_COMPLETE__e8__s20260927
     RDKit          3D

 55 59  0  0  0  0  0  0  0  0999 V2000
  121.8500  164.3540  167.7880 O   0  0  0  0  0  0  0  0  0  0  0  0
  122.8990  163.7260  167.8490 C   0  0  0  0  0  0  0  0  0  0  0  0
  123.7020  163.6330  168.9770 N   0  0  0  0  0  0  0  0  0  0  0  0
  123.4180  164.1070  170.2760 C   0  0  0  0  0  0  0  0  0  0  0  0
  123.3090  163.1530  171.2950 C   0  0  0  0  0  0  0  0  0  0  0  0
  123.0250  163.5430  172.6040 C   0  0  0  0  0  0  0  0  0  0  0  0
  122.8480  164.8930  172.9040 C   0  0  0  0  0  0  0  0  0  0  0  0
  122.9530  165.8710  171.9050 C   0  0  0  0  0  0  0  0  0  0  0  0
  122.7450  167.2990  172.2520 C   0  0  0  0  0  0  0  0  0  0  0  0
  123.0620  167.7500  173.4840 C   0  0  0  0  0  0  0  0  0  0  0  0
  122.8370  169.0780  173.7680 N   0  0  0  0  0  0  0  0  0  0  0  0
  123.0440  169.8300  174.8910 C   0  0  0  0  0  0  0  0  0  0  0  0
  122.6130  171.0980  174.5580 C   0  0  0  0  0  0  0  0  0  0  0  0
  122.1450  171.1430  173.2650 N   0  0  0  0  0  0  0  0  0  0  0  0
  122.3010  169.9090  172.8260 C   0  0  0  0  0  0  0  0  0  0  0  0
  121.9630  169.3870  171.5100 C   0  0  0  0  0  0  0  0  0  0  0  0
  121.4140  170.2640  170.5950 N   0  0  0  0  0  0  0  0  0  0  0  0
  121.0430  170.0890  169.2530 C   0  0  0  0  0  0  0  0  0  0  0  0
  121.0990  171.2020  168.3970 C   0  0  0  0  0  0  0  0  0  0  0  0
  120.7290  171.1110  167.0520 C   0  0  0  0  0  0  0  0  0  0  0  0
  120.2900  169.8970  166.5340 C   0  0  0  0  0  0  0  0  0  0  0  0
  120.2220  168.7830  167.3640 C   0  0  0  0  0  0  0  0  0  0  0  0
  120.5930  168.8810  168.7110 C   0  0  0  0  0  0  0  0  0  0  0  0
  122.1870  168.1150  171.2730 N   0  0  0  0  0  0  0  0  0  0  0  0
  123.2240  165.4560  170.5880 C   0  0  0  0  0  0  0  0  0  0  0  0
  123.4580  163.0110  166.8000 N   0  0  0  0  0  0  0  0  0  0  0  0
  123.0070  162.9420  165.4650 C   0  0  0  0  0  0  0  0  0  0  0  0
  122.6160  161.6850  164.9880 C   0  0  0  0  0  0  0  0  0  0  0  0
  122.1580  161.5260  163.6790 C   0  0  0  0  0  0  0  0  0  0  0  0
  122.0900  162.6270  162.8270 C   0  0  0  0  0  0  0  0  0  0  0  0
  122.4880  163.8930  163.2780 C   0  0  0  0  0  0  0  0  0  0  0  0
  122.4090  165.0980  162.3730 C   0  0  0  0  0  0  0  0  0  0  0  0
  121.1300  165.5050  162.1340 F   0  0  0  0  0  0  0  0  0  0  0  0
  123.0500  166.1820  162.8910 F   0  0  0  0  0  0  0  0  0  0  0  0
  122.9610  164.8830  161.1480 F   0  0  0  0  0  0  0  0  0  0  0  0
  122.9410  164.0390  164.6020 C   0  0  0  0  0  0  0  0  0  0  0  0
  124.6270  163.2570  168.8400 H   0  0  0  0  0  0  0  0  0  0  0  0
  123.4484  162.0872  171.0615 H   0  0  0  0  0  0  0  0  0  0  0  0
  122.9409  162.7866  173.3982 H   0  0  0  0  0  0  0  0  0  0  0  0
  122.6231  165.1946  173.9377 H   0  0  0  0  0  0  0  0  0  0  0  0
  123.4885  167.0748  174.2404 H   0  0  0  0  0  0  0  0  0  0  0  0
  123.4632  169.4965  175.8518 H   0  0  0  0  0  0  0  0  0  0  0  0
  122.6401  171.9616  175.2388 H   0  0  0  0  0  0  0  0  0  0  0  0
  121.2780  171.2000  170.9640 H   0  0  0  0  0  0  0  0  0  0  0  0
  121.4423  172.1683  168.7949 H   0  0  0  0  0  0  0  0  0  0  0  0
  120.7849  171.9982  166.4042 H   0  0  0  0  0  0  0  0  0  0  0  0
  119.9989  169.8186  165.4761 H   0  0  0  0  0  0  0  0  0  0  0  0
  119.8751  167.8203  166.9605 H   0  0  0  0  0  0  0  0  0  0  0  0
  120.5292  167.9912  169.3545 H   0  0  0  0  0  0  0  0  0  0  0  0
  123.2844  166.2082  169.7877 H   0  0  0  0  0  0  0  0  0  0  0  0
  124.2420  162.4210  167.0300 H   0  0  0  0  0  0  0  0  0  0  0  0
  122.6705  160.8110  165.6537 H   0  0  0  0  0  0  0  0  0  0  0  0
  121.8510  160.5325  163.3201 H   0  0  0  0  0  0  0  0  0  0  0  0
  121.7229  162.5020  161.7976 H   0  0  0  0  0  0  0  0  0  0  0  0
  123.2478  165.0317  164.9632 H   0  0  0  0  0  0  0  0  0  0  0  0
  1  2  2  0
  2  3  1  0
  3  4  1  0
  4  5  2  0
  5  6  1  0
  6  7  2  0
  7  8  1  0
  8  9  1  0
  9 10  2  0
 10 11  1  0
 11 12  1  0
 12 13  2  0
 13 14  1  0
 14 15  2  0
 15 16  1  0
 16 17  1  0
 17 18  1  0
 18 19  2  0
 19 20  1  0
 20 21  2  0
 21 22  1  0
 22 23  2  0
 16 24  2  0
  8 25  2  0
  2 26  1  0
 26 27  1  0
 27 28  2  0
 28 29  1  0
 29 30  2  0
 30 31  1  0
 31 32  1  0
 32 33  1  0
 32 34  1  0
 32 35  1  0
 31 36  2  0
 25  4  1  0
 36 27  1  0
 24  9  1  0
 15 11  1  0
 23 18  1  0
  3 37  1  0
  5 38  1  0
  6 39  1  0
  7 40  1  0
 10 41  1  0
 12 42  1  0
 13 43  1  0
 17 44  1  0
 19 45  1  0
 20 46  1  0
 21 47  1  0
 22 48  1  0
 23 49  1  0
 25 50  1  0
 26 51  1  0
 28 52  1  0
 29 53  1  0
 30 54  1  0
 36 55  1  0
M  END
>  <meeko>  (7) 
{"is_sidechain": [false], "free_energy": -8.211, "intermolecular_energy": -10.925, "internal_energy": -0.846}

$$$$
LIB_YWDIXVZCRMMQQY__W_7USX_LOCAL_COMPLETE__e8__s20260927
     RDKit          3D

 55 59  0  0  0  0  0  0  0  0999 V2000
  130.9070  183.9490  162.6810 O   0  0  0  0  0  0  0  0  0  0  0  0
  131.6570  184.8500  163.0320 C   0  0  0  0  0  0  0  0  0  0  0  0
  131.3760  186.2040  162.9180 N   0  0  0  0  0  0  0  0  0  0  0  0
  130.1580  186.7990  162.5210 C   0  0  0  0  0  0  0  0  0  0  0  0
  130.1090  187.3590  161.2390 C   0  0  0  0  0  0  0  0  0  0  0  0
  128.9430  187.9690  160.7760 C   0  0  0  0  0  0  0  0  0  0  0  0
  127.8150  188.0240  161.5940 C   0  0  0  0  0  0  0  0  0  0  0  0
  127.8340  187.4710  162.8820 C   0  0  0  0  0  0  0  0  0  0  0  0
  126.6230  187.5580  163.7360 C   0  0  0  0  0  0  0  0  0  0  0  0
  125.4280  187.8610  163.1870 C   0  0  0  0  0  0  0  0  0  0  0  0
  124.3340  187.9480  164.0180 N   0  0  0  0  0  0  0  0  0  0  0  0
  123.0160  188.2280  163.7840 C   0  0  0  0  0  0  0  0  0  0  0  0
  122.4120  188.1710  165.0230 C   0  0  0  0  0  0  0  0  0  0  0  0
  123.3220  187.8670  166.0090 N   0  0  0  0  0  0  0  0  0  0  0  0
  124.4630  187.7380  165.3610 C   0  0  0  0  0  0  0  0  0  0  0  0
  125.7700  187.4200  165.9210 C   0  0  0  0  0  0  0  0  0  0  0  0
  125.8510  187.2260  167.2860 N   0  0  0  0  0  0  0  0  0  0  0  0
  126.9290  186.8580  168.1050 C   0  0  0  0  0  0  0  0  0  0  0  0
  126.9470  185.5550  168.6330 C   0  0  0  0  0  0  0  0  0  0  0  0
  127.9780  185.1190  169.4710 C   0  0  0  0  0  0  0  0  0  0  0  0
  129.0160  185.9840  169.8000 C   0  0  0  0  0  0  0  0  0  0  0  0
  129.0160  187.2790  169.2930 C   0  0  0  0  0  0  0  0  0  0  0  0
  127.9810  187.7100  168.4550 C   0  0  0  0  0  0  0  0  0  0  0  0
  126.7920  187.3490  165.1010 N   0  0  0  0  0  0  0  0  0  0  0  0
  129.0250  186.8740  163.3370 C   0  0  0  0  0  0  0  0  0  0  0  0
  132.9130  184.6660  163.5920 N   0  0  0  0  0  0  0  0  0  0  0  0
  133.6060  183.4510  163.7770 C   0  0  0  0  0  0  0  0  0  0  0  0
  134.8510  183.3250  163.1480 C   0  0  0  0  0  0  0  0  0  0  0  0
  135.6030  182.1560  163.2770 C   0  0  0  0  0  0  0  0  0  0  0  0
  135.1150  181.0940  164.0350 C   0  0  0  0  0  0  0  0  0  0  0  0
  133.8660  181.1920  164.6630 C   0  0  0  0  0  0  0  0  0  0  0  0
  133.3270  180.0570  165.5000 C   0  0  0  0  0  0  0  0  0  0  0  0
  132.2360  179.4540  164.9460 F   0  0  0  0  0  0  0  0  0  0  0  0
  134.2420  179.0660  165.6840 F   0  0  0  0  0  0  0  0  0  0  0  0
  132.9380  180.4490  166.7430 F   0  0  0  0  0  0  0  0  0  0  0  0
  133.1220  182.3790  164.5310 C   0  0  0  0  0  0  0  0  0  0  0  0
  132.1470  186.8370  163.0560 H   0  0  0  0  0  0  0  0  0  0  0  0
  130.9972  187.3177  160.5914 H   0  0  0  0  0  0  0  0  0  0  0  0
  128.9134  188.4060  159.7670 H   0  0  0  0  0  0  0  0  0  0  0  0
  126.8988  188.5074  161.2239 H   0  0  0  0  0  0  0  0  0  0  0  0
  125.3308  188.0337  162.1050 H   0  0  0  0  0  0  0  0  0  0  0  0
  122.5405  188.4504  162.8173 H   0  0  0  0  0  0  0  0  0  0  0  0
  121.3405  188.3461  165.1998 H   0  0  0  0  0  0  0  0  0  0  0  0
  124.9660  187.3580  167.7660 H   0  0  0  0  0  0  0  0  0  0  0  0
  126.1307  184.8621  168.3809 H   0  0  0  0  0  0  0  0  0  0  0  0
  127.9680  184.0937  169.8692 H   0  0  0  0  0  0  0  0  0  0  0  0
  129.8313  185.6463  170.4566 H   0  0  0  0  0  0  0  0  0  0  0  0
  129.8335  187.9680  169.5518 H   0  0  0  0  0  0  0  0  0  0  0  0
  127.9955  188.7382  168.0645 H   0  0  0  0  0  0  0  0  0  0  0  0
  129.0651  186.4583  164.3546 H   0  0  0  0  0  0  0  0  0  0  0  0
  133.3570  185.4870  163.9710 H   0  0  0  0  0  0  0  0  0  0  0  0
  135.2412  184.1578  162.5446 H   0  0  0  0  0  0  0  0  0  0  0  0
  136.5809  182.0735  162.7801 H   0  0  0  0  0  0  0  0  0  0  0  0
  135.7117  180.1760  164.1409 H   0  0  0  0  0  0  0  0  0  0  0  0
  132.1448  182.4642  165.0289 H   0  0  0  0  0  0  0  0  0  0  0  0
  1  2  2  0
  2  3  1  0
  3  4  1  0
  4  5  2  0
  5  6  1  0
  6  7  2  0
  7  8  1  0
  8  9  1  0
  9 10  2  0
 10 11  1  0
 11 12  1  0
 12 13  2  0
 13 14  1  0
 14 15  2  0
 15 16  1  0
 16 17  1  0
 17 18  1  0
 18 19  2  0
 19 20  1  0
 20 21  2  0
 21 22  1  0
 22 23  2  0
 16 24  2  0
  8 25  2  0
  2 26  1  0
 26 27  1  0
 27 28  2  0
 28 29  1  0
 29 30  2  0
 30 31  1  0
 31 32  1  0
 32 33  1  0
 32 34  1  0
 32 35  1  0
 31 36  2  0
 25  4  1  0
 36 27  1  0
 24  9  1  0
 15 11  1  0
 23 18  1  0
  3 37  1  0
  5 38  1  0
  6 39  1  0
  7 40  1  0
 10 41  1  0
 12 42  1  0
 13 43  1  0
 17 44  1  0
 19 45  1  0
 20 46  1  0
 21 47  1  0
 22 48  1  0
 23 49  1  0
 25 50  1  0
 26 51  1  0
 28 52  1  0
 29 53  1  0
 30 54  1  0
 36 55  1  0
M  END
>  <meeko>  (8) 
{"is_sidechain": [false], "free_energy": -8.129, "intermolecular_energy": -10.602, "internal_energy": -1.063}

$$$$
LIB_YWDIXVZCRMMQQY__W_7USX_LOCAL_COMPLETE__e8__s20260927
     RDKit          3D

 55 59  0  0  0  0  0  0  0  0999 V2000
  128.8410  187.1700  168.2310 O   0  0  0  0  0  0  0  0  0  0  0  0
  127.9980  187.0180  167.3570 C   0  0  0  0  0  0  0  0  0  0  0  0
  128.0970  187.5150  166.0650 N   0  0  0  0  0  0  0  0  0  0  0  0
  129.2080  188.1530  165.4720 C   0  0  0  0  0  0  0  0  0  0  0  0
  129.4310  189.4930  165.8130 C   0  0  0  0  0  0  0  0  0  0  0  0
  130.5060  190.1940  165.2640 C   0  0  0  0  0  0  0  0  0  0  0  0
  131.3660  189.5590  164.3700 C   0  0  0  0  0  0  0  0  0  0  0  0
  131.1680  188.2180  164.0120 C   0  0  0  0  0  0  0  0  0  0  0  0
  132.0920  187.5730  163.0450 C   0  0  0  0  0  0  0  0  0  0  0  0
  132.5990  188.2840  162.0160 C   0  0  0  0  0  0  0  0  0  0  0  0
  133.4380  187.6420  161.1340 N   0  0  0  0  0  0  0  0  0  0  0  0
  134.1030  188.0650  160.0160 C   0  0  0  0  0  0  0  0  0  0  0  0
  134.7820  186.9550  159.5590 C   0  0  0  0  0  0  0  0  0  0  0  0
  134.5500  185.8620  160.3630 N   0  0  0  0  0  0  0  0  0  0  0  0
  133.7410  186.3200  161.2980 C   0  0  0  0  0  0  0  0  0  0  0  0
  133.1700  185.5820  162.4160 C   0  0  0  0  0  0  0  0  0  0  0  0
  133.4970  184.2460  162.5340 N   0  0  0  0  0  0  0  0  0  0  0  0
  133.1650  183.2950  163.5120 C   0  0  0  0  0  0  0  0  0  0  0  0
  134.1830  182.8410  164.3690 C   0  0  0  0  0  0  0  0  0  0  0  0
  133.9350  181.8830  165.3570 C   0  0  0  0  0  0  0  0  0  0  0  0
  132.6570  181.3550  165.5050 C   0  0  0  0  0  0  0  0  0  0  0  0
  131.6350  181.7870  164.6640 C   0  0  0  0  0  0  0  0  0  0  0  0
  131.8910  182.7460  163.6770 C   0  0  0  0  0  0  0  0  0  0  0  0
  132.3700  186.2240  163.2360 N   0  0  0  0  0  0  0  0  0  0  0  0
  130.0690  187.5330  164.5630 C   0  0  0  0  0  0  0  0  0  0  0  0
  126.8030  186.3300  167.5170 N   0  0  0  0  0  0  0  0  0  0  0  0
  126.2820  185.7690  168.7020 C   0  0  0  0  0  0  0  0  0  0  0  0
  125.4130  186.5680  169.4570 C   0  0  0  0  0  0  0  0  0  0  0  0
  124.8530  186.0920  170.6440 C   0  0  0  0  0  0  0  0  0  0  0  0
  125.1610  184.8100  171.0930 C   0  0  0  0  0  0  0  0  0  0  0  0
  126.0380  183.9970  170.3620 C   0  0  0  0  0  0  0  0  0  0  0  0
  126.3720  182.6010  170.8280 C   0  0  0  0  0  0  0  0  0  0  0  0
  127.4910  182.5480  171.6060 F   0  0  0  0  0  0  0  0  0  0  0  0
  125.3770  182.0490  171.5750 F   0  0  0  0  0  0  0  0  0  0  0  0
  126.5980  181.7370  169.8010 F   0  0  0  0  0  0  0  0  0  0  0  0
  126.5890  184.4870  169.1640 C   0  0  0  0  0  0  0  0  0  0  0  0
  127.2570  187.4930  165.5090 H   0  0  0  0  0  0  0  0  0  0  0  0
  128.7540  189.9967  166.5187 H   0  0  0  0  0  0  0  0  0  0  0  0
  130.6741  191.2463  165.5367 H   0  0  0  0  0  0  0  0  0  0  0  0
  132.2108  190.1169  163.9398 H   0  0  0  0  0  0  0  0  0  0  0  0
  132.3486  189.3472  161.8859 H   0  0  0  0  0  0  0  0  0  0  0  0
  134.0974  189.0732  159.5762 H   0  0  0  0  0  0  0  0  0  0  0  0
  135.4258  186.9444  158.6672 H   0  0  0  0  0  0  0  0  0  0  0  0
  134.0980  183.9090  161.7880 H   0  0  0  0  0  0  0  0  0  0  0  0
  135.1986  183.2491  164.2597 H   0  0  0  0  0  0  0  0  0  0  0  0
  134.7494  181.5476  166.0160 H   0  0  0  0  0  0  0  0  0  0  0  0
  132.4551  180.6017  166.2807 H   0  0  0  0  0  0  0  0  0  0  0  0
  130.6220  181.3729  164.7756 H   0  0  0  0  0  0  0  0  0  0  0  0
  131.0731  183.0737  163.0185 H   0  0  0  0  0  0  0  0  0  0  0  0
  129.8842  186.4884  164.2721 H   0  0  0  0  0  0  0  0  0  0  0  0
  126.2740  186.1530  166.6780 H   0  0  0  0  0  0  0  0  0  0  0  0
  125.1690  187.5829  169.1101 H   0  0  0  0  0  0  0  0  0  0  0  0
  124.1691  186.7289  171.2242 H   0  0  0  0  0  0  0  0  0  0  0  0
  124.7141  184.4340  172.0252 H   0  0  0  0  0  0  0  0  0  0  0  0
  127.2721  183.8508  168.5821 H   0  0  0  0  0  0  0  0  0  0  0  0
  1  2  2  0
  2  3  1  0
  3  4  1  0
  4  5  2  0
  5  6  1  0
  6  7  2  0
  7  8  1  0
  8  9  1  0
  9 10  2  0
 10 11  1  0
 11 12  1  0
 12 13  2  0
 13 14  1  0
 14 15  2  0
 15 16  1  0
 16 17  1  0
 17 18  1  0
 18 19  2  0
 19 20  1  0
 20 21  2  0
 21 22  1  0
 22 23  2  0
 16 24  2  0
  8 25  2  0
  2 26  1  0
 26 27  1  0
 27 28  2  0
 28 29  1  0
 29 30  2  0
 30 31  1  0
 31 32  1  0
 32 33  1  0
 32 34  1  0
 32 35  1  0
 31 36  2  0
 25  4  1  0
 36 27  1  0
 24  9  1  0
 15 11  1  0
 23 18  1  0
  3 37  1  0
  5 38  1  0
  6 39  1  0
  7 40  1  0
 10 41  1  0
 12 42  1  0
 13 43  1  0
 17 44  1  0
 19 45  1  0
 20 46  1  0
 21 47  1  0
 22 48  1  0
 23 49  1  0
 25 50  1  0
 26 51  1  0
 28 52  1  0
 29 53  1  0
 30 54  1  0
 36 55  1  0
M  END
>  <meeko>  (9) 
{"is_sidechain": [false], "free_energy": -8.039, "intermolecular_energy": -10.469, "internal_energy": -1.081}

$$$$
