
     RDKit          3D

 53 54  0  0  0  0  0  0  0  0999 V2000
   -0.4627   -3.3850   -0.7063 C   0  0  0  0  0  0  0  0  0  0  0  0
   -1.2702   -2.1759   -1.1507 C   0  0  0  0  0  0  0  0  0  0  0  0
   -1.6695   -1.2296    0.0087 N   0  0  0  0  0  0  0  0  0  0  0  0
   -2.5166   -1.9381    1.0826 C   0  0  0  0  0  0  0  0  0  0  0  0
   -3.7620   -2.6306    0.5520 C   0  0  0  0  0  0  0  0  0  0  0  0
   -0.3842   -0.6787    0.7444 C   0  0  0  0  0  0  0  0  0  0  0  0
    0.7094   -0.0344   -0.1248 C   0  0  0  0  0  0  0  0  0  0  0  0
    0.4540    0.4011   -1.2428 O   0  0  0  0  0  0  0  0  0  0  0  0
    1.9598   -0.0616    0.4709 N   0  0  0  0  0  0  0  0  0  0  0  0
    3.1591    0.5050   -0.0366 C   0  0  0  0  0  0  0  0  0  0  0  0
    3.2207    1.7282   -0.7388 C   0  0  0  0  0  0  0  0  0  0  0  0
    2.0637    2.6697   -0.9356 C   0  0  0  0  0  0  0  0  0  0  0  0
    4.4583    2.1618   -1.2538 C   0  0  0  0  0  0  0  0  0  0  0  0
    5.6270    1.4462   -1.0247 C   0  0  0  0  0  0  0  0  0  0  0  0
    5.5819    0.2829   -0.2694 C   0  0  0  0  0  0  0  0  0  0  0  0
    4.3620   -0.1993    0.2332 C   0  0  0  0  0  0  0  0  0  0  0  0
    4.3953   -1.4860    1.0185 C   0  0  0  0  0  0  0  0  0  0  0  0
   -2.4544   -0.0408   -0.6473 C   0  0  0  0  0  0  0  0  0  0  0  0
   -2.8168    1.1264    0.2393 C   0  0  0  0  0  0  0  0  0  0  0  0
   -2.0046    2.2724    0.2655 C   0  0  0  0  0  0  0  0  0  0  0  0
   -2.3190    3.3531    1.0906 C   0  0  0  0  0  0  0  0  0  0  0  0
   -3.4571    3.3107    1.8904 C   0  0  0  0  0  0  0  0  0  0  0  0
   -4.2888    2.1947    1.8556 C   0  0  0  0  0  0  0  0  0  0  0  0
   -3.9757    1.1122    1.0307 C   0  0  0  0  0  0  0  0  0  0  0  0
   -0.2364   -4.0089   -1.5778 H   0  0  0  0  0  0  0  0  0  0  0  0
    0.4940   -3.1013   -0.2599 H   0  0  0  0  0  0  0  0  0  0  0  0
   -1.0087   -4.0122    0.0029 H   0  0  0  0  0  0  0  0  0  0  0  0
   -2.1950   -2.4940   -1.6434 H   0  0  0  0  0  0  0  0  0  0  0  0
   -0.7012   -1.5989   -1.8845 H   0  0  0  0  0  0  0  0  0  0  0  0
   -2.7782   -1.1955    1.8421 H   0  0  0  0  0  0  0  0  0  0  0  0
   -1.8718   -2.6757    1.5728 H   0  0  0  0  0  0  0  0  0  0  0  0
   -3.5174   -3.4523   -0.1265 H   0  0  0  0  0  0  0  0  0  0  0  0
   -4.4423   -1.9476    0.0393 H   0  0  0  0  0  0  0  0  0  0  0  0
   -4.3164   -3.0667    1.3902 H   0  0  0  0  0  0  0  0  0  0  0  0
    0.0450   -1.5317    1.2819 H   0  0  0  0  0  0  0  0  0  0  0  0
   -0.7185    0.0435    1.4956 H   0  0  0  0  0  0  0  0  0  0  0  0
    2.0920   -0.6882    1.2548 H   0  0  0  0  0  0  0  0  0  0  0  0
    2.4095    3.7104   -0.9356 H   0  0  0  0  0  0  0  0  0  0  0  0
    1.5711    2.4830   -1.8936 H   0  0  0  0  0  0  0  0  0  0  0  0
    1.3455    2.6007   -0.1141 H   0  0  0  0  0  0  0  0  0  0  0  0
    4.5208    3.0907   -1.8196 H   0  0  0  0  0  0  0  0  0  0  0  0
    6.5741    1.8070   -1.4190 H   0  0  0  0  0  0  0  0  0  0  0  0
    6.5106   -0.2544   -0.0847 H   0  0  0  0  0  0  0  0  0  0  0  0
    5.4001   -1.9216    1.0433 H   0  0  0  0  0  0  0  0  0  0  0  0
    3.7323   -2.2287    0.5626 H   0  0  0  0  0  0  0  0  0  0  0  0
    4.0903   -1.3048    2.0541 H   0  0  0  0  0  0  0  0  0  0  0  0
   -3.3641   -0.4651   -1.0872 H   0  0  0  0  0  0  0  0  0  0  0  0
   -1.8679    0.3124   -1.5014 H   0  0  0  0  0  0  0  0  0  0  0  0
   -1.1270    2.3505   -0.3745 H   0  0  0  0  0  0  0  0  0  0  0  0
   -1.6854    4.2380    1.0984 H   0  0  0  0  0  0  0  0  0  0  0  0
   -3.7080    4.1578    2.5256 H   0  0  0  0  0  0  0  0  0  0  0  0
   -5.1918    2.1776    2.4630 H   0  0  0  0  0  0  0  0  0  0  0  0
   -4.6649    0.2715    1.0075 H   0  0  0  0  0  0  0  0  0  0  0  0
  1  2  1  0
  2  3  1  0
  3  4  1  0
  4  5  1  0
  3  6  1  0
  6  7  1  0
  7  8  2  0
  7  9  1  0
  9 10  1  0
 10 11  2  0
 11 12  1  0
 11 13  1  0
 13 14  2  0
 14 15  1  0
 15 16  2  0
 16 17  1  0
  3 18  1  0
 18 19  1  0
 19 20  2  0
 20 21  1  0
 21 22  2  0
 22 23  1  0
 23 24  2  0
 16 10  1  0
 24 19  1  0
  1 25  1  0
  1 26  1  0
  1 27  1  0
  2 28  1  0
  2 29  1  0
  4 30  1  0
  4 31  1  0
  5 32  1  0
  5 33  1  0
  5 34  1  0
  6 35  1  0
  6 36  1  0
  9 37  1  0
 12 38  1  0
 12 39  1  0
 12 40  1  0
 13 41  1  0
 14 42  1  0
 15 43  1  0
 17 44  1  0
 17 45  1  0
 17 46  1  0
 18 47  1  0
 18 48  1  0
 20 49  1  0
 21 50  1  0
 22 51  1  0
 23 52  1  0
 24 53  1  0
M  CHG  1   3   1
M  END
$$$$
