
     RDKit          3D

 68 73  0  0  0  0  0  0  0  0999 V2000
   -9.5154   -1.9299   -0.7530 C   0  0  0  0  0  0  0  0  0  0  0  0
   -8.9983   -1.1850    0.4378 N   0  0  0  0  0  0  0  0  0  0  0  0
   -7.8231   -1.9231    1.0991 C   0  0  0  0  0  0  0  0  0  0  0  0
   -7.3168   -1.1335    2.3257 C   0  0  0  0  0  0  0  0  0  0  0  0
   -7.0244    0.2672    1.9838 N   0  0  0  0  0  0  0  0  0  0  0  0
   -5.7580    0.5002    1.4501 C   0  0  0  0  0  0  0  0  0  0  0  0
   -5.1588    1.7492    1.5786 C   0  0  0  0  0  0  0  0  0  0  0  0
   -3.8911    1.9705    1.0342 C   0  0  0  0  0  0  0  0  0  0  0  0
   -3.2291    0.9416    0.3649 C   0  0  0  0  0  0  0  0  0  0  0  0
   -1.9104    1.1506   -0.2114 C   0  0  0  0  0  0  0  0  0  0  0  0
   -1.2912    2.3437   -0.6346 C   0  0  0  0  0  0  0  0  0  0  0  0
   -0.0605    2.1646   -1.1042 N   0  0  0  0  0  0  0  0  0  0  0  0
    0.1744    0.8307   -0.9683 N   0  0  0  0  0  0  0  0  0  0  0  0
    1.3472    0.1126   -1.2782 C   0  0  0  0  0  0  0  0  0  0  0  0
    2.5549    0.7666   -1.8286 C   0  0  0  0  0  0  0  0  0  0  0  0
    2.4742    1.5856   -2.9612 C   0  0  0  0  0  0  0  0  0  0  0  0
    3.6186    2.1938   -3.4763 C   0  0  0  0  0  0  0  0  0  0  0  0
    4.8570    1.9836   -2.8682 C   0  0  0  0  0  0  0  0  0  0  0  0
    4.9650    1.1639   -1.7399 C   0  0  0  0  0  0  0  0  0  0  0  0
    6.2505    0.9956   -1.1820 N   0  0  0  0  0  0  0  0  0  0  0  0
    6.6081    0.1468   -0.1496 C   0  0  0  0  0  0  0  0  0  0  0  0
    5.8931   -0.6865    0.3947 O   0  0  0  0  0  0  0  0  0  0  0  0
    8.0309    0.2453    0.2844 C   0  0  0  0  0  0  0  0  0  0  0  0
    8.7121    1.4684    0.3076 C   0  0  0  0  0  0  0  0  0  0  0  0
   10.0441    1.5161    0.7220 C   0  0  0  0  0  0  0  0  0  0  0  0
   10.6958    0.3486    1.1246 C   0  0  0  0  0  0  0  0  0  0  0  0
   10.0196   -0.8810    1.1341 C   0  0  0  0  0  0  0  0  0  0  0  0
   10.7212   -2.1481    1.5599 C   0  0  0  0  0  0  0  0  0  0  0  0
   11.7944   -1.9223    2.3673 F   0  0  0  0  0  0  0  0  0  0  0  0
   11.1936   -2.8545    0.4967 F   0  0  0  0  0  0  0  0  0  0  0  0
    9.9107   -2.9994    2.2468 F   0  0  0  0  0  0  0  0  0  0  0  0
    8.6820   -0.9216    0.7078 C   0  0  0  0  0  0  0  0  0  0  0  0
    3.8097    0.5713   -1.2222 C   0  0  0  0  0  0  0  0  0  0  0  0
    1.3685   -1.2181   -1.0725 C   0  0  0  0  0  0  0  0  0  0  0  0
    0.1289   -1.8148   -0.5208 C   0  0  0  0  0  0  0  0  0  0  0  0
   -0.9662   -1.1826   -0.2282 N   0  0  0  0  0  0  0  0  0  0  0  0
   -0.9566    0.1723   -0.4429 C   0  0  0  0  0  0  0  0  0  0  0  0
   -3.9065   -0.2692    0.2802 C   0  0  0  0  0  0  0  0  0  0  0  0
   -5.1470   -0.5040    0.7937 N   0  0  0  0  0  0  0  0  0  0  0  0
   -8.1215    1.0062    1.3491 C   0  0  0  0  0  0  0  0  0  0  0  0
   -8.6131    0.2568    0.0882 C   0  0  0  0  0  0  0  0  0  0  0  0
   -8.7232   -1.9871   -1.5041 H   0  0  0  0  0  0  0  0  0  0  0  0
  -10.3825   -1.3885   -1.1401 H   0  0  0  0  0  0  0  0  0  0  0  0
   -9.8160   -2.9280   -0.4242 H   0  0  0  0  0  0  0  0  0  0  0  0
   -9.7502   -1.1389    1.1359 H   0  0  0  0  0  0  0  0  0  0  0  0
   -8.1998   -2.9040    1.4067 H   0  0  0  0  0  0  0  0  0  0  0  0
   -7.0585   -2.0554    0.3286 H   0  0  0  0  0  0  0  0  0  0  0  0
   -6.4509   -1.6330    2.7779 H   0  0  0  0  0  0  0  0  0  0  0  0
   -8.1026   -1.1368    3.0919 H   0  0  0  0  0  0  0  0  0  0  0  0
   -5.6509    2.5443    2.1301 H   0  0  0  0  0  0  0  0  0  0  0  0
   -3.4279    2.9449    1.1687 H   0  0  0  0  0  0  0  0  0  0  0  0
   -1.6917    3.3496   -0.6276 H   0  0  0  0  0  0  0  0  0  0  0  0
    1.5182    1.7656   -3.4488 H   0  0  0  0  0  0  0  0  0  0  0  0
    3.5439    2.8338   -4.3521 H   0  0  0  0  0  0  0  0  0  0  0  0
    5.7323    2.4674   -3.2937 H   0  0  0  0  0  0  0  0  0  0  0  0
    6.9935    1.5175   -1.6287 H   0  0  0  0  0  0  0  0  0  0  0  0
    8.2145    2.3958    0.0361 H   0  0  0  0  0  0  0  0  0  0  0  0
   10.5746    2.4661    0.7424 H   0  0  0  0  0  0  0  0  0  0  0  0
   11.7363    0.4034    1.4452 H   0  0  0  0  0  0  0  0  0  0  0  0
    8.1424   -1.8694    0.7059 H   0  0  0  0  0  0  0  0  0  0  0  0
    3.8626   -0.0393   -0.3259 H   0  0  0  0  0  0  0  0  0  0  0  0
    2.2095   -1.8669   -1.2795 H   0  0  0  0  0  0  0  0  0  0  0  0
    0.1700   -2.9051   -0.3578 H   0  0  0  0  0  0  0  0  0  0  0  0
   -3.4731   -1.1263   -0.2289 H   0  0  0  0  0  0  0  0  0  0  0  0
   -7.8412    2.0335    1.0893 H   0  0  0  0  0  0  0  0  0  0  0  0
   -8.9494    1.0814    2.0651 H   0  0  0  0  0  0  0  0  0  0  0  0
   -9.5089    0.7369   -0.3184 H   0  0  0  0  0  0  0  0  0  0  0  0
   -7.8368    0.2047   -0.6830 H   0  0  0  0  0  0  0  0  0  0  0  0
  1  2  1  0
  2  3  1  0
  3  4  1  0
  4  5  1  0
  5  6  1  0
  6  7  2  0
  7  8  1  0
  8  9  2  0
  9 10  1  0
 10 11  1  0
 11 12  2  0
 12 13  1  0
 13 14  1  0
 14 15  1  0
 15 16  2  0
 16 17  1  0
 17 18  2  0
 18 19  1  0
 19 20  1  0
 20 21  1  0
 21 22  2  0
 21 23  1  0
 23 24  2  0
 24 25  1  0
 25 26  2  0
 26 27  1  0
 27 28  1  0
 28 29  1  0
 28 30  1  0
 28 31  1  0
 27 32  2  0
 19 33  2  0
 14 34  2  0
 34 35  1  0
 35 36  2  0
 36 37  1  0
  9 38  1  0
 38 39  2  0
  5 40  1  0
 40 41  1  0
 41  2  1  0
 39  6  1  0
 37 10  2  0
 37 13  1  0
 33 15  1  0
 32 23  1  0
  1 42  1  0
  1 43  1  0
  1 44  1  0
  2 45  1  0
  3 46  1  0
  3 47  1  0
  4 48  1  0
  4 49  1  0
  7 50  1  0
  8 51  1  0
 11 52  1  0
 16 53  1  0
 17 54  1  0
 18 55  1  0
 20 56  1  0
 24 57  1  0
 25 58  1  0
 26 59  1  0
 32 60  1  0
 33 61  1  0
 34 62  1  0
 35 63  1  0
 38 64  1  0
 40 65  1  0
 40 66  1  0
 41 67  1  0
 41 68  1  0
M  CHG  1   2   1
M  END
$$$$
