LIB_DNDVGFIEWOHGAH__W_7USX_LOCAL_COMPLETE__e8__s20260927
     RDKit          3D

 68 73  0  0  0  0  0  0  0  0999 V2000
  119.8050  184.7350  167.0310 C   0  0  0  0  0  0  0  0  0  0  0  0
  119.9470  185.9420  166.1570 N   0  0  0  0  0  0  0  0  0  0  0  0
  120.8310  187.0130  166.8150 C   0  0  0  0  0  0  0  0  0  0  0  0
  120.9540  188.2460  165.8930 C   0  0  0  0  0  0  0  0  0  0  0  0
  121.3850  187.8680  164.5390 N   0  0  0  0  0  0  0  0  0  0  0  0
  122.7610  187.7380  164.3630 C   0  0  0  0  0  0  0  0  0  0  0  0
  123.2690  186.9280  163.3520 C   0  0  0  0  0  0  0  0  0  0  0  0
  124.6520  186.8030  163.1910 C   0  0  0  0  0  0  0  0  0  0  0  0
  125.5190  187.4890  164.0410 C   0  0  0  0  0  0  0  0  0  0  0  0
  126.9610  187.3720  163.8920 C   0  0  0  0  0  0  0  0  0  0  0  0
  127.9380  187.0120  164.8420 C   0  0  0  0  0  0  0  0  0  0  0  0
  129.1720  186.9940  164.3510 N   0  0  0  0  0  0  0  0  0  0  0  0
  129.0300  187.3160  163.0360 N   0  0  0  0  0  0  0  0  0  0  0  0
  130.0270  187.4010  162.0430 C   0  0  0  0  0  0  0  0  0  0  0  0
  131.4540  187.1300  162.3270 C   0  0  0  0  0  0  0  0  0  0  0  0
  132.4310  188.1020  162.0820 C   0  0  0  0  0  0  0  0  0  0  0  0
  133.7750  187.8360  162.3480 C   0  0  0  0  0  0  0  0  0  0  0  0
  134.1550  186.5930  162.8560 C   0  0  0  0  0  0  0  0  0  0  0  0
  133.1980  185.6030  163.1030 C   0  0  0  0  0  0  0  0  0  0  0  0
  133.6590  184.3700  163.6140 N   0  0  0  0  0  0  0  0  0  0  0  0
  133.1690  183.1100  163.3200 C   0  0  0  0  0  0  0  0  0  0  0  0
  132.3160  182.8320  162.4850 O   0  0  0  0  0  0  0  0  0  0  0  0
  133.8030  181.9940  164.0780 C   0  0  0  0  0  0  0  0  0  0  0  0
  135.0510  182.1390  164.6970 C   0  0  0  0  0  0  0  0  0  0  0  0
  135.6090  181.0690  165.3970 C   0  0  0  0  0  0  0  0  0  0  0  0
  134.9210  179.8580  165.4940 C   0  0  0  0  0  0  0  0  0  0  0  0
  133.6570  179.7040  164.9030 C   0  0  0  0  0  0  0  0  0  0  0  0
  132.9110  178.3960  164.9960 C   0  0  0  0  0  0  0  0  0  0  0  0
  131.6410  178.5340  165.4680 F   0  0  0  0  0  0  0  0  0  0  0  0
  133.5260  177.5130  165.8310 F   0  0  0  0  0  0  0  0  0  0  0  0
  132.7960  177.7620  163.7970 F   0  0  0  0  0  0  0  0  0  0  0  0
  133.1060  180.7840  164.1930 C   0  0  0  0  0  0  0  0  0  0  0  0
  131.8530  185.8840  162.8480 C   0  0  0  0  0  0  0  0  0  0  0  0
  129.6710  187.7480  160.7920 C   0  0  0  0  0  0  0  0  0  0  0  0
  128.2290  188.0080  160.5700 C   0  0  0  0  0  0  0  0  0  0  0  0
  127.2880  187.9410  161.4610 N   0  0  0  0  0  0  0  0  0  0  0  0
  127.6800  187.5800  162.7260 C   0  0  0  0  0  0  0  0  0  0  0  0
  124.9220  188.2690  165.0250 C   0  0  0  0  0  0  0  0  0  0  0  0
  123.5770  188.3970  165.2070 N   0  0  0  0  0  0  0  0  0  0  0  0
  120.5660  186.8450  163.8770 C   0  0  0  0  0  0  0  0  0  0  0  0
  120.4700  185.5800  164.7620 C   0  0  0  0  0  0  0  0  0  0  0  0
  119.8410  185.0407  168.0871 H   0  0  0  0  0  0  0  0  0  0  0  0
  118.8429  184.2436  166.8241 H   0  0  0  0  0  0  0  0  0  0  0  0
  120.6268  184.0337  166.8241 H   0  0  0  0  0  0  0  0  0  0  0  0
  119.0170  186.3590  166.0360 H   0  0  0  0  0  0  0  0  0  0  0  0
  120.3807  187.3181  167.7711 H   0  0  0  0  0  0  0  0  0  0  0  0
  121.8331  186.5936  166.9877 H   0  0  0  0  0  0  0  0  0  0  0  0
  119.9752  188.7439  165.8302 H   0  0  0  0  0  0  0  0  0  0  0  0
  121.7110  188.9206  166.3195 H   0  0  0  0  0  0  0  0  0  0  0  0
  122.5844  186.3877  162.6816 H   0  0  0  0  0  0  0  0  0  0  0  0
  125.0567  186.1630  162.3931 H   0  0  0  0  0  0  0  0  0  0  0  0
  127.7015  186.7695  165.8885 H   0  0  0  0  0  0  0  0  0  0  0  0
  132.1376  189.0818  161.6772 H   0  0  0  0  0  0  0  0  0  0  0  0
  134.5358  188.6072  162.1570 H   0  0  0  0  0  0  0  0  0  0  0  0
  135.2159  186.3900  163.0639 H   0  0  0  0  0  0  0  0  0  0  0  0
  134.4690  184.4220  164.2170 H   0  0  0  0  0  0  0  0  0  0  0  0
  135.5905  183.0954  164.6313 H   0  0  0  0  0  0  0  0  0  0  0  0
  136.5940  181.1798  165.8740 H   0  0  0  0  0  0  0  0  0  0  0  0
  135.3738  179.0164  166.0388 H   0  0  0  0  0  0  0  0  0  0  0  0
  132.1173  180.6785  163.7226 H   0  0  0  0  0  0  0  0  0  0  0  0
  131.0921  185.1179  163.0581 H   0  0  0  0  0  0  0  0  0  0  0  0
  130.4087  187.8337  159.9805 H   0  0  0  0  0  0  0  0  0  0  0  0
  127.9266  188.2851  159.5493 H   0  0  0  0  0  0  0  0  0  0  0  0
  125.5835  188.8236  165.7068 H   0  0  0  0  0  0  0  0  0  0  0  0
  119.5558  187.2446  163.7041 H   0  0  0  0  0  0  0  0  0  0  0  0
  121.0339  186.5768  162.9183 H   0  0  0  0  0  0  0  0  0  0  0  0
  119.7828  184.8607  164.2927 H   0  0  0  0  0  0  0  0  0  0  0  0
  121.4719  185.1366  164.8605 H   0  0  0  0  0  0  0  0  0  0  0  0
  1  2  1  0
  2  3  1  0
  3  4  1  0
  4  5  1  0
  5  6  1  0
  6  7  2  0
  7  8  1  0
  8  9  2  0
  9 10  1  0
 10 11  1  0
 11 12  2  0
 12 13  1  0
 13 14  1  0
 14 15  1  0
 15 16  2  0
 16 17  1  0
 17 18  2  0
 18 19  1  0
 19 20  1  0
 20 21  1  0
 21 22  2  0
 21 23  1  0
 23 24  2  0
 24 25  1  0
 25 26  2  0
 26 27  1  0
 27 28  1  0
 28 29  1  0
 28 30  1  0
 28 31  1  0
 27 32  2  0
 19 33  2  0
 14 34  2  0
 34 35  1  0
 35 36  2  0
 36 37  1  0
  9 38  1  0
 38 39  2  0
  5 40  1  0
 40 41  1  0
 41  2  1  0
 39  6  1  0
 37 10  2  0
 37 13  1  0
 33 15  1  0
 32 23  1  0
  1 42  1  0
  1 43  1  0
  1 44  1  0
  2 45  1  0
  3 46  1  0
  3 47  1  0
  4 48  1  0
  4 49  1  0
  7 50  1  0
  8 51  1  0
 11 52  1  0
 16 53  1  0
 17 54  1  0
 18 55  1  0
 20 56  1  0
 24 57  1  0
 25 58  1  0
 26 59  1  0
 32 60  1  0
 33 61  1  0
 34 62  1  0
 35 63  1  0
 38 64  1  0
 40 65  1  0
 40 66  1  0
 41 67  1  0
 41 68  1  0
M  CHG  1   2   1
M  END
>  <meeko>  (1) 
{"is_sidechain": [false], "free_energy": -9.323, "intermolecular_energy": -12.593, "internal_energy": -0.722}

$$$$
LIB_DNDVGFIEWOHGAH__W_7USX_LOCAL_COMPLETE__e8__s20260927
     RDKit          3D

 68 73  0  0  0  0  0  0  0  0999 V2000
  129.3710  163.1440  176.7760 C   0  0  0  0  0  0  0  0  0  0  0  0
  128.1410  163.7870  177.3370 N   0  0  0  0  0  0  0  0  0  0  0  0
  128.1160  165.2980  177.0580 C   0  0  0  0  0  0  0  0  0  0  0  0
  126.8390  165.9310  177.6530 C   0  0  0  0  0  0  0  0  0  0  0  0
  125.6280  165.2240  177.2100 N   0  0  0  0  0  0  0  0  0  0  0  0
  125.1190  165.6240  175.9770 C   0  0  0  0  0  0  0  0  0  0  0  0
  125.6300  166.7480  175.3360 C   0  0  0  0  0  0  0  0  0  0  0  0
  125.1060  167.1430  174.1010 C   0  0  0  0  0  0  0  0  0  0  0  0
  124.0760  166.4090  173.5140 C   0  0  0  0  0  0  0  0  0  0  0  0
  123.5150  166.8010  172.2310 C   0  0  0  0  0  0  0  0  0  0  0  0
  123.4850  166.1010  171.0080 C   0  0  0  0  0  0  0  0  0  0  0  0
  122.8720  166.7620  170.0330 N   0  0  0  0  0  0  0  0  0  0  0  0
  122.4490  167.9210  170.6090 N   0  0  0  0  0  0  0  0  0  0  0  0
  121.7070  168.9680  170.0260 C   0  0  0  0  0  0  0  0  0  0  0  0
  121.2650  168.9360  168.6140 C   0  0  0  0  0  0  0  0  0  0  0  0
  120.5240  169.9920  168.0700 C   0  0  0  0  0  0  0  0  0  0  0  0
  120.1070  169.9500  166.7400 C   0  0  0  0  0  0  0  0  0  0  0  0
  120.4210  168.8500  165.9420 C   0  0  0  0  0  0  0  0  0  0  0  0
  121.1540  167.7790  166.4640 C   0  0  0  0  0  0  0  0  0  0  0  0
  121.4300  166.6990  165.5970 N   0  0  0  0  0  0  0  0  0  0  0  0
  122.6710  166.2880  165.1470 C   0  0  0  0  0  0  0  0  0  0  0  0
  123.7610  166.7230  165.5000 O   0  0  0  0  0  0  0  0  0  0  0  0
  122.6460  165.1620  164.1700 C   0  0  0  0  0  0  0  0  0  0  0  0
  122.2860  163.8630  164.5500 C   0  0  0  0  0  0  0  0  0  0  0  0
  122.2750  162.8380  163.6030 C   0  0  0  0  0  0  0  0  0  0  0  0
  122.6100  163.1060  162.2740 C   0  0  0  0  0  0  0  0  0  0  0  0
  122.9470  164.4070  161.8700 C   0  0  0  0  0  0  0  0  0  0  0  0
  123.3190  164.7020  160.4380 C   0  0  0  0  0  0  0  0  0  0  0  0
  122.4780  165.5890  159.8370 F   0  0  0  0  0  0  0  0  0  0  0  0
  123.3000  163.5830  159.6620 F   0  0  0  0  0  0  0  0  0  0  0  0
  124.5680  165.2270  160.3100 F   0  0  0  0  0  0  0  0  0  0  0  0
  122.9630  165.4320  162.8310 C   0  0  0  0  0  0  0  0  0  0  0  0
  121.5810  167.8360  167.7940 C   0  0  0  0  0  0  0  0  0  0  0  0
  121.3960  170.0420  170.7780 C   0  0  0  0  0  0  0  0  0  0  0  0
  121.8680  170.0160  172.1820 C   0  0  0  0  0  0  0  0  0  0  0  0
  122.5530  169.0700  172.7470 N   0  0  0  0  0  0  0  0  0  0  0  0
  122.8520  167.9880  171.9590 C   0  0  0  0  0  0  0  0  0  0  0  0
  123.6250  165.3050  174.2290 C   0  0  0  0  0  0  0  0  0  0  0  0
  124.1130  164.9100  175.4380 N   0  0  0  0  0  0  0  0  0  0  0  0
  125.6150  163.7770  177.4580 C   0  0  0  0  0  0  0  0  0  0  0  0
  126.8610  163.1130  176.8280 C   0  0  0  0  0  0  0  0  0  0  0  0
  130.0167  162.8065  177.6001 H   0  0  0  0  0  0  0  0  0  0  0  0
  129.0840  162.2806  176.1578 H   0  0  0  0  0  0  0  0  0  0  0  0
  129.9162  163.8725  176.1578 H   0  0  0  0  0  0  0  0  0  0  0  0
  128.1600  163.6740  178.3580 H   0  0  0  0  0  0  0  0  0  0  0  0
  129.0002  165.7663  177.5151 H   0  0  0  0  0  0  0  0  0  0  0  0
  128.1235  165.4616  175.9703 H   0  0  0  0  0  0  0  0  0  0  0  0
  126.8968  165.8870  178.7506 H   0  0  0  0  0  0  0  0  0  0  0  0
  126.7765  166.9725  177.3046 H   0  0  0  0  0  0  0  0  0  0  0  0
  126.4441  167.3246  175.7994 H   0  0  0  0  0  0  0  0  0  0  0  0
  125.5064  168.0326  173.5928 H   0  0  0  0  0  0  0  0  0  0  0  0
  123.9271  165.1027  170.8740 H   0  0  0  0  0  0  0  0  0  0  0  0
  120.2692  170.8602  168.6956 H   0  0  0  0  0  0  0  0  0  0  0  0
  119.5292  170.7862  166.3193 H   0  0  0  0  0  0  0  0  0  0  0  0
  120.0895  168.8245  164.8935 H   0  0  0  0  0  0  0  0  0  0  0  0
  120.6310  166.1400  165.3270 H   0  0  0  0  0  0  0  0  0  0  0  0
  122.0122  163.6508  165.5940 H   0  0  0  0  0  0  0  0  0  0  0  0
  122.0017  161.8160  163.9042 H   0  0  0  0  0  0  0  0  0  0  0  0
  122.6097  162.2895  161.5368 H   0  0  0  0  0  0  0  0  0  0  0  0
  123.2268  166.4566  162.5299 H   0  0  0  0  0  0  0  0  0  0  0  0
  122.1743  167.0069  168.2071 H   0  0  0  0  0  0  0  0  0  0  0  0
  120.8242  170.8897  170.3725 H   0  0  0  0  0  0  0  0  0  0  0  0
  121.6125  170.8843  172.8071 H   0  0  0  0  0  0  0  0  0  0  0  0
  122.8150  164.7069  173.7861 H   0  0  0  0  0  0  0  0  0  0  0  0
  125.6162  163.5948  178.5428 H   0  0  0  0  0  0  0  0  0  0  0  0
  124.7112  163.3444  177.0040 H   0  0  0  0  0  0  0  0  0  0  0  0
  126.8800  162.0472  177.0995 H   0  0  0  0  0  0  0  0  0  0  0  0
  126.8100  163.2238  175.7348 H   0  0  0  0  0  0  0  0  0  0  0  0
  1  2  1  0
  2  3  1  0
  3  4  1  0
  4  5  1  0
  5  6  1  0
  6  7  2  0
  7  8  1  0
  8  9  2  0
  9 10  1  0
 10 11  1  0
 11 12  2  0
 12 13  1  0
 13 14  1  0
 14 15  1  0
 15 16  2  0
 16 17  1  0
 17 18  2  0
 18 19  1  0
 19 20  1  0
 20 21  1  0
 21 22  2  0
 21 23  1  0
 23 24  2  0
 24 25  1  0
 25 26  2  0
 26 27  1  0
 27 28  1  0
 28 29  1  0
 28 30  1  0
 28 31  1  0
 27 32  2  0
 19 33  2  0
 14 34  2  0
 34 35  1  0
 35 36  2  0
 36 37  1  0
  9 38  1  0
 38 39  2  0
  5 40  1  0
 40 41  1  0
 41  2  1  0
 39  6  1  0
 37 10  2  0
 37 13  1  0
 33 15  1  0
 32 23  1  0
  1 42  1  0
  1 43  1  0
  1 44  1  0
  2 45  1  0
  3 46  1  0
  3 47  1  0
  4 48  1  0
  4 49  1  0
  7 50  1  0
  8 51  1  0
 11 52  1  0
 16 53  1  0
 17 54  1  0
 18 55  1  0
 20 56  1  0
 24 57  1  0
 25 58  1  0
 26 59  1  0
 32 60  1  0
 33 61  1  0
 34 62  1  0
 35 63  1  0
 38 64  1  0
 40 65  1  0
 40 66  1  0
 41 67  1  0
 41 68  1  0
M  CHG  1   2   1
M  END
>  <meeko>  (2) 
{"is_sidechain": [false], "free_energy": -9.0, "intermolecular_energy": -12.452, "internal_energy": -0.426}

$$$$
LIB_DNDVGFIEWOHGAH__W_7USX_LOCAL_COMPLETE__e8__s20260927
     RDKit          3D

 68 73  0  0  0  0  0  0  0  0999 V2000
  119.9300  164.2720  162.4680 C   0  0  0  0  0  0  0  0  0  0  0  0
  121.0080  165.2850  162.6980 N   0  0  0  0  0  0  0  0  0  0  0  0
  120.4980  166.4750  163.5270 C   0  0  0  0  0  0  0  0  0  0  0  0
  121.6300  167.5030  163.7400 C   0  0  0  0  0  0  0  0  0  0  0  0
  122.8380  166.8700  164.2890 N   0  0  0  0  0  0  0  0  0  0  0  0
  122.8600  166.7230  165.6750 C   0  0  0  0  0  0  0  0  0  0  0  0
  121.7920  167.1680  166.4460 C   0  0  0  0  0  0  0  0  0  0  0  0
  121.8280  167.0190  167.8360 C   0  0  0  0  0  0  0  0  0  0  0  0
  122.9330  166.4240  168.4450 C   0  0  0  0  0  0  0  0  0  0  0  0
  122.9930  166.2610  169.8890 C   0  0  0  0  0  0  0  0  0  0  0  0
  123.2540  167.2140  170.8930 C   0  0  0  0  0  0  0  0  0  0  0  0
  123.2170  166.7130  172.1230 N   0  0  0  0  0  0  0  0  0  0  0  0
  122.8930  165.4010  171.9550 N   0  0  0  0  0  0  0  0  0  0  0  0
  122.6850  164.4180  172.9440 C   0  0  0  0  0  0  0  0  0  0  0  0
  122.8000  164.7100  174.3900 C   0  0  0  0  0  0  0  0  0  0  0  0
  121.6760  165.0750  175.1400 C   0  0  0  0  0  0  0  0  0  0  0  0
  121.7950  165.3540  176.5010 C   0  0  0  0  0  0  0  0  0  0  0  0
  123.0410  165.2760  177.1250 C   0  0  0  0  0  0  0  0  0  0  0  0
  124.1800  164.9210  176.3960 C   0  0  0  0  0  0  0  0  0  0  0  0
  125.4060  164.8670  177.0950 N   0  0  0  0  0  0  0  0  0  0  0  0
  126.2030  165.9350  177.4640 C   0  0  0  0  0  0  0  0  0  0  0  0
  125.9370  167.1250  177.3410 O   0  0  0  0  0  0  0  0  0  0  0  0
  127.4880  165.5650  178.1240 C   0  0  0  0  0  0  0  0  0  0  0  0
  127.5300  164.6960  179.2210 C   0  0  0  0  0  0  0  0  0  0  0  0
  128.7540  164.3750  179.8090 C   0  0  0  0  0  0  0  0  0  0  0  0
  129.9390  164.9080  179.2980 C   0  0  0  0  0  0  0  0  0  0  0  0
  129.9180  165.7580  178.1810 C   0  0  0  0  0  0  0  0  0  0  0  0
  131.1940  166.3440  177.6290 C   0  0  0  0  0  0  0  0  0  0  0  0
  131.7600  165.5770  176.6560 F   0  0  0  0  0  0  0  0  0  0  0  0
  132.1480  166.4940  178.5890 F   0  0  0  0  0  0  0  0  0  0  0  0
  131.0190  167.5760  177.0770 F   0  0  0  0  0  0  0  0  0  0  0  0
  128.6810  166.0820  177.6000 C   0  0  0  0  0  0  0  0  0  0  0  0
  124.0480  164.6280  175.0350 C   0  0  0  0  0  0  0  0  0  0  0  0
  122.3770  163.1640  172.5590 C   0  0  0  0  0  0  0  0  0  0  0  0
  122.2770  162.9330  171.0990 C   0  0  0  0  0  0  0  0  0  0  0  0
  122.4650  163.8150  170.1650 N   0  0  0  0  0  0  0  0  0  0  0  0
  122.7730  165.0840  170.5860 C   0  0  0  0  0  0  0  0  0  0  0  0
  123.9550  166.0160  167.5950 C   0  0  0  0  0  0  0  0  0  0  0  0
  123.9450  166.1610  166.2400 N   0  0  0  0  0  0  0  0  0  0  0  0
  123.3560  165.7280  163.5260 C   0  0  0  0  0  0  0  0  0  0  0  0
  122.2520  164.6620  163.3410 C   0  0  0  0  0  0  0  0  0  0  0  0
  119.5499  163.9148  163.4365 H   0  0  0  0  0  0  0  0  0  0  0  0
  119.1090  164.7330  161.8993 H   0  0  0  0  0  0  0  0  0  0  0  0
  120.3391  163.4239  161.8993 H   0  0  0  0  0  0  0  0  0  0  0  0
  121.2920  165.6600  161.7850 H   0  0  0  0  0  0  0  0  0  0  0  0
  119.6648  166.9575  162.9950 H   0  0  0  0  0  0  0  0  0  0  0  0
  120.1575  166.1091  164.5069 H   0  0  0  0  0  0  0  0  0  0  0  0
  121.8775  167.9671  162.7739 H   0  0  0  0  0  0  0  0  0  0  0  0
  121.2792  168.2577  164.4593 H   0  0  0  0  0  0  0  0  0  0  0  0
  120.9211  167.6360  165.9639 H   0  0  0  0  0  0  0  0  0  0  0  0
  120.9852  167.3709  168.4490 H   0  0  0  0  0  0  0  0  0  0  0  0
  123.4679  168.2716  170.6792 H   0  0  0  0  0  0  0  0  0  0  0  0
  120.6922  165.1422  174.6525 H   0  0  0  0  0  0  0  0  0  0  0  0
  120.9056  165.6360  177.0837 H   0  0  0  0  0  0  0  0  0  0  0  0
  123.1276  165.4957  178.1994 H   0  0  0  0  0  0  0  0  0  0  0  0
  125.6950  163.9470  177.4000 H   0  0  0  0  0  0  0  0  0  0  0  0
  126.5987  164.2666  179.6190 H   0  0  0  0  0  0  0  0  0  0  0  0
  128.7854  163.7004  180.6773 H   0  0  0  0  0  0  0  0  0  0  0  0
  130.8984  164.6595  179.7753 H   0  0  0  0  0  0  0  0  0  0  0  0
  128.6480  166.7480  176.7252 H   0  0  0  0  0  0  0  0  0  0  0  0
  124.9355  164.3281  174.4584 H   0  0  0  0  0  0  0  0  0  0  0  0
  122.2093  162.3572  173.2877 H   0  0  0  0  0  0  0  0  0  0  0  0
  122.0181  161.9143  170.7745 H   0  0  0  0  0  0  0  0  0  0  0  0
  124.8368  165.5411  168.0499 H   0  0  0  0  0  0  0  0  0  0  0  0
  123.6948  166.0748  162.5386 H   0  0  0  0  0  0  0  0  0  0  0  0
  124.1966  165.2810  164.0769 H   0  0  0  0  0  0  0  0  0  0  0  0
  122.6302  163.8575  162.6931 H   0  0  0  0  0  0  0  0  0  0  0  0
  121.9787  164.2575  164.3267 H   0  0  0  0  0  0  0  0  0  0  0  0
  1  2  1  0
  2  3  1  0
  3  4  1  0
  4  5  1  0
  5  6  1  0
  6  7  2  0
  7  8  1  0
  8  9  2  0
  9 10  1  0
 10 11  1  0
 11 12  2  0
 12 13  1  0
 13 14  1  0
 14 15  1  0
 15 16  2  0
 16 17  1  0
 17 18  2  0
 18 19  1  0
 19 20  1  0
 20 21  1  0
 21 22  2  0
 21 23  1  0
 23 24  2  0
 24 25  1  0
 25 26  2  0
 26 27  1  0
 27 28  1  0
 28 29  1  0
 28 30  1  0
 28 31  1  0
 27 32  2  0
 19 33  2  0
 14 34  2  0
 34 35  1  0
 35 36  2  0
 36 37  1  0
  9 38  1  0
 38 39  2  0
  5 40  1  0
 40 41  1  0
 41  2  1  0
 39  6  1  0
 37 10  2  0
 37 13  1  0
 33 15  1  0
 32 23  1  0
  1 42  1  0
  1 43  1  0
  1 44  1  0
  2 45  1  0
  3 46  1  0
  3 47  1  0
  4 48  1  0
  4 49  1  0
  7 50  1  0
  8 51  1  0
 11 52  1  0
 16 53  1  0
 17 54  1  0
 18 55  1  0
 20 56  1  0
 24 57  1  0
 25 58  1  0
 26 59  1  0
 32 60  1  0
 33 61  1  0
 34 62  1  0
 35 63  1  0
 38 64  1  0
 40 65  1  0
 40 66  1  0
 41 67  1  0
 41 68  1  0
M  CHG  1   2   1
M  END
>  <meeko>  (3) 
{"is_sidechain": [false], "free_energy": -8.689, "intermolecular_energy": -11.338, "internal_energy": -1.121}

$$$$
LIB_DNDVGFIEWOHGAH__W_7USX_LOCAL_COMPLETE__e8__s20260927
     RDKit          3D

 68 73  0  0  0  0  0  0  0  0999 V2000
  129.3060  163.5840  176.3660 C   0  0  0  0  0  0  0  0  0  0  0  0
  127.9890  163.9970  176.9470 N   0  0  0  0  0  0  0  0  0  0  0  0
  127.7900  165.5180  176.8660 C   0  0  0  0  0  0  0  0  0  0  0  0
  126.4270  165.9120  177.4780 C   0  0  0  0  0  0  0  0  0  0  0  0
  125.3260  165.1350  176.8900 N   0  0  0  0  0  0  0  0  0  0  0  0
  124.8100  165.6370  175.6960 C   0  0  0  0  0  0  0  0  0  0  0  0
  123.6520  165.0960  175.1470 C   0  0  0  0  0  0  0  0  0  0  0  0
  123.1490  165.6050  173.9470 C   0  0  0  0  0  0  0  0  0  0  0  0
  123.8060  166.6530  173.3030 C   0  0  0  0  0  0  0  0  0  0  0  0
  123.3010  167.1980  172.0530 C   0  0  0  0  0  0  0  0  0  0  0  0
  123.3560  166.6620  170.7500 C   0  0  0  0  0  0  0  0  0  0  0  0
  122.7740  167.4320  169.8360 N   0  0  0  0  0  0  0  0  0  0  0  0
  122.2870  168.4950  170.5330 N   0  0  0  0  0  0  0  0  0  0  0  0
  121.5460  169.5920  170.0500 C   0  0  0  0  0  0  0  0  0  0  0  0
  121.1780  169.7350  168.6240 C   0  0  0  0  0  0  0  0  0  0  0  0
  120.8850  170.9910  168.0810 C   0  0  0  0  0  0  0  0  0  0  0  0
  120.5350  171.1150  166.7360 C   0  0  0  0  0  0  0  0  0  0  0  0
  120.4680  169.9830  165.9230 C   0  0  0  0  0  0  0  0  0  0  0  0
  120.7490  168.7160  166.4440 C   0  0  0  0  0  0  0  0  0  0  0  0
  120.6570  167.6180  165.5610 N   0  0  0  0  0  0  0  0  0  0  0  0
  121.7030  166.9340  164.9680 C   0  0  0  0  0  0  0  0  0  0  0  0
  122.8990  167.0940  165.1840 O   0  0  0  0  0  0  0  0  0  0  0  0
  121.2960  165.8640  164.0130 C   0  0  0  0  0  0  0  0  0  0  0  0
  120.4470  166.1260  162.9310 C   0  0  0  0  0  0  0  0  0  0  0  0
  120.0920  165.0950  162.0590 C   0  0  0  0  0  0  0  0  0  0  0  0
  120.5910  163.8070  162.2560 C   0  0  0  0  0  0  0  0  0  0  0  0
  121.4660  163.5330  163.3190 C   0  0  0  0  0  0  0  0  0  0  0  0
  122.0030  162.1400  163.5420 C   0  0  0  0  0  0  0  0  0  0  0  0
  123.0360  162.0990  164.4280 F   0  0  0  0  0  0  0  0  0  0  0  0
  122.4730  161.5810  162.3930 F   0  0  0  0  0  0  0  0  0  0  0  0
  121.0650  161.2790  164.0230 F   0  0  0  0  0  0  0  0  0  0  0  0
  121.8120  164.5740  164.1960 C   0  0  0  0  0  0  0  0  0  0  0  0
  121.1140  168.6030  167.7890 C   0  0  0  0  0  0  0  0  0  0  0  0
  121.1640  170.5500  170.9160 C   0  0  0  0  0  0  0  0  0  0  0  0
  121.5620  170.3520  172.3300 C   0  0  0  0  0  0  0  0  0  0  0  0
  122.2460  169.3560  172.8050 N   0  0  0  0  0  0  0  0  0  0  0  0
  122.6170  168.3940  171.9010 C   0  0  0  0  0  0  0  0  0  0  0  0
  124.9580  167.1260  173.9220 C   0  0  0  0  0  0  0  0  0  0  0  0
  125.4720  166.6380  175.0860 N   0  0  0  0  0  0  0  0  0  0  0  0
  125.4800  163.6770  176.9460 C   0  0  0  0  0  0  0  0  0  0  0  0
  126.8180  163.2540  176.2940 C   0  0  0  0  0  0  0  0  0  0  0  0
  130.0124  163.3625  177.1796 H   0  0  0  0  0  0  0  0  0  0  0  0
  129.1678  162.6861  175.7458 H   0  0  0  0  0  0  0  0  0  0  0  0
  129.7052  164.4001  175.7458 H   0  0  0  0  0  0  0  0  0  0  0  0
  127.9900  163.7500  177.9430 H   0  0  0  0  0  0  0  0  0  0  0  0
  128.5961  166.0199  177.4212 H   0  0  0  0  0  0  0  0  0  0  0  0
  127.8118  165.8268  175.8105 H   0  0  0  0  0  0  0  0  0  0  0  0
  126.4554  165.7273  178.5620 H   0  0  0  0  0  0  0  0  0  0  0  0
  126.2490  166.9766  177.2660 H   0  0  0  0  0  0  0  0  0  0  0  0
  123.1339  164.2699  175.6561 H   0  0  0  0  0  0  0  0  0  0  0  0
  122.2340  165.1787  173.5099 H   0  0  0  0  0  0  0  0  0  0  0  0
  123.8341  165.7001  170.5129 H   0  0  0  0  0  0  0  0  0  0  0  0
  120.9309  171.8862  168.7185 H   0  0  0  0  0  0  0  0  0  0  0  0
  120.3115  172.1068  166.3159 H   0  0  0  0  0  0  0  0  0  0  0  0
  120.1918  170.0881  164.8634 H   0  0  0  0  0  0  0  0  0  0  0  0
  119.7220  167.2680  165.3950 H   0  0  0  0  0  0  0  0  0  0  0  0
  120.0602  167.1428  162.7681 H   0  0  0  0  0  0  0  0  0  0  0  0
  119.4172  165.2987  161.2145 H   0  0  0  0  0  0  0  0  0  0  0  0
  120.2958  162.9981  161.5715 H   0  0  0  0  0  0  0  0  0  0  0  0
  122.4949  164.3747  165.0350 H   0  0  0  0  0  0  0  0  0  0  0  0
  121.3554  167.6125  168.2021 H   0  0  0  0  0  0  0  0  0  0  0  0
  120.5889  171.4300  170.5922 H   0  0  0  0  0  0  0  0  0  0  0  0
  121.2470  171.1245  173.0470 H   0  0  0  0  0  0  0  0  0  0  0  0
  125.4937  167.9550  173.4364 H   0  0  0  0  0  0  0  0  0  0  0  0
  125.4689  163.3508  177.9965 H   0  0  0  0  0  0  0  0  0  0  0  0
  124.6500  163.2077  176.3975 H   0  0  0  0  0  0  0  0  0  0  0  0
  126.9582  162.1708  176.4243 H   0  0  0  0  0  0  0  0  0  0  0  0
  126.7884  163.5052  175.2235 H   0  0  0  0  0  0  0  0  0  0  0  0
  1  2  1  0
  2  3  1  0
  3  4  1  0
  4  5  1  0
  5  6  1  0
  6  7  2  0
  7  8  1  0
  8  9  2  0
  9 10  1  0
 10 11  1  0
 11 12  2  0
 12 13  1  0
 13 14  1  0
 14 15  1  0
 15 16  2  0
 16 17  1  0
 17 18  2  0
 18 19  1  0
 19 20  1  0
 20 21  1  0
 21 22  2  0
 21 23  1  0
 23 24  2  0
 24 25  1  0
 25 26  2  0
 26 27  1  0
 27 28  1  0
 28 29  1  0
 28 30  1  0
 28 31  1  0
 27 32  2  0
 19 33  2  0
 14 34  2  0
 34 35  1  0
 35 36  2  0
 36 37  1  0
  9 38  1  0
 38 39  2  0
  5 40  1  0
 40 41  1  0
 41  2  1  0
 39  6  1  0
 37 10  2  0
 37 13  1  0
 33 15  1  0
 32 23  1  0
  1 42  1  0
  1 43  1  0
  1 44  1  0
  2 45  1  0
  3 46  1  0
  3 47  1  0
  4 48  1  0
  4 49  1  0
  7 50  1  0
  8 51  1  0
 11 52  1  0
 16 53  1  0
 17 54  1  0
 18 55  1  0
 20 56  1  0
 24 57  1  0
 25 58  1  0
 26 59  1  0
 32 60  1  0
 33 61  1  0
 34 62  1  0
 35 63  1  0
 38 64  1  0
 40 65  1  0
 40 66  1  0
 41 67  1  0
 41 68  1  0
M  CHG  1   2   1
M  END
>  <meeko>  (4) 
{"is_sidechain": [false], "free_energy": -8.509, "intermolecular_energy": -11.624, "internal_energy": -0.592}

$$$$
LIB_DNDVGFIEWOHGAH__W_7USX_LOCAL_COMPLETE__e8__s20260927
     RDKit          3D

 68 73  0  0  0  0  0  0  0  0999 V2000
  125.5570  167.8350  179.9890 C   0  0  0  0  0  0  0  0  0  0  0  0
  125.7850  166.6200  179.1440 N   0  0  0  0  0  0  0  0  0  0  0  0
  124.4580  165.9970  178.6810 C   0  0  0  0  0  0  0  0  0  0  0  0
  124.7270  164.7450  177.8180 C   0  0  0  0  0  0  0  0  0  0  0  0
  125.6630  165.0360  176.7210 N   0  0  0  0  0  0  0  0  0  0  0  0
  125.0880  165.5700  175.5700 C   0  0  0  0  0  0  0  0  0  0  0  0
  123.9230  165.0200  175.0450 C   0  0  0  0  0  0  0  0  0  0  0  0
  123.3590  165.5630  173.8860 C   0  0  0  0  0  0  0  0  0  0  0  0
  123.9630  166.6540  173.2610 C   0  0  0  0  0  0  0  0  0  0  0  0
  123.3950  167.2330  172.0540 C   0  0  0  0  0  0  0  0  0  0  0  0
  123.4070  166.7500  170.7310 C   0  0  0  0  0  0  0  0  0  0  0  0
  122.7720  167.5400  169.8720 N   0  0  0  0  0  0  0  0  0  0  0  0
  122.2910  168.5640  170.6290 N   0  0  0  0  0  0  0  0  0  0  0  0
  121.5070  169.6610  170.2200 C   0  0  0  0  0  0  0  0  0  0  0  0
  121.0770  169.8500  168.8170 C   0  0  0  0  0  0  0  0  0  0  0  0
  120.6390  171.0990  168.3620 C   0  0  0  0  0  0  0  0  0  0  0  0
  120.2310  171.2660  167.0390 C   0  0  0  0  0  0  0  0  0  0  0  0
  120.2520  170.1840  166.1580 C   0  0  0  0  0  0  0  0  0  0  0  0
  120.6790  168.9240  166.5900 C   0  0  0  0  0  0  0  0  0  0  0  0
  120.6700  167.8770  165.6430 N   0  0  0  0  0  0  0  0  0  0  0  0
  121.4130  167.7980  164.4790 C   0  0  0  0  0  0  0  0  0  0  0  0
  122.2880  168.5740  164.1140 O   0  0  0  0  0  0  0  0  0  0  0  0
  121.1310  166.6050  163.6300 C   0  0  0  0  0  0  0  0  0  0  0  0
  119.8600  166.0200  163.5790 C   0  0  0  0  0  0  0  0  0  0  0  0
  119.6380  164.9040  162.7710 C   0  0  0  0  0  0  0  0  0  0  0  0
  120.6770  164.3780  162.0010 C   0  0  0  0  0  0  0  0  0  0  0  0
  121.9500  164.9690  162.0180 C   0  0  0  0  0  0  0  0  0  0  0  0
  123.0800  164.4000  161.1950 C   0  0  0  0  0  0  0  0  0  0  0  0
  124.3040  164.8620  161.5740 F   0  0  0  0  0  0  0  0  0  0  0  0
  122.9570  164.7050  159.8740 F   0  0  0  0  0  0  0  0  0  0  0  0
  123.1570  163.0430  161.2630 F   0  0  0  0  0  0  0  0  0  0  0  0
  122.1670  166.0870  162.8410 C   0  0  0  0  0  0  0  0  0  0  0  0
  121.1000  168.7700  167.9140 C   0  0  0  0  0  0  0  0  0  0  0  0
  121.1400  170.5770  171.1380 C   0  0  0  0  0  0  0  0  0  0  0  0
  121.6010  170.3340  172.5250 C   0  0  0  0  0  0  0  0  0  0  0  0
  122.3250  169.3370  172.9330 N   0  0  0  0  0  0  0  0  0  0  0  0
  122.6800  168.4180  171.9770 C   0  0  0  0  0  0  0  0  0  0  0  0
  125.1260  167.1320  173.8540 C   0  0  0  0  0  0  0  0  0  0  0  0
  125.6990  166.6120  174.9760 N   0  0  0  0  0  0  0  0  0  0  0  0
  126.9420  165.6330  177.1230 C   0  0  0  0  0  0  0  0  0  0  0  0
  126.6980  166.9180  177.9490 C   0  0  0  0  0  0  0  0  0  0  0  0
  125.6091  167.5573  181.0521 H   0  0  0  0  0  0  0  0  0  0  0  0
  126.3299  168.5858  179.7678 H   0  0  0  0  0  0  0  0  0  0  0  0
  124.5645  168.2545  179.7678 H   0  0  0  0  0  0  0  0  0  0  0  0
  126.2580  165.9150  179.7210 H   0  0  0  0  0  0  0  0  0  0  0  0
  123.8648  165.7102  179.5618 H   0  0  0  0  0  0  0  0  0  0  0  0
  123.9065  166.7347  178.0797 H   0  0  0  0  0  0  0  0  0  0  0  0
  125.1567  163.9577  178.4548 H   0  0  0  0  0  0  0  0  0  0  0  0
  123.7730  164.4173  177.3793 H   0  0  0  0  0  0  0  0  0  0  0  0
  123.4469  164.1607  175.5399 H   0  0  0  0  0  0  0  0  0  0  0  0
  122.4388  165.1296  173.4672 H   0  0  0  0  0  0  0  0  0  0  0  0
  123.8952  165.8091  170.4372 H   0  0  0  0  0  0  0  0  0  0  0  0
  120.6164  171.9548  169.0527 H   0  0  0  0  0  0  0  0  0  0  0  0
  119.8920  172.2523  166.6893 H   0  0  0  0  0  0  0  0  0  0  0  0
  119.9301  170.3231  165.1154 H   0  0  0  0  0  0  0  0  0  0  0  0
  120.0940  167.0800  165.8790 H   0  0  0  0  0  0  0  0  0  0  0  0
  119.0367  166.4399  164.1756 H   0  0  0  0  0  0  0  0  0  0  0  0
  118.6422  164.4378  162.7407 H   0  0  0  0  0  0  0  0  0  0  0  0
  120.4962  163.4918  161.3749 H   0  0  0  0  0  0  0  0  0  0  0  0
  123.1597  166.5603  162.8663 H   0  0  0  0  0  0  0  0  0  0  0  0
  121.4557  167.7871  168.2567 H   0  0  0  0  0  0  0  0  0  0  0  0
  120.5328  171.4550  170.8726 H   0  0  0  0  0  0  0  0  0  0  0  0
  121.3000  171.0713  173.2838 H   0  0  0  0  0  0  0  0  0  0  0  0
  125.6206  167.9941  173.3826 H   0  0  0  0  0  0  0  0  0  0  0  0
  127.5039  164.9105  177.7331 H   0  0  0  0  0  0  0  0  0  0  0  0
  127.5160  165.8909  176.2208 H   0  0  0  0  0  0  0  0  0  0  0  0
  127.6615  167.3015  178.3158 H   0  0  0  0  0  0  0  0  0  0  0  0
  126.2123  167.6678  177.3072 H   0  0  0  0  0  0  0  0  0  0  0  0
  1  2  1  0
  2  3  1  0
  3  4  1  0
  4  5  1  0
  5  6  1  0
  6  7  2  0
  7  8  1  0
  8  9  2  0
  9 10  1  0
 10 11  1  0
 11 12  2  0
 12 13  1  0
 13 14  1  0
 14 15  1  0
 15 16  2  0
 16 17  1  0
 17 18  2  0
 18 19  1  0
 19 20  1  0
 20 21  1  0
 21 22  2  0
 21 23  1  0
 23 24  2  0
 24 25  1  0
 25 26  2  0
 26 27  1  0
 27 28  1  0
 28 29  1  0
 28 30  1  0
 28 31  1  0
 27 32  2  0
 19 33  2  0
 14 34  2  0
 34 35  1  0
 35 36  2  0
 36 37  1  0
  9 38  1  0
 38 39  2  0
  5 40  1  0
 40 41  1  0
 41  2  1  0
 39  6  1  0
 37 10  2  0
 37 13  1  0
 33 15  1  0
 32 23  1  0
  1 42  1  0
  1 43  1  0
  1 44  1  0
  2 45  1  0
  3 46  1  0
  3 47  1  0
  4 48  1  0
  4 49  1  0
  7 50  1  0
  8 51  1  0
 11 52  1  0
 16 53  1  0
 17 54  1  0
 18 55  1  0
 20 56  1  0
 24 57  1  0
 25 58  1  0
 26 59  1  0
 32 60  1  0
 33 61  1  0
 34 62  1  0
 35 63  1  0
 38 64  1  0
 40 65  1  0
 40 66  1  0
 41 67  1  0
 41 68  1  0
M  CHG  1   2   1
M  END
>  <meeko>  (5) 
{"is_sidechain": [false], "free_energy": -8.337, "intermolecular_energy": -11.509, "internal_energy": -0.474}

$$$$
LIB_DNDVGFIEWOHGAH__W_7USX_LOCAL_COMPLETE__e8__s20260927
     RDKit          3D

 68 73  0  0  0  0  0  0  0  0999 V2000
  124.0400  164.8160  183.7450 C   0  0  0  0  0  0  0  0  0  0  0  0
  125.3550  165.2180  183.1530 N   0  0  0  0  0  0  0  0  0  0  0  0
  125.8010  164.2420  182.0520 C   0  0  0  0  0  0  0  0  0  0  0  0
  127.1610  164.6800  181.4660 C   0  0  0  0  0  0  0  0  0  0  0  0
  127.1380  166.0880  181.0400 N   0  0  0  0  0  0  0  0  0  0  0  0
  126.6370  166.3170  179.7600 C   0  0  0  0  0  0  0  0  0  0  0  0
  125.8890  167.4580  179.4910 C   0  0  0  0  0  0  0  0  0  0  0  0
  125.3880  167.6730  178.2040 C   0  0  0  0  0  0  0  0  0  0  0  0
  125.6400  166.7460  177.1930 C   0  0  0  0  0  0  0  0  0  0  0  0
  125.1280  166.9490  175.8470 C   0  0  0  0  0  0  0  0  0  0  0  0
  125.3000  168.0410  174.9730 C   0  0  0  0  0  0  0  0  0  0  0  0
  124.6950  167.8820  173.8010 N   0  0  0  0  0  0  0  0  0  0  0  0
  124.1270  166.6460  173.8650 N   0  0  0  0  0  0  0  0  0  0  0  0
  123.3970  165.9650  172.8700 C   0  0  0  0  0  0  0  0  0  0  0  0
  123.1370  166.5510  171.5360 C   0  0  0  0  0  0  0  0  0  0  0  0
  122.9530  167.9300  171.3820 C   0  0  0  0  0  0  0  0  0  0  0  0
  122.7040  168.4720  170.1210 C   0  0  0  0  0  0  0  0  0  0  0  0
  122.6310  167.6400  169.0030 C   0  0  0  0  0  0  0  0  0  0  0  0
  122.8040  166.2590  169.1330 C   0  0  0  0  0  0  0  0  0  0  0  0
  122.7130  165.4810  167.9580 N   0  0  0  0  0  0  0  0  0  0  0  0
  123.5360  165.5470  166.8480 C   0  0  0  0  0  0  0  0  0  0  0  0
  124.5540  166.2180  166.7290 O   0  0  0  0  0  0  0  0  0  0  0  0
  123.1440  164.6550  165.7190 C   0  0  0  0  0  0  0  0  0  0  0  0
  122.9080  163.2880  165.9060 C   0  0  0  0  0  0  0  0  0  0  0  0
  122.5420  162.4890  164.8220 C   0  0  0  0  0  0  0  0  0  0  0  0
  122.3990  163.0520  163.5520 C   0  0  0  0  0  0  0  0  0  0  0  0
  122.6050  164.4260  163.3520 C   0  0  0  0  0  0  0  0  0  0  0  0
  122.4600  165.0400  161.9800 C   0  0  0  0  0  0  0  0  0  0  0  0
  121.6220  166.1130  161.9580 F   0  0  0  0  0  0  0  0  0  0  0  0
  121.9620  164.1560  161.0720 F   0  0  0  0  0  0  0  0  0  0  0  0
  123.6420  165.4800  161.4670 F   0  0  0  0  0  0  0  0  0  0  0  0
  122.9810  165.2220  164.4470 C   0  0  0  0  0  0  0  0  0  0  0  0
  123.0680  165.7260  170.3980 C   0  0  0  0  0  0  0  0  0  0  0  0
  122.9100  164.7400  173.1450 C   0  0  0  0  0  0  0  0  0  0  0  0
  123.2010  164.2080  174.4970 C   0  0  0  0  0  0  0  0  0  0  0  0
  123.8670  164.8090  175.4350 N   0  0  0  0  0  0  0  0  0  0  0  0
  124.3550  166.0540  175.1250 C   0  0  0  0  0  0  0  0  0  0  0  0
  126.3920  165.6340  177.5550 C   0  0  0  0  0  0  0  0  0  0  0  0
  126.8800  165.3990  178.8060 N   0  0  0  0  0  0  0  0  0  0  0  0
  126.7160  167.0520  182.0640 C   0  0  0  0  0  0  0  0  0  0  0  0
  125.3310  166.6590  182.6310 C   0  0  0  0  0  0  0  0  0  0  0  0
  124.1101  164.8374  184.8425 H   0  0  0  0  0  0  0  0  0  0  0  0
  123.2593  165.5165  183.4137 H   0  0  0  0  0  0  0  0  0  0  0  0
  123.7844  163.7987  183.4137 H   0  0  0  0  0  0  0  0  0  0  0  0
  126.0650  165.1740  183.8940 H   0  0  0  0  0  0  0  0  0  0  0  0
  125.8980  163.2330  182.4791 H   0  0  0  0  0  0  0  0  0  0  0  0
  125.0492  164.2408  181.2490 H   0  0  0  0  0  0  0  0  0  0  0  0
  127.9385  164.5517  182.2335 H   0  0  0  0  0  0  0  0  0  0  0  0
  127.3730  164.0569  180.5846 H   0  0  0  0  0  0  0  0  0  0  0  0
  125.6922  168.1893  180.2888 H   0  0  0  0  0  0  0  0  0  0  0  0
  124.7947  168.5738  177.9884 H   0  0  0  0  0  0  0  0  0  0  0  0
  125.8793  168.9384  175.2358 H   0  0  0  0  0  0  0  0  0  0  0  0
  123.0051  168.5901  172.2604 H   0  0  0  0  0  0  0  0  0  0  0  0
  122.5649  169.5573  170.0077 H   0  0  0  0  0  0  0  0  0  0  0  0
  122.4357  168.0744  168.0115 H   0  0  0  0  0  0  0  0  0  0  0  0
  121.9970  164.7660  167.9610 H   0  0  0  0  0  0  0  0  0  0  0  0
  123.0110  162.8437  166.9070 H   0  0  0  0  0  0  0  0  0  0  0  0
  122.3657  161.4131  164.9682 H   0  0  0  0  0  0  0  0  0  0  0  0
  122.1224  162.4128  162.7006 H   0  0  0  0  0  0  0  0  0  0  0  0
  123.1490  166.2998  164.3051 H   0  0  0  0  0  0  0  0  0  0  0  0
  123.2246  164.6426  170.5058 H   0  0  0  0  0  0  0  0  0  0  0  0
  122.3290  164.1667  172.4076 H   0  0  0  0  0  0  0  0  0  0  0  0
  122.8144  163.2045  174.7286 H   0  0  0  0  0  0  0  0  0  0  0  0
  126.6090  164.8894  176.7749 H   0  0  0  0  0  0  0  0  0  0  0  0
  127.4534  167.0609  182.8802 H   0  0  0  0  0  0  0  0  0  0  0  0
  126.6467  168.0511  181.6089 H   0  0  0  0  0  0  0  0  0  0  0  0
  125.0712  167.3387  183.4559 H   0  0  0  0  0  0  0  0  0  0  0  0
  124.5829  166.7346  181.8281 H   0  0  0  0  0  0  0  0  0  0  0  0
  1  2  1  0
  2  3  1  0
  3  4  1  0
  4  5  1  0
  5  6  1  0
  6  7  2  0
  7  8  1  0
  8  9  2  0
  9 10  1  0
 10 11  1  0
 11 12  2  0
 12 13  1  0
 13 14  1  0
 14 15  1  0
 15 16  2  0
 16 17  1  0
 17 18  2  0
 18 19  1  0
 19 20  1  0
 20 21  1  0
 21 22  2  0
 21 23  1  0
 23 24  2  0
 24 25  1  0
 25 26  2  0
 26 27  1  0
 27 28  1  0
 28 29  1  0
 28 30  1  0
 28 31  1  0
 27 32  2  0
 19 33  2  0
 14 34  2  0
 34 35  1  0
 35 36  2  0
 36 37  1  0
  9 38  1  0
 38 39  2  0
  5 40  1  0
 40 41  1  0
 41  2  1  0
 39  6  1  0
 37 10  2  0
 37 13  1  0
 33 15  1  0
 32 23  1  0
  1 42  1  0
  1 43  1  0
  1 44  1  0
  2 45  1  0
  3 46  1  0
  3 47  1  0
  4 48  1  0
  4 49  1  0
  7 50  1  0
  8 51  1  0
 11 52  1  0
 16 53  1  0
 17 54  1  0
 18 55  1  0
 20 56  1  0
 24 57  1  0
 25 58  1  0
 26 59  1  0
 32 60  1  0
 33 61  1  0
 34 62  1  0
 35 63  1  0
 38 64  1  0
 40 65  1  0
 40 66  1  0
 41 67  1  0
 41 68  1  0
M  CHG  1   2   1
M  END
>  <meeko>  (6) 
{"is_sidechain": [false], "free_energy": -8.26, "intermolecular_energy": -11.38, "internal_energy": -0.5}

$$$$
LIB_DNDVGFIEWOHGAH__W_7USX_LOCAL_COMPLETE__e8__s20260927
     RDKit          3D

 68 73  0  0  0  0  0  0  0  0999 V2000
  128.9200  162.2320  178.5320 C   0  0  0  0  0  0  0  0  0  0  0  0
  128.1040  163.3380  179.1260 N   0  0  0  0  0  0  0  0  0  0  0  0
  128.5710  164.7150  178.6280 C   0  0  0  0  0  0  0  0  0  0  0  0
  127.7150  165.8330  179.2630 C   0  0  0  0  0  0  0  0  0  0  0  0
  126.2780  165.5870  179.0720 N   0  0  0  0  0  0  0  0  0  0  0  0
  125.7520  166.0250  177.8580 C   0  0  0  0  0  0  0  0  0  0  0  0
  126.2710  167.1550  177.2330 C   0  0  0  0  0  0  0  0  0  0  0  0
  125.7310  167.5870  176.0180 C   0  0  0  0  0  0  0  0  0  0  0  0
  124.6760  166.8860  175.4350 C   0  0  0  0  0  0  0  0  0  0  0  0
  124.0980  167.3180  174.1730 C   0  0  0  0  0  0  0  0  0  0  0  0
  124.1570  166.7130  172.9010 C   0  0  0  0  0  0  0  0  0  0  0  0
  123.4950  167.3840  171.9640 N   0  0  0  0  0  0  0  0  0  0  0  0
  122.9490  168.4470  172.6160 N   0  0  0  0  0  0  0  0  0  0  0  0
  122.1140  169.4570  172.0960 C   0  0  0  0  0  0  0  0  0  0  0  0
  121.6980  169.4900  170.6760 C   0  0  0  0  0  0  0  0  0  0  0  0
  121.0730  170.6200  170.1380 C   0  0  0  0  0  0  0  0  0  0  0  0
  120.6800  170.6400  168.7990 C   0  0  0  0  0  0  0  0  0  0  0  0
  120.9020  169.5270  167.9880 C   0  0  0  0  0  0  0  0  0  0  0  0
  121.5190  168.3820  168.5050 C   0  0  0  0  0  0  0  0  0  0  0  0
  121.7070  167.2940  167.6250 N   0  0  0  0  0  0  0  0  0  0  0  0
  122.9100  166.7290  167.2420 C   0  0  0  0  0  0  0  0  0  0  0  0
  124.0210  167.0050  167.6790 O   0  0  0  0  0  0  0  0  0  0  0  0
  122.8020  165.6390  166.2310 C   0  0  0  0  0  0  0  0  0  0  0  0
  122.4040  165.8930  164.9130 C   0  0  0  0  0  0  0  0  0  0  0  0
  122.3160  164.8430  163.9970 C   0  0  0  0  0  0  0  0  0  0  0  0
  122.6370  163.5420  164.3890 C   0  0  0  0  0  0  0  0  0  0  0  0
  123.0640  163.2740  165.6990 C   0  0  0  0  0  0  0  0  0  0  0  0
  123.4040  161.8680  166.1310 C   0  0  0  0  0  0  0  0  0  0  0  0
  123.4080  160.9770  165.1030 F   0  0  0  0  0  0  0  0  0  0  0  0
  122.5170  161.3840  167.0430 F   0  0  0  0  0  0  0  0  0  0  0  0
  124.6310  161.7720  166.7130 F   0  0  0  0  0  0  0  0  0  0  0  0
  123.1420  164.3350  166.6160 C   0  0  0  0  0  0  0  0  0  0  0  0
  121.9230  168.3780  169.8430 C   0  0  0  0  0  0  0  0  0  0  0  0
  121.6850  170.4340  172.9190 C   0  0  0  0  0  0  0  0  0  0  0  0
  122.1360  170.3470  174.3280 C   0  0  0  0  0  0  0  0  0  0  0  0
  122.9050  169.4330  174.8360 N   0  0  0  0  0  0  0  0  0  0  0  0
  123.3230  168.4500  173.9760 C   0  0  0  0  0  0  0  0  0  0  0  0
  124.2190  165.7740  176.1340 C   0  0  0  0  0  0  0  0  0  0  0  0
  124.7230  165.3420  177.3240 N   0  0  0  0  0  0  0  0  0  0  0  0
  125.7930  164.2810  179.5350 C   0  0  0  0  0  0  0  0  0  0  0  0
  126.6050  163.1430  178.8730 C   0  0  0  0  0  0  0  0  0  0  0  0
  129.3641  161.6301  179.3385 H   0  0  0  0  0  0  0  0  0  0  0  0
  128.2750  161.5935  177.9105 H   0  0  0  0  0  0  0  0  0  0  0  0
  129.7204  162.6599  177.9105 H   0  0  0  0  0  0  0  0  0  0  0  0
  128.2450  163.3270  180.1440 H   0  0  0  0  0  0  0  0  0  0  0  0
  129.6251  164.8630  178.9056 H   0  0  0  0  0  0  0  0  0  0  0  0
  128.4600  164.7566  177.5344 H   0  0  0  0  0  0  0  0  0  0  0  0
  127.9295  165.8786  180.3409 H   0  0  0  0  0  0  0  0  0  0  0  0
  127.9703  166.7836  178.7719 H   0  0  0  0  0  0  0  0  0  0  0  0
  127.1037  167.7067  177.6937 H   0  0  0  0  0  0  0  0  0  0  0  0
  126.1385  168.4802  175.5218 H   0  0  0  0  0  0  0  0  0  0  0  0
  124.6985  165.7762  172.7031 H   0  0  0  0  0  0  0  0  0  0  0  0
  120.8901  171.4984  170.7744 H   0  0  0  0  0  0  0  0  0  0  0  0
  120.1944  171.5349  168.3825 H   0  0  0  0  0  0  0  0  0  0  0  0
  120.5896  169.5493  166.9335 H   0  0  0  0  0  0  0  0  0  0  0  0
  120.8610  166.8550  167.2860 H   0  0  0  0  0  0  0  0  0  0  0  0
  122.1608  166.9189  164.5994 H   0  0  0  0  0  0  0  0  0  0  0  0
  121.9931  165.0412  162.9643 H   0  0  0  0  0  0  0  0  0  0  0  0
  122.5545  162.7188  163.6640 H   0  0  0  0  0  0  0  0  0  0  0  0
  123.4733  164.1405  167.6467 H   0  0  0  0  0  0  0  0  0  0  0  0
  122.4260  167.4896  170.2525 H   0  0  0  0  0  0  0  0  0  0  0  0
  121.0371  171.2495  172.5652 H   0  0  0  0  0  0  0  0  0  0  0  0
  121.7844  171.1347  175.0106 H   0  0  0  0  0  0  0  0  0  0  0  0
  123.3896  165.2010  175.6938 H   0  0  0  0  0  0  0  0  0  0  0  0
  125.9046  164.2187  180.6276 H   0  0  0  0  0  0  0  0  0  0  0  0
  124.7338  164.1734  179.2584 H   0  0  0  0  0  0  0  0  0  0  0  0
  126.2886  162.1784  179.2966 H   0  0  0  0  0  0  0  0  0  0  0  0
  126.4216  163.1585  177.7885 H   0  0  0  0  0  0  0  0  0  0  0  0
  1  2  1  0
  2  3  1  0
  3  4  1  0
  4  5  1  0
  5  6  1  0
  6  7  2  0
  7  8  1  0
  8  9  2  0
  9 10  1  0
 10 11  1  0
 11 12  2  0
 12 13  1  0
 13 14  1  0
 14 15  1  0
 15 16  2  0
 16 17  1  0
 17 18  2  0
 18 19  1  0
 19 20  1  0
 20 21  1  0
 21 22  2  0
 21 23  1  0
 23 24  2  0
 24 25  1  0
 25 26  2  0
 26 27  1  0
 27 28  1  0
 28 29  1  0
 28 30  1  0
 28 31  1  0
 27 32  2  0
 19 33  2  0
 14 34  2  0
 34 35  1  0
 35 36  2  0
 36 37  1  0
  9 38  1  0
 38 39  2  0
  5 40  1  0
 40 41  1  0
 41  2  1  0
 39  6  1  0
 37 10  2  0
 37 13  1  0
 33 15  1  0
 32 23  1  0
  1 42  1  0
  1 43  1  0
  1 44  1  0
  2 45  1  0
  3 46  1  0
  3 47  1  0
  4 48  1  0
  4 49  1  0
  7 50  1  0
  8 51  1  0
 11 52  1  0
 16 53  1  0
 17 54  1  0
 18 55  1  0
 20 56  1  0
 24 57  1  0
 25 58  1  0
 26 59  1  0
 32 60  1  0
 33 61  1  0
 34 62  1  0
 35 63  1  0
 38 64  1  0
 40 65  1  0
 40 66  1  0
 41 67  1  0
 41 68  1  0
M  CHG  1   2   1
M  END
>  <meeko>  (7) 
{"is_sidechain": [false], "free_energy": -8.172, "intermolecular_energy": -11.261, "internal_energy": -0.499}

$$$$
LIB_DNDVGFIEWOHGAH__W_7USX_LOCAL_COMPLETE__e8__s20260927
     RDKit          3D

 68 73  0  0  0  0  0  0  0  0999 V2000
  129.0290  161.7970  178.9670 C   0  0  0  0  0  0  0  0  0  0  0  0
  128.3750  162.9610  179.6440 N   0  0  0  0  0  0  0  0  0  0  0  0
  128.9370  164.2980  179.1350 C   0  0  0  0  0  0  0  0  0  0  0  0
  128.2470  165.4770  179.8550 C   0  0  0  0  0  0  0  0  0  0  0  0
  126.7820  165.3780  179.7730 N   0  0  0  0  0  0  0  0  0  0  0  0
  126.2110  165.8960  178.6120 C   0  0  0  0  0  0  0  0  0  0  0  0
  126.8030  166.9700  177.9560 C   0  0  0  0  0  0  0  0  0  0  0  0
  126.2170  167.4840  176.7950 C   0  0  0  0  0  0  0  0  0  0  0  0
  125.0430  166.9190  176.2980 C   0  0  0  0  0  0  0  0  0  0  0  0
  124.4150  167.4380  175.0930 C   0  0  0  0  0  0  0  0  0  0  0  0
  124.5440  167.0140  173.7550 C   0  0  0  0  0  0  0  0  0  0  0  0
  123.8050  167.7160  172.9030 N   0  0  0  0  0  0  0  0  0  0  0  0
  123.1370  168.6140  173.6780 N   0  0  0  0  0  0  0  0  0  0  0  0
  122.1870  169.5770  173.2800 C   0  0  0  0  0  0  0  0  0  0  0  0
  121.7680  169.7420  171.8700 C   0  0  0  0  0  0  0  0  0  0  0  0
  121.0990  170.8980  171.4510 C   0  0  0  0  0  0  0  0  0  0  0  0
  120.7030  171.0420  170.1210 C   0  0  0  0  0  0  0  0  0  0  0  0
  120.9660  170.0290  169.1990 C   0  0  0  0  0  0  0  0  0  0  0  0
  121.6260  168.8610  169.5940 C   0  0  0  0  0  0  0  0  0  0  0  0
  121.8540  167.8790  168.6060 N   0  0  0  0  0  0  0  0  0  0  0  0
  121.8810  166.5080  168.7830 C   0  0  0  0  0  0  0  0  0  0  0  0
  121.6090  165.8960  169.8090 O   0  0  0  0  0  0  0  0  0  0  0  0
  122.2280  165.7210  167.5650 C   0  0  0  0  0  0  0  0  0  0  0  0
  122.4310  164.3360  167.6150 C   0  0  0  0  0  0  0  0  0  0  0  0
  122.7540  163.6370  166.4510 C   0  0  0  0  0  0  0  0  0  0  0  0
  122.8640  164.3130  165.2340 C   0  0  0  0  0  0  0  0  0  0  0  0
  122.6360  165.6960  165.1610 C   0  0  0  0  0  0  0  0  0  0  0  0
  122.7620  166.4340  163.8510 C   0  0  0  0  0  0  0  0  0  0  0  0
  123.3090  165.6780  162.8590 F   0  0  0  0  0  0  0  0  0  0  0  0
  123.5500  167.5390  163.9580 F   0  0  0  0  0  0  0  0  0  0  0  0
  121.5660  166.8710  163.3700 F   0  0  0  0  0  0  0  0  0  0  0  0
  122.3200  166.3940  166.3390 C   0  0  0  0  0  0  0  0  0  0  0  0
  122.0330  168.7320  170.9260 C   0  0  0  0  0  0  0  0  0  0  0  0
  121.6460  170.3820  174.2150 C   0  0  0  0  0  0  0  0  0  0  0  0
  122.1060  170.1690  175.6070 C   0  0  0  0  0  0  0  0  0  0  0  0
  122.9790  169.2950  176.0050 N   0  0  0  0  0  0  0  0  0  0  0  0
  123.5100  168.4860  175.0320 C   0  0  0  0  0  0  0  0  0  0  0  0
  124.5200  165.8540  177.0230 C   0  0  0  0  0  0  0  0  0  0  0  0
  125.0690  165.3450  178.1620 N   0  0  0  0  0  0  0  0  0  0  0  0
  126.2060  164.1140  180.2490 C   0  0  0  0  0  0  0  0  0  0  0  0
  126.8490  162.9190  179.5060 C   0  0  0  0  0  0  0  0  0  0  0  0
  129.4189  161.1030  179.7261 H   0  0  0  0  0  0  0  0  0  0  0  0
  128.2913  161.2764  178.3387 H   0  0  0  0  0  0  0  0  0  0  0  0
  129.8573  162.1563  178.3387 H   0  0  0  0  0  0  0  0  0  0  0  0
  128.5920  162.9100  180.6460 H   0  0  0  0  0  0  0  0  0  0  0  0
  130.0187  164.3355  179.3315 H   0  0  0  0  0  0  0  0  0  0  0  0
  128.7478  164.3780  178.0543 H   0  0  0  0  0  0  0  0  0  0  0  0
  128.5464  165.4736  180.9134 H   0  0  0  0  0  0  0  0  0  0  0  0
  128.5571  166.4103  179.3623 H   0  0  0  0  0  0  0  0  0  0  0  0
  127.7295  167.4138  178.3493 H   0  0  0  0  0  0  0  0  0  0  0  0
  126.6820  168.3338  176.2739 H   0  0  0  0  0  0  0  0  0  0  0  0
  125.1939  166.1820  173.4461 H   0  0  0  0  0  0  0  0  0  0  0  0
  120.8842  171.6979  172.1749 H   0  0  0  0  0  0  0  0  0  0  0  0
  120.1825  171.9560  169.7990 H   0  0  0  0  0  0  0  0  0  0  0  0
  120.6515  170.1499  168.1519 H   0  0  0  0  0  0  0  0  0  0  0  0
  121.9540  168.2250  167.6610 H   0  0  0  0  0  0  0  0  0  0  0  0
  122.3359  163.7998  168.5707 H   0  0  0  0  0  0  0  0  0  0  0  0
  122.9224  162.5507  166.4923 H   0  0  0  0  0  0  0  0  0  0  0  0
  123.1319  163.7563  164.3239 H   0  0  0  0  0  0  0  0  0  0  0  0
  122.1432  167.4789  166.2985 H   0  0  0  0  0  0  0  0  0  0  0  0
  122.5697  167.8251  171.2414 H   0  0  0  0  0  0  0  0  0  0  0  0
  120.9049  171.1536  173.9594 H   0  0  0  0  0  0  0  0  0  0  0  0
  121.6640  170.8154  176.3795 H   0  0  0  0  0  0  0  0  0  0  0  0
  123.5958  165.3883  176.6501 H   0  0  0  0  0  0  0  0  0  0  0  0
  126.3928  164.0135  181.3283 H   0  0  0  0  0  0  0  0  0  0  0  0
  125.1236  164.1172  180.0532 H   0  0  0  0  0  0  0  0  0  0  0  0
  126.4721  161.9796  179.9365 H   0  0  0  0  0  0  0  0  0  0  0  0
  126.5859  162.9792  178.4396 H   0  0  0  0  0  0  0  0  0  0  0  0
  1  2  1  0
  2  3  1  0
  3  4  1  0
  4  5  1  0
  5  6  1  0
  6  7  2  0
  7  8  1  0
  8  9  2  0
  9 10  1  0
 10 11  1  0
 11 12  2  0
 12 13  1  0
 13 14  1  0
 14 15  1  0
 15 16  2  0
 16 17  1  0
 17 18  2  0
 18 19  1  0
 19 20  1  0
 20 21  1  0
 21 22  2  0
 21 23  1  0
 23 24  2  0
 24 25  1  0
 25 26  2  0
 26 27  1  0
 27 28  1  0
 28 29  1  0
 28 30  1  0
 28 31  1  0
 27 32  2  0
 19 33  2  0
 14 34  2  0
 34 35  1  0
 35 36  2  0
 36 37  1  0
  9 38  1  0
 38 39  2  0
  5 40  1  0
 40 41  1  0
 41  2  1  0
 39  6  1  0
 37 10  2  0
 37 13  1  0
 33 15  1  0
 32 23  1  0
  1 42  1  0
  1 43  1  0
  1 44  1  0
  2 45  1  0
  3 46  1  0
  3 47  1  0
  4 48  1  0
  4 49  1  0
  7 50  1  0
  8 51  1  0
 11 52  1  0
 16 53  1  0
 17 54  1  0
 18 55  1  0
 20 56  1  0
 24 57  1  0
 25 58  1  0
 26 59  1  0
 32 60  1  0
 33 61  1  0
 34 62  1  0
 35 63  1  0
 38 64  1  0
 40 65  1  0
 40 66  1  0
 41 67  1  0
 41 68  1  0
M  CHG  1   2   1
M  END
>  <meeko>  (8) 
{"is_sidechain": [false], "free_energy": -8.147, "intermolecular_energy": -11.267, "internal_energy": -0.46}

$$$$
LIB_DNDVGFIEWOHGAH__W_7USX_LOCAL_COMPLETE__e8__s20260927
     RDKit          3D

 68 73  0  0  0  0  0  0  0  0999 V2000
  123.7040  165.2930  183.4000 C   0  0  0  0  0  0  0  0  0  0  0  0
  125.0230  165.3140  182.6930 N   0  0  0  0  0  0  0  0  0  0  0  0
  125.0830  164.2570  181.5790 C   0  0  0  0  0  0  0  0  0  0  0  0
  126.4570  164.3000  180.8730 C   0  0  0  0  0  0  0  0  0  0  0  0
  126.7900  165.6590  180.4220 N   0  0  0  0  0  0  0  0  0  0  0  0
  126.2650  166.0240  179.1830 C   0  0  0  0  0  0  0  0  0  0  0  0
  125.6530  165.0750  178.3720 C   0  0  0  0  0  0  0  0  0  0  0  0
  125.1360  165.4530  177.1290 C   0  0  0  0  0  0  0  0  0  0  0  0
  125.2330  166.7780  176.7070 C   0  0  0  0  0  0  0  0  0  0  0  0
  124.7030  167.1930  175.4180 C   0  0  0  0  0  0  0  0  0  0  0  0
  125.2760  167.0930  174.1340 C   0  0  0  0  0  0  0  0  0  0  0  0
  124.4970  167.5670  173.1680 N   0  0  0  0  0  0  0  0  0  0  0  0
  123.3600  167.9680  173.8000 N   0  0  0  0  0  0  0  0  0  0  0  0
  122.1890  168.5120  173.2350 C   0  0  0  0  0  0  0  0  0  0  0  0
  122.0390  168.7290  171.7780 C   0  0  0  0  0  0  0  0  0  0  0  0
  121.7480  170.0000  171.2690 C   0  0  0  0  0  0  0  0  0  0  0  0
  121.6030  170.1940  169.8960 C   0  0  0  0  0  0  0  0  0  0  0  0
  121.7420  169.1190  169.0180 C   0  0  0  0  0  0  0  0  0  0  0  0
  122.0250  167.8380  169.5030 C   0  0  0  0  0  0  0  0  0  0  0  0
  122.1480  166.7990  168.5540 N   0  0  0  0  0  0  0  0  0  0  0  0
  123.2620  166.4900  167.7950 C   0  0  0  0  0  0  0  0  0  0  0  0
  124.3740  166.9980  167.8830 O   0  0  0  0  0  0  0  0  0  0  0  0
  123.0690  165.3850  166.8130 C   0  0  0  0  0  0  0  0  0  0  0  0
  122.9900  164.0460  167.2150 C   0  0  0  0  0  0  0  0  0  0  0  0
  122.8080  163.0420  166.2630 C   0  0  0  0  0  0  0  0  0  0  0  0
  122.6920  163.3700  164.9110 C   0  0  0  0  0  0  0  0  0  0  0  0
  122.7400  164.7090  164.4930 C   0  0  0  0  0  0  0  0  0  0  0  0
  122.6240  165.0700  163.0320 C   0  0  0  0  0  0  0  0  0  0  0  0
  123.8160  165.0390  162.3750 F   0  0  0  0  0  0  0  0  0  0  0  0
  122.1290  166.3250  162.8510 F   0  0  0  0  0  0  0  0  0  0  0  0
  121.7980  164.2370  162.3420 F   0  0  0  0  0  0  0  0  0  0  0  0
  122.9320  165.7130  165.4560 C   0  0  0  0  0  0  0  0  0  0  0  0
  122.1840  167.6550  170.8790 C   0  0  0  0  0  0  0  0  0  0  0  0
  121.1710  168.8530  174.0480 C   0  0  0  0  0  0  0  0  0  0  0  0
  121.3820  168.6120  175.4950 C   0  0  0  0  0  0  0  0  0  0  0  0
  122.4470  168.1170  176.0470 N   0  0  0  0  0  0  0  0  0  0  0  0
  123.4650  167.7740  175.1930 C   0  0  0  0  0  0  0  0  0  0  0  0
  125.8660  167.6550  177.5810 C   0  0  0  0  0  0  0  0  0  0  0  0
  126.3870  167.3060  178.7910 N   0  0  0  0  0  0  0  0  0  0  0  0
  126.7430  166.6990  181.4580 C   0  0  0  0  0  0  0  0  0  0  0  0
  125.3570  166.7070  182.1460 C   0  0  0  0  0  0  0  0  0  0  0  0
  123.8707  165.2957  184.4873 H   0  0  0  0  0  0  0  0  0  0  0  0
  123.1216  166.1820  183.1162 H   0  0  0  0  0  0  0  0  0  0  0  0
  123.1502  164.3859  183.1162 H   0  0  0  0  0  0  0  0  0  0  0  0
  125.7540  165.0710  183.3730 H   0  0  0  0  0  0  0  0  0  0  0  0
  124.9309  163.2594  182.0167 H   0  0  0  0  0  0  0  0  0  0  0  0
  124.2948  164.4689  180.8416 H   0  0  0  0  0  0  0  0  0  0  0  0
  127.2306  163.9573  181.5759 H   0  0  0  0  0  0  0  0  0  0  0  0
  126.4114  163.6454  179.9902 H   0  0  0  0  0  0  0  0  0  0  0  0
  125.5757  164.0301  178.7071 H   0  0  0  0  0  0  0  0  0  0  0  0
  124.6526  164.7045  176.4839 H   0  0  0  0  0  0  0  0  0  0  0  0
  126.2720  166.6639  173.9497 H   0  0  0  0  0  0  0  0  0  0  0  0
  121.6330  170.8510  171.9565 H   0  0  0  0  0  0  0  0  0  0  0  0
  121.3785  171.1970  169.5042 H   0  0  0  0  0  0  0  0  0  0  0  0
  121.6282  169.2800  167.9358 H   0  0  0  0  0  0  0  0  0  0  0  0
  121.3460  166.1880  168.4700 H   0  0  0  0  0  0  0  0  0  0  0  0
  123.0714  163.7857  168.2806 H   0  0  0  0  0  0  0  0  0  0  0  0
  122.7558  161.9896  166.5787 H   0  0  0  0  0  0  0  0  0  0  0  0
  122.5617  162.5712  164.1660 H   0  0  0  0  0  0  0  0  0  0  0  0
  122.9754  166.7667  165.1432 H   0  0  0  0  0  0  0  0  0  0  0  0
  122.4266  166.6546  171.2667 H   0  0  0  0  0  0  0  0  0  0  0  0
  120.2368  169.2855  173.6604 H   0  0  0  0  0  0  0  0  0  0  0  0
  120.5538  168.8792  176.1678 H   0  0  0  0  0  0  0  0  0  0  0  0
  125.9525  168.7075  177.2732 H   0  0  0  0  0  0  0  0  0  0  0  0
  127.5205  166.4982  182.2098 H   0  0  0  0  0  0  0  0  0  0  0  0
  126.9167  167.6793  180.9901 H   0  0  0  0  0  0  0  0  0  0  0  0
  125.3686  167.4289  182.9759 H   0  0  0  0  0  0  0  0  0  0  0  0
  124.5938  166.9923  181.4070 H   0  0  0  0  0  0  0  0  0  0  0  0
  1  2  1  0
  2  3  1  0
  3  4  1  0
  4  5  1  0
  5  6  1  0
  6  7  2  0
  7  8  1  0
  8  9  2  0
  9 10  1  0
 10 11  1  0
 11 12  2  0
 12 13  1  0
 13 14  1  0
 14 15  1  0
 15 16  2  0
 16 17  1  0
 17 18  2  0
 18 19  1  0
 19 20  1  0
 20 21  1  0
 21 22  2  0
 21 23  1  0
 23 24  2  0
 24 25  1  0
 25 26  2  0
 26 27  1  0
 27 28  1  0
 28 29  1  0
 28 30  1  0
 28 31  1  0
 27 32  2  0
 19 33  2  0
 14 34  2  0
 34 35  1  0
 35 36  2  0
 36 37  1  0
  9 38  1  0
 38 39  2  0
  5 40  1  0
 40 41  1  0
 41  2  1  0
 39  6  1  0
 37 10  2  0
 37 13  1  0
 33 15  1  0
 32 23  1  0
  1 42  1  0
  1 43  1  0
  1 44  1  0
  2 45  1  0
  3 46  1  0
  3 47  1  0
  4 48  1  0
  4 49  1  0
  7 50  1  0
  8 51  1  0
 11 52  1  0
 16 53  1  0
 17 54  1  0
 18 55  1  0
 20 56  1  0
 24 57  1  0
 25 58  1  0
 26 59  1  0
 32 60  1  0
 33 61  1  0
 34 62  1  0
 35 63  1  0
 38 64  1  0
 40 65  1  0
 40 66  1  0
 41 67  1  0
 41 68  1  0
M  CHG  1   2   1
M  END
>  <meeko>  (9) 
{"is_sidechain": [false], "free_energy": -8.135, "intermolecular_energy": -10.667, "internal_energy": -1.044}

$$$$
