
     RDKit          3D

 71 74  0  0  0  0  0  0  0  0999 V2000
   -1.2524    0.9546   -1.5858 C   0  0  0  0  0  0  0  0  0  0  0  0
   -0.8214   -0.0303   -0.5932 N   0  0  0  0  0  0  0  0  0  0  0  0
   -1.6956   -0.8000    0.1918 C   0  0  0  0  0  0  0  0  0  0  0  0
   -1.3167   -1.2432    1.2842 O   0  0  0  0  0  0  0  0  0  0  0  0
   -3.1588   -1.0770   -0.2817 C   0  0  0  0  0  0  0  0  0  0  0  0
   -3.8517   -1.9881    0.7698 C   0  0  0  0  0  0  0  0  0  0  0  0
   -3.0986   -1.9159   -1.5772 C   0  0  0  0  0  0  0  0  0  0  0  0
   -4.0002    0.2103   -0.3525 C   0  0  0  0  0  0  0  0  0  0  0  0
   -4.8614    0.4916   -1.4261 C   0  0  0  0  0  0  0  0  0  0  0  0
   -5.6204    1.6758   -1.4707 C   0  0  0  0  0  0  0  0  0  0  0  0
   -6.5431    1.9393   -2.6410 C   0  0  0  0  0  0  0  0  0  0  0  0
   -7.7228    1.2741   -2.5307 F   0  0  0  0  0  0  0  0  0  0  0  0
   -6.8569    3.2551   -2.7890 F   0  0  0  0  0  0  0  0  0  0  0  0
   -5.9974    1.5510   -3.8274 F   0  0  0  0  0  0  0  0  0  0  0  0
   -5.5320    2.5852   -0.4066 C   0  0  0  0  0  0  0  0  0  0  0  0
   -4.6984    2.3270    0.6892 C   0  0  0  0  0  0  0  0  0  0  0  0
   -4.5831    3.3026    1.8385 C   0  0  0  0  0  0  0  0  0  0  0  0
   -3.3260    3.8211    1.9347 F   0  0  0  0  0  0  0  0  0  0  0  0
   -4.8444    2.7276    3.0427 F   0  0  0  0  0  0  0  0  0  0  0  0
   -5.4209    4.3690    1.7351 F   0  0  0  0  0  0  0  0  0  0  0  0
   -3.9465    1.1400    0.7056 C   0  0  0  0  0  0  0  0  0  0  0  0
    0.5563    0.0384   -0.1879 C   0  0  0  0  0  0  0  0  0  0  0  0
    1.1331    1.2746    0.1168 C   0  0  0  0  0  0  0  0  0  0  0  0
    2.3980    1.4497    0.5735 N   0  0  0  0  0  0  0  0  0  0  0  0
    3.1322    0.3391    0.7334 C   0  0  0  0  0  0  0  0  0  0  0  0
    4.4549    0.5119    1.2903 N   0  0  0  0  0  0  0  0  0  0  0  0
    4.4121    0.9915    2.7137 C   0  0  0  0  0  0  0  0  0  0  0  0
    5.6372    1.9001    2.8216 C   0  0  1  0  0  0  0  0  0  0  0  0
    6.8086    1.1107    3.0071 O   0  0  0  0  0  0  0  0  0  0  0  0
    5.6932    2.5746    1.4594 C   0  0  0  0  0  0  0  0  0  0  0  0
    5.3173    1.4638    0.4790 C   0  0  1  0  0  0  0  0  0  0  0  0
    6.5232    0.6662   -0.0636 C   0  0  0  0  0  0  0  0  0  0  0  0
    6.1126   -0.6902   -0.2830 O   0  0  0  0  0  0  0  0  0  0  0  0
    2.6860   -0.9328    0.4191 C   0  0  0  0  0  0  0  0  0  0  0  0
    1.3704   -1.1090   -0.0489 C   0  0  0  0  0  0  0  0  0  0  0  0
    0.9424   -2.4679   -0.4517 C   0  0  0  0  0  0  0  0  0  0  0  0
    0.6547   -2.7204   -1.8083 C   0  0  0  0  0  0  0  0  0  0  0  0
    0.2635   -3.9892   -2.2440 C   0  0  0  0  0  0  0  0  0  0  0  0
    0.1499   -5.0341   -1.3328 C   0  0  0  0  0  0  0  0  0  0  0  0
    0.4362   -4.8144    0.0130 C   0  0  0  0  0  0  0  0  0  0  0  0
    0.8353   -3.5469    0.4519 C   0  0  0  0  0  0  0  0  0  0  0  0
    1.1998   -3.3744    2.1376 Cl  0  0  0  0  0  0  0  0  0  0  0  0
   -0.4276    1.1889   -2.2673 H   0  0  0  0  0  0  0  0  0  0  0  0
   -1.5753    1.8638   -1.0698 H   0  0  0  0  0  0  0  0  0  0  0  0
   -2.0767    0.5872   -2.1916 H   0  0  0  0  0  0  0  0  0  0  0  0
   -3.8825   -1.5238    1.7628 H   0  0  0  0  0  0  0  0  0  0  0  0
   -3.3214   -2.9420    0.8797 H   0  0  0  0  0  0  0  0  0  0  0  0
   -4.8861   -2.2135    0.4829 H   0  0  0  0  0  0  0  0  0  0  0  0
   -4.0890   -2.2897   -1.8627 H   0  0  0  0  0  0  0  0  0  0  0  0
   -2.4561   -2.7927   -1.4388 H   0  0  0  0  0  0  0  0  0  0  0  0
   -2.7017   -1.3661   -2.4334 H   0  0  0  0  0  0  0  0  0  0  0  0
   -4.9643   -0.2090   -2.2545 H   0  0  0  0  0  0  0  0  0  0  0  0
   -6.1261    3.5010   -0.4305 H   0  0  0  0  0  0  0  0  0  0  0  0
   -3.3135    0.9404    1.5735 H   0  0  0  0  0  0  0  0  0  0  0  0
    0.5585    2.1957    0.0461 H   0  0  0  0  0  0  0  0  0  0  0  0
    4.9457   -0.3952    1.2337 H   0  0  0  0  0  0  0  0  0  0  0  0
    4.4574    0.1130    3.3642 H   0  0  0  0  0  0  0  0  0  0  0  0
    3.4928    1.5623    2.8852 H   0  0  0  0  0  0  0  0  0  0  0  0
    5.5500    2.6067    3.6522 H   0  0  0  0  0  0  0  0  0  0  0  0
    7.4808    1.6647    3.4512 H   0  0  0  0  0  0  0  0  0  0  0  0
    6.6740    3.0053    1.2353 H   0  0  0  0  0  0  0  0  0  0  0  0
    4.9427    3.3727    1.4114 H   0  0  0  0  0  0  0  0  0  0  0  0
    4.7416    1.8565   -0.3680 H   0  0  0  0  0  0  0  0  0  0  0  0
    7.3677    0.6519    0.6298 H   0  0  0  0  0  0  0  0  0  0  0  0
    6.8649    1.0953   -1.0110 H   0  0  0  0  0  0  0  0  0  0  0  0
    6.8679   -1.1467   -0.7071 H   0  0  0  0  0  0  0  0  0  0  0  0
    3.3393   -1.7937    0.5294 H   0  0  0  0  0  0  0  0  0  0  0  0
    0.7367   -1.9232   -2.5451 H   0  0  0  0  0  0  0  0  0  0  0  0
    0.0446   -4.1615   -3.2958 H   0  0  0  0  0  0  0  0  0  0  0  0
   -0.1593   -6.0215   -1.6689 H   0  0  0  0  0  0  0  0  0  0  0  0
    0.3469   -5.6377    0.7186 H   0  0  0  0  0  0  0  0  0  0  0  0
  1  2  1  0
  2  3  1  0
  3  4  2  0
  3  5  1  0
  5  6  1  0
  5  7  1  0
  5  8  1  0
  8  9  2  0
  9 10  1  0
 10 11  1  0
 11 12  1  0
 11 13  1  0
 11 14  1  0
 10 15  2  0
 15 16  1  0
 16 17  1  0
 17 18  1  0
 17 19  1  0
 17 20  1  0
 16 21  2  0
  2 22  1  0
 22 23  2  0
 23 24  1  0
 24 25  2  0
 25 26  1  0
 26 27  1  0
 27 28  1  0
 28 29  1  0
 28 30  1  0
 30 31  1  0
 31 32  1  0
 32 33  1  0
 25 34  1  0
 34 35  2  0
 35 36  1  0
 36 37  2  0
 37 38  1  0
 38 39  2  0
 39 40  1  0
 40 41  2  0
 41 42  1  0
 21  8  1  0
 35 22  1  0
 41 36  1  0
 31 26  1  0
  1 43  1  0
  1 44  1  0
  1 45  1  0
  6 46  1  0
  6 47  1  0
  6 48  1  0
  7 49  1  0
  7 50  1  0
  7 51  1  0
  9 52  1  0
 15 53  1  0
 21 54  1  0
 23 55  1  0
 26 56  1  0
 27 57  1  0
 27 58  1  0
 28 59  1  1
 29 60  1  0
 30 61  1  0
 30 62  1  0
 31 63  1  6
 32 64  1  0
 32 65  1  0
 33 66  1  0
 34 67  1  0
 37 68  1  0
 38 69  1  0
 39 70  1  0
 40 71  1  0
M  CHG  1  26   1
M  END
$$$$
