
     RDKit          3D

 69 74  0  0  0  0  0  0  0  0999 V2000
   -9.2102   -3.4933   -0.4885 C   0  0  0  0  0  0  0  0  0  0  0  0
   -9.6070   -2.0548   -0.3443 N   0  0  0  0  0  0  0  0  0  0  0  0
   -9.1643   -1.4282    0.9737 C   0  0  0  0  0  0  0  0  0  0  0  0
   -7.6478   -1.1531    1.0026 C   0  0  0  0  0  0  0  0  0  0  0  0
   -7.2226   -0.3915   -0.1822 N   0  0  0  0  0  0  0  0  0  0  0  0
   -6.0116    0.3020   -0.1442 C   0  0  0  0  0  0  0  0  0  0  0  0
   -4.9679   -0.0462    0.7236 C   0  0  0  0  0  0  0  0  0  0  0  0
   -3.7556    0.6591    0.7377 C   0  0  0  0  0  0  0  0  0  0  0  0
   -3.5475    1.7449   -0.1149 C   0  0  0  0  0  0  0  0  0  0  0  0
   -2.2993    2.4912   -0.1092 C   0  0  0  0  0  0  0  0  0  0  0  0
   -2.0730    3.8668   -0.3234 C   0  0  0  0  0  0  0  0  0  0  0  0
   -0.7876    4.2079   -0.2677 N   0  0  0  0  0  0  0  0  0  0  0  0
   -0.1381    3.0322   -0.0140 N   0  0  0  0  0  0  0  0  0  0  0  0
    1.2661    2.8533    0.1236 C   0  0  0  0  0  0  0  0  0  0  0  0
    2.0492    3.9819   -0.0197 N   0  0  0  0  0  0  0  0  0  0  0  0
    1.7296    1.6064    0.3645 C   0  0  0  0  0  0  0  0  0  0  0  0
    3.1484    1.2631    0.5269 C   0  0  0  0  0  0  0  0  0  0  0  0
    3.7812    0.4275   -0.3987 C   0  0  0  0  0  0  0  0  0  0  0  0
    5.1303    0.0853   -0.2443 C   0  0  0  0  0  0  0  0  0  0  0  0
    5.8665    0.5720    0.8369 C   0  0  0  0  0  0  0  0  0  0  0  0
    7.2211    0.2740    1.0595 N   0  0  0  0  0  0  0  0  0  0  0  0
    8.0528   -0.5211    0.3115 C   0  0  0  0  0  0  0  0  0  0  0  0
    7.7673   -1.1369   -0.7054 O   0  0  0  0  0  0  0  0  0  0  0  0
    9.3053   -0.5158    0.9172 O   0  0  0  0  0  0  0  0  0  0  0  0
   10.2869   -1.2646    0.2590 C   0  0  0  0  0  0  0  0  0  0  0  0
   10.8390   -0.8095   -0.9377 C   0  0  0  0  0  0  0  0  0  0  0  0
   11.8554   -1.5486   -1.5415 C   0  0  0  0  0  0  0  0  0  0  0  0
   12.3193   -2.7210   -0.9400 C   0  0  0  0  0  0  0  0  0  0  0  0
   11.7713   -3.1561    0.2690 C   0  0  0  0  0  0  0  0  0  0  0  0
   10.7541   -2.4223    0.8779 C   0  0  0  0  0  0  0  0  0  0  0  0
    5.2332    1.4089    1.7630 C   0  0  0  0  0  0  0  0  0  0  0  0
    3.8851    1.7511    1.6115 C   0  0  0  0  0  0  0  0  0  0  0  0
    0.6845    0.5374    0.4510 C   0  0  0  0  0  0  0  0  0  0  0  0
   -0.5998    0.6831    0.3278 N   0  0  0  0  0  0  0  0  0  0  0  0
   -1.0355    1.9596    0.0899 C   0  0  0  0  0  0  0  0  0  0  0  0
   -4.5863    2.1169   -0.9719 C   0  0  0  0  0  0  0  0  0  0  0  0
   -5.7947    1.4054   -0.9830 C   0  0  0  0  0  0  0  0  0  0  0  0
   -7.6562   -0.8960   -1.4983 C   0  0  0  0  0  0  0  0  0  0  0  0
   -9.1712   -1.1824   -1.5165 C   0  0  0  0  0  0  0  0  0  0  0  0
   -8.1214   -3.5728   -0.5030 H   0  0  0  0  0  0  0  0  0  0  0  0
   -9.6388   -3.8684   -1.4215 H   0  0  0  0  0  0  0  0  0  0  0  0
   -9.6281   -4.0439    0.3582 H   0  0  0  0  0  0  0  0  0  0  0  0
  -10.6345   -2.0351   -0.3392 H   0  0  0  0  0  0  0  0  0  0  0  0
   -9.7278   -0.4926    1.0655 H   0  0  0  0  0  0  0  0  0  0  0  0
   -9.4706   -2.1019    1.7804 H   0  0  0  0  0  0  0  0  0  0  0  0
   -7.0990   -2.1009    1.0538 H   0  0  0  0  0  0  0  0  0  0  0  0
   -7.4353   -0.5908    1.9204 H   0  0  0  0  0  0  0  0  0  0  0  0
   -5.0515   -0.8923    1.3987 H   0  0  0  0  0  0  0  0  0  0  0  0
   -2.9751    0.3430    1.4273 H   0  0  0  0  0  0  0  0  0  0  0  0
   -2.8025    4.6433   -0.5156 H   0  0  0  0  0  0  0  0  0  0  0  0
    1.5726    4.8548   -0.2430 H   0  0  0  0  0  0  0  0  0  0  0  0
    3.0592    3.9268   -0.0330 H   0  0  0  0  0  0  0  0  0  0  0  0
    3.2396    0.0379   -1.2587 H   0  0  0  0  0  0  0  0  0  0  0  0
    5.5756   -0.5636   -0.9931 H   0  0  0  0  0  0  0  0  0  0  0  0
    7.6704    0.6819    1.8677 H   0  0  0  0  0  0  0  0  0  0  0  0
   10.4804    0.1038   -1.4020 H   0  0  0  0  0  0  0  0  0  0  0  0
   12.2873   -1.2126   -2.4807 H   0  0  0  0  0  0  0  0  0  0  0  0
   13.1116   -3.2955   -1.4138 H   0  0  0  0  0  0  0  0  0  0  0  0
   12.1400   -4.0661    0.7352 H   0  0  0  0  0  0  0  0  0  0  0  0
   10.3313   -2.7533    1.8211 H   0  0  0  0  0  0  0  0  0  0  0  0
    5.7768    1.8061    2.6171 H   0  0  0  0  0  0  0  0  0  0  0  0
    3.4168    2.4012    2.3486 H   0  0  0  0  0  0  0  0  0  0  0  0
    1.0687   -0.4788    0.6471 H   0  0  0  0  0  0  0  0  0  0  0  0
   -4.4716    2.9588   -1.6511 H   0  0  0  0  0  0  0  0  0  0  0  0
   -6.5779    1.7556   -1.6500 H   0  0  0  0  0  0  0  0  0  0  0  0
   -7.4510   -0.1841   -2.3050 H   0  0  0  0  0  0  0  0  0  0  0  0
   -7.0987   -1.8111   -1.7324 H   0  0  0  0  0  0  0  0  0  0  0  0
   -9.4777   -1.6883   -2.4377 H   0  0  0  0  0  0  0  0  0  0  0  0
   -9.7394   -0.2497   -1.4236 H   0  0  0  0  0  0  0  0  0  0  0  0
  1  2  1  0
  2  3  1  0
  3  4  1  0
  4  5  1  0
  5  6  1  0
  6  7  2  0
  7  8  1  0
  8  9  2  0
  9 10  1  0
 10 11  1  0
 11 12  2  0
 12 13  1  0
 13 14  1  0
 14 15  1  0
 14 16  2  0
 16 17  1  0
 17 18  2  0
 18 19  1  0
 19 20  2  0
 20 21  1  0
 21 22  1  0
 22 23  2  0
 22 24  1  0
 24 25  1  0
 25 26  2  0
 26 27  1  0
 27 28  2  0
 28 29  1  0
 29 30  2  0
 20 31  1  0
 31 32  2  0
 16 33  1  0
 33 34  2  0
 34 35  1  0
  9 36  1  0
 36 37  2  0
  5 38  1  0
 38 39  1  0
 39  2  1  0
 37  6  1  0
 35 10  2  0
 35 13  1  0
 32 17  1  0
 30 25  1  0
  1 40  1  0
  1 41  1  0
  1 42  1  0
  2 43  1  0
  3 44  1  0
  3 45  1  0
  4 46  1  0
  4 47  1  0
  7 48  1  0
  8 49  1  0
 11 50  1  0
 15 51  1  0
 15 52  1  0
 18 53  1  0
 19 54  1  0
 21 55  1  0
 26 56  1  0
 27 57  1  0
 28 58  1  0
 29 59  1  0
 30 60  1  0
 31 61  1  0
 32 62  1  0
 33 63  1  0
 36 64  1  0
 37 65  1  0
 38 66  1  0
 38 67  1  0
 39 68  1  0
 39 69  1  0
M  CHG  1   2   1
M  END
$$$$
