
     RDKit          3D

 67 72  0  0  0  0  0  0  0  0999 V2000
    6.2260   -4.8537    3.1953 C   0  0  0  0  0  0  0  0  0  0  0  0
    5.4815   -3.8158    2.4495 C   0  0  0  0  0  0  0  0  0  0  0  0
    5.8623   -2.5291    2.1336 C   0  0  0  0  0  0  0  0  0  0  0  0
    4.8145   -1.9693    1.4322 N   0  0  0  0  0  0  0  0  0  0  0  0
    4.7343   -0.6478    0.8994 C   0  0  0  0  0  0  0  0  0  0  0  0
    3.5813   -0.2192    0.2225 C   0  0  0  0  0  0  0  0  0  0  0  0
    3.4866    1.0803   -0.3000 C   0  0  0  0  0  0  0  0  0  0  0  0
    2.2845    1.4172   -0.9543 N   0  0  0  0  0  0  0  0  0  0  0  0
    1.9545    2.6192   -1.5576 C   0  0  0  0  0  0  0  0  0  0  0  0
    2.6902    3.5871   -1.7083 O   0  0  0  0  0  0  0  0  0  0  0  0
    0.5667    2.6849   -2.1013 C   0  0  0  0  0  0  0  0  0  0  0  0
    0.3186    3.4593   -3.2330 C   0  0  0  0  0  0  0  0  0  0  0  0
   -0.9657    3.5019   -3.7734 C   0  0  0  0  0  0  0  0  0  0  0  0
   -2.0172    2.7675   -3.1937 C   0  0  0  0  0  0  0  0  0  0  0  0
   -3.3748    2.8257   -3.8435 C   0  0  0  0  0  0  0  0  0  0  0  0
   -1.7843    2.0003   -2.0284 C   0  0  0  0  0  0  0  0  0  0  0  0
   -2.8210    1.2246   -1.4680 N   0  0  0  0  0  0  0  0  0  0  0  0
   -2.7269    0.1724   -0.6117 C   0  0  0  0  0  0  0  0  0  0  0  0
   -1.6346   -0.4070   -0.1581 N   0  0  0  0  0  0  0  0  0  0  0  0
   -2.0484   -1.4535    0.6106 C   0  0  0  0  0  0  0  0  0  0  0  0
   -1.2618   -2.4032    1.2825 C   0  0  0  0  0  0  0  0  0  0  0  0
   -1.8897   -3.4522    1.9574 C   0  0  0  0  0  0  0  0  0  0  0  0
   -3.2766   -3.5644    1.9468 C   0  0  0  0  0  0  0  0  0  0  0  0
   -4.0762   -2.6208    1.2891 C   0  0  0  0  0  0  0  0  0  0  0  0
   -3.4388   -1.5376    0.6545 C   0  0  0  0  0  0  0  0  0  0  0  0
   -3.8760   -0.4258   -0.0673 N   0  0  0  0  0  0  0  0  0  0  0  0
   -5.2171    0.0558   -0.2421 C   0  0  0  0  0  0  0  0  0  0  0  0
   -6.2076   -0.2741    0.6624 C   0  0  0  0  0  0  0  0  0  0  0  0
   -7.4671    0.2333    0.4232 C   0  0  0  0  0  0  0  0  0  0  0  0
   -8.5222   -0.0764    1.2562 N   0  0  0  0  0  0  0  0  0  0  0  0
   -7.7501    0.9922   -0.6383 N   0  0  0  0  0  0  0  0  0  0  0  0
   -6.7271    1.2894   -1.4443 C   0  0  0  0  0  0  0  0  0  0  0  0
   -5.4598    0.8783   -1.2938 N   0  0  0  0  0  0  0  0  0  0  0  0
   -0.4873    1.9904   -1.4943 C   0  0  0  0  0  0  0  0  0  0  0  0
    4.5570    1.9578   -0.1390 C   0  0  0  0  0  0  0  0  0  0  0  0
    5.7202    1.5546    0.5362 C   0  0  0  0  0  0  0  0  0  0  0  0
    6.8751    2.5173    0.6791 C   0  0  0  0  0  0  0  0  0  0  0  0
    7.5889    2.6465   -0.4723 F   0  0  0  0  0  0  0  0  0  0  0  0
    6.4847    3.7733    1.0284 F   0  0  0  0  0  0  0  0  0  0  0  0
    7.7738    2.1333    1.6305 F   0  0  0  0  0  0  0  0  0  0  0  0
    5.8029    0.2470    1.0467 C   0  0  0  0  0  0  0  0  0  0  0  0
    3.8595   -2.9622    1.3617 C   0  0  0  0  0  0  0  0  0  0  0  0
    4.2289   -4.0712    1.9633 N   0  0  0  0  0  0  0  0  0  0  0  0
    5.6691   -5.1521    4.0888 H   0  0  0  0  0  0  0  0  0  0  0  0
    6.3747   -5.7384    2.5687 H   0  0  0  0  0  0  0  0  0  0  0  0
    7.2086   -4.4893    3.5108 H   0  0  0  0  0  0  0  0  0  0  0  0
    6.7753   -2.0004    2.3589 H   0  0  0  0  0  0  0  0  0  0  0  0
    2.7316   -0.8818    0.0898 H   0  0  0  0  0  0  0  0  0  0  0  0
    1.5903    0.6803   -1.0062 H   0  0  0  0  0  0  0  0  0  0  0  0
    1.1236    4.0223   -3.7006 H   0  0  0  0  0  0  0  0  0  0  0  0
   -1.1390    4.1046   -4.6629 H   0  0  0  0  0  0  0  0  0  0  0  0
   -4.0971    3.2957   -3.1684 H   0  0  0  0  0  0  0  0  0  0  0  0
   -3.7164    1.8189   -4.1047 H   0  0  0  0  0  0  0  0  0  0  0  0
   -3.3553    3.4126   -4.7680 H   0  0  0  0  0  0  0  0  0  0  0  0
   -3.7599    1.4893   -1.7661 H   0  0  0  0  0  0  0  0  0  0  0  0
   -0.1802   -2.3294    1.2568 H   0  0  0  0  0  0  0  0  0  0  0  0
   -1.2873   -4.1978    2.4717 H   0  0  0  0  0  0  0  0  0  0  0  0
   -3.7477   -4.4080    2.4485 H   0  0  0  0  0  0  0  0  0  0  0  0
   -5.1499   -2.7694    1.2607 H   0  0  0  0  0  0  0  0  0  0  0  0
   -6.0338   -0.8545    1.5548 H   0  0  0  0  0  0  0  0  0  0  0  0
   -9.3998    0.3331    0.9575 H   0  0  0  0  0  0  0  0  0  0  0  0
   -8.3623   -0.1369    2.2508 H   0  0  0  0  0  0  0  0  0  0  0  0
   -6.9444    1.9226   -2.2979 H   0  0  0  0  0  0  0  0  0  0  0  0
   -0.3055    1.4597   -0.5656 H   0  0  0  0  0  0  0  0  0  0  0  0
    4.5151    2.9724   -0.5288 H   0  0  0  0  0  0  0  0  0  0  0  0
    6.7195   -0.0397    1.5571 H   0  0  0  0  0  0  0  0  0  0  0  0
    2.9090   -2.8404    0.8637 H   0  0  0  0  0  0  0  0  0  0  0  0
  1  2  1  0
  2  3  2  0
  3  4  1  0
  4  5  1  0
  5  6  2  0
  6  7  1  0
  7  8  1  0
  8  9  1  0
  9 10  2  0
  9 11  1  0
 11 12  2  0
 12 13  1  0
 13 14  2  0
 14 15  1  0
 14 16  1  0
 16 17  1  0
 17 18  1  0
 18 19  2  0
 19 20  1  0
 20 21  2  0
 21 22  1  0
 22 23  2  0
 23 24  1  0
 24 25  2  0
 25 26  1  0
 26 27  1  0
 27 28  2  0
 28 29  1  0
 29 30  1  0
 29 31  2  0
 31 32  1  0
 32 33  2  0
 16 34  2  0
  7 35  2  0
 35 36  1  0
 36 37  1  0
 37 38  1  0
 37 39  1  0
 37 40  1  0
 36 41  2  0
  4 42  1  0
 42 43  2  0
 43  2  1  0
 41  5  1  0
 34 11  1  0
 26 18  1  0
 33 27  1  0
 25 20  1  0
  1 44  1  0
  1 45  1  0
  1 46  1  0
  3 47  1  0
  6 48  1  0
  8 49  1  0
 12 50  1  0
 13 51  1  0
 15 52  1  0
 15 53  1  0
 15 54  1  0
 17 55  1  0
 21 56  1  0
 22 57  1  0
 23 58  1  0
 24 59  1  0
 28 60  1  0
 30 61  1  0
 30 62  1  0
 32 63  1  0
 34 64  1  0
 35 65  1  0
 41 66  1  0
 42 67  1  0
M  END
$$$$
