
     RDKit          3D

 47 51  0  0  0  0  0  0  0  0999 V2000
   -3.9514   -2.1405    0.2811 O   0  0  0  0  0  0  0  0  0  0  0  0
   -3.3993   -1.1000   -0.0559 C   0  0  0  0  0  0  0  0  0  0  0  0
   -2.0812   -0.7501    0.1675 N   0  0  0  0  0  0  0  0  0  0  0  0
   -1.0583   -1.5612    0.6999 C   0  0  0  0  0  0  0  0  0  0  0  0
   -1.2103   -2.9131    1.0000 C   0  0  0  0  0  0  0  0  0  0  0  0
   -0.1285   -3.6535    1.4873 C   0  0  0  0  0  0  0  0  0  0  0  0
    1.1159   -3.0484    1.6835 C   0  0  0  0  0  0  0  0  0  0  0  0
    2.4050   -4.0477    2.2589 Cl  0  0  0  0  0  0  0  0  0  0  0  0
    1.2897   -1.6844    1.4035 C   0  0  0  0  0  0  0  0  0  0  0  0
    2.5667   -0.9618    1.5920 C   0  0  0  0  0  0  0  0  0  0  0  0
    3.0640   -0.8039    2.8330 C   0  0  0  0  0  0  0  0  0  0  0  0
    4.3327   -0.0388    2.9306 C   0  0  0  0  0  0  0  0  0  0  0  0
    4.9761    0.5079    1.9485 N   0  0  0  0  0  0  0  0  0  0  0  0
    4.4288    0.3484    0.7025 C   0  0  0  0  0  0  0  0  0  0  0  0
    4.7976    0.7979   -0.5453 C   0  0  0  0  0  0  0  0  0  0  0  0
    6.0037    1.6766   -0.9255 C   0  0  0  0  0  0  0  0  0  0  0  0
    6.9866    2.2163   -0.1362 C   0  0  0  0  0  0  0  0  0  0  0  0
    7.8737    2.9516   -0.8326 N   0  0  0  0  0  0  0  0  0  0  0  0
    7.4861    2.9037   -2.1251 N   0  0  0  0  0  0  0  0  0  0  0  0
    6.3809    2.1415   -2.1614 C   0  0  0  0  0  0  0  0  0  0  0  0
    3.8332    0.3019   -1.4301 C   0  0  0  0  0  0  0  0  0  0  0  0
    2.8828   -0.4052   -0.8151 N   0  0  0  0  0  0  0  0  0  0  0  0
    3.2480   -0.3842    0.5013 N   0  0  0  0  0  0  0  0  0  0  0  0
    0.1894   -0.9574    0.9082 C   0  0  0  0  0  0  0  0  0  0  0  0
   -4.2184   -0.0583   -0.7398 C   0  0  0  0  0  0  0  0  0  0  0  0
   -3.6796    0.7680   -1.7339 C   0  0  0  0  0  0  0  0  0  0  0  0
   -4.4830    1.7248   -2.3560 C   0  0  0  0  0  0  0  0  0  0  0  0
   -5.8256    1.8546   -1.9955 C   0  0  0  0  0  0  0  0  0  0  0  0
   -6.3849    1.0274   -1.0091 C   0  0  0  0  0  0  0  0  0  0  0  0
   -7.8444    1.1406   -0.6436 C   0  0  0  0  0  0  0  0  0  0  0  0
   -8.0881    0.8747    0.6698 F   0  0  0  0  0  0  0  0  0  0  0  0
   -8.6258    0.2813   -1.3530 F   0  0  0  0  0  0  0  0  0  0  0  0
   -8.3567    2.3834   -0.8691 F   0  0  0  0  0  0  0  0  0  0  0  0
   -5.5713    0.0621   -0.3936 C   0  0  0  0  0  0  0  0  0  0  0  0
   -1.8116    0.2013   -0.0501 H   0  0  0  0  0  0  0  0  0  0  0  0
   -2.1531   -3.4293    0.8470 H   0  0  0  0  0  0  0  0  0  0  0  0
   -0.2652   -4.7112    1.6997 H   0  0  0  0  0  0  0  0  0  0  0  0
    2.6155   -1.1837    3.7399 H   0  0  0  0  0  0  0  0  0  0  0  0
    4.7397    0.0615    3.9505 H   0  0  0  0  0  0  0  0  0  0  0  0
    7.0827    2.0994    0.9352 H   0  0  0  0  0  0  0  0  0  0  0  0
    5.8817    1.9542   -3.1016 H   0  0  0  0  0  0  0  0  0  0  0  0
    3.7771    0.4335   -2.5027 H   0  0  0  0  0  0  0  0  0  0  0  0
    0.3239    0.0968    0.6689 H   0  0  0  0  0  0  0  0  0  0  0  0
   -2.6477    0.6593   -2.0594 H   0  0  0  0  0  0  0  0  0  0  0  0
   -4.0650    2.3624   -3.1326 H   0  0  0  0  0  0  0  0  0  0  0  0
   -6.4403    2.6024   -2.4963 H   0  0  0  0  0  0  0  0  0  0  0  0
   -5.9918   -0.6008    0.3635 H   0  0  0  0  0  0  0  0  0  0  0  0
  1  2  2  0
  2  3  1  0
  3  4  1  0
  4  5  2  0
  5  6  1  0
  6  7  2  0
  7  8  1  0
  7  9  1  0
  9 10  1  0
 10 11  2  0
 11 12  1  0
 12 13  2  0
 13 14  1  0
 14 15  2  0
 15 16  1  0
 16 17  1  0
 17 18  2  0
 18 19  1  0
 19 20  1  0
 15 21  1  0
 21 22  2  0
 22 23  1  0
  9 24  2  0
  2 25  1  0
 25 26  2  0
 26 27  1  0
 27 28  2  0
 28 29  1  0
 29 30  1  0
 30 31  1  0
 30 32  1  0
 30 33  1  0
 29 34  2  0
 24  4  1  0
 34 25  1  0
 23 10  1  0
 23 14  1  0
 20 16  2  0
  3 35  1  0
  5 36  1  0
  6 37  1  0
 11 38  1  0
 12 39  1  0
 17 40  1  0
 20 41  1  0
 21 42  1  0
 24 43  1  0
 26 44  1  0
 27 45  1  0
 28 46  1  0
 34 47  1  0
M  CHG  1  19  -1
M  END
$$$$
