
     RDKit          3D

 62 65  0  0  0  0  0  0  0  0999 V2000
    2.3644    0.1030   -0.6275 O   0  0  0  0  0  0  0  0  0  0  0  0
    2.8815    0.4383    0.4312 C   0  0  0  0  0  0  0  0  0  0  0  0
    4.2173    0.7651    0.6043 N   0  0  0  0  0  0  0  0  0  0  0  0
    5.2166    0.8686   -0.3868 C   0  0  0  0  0  0  0  0  0  0  0  0
    4.9788    0.7400   -1.7555 C   0  0  0  0  0  0  0  0  0  0  0  0
    6.0256    0.8659   -2.6738 C   0  0  0  0  0  0  0  0  0  0  0  0
    7.3220    1.1222   -2.2324 C   0  0  0  0  0  0  0  0  0  0  0  0
    7.5866    1.2506   -0.8636 C   0  0  0  0  0  0  0  0  0  0  0  0
    8.9810    1.5525   -0.3728 C   0  0  0  0  0  0  0  0  0  0  0  0
    9.1950    2.8880   -0.2232 F   0  0  0  0  0  0  0  0  0  0  0  0
    9.9564    1.1033   -1.2088 F   0  0  0  0  0  0  0  0  0  0  0  0
    9.2431    0.9941    0.8422 F   0  0  0  0  0  0  0  0  0  0  0  0
    6.5228    1.1307    0.0492 C   0  0  0  0  0  0  0  0  0  0  0  0
    2.1939    0.5572    1.6337 N   0  0  0  0  0  0  0  0  0  0  0  0
    0.8657    0.1572    1.8948 C   0  0  0  0  0  0  0  0  0  0  0  0
    0.1228   -0.6631    1.0346 C   0  0  0  0  0  0  0  0  0  0  0  0
   -1.2058   -1.0403    1.2987 C   0  0  0  0  0  0  0  0  0  0  0  0
   -1.9478   -1.8121    0.4088 N   0  0  0  0  0  0  0  0  0  0  0  0
   -2.9171   -2.7988    0.9009 C   0  0  0  0  0  0  0  0  0  0  0  0
   -4.1988   -2.6845    0.0698 C   0  0  0  0  0  0  0  0  0  0  0  0
   -3.9607   -1.9966   -1.2892 C   0  0  0  0  0  0  0  0  0  0  0  0
   -3.9558   -0.4810   -1.1065 N   0  0  0  0  0  0  0  0  0  0  0  0
   -3.5812    0.3394   -2.3187 C   0  0  0  0  0  0  0  0  0  0  0  0
   -4.1413    1.7063   -1.9952 C   0  0  0  0  0  0  0  0  0  0  0  0
   -5.4846    1.3740   -1.3840 C   0  0  0  0  0  0  0  0  0  0  0  0
   -5.2299    0.1288   -0.5506 C   0  0  0  0  0  0  0  0  0  0  0  0
   -2.6168   -2.4746   -1.8588 C   0  0  0  0  0  0  0  0  0  0  0  0
   -1.4445   -2.0796   -0.9521 C   0  0  0  0  0  0  0  0  0  0  0  0
   -1.7671   -0.5510    2.4867 C   0  0  0  0  0  0  0  0  0  0  0  0
   -1.0419    0.2559    3.3845 C   0  0  0  0  0  0  0  0  0  0  0  0
   -1.7012    0.7376    4.6533 C   0  0  0  0  0  0  0  0  0  0  0  0
   -1.9043   -0.2690    5.5439 F   0  0  0  0  0  0  0  0  0  0  0  0
   -2.9283    1.2803    4.4136 F   0  0  0  0  0  0  0  0  0  0  0  0
   -0.9890    1.6929    5.3082 F   0  0  0  0  0  0  0  0  0  0  0  0
    0.2817    0.5950    3.0824 C   0  0  0  0  0  0  0  0  0  0  0  0
    4.5313    0.8795    1.5561 H   0  0  0  0  0  0  0  0  0  0  0  0
    3.9859    0.5466   -2.1483 H   0  0  0  0  0  0  0  0  0  0  0  0
    5.8244    0.7651   -3.7381 H   0  0  0  0  0  0  0  0  0  0  0  0
    8.1259    1.2207   -2.9611 H   0  0  0  0  0  0  0  0  0  0  0  0
    6.7351    1.2419    1.1117 H   0  0  0  0  0  0  0  0  0  0  0  0
    2.6590    1.0795    2.3616 H   0  0  0  0  0  0  0  0  0  0  0  0
    0.6120   -1.0540    0.1491 H   0  0  0  0  0  0  0  0  0  0  0  0
   -2.4876   -3.8028    0.7857 H   0  0  0  0  0  0  0  0  0  0  0  0
   -3.1630   -2.7062    1.9630 H   0  0  0  0  0  0  0  0  0  0  0  0
   -4.9691   -2.1704    0.6540 H   0  0  0  0  0  0  0  0  0  0  0  0
   -4.5878   -3.6966   -0.1004 H   0  0  0  0  0  0  0  0  0  0  0  0
   -4.7804   -2.2205   -1.9811 H   0  0  0  0  0  0  0  0  0  0  0  0
   -3.2121   -0.3209   -0.3975 H   0  0  0  0  0  0  0  0  0  0  0  0
   -2.4948    0.3405   -2.4321 H   0  0  0  0  0  0  0  0  0  0  0  0
   -4.0697   -0.1084   -3.1907 H   0  0  0  0  0  0  0  0  0  0  0  0
   -4.2289    2.3415   -2.8810 H   0  0  0  0  0  0  0  0  0  0  0  0
   -3.5048    2.2195   -1.2646 H   0  0  0  0  0  0  0  0  0  0  0  0
   -6.2119    1.1492   -2.1738 H   0  0  0  0  0  0  0  0  0  0  0  0
   -5.8894    2.1956   -0.7860 H   0  0  0  0  0  0  0  0  0  0  0  0
   -6.0506   -0.5888   -0.6427 H   0  0  0  0  0  0  0  0  0  0  0  0
   -5.0371    0.3627    0.5009 H   0  0  0  0  0  0  0  0  0  0  0  0
   -2.4490   -2.1005   -2.8750 H   0  0  0  0  0  0  0  0  0  0  0  0
   -2.6438   -3.5687   -1.9490 H   0  0  0  0  0  0  0  0  0  0  0  0
   -0.6831   -2.8683   -0.9421 H   0  0  0  0  0  0  0  0  0  0  0  0
   -0.9909   -1.1761   -1.3762 H   0  0  0  0  0  0  0  0  0  0  0  0
   -2.8018   -0.7728    2.7412 H   0  0  0  0  0  0  0  0  0  0  0  0
    0.8431    1.2200    3.7754 H   0  0  0  0  0  0  0  0  0  0  0  0
  1  2  2  0
  2  3  1  0
  3  4  1  0
  4  5  2  0
  5  6  1  0
  6  7  2  0
  7  8  1  0
  8  9  1  0
  9 10  1  0
  9 11  1  0
  9 12  1  0
  8 13  2  0
  2 14  1  0
 14 15  1  0
 15 16  2  0
 16 17  1  0
 17 18  1  0
 18 19  1  0
 19 20  1  0
 20 21  1  0
 21 22  1  0
 22 23  1  0
 23 24  1  0
 24 25  1  0
 25 26  1  0
 21 27  1  0
 27 28  1  0
 17 29  2  0
 29 30  1  0
 30 31  1  0
 31 32  1  0
 31 33  1  0
 31 34  1  0
 30 35  2  0
 13  4  1  0
 35 15  1  0
 28 18  1  0
 26 22  1  0
  3 36  1  0
  5 37  1  0
  6 38  1  0
  7 39  1  0
 13 40  1  0
 14 41  1  0
 16 42  1  0
 19 43  1  0
 19 44  1  0
 20 45  1  0
 20 46  1  0
 21 47  1  0
 22 48  1  0
 23 49  1  0
 23 50  1  0
 24 51  1  0
 24 52  1  0
 25 53  1  0
 25 54  1  0
 26 55  1  0
 26 56  1  0
 27 57  1  0
 27 58  1  0
 28 59  1  0
 28 60  1  0
 29 61  1  0
 35 62  1  0
M  CHG  1  22   1
M  END
$$$$
