
     RDKit          3D

 34 36  0  0  0  0  0  0  0  0999 V2000
    5.0922    1.1804    1.7719 N   0  0  0  0  0  0  0  0  0  0  0  0
    4.1165    0.7890    0.8820 C   0  0  0  0  0  0  0  0  0  0  0  0
    4.4468    0.6743   -0.4248 N   0  0  0  0  0  0  0  0  0  0  0  0
    3.4817    0.2947   -1.2913 C   0  0  0  0  0  0  0  0  0  0  0  0
    2.1929   -0.0038   -1.0390 N   0  0  0  0  0  0  0  0  0  0  0  0
    1.9172    0.1245    0.2710 C   0  0  0  0  0  0  0  0  0  0  0  0
    2.7960    0.5072    1.2725 C   0  0  0  0  0  0  0  0  0  0  0  0
    2.1683    0.5362    2.5012 N   0  0  0  0  0  0  0  0  0  0  0  0
    0.9224    0.1911    2.2436 C   0  0  0  0  0  0  0  0  0  0  0  0
    0.7272   -0.0909    0.9136 N   0  0  0  0  0  0  0  0  0  0  0  0
   -0.5284   -0.5182    0.3352 C   0  0  2  0  0  0  0  0  0  0  0  0
   -0.4499   -1.7969   -0.5229 C   0  0  0  0  0  0  0  0  0  0  0  0
   -1.1269   -1.4385   -1.8493 C   0  0  0  0  0  0  0  0  0  0  0  0
   -2.0614   -0.2823   -1.4908 C   0  0  1  0  0  0  0  0  0  0  0  0
   -3.1948   -0.8605   -0.8460 O   0  0  0  0  0  0  0  0  0  0  0  0
   -4.2570    0.0752   -0.5563 C   0  0  0  0  0  0  0  0  0  0  0  0
   -4.0745    0.8388    0.7775 C   0  0  0  0  0  0  0  0  0  0  0  0
   -3.5357    0.2054    1.7306 O   0  0  0  0  0  0  0  0  0  0  0  0
   -4.4802    2.0389    0.7499 O   0  0  0  0  0  0  0  0  0  0  0  0
   -1.1732    0.5410   -0.5656 C   0  0  0  0  0  0  0  0  0  0  0  0
    6.0091    1.3897    1.4165 H   0  0  0  0  0  0  0  0  0  0  0  0
    4.8369    1.2897    2.7432 H   0  0  0  0  0  0  0  0  0  0  0  0
    3.7873    0.2193   -2.3306 H   0  0  0  0  0  0  0  0  0  0  0  0
    0.1179    0.1273    2.9681 H   0  0  0  0  0  0  0  0  0  0  0  0
   -1.1967   -0.7329    1.1779 H   0  0  0  0  0  0  0  0  0  0  0  0
    0.5637   -2.1759   -0.6843 H   0  0  0  0  0  0  0  0  0  0  0  0
   -1.0114   -2.5988   -0.0273 H   0  0  0  0  0  0  0  0  0  0  0  0
   -1.6554   -2.3014   -2.2664 H   0  0  0  0  0  0  0  0  0  0  0  0
   -0.3717   -1.1069   -2.5716 H   0  0  0  0  0  0  0  0  0  0  0  0
   -2.3737    0.2670   -2.3850 H   0  0  0  0  0  0  0  0  0  0  0  0
   -4.3908    0.7632   -1.3987 H   0  0  0  0  0  0  0  0  0  0  0  0
   -5.1758   -0.5136   -0.4612 H   0  0  0  0  0  0  0  0  0  0  0  0
   -1.6996    1.2964    0.0190 H   0  0  0  0  0  0  0  0  0  0  0  0
   -0.4190    1.0713   -1.1604 H   0  0  0  0  0  0  0  0  0  0  0  0
  1  2  1  0
  2  3  2  0
  3  4  1  0
  4  5  2  0
  5  6  1  0
  6  7  2  0
  7  8  1  0
  8  9  2  0
  9 10  1  0
 10 11  1  0
 11 12  1  0
 12 13  1  0
 13 14  1  0
 14 15  1  0
 15 16  1  0
 16 17  1  0
 17 18  2  0
 17 19  1  0
 14 20  1  0
  7  2  1  0
 20 11  1  0
 10  6  1  0
  1 21  1  0
  1 22  1  0
  4 23  1  0
  9 24  1  0
 11 25  1  1
 12 26  1  0
 12 27  1  0
 13 28  1  0
 13 29  1  0
 14 30  1  6
 16 31  1  0
 16 32  1  0
 20 33  1  0
 20 34  1  0
M  CHG  1  19  -1
M  END
$$$$
