
     RDKit          3D

 79 84  0  0  0  0  0  0  0  0999 V2000
  -12.6384    0.6197   -0.5053 C   0  0  0  0  0  0  0  0  0  0  0  0
  -11.6314    0.4004   -1.5936 N   0  0  0  0  0  0  0  0  0  0  0  0
  -10.5650    1.4883   -1.6655 C   0  0  0  0  0  0  0  0  0  0  0  0
   -9.5380    1.3730   -0.5214 C   0  0  0  0  0  0  0  0  0  0  0  0
   -8.9937    0.0062   -0.4286 N   0  0  0  0  0  0  0  0  0  0  0  0
   -7.7587   -0.1466    0.2006 C   0  0  0  0  0  0  0  0  0  0  0  0
   -7.5482   -1.0623    1.2409 C   0  0  0  0  0  0  0  0  0  0  0  0
   -6.2962   -1.2009    1.8595 C   0  0  0  0  0  0  0  0  0  0  0  0
   -5.2044   -0.4318    1.4479 C   0  0  0  0  0  0  0  0  0  0  0  0
   -3.9170   -0.5731    2.1099 C   0  0  0  0  0  0  0  0  0  0  0  0
   -3.6293   -0.8634    3.4600 C   0  0  0  0  0  0  0  0  0  0  0  0
   -2.3263   -0.9284    3.7231 N   0  0  0  0  0  0  0  0  0  0  0  0
   -1.7271   -0.6754    2.5209 N   0  0  0  0  0  0  0  0  0  0  0  0
   -0.3296   -0.6286    2.2637 C   0  0  0  0  0  0  0  0  0  0  0  0
    0.5073   -0.8599    3.3368 N   0  0  0  0  0  0  0  0  0  0  0  0
    0.0767   -0.3701    1.0012 C   0  0  0  0  0  0  0  0  0  0  0  0
    1.4814   -0.2913    0.5871 C   0  0  0  0  0  0  0  0  0  0  0  0
    2.0532   -1.3145   -0.1743 C   0  0  0  0  0  0  0  0  0  0  0  0
    3.3948   -1.2370   -0.5647 C   0  0  0  0  0  0  0  0  0  0  0  0
    4.1850   -0.1387   -0.2023 C   0  0  0  0  0  0  0  0  0  0  0  0
    5.5262   -0.1380   -0.6349 N   0  0  0  0  0  0  0  0  0  0  0  0
    6.4962    0.8052   -0.3714 C   0  0  0  0  0  0  0  0  0  0  0  0
    6.3758    1.8005    0.3301 O   0  0  0  0  0  0  0  0  0  0  0  0
    7.6803    0.4893   -1.0041 N   0  0  0  0  0  0  0  0  0  0  0  0
    8.8591    1.3219   -0.8602 C   0  0  0  0  0  0  0  0  0  0  0  0
   10.1539    0.5398   -1.1219 C   0  0  0  0  0  0  0  0  0  0  0  0
   10.3829   -0.5423   -0.0529 C   0  0  0  0  0  0  0  0  0  0  0  0
   11.7035   -1.2791   -0.2664 C   0  0  0  0  0  0  0  0  0  0  0  0
   12.8832   -0.3151   -0.3316 C   0  0  0  0  0  0  0  0  0  0  0  0
   12.6673    0.7616   -1.3895 C   0  0  0  0  0  0  0  0  0  0  0  0
   11.3499    1.5032   -1.1769 C   0  0  0  0  0  0  0  0  0  0  0  0
    3.6087    0.8823    0.5548 C   0  0  0  0  0  0  0  0  0  0  0  0
    2.2675    0.8070    0.9487 C   0  0  0  0  0  0  0  0  0  0  0  0
   -1.0152   -0.1675   -0.0009 C   0  0  0  0  0  0  0  0  0  0  0  0
   -2.2949   -0.2051    0.2166 N   0  0  0  0  0  0  0  0  0  0  0  0
   -2.6740   -0.4592    1.5084 C   0  0  0  0  0  0  0  0  0  0  0  0
   -5.3975    0.4778    0.4071 C   0  0  0  0  0  0  0  0  0  0  0  0
   -6.6516    0.6127   -0.2048 C   0  0  0  0  0  0  0  0  0  0  0  0
   -9.9587   -1.1031   -0.4049 C   0  0  0  0  0  0  0  0  0  0  0  0
  -10.9791   -0.9776   -1.5540 C   0  0  0  0  0  0  0  0  0  0  0  0
  -13.3955   -0.1649   -0.5844 H   0  0  0  0  0  0  0  0  0  0  0  0
  -13.1005    1.5971   -0.6663 H   0  0  0  0  0  0  0  0  0  0  0  0
  -12.1413    0.5816    0.4660 H   0  0  0  0  0  0  0  0  0  0  0  0
  -12.1468    0.4468   -2.4815 H   0  0  0  0  0  0  0  0  0  0  0  0
  -10.0735    1.3628   -2.6371 H   0  0  0  0  0  0  0  0  0  0  0  0
  -11.0777    2.4555   -1.6551 H   0  0  0  0  0  0  0  0  0  0  0  0
  -10.0088    1.6352    0.4338 H   0  0  0  0  0  0  0  0  0  0  0  0
   -8.7603    2.1216   -0.7063 H   0  0  0  0  0  0  0  0  0  0  0  0
   -8.3565   -1.6824    1.6168 H   0  0  0  0  0  0  0  0  0  0  0  0
   -6.1896   -1.9296    2.6604 H   0  0  0  0  0  0  0  0  0  0  0  0
   -4.3254   -1.0256    4.2730 H   0  0  0  0  0  0  0  0  0  0  0  0
    1.5144   -0.8559    3.2351 H   0  0  0  0  0  0  0  0  0  0  0  0
    0.0742   -1.0465    4.2398 H   0  0  0  0  0  0  0  0  0  0  0  0
    1.4676   -2.1855   -0.4611 H   0  0  0  0  0  0  0  0  0  0  0  0
    3.8120   -2.0516   -1.1515 H   0  0  0  0  0  0  0  0  0  0  0  0
    5.8277   -0.9384   -1.1669 H   0  0  0  0  0  0  0  0  0  0  0  0
    7.6799   -0.2149   -1.7244 H   0  0  0  0  0  0  0  0  0  0  0  0
    8.8710    1.7715    0.1395 H   0  0  0  0  0  0  0  0  0  0  0  0
    8.7529    2.1366   -1.5858 H   0  0  0  0  0  0  0  0  0  0  0  0
   10.0703    0.0424   -2.0983 H   0  0  0  0  0  0  0  0  0  0  0  0
   10.3825   -0.0852    0.9450 H   0  0  0  0  0  0  0  0  0  0  0  0
    9.5642   -1.2711   -0.0682 H   0  0  0  0  0  0  0  0  0  0  0  0
   11.8595   -1.9974    0.5464 H   0  0  0  0  0  0  0  0  0  0  0  0
   11.6518   -1.8569   -1.1975 H   0  0  0  0  0  0  0  0  0  0  0  0
   13.0226    0.1582    0.6482 H   0  0  0  0  0  0  0  0  0  0  0  0
   13.8019   -0.8703   -0.5519 H   0  0  0  0  0  0  0  0  0  0  0  0
   12.6704    0.3016   -2.3854 H   0  0  0  0  0  0  0  0  0  0  0  0
   13.4993    1.4745   -1.3647 H   0  0  0  0  0  0  0  0  0  0  0  0
   11.2097    2.2264   -1.9892 H   0  0  0  0  0  0  0  0  0  0  0  0
   11.4070    2.0798   -0.2446 H   0  0  0  0  0  0  0  0  0  0  0  0
    4.1766    1.7564    0.8596 H   0  0  0  0  0  0  0  0  0  0  0  0
    1.8489    1.6172    1.5432 H   0  0  0  0  0  0  0  0  0  0  0  0
   -0.6740    0.0387   -1.0303 H   0  0  0  0  0  0  0  0  0  0  0  0
   -4.5737    1.0940    0.0520 H   0  0  0  0  0  0  0  0  0  0  0  0
   -6.7284    1.3091   -1.0352 H   0  0  0  0  0  0  0  0  0  0  0  0
   -9.4472   -2.0657   -0.5286 H   0  0  0  0  0  0  0  0  0  0  0  0
  -10.4809   -1.1214    0.5590 H   0  0  0  0  0  0  0  0  0  0  0  0
  -11.7787   -1.7206   -1.4703 H   0  0  0  0  0  0  0  0  0  0  0  0
  -10.4843   -1.1030   -2.5239 H   0  0  0  0  0  0  0  0  0  0  0  0
  1  2  1  0
  2  3  1  0
  3  4  1  0
  4  5  1  0
  5  6  1  0
  6  7  2  0
  7  8  1  0
  8  9  2  0
  9 10  1  0
 10 11  1  0
 11 12  2  0
 12 13  1  0
 13 14  1  0
 14 15  1  0
 14 16  2  0
 16 17  1  0
 17 18  2  0
 18 19  1  0
 19 20  2  0
 20 21  1  0
 21 22  1  0
 22 23  2  0
 22 24  1  0
 24 25  1  0
 25 26  1  0
 26 27  1  0
 27 28  1  0
 28 29  1  0
 29 30  1  0
 30 31  1  0
 20 32  1  0
 32 33  2  0
 16 34  1  0
 34 35  2  0
 35 36  1  0
  9 37  1  0
 37 38  2  0
  5 39  1  0
 39 40  1  0
 40  2  1  0
 38  6  1  0
 36 10  2  0
 36 13  1  0
 33 17  1  0
 31 26  1  0
  1 41  1  0
  1 42  1  0
  1 43  1  0
  2 44  1  0
  3 45  1  0
  3 46  1  0
  4 47  1  0
  4 48  1  0
  7 49  1  0
  8 50  1  0
 11 51  1  0
 15 52  1  0
 15 53  1  0
 18 54  1  0
 19 55  1  0
 21 56  1  0
 24 57  1  0
 25 58  1  0
 25 59  1  0
 26 60  1  0
 27 61  1  0
 27 62  1  0
 28 63  1  0
 28 64  1  0
 29 65  1  0
 29 66  1  0
 30 67  1  0
 30 68  1  0
 31 69  1  0
 31 70  1  0
 32 71  1  0
 33 72  1  0
 34 73  1  0
 37 74  1  0
 38 75  1  0
 39 76  1  0
 39 77  1  0
 40 78  1  0
 40 79  1  0
M  CHG  1   2   1
M  END
$$$$
