
     RDKit          3D

 77 83  0  0  0  0  0  0  0  0999 V2000
    3.8920    0.7311   -1.4086 C   0  0  0  0  0  0  0  0  0  0  0  0
    2.4589    0.4282   -1.0473 C   0  0  0  0  0  0  0  0  0  0  0  0
    1.9039   -0.5745   -1.4984 O   0  0  0  0  0  0  0  0  0  0  0  0
    1.7494    1.3968   -0.1983 C   0  0  0  0  0  0  0  0  0  0  0  0
    2.1264    2.6882   -0.2010 N   0  0  0  0  0  0  0  0  0  0  0  0
    1.2156    3.3372    0.5634 N   0  0  0  0  0  0  0  0  0  0  0  0
    1.2885    4.7472    0.7458 C   0  0  0  0  0  0  0  0  0  0  0  0
    2.3204    5.4707    0.1270 C   0  0  0  0  0  0  0  0  0  0  0  0
    2.4096    6.8545    0.2934 C   0  0  0  0  0  0  0  0  0  0  0  0
    1.4724    7.5252    1.0758 C   0  0  0  0  0  0  0  0  0  0  0  0
    0.4443    6.8146    1.6929 C   0  0  0  0  0  0  0  0  0  0  0  0
    0.3482    5.4290    1.5313 C   0  0  0  0  0  0  0  0  0  0  0  0
    0.2971    2.4635    1.0861 C   0  0  0  0  0  0  0  0  0  0  0  0
    0.6272    1.1906    0.6532 C   0  0  0  0  0  0  0  0  0  0  0  0
   -0.0999   -0.0120    1.0485 C   0  0  0  0  0  0  0  0  0  0  0  0
   -1.2617    0.0530    1.4512 O   0  0  0  0  0  0  0  0  0  0  0  0
    0.6383   -1.2825    1.0655 C   0  0  0  0  0  0  0  0  0  0  0  0
    1.9329   -1.3253    1.4405 N   0  0  0  0  0  0  0  0  0  0  0  0
    2.2802   -2.6345    1.3934 N   0  0  0  0  0  0  0  0  0  0  0  0
    3.6180   -3.0403    1.6613 C   0  0  0  0  0  0  0  0  0  0  0  0
    4.5812   -2.0715    1.9872 C   0  0  0  0  0  0  0  0  0  0  0  0
    5.8999   -2.4489    2.2493 C   0  0  0  0  0  0  0  0  0  0  0  0
    6.2669   -3.7912    2.1876 C   0  0  0  0  0  0  0  0  0  0  0  0
    5.3171   -4.7587    1.8639 C   0  0  0  0  0  0  0  0  0  0  0  0
    3.9947   -4.3892    1.6004 C   0  0  0  0  0  0  0  0  0  0  0  0
    1.1998   -3.4237    1.0921 C   0  0  0  0  0  0  0  0  0  0  0  0
    0.1235   -2.5910    0.8400 C   0  0  0  0  0  0  0  0  0  0  0  0
   -1.2071   -3.0648    0.4719 C   0  0  0  0  0  0  0  0  0  0  0  0
   -1.5922   -4.1783    0.8224 O   0  0  0  0  0  0  0  0  0  0  0  0
   -2.0536   -2.1956   -0.3609 C   0  0  0  0  0  0  0  0  0  0  0  0
   -1.5273   -1.3357   -1.2521 N   0  0  0  0  0  0  0  0  0  0  0  0
   -2.5836   -0.7764   -1.8931 N   0  0  0  0  0  0  0  0  0  0  0  0
   -2.3869    0.2226   -2.8871 C   0  0  0  0  0  0  0  0  0  0  0  0
   -1.0826    0.5809   -3.2561 C   0  0  0  0  0  0  0  0  0  0  0  0
   -0.8654    1.5715   -4.2172 C   0  0  0  0  0  0  0  0  0  0  0  0
   -1.9458    2.2094   -4.8346 C   0  0  0  0  0  0  0  0  0  0  0  0
   -1.7113    3.2959   -5.8418 C   0  0  0  0  0  0  0  0  0  0  0  0
   -3.2473    1.8573   -4.4595 C   0  0  0  0  0  0  0  0  0  0  0  0
   -3.4711    0.8665   -3.4968 C   0  0  0  0  0  0  0  0  0  0  0  0
   -3.7697   -1.2917   -1.4360 C   0  0  0  0  0  0  0  0  0  0  0  0
   -3.4761   -2.1810   -0.4210 C   0  0  0  0  0  0  0  0  0  0  0  0
   -4.4738   -2.9184    0.3368 C   0  0  0  0  0  0  0  0  0  0  0  0
   -5.4965   -3.3431   -0.1949 O   0  0  0  0  0  0  0  0  0  0  0  0
   -4.2917   -3.1138    1.7984 C   0  0  0  0  0  0  0  0  0  0  0  0
   -4.7328   -4.3108    2.3752 C   0  0  0  0  0  0  0  0  0  0  0  0
   -4.5843   -4.5212    3.7468 C   0  0  0  0  0  0  0  0  0  0  0  0
   -4.0086   -3.5332    4.5458 C   0  0  0  0  0  0  0  0  0  0  0  0
   -3.5890   -2.3298    3.9788 C   0  0  0  0  0  0  0  0  0  0  0  0
   -3.7361   -2.1137    2.6074 C   0  0  0  0  0  0  0  0  0  0  0  0
    4.3504   -0.1567   -1.8542 H   0  0  0  0  0  0  0  0  0  0  0  0
    4.4598    0.9923   -0.5111 H   0  0  0  0  0  0  0  0  0  0  0  0
    3.9288    1.5504   -2.1311 H   0  0  0  0  0  0  0  0  0  0  0  0
    3.0651    4.9710   -0.4898 H   0  0  0  0  0  0  0  0  0  0  0  0
    3.2116    7.4075   -0.1892 H   0  0  0  0  0  0  0  0  0  0  0  0
    1.5427    8.6024    1.2041 H   0  0  0  0  0  0  0  0  0  0  0  0
   -0.2865    7.3415    2.3020 H   0  0  0  0  0  0  0  0  0  0  0  0
   -0.4706    4.9196    2.0294 H   0  0  0  0  0  0  0  0  0  0  0  0
   -0.5053    2.7833    1.7340 H   0  0  0  0  0  0  0  0  0  0  0  0
    4.3203   -1.0167    2.0451 H   0  0  0  0  0  0  0  0  0  0  0  0
    6.6397   -1.6937    2.5026 H   0  0  0  0  0  0  0  0  0  0  0  0
    7.2938   -4.0840    2.3917 H   0  0  0  0  0  0  0  0  0  0  0  0
    5.6072   -5.8057    1.8149 H   0  0  0  0  0  0  0  0  0  0  0  0
    3.2916   -5.1769    1.3479 H   0  0  0  0  0  0  0  0  0  0  0  0
    1.2598   -4.5013    1.0546 H   0  0  0  0  0  0  0  0  0  0  0  0
   -0.2194    0.0910   -2.8107 H   0  0  0  0  0  0  0  0  0  0  0  0
    0.1561    1.8359   -4.4821 H   0  0  0  0  0  0  0  0  0  0  0  0
   -2.5264    3.3342   -6.5721 H   0  0  0  0  0  0  0  0  0  0  0  0
   -1.6420    4.2646   -5.3376 H   0  0  0  0  0  0  0  0  0  0  0  0
   -0.7850    3.1191   -6.3986 H   0  0  0  0  0  0  0  0  0  0  0  0
   -4.1006    2.3544   -4.9168 H   0  0  0  0  0  0  0  0  0  0  0  0
   -4.5006    0.6331   -3.2440 H   0  0  0  0  0  0  0  0  0  0  0  0
   -4.7271   -0.9965   -1.8387 H   0  0  0  0  0  0  0  0  0  0  0  0
   -5.1825   -5.0839    1.7556 H   0  0  0  0  0  0  0  0  0  0  0  0
   -4.9171   -5.4560    4.1909 H   0  0  0  0  0  0  0  0  0  0  0  0
   -3.8932   -3.6995    5.6141 H   0  0  0  0  0  0  0  0  0  0  0  0
   -3.1527   -1.5560    4.6060 H   0  0  0  0  0  0  0  0  0  0  0  0
   -3.4298   -1.1567    2.1923 H   0  0  0  0  0  0  0  0  0  0  0  0
  1  2  1  0
  2  3  2  0
  2  4  1  0
  4  5  2  0
  5  6  1  0
  6  7  1  0
  7  8  2  0
  8  9  1  0
  9 10  2  0
 10 11  1  0
 11 12  2  0
  6 13  1  0
 13 14  2  0
 14 15  1  0
 15 16  2  0
 15 17  1  0
 17 18  2  0
 18 19  1  0
 19 20  1  0
 20 21  2  0
 21 22  1  0
 22 23  2  0
 23 24  1  0
 24 25  2  0
 19 26  1  0
 26 27  2  0
 27 28  1  0
 28 29  2  0
 28 30  1  0
 30 31  2  0
 31 32  1  0
 32 33  1  0
 33 34  2  0
 34 35  1  0
 35 36  2  0
 36 37  1  0
 36 38  1  0
 38 39  2  0
 32 40  1  0
 40 41  2  0
 41 42  1  0
 42 43  2  0
 42 44  1  0
 44 45  2  0
 45 46  1  0
 46 47  2  0
 47 48  1  0
 48 49  2  0
 14  4  1  0
 27 17  1  0
 41 30  1  0
 49 44  1  0
 12  7  1  0
 25 20  1  0
 39 33  1  0
  1 50  1  0
  1 51  1  0
  1 52  1  0
  8 53  1  0
  9 54  1  0
 10 55  1  0
 11 56  1  0
 12 57  1  0
 13 58  1  0
 21 59  1  0
 22 60  1  0
 23 61  1  0
 24 62  1  0
 25 63  1  0
 26 64  1  0
 34 65  1  0
 35 66  1  0
 37 67  1  0
 37 68  1  0
 37 69  1  0
 38 70  1  0
 39 71  1  0
 40 72  1  0
 45 73  1  0
 46 74  1  0
 47 75  1  0
 48 76  1  0
 49 77  1  0
M  END
$$$$
