
     RDKit          3D

 41 42  0  0  0  0  0  0  0  0999 V2000
    1.7699    1.8219   -0.4009 O   0  0  0  0  0  0  0  0  0  0  0  0
    0.8471    1.1719    0.5140 S   0  0  0  0  0  0  0  0  0  0  0  0
    1.1123    1.1825    1.9397 O   0  0  0  0  0  0  0  0  0  0  0  0
    0.5854   -0.5284   -0.0203 C   0  0  0  0  0  0  0  0  0  0  0  0
    1.9120   -1.2535   -0.0300 C   0  0  0  0  0  0  0  0  0  0  0  0
    2.3973   -1.8593    1.1368 C   0  0  0  0  0  0  0  0  0  0  0  0
    3.6249   -2.5247    1.1332 C   0  0  0  0  0  0  0  0  0  0  0  0
    4.3905   -2.6021   -0.0391 C   0  0  0  0  0  0  0  0  0  0  0  0
    5.7262   -3.2985   -0.0384 C   0  0  0  0  0  0  0  0  0  0  0  0
    6.0431   -3.8549   -1.2432 F   0  0  0  0  0  0  0  0  0  0  0  0
    6.7564   -2.4589    0.2618 F   0  0  0  0  0  0  0  0  0  0  0  0
    5.8043   -4.3176    0.8648 F   0  0  0  0  0  0  0  0  0  0  0  0
    3.9093   -1.9841   -1.2028 C   0  0  0  0  0  0  0  0  0  0  0  0
    2.6813   -1.3186   -1.1988 C   0  0  0  0  0  0  0  0  0  0  0  0
   -0.6679    1.8793    0.2791 N   0  0  0  0  0  0  0  0  0  0  0  0
   -1.0760    2.1540   -1.1132 C   0  0  0  0  0  0  0  0  0  0  0  0
   -2.1398    3.2521   -1.1338 C   0  0  0  0  0  0  0  0  0  0  0  0
   -3.5939    2.7728   -1.0464 C   0  0  0  0  0  0  0  0  0  0  0  0
   -3.9898    2.1191    0.2765 C   0  0  0  0  0  0  0  0  0  0  0  0
   -3.7388    0.6575    0.2965 C   0  0  0  0  0  0  0  0  0  0  0  0
   -4.4627   -0.3771   -0.2666 C   0  0  0  0  0  0  0  0  0  0  0  0
   -3.8555   -1.5364    0.0527 N   0  0  0  0  0  0  0  0  0  0  0  0
   -2.8282   -1.2326    0.8648 C   0  0  0  0  0  0  0  0  0  0  0  0
   -2.6681    0.1095    0.9308 N   0  0  0  0  0  0  0  0  0  0  0  0
    0.1404   -0.5209   -1.0186 H   0  0  0  0  0  0  0  0  0  0  0  0
   -0.0929   -1.0077    0.6851 H   0  0  0  0  0  0  0  0  0  0  0  0
    1.8217   -1.8034    2.0607 H   0  0  0  0  0  0  0  0  0  0  0  0
    3.9818   -2.9799    2.0556 H   0  0  0  0  0  0  0  0  0  0  0  0
    4.4923   -2.0139   -2.1217 H   0  0  0  0  0  0  0  0  0  0  0  0
    2.3317   -0.8385   -2.1112 H   0  0  0  0  0  0  0  0  0  0  0  0
   -1.4008    1.2781    0.7479 H   0  0  0  0  0  0  0  0  0  0  0  0
   -0.2162    2.5287   -1.6781 H   0  0  0  0  0  0  0  0  0  0  0  0
   -1.4322    1.2429   -1.6026 H   0  0  0  0  0  0  0  0  0  0  0  0
   -2.0447    3.7868   -2.0882 H   0  0  0  0  0  0  0  0  0  0  0  0
   -1.9463    3.9923   -0.3473 H   0  0  0  0  0  0  0  0  0  0  0  0
   -4.2252    3.6619   -1.1763 H   0  0  0  0  0  0  0  0  0  0  0  0
   -3.8169    2.1147   -1.8956 H   0  0  0  0  0  0  0  0  0  0  0  0
   -3.4928    2.6062    1.1233 H   0  0  0  0  0  0  0  0  0  0  0  0
   -5.0683    2.2563    0.4281 H   0  0  0  0  0  0  0  0  0  0  0  0
   -5.3649   -0.3155   -0.8568 H   0  0  0  0  0  0  0  0  0  0  0  0
   -2.2060   -1.9621    1.3676 H   0  0  0  0  0  0  0  0  0  0  0  0
  1  2  2  0
  2  3  2  0
  2  4  1  0
  4  5  1  0
  5  6  2  0
  6  7  1  0
  7  8  2  0
  8  9  1  0
  9 10  1  0
  9 11  1  0
  9 12  1  0
  8 13  1  0
 13 14  2  0
  2 15  1  0
 15 16  1  0
 16 17  1  0
 17 18  1  0
 18 19  1  0
 19 20  1  0
 20 21  2  0
 21 22  1  0
 22 23  1  0
 23 24  2  0
 14  5  1  0
 24 20  1  0
  4 25  1  0
  4 26  1  0
  6 27  1  0
  7 28  1  0
 13 29  1  0
 14 30  1  0
 15 31  1  0
 16 32  1  0
 16 33  1  0
 17 34  1  0
 17 35  1  0
 18 36  1  0
 18 37  1  0
 19 38  1  0
 19 39  1  0
 21 40  1  0
 23 41  1  0
M  CHG  1  22  -1
M  END
$$$$
