
     RDKit          3D

 90 96  0  0  0  0  0  0  0  0999 V2000
    8.5755    1.2830    0.9334 C   0  0  0  0  0  0  0  0  0  0  0  0
    7.4940    0.5828    0.1683 C   0  0  0  0  0  0  0  0  0  0  0  0
    7.2157    0.8219   -0.9965 O   0  0  0  0  0  0  0  0  0  0  0  0
    6.8837   -0.3273    0.9712 O   0  0  0  0  0  0  0  0  0  0  0  0
    5.7965   -1.1743    0.4845 C   0  0  0  0  0  0  0  0  0  0  0  0
    5.5025   -2.1036    1.6799 C   0  0  0  0  0  0  0  0  0  0  0  0
    6.2946   -2.0511   -0.6774 C   0  0  0  0  0  0  0  0  0  0  0  0
    4.5707   -0.3097    0.0694 C   0  0  1  0  0  0  0  0  0  0  0  0
    3.3331   -1.1026   -0.3714 C   0  0  0  0  0  0  0  0  0  0  0  0
    2.1802   -0.3392    0.2747 C   0  0  1  0  0  0  0  0  0  0  0  0
    2.7602    0.0412    1.5363 O   0  0  0  0  0  0  0  0  0  0  0  0
    4.0370    0.5954    1.1926 C   0  0  2  0  0  0  0  0  0  0  0  0
    3.7635    2.0359    0.7556 C   0  0  0  0  0  0  0  0  0  0  0  0
    2.6830    2.1872   -0.3359 C   0  0  1  0  0  0  0  0  0  0  0  0
    3.3245    2.6076   -1.6700 C   0  0  0  0  0  0  0  0  0  0  0  0
    1.7873    0.9366   -0.5367 C   0  0  2  0  0  0  0  0  0  0  0  0
    0.2632    1.0873   -0.2320 C   0  0  1  0  0  0  0  0  0  0  0  0
    0.0549    1.7428    1.1696 C   0  0  0  0  0  0  0  0  0  0  0  0
   -0.5066    1.9227   -1.2557 C   0  0  0  0  0  0  0  0  0  0  0  0
   -2.0083    1.6018   -1.3371 C   0  0  0  0  0  0  0  0  0  0  0  0
   -2.6010    0.6219   -0.3148 C   0  0  1  0  0  0  0  0  0  0  0  0
   -3.5567    1.2070    0.7162 C   0  0  0  0  0  0  0  0  0  0  0  0
   -4.1339    0.3609   -0.3873 C   0  0  1  0  0  0  0  0  0  0  0  0
   -4.9896    1.0846   -1.4156 C   0  0  0  0  0  0  0  0  0  0  0  0
   -6.4427    1.1482   -0.9622 C   0  0  0  0  0  0  0  0  0  0  0  0
   -7.0007   -0.2426   -0.6590 C   0  0  2  0  0  0  0  0  0  0  0  0
   -8.3499   -0.1093   -0.2106 O   0  0  0  0  0  0  0  0  0  0  0  0
   -6.1514   -1.0359    0.3815 C   0  0  0  0  0  0  0  0  0  0  0  0
   -6.7128   -2.4772    0.4529 C   0  0  0  0  0  0  0  0  0  0  0  0
   -6.2987   -0.4284    1.7935 C   0  0  0  0  0  0  0  0  0  0  0  0
   -4.6631   -1.0570   -0.1155 C   0  0  2  0  0  0  0  0  0  0  0  0
   -3.7052   -1.9012    0.7360 C   0  0  0  0  0  0  0  0  0  0  0  0
   -2.3101   -1.8860    0.1169 C   0  0  0  0  0  0  0  0  0  0  0  0
   -1.6705   -0.4957    0.2384 C   0  0  1  0  0  0  0  0  0  0  0  0
   -0.2222   -0.4067   -0.3258 C   0  0  1  0  0  0  0  0  0  0  0  0
   -0.1752   -1.0142   -1.7647 C   0  0  0  0  0  0  0  0  0  0  0  0
    0.8533   -1.1131    0.5478 C   0  0  1  0  0  0  0  0  0  0  0  0
    0.9472   -2.5082    0.2940 O   0  0  0  0  0  0  0  0  0  0  0  0
    9.3080    0.5551    1.2911 H   0  0  0  0  0  0  0  0  0  0  0  0
    9.0848    1.9922    0.2747 H   0  0  0  0  0  0  0  0  0  0  0  0
    8.1391    1.8342    1.7702 H   0  0  0  0  0  0  0  0  0  0  0  0
    5.1782   -1.5409    2.5611 H   0  0  0  0  0  0  0  0  0  0  0  0
    6.4154   -2.6304    1.9848 H   0  0  0  0  0  0  0  0  0  0  0  0
    4.7459   -2.8601    1.4560 H   0  0  0  0  0  0  0  0  0  0  0  0
    5.5794   -2.8436   -0.9215 H   0  0  0  0  0  0  0  0  0  0  0  0
    7.2547   -2.5176   -0.4290 H   0  0  0  0  0  0  0  0  0  0  0  0
    6.4564   -1.4663   -1.5881 H   0  0  0  0  0  0  0  0  0  0  0  0
    4.8894    0.3210   -0.7641 H   0  0  0  0  0  0  0  0  0  0  0  0
    3.3759   -2.1270    0.0038 H   0  0  0  0  0  0  0  0  0  0  0  0
    3.2499   -1.1657   -1.4611 H   0  0  0  0  0  0  0  0  0  0  0  0
    4.6708    0.6085    2.0838 H   0  0  0  0  0  0  0  0  0  0  0  0
    3.3939    2.5743    1.6395 H   0  0  0  0  0  0  0  0  0  0  0  0
    4.7004    2.5276    0.4690 H   0  0  0  0  0  0  0  0  0  0  0  0
    2.0659    3.0507   -0.0661 H   0  0  0  0  0  0  0  0  0  0  0  0
    2.5513    2.8300   -2.4138 H   0  0  0  0  0  0  0  0  0  0  0  0
    3.9689    1.8258   -2.0813 H   0  0  0  0  0  0  0  0  0  0  0  0
    3.9274    3.5134   -1.5439 H   0  0  0  0  0  0  0  0  0  0  0  0
    1.8622    0.6816   -1.6006 H   0  0  0  0  0  0  0  0  0  0  0  0
    0.4570    2.7597    1.2046 H   0  0  0  0  0  0  0  0  0  0  0  0
    0.5299    1.1849    1.9797 H   0  0  0  0  0  0  0  0  0  0  0  0
   -0.9994    1.8479    1.4333 H   0  0  0  0  0  0  0  0  0  0  0  0
   -0.3764    2.9927   -1.0465 H   0  0  0  0  0  0  0  0  0  0  0  0
   -0.0790    1.7894   -2.2583 H   0  0  0  0  0  0  0  0  0  0  0  0
   -2.5365    2.5620   -1.2865 H   0  0  0  0  0  0  0  0  0  0  0  0
   -2.2257    1.2106   -2.3390 H   0  0  0  0  0  0  0  0  0  0  0  0
   -3.5443    0.8171    1.7287 H   0  0  0  0  0  0  0  0  0  0  0  0
   -3.7405    2.2775    0.7059 H   0  0  0  0  0  0  0  0  0  0  0  0
   -4.9181    0.5592   -2.3758 H   0  0  0  0  0  0  0  0  0  0  0  0
   -4.6469    2.1094   -1.5902 H   0  0  0  0  0  0  0  0  0  0  0  0
   -6.5400    1.7937   -0.0807 H   0  0  0  0  0  0  0  0  0  0  0  0
   -7.0503    1.6263   -1.7406 H   0  0  0  0  0  0  0  0  0  0  0  0
   -7.0356   -0.8137   -1.5964 H   0  0  0  0  0  0  0  0  0  0  0  0
   -8.8455    0.3592   -0.9036 H   0  0  0  0  0  0  0  0  0  0  0  0
   -7.7841   -2.4798    0.6839 H   0  0  0  0  0  0  0  0  0  0  0  0
   -6.5791   -3.0005   -0.5004 H   0  0  0  0  0  0  0  0  0  0  0  0
   -6.2210   -3.0669    1.2333 H   0  0  0  0  0  0  0  0  0  0  0  0
   -7.3394   -0.4671    2.1354 H   0  0  0  0  0  0  0  0  0  0  0  0
   -5.9899    0.6190    1.8315 H   0  0  0  0  0  0  0  0  0  0  0  0
   -5.7057   -0.9776    2.5319 H   0  0  0  0  0  0  0  0  0  0  0  0
   -4.6803   -1.5477   -1.1020 H   0  0  0  0  0  0  0  0  0  0  0  0
   -3.6563   -1.5463    1.7706 H   0  0  0  0  0  0  0  0  0  0  0  0
   -4.0471   -2.9410    0.7703 H   0  0  0  0  0  0  0  0  0  0  0  0
   -1.6889   -2.6276    0.6309 H   0  0  0  0  0  0  0  0  0  0  0  0
   -2.3939   -2.1988   -0.9294 H   0  0  0  0  0  0  0  0  0  0  0  0
   -1.5905   -0.3184    1.3205 H   0  0  0  0  0  0  0  0  0  0  0  0
    0.8034   -0.9214   -2.2410 H   0  0  0  0  0  0  0  0  0  0  0  0
   -0.3888   -2.0884   -1.7552 H   0  0  0  0  0  0  0  0  0  0  0  0
   -0.9046   -0.5604   -2.4386 H   0  0  0  0  0  0  0  0  0  0  0  0
    0.5841   -1.0185    1.6072 H   0  0  0  0  0  0  0  0  0  0  0  0
    1.4936   -2.8826    1.0078 H   0  0  0  0  0  0  0  0  0  0  0  0
  1  2  1  0
  2  3  2  0
  2  4  1  0
  4  5  1  0
  5  6  1  0
  5  7  1  0
  5  8  1  0
  8  9  1  0
 10  9  1  6
 10 11  1  0
 11 12  1  0
 12 13  1  0
 13 14  1  0
 14 15  1  0
 14 16  1  0
 16 17  1  0
 17 18  1  1
 17 19  1  0
 19 20  1  0
 21 20  1  6
 21 22  1  0
 23 22  1  1
 23 24  1  0
 24 25  1  0
 25 26  1  0
 26 27  1  0
 26 28  1  0
 28 29  1  0
 28 30  1  0
 28 31  1  0
 31 32  1  0
 32 33  1  0
 33 34  1  0
 34 35  1  0
 35 36  1  6
 35 37  1  0
 37 38  1  0
 12  8  1  0
 35 17  1  0
 16 10  1  0
 23 21  1  0
 37 10  1  0
 34 21  1  0
 31 23  1  0
  1 39  1  0
  1 40  1  0
  1 41  1  0
  6 42  1  0
  6 43  1  0
  6 44  1  0
  7 45  1  0
  7 46  1  0
  7 47  1  0
  8 48  1  6
  9 49  1  0
  9 50  1  0
 12 51  1  1
 13 52  1  0
 13 53  1  0
 14 54  1  1
 15 55  1  0
 15 56  1  0
 15 57  1  0
 16 58  1  6
 18 59  1  0
 18 60  1  0
 18 61  1  0
 19 62  1  0
 19 63  1  0
 20 64  1  0
 20 65  1  0
 22 66  1  0
 22 67  1  0
 24 68  1  0
 24 69  1  0
 25 70  1  0
 25 71  1  0
 26 72  1  6
 27 73  1  0
 29 74  1  0
 29 75  1  0
 29 76  1  0
 30 77  1  0
 30 78  1  0
 30 79  1  0
 31 80  1  6
 32 81  1  0
 32 82  1  0
 33 83  1  0
 33 84  1  0
 34 85  1  1
 36 86  1  0
 36 87  1  0
 36 88  1  0
 37 89  1  1
 38 90  1  0
M  END
$$$$
