
     RDKit          3D

 43 46  0  0  0  0  0  0  0  0999 V2000
    1.2431   -1.2298    0.2608 N   0  0  0  0  0  0  0  0  0  0  0  0
   -0.1475   -1.1600   -0.2225 C   0  0  2  0  0  0  0  0  0  0  0  0
   -0.6413    0.3175   -0.2653 C   0  0  0  0  0  0  0  0  0  0  0  0
   -0.6046    0.9992    1.0320 N   0  0  0  0  0  0  0  0  0  0  0  0
   -0.1918    2.2832    1.1849 C   0  0  0  0  0  0  0  0  0  0  0  0
    0.2380    2.8072    2.3217 N   0  0  0  0  0  0  0  0  0  0  0  0
    1.0432    3.9321    2.0891 N   0  0  0  0  0  0  0  0  0  0  0  0
    1.3870    3.9470    0.8061 C   0  0  0  0  0  0  0  0  0  0  0  0
    2.6830    3.4007    0.2882 C   0  0  0  0  0  0  0  0  0  0  0  0
    3.4914    2.7489    1.2556 C   0  0  0  0  0  0  0  0  0  0  0  0
    4.0007    1.4648    1.0192 C   0  0  0  0  0  0  0  0  0  0  0  0
    3.6113    0.8616   -0.1848 C   0  0  0  0  0  0  0  0  0  0  0  0
    3.5110   -0.4500   -0.5163 N   0  0  0  0  0  0  0  0  0  0  0  0
    2.8569   -0.5219   -1.6943 N   0  0  0  0  0  0  0  0  0  0  0  0
    2.8366    0.7349   -2.1891 C   0  0  0  0  0  0  0  0  0  0  0  0
    3.0663    1.6490   -1.1968 C   0  0  0  0  0  0  0  0  0  0  0  0
    2.7433    2.9934   -1.0643 C   0  0  0  0  0  0  0  0  0  0  0  0
   -0.0816    3.4882   -0.0760 S   0  0  0  0  0  0  0  0  0  0  0  0
   -1.0091   -2.0787    0.6615 C   0  0  0  0  0  0  0  0  0  0  0  0
   -2.4255   -2.2346    0.1615 C   0  0  0  0  0  0  0  0  0  0  0  0
   -3.4850   -1.5778    0.8069 C   0  0  0  0  0  0  0  0  0  0  0  0
   -4.7903   -1.7105    0.3306 C   0  0  0  0  0  0  0  0  0  0  0  0
   -5.0375   -2.4989   -0.7861 C   0  0  0  0  0  0  0  0  0  0  0  0
   -6.2904   -2.6243   -1.2413 F   0  0  0  0  0  0  0  0  0  0  0  0
   -4.0030   -3.1593   -1.4367 C   0  0  0  0  0  0  0  0  0  0  0  0
   -2.6963   -3.0290   -0.9644 C   0  0  0  0  0  0  0  0  0  0  0  0
    1.5360   -0.5451    0.9629 H   0  0  0  0  0  0  0  0  0  0  0  0
    1.6665   -2.1384    0.4568 H   0  0  0  0  0  0  0  0  0  0  0  0
    1.9484   -0.9347   -0.5132 H   0  0  0  0  0  0  0  0  0  0  0  0
   -0.1259   -1.5530   -1.2459 H   0  0  0  0  0  0  0  0  0  0  0  0
   -0.0132    0.8367   -0.9974 H   0  0  0  0  0  0  0  0  0  0  0  0
   -1.6643    0.3616   -0.6546 H   0  0  0  0  0  0  0  0  0  0  0  0
   -0.7742    0.4734    1.8819 H   0  0  0  0  0  0  0  0  0  0  0  0
    3.5223    3.1233    2.2795 H   0  0  0  0  0  0  0  0  0  0  0  0
    4.4961    0.8814    1.7839 H   0  0  0  0  0  0  0  0  0  0  0  0
    2.4875    0.9377   -3.1946 H   0  0  0  0  0  0  0  0  0  0  0  0
    2.2333    3.5058   -1.8704 H   0  0  0  0  0  0  0  0  0  0  0  0
   -0.5586   -3.0801    0.7037 H   0  0  0  0  0  0  0  0  0  0  0  0
   -1.0163   -1.7246    1.7000 H   0  0  0  0  0  0  0  0  0  0  0  0
   -3.3091   -0.9578    1.6839 H   0  0  0  0  0  0  0  0  0  0  0  0
   -5.6162   -1.2063    0.8233 H   0  0  0  0  0  0  0  0  0  0  0  0
   -4.2223   -3.7734   -2.3050 H   0  0  0  0  0  0  0  0  0  0  0  0
   -1.8974   -3.5593   -1.4801 H   0  0  0  0  0  0  0  0  0  0  0  0
  1  2  1  0
  2  3  1  0
  3  4  1  0
  4  5  1  0
  5  6  2  0
  6  7  1  0
  7  8  2  0
  8  9  1  0
  9 10  2  0
 10 11  1  0
 11 12  2  0
 12 13  1  0
 13 14  1  0
 14 15  2  0
 15 16  1  0
 16 17  2  0
  8 18  1  0
  2 19  1  0
 19 20  1  0
 20 21  2  0
 21 22  1  0
 22 23  2  0
 23 24  1  0
 23 25  1  0
 25 26  2  0
 18  5  1  0
 26 20  1  0
 17  9  1  0
 16 12  1  0
  1 27  1  0
  1 28  1  0
  1 29  1  0
  2 30  1  6
  3 31  1  0
  3 32  1  0
  4 33  1  0
 10 34  1  0
 11 35  1  0
 15 36  1  0
 17 37  1  0
 19 38  1  0
 19 39  1  0
 21 40  1  0
 22 41  1  0
 25 42  1  0
 26 43  1  0
M  CHG  2   1   1  13  -1
M  END
$$$$
