
     RDKit          3D

 59 63  0  0  0  0  0  0  0  0999 V2000
   -8.8239    1.3198   -0.0719 C   0  0  0  0  0  0  0  0  0  0  0  0
   -7.8195    0.3713   -0.4202 O   0  0  0  0  0  0  0  0  0  0  0  0
   -6.5649    0.7040    0.0542 C   0  0  0  0  0  0  0  0  0  0  0  0
   -5.5523   -0.1755   -0.2586 C   0  0  0  0  0  0  0  0  0  0  0  0
   -4.2965    0.1511    0.2068 C   0  0  0  0  0  0  0  0  0  0  0  0
   -3.1699   -0.6990   -0.0622 N   0  0  0  0  0  0  0  0  0  0  0  0
   -1.8231   -0.2926   -0.0334 C   0  0  0  0  0  0  0  0  0  0  0  0
   -1.4797    0.9590    0.3704 N   0  0  0  0  0  0  0  0  0  0  0  0
   -0.2065    1.5642    0.4650 C   0  0  0  0  0  0  0  0  0  0  0  0
    0.9856    0.8544    0.2405 C   0  0  0  0  0  0  0  0  0  0  0  0
    2.2490    1.4611    0.3157 C   0  0  0  0  0  0  0  0  0  0  0  0
    3.3698    0.6402    0.0662 N   0  0  0  0  0  0  0  0  0  0  0  0
    4.7034    0.9962    0.1245 C   0  0  0  0  0  0  0  0  0  0  0  0
    5.1670    2.0708    0.4867 O   0  0  0  0  0  0  0  0  0  0  0  0
    5.6577   -0.0810   -0.2658 C   0  0  0  0  0  0  0  0  0  0  0  0
    5.3668   -0.9875   -1.2930 C   0  0  0  0  0  0  0  0  0  0  0  0
    6.2930   -1.9739   -1.6351 C   0  0  0  0  0  0  0  0  0  0  0  0
    7.5126   -2.0546   -0.9601 C   0  0  0  0  0  0  0  0  0  0  0  0
    7.8246   -1.1482    0.0654 C   0  0  0  0  0  0  0  0  0  0  0  0
    9.1568   -1.2115    0.7714 C   0  0  0  0  0  0  0  0  0  0  0  0
   10.0909   -0.4110    0.1897 F   0  0  0  0  0  0  0  0  0  0  0  0
    9.0892   -0.8274    2.0760 F   0  0  0  0  0  0  0  0  0  0  0  0
    9.6936   -2.4643    0.7829 F   0  0  0  0  0  0  0  0  0  0  0  0
    6.8905   -0.1536    0.3973 C   0  0  0  0  0  0  0  0  0  0  0  0
    2.3275    2.8149    0.6155 C   0  0  0  0  0  0  0  0  0  0  0  0
    1.1618    3.5495    0.8359 C   0  0  0  0  0  0  0  0  0  0  0  0
   -0.1041    2.9438    0.7588 C   0  0  0  0  0  0  0  0  0  0  0  0
   -1.3181    3.8020    0.9976 C   0  0  0  0  0  0  0  0  0  0  0  0
   -1.0402   -1.2459   -0.4917 N   0  0  0  0  0  0  0  0  0  0  0  0
   -1.8371   -2.3292   -0.7069 C   0  0  0  0  0  0  0  0  0  0  0  0
   -1.4633   -3.6106   -1.1429 C   0  0  0  0  0  0  0  0  0  0  0  0
   -2.4339   -4.6113   -1.2266 C   0  0  0  0  0  0  0  0  0  0  0  0
   -3.7506   -4.3447   -0.8641 C   0  0  0  0  0  0  0  0  0  0  0  0
   -4.1416   -3.0696   -0.4356 C   0  0  0  0  0  0  0  0  0  0  0  0
   -3.1679   -2.0532   -0.4014 C   0  0  0  0  0  0  0  0  0  0  0  0
   -4.0707    1.3046    0.8892 N   0  0  0  0  0  0  0  0  0  0  0  0
   -5.1388    2.0770    1.1438 C   0  0  0  0  0  0  0  0  0  0  0  0
   -6.3929    1.8296    0.7625 N   0  0  0  0  0  0  0  0  0  0  0  0
   -8.6108    2.3014   -0.5092 H   0  0  0  0  0  0  0  0  0  0  0  0
   -8.9433    1.3898    1.0148 H   0  0  0  0  0  0  0  0  0  0  0  0
   -9.7726    0.9684   -0.4891 H   0  0  0  0  0  0  0  0  0  0  0  0
   -5.7701   -1.0251   -0.8862 H   0  0  0  0  0  0  0  0  0  0  0  0
   -2.2435    1.5484    0.6993 H   0  0  0  0  0  0  0  0  0  0  0  0
    0.9366   -0.2048    0.0120 H   0  0  0  0  0  0  0  0  0  0  0  0
    3.1531   -0.3258   -0.1432 H   0  0  0  0  0  0  0  0  0  0  0  0
    4.4403   -0.9187   -1.8576 H   0  0  0  0  0  0  0  0  0  0  0  0
    6.0704   -2.6733   -2.4383 H   0  0  0  0  0  0  0  0  0  0  0  0
    8.2281   -2.8261   -1.2441 H   0  0  0  0  0  0  0  0  0  0  0  0
    7.1214    0.5705    1.1797 H   0  0  0  0  0  0  0  0  0  0  0  0
    3.2785    3.3331    0.6807 H   0  0  0  0  0  0  0  0  0  0  0  0
    1.2535    4.6092    1.0655 H   0  0  0  0  0  0  0  0  0  0  0  0
   -1.8529    3.4616    1.8901 H   0  0  0  0  0  0  0  0  0  0  0  0
   -1.9865    3.7673    0.1311 H   0  0  0  0  0  0  0  0  0  0  0  0
   -1.0473    4.8514    1.1564 H   0  0  0  0  0  0  0  0  0  0  0  0
   -0.4273   -3.8164   -1.3897 H   0  0  0  0  0  0  0  0  0  0  0  0
   -2.1513   -5.6088   -1.5544 H   0  0  0  0  0  0  0  0  0  0  0  0
   -4.4882   -5.1444   -0.9041 H   0  0  0  0  0  0  0  0  0  0  0  0
   -5.1661   -2.9134   -0.1170 H   0  0  0  0  0  0  0  0  0  0  0  0
   -4.9666    2.9867    1.7096 H   0  0  0  0  0  0  0  0  0  0  0  0
  1  2  1  0
  2  3  1  0
  3  4  2  0
  4  5  1  0
  5  6  1  0
  6  7  1  0
  7  8  1  0
  8  9  1  0
  9 10  2  0
 10 11  1  0
 11 12  1  0
 12 13  1  0
 13 14  2  0
 13 15  1  0
 15 16  2  0
 16 17  1  0
 17 18  2  0
 18 19  1  0
 19 20  1  0
 20 21  1  0
 20 22  1  0
 20 23  1  0
 19 24  2  0
 11 25  2  0
 25 26  1  0
 26 27  2  0
 27 28  1  0
  7 29  2  0
 29 30  1  0
 30 31  2  0
 31 32  1  0
 32 33  2  0
 33 34  1  0
 34 35  2  0
  5 36  2  0
 36 37  1  0
 37 38  2  0
 38  3  1  0
 35  6  1  0
 27  9  1  0
 35 30  1  0
 24 15  1  0
  1 39  1  0
  1 40  1  0
  1 41  1  0
  4 42  1  0
  8 43  1  0
 10 44  1  0
 12 45  1  0
 16 46  1  0
 17 47  1  0
 18 48  1  0
 24 49  1  0
 25 50  1  0
 26 51  1  0
 28 52  1  0
 28 53  1  0
 28 54  1  0
 31 55  1  0
 32 56  1  0
 33 57  1  0
 34 58  1  0
 37 59  1  0
M  END
$$$$
