
     RDKit          3D

 53 55  0  0  0  0  0  0  0  0999 V2000
    9.8630    0.4017    0.2201 C   0  0  0  0  0  0  0  0  0  0  0  0
    8.6993    1.0425    0.3934 C   0  0  0  0  0  0  0  0  0  0  0  0
    7.3589    0.3760    0.4785 C   0  0  0  0  0  0  0  0  0  0  0  0
    6.5298    0.9572   -0.5253 O   0  0  0  0  0  0  0  0  0  0  0  0
    5.2463    0.4947   -0.6186 C   0  0  0  0  0  0  0  0  0  0  0  0
    4.6566   -0.4683    0.2009 C   0  0  0  0  0  0  0  0  0  0  0  0
    3.3251   -0.8480   -0.0066 C   0  0  0  0  0  0  0  0  0  0  0  0
    2.5731   -0.2662   -1.0323 C   0  0  0  0  0  0  0  0  0  0  0  0
    1.1804   -0.6582   -1.2580 C   0  0  0  0  0  0  0  0  0  0  0  0
    0.1453   -0.3244   -0.4614 C   0  0  0  0  0  0  0  0  0  0  0  0
    0.2417    0.5484    0.7555 C   0  0  0  0  0  0  0  0  0  0  0  0
   -1.1970   -0.8323   -0.8978 C   0  0  0  0  0  0  0  0  0  0  0  0
   -1.4101   -1.1997   -2.0475 O   0  0  0  0  0  0  0  0  0  0  0  0
   -2.1618   -0.8381    0.0686 N   0  0  0  0  0  0  0  0  0  0  0  0
   -3.5198   -1.4157   -0.0257 C   0  0  2  0  0  0  0  0  0  0  0  0
   -4.3732   -1.0638   -1.2699 C   0  0  2  0  0  0  0  0  0  0  0  0
   -3.8746   -1.5810   -2.5052 O   0  0  0  0  0  0  0  0  0  0  0  0
   -4.5858    0.4492   -1.3835 C   0  0  1  0  0  0  0  0  0  0  0  0
   -5.3611    0.7463   -2.5507 O   0  0  0  0  0  0  0  0  0  0  0  0
   -5.2686    1.0051   -0.1326 C   0  0  1  0  0  0  0  0  0  0  0  0
   -6.6045    0.5097    0.0540 O   0  0  0  0  0  0  0  0  0  0  0  0
   -6.8715    0.7773    1.4329 C   0  0  0  0  0  0  0  0  0  0  0  0
   -5.6313    0.8397    2.1544 O   0  0  0  0  0  0  0  0  0  0  0  0
   -4.6208    0.5678    1.1639 C   0  0  1  0  0  0  0  0  0  0  0  0
   -4.3017   -0.9444    1.2203 C   0  0  2  0  0  0  0  0  0  0  0  0
   -3.5181   -1.1977    2.4024 O   0  0  0  0  0  0  0  0  0  0  0  0
    3.1653    0.6930   -1.8558 C   0  0  0  0  0  0  0  0  0  0  0  0
    4.4937    1.0709   -1.6453 C   0  0  0  0  0  0  0  0  0  0  0  0
   10.7960    0.9541    0.1624 H   0  0  0  0  0  0  0  0  0  0  0  0
    9.9132   -0.6783    0.1224 H   0  0  0  0  0  0  0  0  0  0  0  0
    8.6999    2.1268    0.4782 H   0  0  0  0  0  0  0  0  0  0  0  0
    6.9405    0.5690    1.4735 H   0  0  0  0  0  0  0  0  0  0  0  0
    7.4535   -0.7042    0.3152 H   0  0  0  0  0  0  0  0  0  0  0  0
    5.2005   -0.9464    1.0085 H   0  0  0  0  0  0  0  0  0  0  0  0
    2.8823   -1.6053    0.6364 H   0  0  0  0  0  0  0  0  0  0  0  0
    1.0287   -1.2625   -2.1520 H   0  0  0  0  0  0  0  0  0  0  0  0
    1.1793    1.1105    0.8014 H   0  0  0  0  0  0  0  0  0  0  0  0
   -0.5626    1.2922    0.7620 H   0  0  0  0  0  0  0  0  0  0  0  0
    0.1698   -0.0545    1.6664 H   0  0  0  0  0  0  0  0  0  0  0  0
   -1.8614   -0.7092    1.0302 H   0  0  0  0  0  0  0  0  0  0  0  0
   -3.3600   -2.4999    0.0122 H   0  0  0  0  0  0  0  0  0  0  0  0
   -5.3537   -1.5452   -1.1626 H   0  0  0  0  0  0  0  0  0  0  0  0
   -2.8972   -1.4687   -2.5101 H   0  0  0  0  0  0  0  0  0  0  0  0
   -3.6202    0.9469   -1.5291 H   0  0  0  0  0  0  0  0  0  0  0  0
   -5.0989    0.0753   -3.2144 H   0  0  0  0  0  0  0  0  0  0  0  0
   -5.3471    2.0978   -0.2005 H   0  0  0  0  0  0  0  0  0  0  0  0
   -7.4983   -0.0179    1.8459 H   0  0  0  0  0  0  0  0  0  0  0  0
   -7.3887    1.7371    1.5297 H   0  0  0  0  0  0  0  0  0  0  0  0
   -3.7323    1.1610    1.4058 H   0  0  0  0  0  0  0  0  0  0  0  0
   -5.2195   -1.5360    1.3247 H   0  0  0  0  0  0  0  0  0  0  0  0
   -4.0512   -0.8584    3.1491 H   0  0  0  0  0  0  0  0  0  0  0  0
    2.6012    1.1544   -2.6630 H   0  0  0  0  0  0  0  0  0  0  0  0
    4.9479    1.8199   -2.2899 H   0  0  0  0  0  0  0  0  0  0  0  0
  1  2  2  0
  2  3  1  0
  3  4  1  0
  4  5  1  0
  5  6  2  0
  6  7  1  0
  7  8  2  0
  8  9  1  0
  9 10  2  0
 10 11  1  0
 10 12  1  0
 12 13  2  0
 12 14  1  0
 14 15  1  0
 15 16  1  0
 16 17  1  0
 16 18  1  0
 18 19  1  0
 18 20  1  0
 20 21  1  0
 21 22  1  0
 22 23  1  0
 23 24  1  0
 24 25  1  0
 25 26  1  0
  8 27  1  0
 27 28  2  0
 28  5  1  0
 25 15  1  0
 24 20  1  0
  1 29  1  0
  1 30  1  0
  2 31  1  0
  3 32  1  0
  3 33  1  0
  6 34  1  0
  7 35  1  0
  9 36  1  0
 11 37  1  0
 11 38  1  0
 11 39  1  0
 14 40  1  0
 15 41  1  1
 16 42  1  1
 17 43  1  0
 18 44  1  6
 19 45  1  0
 20 46  1  6
 22 47  1  0
 22 48  1  0
 24 49  1  1
 25 50  1  1
 26 51  1  0
 27 52  1  0
 28 53  1  0
M  END
$$$$
