
     RDKit          3D

 73 78  0  0  0  0  0  0  0  0999 V2000
   -6.0993    3.0189    0.6726 C   0  0  0  0  0  0  0  0  0  0  0  0
   -5.0043    2.0135    0.4617 C   0  0  0  0  0  0  0  0  0  0  0  0
   -4.8743    0.9266    1.2426 C   0  0  0  0  0  0  0  0  0  0  0  0
   -3.7857   -0.1034    1.1102 C   0  0  1  0  0  0  0  0  0  0  0  0
   -4.4538   -1.2943    0.6703 O   0  0  0  0  0  0  0  0  0  0  0  0
   -3.6032   -2.3744    0.2827 C   0  0  2  0  0  0  0  0  0  0  0  0
   -2.5502   -2.7069    1.3464 C   0  0  0  0  0  0  0  0  0  0  0  0
   -1.3257   -1.8202    0.9941 C   0  0  1  0  0  0  0  0  0  0  0  0
   -0.1963   -2.6554    0.6593 O   0  0  0  0  0  0  0  0  0  0  0  0
    0.4163   -3.2812    1.6917 C   0  0  0  0  0  0  0  0  0  0  0  0
    0.0875   -3.2379    2.8659 O   0  0  0  0  0  0  0  0  0  0  0  0
    1.4997   -4.1446    1.1873 C   0  0  0  0  0  0  0  0  0  0  0  0
    2.5385   -3.7577    0.4299 C   0  0  0  0  0  0  0  0  0  0  0  0
    2.8459   -2.4069    0.0152 C   0  0  0  0  0  0  0  0  0  0  0  0
    3.8537   -2.1014   -0.8201 C   0  0  0  0  0  0  0  0  0  0  0  0
    4.2274   -0.7076   -1.2541 C   0  0  1  0  0  0  0  0  0  0  0  0
    3.5410    0.2694   -0.4627 O   0  0  0  0  0  0  0  0  0  0  0  0
    4.5022    1.2902   -0.1577 C   0  0  2  0  0  0  0  0  0  0  0  0
    3.9108    2.6776   -0.4443 C   0  0  0  0  0  0  0  0  0  0  0  0
    2.7325    2.9788    0.4721 C   0  0  0  0  0  0  0  0  0  0  0  0
    3.0985    3.5609    1.8088 C   0  0  0  0  0  0  0  0  0  0  0  0
    1.4941    2.6346    0.0657 C   0  0  0  0  0  0  0  0  0  0  0  0
    0.2622    2.6055    0.8890 C   0  0  0  0  0  0  0  0  0  0  0  0
    0.0977    3.0976    1.9893 O   0  0  0  0  0  0  0  0  0  0  0  0
   -0.6231    1.8191    0.2229 O   0  0  0  0  0  0  0  0  0  0  0  0
   -1.7186    1.3467    1.0123 C   0  0  0  0  0  0  0  0  0  0  0  0
   -2.5889    0.3404    0.1917 C   0  0  2  0  0  0  0  0  0  0  0  0
   -3.1785    1.0916   -1.0458 C   0  0  0  0  0  0  0  0  0  0  0  0
   -4.0661    2.2900   -0.6825 C   0  0  0  0  0  0  0  0  0  0  0  0
   -1.7613   -0.9662   -0.2679 C   0  0  1  0  0  0  0  0  0  0  0  0
   -0.5763   -0.6891   -1.2056 C   0  0  0  0  0  0  0  0  0  0  0  0
   -2.7865   -1.9117   -0.8684 C   0  0  2  0  0  0  0  0  0  0  0  0
   -3.1926   -2.0382   -2.3181 C   0  0  0  0  0  0  0  0  0  0  0  0
   -2.2846   -2.9653   -1.7053 O   0  0  0  0  0  0  0  0  0  0  0  0
    5.6821    1.0637   -0.9348 O   0  0  0  0  0  0  0  0  0  0  0  0
    5.7017   -0.3621   -1.0711 C   0  0  2  0  0  0  0  0  0  0  0  0
    6.5841   -0.7656   -2.2365 C   0  0  0  0  0  0  0  0  0  0  0  0
   -5.6724    4.0094    0.8600 H   0  0  0  0  0  0  0  0  0  0  0  0
   -6.7353    2.7628    1.5264 H   0  0  0  0  0  0  0  0  0  0  0  0
   -6.7384    3.0767   -0.2144 H   0  0  0  0  0  0  0  0  0  0  0  0
   -5.5930    0.7443    2.0390 H   0  0  0  0  0  0  0  0  0  0  0  0
   -3.4123   -0.2899    2.1251 H   0  0  0  0  0  0  0  0  0  0  0  0
   -4.2341   -3.2391    0.0555 H   0  0  0  0  0  0  0  0  0  0  0  0
   -2.9137   -2.5050    2.3589 H   0  0  0  0  0  0  0  0  0  0  0  0
   -2.2861   -3.7689    1.2840 H   0  0  0  0  0  0  0  0  0  0  0  0
   -1.0343   -1.1850    1.8342 H   0  0  0  0  0  0  0  0  0  0  0  0
    1.4170   -5.1767    1.5097 H   0  0  0  0  0  0  0  0  0  0  0  0
    3.2473   -4.5270    0.1271 H   0  0  0  0  0  0  0  0  0  0  0  0
    2.2316   -1.6042    0.4192 H   0  0  0  0  0  0  0  0  0  0  0  0
    4.4558   -2.9006   -1.2464 H   0  0  0  0  0  0  0  0  0  0  0  0
    3.9161   -0.5541   -2.2943 H   0  0  0  0  0  0  0  0  0  0  0  0
    4.7708    1.1958    0.9019 H   0  0  0  0  0  0  0  0  0  0  0  0
    3.5925    2.7219   -1.4946 H   0  0  0  0  0  0  0  0  0  0  0  0
    4.6826    3.4499   -0.3419 H   0  0  0  0  0  0  0  0  0  0  0  0
    3.6053    2.8115    2.4247 H   0  0  0  0  0  0  0  0  0  0  0  0
    3.7782    4.4095    1.6735 H   0  0  0  0  0  0  0  0  0  0  0  0
    2.2446    3.9418    2.3703 H   0  0  0  0  0  0  0  0  0  0  0  0
    1.3676    2.1994   -0.9233 H   0  0  0  0  0  0  0  0  0  0  0  0
   -1.3253    0.8704    1.9165 H   0  0  0  0  0  0  0  0  0  0  0  0
   -2.3042    2.2109    1.3438 H   0  0  0  0  0  0  0  0  0  0  0  0
   -2.3850    1.4465   -1.7119 H   0  0  0  0  0  0  0  0  0  0  0  0
   -3.7971    0.4101   -1.6388 H   0  0  0  0  0  0  0  0  0  0  0  0
   -3.4425    3.1569   -0.4331 H   0  0  0  0  0  0  0  0  0  0  0  0
   -4.6439    2.5676   -1.5728 H   0  0  0  0  0  0  0  0  0  0  0  0
    0.2558   -0.2203   -0.6747 H   0  0  0  0  0  0  0  0  0  0  0  0
   -0.1766   -1.6104   -1.6447 H   0  0  0  0  0  0  0  0  0  0  0  0
   -0.8542   -0.0515   -2.0485 H   0  0  0  0  0  0  0  0  0  0  0  0
   -4.1943   -2.3853   -2.5405 H   0  0  0  0  0  0  0  0  0  0  0  0
   -2.7838   -1.3512   -3.0473 H   0  0  0  0  0  0  0  0  0  0  0  0
    6.1025   -0.7815   -0.1387 H   0  0  0  0  0  0  0  0  0  0  0  0
    6.5962   -1.8507   -2.3729 H   0  0  0  0  0  0  0  0  0  0  0  0
    7.6108   -0.4222   -2.0709 H   0  0  0  0  0  0  0  0  0  0  0  0
    6.2456   -0.2968   -3.1670 H   0  0  0  0  0  0  0  0  0  0  0  0
  1  2  1  0
  2  3  2  0
  3  4  1  0
  4  5  1  0
  5  6  1  0
  6  7  1  0
  7  8  1  0
  8  9  1  0
  9 10  1  0
 10 11  2  0
 10 12  1  0
 12 13  2  0
 13 14  1  0
 14 15  2  0
 15 16  1  0
 16 17  1  0
 17 18  1  0
 18 19  1  0
 19 20  1  0
 20 21  1  0
 20 22  2  0
 22 23  1  0
 23 24  2  0
 23 25  1  0
 25 26  1  0
 27 26  1  1
 27 28  1  0
 28 29  1  0
 27 30  1  0
 30 31  1  6
 30 32  1  0
 32 33  1  0
 33 34  1  0
 18 35  1  0
 35 36  1  0
 36 37  1  0
 29  2  1  0
 32 34  1  6
 27  4  1  0
 32  6  1  0
 30  8  1  0
 36 16  1  0
  1 38  1  0
  1 39  1  0
  1 40  1  0
  3 41  1  0
  4 42  1  1
  6 43  1  6
  7 44  1  0
  7 45  1  0
  8 46  1  1
 12 47  1  0
 13 48  1  0
 14 49  1  0
 15 50  1  0
 16 51  1  6
 18 52  1  1
 19 53  1  0
 19 54  1  0
 21 55  1  0
 21 56  1  0
 21 57  1  0
 22 58  1  0
 26 59  1  0
 26 60  1  0
 28 61  1  0
 28 62  1  0
 29 63  1  0
 29 64  1  0
 31 65  1  0
 31 66  1  0
 31 67  1  0
 33 68  1  0
 33 69  1  0
 36 70  1  1
 37 71  1  0
 37 72  1  0
 37 73  1  0
M  END
$$$$
