
     RDKit          3D

101106  0  0  0  0  0  0  0  0999 V2000
    0.6239   -2.9051    3.5425 C   0  0  0  0  0  0  0  0  0  0  0  0
   -0.6965   -2.8109    2.8084 C   0  0  0  0  0  0  0  0  0  0  0  0
   -0.9101   -2.0432    1.7074 C   0  0  0  0  0  0  0  0  0  0  0  0
    0.1173   -1.1608    1.1198 C   0  0  0  0  0  0  0  0  0  0  0  0
    0.6996   -0.2105    1.8740 C   0  0  0  0  0  0  0  0  0  0  0  0
    1.8170    0.6803    1.4295 C   0  0  0  0  0  0  0  0  0  0  0  0
    2.4664    0.2292    0.1013 C   0  0  2  0  0  0  0  0  0  0  0  0
    3.6752    1.1504   -0.3899 C   0  0  1  0  0  0  0  0  0  0  0  0
    3.2715    2.6394   -0.5303 C   0  0  0  0  0  0  0  0  0  0  0  0
    4.8136    1.0797    0.6739 C   0  0  0  0  0  0  0  0  0  0  0  0
    6.1457    1.6672    0.2065 C   0  0  1  0  0  0  0  0  0  0  0  0
    7.1483    1.4237    1.2067 O   0  0  0  0  0  0  0  0  0  0  0  0
    6.6274    1.0273   -1.1009 C   0  0  2  0  0  0  0  0  0  0  0  0
    7.8626    1.6492   -1.4767 O   0  0  0  0  0  0  0  0  0  0  0  0
    5.5916    1.0985   -2.2571 C   0  0  0  0  0  0  0  0  0  0  0  0
    6.1288    0.1958   -3.4032 C   0  0  0  0  0  0  0  0  0  0  0  0
    5.4951    2.5188   -2.8480 C   0  0  0  0  0  0  0  0  0  0  0  0
    4.2233    0.5292   -1.7287 C   0  0  2  0  0  0  0  0  0  0  0  0
    3.1038    0.4396   -2.7852 C   0  0  0  0  0  0  0  0  0  0  0  0
    2.0033   -0.5114   -2.3117 C   0  0  0  0  0  0  0  0  0  0  0  0
    1.3490   -0.1271   -0.9564 C   0  0  2  0  0  0  0  0  0  0  0  0
    0.4373    1.1093   -1.2194 C   0  0  0  0  0  0  0  0  0  0  0  0
    0.4531   -1.3647   -0.3693 C   0  0  1  0  0  0  0  0  0  0  0  0
    1.2118   -2.7235   -0.4614 C   0  0  0  0  0  0  0  0  0  0  0  0
   -0.8739   -1.5118   -1.1806 C   0  0  0  0  0  0  0  0  0  0  0  0
   -1.9119   -2.4374   -0.5386 C   0  0  0  0  0  0  0  0  0  0  0  0
   -2.2316   -2.0513    0.9290 C   0  0  2  0  0  0  0  0  0  0  0  0
   -2.8968   -0.6549    1.0594 C   0  0  0  0  0  0  0  0  0  0  0  0
   -2.8168    0.0741    2.0425 O   0  0  0  0  0  0  0  0  0  0  0  0
   -3.6588   -0.3762   -0.0339 O   0  0  0  0  0  0  0  0  0  0  0  0
   -4.3192    0.8953   -0.0069 C   0  0  2  0  0  0  0  0  0  0  0  0
   -5.6023    0.7321    0.6092 O   0  0  0  0  0  0  0  0  0  0  0  0
   -6.3398    1.9553    0.6802 C   0  0  2  0  0  0  0  0  0  0  0  0
   -7.6409    1.6759    1.4447 C   0  0  0  0  0  0  0  0  0  0  0  0
   -8.4632    2.8394    1.4975 O   0  0  0  0  0  0  0  0  0  0  0  0
   -6.6217    2.5014   -0.7308 C   0  0  1  0  0  0  0  0  0  0  0  0
   -7.2621    3.7828   -0.7131 O   0  0  0  0  0  0  0  0  0  0  0  0
   -5.3047    2.6568   -1.4925 C   0  0  2  0  0  0  0  0  0  0  0  0
   -5.5646    3.0205   -2.8588 O   0  0  0  0  0  0  0  0  0  0  0  0
   -4.4852    1.3682   -1.4633 C   0  0  1  0  0  0  0  0  0  0  0  0
   -3.2154    1.6162   -2.0877 O   0  0  0  0  0  0  0  0  0  0  0  0
   -3.2691   -3.0683    1.4677 C   0  0  0  0  0  0  0  0  0  0  0  0
   -3.1973   -3.2046    2.9828 C   0  0  0  0  0  0  0  0  0  0  0  0
   -1.8014   -3.6568    3.4322 C   0  0  1  0  0  0  0  0  0  0  0  0
   -1.5928   -5.1494    3.1391 C   0  0  0  0  0  0  0  0  0  0  0  0
    0.8743   -3.9462    3.7667 H   0  0  0  0  0  0  0  0  0  0  0  0
    0.5649   -2.3583    4.4891 H   0  0  0  0  0  0  0  0  0  0  0  0
    1.4707   -2.5177    2.9706 H   0  0  0  0  0  0  0  0  0  0  0  0
    0.3715   -0.0662    2.9026 H   0  0  0  0  0  0  0  0  0  0  0  0
    1.4179    1.6961    1.3709 H   0  0  0  0  0  0  0  0  0  0  0  0
    2.5714    0.6798    2.2237 H   0  0  0  0  0  0  0  0  0  0  0  0
    2.9560   -0.7272    0.3352 H   0  0  0  0  0  0  0  0  0  0  0  0
    4.1138    3.3194   -0.3878 H   0  0  0  0  0  0  0  0  0  0  0  0
    2.8572    2.8824   -1.5096 H   0  0  0  0  0  0  0  0  0  0  0  0
    2.5447    2.9507    0.2221 H   0  0  0  0  0  0  0  0  0  0  0  0
    4.5134    1.5948    1.5952 H   0  0  0  0  0  0  0  0  0  0  0  0
    4.9843    0.0360    0.9724 H   0  0  0  0  0  0  0  0  0  0  0  0
    6.0984    2.7548    0.0995 H   0  0  0  0  0  0  0  0  0  0  0  0
    6.8393    1.8413    2.0301 H   0  0  0  0  0  0  0  0  0  0  0  0
    6.8745   -0.0242   -0.8996 H   0  0  0  0  0  0  0  0  0  0  0  0
    8.4001    1.6467   -0.6595 H   0  0  0  0  0  0  0  0  0  0  0  0
    5.5271    0.2861   -4.3131 H   0  0  0  0  0  0  0  0  0  0  0  0
    6.1382   -0.8591   -3.1069 H   0  0  0  0  0  0  0  0  0  0  0  0
    7.1543    0.4670   -3.6796 H   0  0  0  0  0  0  0  0  0  0  0  0
    6.4171    2.7887   -3.3773 H   0  0  0  0  0  0  0  0  0  0  0  0
    4.6804    2.5978   -3.5748 H   0  0  0  0  0  0  0  0  0  0  0  0
    5.3478    3.2872   -2.0893 H   0  0  0  0  0  0  0  0  0  0  0  0
    4.4616   -0.5182   -1.4761 H   0  0  0  0  0  0  0  0  0  0  0  0
    2.6864    1.4192   -3.0309 H   0  0  0  0  0  0  0  0  0  0  0  0
    3.4894    0.0342   -3.7254 H   0  0  0  0  0  0  0  0  0  0  0  0
    2.4719   -1.4978   -2.2468 H   0  0  0  0  0  0  0  0  0  0  0  0
    1.2396   -0.5928   -3.0948 H   0  0  0  0  0  0  0  0  0  0  0  0
    0.9963    2.0171   -1.4291 H   0  0  0  0  0  0  0  0  0  0  0  0
   -0.1931    0.9613   -2.1034 H   0  0  0  0  0  0  0  0  0  0  0  0
   -0.2239    1.3285   -0.3753 H   0  0  0  0  0  0  0  0  0  0  0  0
    0.6954   -3.5293    0.0728 H   0  0  0  0  0  0  0  0  0  0  0  0
    1.2996   -3.0677   -1.4973 H   0  0  0  0  0  0  0  0  0  0  0  0
    2.2177   -2.6690   -0.0350 H   0  0  0  0  0  0  0  0  0  0  0  0
   -0.6572   -1.8702   -2.1945 H   0  0  0  0  0  0  0  0  0  0  0  0
   -1.3698   -0.5470   -1.3030 H   0  0  0  0  0  0  0  0  0  0  0  0
   -2.8224   -2.4237   -1.1515 H   0  0  0  0  0  0  0  0  0  0  0  0
   -1.5423   -3.4705   -0.5833 H   0  0  0  0  0  0  0  0  0  0  0  0
   -3.7198    1.6315    0.5457 H   0  0  0  0  0  0  0  0  0  0  0  0
   -5.7703    2.7006    1.2521 H   0  0  0  0  0  0  0  0  0  0  0  0
   -7.4118    1.3545    2.4669 H   0  0  0  0  0  0  0  0  0  0  0  0
   -8.2059    0.8681    0.9664 H   0  0  0  0  0  0  0  0  0  0  0  0
   -9.2009    2.6283    2.1005 H   0  0  0  0  0  0  0  0  0  0  0  0
   -7.2792    1.8186   -1.2831 H   0  0  0  0  0  0  0  0  0  0  0  0
   -7.9340    3.7467    0.0049 H   0  0  0  0  0  0  0  0  0  0  0  0
   -4.7182    3.4861   -1.0764 H   0  0  0  0  0  0  0  0  0  0  0  0
   -6.2198    3.7468   -2.8022 H   0  0  0  0  0  0  0  0  0  0  0  0
   -4.9788    0.5911   -2.0600 H   0  0  0  0  0  0  0  0  0  0  0  0
   -3.4328    2.0592   -2.9328 H   0  0  0  0  0  0  0  0  0  0  0  0
   -4.2872   -2.7695    1.1858 H   0  0  0  0  0  0  0  0  0  0  0  0
   -3.1147   -4.0557    1.0150 H   0  0  0  0  0  0  0  0  0  0  0  0
   -3.9590   -3.9143    3.3275 H   0  0  0  0  0  0  0  0  0  0  0  0
   -3.4405   -2.2430    3.4524 H   0  0  0  0  0  0  0  0  0  0  0  0
   -1.7663   -3.5232    4.5219 H   0  0  0  0  0  0  0  0  0  0  0  0
   -1.4866   -5.3454    2.0668 H   0  0  0  0  0  0  0  0  0  0  0  0
   -0.6938   -5.5309    3.6337 H   0  0  0  0  0  0  0  0  0  0  0  0
   -2.4367   -5.7410    3.5104 H   0  0  0  0  0  0  0  0  0  0  0  0
  1  2  1  0
  2  3  2  0
  3  4  1  0
  4  5  2  0
  5  6  1  0
  6  7  1  0
  7  8  1  0
  8  9  1  6
  8 10  1  0
 10 11  1  0
 11 12  1  0
 11 13  1  0
 13 14  1  0
 13 15  1  0
 15 16  1  0
 15 17  1  0
 15 18  1  0
 18 19  1  0
 19 20  1  0
 20 21  1  0
 21 22  1  6
 21 23  1  0
 23 24  1  1
 23 25  1  0
 25 26  1  0
 26 27  1  0
 27 28  1  6
 28 29  2  0
 28 30  1  0
 30 31  1  0
 31 32  1  0
 32 33  1  0
 33 34  1  0
 34 35  1  0
 33 36  1  0
 36 37  1  0
 36 38  1  0
 38 39  1  0
 38 40  1  0
 40 41  1  0
 27 42  1  0
 42 43  1  0
 43 44  1  0
 44 45  1  0
 44  2  1  0
 27  3  1  0
 40 31  1  0
 23  4  1  0
 21  7  1  0
 18  8  1  0
  1 46  1  0
  1 47  1  0
  1 48  1  0
  5 49  1  0
  6 50  1  0
  6 51  1  0
  7 52  1  1
  9 53  1  0
  9 54  1  0
  9 55  1  0
 10 56  1  0
 10 57  1  0
 11 58  1  6
 12 59  1  0
 13 60  1  1
 14 61  1  0
 16 62  1  0
 16 63  1  0
 16 64  1  0
 17 65  1  0
 17 66  1  0
 17 67  1  0
 18 68  1  1
 19 69  1  0
 19 70  1  0
 20 71  1  0
 20 72  1  0
 22 73  1  0
 22 74  1  0
 22 75  1  0
 24 76  1  0
 24 77  1  0
 24 78  1  0
 25 79  1  0
 25 80  1  0
 26 81  1  0
 26 82  1  0
 31 83  1  1
 33 84  1  1
 34 85  1  0
 34 86  1  0
 35 87  1  0
 36 88  1  6
 37 89  1  0
 38 90  1  1
 39 91  1  0
 40 92  1  6
 41 93  1  0
 42 94  1  0
 42 95  1  0
 43 96  1  0
 43 97  1  0
 44 98  1  1
 45 99  1  0
 45100  1  0
 45101  1  0
M  END
$$$$
