
     RDKit          3D

 26 26  0  0  0  0  0  0  0  0999 V2000
    3.5373    0.6043    0.5053 C   0  0  0  0  0  0  0  0  0  0  0  0
    2.8999   -0.5287   -0.2911 C   0  0  0  0  0  0  0  0  0  0  0  0
    3.7257   -0.8450   -1.5324 C   0  0  0  0  0  0  0  0  0  0  0  0
    1.5932   -0.1255   -0.7434 O   0  0  0  0  0  0  0  0  0  0  0  0
    0.5726   -0.2871    0.1428 C   0  0  0  0  0  0  0  0  0  0  0  0
    0.7082   -0.7442    1.2665 O   0  0  0  0  0  0  0  0  0  0  0  0
   -0.5730    0.1481   -0.4591 N   0  0  0  0  0  0  0  0  0  0  0  0
   -1.8776    0.1801    0.0600 C   0  0  0  0  0  0  0  0  0  0  0  0
   -2.2142   -0.2541    1.3434 C   0  0  0  0  0  0  0  0  0  0  0  0
   -3.5390   -0.1895    1.7874 C   0  0  0  0  0  0  0  0  0  0  0  0
   -4.5362    0.3091    0.9524 C   0  0  0  0  0  0  0  0  0  0  0  0
   -4.2103    0.7445   -0.3291 C   0  0  0  0  0  0  0  0  0  0  0  0
   -2.8869    0.6801   -0.7729 C   0  0  0  0  0  0  0  0  0  0  0  0
    3.5770    1.5251   -0.0873 H   0  0  0  0  0  0  0  0  0  0  0  0
    4.5529    0.3448    0.8196 H   0  0  0  0  0  0  0  0  0  0  0  0
    2.9487    0.8331    1.3996 H   0  0  0  0  0  0  0  0  0  0  0  0
    2.8328   -1.4370    0.3200 H   0  0  0  0  0  0  0  0  0  0  0  0
    3.2512   -1.6451   -2.1110 H   0  0  0  0  0  0  0  0  0  0  0  0
    3.7906    0.0255   -2.1947 H   0  0  0  0  0  0  0  0  0  0  0  0
    4.7390   -1.1610   -1.2667 H   0  0  0  0  0  0  0  0  0  0  0  0
   -0.4275    0.4849   -1.3998 H   0  0  0  0  0  0  0  0  0  0  0  0
   -1.4685   -0.6494    2.0263 H   0  0  0  0  0  0  0  0  0  0  0  0
   -3.7879   -0.5309    2.7891 H   0  0  0  0  0  0  0  0  0  0  0  0
   -5.5644    0.3576    1.3012 H   0  0  0  0  0  0  0  0  0  0  0  0
   -4.9852    1.1342   -0.9840 H   0  0  0  0  0  0  0  0  0  0  0  0
   -2.6583    1.0261   -1.7774 H   0  0  0  0  0  0  0  0  0  0  0  0
  1  2  1  0
  2  3  1  0
  2  4  1  0
  4  5  1  0
  5  6  2  0
  5  7  1  0
  7  8  1  0
  8  9  2  0
  9 10  1  0
 10 11  2  0
 11 12  1  0
 12 13  2  0
 13  8  1  0
  1 14  1  0
  1 15  1  0
  1 16  1  0
  2 17  1  0
  3 18  1  0
  3 19  1  0
  3 20  1  0
  7 21  1  0
  9 22  1  0
 10 23  1  0
 11 24  1  0
 12 25  1  0
 13 26  1  0
M  END
$$$$
