
     RDKit          3D

 43 46  0  0  0  0  0  0  0  0999 V2000
    1.8937   -1.3830   -0.3561 O   0  0  0  0  0  0  0  0  0  0  0  0
    1.5096   -0.3856    0.2394 C   0  0  0  0  0  0  0  0  0  0  0  0
    2.3198    0.4605    0.9887 N   0  0  0  0  0  0  0  0  0  0  0  0
    3.7150    0.4000    1.1642 C   0  0  0  0  0  0  0  0  0  0  0  0
    4.5439   -0.5130    0.5076 C   0  0  0  0  0  0  0  0  0  0  0  0
    5.9255   -0.5085    0.7274 C   0  0  0  0  0  0  0  0  0  0  0  0
    6.4912    0.4129    1.6051 C   0  0  0  0  0  0  0  0  0  0  0  0
    5.6698    1.3265    2.2593 C   0  0  0  0  0  0  0  0  0  0  0  0
    6.3635    2.4705    3.3440 Cl  0  0  0  0  0  0  0  0  0  0  0  0
    4.2906    1.3253    2.0437 C   0  0  0  0  0  0  0  0  0  0  0  0
    0.2221    0.1185    0.2136 N   0  0  0  0  0  0  0  0  0  0  0  0
   -0.9392   -0.5528   -0.1141 C   0  0  0  0  0  0  0  0  0  0  0  0
   -2.0610    0.0770   -0.5505 C   0  0  0  0  0  0  0  0  0  0  0  0
   -2.0213    1.5532   -0.7172 C   0  0  0  0  0  0  0  0  0  0  0  0
   -2.5083    2.3897    0.2981 C   0  0  0  0  0  0  0  0  0  0  0  0
   -2.4395    3.7761    0.1592 C   0  0  0  0  0  0  0  0  0  0  0  0
   -1.8850    4.3202   -0.9947 C   0  0  0  0  0  0  0  0  0  0  0  0
   -1.8154    5.6525   -1.1260 F   0  0  0  0  0  0  0  0  0  0  0  0
   -1.4005    3.5071   -2.0140 C   0  0  0  0  0  0  0  0  0  0  0  0
   -1.4703    2.1207   -1.8759 C   0  0  0  0  0  0  0  0  0  0  0  0
   -3.2747   -0.4220   -0.9035 N   0  0  0  0  0  0  0  0  0  0  0  0
   -3.3703   -1.7716   -0.8601 C   0  0  0  0  0  0  0  0  0  0  0  0
   -4.5555   -2.3806   -1.3011 C   0  0  0  0  0  0  0  0  0  0  0  0
   -4.7217   -3.7706   -1.2813 C   0  0  0  0  0  0  0  0  0  0  0  0
   -3.7003   -4.5924   -0.8135 C   0  0  0  0  0  0  0  0  0  0  0  0
   -2.5128   -4.0207   -0.3654 C   0  0  0  0  0  0  0  0  0  0  0  0
   -2.3513   -2.6269   -0.3934 C   0  0  0  0  0  0  0  0  0  0  0  0
   -1.0878   -2.0308    0.1119 C   0  0  0  0  0  0  0  0  0  0  0  0
   -0.2839   -2.7121    0.7453 O   0  0  0  0  0  0  0  0  0  0  0  0
    1.8117    1.1405    1.5332 H   0  0  0  0  0  0  0  0  0  0  0  0
    4.1405   -1.2472   -0.1846 H   0  0  0  0  0  0  0  0  0  0  0  0
    6.5521   -1.2303    0.2096 H   0  0  0  0  0  0  0  0  0  0  0  0
    7.5640    0.4117    1.7731 H   0  0  0  0  0  0  0  0  0  0  0  0
    3.6697    2.0470    2.5663 H   0  0  0  0  0  0  0  0  0  0  0  0
    0.1408    1.1212    0.2360 H   0  0  0  0  0  0  0  0  0  0  0  0
   -2.9549    1.9440    1.1839 H   0  0  0  0  0  0  0  0  0  0  0  0
   -2.8237    4.4269    0.9359 H   0  0  0  0  0  0  0  0  0  0  0  0
   -0.9818    3.9503   -2.9101 H   0  0  0  0  0  0  0  0  0  0  0  0
   -1.1103    1.4679   -2.6680 H   0  0  0  0  0  0  0  0  0  0  0  0
   -5.3653   -1.7534   -1.6694 H   0  0  0  0  0  0  0  0  0  0  0  0
   -5.6534   -4.2013   -1.6329 H   0  0  0  0  0  0  0  0  0  0  0  0
   -3.8269   -5.6692   -0.7952 H   0  0  0  0  0  0  0  0  0  0  0  0
   -1.7085   -4.6482    0.0067 H   0  0  0  0  0  0  0  0  0  0  0  0
  1  2  2  0
  2  3  1  0
  3  4  1  0
  4  5  2  0
  5  6  1  0
  6  7  2  0
  7  8  1  0
  8  9  1  0
  8 10  2  0
  2 11  1  0
 11 12  1  0
 12 13  2  0
 13 14  1  0
 14 15  2  0
 15 16  1  0
 16 17  2  0
 17 18  1  0
 17 19  1  0
 19 20  2  0
 13 21  1  0
 21 22  1  0
 22 23  2  0
 23 24  1  0
 24 25  2  0
 25 26  1  0
 26 27  2  0
 27 28  1  0
 28 29  2  0
 10  4  1  0
 28 12  1  0
 20 14  1  0
 27 22  1  0
  3 30  1  0
  5 31  1  0
  6 32  1  0
  7 33  1  0
 10 34  1  0
 11 35  1  0
 15 36  1  0
 16 37  1  0
 19 38  1  0
 20 39  1  0
 23 40  1  0
 24 41  1  0
 25 42  1  0
 26 43  1  0
M  CHG  1  21  -1
M  END
$$$$
