
     RDKit          3D

 18 17  0  0  0  0  0  0  0  0999 V2000
   -3.1893   -1.3968   -1.0513 O   0  0  0  0  0  0  0  0  0  0  0  0
   -1.9524   -1.1557   -1.2480 C   0  0  0  0  0  0  0  0  0  0  0  0
   -1.1794   -1.7952   -2.0219 O   0  0  0  0  0  0  0  0  0  0  0  0
   -1.4131    0.1255   -0.5980 C   0  0  0  0  0  0  0  0  0  0  0  0
   -0.1735    0.1802    0.3244 C   0  0  0  0  0  0  0  0  0  0  0  0
   -0.4748   -0.5608    1.5396 O   0  0  0  0  0  0  0  0  0  0  0  0
    1.1096   -0.3922   -0.2938 C   0  0  0  0  0  0  0  0  0  0  0  0
    2.3850   -0.3213    0.5610 C   0  0  0  0  0  0  0  0  0  0  0  0
    2.2368   -0.3099    1.8218 O   0  0  0  0  0  0  0  0  0  0  0  0
    3.4836   -0.3796   -0.0801 O   0  0  0  0  0  0  0  0  0  0  0  0
    0.0070    1.7381    0.6544 C   0  0  0  0  0  0  0  0  0  0  0  0
   -0.3926    2.1326    1.7992 O   0  0  0  0  0  0  0  0  0  0  0  0
    0.4733    2.4717   -0.2766 O   0  0  0  0  0  0  0  0  0  0  0  0
   -1.2522    0.8092   -1.4443 H   0  0  0  0  0  0  0  0  0  0  0  0
   -2.2560    0.5553   -0.0357 H   0  0  0  0  0  0  0  0  0  0  0  0
    0.3077   -0.3351    2.0977 H   0  0  0  0  0  0  0  0  0  0  0  0
    1.3128    0.0958   -1.2550 H   0  0  0  0  0  0  0  0  0  0  0  0
    0.9677   -1.4618   -0.4934 H   0  0  0  0  0  0  0  0  0  0  0  0
  1  2  2  0
  2  3  1  0
  2  4  1  0
  4  5  1  0
  5  6  1  0
  5  7  1  0
  7  8  1  0
  8  9  2  0
  8 10  1  0
  5 11  1  0
 11 12  2  0
 11 13  1  0
  4 14  1  0
  4 15  1  0
  6 16  1  0
  7 17  1  0
  7 18  1  0
M  CHG  3   3  -1  10  -1  13  -1
M  END
$$$$
