
     RDKit          3D

 27 28  0  0  0  0  0  0  0  0999 V2000
    3.7753   -0.9435   -0.4115 N   0  0  0  0  0  0  0  0  0  0  0  0
    2.9085    0.4039    0.0029 S   0  0  0  0  0  0  0  0  0  0  0  0
    3.1371    1.3784   -1.0244 O   0  0  0  0  0  0  0  0  0  0  0  0
    3.0716    0.6360    1.4082 O   0  0  0  0  0  0  0  0  0  0  0  0
    1.3311   -0.0413   -0.2066 N   0  0  0  0  0  0  0  0  0  0  0  0
    0.9275   -1.1375    0.7083 C   0  0  0  0  0  0  0  0  0  0  0  0
   -0.4565   -1.6432    0.2969 C   0  0  0  0  0  0  0  0  0  0  0  0
   -1.4436   -0.5233    0.0791 C   0  0  0  0  0  0  0  0  0  0  0  0
   -2.8129   -0.8151    0.0264 C   0  0  0  0  0  0  0  0  0  0  0  0
   -3.7413    0.1996   -0.1997 C   0  0  0  0  0  0  0  0  0  0  0  0
   -3.3124    1.5116   -0.3802 C   0  0  0  0  0  0  0  0  0  0  0  0
   -1.9519    1.8139   -0.3408 C   0  0  0  0  0  0  0  0  0  0  0  0
   -1.0059    0.8008   -0.1244 C   0  0  0  0  0  0  0  0  0  0  0  0
    0.4605    1.1542   -0.0611 C   0  0  0  0  0  0  0  0  0  0  0  0
    4.3843   -1.2215    0.3677 H   0  0  0  0  0  0  0  0  0  0  0  0
    4.3646   -0.7435   -1.2290 H   0  0  0  0  0  0  0  0  0  0  0  0
    1.3082   -0.3423   -1.1781 H   0  0  0  0  0  0  0  0  0  0  0  0
    1.6488   -1.9585    0.6422 H   0  0  0  0  0  0  0  0  0  0  0  0
    0.9117   -0.7502    1.7347 H   0  0  0  0  0  0  0  0  0  0  0  0
   -0.3739   -2.2119   -0.6378 H   0  0  0  0  0  0  0  0  0  0  0  0
   -0.8272   -2.3252    1.0711 H   0  0  0  0  0  0  0  0  0  0  0  0
   -3.1728   -1.8341    0.1628 H   0  0  0  0  0  0  0  0  0  0  0  0
   -4.8043   -0.0325   -0.2341 H   0  0  0  0  0  0  0  0  0  0  0  0
   -4.0434    2.3000   -0.5512 H   0  0  0  0  0  0  0  0  0  0  0  0
   -1.6458    2.8498   -0.4814 H   0  0  0  0  0  0  0  0  0  0  0  0
    0.6661    1.6317    0.9051 H   0  0  0  0  0  0  0  0  0  0  0  0
    0.6962    1.8437   -0.8800 H   0  0  0  0  0  0  0  0  0  0  0  0
  1  2  1  0
  2  3  2  0
  2  4  2  0
  2  5  1  0
  5  6  1  0
  6  7  1  0
  7  8  1  0
  8  9  2  0
  9 10  1  0
 10 11  2  0
 11 12  1  0
 12 13  2  0
 13 14  1  0
 14  5  1  0
 13  8  1  0
  1 15  1  0
  1 16  1  0
  5 17  1  0
  6 18  1  0
  6 19  1  0
  7 20  1  0
  7 21  1  0
  9 22  1  0
 10 23  1  0
 11 24  1  0
 12 25  1  0
 14 26  1  0
 14 27  1  0
M  CHG  1   5   1
M  END
$$$$
