
     RDKit          3D

 44 48  0  0  0  0  0  0  0  0999 V2000
   -3.5160    2.2463    0.4765 C   0  0  0  0  0  0  0  0  0  0  0  0
   -4.0802    1.1546   -0.3835 N   0  0  0  0  0  0  0  0  0  0  0  0
   -3.1917    0.6872   -1.5481 C   0  0  0  0  0  0  0  0  0  0  0  0
   -3.2202   -0.8666   -1.3970 C   0  0  2  0  0  0  0  0  0  0  0  0
   -4.6639   -1.0655   -0.9177 C   0  0  0  0  0  0  0  0  0  0  0  0
   -4.4938   -0.1594    0.3071 C   0  0  1  0  0  0  0  0  0  0  0  0
   -3.2917   -0.8486    1.0219 C   0  0  0  0  0  0  0  0  0  0  0  0
   -2.4736   -1.3720   -0.1584 N   0  0  0  0  0  0  0  0  0  0  0  0
   -1.0648   -1.0222   -0.1156 C   0  0  0  0  0  0  0  0  0  0  0  0
   -0.1129   -1.9956   -0.3750 C   0  0  0  0  0  0  0  0  0  0  0  0
    1.2337   -1.6318   -0.3177 C   0  0  0  0  0  0  0  0  0  0  0  0
    1.6012   -0.3184   -0.0051 C   0  0  0  0  0  0  0  0  0  0  0  0
    3.0084    0.0987    0.0695 C   0  0  0  0  0  0  0  0  0  0  0  0
    3.4714    1.2009   -0.6765 C   0  0  0  0  0  0  0  0  0  0  0  0
    4.8051    1.6288   -0.6265 C   0  0  0  0  0  0  0  0  0  0  0  0
    5.6574    0.9070    0.2009 C   0  0  0  0  0  0  0  0  0  0  0  0
    6.9798    1.1619    0.3871 O   0  0  0  0  0  0  0  0  0  0  0  0
    7.4426    0.2331    1.2640 C   0  0  0  0  0  0  0  0  0  0  0  0
    6.4301   -0.6181    1.6456 C   0  0  0  0  0  0  0  0  0  0  0  0
    5.2643   -0.1878    0.9581 C   0  0  0  0  0  0  0  0  0  0  0  0
    3.9195   -0.6013    0.8925 C   0  0  0  0  0  0  0  0  0  0  0  0
    0.5541    0.5711    0.2342 C   0  0  0  0  0  0  0  0  0  0  0  0
   -0.7700    0.2505    0.1772 N   0  0  0  0  0  0  0  0  0  0  0  0
   -4.2529    2.4692    1.2518 H   0  0  0  0  0  0  0  0  0  0  0  0
   -3.3607    3.1203   -0.1608 H   0  0  0  0  0  0  0  0  0  0  0  0
   -2.5751    1.9217    0.9182 H   0  0  0  0  0  0  0  0  0  0  0  0
   -4.9351    1.5678   -0.7947 H   0  0  0  0  0  0  0  0  0  0  0  0
   -3.7013    1.0060   -2.4636 H   0  0  0  0  0  0  0  0  0  0  0  0
   -2.2140    1.1644   -1.4889 H   0  0  0  0  0  0  0  0  0  0  0  0
   -2.9151   -1.4379   -2.2766 H   0  0  0  0  0  0  0  0  0  0  0  0
   -5.4094   -0.6984   -1.6315 H   0  0  0  0  0  0  0  0  0  0  0  0
   -4.8966   -2.1033   -0.6546 H   0  0  0  0  0  0  0  0  0  0  0  0
   -5.3792    0.0150    0.9214 H   0  0  0  0  0  0  0  0  0  0  0  0
   -2.7064   -0.1863    1.6636 H   0  0  0  0  0  0  0  0  0  0  0  0
   -3.6160   -1.7293    1.5862 H   0  0  0  0  0  0  0  0  0  0  0  0
   -2.5111   -2.4014   -0.1389 H   0  0  0  0  0  0  0  0  0  0  0  0
   -0.3680   -3.0219   -0.6182 H   0  0  0  0  0  0  0  0  0  0  0  0
    2.0019   -2.3785   -0.5257 H   0  0  0  0  0  0  0  0  0  0  0  0
    2.7967    1.7472   -1.3339 H   0  0  0  0  0  0  0  0  0  0  0  0
    5.1666    2.4731   -1.2026 H   0  0  0  0  0  0  0  0  0  0  0  0
    8.4930    0.3086    1.5121 H   0  0  0  0  0  0  0  0  0  0  0  0
    6.5277   -1.4454    2.3342 H   0  0  0  0  0  0  0  0  0  0  0  0
    3.6023   -1.4520    1.4895 H   0  0  0  0  0  0  0  0  0  0  0  0
    0.7638    1.6079    0.4997 H   0  0  0  0  0  0  0  0  0  0  0  0
  1  2  1  0
  2  3  1  0
  3  4  1  0
  4  5  1  0
  5  6  1  0
  6  7  1  0
  7  8  1  0
  8  9  1  0
  9 10  2  0
 10 11  1  0
 11 12  2  0
 12 13  1  0
 13 14  2  0
 14 15  1  0
 15 16  2  0
 16 17  1  0
 17 18  1  0
 18 19  2  0
 19 20  1  0
 20 21  2  0
 12 22  1  0
 22 23  2  0
  6  2  1  0
 23  9  1  0
  8  4  1  0
 21 13  1  0
 20 16  1  0
  1 24  1  0
  1 25  1  0
  1 26  1  0
  2 27  1  0
  3 28  1  0
  3 29  1  0
  4 30  1  6
  5 31  1  0
  5 32  1  0
  6 33  1  1
  7 34  1  0
  7 35  1  0
  8 36  1  0
 10 37  1  0
 11 38  1  0
 14 39  1  0
 15 40  1  0
 18 41  1  0
 19 42  1  0
 21 43  1  0
 22 44  1  0
M  CHG  2   2   1   8   1
M  END
$$$$
