
     RDKit          3D

 35 37  0  0  0  0  0  0  0  0999 V2000
   -5.6996   -0.8951   -0.4053 C   0  0  0  0  0  0  0  0  0  0  0  0
   -5.3821   -0.6870    0.9340 C   0  0  0  0  0  0  0  0  0  0  0  0
   -4.1120   -0.2243    1.2889 C   0  0  0  0  0  0  0  0  0  0  0  0
   -3.1371    0.0369    0.3111 C   0  0  0  0  0  0  0  0  0  0  0  0
   -1.8021    0.5224    0.6850 C   0  0  0  0  0  0  0  0  0  0  0  0
   -1.6261    1.6485    1.4872 C   0  0  0  0  0  0  0  0  0  0  0  0
   -0.4216    2.1387    1.8683 N   0  0  0  0  0  0  0  0  0  0  0  0
    0.6722    1.4761    1.4345 C   0  0  0  0  0  0  0  0  0  0  0  0
    0.6268    0.3438    0.6334 C   0  0  0  0  0  0  0  0  0  0  0  0
    1.6844   -0.3729    0.1509 O   0  0  0  0  0  0  0  0  0  0  0  0
    2.9960   -0.0333    0.6127 C   0  0  2  0  0  0  0  0  0  0  0  0
    3.6192    1.0324   -0.2777 C   0  0  0  0  0  0  0  0  0  0  0  0
    3.9284    0.2884   -1.5662 C   0  0  0  0  0  0  0  0  0  0  0  0
    4.2095   -1.1234   -1.1402 N   0  0  0  0  0  0  0  0  0  0  0  0
    3.9033   -1.2330    0.3328 C   0  0  0  0  0  0  0  0  0  0  0  0
   -0.6333   -0.1250    0.2571 C   0  0  0  0  0  0  0  0  0  0  0  0
   -3.4786   -0.1804   -1.0347 C   0  0  0  0  0  0  0  0  0  0  0  0
   -4.7490   -0.6416   -1.3903 C   0  0  0  0  0  0  0  0  0  0  0  0
   -6.6892   -1.2517   -0.6810 H   0  0  0  0  0  0  0  0  0  0  0  0
   -6.1236   -0.8846    1.7046 H   0  0  0  0  0  0  0  0  0  0  0  0
   -3.8890   -0.0795    2.3445 H   0  0  0  0  0  0  0  0  0  0  0  0
   -2.4791    2.2168    1.8535 H   0  0  0  0  0  0  0  0  0  0  0  0
    1.5987    1.9263    1.7719 H   0  0  0  0  0  0  0  0  0  0  0  0
    3.0080    0.2034    1.6817 H   0  0  0  0  0  0  0  0  0  0  0  0
    2.9611    1.8840   -0.4716 H   0  0  0  0  0  0  0  0  0  0  0  0
    4.5472    1.4067    0.1708 H   0  0  0  0  0  0  0  0  0  0  0  0
    3.0688    0.2527   -2.2426 H   0  0  0  0  0  0  0  0  0  0  0  0
    4.8081    0.6739   -2.0879 H   0  0  0  0  0  0  0  0  0  0  0  0
    3.5904   -1.7605   -1.6623 H   0  0  0  0  0  0  0  0  0  0  0  0
    5.1762   -1.4072   -1.3487 H   0  0  0  0  0  0  0  0  0  0  0  0
    3.4333   -2.2053    0.5014 H   0  0  0  0  0  0  0  0  0  0  0  0
    4.8616   -1.1573    0.8556 H   0  0  0  0  0  0  0  0  0  0  0  0
   -0.7112   -1.0166   -0.3615 H   0  0  0  0  0  0  0  0  0  0  0  0
   -2.7602    0.0248   -1.8254 H   0  0  0  0  0  0  0  0  0  0  0  0
   -4.9993   -0.7971   -2.4368 H   0  0  0  0  0  0  0  0  0  0  0  0
  1  2  2  0
  2  3  1  0
  3  4  2  0
  4  5  1  0
  5  6  2  0
  6  7  1  0
  7  8  2  0
  8  9  1  0
  9 10  1  0
 10 11  1  0
 11 12  1  0
 12 13  1  0
 13 14  1  0
 14 15  1  0
  9 16  2  0
  4 17  1  0
 17 18  2  0
 18  1  1  0
 16  5  1  0
 15 11  1  0
  1 19  1  0
  2 20  1  0
  3 21  1  0
  6 22  1  0
  8 23  1  0
 11 24  1  1
 12 25  1  0
 12 26  1  0
 13 27  1  0
 13 28  1  0
 14 29  1  0
 14 30  1  0
 15 31  1  0
 15 32  1  0
 16 33  1  0
 17 34  1  0
 18 35  1  0
M  CHG  1  14   1
M  END
$$$$
