
     RDKit          3D

 61 64  0  0  0  0  0  0  0  0999 V2000
   -1.5871    2.5657    2.8149 C   0  0  0  0  0  0  0  0  0  0  0  0
   -0.8069    1.7401    1.7903 C   0  0  1  0  0  0  0  0  0  0  0  0
   -0.5484    0.4608    2.3890 O   0  0  0  0  0  0  0  0  0  0  0  0
    0.8064    0.0196    2.1657 C   0  0  1  0  0  0  0  0  0  0  0  0
    1.1005   -0.9441    3.2247 O   0  0  0  0  0  0  0  0  0  0  0  0
    2.4862   -1.3071    3.1598 C   0  0  0  0  0  0  0  0  0  0  0  0
    2.8187   -2.0559    1.8639 C   0  0  0  0  0  0  0  0  0  0  0  0
    2.4162   -1.2851    0.6760 N   0  0  0  0  0  0  0  0  0  0  0  0
    2.8824   -1.7976   -0.6647 C   0  0  0  0  0  0  0  0  0  0  0  0
    3.1934   -0.6135   -1.5147 C   0  0  0  0  0  0  0  0  0  0  0  0
    2.3198    0.0800   -2.1780 N   0  0  0  0  0  0  0  0  0  0  0  0
    2.8428    1.3744   -2.1834 C   0  0  0  0  0  0  0  0  0  0  0  0
    2.4618    2.2805   -2.9142 O   0  0  0  0  0  0  0  0  0  0  0  0
    3.9762    1.3817   -1.3195 N   0  0  0  0  0  0  0  0  0  0  0  0
    3.4712    1.9993    0.3003 P   0  0  0  0  0  0  0  0  0  0  0  0
    3.6417    0.7711    1.2111 O   0  0  0  0  0  0  0  0  0  0  0  0
    4.3950    3.1499    0.6176 O   0  0  0  0  0  0  0  0  0  0  0  0
    1.9928    2.3194    0.1939 O   0  0  0  0  0  0  0  0  0  0  0  0
    4.3794   -0.0682   -1.2808 N   0  0  0  0  0  0  0  0  0  0  0  0
    1.0321   -0.6393    0.7356 C   0  0  1  0  0  0  0  0  0  0  0  0
   -0.0701   -1.6381    0.3189 C   0  0  0  0  0  0  0  0  0  0  0  0
   -0.5148   -1.6359   -1.0201 C   0  0  0  0  0  0  0  0  0  0  0  0
   -1.4976   -2.5251   -1.4575 C   0  0  0  0  0  0  0  0  0  0  0  0
   -2.0491   -3.4246   -0.5578 C   0  0  0  0  0  0  0  0  0  0  0  0
   -2.9948   -4.2800   -0.9702 F   0  0  0  0  0  0  0  0  0  0  0  0
   -1.6349   -3.4509    0.7677 C   0  0  0  0  0  0  0  0  0  0  0  0
   -0.6467   -2.5640    1.2042 C   0  0  0  0  0  0  0  0  0  0  0  0
   -1.6294    1.5496    0.5282 C   0  0  0  0  0  0  0  0  0  0  0  0
   -1.2286    2.1627   -0.6705 C   0  0  0  0  0  0  0  0  0  0  0  0
   -1.9736    2.0053   -1.8465 C   0  0  0  0  0  0  0  0  0  0  0  0
   -1.5507    2.6677   -3.1378 C   0  0  0  0  0  0  0  0  0  0  0  0
   -2.6505    3.0634   -3.8616 F   0  0  0  0  0  0  0  0  0  0  0  0
   -0.8146    3.7977   -2.9914 F   0  0  0  0  0  0  0  0  0  0  0  0
   -0.8761    1.8346   -3.9735 F   0  0  0  0  0  0  0  0  0  0  0  0
   -3.1222    1.1936   -1.8166 C   0  0  0  0  0  0  0  0  0  0  0  0
   -3.5336    0.5548   -0.6362 C   0  0  0  0  0  0  0  0  0  0  0  0
   -4.7649   -0.3102   -0.6267 C   0  0  0  0  0  0  0  0  0  0  0  0
   -4.8296   -1.1802    0.4212 F   0  0  0  0  0  0  0  0  0  0  0  0
   -4.8909   -1.0762   -1.7492 F   0  0  0  0  0  0  0  0  0  0  0  0
   -5.9134    0.4250   -0.5607 F   0  0  0  0  0  0  0  0  0  0  0  0
   -2.7865    0.7534    0.5319 C   0  0  0  0  0  0  0  0  0  0  0  0
   -1.8610    3.5472    2.4141 H   0  0  0  0  0  0  0  0  0  0  0  0
   -2.5017    2.0556    3.1382 H   0  0  0  0  0  0  0  0  0  0  0  0
   -0.9816    2.7147    3.7159 H   0  0  0  0  0  0  0  0  0  0  0  0
    0.1148    2.2854    1.5853 H   0  0  0  0  0  0  0  0  0  0  0  0
    1.4769    0.8666    2.3370 H   0  0  0  0  0  0  0  0  0  0  0  0
    2.6811   -1.9717    4.0083 H   0  0  0  0  0  0  0  0  0  0  0  0
    3.1117   -0.4217    3.3102 H   0  0  0  0  0  0  0  0  0  0  0  0
    2.2797   -3.0078    1.8198 H   0  0  0  0  0  0  0  0  0  0  0  0
    3.8946   -2.2508    1.8040 H   0  0  0  0  0  0  0  0  0  0  0  0
    3.0231   -0.3906    0.7773 H   0  0  0  0  0  0  0  0  0  0  0  0
    2.1069   -2.4281   -1.1017 H   0  0  0  0  0  0  0  0  0  0  0  0
    3.7805   -2.4041   -0.5017 H   0  0  0  0  0  0  0  0  0  0  0  0
    1.0126    0.1659    0.0025 H   0  0  0  0  0  0  0  0  0  0  0  0
   -0.0914   -0.9216   -1.7296 H   0  0  0  0  0  0  0  0  0  0  0  0
   -1.8308   -2.5081   -2.4895 H   0  0  0  0  0  0  0  0  0  0  0  0
   -2.0866   -4.1540    1.4587 H   0  0  0  0  0  0  0  0  0  0  0  0
   -0.3508   -2.5926    2.2491 H   0  0  0  0  0  0  0  0  0  0  0  0
   -0.3039    2.7515   -0.6914 H   0  0  0  0  0  0  0  0  0  0  0  0
   -3.6953    1.0520   -2.7332 H   0  0  0  0  0  0  0  0  0  0  0  0
   -3.0804    0.2576    1.4569 H   0  0  0  0  0  0  0  0  0  0  0  0
  1  2  1  0
  2  3  1  0
  3  4  1  0
  4  5  1  0
  5  6  1  0
  6  7  1  0
  7  8  1  0
  8  9  1  0
  9 10  1  0
 10 11  2  0
 11 12  1  0
 12 13  2  0
 12 14  1  0
 14 15  1  0
 15 16  2  0
 15 17  1  0
 15 18  1  0
 14 19  1  0
  8 20  1  0
 20 21  1  0
 21 22  2  0
 22 23  1  0
 23 24  2  0
 24 25  1  0
 24 26  1  0
 26 27  2  0
  2 28  1  0
 28 29  2  0
 29 30  1  0
 30 31  1  0
 31 32  1  0
 31 33  1  0
 31 34  1  0
 30 35  2  0
 35 36  1  0
 36 37  1  0
 37 38  1  0
 37 39  1  0
 37 40  1  0
 36 41  2  0
 20  4  1  0
 27 21  1  0
 41 28  1  0
 19 10  1  0
  1 42  1  0
  1 43  1  0
  1 44  1  0
  2 45  1  6
  4 46  1  1
  6 47  1  0
  6 48  1  0
  7 49  1  0
  7 50  1  0
  8 51  1  0
  9 52  1  0
  9 53  1  0
 20 54  1  6
 22 55  1  0
 23 56  1  0
 26 57  1  0
 27 58  1  0
 29 59  1  0
 35 60  1  0
 41 61  1  0
M  CHG  4   8   1  17  -1  18  -1  19  -1
M  END
$$$$
