
     RDKit          3D

 66 70  0  0  0  0  0  0  0  0999 V2000
   10.9724   -0.6939   -0.4576 C   0  0  0  0  0  0  0  0  0  0  0  0
   10.6310   -0.5233    1.0244 C   0  0  0  0  0  0  0  0  0  0  0  0
   11.7715    0.1832    1.7540 C   0  0  0  0  0  0  0  0  0  0  0  0
    9.3179    0.2476    1.2097 C   0  0  0  0  0  0  0  0  0  0  0  0
    8.2468   -0.5042    0.6199 O   0  0  0  0  0  0  0  0  0  0  0  0
    7.0267    0.0920    0.7057 C   0  0  0  0  0  0  0  0  0  0  0  0
    6.8315    1.1736    1.2370 O   0  0  0  0  0  0  0  0  0  0  0  0
    6.1168   -0.7296    0.1039 N   0  0  0  0  0  0  0  0  0  0  0  0
    4.7348   -0.5380   -0.0524 C   0  0  0  0  0  0  0  0  0  0  0  0
    4.0485    0.5838    0.4147 C   0  0  0  0  0  0  0  0  0  0  0  0
    2.6674    0.7031    0.2190 C   0  0  0  0  0  0  0  0  0  0  0  0
    1.9536   -0.2982   -0.4480 C   0  0  0  0  0  0  0  0  0  0  0  0
    0.5050   -0.1773   -0.6513 C   0  0  0  0  0  0  0  0  0  0  0  0
   -0.4337   -1.0961    0.0660 C   0  0  0  0  0  0  0  0  0  0  0  0
   -1.7281   -1.1174   -0.0216 N   0  0  0  0  0  0  0  0  0  0  0  0
   -2.2873   -0.1898   -0.8596 C   0  0  0  0  0  0  0  0  0  0  0  0
   -3.6015    0.0971   -1.1906 C   0  0  0  0  0  0  0  0  0  0  0  0
   -4.7835   -0.5781   -0.6744 C   0  0  0  0  0  0  0  0  0  0  0  0
   -4.7833   -1.9517   -0.4224 C   0  0  0  0  0  0  0  0  0  0  0  0
   -5.9343   -2.5762    0.0492 C   0  0  0  0  0  0  0  0  0  0  0  0
   -7.0932   -1.8292    0.2751 C   0  0  0  0  0  0  0  0  0  0  0  0
   -7.1374   -0.4460    0.0457 C   0  0  0  0  0  0  0  0  0  0  0  0
   -8.3077    0.2717    0.2766 N   0  0  0  0  0  0  0  0  0  0  0  0
   -8.9644    0.1196    1.5908 C   0  0  0  0  0  0  0  0  0  0  0  0
  -10.4304    0.5742    1.5148 C   0  0  0  0  0  0  0  0  0  0  0  0
  -10.5502    1.9079    0.9967 O   0  0  0  0  0  0  0  0  0  0  0  0
  -10.0038    1.9644   -0.3298 C   0  0  0  0  0  0  0  0  0  0  0  0
   -8.5137    1.5908   -0.3460 C   0  0  0  0  0  0  0  0  0  0  0  0
   -5.9635    0.1545   -0.4417 C   0  0  0  0  0  0  0  0  0  0  0  0
   -3.5092    1.1711   -2.1007 C   0  0  0  0  0  0  0  0  0  0  0  0
   -2.2576    1.5541   -2.3464 N   0  0  0  0  0  0  0  0  0  0  0  0
   -1.4964    0.7199   -1.5754 N   0  0  0  0  0  0  0  0  0  0  0  0
   -0.0774    0.7235   -1.4736 C   0  0  0  0  0  0  0  0  0  0  0  0
    0.5951    1.6537   -2.2417 N   0  0  0  0  0  0  0  0  0  0  0  0
    2.6395   -1.4234   -0.9150 C   0  0  0  0  0  0  0  0  0  0  0  0
    4.0197   -1.5404   -0.7183 C   0  0  0  0  0  0  0  0  0  0  0  0
   11.0844    0.2766   -0.9529 H   0  0  0  0  0  0  0  0  0  0  0  0
   11.9113   -1.2450   -0.5778 H   0  0  0  0  0  0  0  0  0  0  0  0
   10.1915   -1.2540   -0.9820 H   0  0  0  0  0  0  0  0  0  0  0  0
   10.5090   -1.5273    1.4506 H   0  0  0  0  0  0  0  0  0  0  0  0
   11.5527    0.2725    2.8233 H   0  0  0  0  0  0  0  0  0  0  0  0
   12.7064   -0.3778    1.6505 H   0  0  0  0  0  0  0  0  0  0  0  0
   11.9349    1.1905    1.3560 H   0  0  0  0  0  0  0  0  0  0  0  0
    9.1127    0.3790    2.2791 H   0  0  0  0  0  0  0  0  0  0  0  0
    9.3835    1.2324    0.7307 H   0  0  0  0  0  0  0  0  0  0  0  0
    6.5275   -1.5752   -0.2658 H   0  0  0  0  0  0  0  0  0  0  0  0
    4.5574    1.3877    0.9386 H   0  0  0  0  0  0  0  0  0  0  0  0
    2.1567    1.5882    0.5952 H   0  0  0  0  0  0  0  0  0  0  0  0
    0.0477   -1.8263    0.7393 H   0  0  0  0  0  0  0  0  0  0  0  0
   -3.8929   -2.5501   -0.5985 H   0  0  0  0  0  0  0  0  0  0  0  0
   -5.9340   -3.6469    0.2333 H   0  0  0  0  0  0  0  0  0  0  0  0
   -7.9828   -2.3564    0.6090 H   0  0  0  0  0  0  0  0  0  0  0  0
   -8.4278    0.7426    2.3175 H   0  0  0  0  0  0  0  0  0  0  0  0
   -8.9463   -0.9116    1.9569 H   0  0  0  0  0  0  0  0  0  0  0  0
  -10.8722    0.5672    2.5163 H   0  0  0  0  0  0  0  0  0  0  0  0
  -11.0189   -0.1060    0.8872 H   0  0  0  0  0  0  0  0  0  0  0  0
  -10.5825    1.2994   -0.9824 H   0  0  0  0  0  0  0  0  0  0  0  0
  -10.1332    2.9867   -0.6989 H   0  0  0  0  0  0  0  0  0  0  0  0
   -7.9454    2.3435    0.2141 H   0  0  0  0  0  0  0  0  0  0  0  0
   -8.1725    1.5932   -1.3878 H   0  0  0  0  0  0  0  0  0  0  0  0
   -5.9470    1.2270   -0.6118 H   0  0  0  0  0  0  0  0  0  0  0  0
   -4.3154    1.6896   -2.6038 H   0  0  0  0  0  0  0  0  0  0  0  0
    0.0317    2.2674   -2.8285 H   0  0  0  0  0  0  0  0  0  0  0  0
    1.6052    1.7003   -2.2556 H   0  0  0  0  0  0  0  0  0  0  0  0
    2.1113   -2.2143   -1.4439 H   0  0  0  0  0  0  0  0  0  0  0  0
    4.5252   -2.4258   -1.0964 H   0  0  0  0  0  0  0  0  0  0  0  0
  1  2  1  0
  2  3  1  0
  2  4  1  0
  4  5  1  0
  5  6  1  0
  6  7  2  0
  6  8  1  0
  8  9  1  0
  9 10  2  0
 10 11  1  0
 11 12  2  0
 12 13  1  0
 13 14  1  0
 14 15  2  0
 15 16  1  0
 16 17  2  0
 17 18  1  0
 18 19  2  0
 19 20  1  0
 20 21  2  0
 21 22  1  0
 22 23  1  0
 23 24  1  0
 24 25  1  0
 25 26  1  0
 26 27  1  0
 27 28  1  0
 22 29  2  0
 17 30  1  0
 30 31  2  0
 31 32  1  0
 32 33  1  0
 33 34  1  0
 12 35  1  0
 35 36  2  0
 36  9  1  0
 33 13  2  0
 32 16  1  0
 29 18  1  0
 28 23  1  0
  1 37  1  0
  1 38  1  0
  1 39  1  0
  2 40  1  0
  3 41  1  0
  3 42  1  0
  3 43  1  0
  4 44  1  0
  4 45  1  0
  8 46  1  0
 10 47  1  0
 11 48  1  0
 14 49  1  0
 19 50  1  0
 20 51  1  0
 21 52  1  0
 24 53  1  0
 24 54  1  0
 25 55  1  0
 25 56  1  0
 27 57  1  0
 27 58  1  0
 28 59  1  0
 28 60  1  0
 29 61  1  0
 30 62  1  0
 34 63  1  0
 34 64  1  0
 35 65  1  0
 36 66  1  0
M  END
$$$$
