
     RDKit          3D

 53 55  0  0  0  0  0  0  0  0999 V2000
    9.3704   -0.1658    1.7490 C   0  0  0  0  0  0  0  0  0  0  0  0
    8.6773    0.2278    0.6719 C   0  0  0  0  0  0  0  0  0  0  0  0
    7.3075    0.8595    0.7106 C   0  0  0  0  0  0  0  0  0  0  0  0
    6.4689    0.0612   -0.1208 O   0  0  0  0  0  0  0  0  0  0  0  0
    5.1070    0.1664    0.1007 C   0  0  0  0  0  0  0  0  0  0  0  0
    4.4257   -1.0270   -0.2158 C   0  0  0  0  0  0  0  0  0  0  0  0
    5.1074   -2.0962   -0.6640 F   0  0  0  0  0  0  0  0  0  0  0  0
    3.0523   -1.1513   -0.0743 C   0  0  0  0  0  0  0  0  0  0  0  0
    2.3262   -0.0692    0.4029 C   0  0  0  0  0  0  0  0  0  0  0  0
    0.8619   -0.1293    0.5356 C   0  0  0  0  0  0  0  0  0  0  0  0
    0.1543   -1.0437    1.2285 C   0  0  0  0  0  0  0  0  0  0  0  0
    0.7102   -2.1395    2.0888 C   0  0  0  0  0  0  0  0  0  0  0  0
   -1.3370   -0.9382    1.2459 C   0  0  0  0  0  0  0  0  0  0  0  0
   -1.9919   -1.1846    2.2522 O   0  0  0  0  0  0  0  0  0  0  0  0
   -1.9097   -0.6053    0.0473 N   0  0  0  0  0  0  0  0  0  0  0  0
   -3.3587   -0.5933   -0.1772 C   0  0  2  0  0  0  0  0  0  0  0  0
   -3.6775   -0.4452   -1.6889 C   0  0  2  0  0  0  0  0  0  0  0  0
   -2.5244   -0.7759   -2.4882 O   0  0  0  0  0  0  0  0  0  0  0  0
   -4.1622    0.9613   -2.0603 C   0  0  1  0  0  0  0  0  0  0  0  0
   -4.4180    0.9952   -3.4780 O   0  0  0  0  0  0  0  0  0  0  0  0
   -5.4234    1.3576   -1.2785 C   0  0  1  0  0  0  0  0  0  0  0  0
   -6.5837    0.8111   -1.9424 O   0  0  0  0  0  0  0  0  0  0  0  0
   -7.2009   -0.0650   -1.0031 C   0  0  0  0  0  0  0  0  0  0  0  0
   -6.2783   -0.3696    0.0339 O   0  0  0  0  0  0  0  0  0  0  0  0
   -5.4664    0.8034    0.1379 C   0  0  1  0  0  0  0  0  0  0  0  0
   -4.0837    0.4712    0.6913 C   0  0  2  0  0  0  0  0  0  0  0  0
   -3.3321    1.6915    0.7382 O   0  0  0  0  0  0  0  0  0  0  0  0
    3.0031    1.1372    0.6805 C   0  0  0  0  0  0  0  0  0  0  0  0
    2.2419    2.1740    1.0946 F   0  0  0  0  0  0  0  0  0  0  0  0
    4.4103    1.3301    0.5437 C   0  0  0  0  0  0  0  0  0  0  0  0
    4.9485    2.4681    0.7855 O   0  0  0  0  0  0  0  0  0  0  0  0
    8.9644   -0.0478    2.7489 H   0  0  0  0  0  0  0  0  0  0  0  0
   10.3503   -0.6171    1.6446 H   0  0  0  0  0  0  0  0  0  0  0  0
    9.1012    0.0962   -0.3194 H   0  0  0  0  0  0  0  0  0  0  0  0
    6.9452    0.8905    1.7454 H   0  0  0  0  0  0  0  0  0  0  0  0
    7.4042    1.8669    0.2931 H   0  0  0  0  0  0  0  0  0  0  0  0
    2.5779   -2.0870   -0.3428 H   0  0  0  0  0  0  0  0  0  0  0  0
    0.3639    0.6982    0.0320 H   0  0  0  0  0  0  0  0  0  0  0  0
    1.7917   -2.0662    2.2298 H   0  0  0  0  0  0  0  0  0  0  0  0
    0.2671   -2.1129    3.0902 H   0  0  0  0  0  0  0  0  0  0  0  0
    0.4919   -3.1149    1.6421 H   0  0  0  0  0  0  0  0  0  0  0  0
   -1.3393   -0.5847   -0.7955 H   0  0  0  0  0  0  0  0  0  0  0  0
   -3.7178   -1.5847    0.1305 H   0  0  0  0  0  0  0  0  0  0  0  0
   -4.4497   -1.1726   -1.9688 H   0  0  0  0  0  0  0  0  0  0  0  0
   -2.7110   -0.3952   -3.3718 H   0  0  0  0  0  0  0  0  0  0  0  0
   -3.3541    1.6788   -1.8783 H   0  0  0  0  0  0  0  0  0  0  0  0
   -5.3862    0.8807   -3.5720 H   0  0  0  0  0  0  0  0  0  0  0  0
   -5.5209    2.4489   -1.2926 H   0  0  0  0  0  0  0  0  0  0  0  0
   -7.5134   -0.9847   -1.5049 H   0  0  0  0  0  0  0  0  0  0  0  0
   -8.0815    0.4281   -0.5776 H   0  0  0  0  0  0  0  0  0  0  0  0
   -5.9799    1.5176    0.7943 H   0  0  0  0  0  0  0  0  0  0  0  0
   -4.1797    0.1004    1.7179 H   0  0  0  0  0  0  0  0  0  0  0  0
   -2.4491    1.4451    1.0809 H   0  0  0  0  0  0  0  0  0  0  0  0
  1  2  2  0
  2  3  1  0
  3  4  1  0
  4  5  1  0
  5  6  2  0
  6  7  1  0
  6  8  1  0
  8  9  2  0
  9 10  1  0
 10 11  2  0
 11 12  1  0
 11 13  1  0
 13 14  2  0
 13 15  1  0
 15 16  1  0
 16 17  1  0
 17 18  1  0
 17 19  1  0
 19 20  1  0
 19 21  1  0
 21 22  1  0
 22 23  1  0
 23 24  1  0
 24 25  1  0
 25 26  1  0
 26 27  1  0
  9 28  1  0
 28 29  1  0
 28 30  2  0
 30 31  1  0
 30  5  1  0
 26 16  1  0
 25 21  1  0
  1 32  1  0
  1 33  1  0
  2 34  1  0
  3 35  1  0
  3 36  1  0
  8 37  1  0
 10 38  1  0
 12 39  1  0
 12 40  1  0
 12 41  1  0
 15 42  1  0
 16 43  1  1
 17 44  1  6
 18 45  1  0
 19 46  1  6
 20 47  1  0
 21 48  1  1
 23 49  1  0
 23 50  1  0
 25 51  1  1
 26 52  1  1
 27 53  1  0
M  CHG  1  31  -1
M  END
$$$$
