
     RDKit          3D

 83 89  0  0  0  0  0  0  0  0999 V2000
    2.1184    8.0864    0.6510 C   0  0  0  0  0  0  0  0  0  0  0  0
    2.3453    6.6141    0.4541 C   0  0  0  0  0  0  0  0  0  0  0  0
    3.5802    6.1266    0.2593 C   0  0  0  0  0  0  0  0  0  0  0  0
    3.8613    4.6996    0.0584 C   0  0  0  0  0  0  0  0  0  0  0  0
    4.9947    4.2828   -0.1345 O   0  0  0  0  0  0  0  0  0  0  0  0
    2.7685    3.8491    0.0945 O   0  0  0  0  0  0  0  0  0  0  0  0
    1.4542    4.3126    0.2955 C   0  0  0  0  0  0  0  0  0  0  0  0
    0.4150    3.3732    0.3003 C   0  0  0  0  0  0  0  0  0  0  0  0
   -0.8999    3.8094    0.4522 C   0  0  0  0  0  0  0  0  0  0  0  0
   -1.1686    5.1593    0.6516 C   0  0  0  0  0  0  0  0  0  0  0  0
   -0.1198    6.0876    0.6572 C   0  0  0  0  0  0  0  0  0  0  0  0
    1.2088    5.6793    0.4701 C   0  0  0  0  0  0  0  0  0  0  0  0
   -1.9677    2.9503    0.4468 O   0  0  0  0  0  0  0  0  0  0  0  0
   -1.7253    1.8261   -0.3986 C   0  0  0  0  0  0  0  0  0  0  0  0
   -0.5592    0.9826    0.1291 C   0  0  0  0  0  0  0  0  0  0  0  0
   -0.7727    0.4966    1.5875 C   0  0  0  0  0  0  0  0  0  0  0  0
   -2.0523   -0.2587    1.8447 N   0  0  0  0  0  0  0  0  0  0  0  0
   -3.2005    0.5789    2.4768 C   0  0  0  0  0  0  0  0  0  0  0  0
   -4.5280   -0.1855    2.2360 C   0  0  0  0  0  0  0  0  0  0  0  0
   -4.2310   -1.6167    2.0006 N   0  0  0  0  0  0  0  0  0  0  0  0
   -5.1431   -2.4313    1.3402 C   0  0  0  0  0  0  0  0  0  0  0  0
   -4.7545   -3.6679    0.7963 C   0  0  0  0  0  0  0  0  0  0  0  0
   -5.6554   -4.4896    0.1078 C   0  0  0  0  0  0  0  0  0  0  0  0
   -6.9745   -4.0900   -0.0597 C   0  0  0  0  0  0  0  0  0  0  0  0
   -7.3886   -2.8710    0.4605 C   0  0  0  0  0  0  0  0  0  0  0  0
   -6.4822   -2.0544    1.1477 C   0  0  0  0  0  0  0  0  0  0  0  0
   -3.2503   -2.2115    2.9321 C   0  0  0  0  0  0  0  0  0  0  0  0
   -1.8763   -1.5248    2.7243 C   0  0  0  0  0  0  0  0  0  0  0  0
   -0.2761   -0.1523   -0.9041 C   0  0  0  0  0  0  0  0  0  0  0  0
    1.1236   -0.7452   -0.8904 N   0  0  0  0  0  0  0  0  0  0  0  0
    1.2597   -2.1144   -0.2308 C   0  0  0  0  0  0  0  0  0  0  0  0
    2.7339   -2.5630   -0.1714 C   0  0  0  0  0  0  0  0  0  0  0  0
    3.3263   -2.5316   -1.5092 N   0  0  0  0  0  0  0  0  0  0  0  0
    4.4464   -3.3198   -1.7786 C   0  0  0  0  0  0  0  0  0  0  0  0
    4.7119   -3.7487   -3.0896 C   0  0  0  0  0  0  0  0  0  0  0  0
    5.8230   -4.5430   -3.3913 C   0  0  0  0  0  0  0  0  0  0  0  0
    6.6967   -4.9289   -2.3820 C   0  0  0  0  0  0  0  0  0  0  0  0
    6.4556   -4.5231   -1.0746 C   0  0  0  0  0  0  0  0  0  0  0  0
    5.3408   -3.7303   -0.7782 C   0  0  0  0  0  0  0  0  0  0  0  0
    3.2156   -1.2685   -2.2555 C   0  0  0  0  0  0  0  0  0  0  0  0
    1.7468   -0.8024   -2.3096 C   0  0  0  0  0  0  0  0  0  0  0  0
    0.6456    1.9104    0.2005 C   0  0  0  0  0  0  0  0  0  0  0  0
    1.7678    1.4109    0.2538 O   0  0  0  0  0  0  0  0  0  0  0  0
    3.0563    8.6520    0.6154 H   0  0  0  0  0  0  0  0  0  0  0  0
    1.4689    8.4878   -0.1342 H   0  0  0  0  0  0  0  0  0  0  0  0
    1.6601    8.2818    1.6263 H   0  0  0  0  0  0  0  0  0  0  0  0
    4.4558    6.7681    0.2355 H   0  0  0  0  0  0  0  0  0  0  0  0
   -2.1910    5.5083    0.7873 H   0  0  0  0  0  0  0  0  0  0  0  0
   -0.3685    7.1383    0.8035 H   0  0  0  0  0  0  0  0  0  0  0  0
   -1.5524    2.1824   -1.4248 H   0  0  0  0  0  0  0  0  0  0  0  0
   -2.6476    1.2357   -0.4346 H   0  0  0  0  0  0  0  0  0  0  0  0
    0.0514   -0.1676    1.8723 H   0  0  0  0  0  0  0  0  0  0  0  0
   -0.7500    1.3245    2.3072 H   0  0  0  0  0  0  0  0  0  0  0  0
   -2.5078   -0.6545    1.0047 H   0  0  0  0  0  0  0  0  0  0  0  0
   -2.9677    0.6879    3.5413 H   0  0  0  0  0  0  0  0  0  0  0  0
   -3.2253    1.5606    2.0050 H   0  0  0  0  0  0  0  0  0  0  0  0
   -4.9965    0.2510    1.3453 H   0  0  0  0  0  0  0  0  0  0  0  0
   -5.2064   -0.0511    3.0859 H   0  0  0  0  0  0  0  0  0  0  0  0
   -3.7334   -4.0256    0.8784 H   0  0  0  0  0  0  0  0  0  0  0  0
   -5.3283   -5.4457   -0.2952 H   0  0  0  0  0  0  0  0  0  0  0  0
   -7.6802   -4.7287   -0.5865 H   0  0  0  0  0  0  0  0  0  0  0  0
   -8.4241   -2.5575    0.3431 H   0  0  0  0  0  0  0  0  0  0  0  0
   -6.8751   -1.1266    1.5544 H   0  0  0  0  0  0  0  0  0  0  0  0
   -3.1287   -3.2944    2.8302 H   0  0  0  0  0  0  0  0  0  0  0  0
   -3.5913   -2.0418    3.9613 H   0  0  0  0  0  0  0  0  0  0  0  0
   -1.2010   -2.1821    2.1679 H   0  0  0  0  0  0  0  0  0  0  0  0
   -1.4136   -1.2212    3.6687 H   0  0  0  0  0  0  0  0  0  0  0  0
   -0.4234    0.2421   -1.9168 H   0  0  0  0  0  0  0  0  0  0  0  0
   -0.9831   -0.9815   -0.7861 H   0  0  0  0  0  0  0  0  0  0  0  0
    1.7729   -0.0964   -0.3898 H   0  0  0  0  0  0  0  0  0  0  0  0
    0.8472   -2.0301    0.7772 H   0  0  0  0  0  0  0  0  0  0  0  0
    0.6523   -2.8117   -0.8186 H   0  0  0  0  0  0  0  0  0  0  0  0
    2.7525   -3.5773    0.2456 H   0  0  0  0  0  0  0  0  0  0  0  0
    3.2936   -1.9039    0.5037 H   0  0  0  0  0  0  0  0  0  0  0  0
    4.0385   -3.4941   -3.9033 H   0  0  0  0  0  0  0  0  0  0  0  0
    6.0026   -4.8646   -4.4146 H   0  0  0  0  0  0  0  0  0  0  0  0
    7.5628   -5.5447   -2.6136 H   0  0  0  0  0  0  0  0  0  0  0  0
    7.1406   -4.8192   -0.2832 H   0  0  0  0  0  0  0  0  0  0  0  0
    5.2124   -3.4227    0.2549 H   0  0  0  0  0  0  0  0  0  0  0  0
    3.5755   -1.3544   -3.2864 H   0  0  0  0  0  0  0  0  0  0  0  0
    3.8274   -0.5040   -1.7601 H   0  0  0  0  0  0  0  0  0  0  0  0
    1.6843    0.2080   -2.7264 H   0  0  0  0  0  0  0  0  0  0  0  0
    1.1261   -1.4905   -2.8940 H   0  0  0  0  0  0  0  0  0  0  0  0
  1  2  1  0
  2  3  2  0
  3  4  1  0
  4  5  2  0
  4  6  1  0
  6  7  1  0
  7  8  2  0
  8  9  1  0
  9 10  2  0
 10 11  1  0
 11 12  2  0
  9 13  1  0
 13 14  1  0
 14 15  1  0
 15 16  1  0
 16 17  1  0
 17 18  1  0
 18 19  1  0
 19 20  1  0
 20 21  1  0
 21 22  2  0
 22 23  1  0
 23 24  2  0
 24 25  1  0
 25 26  2  0
 20 27  1  0
 27 28  1  0
 15 29  1  0
 29 30  1  0
 30 31  1  0
 31 32  1  0
 32 33  1  0
 33 34  1  0
 34 35  2  0
 35 36  1  0
 36 37  2  0
 37 38  1  0
 38 39  2  0
 33 40  1  0
 40 41  1  0
 15 42  1  0
 42 43  2  0
 12  2  1  0
 28 17  1  0
 41 30  1  0
 12  7  1  0
 26 21  1  0
 39 34  1  0
 42  8  1  0
  1 44  1  0
  1 45  1  0
  1 46  1  0
  3 47  1  0
 10 48  1  0
 11 49  1  0
 14 50  1  0
 14 51  1  0
 16 52  1  0
 16 53  1  0
 17 54  1  0
 18 55  1  0
 18 56  1  0
 19 57  1  0
 19 58  1  0
 22 59  1  0
 23 60  1  0
 24 61  1  0
 25 62  1  0
 26 63  1  0
 27 64  1  0
 27 65  1  0
 28 66  1  0
 28 67  1  0
 29 68  1  0
 29 69  1  0
 30 70  1  0
 31 71  1  0
 31 72  1  0
 32 73  1  0
 32 74  1  0
 35 75  1  0
 36 76  1  0
 37 77  1  0
 38 78  1  0
 39 79  1  0
 40 80  1  0
 40 81  1  0
 41 82  1  0
 41 83  1  0
M  CHG  2  17   1  30   1
M  END
$$$$
