
     RDKit          3D

 29 29  0  0  0  0  0  0  0  0999 V2000
    4.9819    1.8168    1.0393 C   0  0  0  0  0  0  0  0  0  0  0  0
    3.9331    0.7498    1.1020 C   0  0  0  0  0  0  0  0  0  0  0  0
    3.2351    0.5172    2.0776 O   0  0  0  0  0  0  0  0  0  0  0  0
    3.8583    0.0939   -0.0886 O   0  0  0  0  0  0  0  0  0  0  0  0
    2.9225   -0.9997   -0.1395 C   0  0  0  0  0  0  0  0  0  0  0  0
    1.5108   -0.4905   -0.3552 C   0  0  0  0  0  0  0  0  0  0  0  0
    0.4110   -1.8563   -0.6197 S   0  0  0  0  0  0  0  0  0  0  0  0
    0.7469   -2.4824   -1.8836 O   0  0  0  0  0  0  0  0  0  0  0  0
    0.2703   -2.6244    0.5989 O   0  0  0  0  0  0  0  0  0  0  0  0
   -1.1763   -1.1032   -0.9099 C   0  0  0  0  0  0  0  0  0  0  0  0
   -2.0036   -1.0986   -2.0168 C   0  0  0  0  0  0  0  0  0  0  0  0
   -3.1973   -0.3543   -1.7947 C   0  0  0  0  0  0  0  0  0  0  0  0
   -3.2484    0.1847   -0.5238 C   0  0  0  0  0  0  0  0  0  0  0  0
   -4.4586    1.1840    0.2973 S   0  0  0  0  0  0  0  0  0  0  0  0
   -4.8718    0.4416    1.7436 N   0  0  0  0  0  0  0  0  0  0  0  0
   -5.6384    1.1315   -0.5337 O   0  0  0  0  0  0  0  0  0  0  0  0
   -3.8008    2.4230    0.6377 O   0  0  0  0  0  0  0  0  0  0  0  0
   -1.8569   -0.2178    0.3855 S   0  0  0  0  0  0  0  0  0  0  0  0
    5.9500    1.3718    0.7958 H   0  0  0  0  0  0  0  0  0  0  0  0
    4.7038    2.5659    0.2939 H   0  0  0  0  0  0  0  0  0  0  0  0
    5.0610    2.3048    2.0150 H   0  0  0  0  0  0  0  0  0  0  0  0
    3.2349   -1.6330   -0.9771 H   0  0  0  0  0  0  0  0  0  0  0  0
    3.0042   -1.6170    0.7637 H   0  0  0  0  0  0  0  0  0  0  0  0
    1.4657    0.1627   -1.2324 H   0  0  0  0  0  0  0  0  0  0  0  0
    1.1647    0.0777    0.5116 H   0  0  0  0  0  0  0  0  0  0  0  0
   -1.7563   -1.6135   -2.9390 H   0  0  0  0  0  0  0  0  0  0  0  0
   -3.9889   -0.2174   -2.5234 H   0  0  0  0  0  0  0  0  0  0  0  0
   -5.8746    0.2496    1.7515 H   0  0  0  0  0  0  0  0  0  0  0  0
   -4.5822    1.0331    2.5240 H   0  0  0  0  0  0  0  0  0  0  0  0
  1  2  1  0
  2  3  2  0
  2  4  1  0
  4  5  1  0
  5  6  1  0
  6  7  1  0
  7  8  2  0
  7  9  2  0
  7 10  1  0
 10 11  2  0
 11 12  1  0
 12 13  2  0
 13 14  1  0
 14 15  1  0
 14 16  2  0
 14 17  2  0
 13 18  1  0
 18 10  1  0
  1 19  1  0
  1 20  1  0
  1 21  1  0
  5 22  1  0
  5 23  1  0
  6 24  1  0
  6 25  1  0
 11 26  1  0
 12 27  1  0
 15 28  1  0
 15 29  1  0
M  END
$$$$
