
     RDKit          3D

 59 63  0  0  0  0  0  0  0  0999 V2000
    1.7643    0.2367    4.3754 C   0  0  0  0  0  0  0  0  0  0  0  0
    1.2134   -0.3370    3.1190 C   0  0  0  0  0  0  0  0  0  0  0  0
    0.1599    0.3284    2.5002 N   0  0  0  0  0  0  0  0  0  0  0  0
   -0.1773   -0.3169    1.4025 C   0  0  0  0  0  0  0  0  0  0  0  0
   -1.3384    0.2171    0.4716 C   0  0  0  0  0  0  0  0  0  0  0  0
   -2.0709    1.3896    0.7174 C   0  0  0  0  0  0  0  0  0  0  0  0
   -2.9496    1.5186   -0.3432 C   0  0  0  0  0  0  0  0  0  0  0  0
   -3.8095    2.6623   -0.6280 C   0  0  0  0  0  0  0  0  0  0  0  0
   -3.5997    3.4431   -1.7734 C   0  0  0  0  0  0  0  0  0  0  0  0
   -4.4137    4.5489   -2.0325 C   0  0  0  0  0  0  0  0  0  0  0  0
   -5.4310    4.8833   -1.1409 C   0  0  0  0  0  0  0  0  0  0  0  0
   -6.4352    6.2432   -1.4611 Cl  0  0  0  0  0  0  0  0  0  0  0  0
   -5.6385    4.1256    0.0102 C   0  0  0  0  0  0  0  0  0  0  0  0
   -4.8246    3.0197    0.2694 C   0  0  0  0  0  0  0  0  0  0  0  0
   -2.7734    0.3669   -1.1159 N   0  0  0  0  0  0  0  0  0  0  0  0
   -3.5087   -0.1207   -2.2451 C   0  0  0  0  0  0  0  0  0  0  0  0
   -4.7752    0.3725   -2.5892 C   0  0  0  0  0  0  0  0  0  0  0  0
   -5.4534   -0.1395   -3.7012 C   0  0  0  0  0  0  0  0  0  0  0  0
   -4.8764   -1.1495   -4.4607 C   0  0  0  0  0  0  0  0  0  0  0  0
   -5.5339   -1.6340   -5.5223 F   0  0  0  0  0  0  0  0  0  0  0  0
   -3.6343   -1.6685   -4.1261 C   0  0  0  0  0  0  0  0  0  0  0  0
   -2.9531   -1.1607   -3.0169 C   0  0  0  0  0  0  0  0  0  0  0  0
   -1.7283   -0.3739   -0.6595 N   0  0  0  0  0  0  0  0  0  0  0  0
    0.7050   -1.7404    1.0664 S   0  0  0  0  0  0  0  0  0  0  0  0
    1.6643   -1.4826    2.4721 C   0  0  0  0  0  0  0  0  0  0  0  0
    2.7494   -2.3647    2.8985 C   0  0  0  0  0  0  0  0  0  0  0  0
    3.1495   -2.3812    4.0634 O   0  0  0  0  0  0  0  0  0  0  0  0
    3.2532   -3.0905    1.8876 N   0  0  0  0  0  0  0  0  0  0  0  0
    4.5339   -3.7539    2.2519 N   0  0  0  0  0  0  0  0  0  0  0  0
    5.3977   -4.2680    1.3547 C   0  0  0  0  0  0  0  0  0  0  0  0
    6.4713   -5.4625    1.8326 S   0  0  0  0  0  0  0  0  0  0  0  0
    5.4122   -3.8650    0.0455 N   0  0  0  0  0  0  0  0  0  0  0  0
    4.9381   -2.7831   -0.6937 C   0  0  0  0  0  0  0  0  0  0  0  0
    4.7364   -2.9242   -1.9046 O   0  0  0  0  0  0  0  0  0  0  0  0
    4.7956   -1.4289   -0.0951 C   0  0  0  0  0  0  0  0  0  0  0  0
    3.8742   -0.5433   -0.6729 C   0  0  0  0  0  0  0  0  0  0  0  0
    3.7261    0.7511   -0.1704 C   0  0  0  0  0  0  0  0  0  0  0  0
    4.5111    1.1747    0.9006 C   0  0  0  0  0  0  0  0  0  0  0  0
    5.4494    0.3094    1.4629 C   0  0  0  0  0  0  0  0  0  0  0  0
    5.6013   -0.9855    0.9596 C   0  0  0  0  0  0  0  0  0  0  0  0
    2.8434    0.3981    4.2886 H   0  0  0  0  0  0  0  0  0  0  0  0
    1.5711   -0.4311    5.2204 H   0  0  0  0  0  0  0  0  0  0  0  0
    1.2996    1.2028    4.5976 H   0  0  0  0  0  0  0  0  0  0  0  0
   -1.9255    2.0819    1.5357 H   0  0  0  0  0  0  0  0  0  0  0  0
   -2.7985    3.1980   -2.4683 H   0  0  0  0  0  0  0  0  0  0  0  0
   -4.2437    5.1444   -2.9254 H   0  0  0  0  0  0  0  0  0  0  0  0
   -6.4256    4.3904    0.7110 H   0  0  0  0  0  0  0  0  0  0  0  0
   -4.9892    2.4366    1.1736 H   0  0  0  0  0  0  0  0  0  0  0  0
   -5.2879    1.1232   -1.9997 H   0  0  0  0  0  0  0  0  0  0  0  0
   -6.4353    0.2370   -3.9702 H   0  0  0  0  0  0  0  0  0  0  0  0
   -3.2000   -2.4648   -4.7220 H   0  0  0  0  0  0  0  0  0  0  0  0
   -1.9787   -1.5829   -2.7698 H   0  0  0  0  0  0  0  0  0  0  0  0
    4.5964   -4.0103    3.2352 H   0  0  0  0  0  0  0  0  0  0  0  0
    5.8057   -4.5695   -0.5568 H   0  0  0  0  0  0  0  0  0  0  0  0
    3.2500   -0.8773   -1.4982 H   0  0  0  0  0  0  0  0  0  0  0  0
    2.9847    1.4165   -0.6023 H   0  0  0  0  0  0  0  0  0  0  0  0
    4.3805    2.1724    1.3090 H   0  0  0  0  0  0  0  0  0  0  0  0
    6.0489    0.6280    2.3107 H   0  0  0  0  0  0  0  0  0  0  0  0
    6.3230   -1.6518    1.4218 H   0  0  0  0  0  0  0  0  0  0  0  0
  1  2  1  0
  2  3  1  0
  3  4  2  0
  4  5  1  0
  5  6  1  0
  6  7  2  0
  7  8  1  0
  8  9  2  0
  9 10  1  0
 10 11  2  0
 11 12  1  0
 11 13  1  0
 13 14  2  0
  7 15  1  0
 15 16  1  0
 16 17  2  0
 17 18  1  0
 18 19  2  0
 19 20  1  0
 19 21  1  0
 21 22  2  0
 15 23  1  0
  4 24  1  0
 24 25  1  0
 25 26  1  0
 26 27  2  0
 26 28  1  0
 28 29  1  0
 29 30  1  0
 30 31  2  0
 30 32  1  0
 32 33  1  0
 33 34  2  0
 33 35  1  0
 35 36  2  0
 36 37  1  0
 37 38  2  0
 38 39  1  0
 39 40  2  0
 25  2  2  0
 40 35  1  0
 23  5  2  0
 14  8  1  0
 22 16  1  0
  1 41  1  0
  1 42  1  0
  1 43  1  0
  6 44  1  0
  9 45  1  0
 10 46  1  0
 13 47  1  0
 14 48  1  0
 17 49  1  0
 18 50  1  0
 21 51  1  0
 22 52  1  0
 29 53  1  0
 32 54  1  0
 36 55  1  0
 37 56  1  0
 38 57  1  0
 39 58  1  0
 40 59  1  0
M  CHG  1  28  -1
M  END
$$$$
