
     RDKit          3D

 71 74  0  0  0  0  0  0  0  0999 V2000
   -3.9170    5.0535    0.4327 C   0  0  0  0  0  0  0  0  0  0  0  0
   -4.0407    3.5600    0.3769 C   0  0  0  0  0  0  0  0  0  0  0  0
   -4.7619    2.9479   -0.6533 C   0  0  0  0  0  0  0  0  0  0  0  0
   -4.8566    1.5551   -0.7220 C   0  0  0  0  0  0  0  0  0  0  0  0
   -4.2068    0.7505    0.2259 C   0  0  0  0  0  0  0  0  0  0  0  0
   -4.3537   -0.6679    0.1525 N   0  0  0  0  0  0  0  0  0  0  0  0
   -5.4394   -1.1783   -0.4974 N   0  0  0  0  0  0  0  0  0  0  0  0
   -5.6048   -2.4105   -0.0033 C   0  0  0  0  0  0  0  0  0  0  0  0
   -6.8086   -3.2394   -0.4248 C   0  0  0  0  0  0  0  0  0  0  0  0
   -6.7249   -3.5608   -1.9307 C   0  0  0  0  0  0  0  0  0  0  0  0
   -6.8840   -4.5744    0.3452 C   0  0  0  0  0  0  0  0  0  0  0  0
   -8.1144   -2.4642   -0.1497 C   0  0  0  0  0  0  0  0  0  0  0  0
   -4.5307   -2.7605    0.8464 C   0  0  0  0  0  0  0  0  0  0  0  0
   -3.6592   -1.6927    0.8051 C   0  0  0  0  0  0  0  0  0  0  0  0
   -2.3646   -1.6855    1.3119 N   0  0  0  0  0  0  0  0  0  0  0  0
   -1.3443   -0.9434    0.7292 C   0  0  0  0  0  0  0  0  0  0  0  0
   -1.4465   -0.3630   -0.3431 O   0  0  0  0  0  0  0  0  0  0  0  0
   -0.2089   -0.9703    1.5246 N   0  0  0  0  0  0  0  0  0  0  0  0
    1.0368   -0.3657    1.2593 C   0  0  0  0  0  0  0  0  0  0  0  0
    1.3228    0.3591    0.1020 C   0  0  0  0  0  0  0  0  0  0  0  0
    2.5851    0.9363   -0.0941 C   0  0  0  0  0  0  0  0  0  0  0  0
    3.5821    0.7908    0.8671 C   0  0  0  0  0  0  0  0  0  0  0  0
    4.8514    1.2950    0.7917 O   0  0  0  0  0  0  0  0  0  0  0  0
    5.1617    2.0887   -0.3550 C   0  0  0  0  0  0  0  0  0  0  0  0
    6.6135    2.5707   -0.2412 C   0  0  0  0  0  0  0  0  0  0  0  0
    7.6620    1.4983   -0.4941 N   0  0  0  0  0  0  0  0  0  0  0  0
    7.7577    1.0316   -1.9417 C   0  0  0  0  0  0  0  0  0  0  0  0
    8.9583    0.0862   -2.0847 C   0  0  0  0  0  0  0  0  0  0  0  0
    8.8518   -1.0255   -1.1879 O   0  0  0  0  0  0  0  0  0  0  0  0
    8.7948   -0.6133    0.1837 C   0  0  0  0  0  0  0  0  0  0  0  0
    7.5777    0.2868    0.4334 C   0  0  0  0  0  0  0  0  0  0  0  0
    3.3025    0.0666    2.0265 C   0  0  0  0  0  0  0  0  0  0  0  0
    2.0404   -0.5062    2.2229 C   0  0  0  0  0  0  0  0  0  0  0  0
   -3.4916    1.3625    1.2622 C   0  0  0  0  0  0  0  0  0  0  0  0
   -3.4001    2.7573    1.3275 C   0  0  0  0  0  0  0  0  0  0  0  0
   -4.8102    5.5355    0.0215 H   0  0  0  0  0  0  0  0  0  0  0  0
   -3.0436    5.3781   -0.1413 H   0  0  0  0  0  0  0  0  0  0  0  0
   -3.8093    5.3985    1.4664 H   0  0  0  0  0  0  0  0  0  0  0  0
   -5.2622    3.5488   -1.4094 H   0  0  0  0  0  0  0  0  0  0  0  0
   -5.4323    1.1072   -1.5303 H   0  0  0  0  0  0  0  0  0  0  0  0
   -5.8058   -4.1099   -2.1674 H   0  0  0  0  0  0  0  0  0  0  0  0
   -6.7261   -2.6482   -2.5383 H   0  0  0  0  0  0  0  0  0  0  0  0
   -7.5742   -4.1733   -2.2543 H   0  0  0  0  0  0  0  0  0  0  0  0
   -6.9478   -4.4088    1.4272 H   0  0  0  0  0  0  0  0  0  0  0  0
   -6.0030   -5.1985    0.1548 H   0  0  0  0  0  0  0  0  0  0  0  0
   -7.7653   -5.1548    0.0478 H   0  0  0  0  0  0  0  0  0  0  0  0
   -8.9942   -3.0583   -0.4224 H   0  0  0  0  0  0  0  0  0  0  0  0
   -8.1597   -1.5307   -0.7226 H   0  0  0  0  0  0  0  0  0  0  0  0
   -8.2022   -2.2023    0.9114 H   0  0  0  0  0  0  0  0  0  0  0  0
   -4.3612   -3.7125    1.3280 H   0  0  0  0  0  0  0  0  0  0  0  0
   -2.0972   -2.4655    1.8943 H   0  0  0  0  0  0  0  0  0  0  0  0
   -0.3039   -1.4379    2.4132 H   0  0  0  0  0  0  0  0  0  0  0  0
    0.5799    0.5034   -0.6777 H   0  0  0  0  0  0  0  0  0  0  0  0
    2.7339    1.4912   -1.0143 H   0  0  0  0  0  0  0  0  0  0  0  0
    4.5116    2.9719   -0.3666 H   0  0  0  0  0  0  0  0  0  0  0  0
    5.0179    1.5164   -1.2772 H   0  0  0  0  0  0  0  0  0  0  0  0
    6.8187    2.9529    0.7649 H   0  0  0  0  0  0  0  0  0  0  0  0
    6.8140    3.3657   -0.9669 H   0  0  0  0  0  0  0  0  0  0  0  0
    8.5602    1.9507   -0.2801 H   0  0  0  0  0  0  0  0  0  0  0  0
    6.8232    0.5133   -2.1762 H   0  0  0  0  0  0  0  0  0  0  0  0
    7.8734    1.9194   -2.5701 H   0  0  0  0  0  0  0  0  0  0  0  0
    9.9011    0.6123   -1.8946 H   0  0  0  0  0  0  0  0  0  0  0  0
    8.9968   -0.3104   -3.1039 H   0  0  0  0  0  0  0  0  0  0  0  0
    9.7286   -0.1029    0.4466 H   0  0  0  0  0  0  0  0  0  0  0  0
    8.7205   -1.5151    0.7992 H   0  0  0  0  0  0  0  0  0  0  0  0
    6.6595   -0.2508    0.1815 H   0  0  0  0  0  0  0  0  0  0  0  0
    7.5540    0.6556    1.4627 H   0  0  0  0  0  0  0  0  0  0  0  0
    4.0636   -0.0537    2.7932 H   0  0  0  0  0  0  0  0  0  0  0  0
    1.8579   -1.0601    3.1404 H   0  0  0  0  0  0  0  0  0  0  0  0
   -3.0222    0.7837    2.0497 H   0  0  0  0  0  0  0  0  0  0  0  0
   -2.8345    3.2140    2.1363 H   0  0  0  0  0  0  0  0  0  0  0  0
  1  2  1  0
  2  3  2  0
  3  4  1  0
  4  5  2  0
  5  6  1  0
  6  7  1  0
  7  8  2  0
  8  9  1  0
  9 10  1  0
  9 11  1  0
  9 12  1  0
  8 13  1  0
 13 14  2  0
 14 15  1  0
 15 16  1  0
 16 17  2  0
 16 18  1  0
 18 19  1  0
 19 20  2  0
 20 21  1  0
 21 22  2  0
 22 23  1  0
 23 24  1  0
 24 25  1  0
 25 26  1  0
 26 27  1  0
 27 28  1  0
 28 29  1  0
 29 30  1  0
 30 31  1  0
 22 32  1  0
 32 33  2  0
  5 34  1  0
 34 35  2  0
 35  2  1  0
 14  6  1  0
 33 19  1  0
 31 26  1  0
  1 36  1  0
  1 37  1  0
  1 38  1  0
  3 39  1  0
  4 40  1  0
 10 41  1  0
 10 42  1  0
 10 43  1  0
 11 44  1  0
 11 45  1  0
 11 46  1  0
 12 47  1  0
 12 48  1  0
 12 49  1  0
 13 50  1  0
 15 51  1  0
 18 52  1  0
 20 53  1  0
 21 54  1  0
 24 55  1  0
 24 56  1  0
 25 57  1  0
 25 58  1  0
 26 59  1  0
 27 60  1  0
 27 61  1  0
 28 62  1  0
 28 63  1  0
 30 64  1  0
 30 65  1  0
 31 66  1  0
 31 67  1  0
 32 68  1  0
 33 69  1  0
 34 70  1  0
 35 71  1  0
M  CHG  1  26   1
M  END
$$$$
