
     RDKit          3D

 57 60  0  0  0  0  0  0  0  0999 V2000
   -1.7098   -0.2656    2.9186 N   0  0  0  0  0  0  0  0  0  0  0  0
   -2.6915   -0.8865    2.9854 C   0  0  0  0  0  0  0  0  0  0  0  0
   -3.8910   -1.6807    2.9452 C   0  0  0  0  0  0  0  0  0  0  0  0
   -4.7785   -1.6258    4.0282 C   0  0  0  0  0  0  0  0  0  0  0  0
   -5.9501   -2.3814    4.0107 C   0  0  0  0  0  0  0  0  0  0  0  0
   -6.2417   -3.1884    2.9130 C   0  0  0  0  0  0  0  0  0  0  0  0
   -5.3624   -3.2498    1.8285 C   0  0  0  0  0  0  0  0  0  0  0  0
   -4.1723   -2.5086    1.8321 C   0  0  0  0  0  0  0  0  0  0  0  0
   -3.2436   -2.5489    0.6864 C   0  0  0  0  0  0  0  0  0  0  0  0
   -2.9665   -3.6068   -0.0856 C   0  0  0  0  0  0  0  0  0  0  0  0
   -1.8679   -3.5923   -1.1773 C   0  0  0  0  0  0  0  0  0  0  0  0
   -0.8626   -2.8083   -1.6619 C   0  0  0  0  0  0  0  0  0  0  0  0
   -0.2300   -1.6603   -1.4389 N   0  0  0  0  0  0  0  0  0  0  0  0
   -0.2557   -0.9937   -0.1209 C   0  0  0  0  0  0  0  0  0  0  0  0
    1.0527   -0.2420    0.1760 C   0  0  0  0  0  0  0  0  0  0  0  0
    1.3068    0.8436   -0.8720 N   0  0  0  0  0  0  0  0  0  0  0  0
    2.7102    1.3980   -0.7545 C   0  0  0  0  0  0  0  0  0  0  0  0
    2.8294    2.8044   -1.3767 C   0  0  0  0  0  0  0  0  0  0  0  0
    4.3089    3.2270   -1.4561 C   0  0  0  0  0  0  0  0  0  0  0  0
    4.9074    3.5657   -0.0917 C   0  0  0  0  0  0  0  0  0  0  0  0
    4.0832    4.6214    0.6384 C   0  0  0  0  0  0  0  0  0  0  0  0
    2.6118    4.2309    0.7378 C   0  0  0  0  0  0  0  0  0  0  0  0
    2.0265    3.8869   -0.6309 C   0  0  0  0  0  0  0  0  0  0  0  0
    0.9243    0.4018   -2.2893 C   0  0  0  0  0  0  0  0  0  0  0  0
    0.7421   -1.1239   -2.4212 C   0  0  0  0  0  0  0  0  0  0  0  0
   -0.5799   -3.8382   -2.7217 C   0  0  0  0  0  0  0  0  0  0  0  0
    0.1712   -3.9705   -3.6547 O   0  0  0  0  0  0  0  0  0  0  0  0
   -1.6276   -4.6941   -2.1002 C   0  0  0  0  0  0  0  0  0  0  0  0
   -2.0397   -5.8005   -2.3324 O   0  0  0  0  0  0  0  0  0  0  0  0
   -4.5668   -0.9966    4.8912 H   0  0  0  0  0  0  0  0  0  0  0  0
   -6.6401   -2.3395    4.8513 H   0  0  0  0  0  0  0  0  0  0  0  0
   -7.1610   -3.7713    2.8988 H   0  0  0  0  0  0  0  0  0  0  0  0
   -5.6309   -3.8785    0.9819 H   0  0  0  0  0  0  0  0  0  0  0  0
   -2.7452   -1.6116    0.4796 H   0  0  0  0  0  0  0  0  0  0  0  0
   -3.5063   -4.5454    0.0282 H   0  0  0  0  0  0  0  0  0  0  0  0
   -0.3987   -1.7327    0.6750 H   0  0  0  0  0  0  0  0  0  0  0  0
   -1.0896   -0.2835   -0.1009 H   0  0  0  0  0  0  0  0  0  0  0  0
    1.0081    0.2611    1.1473 H   0  0  0  0  0  0  0  0  0  0  0  0
    1.9113   -0.9228    0.1515 H   0  0  0  0  0  0  0  0  0  0  0  0
    0.6503    1.5943   -0.6273 H   0  0  0  0  0  0  0  0  0  0  0  0
    3.3749    0.6783   -1.2460 H   0  0  0  0  0  0  0  0  0  0  0  0
    2.9566    1.4177    0.3118 H   0  0  0  0  0  0  0  0  0  0  0  0
    2.4515    2.7640   -2.4055 H   0  0  0  0  0  0  0  0  0  0  0  0
    4.9035    2.4389   -1.9333 H   0  0  0  0  0  0  0  0  0  0  0  0
    4.3895    4.1097   -2.1040 H   0  0  0  0  0  0  0  0  0  0  0  0
    5.9326    3.9303   -0.2234 H   0  0  0  0  0  0  0  0  0  0  0  0
    4.9737    2.6606    0.5232 H   0  0  0  0  0  0  0  0  0  0  0  0
    4.4920    4.7804    1.6426 H   0  0  0  0  0  0  0  0  0  0  0  0
    4.1681    5.5772    0.1063 H   0  0  0  0  0  0  0  0  0  0  0  0
    2.0453    5.0595    1.1783 H   0  0  0  0  0  0  0  0  0  0  0  0
    2.5002    3.3797    1.4190 H   0  0  0  0  0  0  0  0  0  0  0  0
    0.9765    3.6000   -0.5189 H   0  0  0  0  0  0  0  0  0  0  0  0
    2.0228    4.7984   -1.2438 H   0  0  0  0  0  0  0  0  0  0  0  0
   -0.0182    0.9153   -2.5104 H   0  0  0  0  0  0  0  0  0  0  0  0
    1.6884    0.7568   -2.9866 H   0  0  0  0  0  0  0  0  0  0  0  0
    1.7070   -1.6275   -2.2852 H   0  0  0  0  0  0  0  0  0  0  0  0
    0.4007   -1.3264   -3.4433 H   0  0  0  0  0  0  0  0  0  0  0  0
  1  2  3  0
  2  3  1  0
  3  4  2  0
  4  5  1  0
  5  6  2  0
  6  7  1  0
  7  8  2  0
  8  9  1  0
  9 10  2  0
 10 11  1  0
 11 12  2  0
 12 13  1  0
 13 14  1  0
 14 15  1  0
 15 16  1  0
 16 17  1  0
 17 18  1  0
 18 19  1  0
 19 20  1  0
 20 21  1  0
 21 22  1  0
 22 23  1  0
 16 24  1  0
 24 25  1  0
 12 26  1  0
 26 27  2  0
 26 28  1  0
 28 29  2  0
  8  3  1  0
 28 11  1  0
 25 13  1  0
 23 18  1  0
  4 30  1  0
  5 31  1  0
  6 32  1  0
  7 33  1  0
  9 34  1  0
 10 35  1  0
 14 36  1  0
 14 37  1  0
 15 38  1  0
 15 39  1  0
 16 40  1  0
 17 41  1  0
 17 42  1  0
 18 43  1  0
 19 44  1  0
 19 45  1  0
 20 46  1  0
 20 47  1  0
 21 48  1  0
 21 49  1  0
 22 50  1  0
 22 51  1  0
 23 52  1  0
 23 53  1  0
 24 54  1  0
 24 55  1  0
 25 56  1  0
 25 57  1  0
M  CHG  1  16   1
M  END
$$$$
