
     RDKit          3D

 59 61  0  0  0  0  0  0  0  0999 V2000
    6.0700   -2.6381    0.1328 C   0  0  0  0  0  0  0  0  0  0  0  0
    5.9730   -1.1197    0.3378 C   0  0  0  0  0  0  0  0  0  0  0  0
    6.3800   -0.7865    1.7770 C   0  0  0  0  0  0  0  0  0  0  0  0
    6.8740   -0.4223   -0.6868 C   0  0  0  0  0  0  0  0  0  0  0  0
    4.5709   -0.7998    0.1041 O   0  0  0  0  0  0  0  0  0  0  0  0
    4.1378    0.4613    0.1981 C   0  0  0  0  0  0  0  0  0  0  0  0
    4.7372    1.4764    0.4777 O   0  0  0  0  0  0  0  0  0  0  0  0
    2.7222    0.6398   -0.0631 N   0  0  0  0  0  0  0  0  0  0  0  0
    2.4558    1.4123   -1.3448 C   0  0  0  0  0  0  0  0  0  0  0  0
    1.3308    2.3823   -0.8805 C   0  0  2  0  0  0  0  0  0  0  0  0
    1.9484    2.8514    0.4395 C   0  0  0  0  0  0  0  0  0  0  0  0
    2.0004    1.4388    1.0316 C   0  0  1  0  0  0  0  0  0  0  0  0
    0.4878    1.0904    0.9962 C   0  0  0  0  0  0  0  0  0  0  0  0
    0.0802    1.6520   -0.3477 N   0  0  0  0  0  0  0  0  0  0  0  0
   -0.4910    0.4830   -1.4243 S   0  0  0  0  0  0  0  0  0  0  0  0
   -0.4576    1.2132   -2.6637 O   0  0  0  0  0  0  0  0  0  0  0  0
    0.4069   -0.6191   -1.1551 O   0  0  0  0  0  0  0  0  0  0  0  0
   -2.1411    0.0817   -0.9793 C   0  0  0  0  0  0  0  0  0  0  0  0
   -2.4126   -1.1032   -0.2966 C   0  0  0  0  0  0  0  0  0  0  0  0
   -3.7276   -1.3966    0.0780 C   0  0  0  0  0  0  0  0  0  0  0  0
   -4.7878   -0.5253   -0.2267 C   0  0  0  0  0  0  0  0  0  0  0  0
   -6.2505   -0.8295    0.1625 C   0  0  0  0  0  0  0  0  0  0  0  0
   -7.1102   -0.9528   -1.1137 C   0  0  0  0  0  0  0  0  0  0  0  0
   -6.4253   -2.1407    0.9616 C   0  0  0  0  0  0  0  0  0  0  0  0
   -6.8034    0.3142    1.0405 C   0  0  0  0  0  0  0  0  0  0  0  0
   -4.4802    0.6524   -0.9380 C   0  0  0  0  0  0  0  0  0  0  0  0
   -3.1714    0.9579   -1.3179 C   0  0  0  0  0  0  0  0  0  0  0  0
    7.0909   -3.0044    0.2832 H   0  0  0  0  0  0  0  0  0  0  0  0
    5.7475   -2.9162   -0.8774 H   0  0  0  0  0  0  0  0  0  0  0  0
    5.4061   -3.1680    0.8258 H   0  0  0  0  0  0  0  0  0  0  0  0
    6.3841    0.2924    1.9595 H   0  0  0  0  0  0  0  0  0  0  0  0
    7.3831   -1.1626    2.0047 H   0  0  0  0  0  0  0  0  0  0  0  0
    5.6733   -1.2230    2.4918 H   0  0  0  0  0  0  0  0  0  0  0  0
    6.5154   -0.6028   -1.7064 H   0  0  0  0  0  0  0  0  0  0  0  0
    7.9083   -0.7751   -0.6135 H   0  0  0  0  0  0  0  0  0  0  0  0
    6.8859    0.6629   -0.5464 H   0  0  0  0  0  0  0  0  0  0  0  0
    2.3845   -0.3330   -0.1579 H   0  0  0  0  0  0  0  0  0  0  0  0
    3.3587    1.9664   -1.6278 H   0  0  0  0  0  0  0  0  0  0  0  0
    2.2000    0.7121   -2.1413 H   0  0  0  0  0  0  0  0  0  0  0  0
    1.0441    3.1661   -1.5848 H   0  0  0  0  0  0  0  0  0  0  0  0
    2.9296    3.3202    0.3167 H   0  0  0  0  0  0  0  0  0  0  0  0
    1.3005    3.5322    1.0030 H   0  0  0  0  0  0  0  0  0  0  0  0
    2.4803    1.3092    2.0045 H   0  0  0  0  0  0  0  0  0  0  0  0
    0.2758    0.0229    1.0948 H   0  0  0  0  0  0  0  0  0  0  0  0
   -0.0726    1.6489    1.7534 H   0  0  0  0  0  0  0  0  0  0  0  0
   -0.7047    2.3093   -0.2770 H   0  0  0  0  0  0  0  0  0  0  0  0
   -1.6352   -1.8267   -0.0578 H   0  0  0  0  0  0  0  0  0  0  0  0
   -3.9081   -2.3352    0.6005 H   0  0  0  0  0  0  0  0  0  0  0  0
   -7.1321   -0.0214   -1.6901 H   0  0  0  0  0  0  0  0  0  0  0  0
   -6.7254   -1.7391   -1.7740 H   0  0  0  0  0  0  0  0  0  0  0  0
   -8.1490   -1.2022   -0.8679 H   0  0  0  0  0  0  0  0  0  0  0  0
   -7.4771   -2.3054    1.2251 H   0  0  0  0  0  0  0  0  0  0  0  0
   -6.0998   -3.0131    0.3831 H   0  0  0  0  0  0  0  0  0  0  0  0
   -5.8573   -2.1203    1.8990 H   0  0  0  0  0  0  0  0  0  0  0  0
   -6.8254    1.2721    0.5095 H   0  0  0  0  0  0  0  0  0  0  0  0
   -6.1924    0.4507    1.9407 H   0  0  0  0  0  0  0  0  0  0  0  0
   -7.8300    0.1043    1.3627 H   0  0  0  0  0  0  0  0  0  0  0  0
   -5.2773    1.3410   -1.2223 H   0  0  0  0  0  0  0  0  0  0  0  0
   -2.9982    1.8642   -1.8959 H   0  0  0  0  0  0  0  0  0  0  0  0
  1  2  1  0
  2  3  1  0
  2  4  1  0
  2  5  1  0
  5  6  1  0
  6  7  2  0
  6  8  1  0
  8  9  1  0
  9 10  1  0
 10 11  1  0
 11 12  1  0
 12 13  1  0
 13 14  1  0
 14 15  1  0
 15 16  2  0
 15 17  2  0
 15 18  1  0
 18 19  2  0
 19 20  1  0
 20 21  2  0
 21 22  1  0
 22 23  1  0
 22 24  1  0
 22 25  1  0
 21 26  1  0
 26 27  2  0
 12  8  1  0
 27 18  1  0
 14 10  1  0
  1 28  1  0
  1 29  1  0
  1 30  1  0
  3 31  1  0
  3 32  1  0
  3 33  1  0
  4 34  1  0
  4 35  1  0
  4 36  1  0
  8 37  1  0
  9 38  1  0
  9 39  1  0
 10 40  1  6
 11 41  1  0
 11 42  1  0
 12 43  1  1
 13 44  1  0
 13 45  1  0
 14 46  1  0
 19 47  1  0
 20 48  1  0
 23 49  1  0
 23 50  1  0
 23 51  1  0
 24 52  1  0
 24 53  1  0
 24 54  1  0
 25 55  1  0
 25 56  1  0
 25 57  1  0
 26 58  1  0
 27 59  1  0
M  CHG  2   8   1  14   1
M  END
$$$$
