
     RDKit          3D

 61 66  0  0  0  0  0  0  0  0999 V2000
   -1.8483   -0.9636   -3.6616 C   0  0  0  0  0  0  0  0  0  0  0  0
   -2.6979    0.2776   -3.5846 C   0  0  0  0  0  0  0  0  0  0  0  0
   -2.4704    1.2762   -4.2625 O   0  0  0  0  0  0  0  0  0  0  0  0
   -3.8798    0.2463   -2.6976 C   0  0  0  0  0  0  0  0  0  0  0  0
   -5.1232    0.3647   -3.3405 C   0  0  0  0  0  0  0  0  0  0  0  0
   -6.2982    0.2210   -2.6127 C   0  0  0  0  0  0  0  0  0  0  0  0
   -6.2274   -0.0445   -1.2506 C   0  0  0  0  0  0  0  0  0  0  0  0
   -4.9833   -0.1412   -0.6129 C   0  0  0  0  0  0  0  0  0  0  0  0
   -3.7710    0.0248   -1.3076 C   0  0  0  0  0  0  0  0  0  0  0  0
   -2.5617    0.0025   -0.6258 N   0  0  0  0  0  0  0  0  0  0  0  0
   -1.5725    1.0797   -0.8478 C   0  0  0  0  0  0  0  0  0  0  0  0
   -0.9322    1.5352    0.4829 C   0  0  0  0  0  0  0  0  0  0  0  0
   -0.2902    0.4173    1.2092 N   0  0  0  0  0  0  0  0  0  0  0  0
    1.0181    0.5017    1.6670 C   0  0  0  0  0  0  0  0  0  0  0  0
    1.8684   -0.4206    1.2780 N   0  0  0  0  0  0  0  0  0  0  0  0
    3.1712   -0.3068    1.6518 C   0  0  0  0  0  0  0  0  0  0  0  0
    4.3146   -1.0476    1.4275 C   0  0  0  0  0  0  0  0  0  0  0  0
    4.4369   -2.5077    0.5351 S   0  0  0  0  0  0  0  0  0  0  0  0
    5.8419   -2.6575    0.2072 O   0  0  0  0  0  0  0  0  0  0  0  0
    3.7281   -3.4938    1.3298 O   0  0  0  0  0  0  0  0  0  0  0  0
    3.5574   -2.2375   -0.9793 C   0  0  0  0  0  0  0  0  0  0  0  0
    4.1358   -1.4380   -1.9710 C   0  0  0  0  0  0  0  0  0  0  0  0
    3.4556   -1.2363   -3.1715 C   0  0  0  0  0  0  0  0  0  0  0  0
    2.2135   -1.8383   -3.3805 C   0  0  0  0  0  0  0  0  0  0  0  0
    1.6476   -2.6472   -2.3932 C   0  0  0  0  0  0  0  0  0  0  0  0
    2.3202   -2.8534   -1.1890 C   0  0  0  0  0  0  0  0  0  0  0  0
    5.3942   -0.4456    2.0281 N   0  0  0  0  0  0  0  0  0  0  0  0
    4.9640    0.6568    2.6300 N   0  0  0  0  0  0  0  0  0  0  0  0
    3.6376    0.7384    2.4166 N   0  0  0  0  0  0  0  0  0  0  0  0
    2.8013    1.7360    2.9204 C   0  0  0  0  0  0  0  0  0  0  0  0
    3.2805    2.7549    3.7479 C   0  0  0  0  0  0  0  0  0  0  0  0
    2.3717    3.6702    4.2775 C   0  0  0  0  0  0  0  0  0  0  0  0
    1.0102    3.5438    3.9916 C   0  0  0  0  0  0  0  0  0  0  0  0
   -0.1082    4.6566    4.6798 Cl  0  0  0  0  0  0  0  0  0  0  0  0
    0.5404    2.5236    3.1602 C   0  0  0  0  0  0  0  0  0  0  0  0
    1.4443    1.6268    2.5870 C   0  0  0  0  0  0  0  0  0  0  0  0
   -0.8711   -0.9185    0.9413 C   0  0  0  0  0  0  0  0  0  0  0  0
   -2.3649   -0.8347    0.5703 C   0  0  0  0  0  0  0  0  0  0  0  0
   -0.8172   -0.7134   -3.4029 H   0  0  0  0  0  0  0  0  0  0  0  0
   -1.8880   -1.3564   -4.6814 H   0  0  0  0  0  0  0  0  0  0  0  0
   -2.2031   -1.7429   -2.9822 H   0  0  0  0  0  0  0  0  0  0  0  0
   -5.1693    0.5530   -4.4112 H   0  0  0  0  0  0  0  0  0  0  0  0
   -7.2627    0.3074   -3.1062 H   0  0  0  0  0  0  0  0  0  0  0  0
   -7.1410   -0.1618   -0.6722 H   0  0  0  0  0  0  0  0  0  0  0  0
   -4.9858   -0.3113    0.4605 H   0  0  0  0  0  0  0  0  0  0  0  0
   -0.7843    0.7133   -1.5143 H   0  0  0  0  0  0  0  0  0  0  0  0
   -2.0377    1.9555   -1.3161 H   0  0  0  0  0  0  0  0  0  0  0  0
   -1.7122    1.9654    1.1217 H   0  0  0  0  0  0  0  0  0  0  0  0
   -0.2025    2.3237    0.2658 H   0  0  0  0  0  0  0  0  0  0  0  0
    5.1115   -0.9803   -1.8208 H   0  0  0  0  0  0  0  0  0  0  0  0
    3.8959   -0.6166   -3.9492 H   0  0  0  0  0  0  0  0  0  0  0  0
    1.6884   -1.6815   -4.3201 H   0  0  0  0  0  0  0  0  0  0  0  0
    0.6838   -3.1198   -2.5649 H   0  0  0  0  0  0  0  0  0  0  0  0
    1.8752   -3.4853   -0.4237 H   0  0  0  0  0  0  0  0  0  0  0  0
    4.3367    2.8357    3.9978 H   0  0  0  0  0  0  0  0  0  0  0  0
    2.7260    4.4667    4.9281 H   0  0  0  0  0  0  0  0  0  0  0  0
   -0.5260    2.4295    2.9905 H   0  0  0  0  0  0  0  0  0  0  0  0
   -0.3247   -1.3949    0.1180 H   0  0  0  0  0  0  0  0  0  0  0  0
   -0.7581   -1.5478    1.8317 H   0  0  0  0  0  0  0  0  0  0  0  0
   -2.7394   -1.8483    0.3846 H   0  0  0  0  0  0  0  0  0  0  0  0
   -2.9185   -0.4112    1.4171 H   0  0  0  0  0  0  0  0  0  0  0  0
  1  2  1  0
  2  3  2  0
  2  4  1  0
  4  5  2  0
  5  6  1  0
  6  7  2  0
  7  8  1  0
  8  9  2  0
  9 10  1  0
 10 11  1  0
 11 12  1  0
 12 13  1  0
 13 14  1  0
 14 15  2  0
 15 16  1  0
 16 17  2  0
 17 18  1  0
 18 19  2  0
 18 20  2  0
 18 21  1  0
 21 22  2  0
 22 23  1  0
 23 24  2  0
 24 25  1  0
 25 26  2  0
 17 27  1  0
 27 28  2  0
 28 29  1  0
 29 30  1  0
 30 31  2  0
 31 32  1  0
 32 33  2  0
 33 34  1  0
 33 35  1  0
 35 36  2  0
 13 37  1  0
 37 38  1  0
  9  4  1  0
 38 10  1  0
 36 14  1  0
 29 16  1  0
 36 30  1  0
 26 21  1  0
  1 39  1  0
  1 40  1  0
  1 41  1  0
  5 42  1  0
  6 43  1  0
  7 44  1  0
  8 45  1  0
 11 46  1  0
 11 47  1  0
 12 48  1  0
 12 49  1  0
 22 50  1  0
 23 51  1  0
 24 52  1  0
 25 53  1  0
 26 54  1  0
 31 55  1  0
 32 56  1  0
 35 57  1  0
 37 58  1  0
 37 59  1  0
 38 60  1  0
 38 61  1  0
M  END
$$$$
