
     RDKit          3D

 88 94  0  0  0  0  0  0  0  0999 V2000
   -3.4424   -3.3240    0.4853 C   0  0  0  0  0  0  0  0  0  0  0  0
   -3.4560   -1.8279    0.7939 C   0  0  2  0  0  0  0  0  0  0  0  0
   -4.8955   -1.2943    0.6227 C   0  0  0  0  0  0  0  0  0  0  0  0
   -4.9603    0.2315    0.4781 C   0  0  1  0  0  0  0  0  0  0  0  0
   -3.7664    0.7763    1.0725 O   0  0  0  0  0  0  0  0  0  0  0  0
   -2.7448    0.5357    0.0801 C   0  0  1  0  0  0  0  0  0  0  0  0
   -3.4355    1.0873   -1.1739 C   0  0  0  0  0  0  0  0  0  0  0  0
   -4.8942    0.6671   -0.9976 C   0  0  2  0  0  0  0  0  0  0  0  0
   -5.9355    1.7461   -1.3882 C   0  0  0  0  0  0  0  0  0  0  0  0
   -5.8033    2.1291   -2.8686 C   0  0  0  0  0  0  0  0  0  0  0  0
   -5.8935    3.0143   -0.5276 C   0  0  0  0  0  0  0  0  0  0  0  0
   -7.2442    1.1799   -1.2148 O   0  0  0  0  0  0  0  0  0  0  0  0
   -1.4275    1.2231    0.5003 C   0  0  2  0  0  0  0  0  0  0  0  0
   -1.3528    2.5824    0.0885 O   0  0  0  0  0  0  0  0  0  0  0  0
   -0.3207    0.3174   -0.0820 C   0  0  1  0  0  0  0  0  0  0  0  0
   -0.2192    0.5380   -1.6246 C   0  0  0  0  0  0  0  0  0  0  0  0
    1.0819    0.5277    0.5525 C   0  0  2  0  0  0  0  0  0  0  0  0
    1.7548    1.8507    0.1521 C   0  0  0  0  0  0  0  0  0  0  0  0
    3.1290    1.9940    0.7992 C   0  0  0  0  0  0  0  0  0  0  0  0
    4.1000    0.9648    0.2051 C   0  0  1  0  0  0  0  0  0  0  0  0
    5.5743    1.0578    0.7409 C   0  0  0  0  0  0  0  0  0  0  0  0
    5.6679    0.8211    2.2637 C   0  0  0  0  0  0  0  0  0  0  0  0
    6.1474    2.4711    0.4712 C   0  0  0  0  0  0  0  0  0  0  0  0
    6.4416    0.0190   -0.0386 C   0  0  1  0  0  0  0  0  0  0  0  0
    7.7789   -0.0388    0.4629 O   0  0  0  0  0  0  0  0  0  0  0  0
    5.8709   -1.3973    0.0057 C   0  0  0  0  0  0  0  0  0  0  0  0
    4.4373   -1.4384   -0.5063 C   0  0  0  0  0  0  0  0  0  0  0  0
    3.5581   -0.4697    0.2715 C   0  0  1  0  0  0  0  0  0  0  0  0
    2.9164   -1.0103    1.5203 C   0  0  0  0  0  0  0  0  0  0  0  0
    2.0174   -0.6914    0.3309 C   0  0  1  0  0  0  0  0  0  0  0  0
    1.4565   -1.9038   -0.4500 C   0  0  0  0  0  0  0  0  0  0  0  0
   -0.0771   -2.1441   -0.4952 C   0  0  1  0  0  0  0  0  0  0  0  0
   -0.3767   -3.4599   -0.0348 O   0  0  0  0  0  0  0  0  0  0  0  0
   -0.1913   -4.4569   -0.9304 C   0  0  0  0  0  0  0  0  0  0  0  0
    0.3139   -4.1768   -2.0580 O   0  0  0  0  0  0  0  0  0  0  0  0
   -0.5591   -5.5979   -0.5307 O   0  0  0  0  0  0  0  0  0  0  0  0
   -0.8776   -1.1060    0.3312 C   0  0  1  0  0  0  0  0  0  0  0  0
   -0.7238   -1.4273    1.8505 C   0  0  0  0  0  0  0  0  0  0  0  0
   -2.4252   -1.0005   -0.0298 C   0  0  1  0  0  0  0  0  0  0  0  0
   -3.4597   -3.5101   -0.5933 H   0  0  0  0  0  0  0  0  0  0  0  0
   -4.3140   -3.8216    0.9257 H   0  0  0  0  0  0  0  0  0  0  0  0
   -2.5650   -3.8112    0.9119 H   0  0  0  0  0  0  0  0  0  0  0  0
   -3.2384   -1.7111    1.8621 H   0  0  0  0  0  0  0  0  0  0  0  0
   -5.4574   -1.5765    1.5239 H   0  0  0  0  0  0  0  0  0  0  0  0
   -5.4187   -1.7878   -0.2054 H   0  0  0  0  0  0  0  0  0  0  0  0
   -5.8401    0.6116    1.0048 H   0  0  0  0  0  0  0  0  0  0  0  0
   -3.0309    0.7058   -2.1140 H   0  0  0  0  0  0  0  0  0  0  0  0
   -3.3538    2.1761   -1.2150 H   0  0  0  0  0  0  0  0  0  0  0  0
   -5.0931   -0.2043   -1.6364 H   0  0  0  0  0  0  0  0  0  0  0  0
   -6.6243    2.7882   -3.1742 H   0  0  0  0  0  0  0  0  0  0  0  0
   -4.8581    2.6386   -3.0795 H   0  0  0  0  0  0  0  0  0  0  0  0
   -5.8684    1.2419   -3.5089 H   0  0  0  0  0  0  0  0  0  0  0  0
   -6.6956    3.7020   -0.8223 H   0  0  0  0  0  0  0  0  0  0  0  0
   -6.0682    2.7940    0.5301 H   0  0  0  0  0  0  0  0  0  0  0  0
   -4.9451    3.5510   -0.6172 H   0  0  0  0  0  0  0  0  0  0  0  0
   -7.3189    0.4114   -1.8074 H   0  0  0  0  0  0  0  0  0  0  0  0
   -1.3600    1.2516    1.5939 H   0  0  0  0  0  0  0  0  0  0  0  0
   -2.0917    3.0307    0.5391 H   0  0  0  0  0  0  0  0  0  0  0  0
    0.7096    0.1369   -2.0414 H   0  0  0  0  0  0  0  0  0  0  0  0
   -1.0268    0.0570   -2.1783 H   0  0  0  0  0  0  0  0  0  0  0  0
   -0.2371    1.6015   -1.8857 H   0  0  0  0  0  0  0  0  0  0  0  0
    0.9268    0.6090    1.6378 H   0  0  0  0  0  0  0  0  0  0  0  0
    1.8715    1.9309   -0.9341 H   0  0  0  0  0  0  0  0  0  0  0  0
    1.1357    2.6951    0.4720 H   0  0  0  0  0  0  0  0  0  0  0  0
    3.0391    1.8923    1.8856 H   0  0  0  0  0  0  0  0  0  0  0  0
    3.4859    3.0102    0.6021 H   0  0  0  0  0  0  0  0  0  0  0  0
    4.1528    1.2009   -0.8698 H   0  0  0  0  0  0  0  0  0  0  0  0
    5.3254   -0.1753    2.5532 H   0  0  0  0  0  0  0  0  0  0  0  0
    5.0739    1.5520    2.8218 H   0  0  0  0  0  0  0  0  0  0  0  0
    6.7009    0.9200    2.6170 H   0  0  0  0  0  0  0  0  0  0  0  0
    7.2001    2.5451    0.7640 H   0  0  0  0  0  0  0  0  0  0  0  0
    5.6163    3.2411    1.0400 H   0  0  0  0  0  0  0  0  0  0  0  0
    6.0786    2.7283   -0.5915 H   0  0  0  0  0  0  0  0  0  0  0  0
    6.5105    0.3214   -1.0922 H   0  0  0  0  0  0  0  0  0  0  0  0
    8.2322    0.7719    0.1808 H   0  0  0  0  0  0  0  0  0  0  0  0
    5.9240   -1.7958    1.0263 H   0  0  0  0  0  0  0  0  0  0  0  0
    6.4985   -2.0639   -0.5989 H   0  0  0  0  0  0  0  0  0  0  0  0
    4.0820   -2.4711   -0.4293 H   0  0  0  0  0  0  0  0  0  0  0  0
    4.4103   -1.1723   -1.5700 H   0  0  0  0  0  0  0  0  0  0  0  0
    3.0696   -2.0546    1.7802 H   0  0  0  0  0  0  0  0  0  0  0  0
    2.8621   -0.3860    2.4049 H   0  0  0  0  0  0  0  0  0  0  0  0
    1.8005   -1.7986   -1.4874 H   0  0  0  0  0  0  0  0  0  0  0  0
    1.9355   -2.8172   -0.0761 H   0  0  0  0  0  0  0  0  0  0  0  0
   -0.4147   -2.0543   -1.5356 H   0  0  0  0  0  0  0  0  0  0  0  0
   -1.1461   -2.4048    2.1030 H   0  0  0  0  0  0  0  0  0  0  0  0
   -1.2232   -0.6903    2.4858 H   0  0  0  0  0  0  0  0  0  0  0  0
    0.3164   -1.4798    2.1755 H   0  0  0  0  0  0  0  0  0  0  0  0
   -2.5327   -1.2991   -1.0814 H   0  0  0  0  0  0  0  0  0  0  0  0
  1  2  1  0
  2  3  1  0
  3  4  1  0
  4  5  1  0
  5  6  1  0
  6  7  1  6
  7  8  1  0
  8  9  1  0
  9 10  1  0
  9 11  1  0
  9 12  1  0
  6 13  1  0
 13 14  1  0
 13 15  1  0
 15 16  1  6
 15 17  1  0
 17 18  1  0
 18 19  1  0
 19 20  1  0
 20 21  1  0
 21 22  1  0
 21 23  1  0
 21 24  1  0
 24 25  1  0
 24 26  1  0
 26 27  1  0
 28 27  1  6
 28 29  1  0
 30 29  1  1
 30 31  1  0
 31 32  1  0
 32 33  1  0
 33 34  1  0
 34 35  2  0
 34 36  1  0
 32 37  1  0
 37 38  1  1
 37 39  1  0
 39  2  1  0
  8  4  1  0
 37 15  1  0
 39  6  1  0
 30 17  1  0
 28 20  1  0
 30 28  1  0
  1 40  1  0
  1 41  1  0
  1 42  1  0
  2 43  1  1
  3 44  1  0
  3 45  1  0
  4 46  1  1
  7 47  1  0
  7 48  1  0
  8 49  1  6
 10 50  1  0
 10 51  1  0
 10 52  1  0
 11 53  1  0
 11 54  1  0
 11 55  1  0
 12 56  1  0
 13 57  1  1
 14 58  1  0
 16 59  1  0
 16 60  1  0
 16 61  1  0
 17 62  1  1
 18 63  1  0
 18 64  1  0
 19 65  1  0
 19 66  1  0
 20 67  1  6
 22 68  1  0
 22 69  1  0
 22 70  1  0
 23 71  1  0
 23 72  1  0
 23 73  1  0
 24 74  1  6
 25 75  1  0
 26 76  1  0
 26 77  1  0
 27 78  1  0
 27 79  1  0
 29 80  1  0
 29 81  1  0
 31 82  1  0
 31 83  1  0
 32 84  1  6
 38 85  1  0
 38 86  1  0
 38 87  1  0
 39 88  1  6
M  CHG  1  36  -1
M  END
$$$$
