
     RDKit          3D

 60 64  0  0  0  0  0  0  0  0999 V2000
   -1.4708    4.0308   -2.1988 C   0  0  0  0  0  0  0  0  0  0  0  0
   -0.2020    3.5259   -1.5632 C   0  0  0  0  0  0  0  0  0  0  0  0
    0.9543    4.3227   -1.6544 C   0  0  0  0  0  0  0  0  0  0  0  0
    2.1627    3.8928   -1.1089 C   0  0  0  0  0  0  0  0  0  0  0  0
    2.2302    2.6603   -0.4614 C   0  0  0  0  0  0  0  0  0  0  0  0
    3.5396    2.2043    0.0890 C   0  0  0  0  0  0  0  0  0  0  0  0
    4.3360    3.0519    0.4750 O   0  0  0  0  0  0  0  0  0  0  0  0
    3.7331    0.8335    0.0675 N   0  0  0  0  0  0  0  0  0  0  0  0
    4.8371    0.1120    0.5640 C   0  0  0  0  0  0  0  0  0  0  0  0
    5.9288    0.6960    1.2056 C   0  0  0  0  0  0  0  0  0  0  0  0
    6.9833   -0.0940    1.6722 C   0  0  0  0  0  0  0  0  0  0  0  0
    6.9531   -1.4774    1.5058 C   0  0  0  0  0  0  0  0  0  0  0  0
    5.8612   -2.0874    0.8753 C   0  0  0  0  0  0  0  0  0  0  0  0
    5.8250   -3.5803    0.6728 C   0  0  0  0  0  0  0  0  0  0  0  0
    4.5594   -4.0874    0.6649 F   0  0  0  0  0  0  0  0  0  0  0  0
    6.4927   -4.2707    1.6392 F   0  0  0  0  0  0  0  0  0  0  0  0
    6.3838   -3.9574   -0.5100 F   0  0  0  0  0  0  0  0  0  0  0  0
    4.8124   -1.2799    0.4012 C   0  0  0  0  0  0  0  0  0  0  0  0
    1.0722    1.8834   -0.3311 C   0  0  0  0  0  0  0  0  0  0  0  0
   -0.1527    2.2847   -0.8862 C   0  0  0  0  0  0  0  0  0  0  0  0
   -1.2988    1.4642   -0.8209 N   0  0  0  0  0  0  0  0  0  0  0  0
   -1.3726    0.1356   -0.5417 C   0  0  0  0  0  0  0  0  0  0  0  0
   -0.3876   -0.7212   -0.3607 N   0  0  0  0  0  0  0  0  0  0  0  0
   -0.9719   -1.9473   -0.2196 C   0  0  0  0  0  0  0  0  0  0  0  0
   -0.3589   -3.2014   -0.0724 C   0  0  0  0  0  0  0  0  0  0  0  0
   -1.1600   -4.3470   -0.0356 C   0  0  0  0  0  0  0  0  0  0  0  0
   -2.5441   -4.2478   -0.1619 C   0  0  0  0  0  0  0  0  0  0  0  0
   -3.1715   -3.0043   -0.2990 C   0  0  0  0  0  0  0  0  0  0  0  0
   -2.3593   -1.8574   -0.2794 C   0  0  0  0  0  0  0  0  0  0  0  0
   -2.6120   -0.4931   -0.3695 N   0  0  0  0  0  0  0  0  0  0  0  0
   -3.8812    0.1656   -0.3759 C   0  0  0  0  0  0  0  0  0  0  0  0
   -4.0061    1.1748   -1.2766 N   0  0  0  0  0  0  0  0  0  0  0  0
   -5.2170    1.7300   -1.3779 C   0  0  0  0  0  0  0  0  0  0  0  0
   -6.2890    1.3973   -0.6590 N   0  0  0  0  0  0  0  0  0  0  0  0
   -6.1206    0.4471    0.2690 C   0  0  0  0  0  0  0  0  0  0  0  0
   -7.2374    0.1971    1.0411 N   0  0  0  0  0  0  0  0  0  0  0  0
   -4.9044   -0.1873    0.5020 C   0  0  0  0  0  0  0  0  0  0  0  0
   -4.7486   -1.0794    1.6989 C   0  0  0  0  0  0  0  0  0  0  0  0
   -2.2360    4.1994   -1.4343 H   0  0  0  0  0  0  0  0  0  0  0  0
   -1.3111    4.9800   -2.7214 H   0  0  0  0  0  0  0  0  0  0  0  0
   -1.8402    3.3111   -2.9366 H   0  0  0  0  0  0  0  0  0  0  0  0
    0.9231    5.2840   -2.1636 H   0  0  0  0  0  0  0  0  0  0  0  0
    3.0504    4.5157   -1.1968 H   0  0  0  0  0  0  0  0  0  0  0  0
    3.0117    0.2781   -0.3779 H   0  0  0  0  0  0  0  0  0  0  0  0
    5.9909    1.7690    1.3598 H   0  0  0  0  0  0  0  0  0  0  0  0
    7.8291    0.3784    2.1666 H   0  0  0  0  0  0  0  0  0  0  0  0
    7.7841   -2.0777    1.8731 H   0  0  0  0  0  0  0  0  0  0  0  0
    3.9681   -1.7543   -0.0975 H   0  0  0  0  0  0  0  0  0  0  0  0
    1.1147    0.9646    0.2449 H   0  0  0  0  0  0  0  0  0  0  0  0
   -2.1710    1.9300   -1.0662 H   0  0  0  0  0  0  0  0  0  0  0  0
    0.7217   -3.2755   -0.0135 H   0  0  0  0  0  0  0  0  0  0  0  0
   -0.6932   -5.3240    0.0674 H   0  0  0  0  0  0  0  0  0  0  0  0
   -3.1468   -5.1543   -0.1632 H   0  0  0  0  0  0  0  0  0  0  0  0
   -4.2470   -2.9474   -0.4303 H   0  0  0  0  0  0  0  0  0  0  0  0
   -5.3427    2.5182   -2.1122 H   0  0  0  0  0  0  0  0  0  0  0  0
   -8.0353    0.7627    0.7759 H   0  0  0  0  0  0  0  0  0  0  0  0
   -7.4275   -0.7469    1.3409 H   0  0  0  0  0  0  0  0  0  0  0  0
   -3.7030   -1.2267    1.9816 H   0  0  0  0  0  0  0  0  0  0  0  0
   -5.2187   -0.6228    2.5779 H   0  0  0  0  0  0  0  0  0  0  0  0
   -5.2199   -2.0506    1.5240 H   0  0  0  0  0  0  0  0  0  0  0  0
  1  2  1  0
  2  3  2  0
  3  4  1  0
  4  5  2  0
  5  6  1  0
  6  7  2  0
  6  8  1  0
  8  9  1  0
  9 10  2  0
 10 11  1  0
 11 12  2  0
 12 13  1  0
 13 14  1  0
 14 15  1  0
 14 16  1  0
 14 17  1  0
 13 18  2  0
  5 19  1  0
 19 20  2  0
 20 21  1  0
 21 22  1  0
 22 23  2  0
 23 24  1  0
 24 25  2  0
 25 26  1  0
 26 27  2  0
 27 28  1  0
 28 29  2  0
 29 30  1  0
 30 31  1  0
 31 32  2  0
 32 33  1  0
 33 34  2  0
 34 35  1  0
 35 36  1  0
 35 37  2  0
 37 38  1  0
 20  2  1  0
 30 22  1  0
 37 31  1  0
 18  9  1  0
 29 24  1  0
  1 39  1  0
  1 40  1  0
  1 41  1  0
  3 42  1  0
  4 43  1  0
  8 44  1  0
 10 45  1  0
 11 46  1  0
 12 47  1  0
 18 48  1  0
 19 49  1  0
 21 50  1  0
 25 51  1  0
 26 52  1  0
 27 53  1  0
 28 54  1  0
 33 55  1  0
 36 56  1  0
 36 57  1  0
 38 58  1  0
 38 59  1  0
 38 60  1  0
M  END
$$$$
