
     RDKit          3D

 56 59  0  0  0  0  0  0  0  0999 V2000
    8.2279    2.8796   -0.0133 C   0  0  0  0  0  0  0  0  0  0  0  0
    8.8358    1.9513   -1.4088 S   0  0  0  0  0  0  0  0  0  0  0  0
   10.2772    2.0893   -1.4254 O   0  0  0  0  0  0  0  0  0  0  0  0
    8.0400    2.2834   -2.5689 O   0  0  0  0  0  0  0  0  0  0  0  0
    8.5443    0.3611   -0.9442 N   0  0  0  0  0  0  0  0  0  0  0  0
    7.2272   -0.0738   -0.6253 C   0  0  0  0  0  0  0  0  0  0  0  0
    7.0129   -0.6981    0.6028 C   0  0  0  0  0  0  0  0  0  0  0  0
    5.7321   -1.1424    0.9561 C   0  0  0  0  0  0  0  0  0  0  0  0
    4.6386   -0.9844    0.0863 C   0  0  0  0  0  0  0  0  0  0  0  0
    3.2802   -1.4427    0.4414 C   0  0  0  0  0  0  0  0  0  0  0  0
    3.0436   -2.5904    1.1685 C   0  0  0  0  0  0  0  0  0  0  0  0
    1.7270   -2.8814    1.4186 C   0  0  0  0  0  0  0  0  0  0  0  0
    0.7061   -2.1171    0.9991 N   0  0  0  0  0  0  0  0  0  0  0  0
    1.0076   -1.0202    0.2924 C   0  0  0  0  0  0  0  0  0  0  0  0
    0.0297   -0.1584   -0.1938 N   0  0  0  0  0  0  0  0  0  0  0  0
   -1.3661   -0.1360   -0.1369 C   0  0  0  0  0  0  0  0  0  0  0  0
   -2.1406   -1.1071    0.4951 C   0  0  0  0  0  0  0  0  0  0  0  0
   -3.5432   -1.0252    0.5161 C   0  0  0  0  0  0  0  0  0  0  0  0
   -4.2302    0.0350   -0.0858 C   0  0  0  0  0  0  0  0  0  0  0  0
   -5.6203    0.1365   -0.0792 N   0  0  0  0  0  0  0  0  0  0  0  0
   -6.4285   -1.0751    0.0746 C   0  0  0  0  0  0  0  0  0  0  0  0
   -7.8269   -0.8592   -0.4927 C   0  0  0  0  0  0  0  0  0  0  0  0
   -8.4711    0.3833    0.1087 C   0  0  0  0  0  0  0  0  0  0  0  0
   -9.7465    0.6109   -0.4865 O   0  0  0  0  0  0  0  0  0  0  0  0
   -7.5932    1.6035   -0.1329 C   0  0  0  0  0  0  0  0  0  0  0  0
   -6.1955    1.3879    0.4323 C   0  0  0  0  0  0  0  0  0  0  0  0
   -3.4475    1.0034   -0.7252 C   0  0  0  0  0  0  0  0  0  0  0  0
   -2.0476    0.9220   -0.7501 C   0  0  0  0  0  0  0  0  0  0  0  0
    2.2685   -0.6621   -0.0013 N   0  0  0  0  0  0  0  0  0  0  0  0
    4.8845   -0.3618   -1.1508 C   0  0  0  0  0  0  0  0  0  0  0  0
    6.1638    0.0802   -1.5084 C   0  0  0  0  0  0  0  0  0  0  0  0
    8.4704    3.9312   -0.1822 H   0  0  0  0  0  0  0  0  0  0  0  0
    8.7270    2.5275    0.8915 H   0  0  0  0  0  0  0  0  0  0  0  0
    7.1458    2.7611    0.0592 H   0  0  0  0  0  0  0  0  0  0  0  0
    9.3158   -0.0285   -0.4038 H   0  0  0  0  0  0  0  0  0  0  0  0
    7.8300   -0.8390    1.3052 H   0  0  0  0  0  0  0  0  0  0  0  0
    5.5983   -1.6002    1.9342 H   0  0  0  0  0  0  0  0  0  0  0  0
    3.8333   -3.2431    1.5127 H   0  0  0  0  0  0  0  0  0  0  0  0
    1.4423   -3.7670    1.9789 H   0  0  0  0  0  0  0  0  0  0  0  0
    0.4788    0.5976   -0.6886 H   0  0  0  0  0  0  0  0  0  0  0  0
   -1.6777   -1.9549    0.9901 H   0  0  0  0  0  0  0  0  0  0  0  0
   -4.0816   -1.8093    1.0398 H   0  0  0  0  0  0  0  0  0  0  0  0
   -6.4934   -1.3484    1.1352 H   0  0  0  0  0  0  0  0  0  0  0  0
   -5.9787   -1.9181   -0.4644 H   0  0  0  0  0  0  0  0  0  0  0  0
   -8.4523   -1.7393   -0.3018 H   0  0  0  0  0  0  0  0  0  0  0  0
   -7.7791   -0.7564   -1.5849 H   0  0  0  0  0  0  0  0  0  0  0  0
   -8.6283    0.2454    1.1851 H   0  0  0  0  0  0  0  0  0  0  0  0
  -10.2800   -0.1925   -0.3622 H   0  0  0  0  0  0  0  0  0  0  0  0
   -7.5357    1.8097   -1.2100 H   0  0  0  0  0  0  0  0  0  0  0  0
   -8.0518    2.4917    0.3179 H   0  0  0  0  0  0  0  0  0  0  0  0
   -5.5910    2.2647    0.1759 H   0  0  0  0  0  0  0  0  0  0  0  0
   -6.2374    1.3411    1.5281 H   0  0  0  0  0  0  0  0  0  0  0  0
   -3.9240    1.8287   -1.2479 H   0  0  0  0  0  0  0  0  0  0  0  0
   -1.4967    1.7025   -1.2689 H   0  0  0  0  0  0  0  0  0  0  0  0
    4.0690   -0.2245   -1.8605 H   0  0  0  0  0  0  0  0  0  0  0  0
    6.3071    0.5280   -2.4887 H   0  0  0  0  0  0  0  0  0  0  0  0
  1  2  1  0
  2  3  2  0
  2  4  2  0
  2  5  1  0
  5  6  1  0
  6  7  2  0
  7  8  1  0
  8  9  2  0
  9 10  1  0
 10 11  2  0
 11 12  1  0
 12 13  2  0
 13 14  1  0
 14 15  1  0
 15 16  1  0
 16 17  2  0
 17 18  1  0
 18 19  2  0
 19 20  1  0
 20 21  1  0
 21 22  1  0
 22 23  1  0
 23 24  1  0
 23 25  1  0
 25 26  1  0
 19 27  1  0
 27 28  2  0
 14 29  2  0
  9 30  1  0
 30 31  2  0
 31  6  1  0
 29 10  1  0
 28 16  1  0
 26 20  1  0
  1 32  1  0
  1 33  1  0
  1 34  1  0
  5 35  1  0
  7 36  1  0
  8 37  1  0
 11 38  1  0
 12 39  1  0
 15 40  1  0
 17 41  1  0
 18 42  1  0
 21 43  1  0
 21 44  1  0
 22 45  1  0
 22 46  1  0
 23 47  1  0
 24 48  1  0
 25 49  1  0
 25 50  1  0
 26 51  1  0
 26 52  1  0
 27 53  1  0
 28 54  1  0
 30 55  1  0
 31 56  1  0
M  END
$$$$
