
     RDKit          3D

 73 78  0  0  0  0  0  0  0  0999 V2000
    8.9714    1.2458   -3.8713 C   0  0  0  0  0  0  0  0  0  0  0  0
    9.7024    1.7442   -2.7582 O   0  0  0  0  0  0  0  0  0  0  0  0
    9.0052    1.8883   -1.5886 C   0  0  0  0  0  0  0  0  0  0  0  0
    7.6346    1.6918   -1.4224 C   0  0  0  0  0  0  0  0  0  0  0  0
    7.0452    1.8748   -0.1674 C   0  0  0  0  0  0  0  0  0  0  0  0
    7.8161    2.2565    0.9402 C   0  0  0  0  0  0  0  0  0  0  0  0
    7.1668    2.4487    2.2901 C   0  0  0  0  0  0  0  0  0  0  0  0
    6.8038    1.1906    2.9041 N   0  0  0  0  0  0  0  0  0  0  0  0
    7.6693    0.5177    3.7494 N   0  0  0  0  0  0  0  0  0  0  0  0
    6.9283   -0.5549    4.1305 C   0  0  0  0  0  0  0  0  0  0  0  0
    5.6633   -0.5225    3.5650 C   0  0  0  0  0  0  0  0  0  0  0  0
    4.4066   -1.2178    3.4990 N   0  0  0  0  0  0  0  0  0  0  0  0
    3.6306   -0.4215    2.6435 C   0  0  0  0  0  0  0  0  0  0  0  0
    2.1225   -0.8089    2.2538 C   0  0  0  0  0  0  0  0  0  0  0  0
    1.6149   -1.9886    2.8145 C   0  0  0  0  0  0  0  0  0  0  0  0
    0.3161   -2.4151    2.5344 C   0  0  0  0  0  0  0  0  0  0  0  0
   -0.5068   -1.6693    1.6865 C   0  0  0  0  0  0  0  0  0  0  0  0
   -1.8017   -2.1788    1.4486 N   0  0  0  0  0  0  0  0  0  0  0  0
   -2.8206   -1.6149    0.6946 C   0  0  0  0  0  0  0  0  0  0  0  0
   -2.7816   -0.5173    0.1556 O   0  0  0  0  0  0  0  0  0  0  0  0
   -3.9038   -2.4868    0.6330 N   0  0  0  0  0  0  0  0  0  0  0  0
   -5.1685   -2.2585    0.0485 C   0  0  0  0  0  0  0  0  0  0  0  0
   -5.5793   -1.0287   -0.4794 C   0  0  0  0  0  0  0  0  0  0  0  0
   -6.8508   -0.8414   -1.0508 C   0  0  0  0  0  0  0  0  0  0  0  0
   -7.2573    0.3735   -1.5966 N   0  0  0  0  0  0  0  0  0  0  0  0
   -8.5525    0.9355   -1.1677 C   0  0  0  0  0  0  0  0  0  0  0  0
   -9.0403    1.9845   -2.1788 C   0  0  0  0  0  0  0  0  0  0  0  0
   -8.0609    3.0095   -2.4007 O   0  0  0  0  0  0  0  0  0  0  0  0
   -6.8528    2.4271   -2.9168 C   0  0  0  0  0  0  0  0  0  0  0  0
   -6.2522    1.3981   -1.9464 C   0  0  0  0  0  0  0  0  0  0  0  0
   -7.7060   -1.9519   -1.0798 C   0  0  0  0  0  0  0  0  0  0  0  0
   -7.3326   -3.1947   -0.5433 C   0  0  0  0  0  0  0  0  0  0  0  0
   -8.2755   -4.3653   -0.6165 C   0  0  0  0  0  0  0  0  0  0  0  0
   -8.1778   -5.0415   -1.7941 F   0  0  0  0  0  0  0  0  0  0  0  0
   -8.0583   -5.2897    0.3619 F   0  0  0  0  0  0  0  0  0  0  0  0
   -9.5854   -4.0074   -0.4988 F   0  0  0  0  0  0  0  0  0  0  0  0
   -6.0565   -3.3363    0.0166 C   0  0  0  0  0  0  0  0  0  0  0  0
   -0.0044   -0.4929    1.1251 C   0  0  0  0  0  0  0  0  0  0  0  0
    1.3092   -0.0452    1.3983 C   0  0  0  0  0  0  0  0  0  0  0  0
    1.7773    1.2304    0.7571 C   0  0  0  0  0  0  0  0  0  0  0  0
    4.3102    0.7093    2.1861 N   0  0  0  0  0  0  0  0  0  0  0  0
    5.6069    0.5772    2.8123 C   0  0  0  0  0  0  0  0  0  0  0  0
    9.1923    2.4457    0.7687 C   0  0  0  0  0  0  0  0  0  0  0  0
    9.7776    2.2674   -0.4880 C   0  0  0  0  0  0  0  0  0  0  0  0
    8.5529    0.2558   -3.6613 H   0  0  0  0  0  0  0  0  0  0  0  0
    8.1909    1.9502   -4.1774 H   0  0  0  0  0  0  0  0  0  0  0  0
    9.6689    1.1402   -4.7080 H   0  0  0  0  0  0  0  0  0  0  0  0
    6.9892    1.3881   -2.2392 H   0  0  0  0  0  0  0  0  0  0  0  0
    5.9739    1.6974   -0.0491 H   0  0  0  0  0  0  0  0  0  0  0  0
    6.2630    3.0617    2.1921 H   0  0  0  0  0  0  0  0  0  0  0  0
    7.8353    2.9749    2.9815 H   0  0  0  0  0  0  0  0  0  0  0  0
    7.3518   -1.2861    4.8005 H   0  0  0  0  0  0  0  0  0  0  0  0
    2.2485   -2.5765    3.4761 H   0  0  0  0  0  0  0  0  0  0  0  0
   -0.0269   -3.3362    2.9939 H   0  0  0  0  0  0  0  0  0  0  0  0
   -2.0113   -3.0384    1.9282 H   0  0  0  0  0  0  0  0  0  0  0  0
   -3.7416   -3.4119    0.9968 H   0  0  0  0  0  0  0  0  0  0  0  0
   -4.9065   -0.1804   -0.4253 H   0  0  0  0  0  0  0  0  0  0  0  0
   -8.4162    1.4092   -0.1874 H   0  0  0  0  0  0  0  0  0  0  0  0
   -9.3308    0.1729   -1.0654 H   0  0  0  0  0  0  0  0  0  0  0  0
   -9.2898    1.5164   -3.1387 H   0  0  0  0  0  0  0  0  0  0  0  0
   -9.9462    2.4690   -1.8007 H   0  0  0  0  0  0  0  0  0  0  0  0
   -7.0686    1.9681   -3.8893 H   0  0  0  0  0  0  0  0  0  0  0  0
   -6.1384    3.2393   -3.0846 H   0  0  0  0  0  0  0  0  0  0  0  0
   -5.3780    0.9461   -2.4293 H   0  0  0  0  0  0  0  0  0  0  0  0
   -5.9291    1.9095   -1.0314 H   0  0  0  0  0  0  0  0  0  0  0  0
   -8.6800   -1.8642   -1.5581 H   0  0  0  0  0  0  0  0  0  0  0  0
   -5.7607   -4.3030    0.4201 H   0  0  0  0  0  0  0  0  0  0  0  0
   -0.6167    0.1056    0.4581 H   0  0  0  0  0  0  0  0  0  0  0  0
    2.0275    1.9766    1.5173 H   0  0  0  0  0  0  0  0  0  0  0  0
    0.9941    1.6724    0.1306 H   0  0  0  0  0  0  0  0  0  0  0  0
    2.6334    1.0429    0.1020 H   0  0  0  0  0  0  0  0  0  0  0  0
    9.8184    2.7201    1.6143 H   0  0  0  0  0  0  0  0  0  0  0  0
   10.8477    2.4132   -0.6066 H   0  0  0  0  0  0  0  0  0  0  0  0
  1  2  1  0
  2  3  1  0
  3  4  2  0
  4  5  1  0
  5  6  2  0
  6  7  1  0
  7  8  1  0
  8  9  1  0
  9 10  2  0
 10 11  1  0
 11 12  1  0
 12 13  1  0
 13 14  1  0
 14 15  2  0
 15 16  1  0
 16 17  2  0
 17 18  1  0
 18 19  1  0
 19 20  2  0
 19 21  1  0
 21 22  1  0
 22 23  2  0
 23 24  1  0
 24 25  1  0
 25 26  1  0
 26 27  1  0
 27 28  1  0
 28 29  1  0
 29 30  1  0
 24 31  2  0
 31 32  1  0
 32 33  1  0
 33 34  1  0
 33 35  1  0
 33 36  1  0
 32 37  2  0
 17 38  1  0
 38 39  2  0
 39 40  1  0
 13 41  2  0
 41 42  1  0
  6 43  1  0
 43 44  2  0
 44  3  1  0
 42  8  1  0
 42 11  2  0
 39 14  1  0
 37 22  1  0
 30 25  1  0
  1 45  1  0
  1 46  1  0
  1 47  1  0
  4 48  1  0
  5 49  1  0
  7 50  1  0
  7 51  1  0
 10 52  1  0
 15 53  1  0
 16 54  1  0
 18 55  1  0
 21 56  1  0
 23 57  1  0
 26 58  1  0
 26 59  1  0
 27 60  1  0
 27 61  1  0
 29 62  1  0
 29 63  1  0
 30 64  1  0
 30 65  1  0
 31 66  1  0
 37 67  1  0
 38 68  1  0
 40 69  1  0
 40 70  1  0
 40 71  1  0
 43 72  1  0
 44 73  1  0
M  CHG  1  12  -1
M  END
$$$$
