
     RDKit          3D

 29 32  0  0  0  0  0  0  0  0999 V2000
    3.8196    0.7344   -1.1230 N   0  0  0  0  0  0  0  0  0  0  0  0
    3.5362   -0.4212   -0.4970 C   0  0  0  0  0  0  0  0  0  0  0  0
    4.4113   -1.3918   -0.2436 N   0  0  0  0  0  0  0  0  0  0  0  0
    3.6815   -2.3749    0.4151 O   0  0  0  0  0  0  0  0  0  0  0  0
    2.3485   -2.0038    0.5680 N   0  0  0  0  0  0  0  0  0  0  0  0
    2.2649   -0.8005   -0.0035 C   0  0  0  0  0  0  0  0  0  0  0  0
    0.9579    0.0552   -0.0859 C   0  0  0  0  0  0  0  0  0  0  0  0
    0.9316    1.2695   -0.6158 N   0  0  0  0  0  0  0  0  0  0  0  0
   -0.3471    1.7303   -0.4193 C   0  0  0  0  0  0  0  0  0  0  0  0
   -0.9033    2.9730   -0.7579 C   0  0  0  0  0  0  0  0  0  0  0  0
   -2.2398    3.2270   -0.4276 C   0  0  0  0  0  0  0  0  0  0  0  0
   -3.0073    2.2644    0.2294 C   0  0  0  0  0  0  0  0  0  0  0  0
   -2.4713    1.0176    0.5713 C   0  0  0  0  0  0  0  0  0  0  0  0
   -1.1354    0.7792    0.2231 C   0  0  0  0  0  0  0  0  0  0  0  0
   -0.2908   -0.2933    0.3688 N   0  0  0  0  0  0  0  0  0  0  0  0
   -0.6762   -1.5888    0.9777 C   0  0  0  0  0  0  0  0  0  0  0  0
   -1.9471   -2.3252    0.6097 C   0  0  0  0  0  0  0  0  0  0  0  0
   -0.6233   -2.8872    0.2019 C   0  0  0  0  0  0  0  0  0  0  0  0
    3.1002    1.4400   -1.2780 H   0  0  0  0  0  0  0  0  0  0  0  0
    4.7520    0.9484   -1.4522 H   0  0  0  0  0  0  0  0  0  0  0  0
   -0.3006    3.7220   -1.2599 H   0  0  0  0  0  0  0  0  0  0  0  0
   -2.6810    4.1880   -0.6823 H   0  0  0  0  0  0  0  0  0  0  0  0
   -4.0427    2.4866    0.4811 H   0  0  0  0  0  0  0  0  0  0  0  0
   -3.0729    0.2752    1.0849 H   0  0  0  0  0  0  0  0  0  0  0  0
   -0.3771   -1.6386    2.0218 H   0  0  0  0  0  0  0  0  0  0  0  0
   -2.5804   -1.9351   -0.1792 H   0  0  0  0  0  0  0  0  0  0  0  0
   -2.4889   -2.8268    1.4036 H   0  0  0  0  0  0  0  0  0  0  0  0
   -0.3619   -2.8564   -0.8502 H   0  0  0  0  0  0  0  0  0  0  0  0
   -0.2566   -3.7671    0.7191 H   0  0  0  0  0  0  0  0  0  0  0  0
  1  2  1  0
  2  3  2  0
  3  4  1  0
  4  5  1  0
  5  6  2  0
  6  7  1  0
  7  8  2  0
  8  9  1  0
  9 10  2  0
 10 11  1  0
 11 12  2  0
 12 13  1  0
 13 14  2  0
 14 15  1  0
 15 16  1  0
 16 17  1  0
 17 18  1  0
  6  2  1  0
 15  7  1  0
 18 16  1  0
 14  9  1  0
  1 19  1  0
  1 20  1  0
 10 21  1  0
 11 22  1  0
 12 23  1  0
 13 24  1  0
 16 25  1  0
 17 26  1  0
 17 27  1  0
 18 28  1  0
 18 29  1  0
M  END
$$$$
