
     RDKit          3D

 85 91  0  0  0  0  0  0  0  0999 V2000
   -2.9456   -5.2255   -2.2764 N   0  0  0  0  0  0  0  0  0  0  0  0
   -3.2700   -4.0188   -1.6876 C   0  0  0  0  0  0  0  0  0  0  0  0
   -4.4572   -3.3629   -2.0089 C   0  0  0  0  0  0  0  0  0  0  0  0
   -4.8036   -2.1674   -1.3787 C   0  0  0  0  0  0  0  0  0  0  0  0
   -3.9628   -1.6183   -0.4114 C   0  0  0  0  0  0  0  0  0  0  0  0
   -2.7666   -2.2644   -0.0625 C   0  0  0  0  0  0  0  0  0  0  0  0
   -1.8707   -1.6974    1.0076 C   0  0  0  0  0  0  0  0  0  0  0  0
   -0.5797   -0.9720    0.6140 N   0  0  0  0  0  0  0  0  0  0  0  0
    0.0281   -0.4879    1.8668 C   0  0  0  0  0  0  0  0  0  0  0  0
   -0.5806   -0.6342    2.9120 O   0  0  0  0  0  0  0  0  0  0  0  0
    1.2406    0.3201    2.0154 N   0  0  0  0  0  0  0  0  0  0  0  0
    2.1473   -0.0300    3.2123 C   0  0  0  0  0  0  0  0  0  0  0  0
    2.7562   -1.4283    3.1325 C   0  0  0  0  0  0  0  0  0  0  0  0
    1.9906   -2.4550    3.7259 C   0  0  0  0  0  0  0  0  0  0  0  0
    1.4382   -3.4333    2.9001 C   0  0  0  0  0  0  0  0  0  0  0  0
    1.6392   -3.2121    1.5304 C   0  0  0  0  0  0  0  0  0  0  0  0
    0.7439   -3.3179    0.5314 N   0  0  0  0  0  0  0  0  0  0  0  0
    1.2586   -2.6801   -0.5245 N   0  0  0  0  0  0  0  0  0  0  0  0
    2.5777   -2.4837   -0.2742 C   0  0  0  0  0  0  0  0  0  0  0  0
    3.5996   -2.0469   -1.4022 C   0  0  0  0  0  0  0  0  0  0  0  0
    3.2781   -2.0597   -2.7449 C   0  0  0  0  0  0  0  0  0  0  0  0
    4.3582   -1.6217   -3.5647 C   0  0  0  0  0  0  0  0  0  0  0  0
    5.4697   -1.2998   -2.8180 C   0  0  0  0  0  0  0  0  0  0  0  0
    5.2042   -1.5330   -1.1442 S   0  0  0  0  0  0  0  0  0  0  0  0
    2.7221   -2.4413    1.0906 C   0  0  0  0  0  0  0  0  0  0  0  0
    3.4910   -1.6689    1.9481 C   0  0  0  0  0  0  0  0  0  0  0  0
    0.9696    1.8147    1.9114 C   0  0  2  0  0  0  0  0  0  0  0  0
    0.4991    2.4254    3.2579 C   0  0  0  0  0  0  0  0  0  0  0  0
    0.2216    3.9089    3.1861 C   0  0  0  0  0  0  0  0  0  0  0  0
   -1.0585    4.3990    3.4837 C   0  0  0  0  0  0  0  0  0  0  0  0
   -1.3301    5.7650    3.4021 C   0  0  0  0  0  0  0  0  0  0  0  0
   -0.3248    6.6554    3.0343 C   0  0  0  0  0  0  0  0  0  0  0  0
    0.9561    6.1832    2.7588 C   0  0  0  0  0  0  0  0  0  0  0  0
    1.2325    4.8175    2.8395 C   0  0  0  0  0  0  0  0  0  0  0  0
   -0.0030    2.1106    0.7357 C   0  0  2  0  0  0  0  0  0  0  0  0
   -1.3581    1.9762    1.1688 O   0  0  0  0  0  0  0  0  0  0  0  0
    0.2481    1.1969   -0.4850 C   0  0  1  0  0  0  0  0  0  0  0  0
    1.6157    0.7475   -0.4629 O   0  0  0  0  0  0  0  0  0  0  0  0
   -0.7491   -0.0064   -0.5518 C   0  0  1  0  0  0  0  0  0  0  0  0
   -0.6108   -0.7011   -1.9403 C   0  0  0  0  0  0  0  0  0  0  0  0
   -1.0263    0.1936   -3.0931 C   0  0  0  0  0  0  0  0  0  0  0  0
   -0.0742    0.6322   -4.0262 C   0  0  0  0  0  0  0  0  0  0  0  0
   -0.4463    1.4746   -5.0746 C   0  0  0  0  0  0  0  0  0  0  0  0
   -1.7724    1.8781   -5.2088 C   0  0  0  0  0  0  0  0  0  0  0  0
   -2.7303    1.4304   -4.3023 C   0  0  0  0  0  0  0  0  0  0  0  0
   -2.3615    0.5884   -3.2522 C   0  0  0  0  0  0  0  0  0  0  0  0
   -2.4488   -3.4770   -0.6952 C   0  0  0  0  0  0  0  0  0  0  0  0
   -2.0333   -5.6343   -2.1077 H   0  0  0  0  0  0  0  0  0  0  0  0
   -3.4852   -5.5864   -3.0508 H   0  0  0  0  0  0  0  0  0  0  0  0
   -5.1275   -3.7851   -2.7537 H   0  0  0  0  0  0  0  0  0  0  0  0
   -5.7385   -1.6764   -1.6389 H   0  0  0  0  0  0  0  0  0  0  0  0
   -4.2675   -0.6946    0.0759 H   0  0  0  0  0  0  0  0  0  0  0  0
   -2.4678   -0.9688    1.5738 H   0  0  0  0  0  0  0  0  0  0  0  0
   -1.6030   -2.5052    1.7016 H   0  0  0  0  0  0  0  0  0  0  0  0
    0.0441   -1.7921    0.2965 H   0  0  0  0  0  0  0  0  0  0  0  0
    1.7630    0.0751    1.1566 H   0  0  0  0  0  0  0  0  0  0  0  0
    1.5669    0.0912    4.1337 H   0  0  0  0  0  0  0  0  0  0  0  0
    2.9635    0.7024    3.2111 H   0  0  0  0  0  0  0  0  0  0  0  0
    1.5843   -2.3512    4.7319 H   0  0  0  0  0  0  0  0  0  0  0  0
    0.6801   -4.1298    3.2385 H   0  0  0  0  0  0  0  0  0  0  0  0
    2.3183   -2.3984   -3.1203 H   0  0  0  0  0  0  0  0  0  0  0  0
    4.3293   -1.5705   -4.6468 H   0  0  0  0  0  0  0  0  0  0  0  0
    6.4319   -0.9586   -3.1765 H   0  0  0  0  0  0  0  0  0  0  0  0
    4.2212   -0.9724    1.5541 H   0  0  0  0  0  0  0  0  0  0  0  0
    1.9472    2.2427    1.6519 H   0  0  0  0  0  0  0  0  0  0  0  0
    1.2660    2.2945    4.0305 H   0  0  0  0  0  0  0  0  0  0  0  0
   -0.3903    1.8980    3.6229 H   0  0  0  0  0  0  0  0  0  0  0  0
   -1.8587    3.7289    3.7945 H   0  0  0  0  0  0  0  0  0  0  0  0
   -2.3232    6.1412    3.6402 H   0  0  0  0  0  0  0  0  0  0  0  0
   -0.5350    7.7218    2.9815 H   0  0  0  0  0  0  0  0  0  0  0  0
    1.7432    6.8872    2.4951 H   0  0  0  0  0  0  0  0  0  0  0  0
    2.2506    4.4887    2.6437 H   0  0  0  0  0  0  0  0  0  0  0  0
    0.1458    3.1513    0.4203 H   0  0  0  0  0  0  0  0  0  0  0  0
   -1.7461    2.8769    1.2262 H   0  0  0  0  0  0  0  0  0  0  0  0
    0.1290    1.8284   -1.3717 H   0  0  0  0  0  0  0  0  0  0  0  0
    1.8320    0.3776   -1.3497 H   0  0  0  0  0  0  0  0  0  0  0  0
   -1.7683    0.3875   -0.4710 H   0  0  0  0  0  0  0  0  0  0  0  0
    0.4227   -1.0036   -2.1148 H   0  0  0  0  0  0  0  0  0  0  0  0
   -1.2006   -1.6122   -2.0183 H   0  0  0  0  0  0  0  0  0  0  0  0
    0.9630    0.3098   -3.9618 H   0  0  0  0  0  0  0  0  0  0  0  0
    0.2944    1.8026   -5.8007 H   0  0  0  0  0  0  0  0  0  0  0  0
   -2.0642    2.5222   -6.0354 H   0  0  0  0  0  0  0  0  0  0  0  0
   -3.7706    1.7223   -4.4283 H   0  0  0  0  0  0  0  0  0  0  0  0
   -3.1361    0.2266   -2.5815 H   0  0  0  0  0  0  0  0  0  0  0  0
   -1.5359   -4.0094   -0.4272 H   0  0  0  0  0  0  0  0  0  0  0  0
  1  2  1  0
  2  3  2  0
  3  4  1  0
  4  5  2  0
  5  6  1  0
  6  7  1  0
  7  8  1  0
  8  9  1  0
  9 10  2  0
  9 11  1  0
 11 12  1  0
 12 13  1  0
 13 14  2  0
 14 15  1  0
 15 16  2  0
 16 17  1  0
 17 18  1  0
 18 19  2  0
 19 20  1  0
 20 21  2  0
 21 22  1  0
 22 23  2  0
 23 24  1  0
 19 25  1  0
 25 26  2  0
 11 27  1  0
 27 28  1  0
 28 29  1  0
 29 30  2  0
 30 31  1  0
 31 32  2  0
 32 33  1  0
 33 34  2  0
 27 35  1  0
 35 36  1  0
 35 37  1  0
 37 38  1  0
 37 39  1  0
 39 40  1  0
 40 41  1  0
 41 42  2  0
 42 43  1  0
 43 44  2  0
 44 45  1  0
 45 46  2  0
  6 47  2  0
 47  2  1  0
 39  8  1  0
 46 41  1  0
 26 13  1  0
 34 29  1  0
 25 16  1  0
 24 20  1  0
  1 48  1  0
  1 49  1  0
  3 50  1  0
  4 51  1  0
  5 52  1  0
  7 53  1  0
  7 54  1  0
  8 55  1  0
 11 56  1  0
 12 57  1  0
 12 58  1  0
 14 59  1  0
 15 60  1  0
 21 61  1  0
 22 62  1  0
 23 63  1  0
 26 64  1  0
 27 65  1  6
 28 66  1  0
 28 67  1  0
 30 68  1  0
 31 69  1  0
 32 70  1  0
 33 71  1  0
 34 72  1  0
 35 73  1  6
 36 74  1  0
 37 75  1  6
 38 76  1  0
 39 77  1  6
 40 78  1  0
 40 79  1  0
 42 80  1  0
 43 81  1  0
 44 82  1  0
 45 83  1  0
 46 84  1  0
 47 85  1  0
M  CHG  3   8   1  11   1  17  -1
M  END
$$$$
