
     RDKit          3D

 63 67  0  0  0  0  0  0  0  0999 V2000
   -2.2115    2.8096    1.4299 O   0  0  0  0  0  0  0  0  0  0  0  0
   -2.8201    2.2698    0.5107 C   0  0  0  0  0  0  0  0  0  0  0  0
   -2.4110    1.1386   -0.1693 N   0  0  0  0  0  0  0  0  0  0  0  0
   -1.3008    0.3212    0.1224 C   0  0  0  0  0  0  0  0  0  0  0  0
   -0.4901    0.4790    1.2462 C   0  0  0  0  0  0  0  0  0  0  0  0
    0.5970   -0.3721    1.4665 C   0  0  0  0  0  0  0  0  0  0  0  0
    0.9017   -1.3883    0.5534 C   0  0  0  0  0  0  0  0  0  0  0  0
    2.1291   -2.2427    0.7477 C   0  0  0  0  0  0  0  0  0  0  0  0
    3.2687   -1.8565   -0.2052 C   0  0  0  0  0  0  0  0  0  0  0  0
    3.6333   -0.4070   -0.0313 N   0  0  0  0  0  0  0  0  0  0  0  0
    4.6116    0.1596   -1.0309 C   0  0  0  0  0  0  0  0  0  0  0  0
    6.0705   -0.3271   -0.8271 C   0  0  2  0  0  0  0  0  0  0  0  0
    6.1473   -1.7227   -1.1140 O   0  0  0  0  0  0  0  0  0  0  0  0
    6.5765   -0.0248    0.5599 C   0  0  0  0  0  0  0  0  0  0  0  0
    7.0046    1.2640    0.9019 C   0  0  0  0  0  0  0  0  0  0  0  0
    7.3988    1.5412    2.2087 C   0  0  0  0  0  0  0  0  0  0  0  0
    7.3390    0.5226    3.1424 C   0  0  0  0  0  0  0  0  0  0  0  0
    6.9238   -0.7278    2.8497 N   0  0  0  0  0  0  0  0  0  0  0  0
    6.5835   -0.9820    1.5709 C   0  0  0  0  0  0  0  0  0  0  0  0
    0.0755   -1.5645   -0.5618 C   0  0  0  0  0  0  0  0  0  0  0  0
   -1.0184   -0.7188   -0.7696 C   0  0  0  0  0  0  0  0  0  0  0  0
   -4.0712    2.9268    0.0226 C   0  0  0  0  0  0  0  0  0  0  0  0
   -4.0655    4.3343    0.0203 C   0  0  0  0  0  0  0  0  0  0  0  0
   -5.1835    5.0546   -0.4009 C   0  0  0  0  0  0  0  0  0  0  0  0
   -6.3245    4.3788   -0.8185 C   0  0  0  0  0  0  0  0  0  0  0  0
   -6.3508    2.9834   -0.8049 C   0  0  0  0  0  0  0  0  0  0  0  0
   -5.2341    2.2401   -0.3751 C   0  0  0  0  0  0  0  0  0  0  0  0
   -5.3362    0.7825   -0.3687 C   0  0  0  0  0  0  0  0  0  0  0  0
   -4.7331    0.0013   -1.2416 N   0  0  0  0  0  0  0  0  0  0  0  0
   -5.0501   -1.3233   -0.9726 C   0  0  0  0  0  0  0  0  0  0  0  0
   -4.6195   -2.4421   -1.7149 C   0  0  0  0  0  0  0  0  0  0  0  0
   -5.0072   -3.7277   -1.3234 C   0  0  0  0  0  0  0  0  0  0  0  0
   -5.8141   -3.9103   -0.2050 C   0  0  0  0  0  0  0  0  0  0  0  0
   -6.2571   -2.8175    0.5463 C   0  0  0  0  0  0  0  0  0  0  0  0
   -5.8655   -1.5307    0.1421 C   0  0  0  0  0  0  0  0  0  0  0  0
   -6.2546   -0.0077    0.8432 S   0  0  0  0  0  0  0  0  0  0  0  0
   -2.9785    0.8438   -0.9633 H   0  0  0  0  0  0  0  0  0  0  0  0
   -0.6952    1.2448    1.9892 H   0  0  0  0  0  0  0  0  0  0  0  0
    1.1877   -0.2282    2.3698 H   0  0  0  0  0  0  0  0  0  0  0  0
    2.4768   -2.1682    1.7859 H   0  0  0  0  0  0  0  0  0  0  0  0
    1.8620   -3.2952    0.5919 H   0  0  0  0  0  0  0  0  0  0  0  0
    4.1512   -2.4577    0.0214 H   0  0  0  0  0  0  0  0  0  0  0  0
    2.9809   -1.9939   -1.2526 H   0  0  0  0  0  0  0  0  0  0  0  0
    3.9697   -0.2459    0.9288 H   0  0  0  0  0  0  0  0  0  0  0  0
    2.7655    0.1446   -0.1081 H   0  0  0  0  0  0  0  0  0  0  0  0
    4.5489    1.2470   -0.9162 H   0  0  0  0  0  0  0  0  0  0  0  0
    4.2372   -0.1152   -2.0226 H   0  0  0  0  0  0  0  0  0  0  0  0
    6.7079    0.1784   -1.5628 H   0  0  0  0  0  0  0  0  0  0  0  0
    7.0962   -1.9511   -1.1841 H   0  0  0  0  0  0  0  0  0  0  0  0
    7.0466    2.0619    0.1627 H   0  0  0  0  0  0  0  0  0  0  0  0
    7.7474    2.5289    2.4950 H   0  0  0  0  0  0  0  0  0  0  0  0
    7.6341    0.6872    4.1759 H   0  0  0  0  0  0  0  0  0  0  0  0
    6.2929   -2.0144    1.3902 H   0  0  0  0  0  0  0  0  0  0  0  0
    0.2601   -2.3637   -1.2774 H   0  0  0  0  0  0  0  0  0  0  0  0
   -1.6505   -0.8812   -1.6405 H   0  0  0  0  0  0  0  0  0  0  0  0
   -3.1816    4.8774    0.3527 H   0  0  0  0  0  0  0  0  0  0  0  0
   -5.1634    6.1422   -0.3984 H   0  0  0  0  0  0  0  0  0  0  0  0
   -7.1981    4.9370   -1.1486 H   0  0  0  0  0  0  0  0  0  0  0  0
   -7.2566    2.4742   -1.1328 H   0  0  0  0  0  0  0  0  0  0  0  0
   -3.9978   -2.2989   -2.5926 H   0  0  0  0  0  0  0  0  0  0  0  0
   -4.6808   -4.5896   -1.9012 H   0  0  0  0  0  0  0  0  0  0  0  0
   -6.1120   -4.9157    0.0875 H   0  0  0  0  0  0  0  0  0  0  0  0
   -6.8926   -2.9622    1.4153 H   0  0  0  0  0  0  0  0  0  0  0  0
  1  2  2  0
  2  3  1  0
  3  4  1  0
  4  5  2  0
  5  6  1  0
  6  7  2  0
  7  8  1  0
  8  9  1  0
  9 10  1  0
 10 11  1  0
 11 12  1  0
 12 13  1  0
 12 14  1  0
 14 15  2  0
 15 16  1  0
 16 17  2  0
 17 18  1  0
 18 19  2  0
  7 20  1  0
 20 21  2  0
  2 22  1  0
 22 23  2  0
 23 24  1  0
 24 25  2  0
 25 26  1  0
 26 27  2  0
 27 28  1  0
 28 29  2  0
 29 30  1  0
 30 31  2  0
 31 32  1  0
 32 33  2  0
 33 34  1  0
 34 35  2  0
 35 36  1  0
 21  4  1  0
 27 22  1  0
 36 28  1  0
 19 14  1  0
 35 30  1  0
  3 37  1  0
  5 38  1  0
  6 39  1  0
  8 40  1  0
  8 41  1  0
  9 42  1  0
  9 43  1  0
 10 44  1  0
 10 45  1  0
 11 46  1  0
 11 47  1  0
 12 48  1  6
 13 49  1  0
 15 50  1  0
 16 51  1  0
 17 52  1  0
 19 53  1  0
 20 54  1  0
 21 55  1  0
 23 56  1  0
 24 57  1  0
 25 58  1  0
 26 59  1  0
 31 60  1  0
 32 61  1  0
 33 62  1  0
 34 63  1  0
M  CHG  1  10   1
M  END
$$$$
