
     RDKit          3D

 50 52  0  0  0  0  0  0  0  0999 V2000
   -3.9908    0.8101    3.2533 C   0  0  0  0  0  0  0  0  0  0  0  0
   -3.2929    0.3088    2.1169 O   0  0  0  0  0  0  0  0  0  0  0  0
   -3.9283   -0.6538    1.3633 C   0  0  0  0  0  0  0  0  0  0  0  0
   -5.2823   -0.9866    1.5306 C   0  0  0  0  0  0  0  0  0  0  0  0
   -5.8938   -1.9282    0.7032 C   0  0  0  0  0  0  0  0  0  0  0  0
   -5.1620   -2.5438   -0.3014 C   0  0  0  0  0  0  0  0  0  0  0  0
   -3.8170   -2.2170   -0.4771 C   0  0  0  0  0  0  0  0  0  0  0  0
   -3.1650   -1.2743    0.3416 C   0  0  0  0  0  0  0  0  0  0  0  0
   -1.8206   -1.0135    0.1086 N   0  0  0  0  0  0  0  0  0  0  0  0
   -0.8602   -0.8293    1.1994 C   0  0  0  0  0  0  0  0  0  0  0  0
   -0.3332    0.6198    1.2254 C   0  0  0  0  0  0  0  0  0  0  0  0
    0.1949    1.0256   -0.1502 N   0  0  0  0  0  0  0  0  0  0  0  0
    0.8274    2.3930   -0.1557 C   0  0  0  0  0  0  0  0  0  0  0  0
    1.8973    2.5456   -1.2599 C   0  0  0  0  0  0  0  0  0  0  0  0
    3.1599    1.8556   -1.0069 N   0  0  0  0  0  0  0  0  0  0  0  0
    3.2722    0.4859   -0.9123 C   0  0  0  0  0  0  0  0  0  0  0  0
    2.2815   -0.2412   -0.9228 O   0  0  0  0  0  0  0  0  0  0  0  0
    4.6369   -0.0894   -0.7941 C   0  0  0  0  0  0  0  0  0  0  0  0
    5.7025    0.6246   -0.2442 C   0  0  0  0  0  0  0  0  0  0  0  0
    6.9312   -0.0074   -0.1685 C   0  0  0  0  0  0  0  0  0  0  0  0
    7.1488   -1.2687   -0.5920 N   0  0  0  0  0  0  0  0  0  0  0  0
    6.1003   -1.9424   -1.1071 C   0  0  0  0  0  0  0  0  0  0  0  0
    4.8336   -1.4029   -1.2245 C   0  0  0  0  0  0  0  0  0  0  0  0
   -0.8708    0.8243   -1.2251 C   0  0  0  0  0  0  0  0  0  0  0  0
   -1.3695   -0.6372   -1.2341 C   0  0  0  0  0  0  0  0  0  0  0  0
   -4.8596    1.4026    2.9494 H   0  0  0  0  0  0  0  0  0  0  0  0
   -3.3094    1.4755    3.7924 H   0  0  0  0  0  0  0  0  0  0  0  0
   -4.2742    0.0024    3.9362 H   0  0  0  0  0  0  0  0  0  0  0  0
   -5.9002   -0.5226    2.2925 H   0  0  0  0  0  0  0  0  0  0  0  0
   -6.9424   -2.1796    0.8451 H   0  0  0  0  0  0  0  0  0  0  0  0
   -5.6313   -3.2856   -0.9430 H   0  0  0  0  0  0  0  0  0  0  0  0
   -3.2613   -2.7411   -1.2518 H   0  0  0  0  0  0  0  0  0  0  0  0
   -1.2643   -1.1140    2.1772 H   0  0  0  0  0  0  0  0  0  0  0  0
   -0.0139   -1.5054    1.0212 H   0  0  0  0  0  0  0  0  0  0  0  0
    0.5012    0.7040    1.9293 H   0  0  0  0  0  0  0  0  0  0  0  0
   -1.1078    1.3464    1.4859 H   0  0  0  0  0  0  0  0  0  0  0  0
    0.9472    0.3409   -0.3761 H   0  0  0  0  0  0  0  0  0  0  0  0
    1.2908    2.5476    0.8250 H   0  0  0  0  0  0  0  0  0  0  0  0
    0.0199    3.1211   -0.2857 H   0  0  0  0  0  0  0  0  0  0  0  0
    1.5213    2.2061   -2.2298 H   0  0  0  0  0  0  0  0  0  0  0  0
    2.1501    3.6073   -1.3546 H   0  0  0  0  0  0  0  0  0  0  0  0
    4.0084    2.4024   -1.1113 H   0  0  0  0  0  0  0  0  0  0  0  0
    5.6022    1.6298    0.1446 H   0  0  0  0  0  0  0  0  0  0  0  0
    7.8001    0.4927    0.2525 H   0  0  0  0  0  0  0  0  0  0  0  0
    6.3148   -2.9577   -1.4310 H   0  0  0  0  0  0  0  0  0  0  0  0
    4.0278   -1.9945   -1.6460 H   0  0  0  0  0  0  0  0  0  0  0  0
   -0.4233    1.0772   -2.1899 H   0  0  0  0  0  0  0  0  0  0  0  0
   -1.6852    1.5220   -1.0002 H   0  0  0  0  0  0  0  0  0  0  0  0
   -2.1585   -0.7313   -1.9889 H   0  0  0  0  0  0  0  0  0  0  0  0
   -0.5525   -1.3039   -1.5351 H   0  0  0  0  0  0  0  0  0  0  0  0
  1  2  1  0
  2  3  1  0
  3  4  2  0
  4  5  1  0
  5  6  2  0
  6  7  1  0
  7  8  2  0
  8  9  1  0
  9 10  1  0
 10 11  1  0
 11 12  1  0
 12 13  1  0
 13 14  1  0
 14 15  1  0
 15 16  1  0
 16 17  2  0
 16 18  1  0
 18 19  2  0
 19 20  1  0
 20 21  2  0
 21 22  1  0
 22 23  2  0
 12 24  1  0
 24 25  1  0
  8  3  1  0
 25  9  1  0
 23 18  1  0
  1 26  1  0
  1 27  1  0
  1 28  1  0
  4 29  1  0
  5 30  1  0
  6 31  1  0
  7 32  1  0
 10 33  1  0
 10 34  1  0
 11 35  1  0
 11 36  1  0
 12 37  1  0
 13 38  1  0
 13 39  1  0
 14 40  1  0
 14 41  1  0
 15 42  1  0
 19 43  1  0
 20 44  1  0
 22 45  1  0
 23 46  1  0
 24 47  1  0
 24 48  1  0
 25 49  1  0
 25 50  1  0
M  CHG  1  12   1
M  END
$$$$
