
     RDKit          3D

 30 31  0  0  0  0  0  0  0  0999 V2000
   -4.4608    1.0716    2.0331 N   0  0  0  0  0  0  0  0  0  0  0  0
   -3.7709    0.7883    0.8755 C   0  0  0  0  0  0  0  0  0  0  0  0
   -4.3166    1.1587   -0.3062 N   0  0  0  0  0  0  0  0  0  0  0  0
   -3.6322    0.8798   -1.4381 C   0  0  0  0  0  0  0  0  0  0  0  0
   -2.4438    0.2587   -1.5729 N   0  0  0  0  0  0  0  0  0  0  0  0
   -1.9467   -0.0829   -0.3719 C   0  0  0  0  0  0  0  0  0  0  0  0
   -2.5272    0.1341    0.8676 C   0  0  0  0  0  0  0  0  0  0  0  0
   -1.7309   -0.3632    1.8809 N   0  0  0  0  0  0  0  0  0  0  0  0
   -0.6784   -0.8614    1.2630 C   0  0  0  0  0  0  0  0  0  0  0  0
   -0.7677   -0.7182   -0.0971 N   0  0  0  0  0  0  0  0  0  0  0  0
    0.1854   -1.2083   -1.0678 C   0  0  0  0  0  0  0  0  0  0  0  0
    1.2026   -0.1629   -1.5201 C   0  0  0  0  0  0  0  0  0  0  0  0
    2.1589    0.2788   -0.4162 C   0  0  0  0  0  0  0  0  0  0  0  0
    2.7153   -0.8839    0.1947 O   0  0  0  0  0  0  0  0  0  0  0  0
    3.5914   -0.5496    1.2990 C   0  0  0  0  0  0  0  0  0  0  0  0
    4.8524    0.2314    0.8577 C   0  0  0  0  0  0  0  0  0  0  0  0
    4.7501    1.4922    0.9337 O   0  0  0  0  0  0  0  0  0  0  0  0
    5.8372   -0.4727    0.4938 O   0  0  0  0  0  0  0  0  0  0  0  0
   -4.0366    0.8267    2.9167 H   0  0  0  0  0  0  0  0  0  0  0  0
   -5.3287    1.5745    1.9624 H   0  0  0  0  0  0  0  0  0  0  0  0
   -4.1048    1.1984   -2.3627 H   0  0  0  0  0  0  0  0  0  0  0  0
    0.1750   -1.3298    1.7399 H   0  0  0  0  0  0  0  0  0  0  0  0
   -0.3886   -1.5585   -1.9343 H   0  0  0  0  0  0  0  0  0  0  0  0
    0.6729   -2.0933   -0.6433 H   0  0  0  0  0  0  0  0  0  0  0  0
    1.7936   -0.6106   -2.3290 H   0  0  0  0  0  0  0  0  0  0  0  0
    0.6974    0.7160   -1.9370 H   0  0  0  0  0  0  0  0  0  0  0  0
    1.6299    0.8777    0.3333 H   0  0  0  0  0  0  0  0  0  0  0  0
    2.9469    0.8908   -0.8661 H   0  0  0  0  0  0  0  0  0  0  0  0
    3.8990   -1.4942    1.7599 H   0  0  0  0  0  0  0  0  0  0  0  0
    3.0260    0.0119    2.0517 H   0  0  0  0  0  0  0  0  0  0  0  0
  1  2  1  0
  2  3  2  0
  3  4  1  0
  4  5  2  0
  5  6  1  0
  6  7  2  0
  7  8  1  0
  8  9  2  0
  9 10  1  0
 10 11  1  0
 11 12  1  0
 12 13  1  0
 13 14  1  0
 14 15  1  0
 15 16  1  0
 16 17  2  0
 16 18  1  0
  7  2  1  0
 10  6  1  0
  1 19  1  0
  1 20  1  0
  4 21  1  0
  9 22  1  0
 11 23  1  0
 11 24  1  0
 12 25  1  0
 12 26  1  0
 13 27  1  0
 13 28  1  0
 15 29  1  0
 15 30  1  0
M  CHG  1  18  -1
M  END
$$$$
