
     RDKit          3D

 47 50  0  0  0  0  0  0  0  0999 V2000
   -4.0934   -2.8213    1.4838 C   0  0  0  0  0  0  0  0  0  0  0  0
   -2.8638   -2.7003    0.5847 C   0  0  0  0  0  0  0  0  0  0  0  0
   -2.5343   -1.2912    0.3044 N   0  0  0  0  0  0  0  0  0  0  0  0
   -1.1611   -1.0212    0.2170 C   0  0  0  0  0  0  0  0  0  0  0  0
   -0.3226   -2.0466   -0.0984 N   0  0  0  0  0  0  0  0  0  0  0  0
    1.0016   -1.7963   -0.2354 C   0  0  0  0  0  0  0  0  0  0  0  0
    1.5816   -0.5537   -0.0626 C   0  0  0  0  0  0  0  0  0  0  0  0
    2.9306   -0.4870   -0.2332 O   0  0  0  0  0  0  0  0  0  0  0  0
    3.5542    0.7745    0.0018 C   0  0  0  0  0  0  0  0  0  0  0  0
    5.0355    0.6133   -0.2315 C   0  0  0  0  0  0  0  0  0  0  0  0
    5.9117    0.4155    0.8448 C   0  0  0  0  0  0  0  0  0  0  0  0
    7.2805    0.2549    0.6223 C   0  0  0  0  0  0  0  0  0  0  0  0
    7.7851    0.2822   -0.6766 C   0  0  0  0  0  0  0  0  0  0  0  0
    6.9218    0.4651   -1.7551 C   0  0  0  0  0  0  0  0  0  0  0  0
    5.5529    0.6261   -1.5350 C   0  0  0  0  0  0  0  0  0  0  0  0
    0.7303    0.4856    0.2766 C   0  0  0  0  0  0  0  0  0  0  0  0
   -0.6557    0.2563    0.4137 C   0  0  0  0  0  0  0  0  0  0  0  0
   -1.4678    1.3793    0.9119 C   0  0  0  0  0  0  0  0  0  0  0  0
   -0.8962    2.1331    1.7078 O   0  0  0  0  0  0  0  0  0  0  0  0
   -2.7519    1.6544    0.4331 N   0  0  0  0  0  0  0  0  0  0  0  0
   -3.3347    2.9248    0.8690 C   0  0  0  0  0  0  0  0  0  0  0  0
   -3.5336    0.8314   -0.4433 C   0  0  0  0  0  0  0  0  0  0  0  0
   -4.5016    1.4451   -1.2653 C   0  0  0  0  0  0  0  0  0  0  0  0
   -5.3487    0.6897   -2.0666 C   0  0  0  0  0  0  0  0  0  0  0  0
   -5.2138   -0.6748   -2.0114 C   0  0  0  0  0  0  0  0  0  0  0  0
   -6.2179   -1.7031   -2.9435 Cl  0  0  0  0  0  0  0  0  0  0  0  0
   -4.3144   -1.3110   -1.2443 N   0  0  0  0  0  0  0  0  0  0  0  0
   -3.4650   -0.5780   -0.4717 C   0  0  0  0  0  0  0  0  0  0  0  0
   -4.2556   -3.8691    1.7568 H   0  0  0  0  0  0  0  0  0  0  0  0
   -3.9581   -2.2464    2.4062 H   0  0  0  0  0  0  0  0  0  0  0  0
   -5.0046   -2.4628    0.9969 H   0  0  0  0  0  0  0  0  0  0  0  0
   -2.0534   -3.1859    1.1454 H   0  0  0  0  0  0  0  0  0  0  0  0
   -2.9921   -3.2787   -0.3392 H   0  0  0  0  0  0  0  0  0  0  0  0
    1.6073   -2.6604   -0.4959 H   0  0  0  0  0  0  0  0  0  0  0  0
    3.1644    1.5345   -0.6873 H   0  0  0  0  0  0  0  0  0  0  0  0
    3.3763    1.1056    1.0328 H   0  0  0  0  0  0  0  0  0  0  0  0
    5.5327    0.3808    1.8638 H   0  0  0  0  0  0  0  0  0  0  0  0
    7.9528    0.1032    1.4628 H   0  0  0  0  0  0  0  0  0  0  0  0
    8.8505    0.1540   -0.8486 H   0  0  0  0  0  0  0  0  0  0  0  0
    7.3138    0.4767   -2.7687 H   0  0  0  0  0  0  0  0  0  0  0  0
    4.8885    0.7555   -2.3865 H   0  0  0  0  0  0  0  0  0  0  0  0
    1.1074    1.4874    0.4605 H   0  0  0  0  0  0  0  0  0  0  0  0
   -4.4048    2.8067    1.0687 H   0  0  0  0  0  0  0  0  0  0  0  0
   -3.1685    3.6769    0.0912 H   0  0  0  0  0  0  0  0  0  0  0  0
   -2.8759    3.2892    1.7930 H   0  0  0  0  0  0  0  0  0  0  0  0
   -4.6019    2.5258   -1.3123 H   0  0  0  0  0  0  0  0  0  0  0  0
   -6.0881    1.1600   -2.7038 H   0  0  0  0  0  0  0  0  0  0  0  0
  1  2  1  0
  2  3  1  0
  3  4  1  0
  4  5  2  0
  5  6  1  0
  6  7  2  0
  7  8  1  0
  8  9  1  0
  9 10  1  0
 10 11  2  0
 11 12  1  0
 12 13  2  0
 13 14  1  0
 14 15  2  0
  7 16  1  0
 16 17  2  0
 17 18  1  0
 18 19  2  0
 18 20  1  0
 20 21  1  0
 20 22  1  0
 22 23  2  0
 23 24  1  0
 24 25  2  0
 25 26  1  0
 25 27  1  0
 27 28  2  0
 28  3  1  0
 17  4  1  0
 28 22  1  0
 15 10  1  0
  1 29  1  0
  1 30  1  0
  1 31  1  0
  2 32  1  0
  2 33  1  0
  6 34  1  0
  9 35  1  0
  9 36  1  0
 11 37  1  0
 12 38  1  0
 13 39  1  0
 14 40  1  0
 15 41  1  0
 16 42  1  0
 21 43  1  0
 21 44  1  0
 21 45  1  0
 23 46  1  0
 24 47  1  0
M  END
$$$$
