
     RDKit          3D

 53 56  0  0  0  0  0  0  0  0999 V2000
   10.0063    1.7610   -0.2325 N   0  0  0  0  0  0  0  0  0  0  0  0
    9.1895    1.5966   -1.0402 C   0  0  0  0  0  0  0  0  0  0  0  0
    8.1542    1.4500   -2.0606 C   0  0  0  0  0  0  0  0  0  0  0  0
    6.9571    0.7269   -1.4857 C   0  0  0  0  0  0  0  0  0  0  0  0
    6.8257   -0.4831   -1.6486 O   0  0  0  0  0  0  0  0  0  0  0  0
    6.0864    1.5618   -0.7999 N   0  0  0  0  0  0  0  0  0  0  0  0
    4.8574    1.2113   -0.1974 C   0  0  0  0  0  0  0  0  0  0  0  0
    4.1912    2.2126    0.5160 C   0  0  0  0  0  0  0  0  0  0  0  0
    2.9714    1.9470    1.1349 C   0  0  0  0  0  0  0  0  0  0  0  0
    2.4087    0.6741    1.0460 C   0  0  0  0  0  0  0  0  0  0  0  0
    3.0481   -0.3602    0.3401 C   0  0  0  0  0  0  0  0  0  0  0  0
    2.4372   -1.7049    0.2591 C   0  0  0  0  0  0  0  0  0  0  0  0
    3.1790   -2.8650    0.1751 C   0  0  0  0  0  0  0  0  0  0  0  0
    2.4644   -4.0344    0.1167 C   0  0  0  0  0  0  0  0  0  0  0  0
    1.1219   -4.0867    0.1383 N   0  0  0  0  0  0  0  0  0  0  0  0
    0.4655   -2.9189    0.2205 C   0  0  0  0  0  0  0  0  0  0  0  0
   -0.9212   -3.0295    0.2498 N   0  0  0  0  0  0  0  0  0  0  0  0
   -1.9690   -2.1064    0.2772 C   0  0  0  0  0  0  0  0  0  0  0  0
   -3.2784   -2.5770    0.4283 C   0  0  0  0  0  0  0  0  0  0  0  0
   -4.3740   -1.7005    0.4782 C   0  0  0  0  0  0  0  0  0  0  0  0
   -4.2131   -0.3148    0.3723 C   0  0  0  0  0  0  0  0  0  0  0  0
   -5.2808    0.5739    0.4213 N   0  0  0  0  0  0  0  0  0  0  0  0
   -6.5817    0.1507    0.9672 C   0  0  0  0  0  0  0  0  0  0  0  0
   -7.4309    1.3748    1.3424 C   0  0  0  0  0  0  0  0  0  0  0  0
   -7.5815    2.2760    0.2350 O   0  0  0  0  0  0  0  0  0  0  0  0
   -6.2924    2.7522   -0.1810 C   0  0  0  0  0  0  0  0  0  0  0  0
   -5.3768    1.6037   -0.6324 C   0  0  0  0  0  0  0  0  0  0  0  0
   -2.8980    0.1475    0.2364 C   0  0  0  0  0  0  0  0  0  0  0  0
   -1.7995   -0.7266    0.1899 C   0  0  0  0  0  0  0  0  0  0  0  0
    1.0856   -1.7331    0.2869 N   0  0  0  0  0  0  0  0  0  0  0  0
    4.2769   -0.0594   -0.2843 C   0  0  0  0  0  0  0  0  0  0  0  0
    8.5295    0.8768   -2.9153 H   0  0  0  0  0  0  0  0  0  0  0  0
    7.8435    2.4289   -2.4419 H   0  0  0  0  0  0  0  0  0  0  0  0
    6.3642    2.5290   -0.6773 H   0  0  0  0  0  0  0  0  0  0  0  0
    4.6086    3.2121    0.6053 H   0  0  0  0  0  0  0  0  0  0  0  0
    2.4566    2.7276    1.6894 H   0  0  0  0  0  0  0  0  0  0  0  0
    1.4559    0.4847    1.5399 H   0  0  0  0  0  0  0  0  0  0  0  0
    4.2605   -2.8746    0.1708 H   0  0  0  0  0  0  0  0  0  0  0  0
    2.9662   -4.9954    0.0527 H   0  0  0  0  0  0  0  0  0  0  0  0
   -1.1691   -4.0072    0.2250 H   0  0  0  0  0  0  0  0  0  0  0  0
   -3.4692   -3.6442    0.5109 H   0  0  0  0  0  0  0  0  0  0  0  0
   -5.3619   -2.1393    0.5807 H   0  0  0  0  0  0  0  0  0  0  0  0
   -7.1117   -0.4402    0.2101 H   0  0  0  0  0  0  0  0  0  0  0  0
   -6.4527   -0.4620    1.8670 H   0  0  0  0  0  0  0  0  0  0  0  0
   -6.9864    1.9173    2.1856 H   0  0  0  0  0  0  0  0  0  0  0  0
   -8.4317    1.0520    1.6462 H   0  0  0  0  0  0  0  0  0  0  0  0
   -6.4488    3.4486   -1.0110 H   0  0  0  0  0  0  0  0  0  0  0  0
   -5.8373    3.3146    0.6433 H   0  0  0  0  0  0  0  0  0  0  0  0
   -5.7965    1.1367   -1.5322 H   0  0  0  0  0  0  0  0  0  0  0  0
   -4.4047    2.0294   -0.8995 H   0  0  0  0  0  0  0  0  0  0  0  0
   -2.6941    1.2139    0.1949 H   0  0  0  0  0  0  0  0  0  0  0  0
   -0.8116   -0.2908    0.0804 H   0  0  0  0  0  0  0  0  0  0  0  0
    4.7617   -0.8376   -0.8643 H   0  0  0  0  0  0  0  0  0  0  0  0
  1  2  3  0
  2  3  1  0
  3  4  1  0
  4  5  2  0
  4  6  1  0
  6  7  1  0
  7  8  2  0
  8  9  1  0
  9 10  2  0
 10 11  1  0
 11 12  1  0
 12 13  2  0
 13 14  1  0
 14 15  2  0
 15 16  1  0
 16 17  1  0
 17 18  1  0
 18 19  2  0
 19 20  1  0
 20 21  2  0
 21 22  1  0
 22 23  1  0
 23 24  1  0
 24 25  1  0
 25 26  1  0
 26 27  1  0
 21 28  1  0
 28 29  2  0
 16 30  2  0
 11 31  2  0
 31  7  1  0
 30 12  1  0
 29 18  1  0
 27 22  1  0
  3 32  1  0
  3 33  1  0
  6 34  1  0
  8 35  1  0
  9 36  1  0
 10 37  1  0
 13 38  1  0
 14 39  1  0
 17 40  1  0
 19 41  1  0
 20 42  1  0
 23 43  1  0
 23 44  1  0
 24 45  1  0
 24 46  1  0
 26 47  1  0
 26 48  1  0
 27 49  1  0
 27 50  1  0
 28 51  1  0
 29 52  1  0
 31 53  1  0
M  END
$$$$
