
     RDKit          3D

 57 63  0  0  0  0  0  0  0  0999 V2000
   -6.3800   -1.8117    1.0278 C   0  0  0  0  0  0  0  0  0  0  0  0
   -5.9083   -0.6727    0.1765 C   0  0  2  0  0  0  0  0  0  0  0  0
   -4.6398   -0.9019   -0.6059 C   0  0  1  0  0  0  0  0  0  0  0  0
   -4.4777   -0.0913   -1.8962 C   0  0  0  0  0  0  0  0  0  0  0  0
   -3.0018    0.0768   -1.8813 C   0  0  0  0  0  0  0  0  0  0  0  0
   -2.1806    0.5304   -2.8948 C   0  0  0  0  0  0  0  0  0  0  0  0
   -0.8286    0.6889   -2.6077 C   0  0  0  0  0  0  0  0  0  0  0  0
   -0.3298    0.3998   -1.3210 C   0  0  0  0  0  0  0  0  0  0  0  0
   -1.1554   -0.0726   -0.2789 C   0  0  0  0  0  0  0  0  0  0  0  0
   -2.5033   -0.2157   -0.6095 C   0  0  0  0  0  0  0  0  0  0  0  0
   -3.5091   -0.5970    0.2462 O   0  0  0  0  0  0  0  0  0  0  0  0
   -0.5577   -0.3367    0.9862 N   0  0  0  0  0  0  0  0  0  0  0  0
   -1.1985   -0.9446    2.0580 C   0  0  0  0  0  0  0  0  0  0  0  0
   -0.6859   -1.1459    3.2810 C   0  0  0  0  0  0  0  0  0  0  0  0
   -1.4930   -1.9330    4.2846 C   0  0  0  0  0  0  0  0  0  0  0  0
   -1.0139   -3.0638    4.5842 O   0  0  0  0  0  0  0  0  0  0  0  0
   -2.5928   -1.4083    4.6226 O   0  0  0  0  0  0  0  0  0  0  0  0
    0.6680   -0.6652    3.5713 C   0  0  0  0  0  0  0  0  0  0  0  0
    1.1869   -0.6516    4.6806 O   0  0  0  0  0  0  0  0  0  0  0  0
    1.4379   -0.1517    2.4176 C   0  0  0  0  0  0  0  0  0  0  0  0
    2.7845    0.1613    2.5902 C   0  0  0  0  0  0  0  0  0  0  0  0
    3.5201    0.5984    1.5003 C   0  0  0  0  0  0  0  0  0  0  0  0
    4.8449    0.7642    1.6713 F   0  0  0  0  0  0  0  0  0  0  0  0
    2.9612    0.7602    0.2151 C   0  0  0  0  0  0  0  0  0  0  0  0
    3.7452    1.1451   -0.8582 N   0  0  0  0  0  0  0  0  0  0  0  0
    3.7375    0.4147   -2.1279 C   0  0  0  0  0  0  0  0  0  0  0  0
    5.1434    0.6841   -2.7010 C   0  0  0  0  0  0  0  0  0  0  0  0
    5.9359    1.2754   -1.5316 C   0  0  2  0  0  0  0  0  0  0  0  0
    6.3833    0.1603   -0.6317 N   0  0  0  0  0  0  0  0  0  0  0  0
    4.8593    2.0837   -0.7968 C   0  0  0  0  0  0  0  0  0  0  0  0
    1.5862    0.4500    0.0818 C   0  0  0  0  0  0  0  0  0  0  0  0
    0.8181   -0.0091    1.1678 C   0  0  0  0  0  0  0  0  0  0  0  0
    1.0239    0.6205   -1.1686 O   0  0  0  0  0  0  0  0  0  0  0  0
   -6.3303    0.7279    0.5609 C   0  0  0  0  0  0  0  0  0  0  0  0
   -6.9591    0.0162   -0.5186 O   0  0  0  0  0  0  0  0  0  0  0  0
   -5.6320   -2.0511    1.7905 H   0  0  0  0  0  0  0  0  0  0  0  0
   -7.3200   -1.5784    1.5394 H   0  0  0  0  0  0  0  0  0  0  0  0
   -6.5467   -2.7044    0.4163 H   0  0  0  0  0  0  0  0  0  0  0  0
   -4.5667   -1.9716   -0.8525 H   0  0  0  0  0  0  0  0  0  0  0  0
   -4.9527    0.8934   -1.8621 H   0  0  0  0  0  0  0  0  0  0  0  0
   -4.8422   -0.6441   -2.7667 H   0  0  0  0  0  0  0  0  0  0  0  0
   -2.5774    0.7744   -3.8747 H   0  0  0  0  0  0  0  0  0  0  0  0
   -0.1550    1.0555   -3.3771 H   0  0  0  0  0  0  0  0  0  0  0  0
   -2.1938   -1.3302    1.8681 H   0  0  0  0  0  0  0  0  0  0  0  0
    3.2617    0.0320    3.5581 H   0  0  0  0  0  0  0  0  0  0  0  0
    2.9661    0.7823   -2.8116 H   0  0  0  0  0  0  0  0  0  0  0  0
    3.6011   -0.6609   -1.9669 H   0  0  0  0  0  0  0  0  0  0  0  0
    5.5944   -0.2191   -3.1242 H   0  0  0  0  0  0  0  0  0  0  0  0
    5.0672    1.4259   -3.5056 H   0  0  0  0  0  0  0  0  0  0  0  0
    6.8205    1.8452   -1.8243 H   0  0  0  0  0  0  0  0  0  0  0  0
    6.9560   -0.5514   -1.0962 H   0  0  0  0  0  0  0  0  0  0  0  0
    6.8883    0.5152    0.1909 H   0  0  0  0  0  0  0  0  0  0  0  0
    5.5410   -0.2973   -0.2414 H   0  0  0  0  0  0  0  0  0  0  0  0
    5.1665    2.3860    0.2075 H   0  0  0  0  0  0  0  0  0  0  0  0
    4.6041    2.9908   -1.3575 H   0  0  0  0  0  0  0  0  0  0  0  0
   -5.6743    1.5555    0.3215 H   0  0  0  0  0  0  0  0  0  0  0  0
   -6.8969    0.8671    1.4742 H   0  0  0  0  0  0  0  0  0  0  0  0
  2  1  1  1
  2  3  1  0
  3  4  1  0
  4  5  1  0
  5  6  2  0
  6  7  1  0
  7  8  2  0
  8  9  1  0
  9 10  2  0
 10 11  1  0
  9 12  1  0
 12 13  1  0
 13 14  2  0
 14 15  1  0
 15 16  2  0
 15 17  1  0
 14 18  1  0
 18 19  2  0
 18 20  1  0
 20 21  2  0
 21 22  1  0
 22 23  1  0
 22 24  2  0
 24 25  1  0
 25 26  1  0
 26 27  1  0
 27 28  1  0
 28 29  1  0
 28 30  1  0
 24 31  1  0
 31 32  2  0
 31 33  1  0
  2 34  1  0
 34 35  1  0
 35  2  1  0
 11  3  1  0
 32 12  1  0
 10  5  1  0
 32 20  1  0
 33  8  1  0
 30 25  1  0
  1 36  1  0
  1 37  1  0
  1 38  1  0
  3 39  1  6
  4 40  1  0
  4 41  1  0
  6 42  1  0
  7 43  1  0
 13 44  1  0
 21 45  1  0
 26 46  1  0
 26 47  1  0
 27 48  1  0
 27 49  1  0
 28 50  1  6
 29 51  1  0
 29 52  1  0
 29 53  1  0
 30 54  1  0
 30 55  1  0
 34 56  1  0
 34 57  1  0
M  CHG  2  17  -1  29   1
M  END
$$$$
