
     RDKit          3D

 65 71  0  0  0  0  0  0  0  0999 V2000
    2.1389    1.6094    1.3692 O   0  0  0  0  0  0  0  0  0  0  0  0
    1.5571    0.6811    0.8077 C   0  0  0  0  0  0  0  0  0  0  0  0
    2.3204   -0.4713    0.3162 C   0  0  0  0  0  0  0  0  0  0  0  0
    2.0241   -1.4206   -0.7152 C   0  0  0  0  0  0  0  0  0  0  0  0
    3.0730   -2.3160   -0.8135 C   0  0  0  0  0  0  0  0  0  0  0  0
    4.0095   -1.9216    0.0827 N   0  0  0  0  0  0  0  0  0  0  0  0
    3.5802   -0.8245    0.7762 C   0  0  0  0  0  0  0  0  0  0  0  0
    4.5059   -0.2981    1.8045 C   0  0  0  0  0  0  0  0  0  0  0  0
    5.9118   -1.4782    1.8486 S   0  0  0  0  0  0  0  0  0  0  0  0
    5.3078   -2.4852    0.4289 C   0  0  2  0  0  0  0  0  0  0  0  0
    6.2891   -2.4705   -0.7148 C   0  0  0  0  0  0  0  0  0  0  0  0
    6.4121   -1.4066   -1.6188 C   0  0  0  0  0  0  0  0  0  0  0  0
    7.3537   -1.4677   -2.6422 C   0  0  0  0  0  0  0  0  0  0  0  0
    8.1583   -2.5902   -2.7271 C   0  0  0  0  0  0  0  0  0  0  0  0
    8.0870   -3.6303   -1.8701 N   0  0  0  0  0  0  0  0  0  0  0  0
    7.1598   -3.5442   -0.8879 C   0  0  0  0  0  0  0  0  0  0  0  0
    0.1005    0.6900    0.6470 C   0  0  0  0  0  0  0  0  0  0  0  0
   -0.7539   -0.3963    0.5795 C   0  0  0  0  0  0  0  0  0  0  0  0
   -2.0735    0.0310    0.5243 N   0  0  0  0  0  0  0  0  0  0  0  0
   -3.2153   -0.8067    0.6268 C   0  0  0  0  0  0  0  0  0  0  0  0
   -4.2913   -0.2906    0.9390 O   0  0  0  0  0  0  0  0  0  0  0  0
   -3.1710   -2.2850    0.6110 C   0  0  0  0  0  0  0  0  0  0  0  0
   -3.4980   -2.9229    1.8216 C   0  0  0  0  0  0  0  0  0  0  0  0
   -3.4749   -4.3159    1.9221 C   0  0  0  0  0  0  0  0  0  0  0  0
   -3.1353   -5.0866    0.8126 C   0  0  0  0  0  0  0  0  0  0  0  0
   -2.8280   -4.4640   -0.3974 C   0  0  0  0  0  0  0  0  0  0  0  0
   -2.8461   -3.0631   -0.4996 C   0  0  0  0  0  0  0  0  0  0  0  0
   -2.5059   -2.3414   -2.1132 S   0  0  0  0  0  0  0  0  0  0  0  0
   -3.2182   -1.0726   -2.0782 O   0  0  0  0  0  0  0  0  0  0  0  0
   -3.0490   -3.3325   -3.0360 O   0  0  0  0  0  0  0  0  0  0  0  0
   -1.0518   -2.2495   -2.0715 O   0  0  0  0  0  0  0  0  0  0  0  0
   -2.0629    1.4283    0.4960 C   0  0  0  0  0  0  0  0  0  0  0  0
   -3.1207    2.3571    0.3885 C   0  0  0  0  0  0  0  0  0  0  0  0
   -2.8531    3.7381    0.4148 C   0  0  0  0  0  0  0  0  0  0  0  0
   -3.9498    4.7191    0.3127 C   0  0  0  0  0  0  0  0  0  0  0  0
   -5.0830    4.6264    1.1422 C   0  0  0  0  0  0  0  0  0  0  0  0
   -6.1208    5.5576    1.0514 C   0  0  0  0  0  0  0  0  0  0  0  0
   -6.0344    6.5896    0.1269 C   0  0  0  0  0  0  0  0  0  0  0  0
   -7.0274    7.4849    0.0404 F   0  0  0  0  0  0  0  0  0  0  0  0
   -4.9326    6.7064   -0.7098 C   0  0  0  0  0  0  0  0  0  0  0  0
   -3.8957    5.7743   -0.6170 C   0  0  0  0  0  0  0  0  0  0  0  0
   -1.5246    4.1572    0.5439 C   0  0  0  0  0  0  0  0  0  0  0  0
   -0.4720    3.2376    0.6329 C   0  0  0  0  0  0  0  0  0  0  0  0
   -0.7356    1.8511    0.6011 C   0  0  0  0  0  0  0  0  0  0  0  0
    1.1349   -1.4496   -1.3360 H   0  0  0  0  0  0  0  0  0  0  0  0
    3.2097   -3.1694   -1.4653 H   0  0  0  0  0  0  0  0  0  0  0  0
    4.8789    0.6942    1.5368 H   0  0  0  0  0  0  0  0  0  0  0  0
    4.0357   -0.2591    2.7906 H   0  0  0  0  0  0  0  0  0  0  0  0
    5.1128   -3.5062    0.7773 H   0  0  0  0  0  0  0  0  0  0  0  0
    5.7731   -0.5291   -1.5385 H   0  0  0  0  0  0  0  0  0  0  0  0
    7.4531   -0.6581   -3.3565 H   0  0  0  0  0  0  0  0  0  0  0  0
    8.9051   -2.6846   -3.5099 H   0  0  0  0  0  0  0  0  0  0  0  0
    7.1414   -4.4008   -0.2180 H   0  0  0  0  0  0  0  0  0  0  0  0
   -0.5355   -1.4558    0.5995 H   0  0  0  0  0  0  0  0  0  0  0  0
   -3.7787   -2.3277    2.6884 H   0  0  0  0  0  0  0  0  0  0  0  0
   -3.7304   -4.7971    2.8620 H   0  0  0  0  0  0  0  0  0  0  0  0
   -3.1226   -6.1709    0.8792 H   0  0  0  0  0  0  0  0  0  0  0  0
   -2.5808   -5.0618   -1.2732 H   0  0  0  0  0  0  0  0  0  0  0  0
   -4.1413    2.0012    0.2623 H   0  0  0  0  0  0  0  0  0  0  0  0
   -5.1585    3.8205    1.8706 H   0  0  0  0  0  0  0  0  0  0  0  0
   -6.9914    5.4775    1.6932 H   0  0  0  0  0  0  0  0  0  0  0  0
   -4.8873    7.5130   -1.4334 H   0  0  0  0  0  0  0  0  0  0  0  0
   -3.0454    5.8616   -1.2907 H   0  0  0  0  0  0  0  0  0  0  0  0
   -1.2869    5.2179    0.5812 H   0  0  0  0  0  0  0  0  0  0  0  0
    0.5498    3.5973    0.7236 H   0  0  0  0  0  0  0  0  0  0  0  0
  1  2  2  0
  2  3  1  0
  3  4  1  0
  4  5  2  0
  5  6  1  0
  6  7  1  0
  7  8  1  0
  8  9  1  0
  9 10  1  0
 10 11  1  0
 11 12  2  0
 12 13  1  0
 13 14  2  0
 14 15  1  0
 15 16  2  0
  2 17  1  0
 17 18  2  0
 18 19  1  0
 19 20  1  0
 20 21  2  0
 20 22  1  0
 22 23  2  0
 23 24  1  0
 24 25  2  0
 25 26  1  0
 26 27  2  0
 27 28  1  0
 28 29  2  0
 28 30  2  0
 28 31  1  0
 19 32  1  0
 32 33  2  0
 33 34  1  0
 34 35  1  0
 35 36  2  0
 36 37  1  0
 37 38  2  0
 38 39  1  0
 38 40  1  0
 40 41  2  0
 34 42  2  0
 42 43  1  0
 43 44  2  0
  7  3  2  0
 16 11  1  0
 44 17  1  0
 10  6  1  0
 27 22  1  0
 44 32  1  0
 41 35  1  0
  4 45  1  0
  5 46  1  0
  8 47  1  0
  8 48  1  0
 10 49  1  1
 12 50  1  0
 13 51  1  0
 14 52  1  0
 16 53  1  0
 18 54  1  0
 23 55  1  0
 24 56  1  0
 25 57  1  0
 26 58  1  0
 33 59  1  0
 36 60  1  0
 37 61  1  0
 40 62  1  0
 41 63  1  0
 42 64  1  0
 43 65  1  0
M  CHG  1  31  -1
M  END
$$$$
