
     RDKit          3D

 60 64  0  0  0  0  0  0  0  0999 V2000
    7.2373   -0.2470    0.1502 C   0  0  0  0  0  0  0  0  0  0  0  0
    6.7004    1.1767   -0.0274 C   0  0  0  0  0  0  0  0  0  0  0  0
    7.8694    2.0973   -0.3992 C   0  0  0  0  0  0  0  0  0  0  0  0
    5.8025    1.2102   -1.1900 O   0  0  0  0  0  0  0  0  0  0  0  0
    4.5019    0.9178   -0.9048 C   0  0  0  0  0  0  0  0  0  0  0  0
    3.6333    1.9410   -0.5315 C   0  0  0  0  0  0  0  0  0  0  0  0
    2.3118    1.6438   -0.1944 C   0  0  0  0  0  0  0  0  0  0  0  0
    1.8371    0.3307   -0.2697 C   0  0  0  0  0  0  0  0  0  0  0  0
    2.7090   -0.6527   -0.7119 C   0  0  0  0  0  0  0  0  0  0  0  0
    4.0396   -0.3822   -1.0405 C   0  0  0  0  0  0  0  0  0  0  0  0
    2.0876   -2.2761   -0.8833 S   0  0  0  0  0  0  0  0  0  0  0  0
    2.8916   -3.1088   -0.0122 O   0  0  0  0  0  0  0  0  0  0  0  0
    2.0904   -2.5237   -2.3133 O   0  0  0  0  0  0  0  0  0  0  0  0
    0.6060   -2.1890   -0.3525 N   0  0  0  0  0  0  0  0  0  0  0  0
    0.0045   -1.1035    0.0411 C   0  0  0  0  0  0  0  0  0  0  0  0
   -1.5312   -1.2695    0.4933 C   0  0  0  0  0  0  0  0  0  0  0  0
   -2.1173   -2.4917    0.4146 C   0  0  0  0  0  0  0  0  0  0  0  0
   -1.5377   -3.5433   -0.0012 O   0  0  0  0  0  0  0  0  0  0  0  0
   -3.5531   -2.5268    0.8704 C   0  0  0  0  0  0  0  0  0  0  0  0
   -4.2570   -3.7519    0.8414 C   0  0  0  0  0  0  0  0  0  0  0  0
   -5.5789   -3.8323    1.2526 C   0  0  0  0  0  0  0  0  0  0  0  0
   -6.2226   -5.0066    1.2137 F   0  0  0  0  0  0  0  0  0  0  0  0
   -6.2439   -2.7081    1.7049 C   0  0  0  0  0  0  0  0  0  0  0  0
   -5.5721   -1.4859    1.7439 C   0  0  0  0  0  0  0  0  0  0  0  0
   -4.2286   -1.3757    1.3293 C   0  0  0  0  0  0  0  0  0  0  0  0
   -3.5395   -0.1279    1.3638 N   0  0  0  0  0  0  0  0  0  0  0  0
   -4.2109    1.1037    1.7846 C   0  0  0  0  0  0  0  0  0  0  0  0
   -5.0830    1.7329    0.6874 C   0  0  0  0  0  0  0  0  0  0  0  0
   -4.2867    2.2161   -0.4922 C   0  0  0  0  0  0  0  0  0  0  0  0
   -4.0607    1.3217   -1.6841 C   0  0  0  0  0  0  0  0  0  0  0  0
   -4.9831    2.5032   -1.7973 C   0  0  0  0  0  0  0  0  0  0  0  0
   -2.2199   -0.0376    0.9613 C   0  0  0  0  0  0  0  0  0  0  0  0
   -1.5791    1.0207    0.9615 O   0  0  0  0  0  0  0  0  0  0  0  0
    0.5519    0.0950    0.0813 N   0  0  0  0  0  0  0  0  0  0  0  0
    6.0418    1.7266    1.2945 C   0  0  0  0  0  0  0  0  0  0  0  0
    6.0004    2.9872    1.4188 O   0  0  0  0  0  0  0  0  0  0  0  0
    5.5812    0.8499    2.0863 O   0  0  0  0  0  0  0  0  0  0  0  0
    7.6740   -0.6199   -0.7832 H   0  0  0  0  0  0  0  0  0  0  0  0
    8.0005   -0.2903    0.9349 H   0  0  0  0  0  0  0  0  0  0  0  0
    6.4454   -0.9518    0.4237 H   0  0  0  0  0  0  0  0  0  0  0  0
    8.4012    1.7164   -1.2791 H   0  0  0  0  0  0  0  0  0  0  0  0
    7.5170    3.0991   -0.6715 H   0  0  0  0  0  0  0  0  0  0  0  0
    8.5871    2.1949    0.4225 H   0  0  0  0  0  0  0  0  0  0  0  0
    4.0088    2.9591   -0.4370 H   0  0  0  0  0  0  0  0  0  0  0  0
    1.6722    2.4519    0.1507 H   0  0  0  0  0  0  0  0  0  0  0  0
    4.7115   -1.1691   -1.3706 H   0  0  0  0  0  0  0  0  0  0  0  0
    0.0082   -3.0269   -0.3223 H   0  0  0  0  0  0  0  0  0  0  0  0
   -3.7683   -4.6589    0.4940 H   0  0  0  0  0  0  0  0  0  0  0  0
   -7.2772   -2.7873    2.0244 H   0  0  0  0  0  0  0  0  0  0  0  0
   -6.1334   -0.6323    2.1061 H   0  0  0  0  0  0  0  0  0  0  0  0
   -4.8002    0.9082    2.6871 H   0  0  0  0  0  0  0  0  0  0  0  0
   -3.4585    1.8395    2.0949 H   0  0  0  0  0  0  0  0  0  0  0  0
   -5.6065    2.5953    1.1174 H   0  0  0  0  0  0  0  0  0  0  0  0
   -5.8564    1.0292    0.3598 H   0  0  0  0  0  0  0  0  0  0  0  0
   -3.4850    2.8873   -0.2014 H   0  0  0  0  0  0  0  0  0  0  0  0
   -4.4988    0.3293   -1.6821 H   0  0  0  0  0  0  0  0  0  0  0  0
   -3.0986    1.3751   -2.1812 H   0  0  0  0  0  0  0  0  0  0  0  0
   -6.0460    2.3066   -1.8779 H   0  0  0  0  0  0  0  0  0  0  0  0
   -4.6448    3.3551   -2.3763 H   0  0  0  0  0  0  0  0  0  0  0  0
   -0.0446    0.8551    0.4270 H   0  0  0  0  0  0  0  0  0  0  0  0
  1  2  1  0
  2  3  1  0
  2  4  1  0
  4  5  1  0
  5  6  2  0
  6  7  1  0
  7  8  2  0
  8  9  1  0
  9 10  2  0
  9 11  1  0
 11 12  2  0
 11 13  2  0
 11 14  1  0
 14 15  2  0
 15 16  1  0
 16 17  2  0
 17 18  1  0
 17 19  1  0
 19 20  2  0
 20 21  1  0
 21 22  1  0
 21 23  2  0
 23 24  1  0
 24 25  2  0
 25 26  1  0
 26 27  1  0
 27 28  1  0
 28 29  1  0
 29 30  1  0
 30 31  1  0
 26 32  1  0
 32 33  2  0
 15 34  1  0
  2 35  1  0
 35 36  2  0
 35 37  1  0
 10  5  1  0
 32 16  1  0
 34  8  1  0
 25 19  1  0
 31 29  1  0
  1 38  1  0
  1 39  1  0
  1 40  1  0
  3 41  1  0
  3 42  1  0
  3 43  1  0
  6 44  1  0
  7 45  1  0
 10 46  1  0
 14 47  1  0
 20 48  1  0
 23 49  1  0
 24 50  1  0
 27 51  1  0
 27 52  1  0
 28 53  1  0
 28 54  1  0
 29 55  1  0
 30 56  1  0
 30 57  1  0
 31 58  1  0
 31 59  1  0
 34 60  1  0
M  CHG  3  14   1  18  -1  37  -1
M  END
$$$$
