
     RDKit          3D

 57 61  0  0  0  0  0  0  0  0999 V2000
    3.1204   -0.8693    1.2930 O   0  0  0  0  0  0  0  0  0  0  0  0
    3.5515    0.1317    1.8495 C   0  0  0  0  0  0  0  0  0  0  0  0
    2.7759    1.1952    2.2877 N   0  0  0  0  0  0  0  0  0  0  0  0
    1.3907    1.3891    2.0955 C   0  0  0  0  0  0  0  0  0  0  0  0
    0.8028    2.4784    2.7488 C   0  0  0  0  0  0  0  0  0  0  0  0
   -0.5596    2.7408    2.6059 C   0  0  0  0  0  0  0  0  0  0  0  0
   -1.3477    1.9127    1.8079 C   0  0  0  0  0  0  0  0  0  0  0  0
   -0.7872    0.8123    1.1445 C   0  0  0  0  0  0  0  0  0  0  0  0
   -1.6476   -0.0444    0.2895 C   0  0  0  0  0  0  0  0  0  0  0  0
   -1.4555   -1.3806    0.2645 C   0  0  0  0  0  0  0  0  0  0  0  0
   -2.2800   -2.1451   -0.5313 N   0  0  0  0  0  0  0  0  0  0  0  0
   -2.3408   -3.4899   -0.7742 C   0  0  0  0  0  0  0  0  0  0  0  0
   -3.3842   -3.6460   -1.6634 C   0  0  0  0  0  0  0  0  0  0  0  0
   -3.9649   -2.4375   -1.9698 N   0  0  0  0  0  0  0  0  0  0  0  0
   -3.2712   -1.5630   -1.2694 C   0  0  0  0  0  0  0  0  0  0  0  0
   -3.4500   -0.1238   -1.2044 C   0  0  0  0  0  0  0  0  0  0  0  0
   -4.4401    0.4860   -1.9336 N   0  0  0  0  0  0  0  0  0  0  0  0
   -4.6744    1.9027   -1.9508 C   0  0  0  0  0  0  0  0  0  0  0  0
   -5.8377    2.2110   -2.8568 C   0  0  0  0  0  0  0  0  0  0  0  0
   -7.1476    2.1983   -2.3680 C   0  0  0  0  0  0  0  0  0  0  0  0
   -8.1866    2.4630   -3.2462 C   0  0  0  0  0  0  0  0  0  0  0  0
   -8.0119    2.7287   -4.5580 N   0  0  0  0  0  0  0  0  0  0  0  0
   -6.7414    2.7209   -5.0144 C   0  0  0  0  0  0  0  0  0  0  0  0
   -5.6370    2.4678   -4.2164 C   0  0  0  0  0  0  0  0  0  0  0  0
   -2.6540    0.5876   -0.4377 N   0  0  0  0  0  0  0  0  0  0  0  0
    0.5924    0.5736    1.2870 C   0  0  0  0  0  0  0  0  0  0  0  0
    4.8874    0.3578    2.1374 N   0  0  0  0  0  0  0  0  0  0  0  0
    5.9917   -0.5018    1.9206 C   0  0  0  0  0  0  0  0  0  0  0  0
    5.8704   -1.8011    1.4164 C   0  0  0  0  0  0  0  0  0  0  0  0
    7.0023   -2.6175    1.2246 C   0  0  0  0  0  0  0  0  0  0  0  0
    6.8380   -4.0099    0.6604 C   0  0  0  0  0  0  0  0  0  0  0  0
    5.8080   -4.6943    1.2290 F   0  0  0  0  0  0  0  0  0  0  0  0
    7.9414   -4.7910    0.8344 F   0  0  0  0  0  0  0  0  0  0  0  0
    6.5956   -4.0014   -0.6784 F   0  0  0  0  0  0  0  0  0  0  0  0
    8.2720   -2.1115    1.5371 C   0  0  0  0  0  0  0  0  0  0  0  0
    8.4090   -0.8202    2.0450 C   0  0  0  0  0  0  0  0  0  0  0  0
    7.2777   -0.0243    2.2366 C   0  0  0  0  0  0  0  0  0  0  0  0
    7.5039    1.5712    2.8731 Cl  0  0  0  0  0  0  0  0  0  0  0  0
    3.2379    1.8826    2.8624 H   0  0  0  0  0  0  0  0  0  0  0  0
    1.3933    3.1380    3.3790 H   0  0  0  0  0  0  0  0  0  0  0  0
   -1.0094    3.5897    3.1141 H   0  0  0  0  0  0  0  0  0  0  0  0
   -2.4092    2.1289    1.7022 H   0  0  0  0  0  0  0  0  0  0  0  0
   -0.6977   -1.9033    0.8335 H   0  0  0  0  0  0  0  0  0  0  0  0
   -1.6632   -4.1948   -0.3151 H   0  0  0  0  0  0  0  0  0  0  0  0
   -3.7477   -4.5681   -2.0994 H   0  0  0  0  0  0  0  0  0  0  0  0
   -5.0194   -0.1158   -2.5110 H   0  0  0  0  0  0  0  0  0  0  0  0
   -3.7827    2.4365   -2.3014 H   0  0  0  0  0  0  0  0  0  0  0  0
   -4.8893    2.2707   -0.9401 H   0  0  0  0  0  0  0  0  0  0  0  0
   -7.3584    1.9821   -1.3256 H   0  0  0  0  0  0  0  0  0  0  0  0
   -9.2186    2.4651   -2.9073 H   0  0  0  0  0  0  0  0  0  0  0  0
   -6.6296    2.9273   -6.0750 H   0  0  0  0  0  0  0  0  0  0  0  0
   -4.6419    2.4672   -4.6497 H   0  0  0  0  0  0  0  0  0  0  0  0
    1.0354   -0.2475    0.7332 H   0  0  0  0  0  0  0  0  0  0  0  0
    5.1310    1.2672    2.5061 H   0  0  0  0  0  0  0  0  0  0  0  0
    4.8982   -2.2178    1.1626 H   0  0  0  0  0  0  0  0  0  0  0  0
    9.1607   -2.7240    1.3877 H   0  0  0  0  0  0  0  0  0  0  0  0
    9.3986   -0.4404    2.2879 H   0  0  0  0  0  0  0  0  0  0  0  0
  1  2  2  0
  2  3  1  0
  3  4  1  0
  4  5  2  0
  5  6  1  0
  6  7  2  0
  7  8  1  0
  8  9  1  0
  9 10  2  0
 10 11  1  0
 11 12  1  0
 12 13  2  0
 13 14  1  0
 14 15  2  0
 15 16  1  0
 16 17  1  0
 17 18  1  0
 18 19  1  0
 19 20  2  0
 20 21  1  0
 21 22  2  0
 22 23  1  0
 23 24  2  0
 16 25  2  0
  8 26  2  0
  2 27  1  0
 27 28  1  0
 28 29  2  0
 29 30  1  0
 30 31  1  0
 31 32  1  0
 31 33  1  0
 31 34  1  0
 30 35  2  0
 35 36  1  0
 36 37  2  0
 37 38  1  0
 26  4  1  0
 37 28  1  0
 25  9  1  0
 15 11  1  0
 24 19  1  0
  3 39  1  0
  5 40  1  0
  6 41  1  0
  7 42  1  0
 10 43  1  0
 12 44  1  0
 13 45  1  0
 17 46  1  0
 18 47  1  0
 18 48  1  0
 20 49  1  0
 21 50  1  0
 23 51  1  0
 24 52  1  0
 26 53  1  0
 27 54  1  0
 29 55  1  0
 35 56  1  0
 36 57  1  0
M  END
$$$$
