
     RDKit          3D

 89 96  0  0  0  0  0  0  0  0999 V2000
    0.4882   -5.2601    1.2678 C   0  0  0  0  0  0  0  0  0  0  0  0
    0.0824   -3.9453    1.8592 C   0  0  0  0  0  0  0  0  0  0  0  0
   -0.4601   -3.8121    2.9465 O   0  0  0  0  0  0  0  0  0  0  0  0
    0.4072   -2.9336    1.0067 O   0  0  0  0  0  0  0  0  0  0  0  0
    0.0512   -1.5962    1.4306 C   0  0  2  0  0  0  0  0  0  0  0  0
   -1.4790   -1.3967    1.2553 C   0  0  0  0  0  0  0  0  0  0  0  0
   -1.9718   -0.3630    0.2299 C   0  0  1  0  0  0  0  0  0  0  0  0
   -2.6441   -0.9004   -1.0251 C   0  0  0  0  0  0  0  0  0  0  0  0
   -3.5105   -0.2468    0.0198 C   0  0  1  0  0  0  0  0  0  0  0  0
   -4.4654   -1.1626    0.7710 C   0  0  0  0  0  0  0  0  0  0  0  0
   -5.7830   -1.2975    0.0193 C   0  0  0  0  0  0  0  0  0  0  0  0
   -6.4269    0.0628   -0.2480 C   0  0  2  0  0  0  0  0  0  0  0  0
   -7.6337   -0.1764   -0.9723 O   0  0  0  0  0  0  0  0  0  0  0  0
   -5.4838    1.0564   -0.9985 C   0  0  0  0  0  0  0  0  0  0  0  0
   -6.1665    2.4460   -1.0316 C   0  0  0  0  0  0  0  0  0  0  0  0
   -5.2839    0.6225   -2.4665 C   0  0  0  0  0  0  0  0  0  0  0  0
   -4.1312    1.1426   -0.2035 C   0  0  2  0  0  0  0  0  0  0  0  0
   -3.1238    2.1709   -0.7377 C   0  0  0  0  0  0  0  0  0  0  0  0
   -1.8804    2.1896    0.1475 C   0  0  0  0  0  0  0  0  0  0  0  0
   -1.0876    0.8850   -0.0037 C   0  0  1  0  0  0  0  0  0  0  0  0
    0.2240    0.8483    0.8241 C   0  0  2  0  0  0  0  0  0  0  0  0
   -0.0504    1.2746    2.3005 C   0  0  0  0  0  0  0  0  0  0  0  0
    1.3234    1.7875    0.2878 C   0  0  0  0  0  0  0  0  0  0  0  0
    2.6527    1.1616    0.7475 C   0  0  2  0  0  0  0  0  0  0  0  0
    3.5422    1.1537   -0.3636 O   0  0  0  0  0  0  0  0  0  0  0  0
    4.8354    0.6000   -0.0881 C   0  0  2  0  0  0  0  0  0  0  0  0
    4.8186   -0.4596    1.0183 C   0  0  0  0  0  0  0  0  0  0  0  0
    3.5009   -1.2528    1.0005 C   0  0  1  0  0  0  0  0  0  0  0  0
    3.5721   -2.3554    2.0584 C   0  0  0  0  0  0  0  0  0  0  0  0
    2.3311   -0.2741    1.2542 C   0  0  2  0  0  0  0  0  0  0  0  0
    0.9064   -0.5630    0.6605 C   0  0  1  0  0  0  0  0  0  0  0  0
    1.0471   -1.0144   -0.8285 C   0  0  0  0  0  0  0  0  0  0  0  0
    5.8171    1.7625    0.2132 C   0  0  0  0  0  0  0  0  0  0  0  0
    6.1883    2.2960   -1.1849 C   0  0  2  0  0  0  0  0  0  0  0  0
    5.2052    3.2363   -1.6122 O   0  0  0  0  0  0  0  0  0  0  0  0
    6.1569    1.0853   -2.0726 C   0  0  1  0  0  0  0  0  0  0  0  0
    6.2365    1.2123   -3.5484 C   0  0  0  0  0  0  0  0  0  0  0  0
    6.7628   -0.1041   -1.5352 O   0  0  0  0  0  0  0  0  0  0  0  0
    5.3410    0.0355   -1.3986 C   0  0  1  0  0  0  0  0  0  0  0  0
    0.2348   -6.0643    1.9644 H   0  0  0  0  0  0  0  0  0  0  0  0
    1.5678   -5.2737    1.0988 H   0  0  0  0  0  0  0  0  0  0  0  0
   -0.0504   -5.4266    0.3316 H   0  0  0  0  0  0  0  0  0  0  0  0
    0.2873   -1.5138    2.5001 H   0  0  0  0  0  0  0  0  0  0  0  0
   -1.9293   -2.3694    1.0269 H   0  0  0  0  0  0  0  0  0  0  0  0
   -1.8968   -1.1068    2.2275 H   0  0  0  0  0  0  0  0  0  0  0  0
   -2.7087   -1.9766   -1.1594 H   0  0  0  0  0  0  0  0  0  0  0  0
   -2.4839   -0.3920   -1.9702 H   0  0  0  0  0  0  0  0  0  0  0  0
   -4.0543   -2.1674    0.9083 H   0  0  0  0  0  0  0  0  0  0  0  0
   -4.6428   -0.7535    1.7730 H   0  0  0  0  0  0  0  0  0  0  0  0
   -5.6292   -1.8345   -0.9248 H   0  0  0  0  0  0  0  0  0  0  0  0
   -6.4755   -1.9219    0.5978 H   0  0  0  0  0  0  0  0  0  0  0  0
   -6.7151    0.4954    0.7195 H   0  0  0  0  0  0  0  0  0  0  0  0
   -8.1727    0.6307   -0.9305 H   0  0  0  0  0  0  0  0  0  0  0  0
   -5.5787    3.1741   -1.6000 H   0  0  0  0  0  0  0  0  0  0  0  0
   -7.1504    2.4041   -1.5109 H   0  0  0  0  0  0  0  0  0  0  0  0
   -6.3063    2.8410   -0.0193 H   0  0  0  0  0  0  0  0  0  0  0  0
   -6.2358    0.6152   -3.0100 H   0  0  0  0  0  0  0  0  0  0  0  0
   -4.8615   -0.3816   -2.5512 H   0  0  0  0  0  0  0  0  0  0  0  0
   -4.6213    1.3092   -3.0028 H   0  0  0  0  0  0  0  0  0  0  0  0
   -4.3967    1.4994    0.8047 H   0  0  0  0  0  0  0  0  0  0  0  0
   -2.8391    1.9623   -1.7742 H   0  0  0  0  0  0  0  0  0  0  0  0
   -3.5621    3.1742   -0.7212 H   0  0  0  0  0  0  0  0  0  0  0  0
   -2.1942    2.3501    1.1849 H   0  0  0  0  0  0  0  0  0  0  0  0
   -1.2514    3.0409   -0.1376 H   0  0  0  0  0  0  0  0  0  0  0  0
   -0.7883    0.8594   -1.0613 H   0  0  0  0  0  0  0  0  0  0  0  0
   -0.8837    0.7327    2.7517 H   0  0  0  0  0  0  0  0  0  0  0  0
    0.8122    1.1421    2.9577 H   0  0  0  0  0  0  0  0  0  0  0  0
   -0.3003    2.3404    2.3592 H   0  0  0  0  0  0  0  0  0  0  0  0
    1.2867    1.8733   -0.8050 H   0  0  0  0  0  0  0  0  0  0  0  0
    1.2250    2.8092    0.6726 H   0  0  0  0  0  0  0  0  0  0  0  0
    3.0892    1.7654    1.5529 H   0  0  0  0  0  0  0  0  0  0  0  0
    4.9199    0.0279    1.9979 H   0  0  0  0  0  0  0  0  0  0  0  0
    5.6793   -1.1329    0.9193 H   0  0  0  0  0  0  0  0  0  0  0  0
    3.4171   -1.7323    0.0222 H   0  0  0  0  0  0  0  0  0  0  0  0
    4.4188   -3.0226    1.8629 H   0  0  0  0  0  0  0  0  0  0  0  0
    2.6718   -2.9678    2.0645 H   0  0  0  0  0  0  0  0  0  0  0  0
    3.7022   -1.9382    3.0629 H   0  0  0  0  0  0  0  0  0  0  0  0
    2.2253   -0.2030    2.3443 H   0  0  0  0  0  0  0  0  0  0  0  0
    1.5823   -0.2858   -1.4432 H   0  0  0  0  0  0  0  0  0  0  0  0
    1.5869   -1.9620   -0.9188 H   0  0  0  0  0  0  0  0  0  0  0  0
    0.0811   -1.1905   -1.3064 H   0  0  0  0  0  0  0  0  0  0  0  0
    6.7191    1.3783    0.7053 H   0  0  0  0  0  0  0  0  0  0  0  0
    5.3645    2.5382    0.8388 H   0  0  0  0  0  0  0  0  0  0  0  0
    7.1652    2.7879   -1.1832 H   0  0  0  0  0  0  0  0  0  0  0  0
    4.3352    2.8062   -1.4899 H   0  0  0  0  0  0  0  0  0  0  0  0
    5.3743    1.7632   -3.9371 H   0  0  0  0  0  0  0  0  0  0  0  0
    6.2555    0.2334   -4.0392 H   0  0  0  0  0  0  0  0  0  0  0  0
    7.1451    1.7502   -3.8365 H   0  0  0  0  0  0  0  0  0  0  0  0
    4.6732   -0.6029   -1.9530 H   0  0  0  0  0  0  0  0  0  0  0  0
  1  2  1  0
  2  3  2  0
  2  4  1  0
  4  5  1  0
  5  6  1  0
  7  6  1  1
  7  8  1  0
  9  8  1  6
  9 10  1  0
 10 11  1  0
 11 12  1  0
 12 13  1  0
 12 14  1  0
 14 15  1  0
 14 16  1  0
 14 17  1  0
 17 18  1  0
 18 19  1  0
 19 20  1  0
 20 21  1  0
 21 22  1  1
 21 23  1  0
 23 24  1  0
 24 25  1  0
 26 25  1  6
 26 27  1  0
 27 28  1  0
 28 29  1  0
 28 30  1  0
 30 31  1  0
 31 32  1  6
 26 33  1  0
 33 34  1  0
 34 35  1  0
 34 36  1  0
 36 37  1  6
 36 38  1  0
 38 39  1  0
 31  5  1  0
 39 36  1  0
  9  7  1  0
 31 21  1  0
 20  7  1  0
 30 24  1  0
 17  9  1  0
 39 26  1  0
  1 40  1  0
  1 41  1  0
  1 42  1  0
  5 43  1  1
  6 44  1  0
  6 45  1  0
  8 46  1  0
  8 47  1  0
 10 48  1  0
 10 49  1  0
 11 50  1  0
 11 51  1  0
 12 52  1  1
 13 53  1  0
 15 54  1  0
 15 55  1  0
 15 56  1  0
 16 57  1  0
 16 58  1  0
 16 59  1  0
 17 60  1  1
 18 61  1  0
 18 62  1  0
 19 63  1  0
 19 64  1  0
 20 65  1  6
 22 66  1  0
 22 67  1  0
 22 68  1  0
 23 69  1  0
 23 70  1  0
 24 71  1  1
 27 72  1  0
 27 73  1  0
 28 74  1  6
 29 75  1  0
 29 76  1  0
 29 77  1  0
 30 78  1  1
 32 79  1  0
 32 80  1  0
 32 81  1  0
 33 82  1  0
 33 83  1  0
 34 84  1  1
 35 85  1  0
 37 86  1  0
 37 87  1  0
 37 88  1  0
 39 89  1  6
M  END
$$$$
