
     RDKit          3D

 41 43  0  0  0  0  0  0  0  0999 V2000
    1.5142    3.3199    0.6266 O   0  0  0  0  0  0  0  0  0  0  0  0
    1.9028    2.1576    0.7266 C   0  0  0  0  0  0  0  0  0  0  0  0
    2.5855    1.6698    1.9970 C   0  0  0  0  0  0  0  0  0  0  0  0
    2.8499    0.1729    2.0099 C   0  0  0  0  0  0  0  0  0  0  0  0
    1.7438   -0.4630    1.2283 C   0  0  0  0  0  0  0  0  0  0  0  0
    1.1496   -1.7338    1.6850 C   0  0  0  0  0  0  0  0  0  0  0  0
    1.2835   -2.7793    0.7630 C   0  0  0  0  0  0  0  0  0  0  0  0
    0.1409   -3.4509    0.3626 C   0  0  0  0  0  0  0  0  0  0  0  0
   -1.0775   -3.0192    0.8878 C   0  0  0  0  0  0  0  0  0  0  0  0
   -2.1849   -3.0311    0.0638 O   0  0  0  0  0  0  0  0  0  0  0  0
   -2.0012   -1.9832   -0.9124 C   0  0  0  0  0  0  0  0  0  0  0  0
   -1.9559   -0.5079   -0.4275 C   0  0  0  0  0  0  0  0  0  0  0  0
   -2.7354   -0.0788    0.4169 O   0  0  0  0  0  0  0  0  0  0  0  0
   -1.0484    0.4983   -1.0003 N   0  0  0  0  0  0  0  0  0  0  0  0
   -1.3960    1.9251   -0.6724 C   0  0  0  0  0  0  0  0  0  0  0  0
   -0.8419    2.7260   -1.8352 C   0  0  0  0  0  0  0  0  0  0  0  0
   -1.0588    1.7959   -3.0081 C   0  0  0  0  0  0  0  0  0  0  0  0
   -0.7321    0.4218   -2.4494 C   0  0  0  0  0  0  0  0  0  0  0  0
   -1.1600   -2.2372    2.0398 C   0  0  0  0  0  0  0  0  0  0  0  0
   -0.0170   -1.5628    2.4404 C   0  0  0  0  0  0  0  0  0  0  0  0
    1.2242    0.0695    0.1506 N   0  0  0  0  0  0  0  0  0  0  0  0
    1.7950    1.2291   -0.2343 N   0  0  0  0  0  0  0  0  0  0  0  0
    1.9183    1.9225    2.8308 H   0  0  0  0  0  0  0  0  0  0  0  0
    3.5218    2.2212    2.1336 H   0  0  0  0  0  0  0  0  0  0  0  0
    2.9023   -0.2156    3.0310 H   0  0  0  0  0  0  0  0  0  0  0  0
    3.7956   -0.0561    1.5053 H   0  0  0  0  0  0  0  0  0  0  0  0
    2.1943   -2.8736    0.1751 H   0  0  0  0  0  0  0  0  0  0  0  0
    0.1755   -4.1062   -0.5028 H   0  0  0  0  0  0  0  0  0  0  0  0
   -1.1231   -2.1931   -1.5350 H   0  0  0  0  0  0  0  0  0  0  0  0
   -2.8633   -2.0438   -1.5878 H   0  0  0  0  0  0  0  0  0  0  0  0
   -0.1131    0.3485   -0.4941 H   0  0  0  0  0  0  0  0  0  0  0  0
   -2.4881    2.0219   -0.6595 H   0  0  0  0  0  0  0  0  0  0  0  0
   -0.9860    2.1913    0.3045 H   0  0  0  0  0  0  0  0  0  0  0  0
   -1.3579    3.6824   -1.9599 H   0  0  0  0  0  0  0  0  0  0  0  0
    0.2236    2.9359   -1.7111 H   0  0  0  0  0  0  0  0  0  0  0  0
   -0.4360    2.0518   -3.8701 H   0  0  0  0  0  0  0  0  0  0  0  0
   -2.1073    1.8309   -3.3285 H   0  0  0  0  0  0  0  0  0  0  0  0
   -1.3339   -0.3512   -2.9352 H   0  0  0  0  0  0  0  0  0  0  0  0
    0.3297    0.1784   -2.5534 H   0  0  0  0  0  0  0  0  0  0  0  0
   -2.1256   -1.9532    2.4514 H   0  0  0  0  0  0  0  0  0  0  0  0
   -0.1071   -0.7305    3.1354 H   0  0  0  0  0  0  0  0  0  0  0  0
  1  2  2  0
  2  3  1  0
  3  4  1  0
  4  5  1  0
  5  6  1  0
  6  7  2  0
  7  8  1  0
  8  9  2  0
  9 10  1  0
 10 11  1  0
 11 12  1  0
 12 13  2  0
 12 14  1  0
 14 15  1  0
 15 16  1  0
 16 17  1  0
 17 18  1  0
  9 19  1  0
 19 20  2  0
  5 21  2  0
 21 22  1  0
 22  2  1  0
 20  6  1  0
 18 14  1  0
  3 23  1  0
  3 24  1  0
  4 25  1  0
  4 26  1  0
  7 27  1  0
  8 28  1  0
 11 29  1  0
 11 30  1  0
 14 31  1  0
 15 32  1  0
 15 33  1  0
 16 34  1  0
 16 35  1  0
 17 36  1  0
 17 37  1  0
 18 38  1  0
 18 39  1  0
 19 40  1  0
 20 41  1  0
M  CHG  2  14   1  22  -1
M  END
$$$$
