
     RDKit          3D

 57 60  0  0  0  0  0  0  0  0999 V2000
    2.9202    0.7742   -1.4490 O   0  0  0  0  0  0  0  0  0  0  0  0
    3.3785    0.1173   -0.5211 C   0  0  0  0  0  0  0  0  0  0  0  0
    4.6846    0.1303   -0.0663 N   0  0  0  0  0  0  0  0  0  0  0  0
    5.7768    0.8244   -0.6329 C   0  0  0  0  0  0  0  0  0  0  0  0
    7.0020    0.7433    0.0410 C   0  0  0  0  0  0  0  0  0  0  0  0
    8.1335    1.3999   -0.4532 C   0  0  0  0  0  0  0  0  0  0  0  0
    8.0540    2.1451   -1.6304 C   0  0  0  0  0  0  0  0  0  0  0  0
    9.4875    2.9322   -2.1837 Cl  0  0  0  0  0  0  0  0  0  0  0  0
    6.8370    2.2280   -2.3122 C   0  0  0  0  0  0  0  0  0  0  0  0
    6.6608    3.1292   -3.7776 Cl  0  0  0  0  0  0  0  0  0  0  0  0
    5.7051    1.5677   -1.8138 C   0  0  0  0  0  0  0  0  0  0  0  0
    2.4380   -0.7580    0.2381 C   0  0  0  0  0  0  0  0  0  0  0  0
    1.0878   -0.3713    0.2958 C   0  0  0  0  0  0  0  0  0  0  0  0
    0.1114   -1.1378    0.9506 C   0  0  0  0  0  0  0  0  0  0  0  0
   -1.2235   -0.7463    0.9752 N   0  0  0  0  0  0  0  0  0  0  0  0
   -2.2951   -1.7179    1.1866 C   0  0  0  0  0  0  0  0  0  0  0  0
   -3.4738   -1.3499    0.2914 C   0  0  0  0  0  0  0  0  0  0  0  0
   -3.9957    0.0696    0.5655 C   0  0  0  0  0  0  0  0  0  0  0  0
   -4.3891    0.7151   -0.7683 N   0  0  0  0  0  0  0  0  0  0  0  0
   -5.4480   -0.0553   -1.5603 C   0  0  0  0  0  0  0  0  0  0  0  0
   -6.4895    0.9756   -1.9584 C   0  0  0  0  0  0  0  0  0  0  0  0
   -5.7467    2.2918   -1.9249 C   0  0  0  0  0  0  0  0  0  0  0  0
   -4.8827    2.1485   -0.6920 C   0  0  0  0  0  0  0  0  0  0  0  0
   -2.9830    0.9300    1.3291 C   0  0  0  0  0  0  0  0  0  0  0  0
   -1.5561    0.6742    0.8650 C   0  0  0  0  0  0  0  0  0  0  0  0
    0.5567   -2.3169    1.5682 C   0  0  0  0  0  0  0  0  0  0  0  0
    1.9033   -2.7334    1.5248 C   0  0  0  0  0  0  0  0  0  0  0  0
    2.3134   -4.0338    2.1747 C   0  0  0  0  0  0  0  0  0  0  0  0
    3.6278   -4.0560    2.5267 F   0  0  0  0  0  0  0  0  0  0  0  0
    2.1202   -5.0999    1.3538 F   0  0  0  0  0  0  0  0  0  0  0  0
    1.6146   -4.2988    3.3120 F   0  0  0  0  0  0  0  0  0  0  0  0
    2.8408   -1.9514    0.8379 C   0  0  0  0  0  0  0  0  0  0  0  0
    4.8874   -0.3730    0.7878 H   0  0  0  0  0  0  0  0  0  0  0  0
    7.0991    0.1718    0.9614 H   0  0  0  0  0  0  0  0  0  0  0  0
    9.0753    1.3256    0.0864 H   0  0  0  0  0  0  0  0  0  0  0  0
    4.7792    1.6488   -2.3742 H   0  0  0  0  0  0  0  0  0  0  0  0
    0.8102    0.5465   -0.2180 H   0  0  0  0  0  0  0  0  0  0  0  0
   -2.5883   -1.7362    2.2427 H   0  0  0  0  0  0  0  0  0  0  0  0
   -1.9884   -2.7329    0.9081 H   0  0  0  0  0  0  0  0  0  0  0  0
   -4.2829   -2.0747    0.4417 H   0  0  0  0  0  0  0  0  0  0  0  0
   -3.1526   -1.4538   -0.7536 H   0  0  0  0  0  0  0  0  0  0  0  0
   -4.9251    0.0211    1.1466 H   0  0  0  0  0  0  0  0  0  0  0  0
   -3.5457    0.7286   -1.3609 H   0  0  0  0  0  0  0  0  0  0  0  0
   -5.8768   -0.8447   -0.9367 H   0  0  0  0  0  0  0  0  0  0  0  0
   -4.9367   -0.4860   -2.4267 H   0  0  0  0  0  0  0  0  0  0  0  0
   -6.9267    0.7635   -2.9383 H   0  0  0  0  0  0  0  0  0  0  0  0
   -7.3047    0.9838   -1.2246 H   0  0  0  0  0  0  0  0  0  0  0  0
   -6.4193    3.1518   -1.8638 H   0  0  0  0  0  0  0  0  0  0  0  0
   -5.1242    2.4042   -2.8205 H   0  0  0  0  0  0  0  0  0  0  0  0
   -4.0186    2.8179   -0.6965 H   0  0  0  0  0  0  0  0  0  0  0  0
   -5.4655    2.2556    0.2291 H   0  0  0  0  0  0  0  0  0  0  0  0
   -3.2102    1.9984    1.2726 H   0  0  0  0  0  0  0  0  0  0  0  0
   -3.0524    0.6746    2.3957 H   0  0  0  0  0  0  0  0  0  0  0  0
   -1.4459    1.0052   -0.1746 H   0  0  0  0  0  0  0  0  0  0  0  0
   -0.8824    1.2762    1.4875 H   0  0  0  0  0  0  0  0  0  0  0  0
   -0.1436   -2.9405    2.1227 H   0  0  0  0  0  0  0  0  0  0  0  0
    3.8679   -2.3017    0.7567 H   0  0  0  0  0  0  0  0  0  0  0  0
  1  2  2  0
  2  3  1  0
  3  4  1  0
  4  5  2  0
  5  6  1  0
  6  7  2  0
  7  8  1  0
  7  9  1  0
  9 10  1  0
  9 11  2  0
  2 12  1  0
 12 13  2  0
 13 14  1  0
 14 15  1  0
 15 16  1  0
 16 17  1  0
 17 18  1  0
 18 19  1  0
 19 20  1  0
 20 21  1  0
 21 22  1  0
 22 23  1  0
 18 24  1  0
 24 25  1  0
 14 26  2  0
 26 27  1  0
 27 28  1  0
 28 29  1  0
 28 30  1  0
 28 31  1  0
 27 32  2  0
 11  4  1  0
 32 12  1  0
 25 15  1  0
 23 19  1  0
  3 33  1  0
  5 34  1  0
  6 35  1  0
 11 36  1  0
 13 37  1  0
 16 38  1  0
 16 39  1  0
 17 40  1  0
 17 41  1  0
 18 42  1  0
 19 43  1  0
 20 44  1  0
 20 45  1  0
 21 46  1  0
 21 47  1  0
 22 48  1  0
 22 49  1  0
 23 50  1  0
 23 51  1  0
 24 52  1  0
 24 53  1  0
 25 54  1  0
 25 55  1  0
 26 56  1  0
 32 57  1  0
M  CHG  1  19   1
M  END
$$$$
