
     RDKit          3D

 65 69  0  0  0  0  0  0  0  0999 V2000
    7.1968    3.4279   -1.0587 C   0  0  0  0  0  0  0  0  0  0  0  0
    6.0441    2.5960   -0.9964 O   0  0  0  0  0  0  0  0  0  0  0  0
    6.2000    1.3399   -0.4521 C   0  0  0  0  0  0  0  0  0  0  0  0
    7.4107    0.8120    0.0111 C   0  0  0  0  0  0  0  0  0  0  0  0
    7.4637   -0.4811    0.5463 C   0  0  0  0  0  0  0  0  0  0  0  0
    8.5990   -1.0797    1.0224 O   0  0  0  0  0  0  0  0  0  0  0  0
    9.8111   -0.3365    0.9962 C   0  0  0  0  0  0  0  0  0  0  0  0
    6.2957   -1.2562    0.6165 C   0  0  0  0  0  0  0  0  0  0  0  0
    6.3353   -2.6539    1.1864 C   0  0  0  0  0  0  0  0  0  0  0  0
    6.7474   -2.6908    2.4854 F   0  0  0  0  0  0  0  0  0  0  0  0
    5.1198   -3.2760    1.1796 F   0  0  0  0  0  0  0  0  0  0  0  0
    7.1652   -3.4884    0.4981 F   0  0  0  0  0  0  0  0  0  0  0  0
    5.0805   -0.7205    0.1491 C   0  0  0  0  0  0  0  0  0  0  0  0
    5.0231    0.5683   -0.3809 C   0  0  0  0  0  0  0  0  0  0  0  0
    3.8402    1.1665   -0.8700 N   0  0  0  0  0  0  0  0  0  0  0  0
    2.5523    0.6613   -0.8709 C   0  0  0  0  0  0  0  0  0  0  0  0
    2.2243   -0.4110   -0.3802 O   0  0  0  0  0  0  0  0  0  0  0  0
    1.6903    1.5377   -1.5143 N   0  0  0  0  0  0  0  0  0  0  0  0
    0.2888    1.4320   -1.6429 C   0  0  0  0  0  0  0  0  0  0  0  0
   -0.3498    2.3737   -2.4578 C   0  0  0  0  0  0  0  0  0  0  0  0
   -1.7331    2.3383   -2.6330 C   0  0  0  0  0  0  0  0  0  0  0  0
   -2.4905    1.3572   -1.9945 C   0  0  0  0  0  0  0  0  0  0  0  0
   -1.8780    0.3988   -1.1748 C   0  0  0  0  0  0  0  0  0  0  0  0
   -2.7113   -0.6260   -0.4955 C   0  0  0  0  0  0  0  0  0  0  0  0
   -2.2489   -1.8869   -0.3559 C   0  0  0  0  0  0  0  0  0  0  0  0
   -3.0537   -2.8136    0.2696 N   0  0  0  0  0  0  0  0  0  0  0  0
   -2.8802   -4.1381    0.5638 C   0  0  0  0  0  0  0  0  0  0  0  0
   -4.0450   -4.5195    1.1972 C   0  0  0  0  0  0  0  0  0  0  0  0
   -4.9269   -3.4688    1.2970 N   0  0  0  0  0  0  0  0  0  0  0  0
   -4.2918   -2.4637    0.7289 C   0  0  0  0  0  0  0  0  0  0  0  0
   -4.7543   -1.0997    0.5482 C   0  0  0  0  0  0  0  0  0  0  0  0
   -5.9951   -0.7225    0.9979 N   0  0  0  0  0  0  0  0  0  0  0  0
   -6.5240    0.6079    0.8868 C   0  0  0  0  0  0  0  0  0  0  0  0
   -7.9060    0.6533    1.4846 C   0  0  0  0  0  0  0  0  0  0  0  0
   -8.0901    0.9482    2.8388 C   0  0  0  0  0  0  0  0  0  0  0  0
   -9.3791    0.9530    3.3479 C   0  0  0  0  0  0  0  0  0  0  0  0
  -10.4782    0.6818    2.6125 N   0  0  0  0  0  0  0  0  0  0  0  0
  -10.2786    0.3837    1.3112 C   0  0  0  0  0  0  0  0  0  0  0  0
   -9.0305    0.3532    0.7097 C   0  0  0  0  0  0  0  0  0  0  0  0
   -3.9720   -0.2310   -0.0526 N   0  0  0  0  0  0  0  0  0  0  0  0
   -0.4834    0.4616   -0.9965 C   0  0  0  0  0  0  0  0  0  0  0  0
    7.5918    3.6312   -0.0580 H   0  0  0  0  0  0  0  0  0  0  0  0
    6.8944    4.3838   -1.4971 H   0  0  0  0  0  0  0  0  0  0  0  0
    7.9625    2.9918   -1.7085 H   0  0  0  0  0  0  0  0  0  0  0  0
    8.3133    1.4059   -0.0459 H   0  0  0  0  0  0  0  0  0  0  0  0
   10.5983   -0.9661    1.4221 H   0  0  0  0  0  0  0  0  0  0  0  0
   10.1001   -0.0910   -0.0309 H   0  0  0  0  0  0  0  0  0  0  0  0
    9.7346    0.5646    1.6135 H   0  0  0  0  0  0  0  0  0  0  0  0
    4.1882   -1.3386    0.2090 H   0  0  0  0  0  0  0  0  0  0  0  0
    3.9814    2.1057   -1.2174 H   0  0  0  0  0  0  0  0  0  0  0  0
    2.1207    2.3096   -1.9986 H   0  0  0  0  0  0  0  0  0  0  0  0
    0.2176    3.1463   -2.9694 H   0  0  0  0  0  0  0  0  0  0  0  0
   -2.2232    3.0735   -3.2657 H   0  0  0  0  0  0  0  0  0  0  0  0
   -3.5693    1.3409   -2.1377 H   0  0  0  0  0  0  0  0  0  0  0  0
   -1.2846   -2.2307   -0.7072 H   0  0  0  0  0  0  0  0  0  0  0  0
   -1.9783   -4.6763    0.3110 H   0  0  0  0  0  0  0  0  0  0  0  0
   -4.2943   -5.4985    1.5871 H   0  0  0  0  0  0  0  0  0  0  0  0
   -6.5507   -1.4366    1.4587 H   0  0  0  0  0  0  0  0  0  0  0  0
   -6.5688    0.9190   -0.1641 H   0  0  0  0  0  0  0  0  0  0  0  0
   -5.8751    1.3250    1.4040 H   0  0  0  0  0  0  0  0  0  0  0  0
   -7.2482    1.1660    3.4882 H   0  0  0  0  0  0  0  0  0  0  0  0
   -9.5665    1.1790    4.3938 H   0  0  0  0  0  0  0  0  0  0  0  0
  -11.1780    0.1589    0.7450 H   0  0  0  0  0  0  0  0  0  0  0  0
   -8.9390    0.0956   -0.3405 H   0  0  0  0  0  0  0  0  0  0  0  0
   -0.0147   -0.2476   -0.3223 H   0  0  0  0  0  0  0  0  0  0  0  0
  1  2  1  0
  2  3  1  0
  3  4  2  0
  4  5  1  0
  5  6  1  0
  6  7  1  0
  5  8  2  0
  8  9  1  0
  9 10  1  0
  9 11  1  0
  9 12  1  0
  8 13  1  0
 13 14  2  0
 14 15  1  0
 15 16  1  0
 16 17  2  0
 16 18  1  0
 18 19  1  0
 19 20  2  0
 20 21  1  0
 21 22  2  0
 22 23  1  0
 23 24  1  0
 24 25  2  0
 25 26  1  0
 26 27  1  0
 27 28  2  0
 28 29  1  0
 29 30  2  0
 30 31  1  0
 31 32  1  0
 32 33  1  0
 33 34  1  0
 34 35  2  0
 35 36  1  0
 36 37  2  0
 37 38  1  0
 38 39  2  0
 31 40  2  0
 23 41  2  0
 14  3  1  0
 41 19  1  0
 40 24  1  0
 30 26  1  0
 39 34  1  0
  1 42  1  0
  1 43  1  0
  1 44  1  0
  4 45  1  0
  7 46  1  0
  7 47  1  0
  7 48  1  0
 13 49  1  0
 15 50  1  0
 18 51  1  0
 20 52  1  0
 21 53  1  0
 22 54  1  0
 25 55  1  0
 27 56  1  0
 28 57  1  0
 32 58  1  0
 33 59  1  0
 33 60  1  0
 35 61  1  0
 36 62  1  0
 38 63  1  0
 39 64  1  0
 41 65  1  0
M  END
$$$$
