
     RDKit          3D

 48 50  0  0  0  0  0  0  0  0999 V2000
    9.4585    1.3919    0.6831 N   0  0  0  0  0  0  0  0  0  0  0  0
    8.1540    1.0503    0.3814 C   0  0  0  0  0  0  0  0  0  0  0  0
    7.3482    1.9060   -0.3676 C   0  0  0  0  0  0  0  0  0  0  0  0
    6.0151    1.5770   -0.6411 C   0  0  0  0  0  0  0  0  0  0  0  0
    5.4598    0.3868   -0.1589 C   0  0  0  0  0  0  0  0  0  0  0  0
    4.1091    0.1299   -0.4734 N   0  0  0  0  0  0  0  0  0  0  0  0
    3.3727   -0.9963   -0.1538 C   0  0  0  0  0  0  0  0  0  0  0  0
    3.7796   -2.0156    0.3901 O   0  0  0  0  0  0  0  0  0  0  0  0
    1.9421   -0.9436   -0.5672 C   0  0  0  0  0  0  0  0  0  0  0  0
    1.1936    0.2365   -0.4795 C   0  0  0  0  0  0  0  0  0  0  0  0
   -0.1480    0.2421   -0.8713 C   0  0  0  0  0  0  0  0  0  0  0  0
   -0.7557   -0.9268   -1.3533 C   0  0  0  0  0  0  0  0  0  0  0  0
   -2.2105   -0.9234   -1.7402 C   0  0  0  0  0  0  0  0  0  0  0  0
   -3.0451   -1.1829   -0.5990 N   0  0  0  0  0  0  0  0  0  0  0  0
   -4.3991   -1.1093   -0.6694 C   0  0  0  0  0  0  0  0  0  0  0  0
   -5.0353   -0.8250   -1.6724 O   0  0  0  0  0  0  0  0  0  0  0  0
   -4.9233   -1.3973    0.5439 O   0  0  0  0  0  0  0  0  0  0  0  0
   -6.3513   -1.3273    0.6284 C   0  0  0  0  0  0  0  0  0  0  0  0
   -6.7614    0.0112    1.1679 C   0  0  0  0  0  0  0  0  0  0  0  0
   -6.7407    0.2857    2.5381 C   0  0  0  0  0  0  0  0  0  0  0  0
   -7.1139    1.5464    2.9947 C   0  0  0  0  0  0  0  0  0  0  0  0
   -7.4899    2.4971    2.0608 C   0  0  0  0  0  0  0  0  0  0  0  0
   -7.5108    2.2741    0.7298 N   0  0  0  0  0  0  0  0  0  0  0  0
   -7.1406    1.0412    0.3132 C   0  0  0  0  0  0  0  0  0  0  0  0
   -0.0071   -2.1107   -1.4114 C   0  0  0  0  0  0  0  0  0  0  0  0
    1.3332   -2.1197   -1.0189 C   0  0  0  0  0  0  0  0  0  0  0  0
    6.2584   -0.4595    0.6078 C   0  0  0  0  0  0  0  0  0  0  0  0
    7.5920   -0.1249    0.8788 C   0  0  0  0  0  0  0  0  0  0  0  0
   10.0554    0.7343    1.1660 H   0  0  0  0  0  0  0  0  0  0  0  0
    9.8865    2.2032    0.2598 H   0  0  0  0  0  0  0  0  0  0  0  0
    7.7505    2.8406   -0.7486 H   0  0  0  0  0  0  0  0  0  0  0  0
    5.4244    2.2688   -1.2348 H   0  0  0  0  0  0  0  0  0  0  0  0
    3.6493    0.8372   -1.0309 H   0  0  0  0  0  0  0  0  0  0  0  0
    1.6277    1.1480   -0.0774 H   0  0  0  0  0  0  0  0  0  0  0  0
   -0.7250    1.1619   -0.7866 H   0  0  0  0  0  0  0  0  0  0  0  0
   -2.4921    0.0416   -2.1785 H   0  0  0  0  0  0  0  0  0  0  0  0
   -2.4140   -1.6871   -2.5002 H   0  0  0  0  0  0  0  0  0  0  0  0
   -2.6405   -1.4318    0.2925 H   0  0  0  0  0  0  0  0  0  0  0  0
   -6.6755   -2.1154    1.3184 H   0  0  0  0  0  0  0  0  0  0  0  0
   -6.8441   -1.5489   -0.3265 H   0  0  0  0  0  0  0  0  0  0  0  0
   -6.4328   -0.4760    3.2499 H   0  0  0  0  0  0  0  0  0  0  0  0
   -7.1092    1.7828    4.0526 H   0  0  0  0  0  0  0  0  0  0  0  0
   -7.7904    3.4949    2.3672 H   0  0  0  0  0  0  0  0  0  0  0  0
   -7.1546    0.9031   -0.7660 H   0  0  0  0  0  0  0  0  0  0  0  0
   -0.4648   -3.0358   -1.7572 H   0  0  0  0  0  0  0  0  0  0  0  0
    1.9034   -3.0460   -1.0642 H   0  0  0  0  0  0  0  0  0  0  0  0
    5.8762   -1.3880    1.0196 H   0  0  0  0  0  0  0  0  0  0  0  0
    8.1859   -0.8019    1.4872 H   0  0  0  0  0  0  0  0  0  0  0  0
  1  2  1  0
  2  3  2  0
  3  4  1  0
  4  5  2  0
  5  6  1  0
  6  7  1  0
  7  8  2  0
  7  9  1  0
  9 10  2  0
 10 11  1  0
 11 12  2  0
 12 13  1  0
 13 14  1  0
 14 15  1  0
 15 16  2  0
 15 17  1  0
 17 18  1  0
 18 19  1  0
 19 20  2  0
 20 21  1  0
 21 22  2  0
 22 23  1  0
 23 24  2  0
 12 25  1  0
 25 26  2  0
  5 27  1  0
 27 28  2  0
 28  2  1  0
 26  9  1  0
 24 19  1  0
  1 29  1  0
  1 30  1  0
  3 31  1  0
  4 32  1  0
  6 33  1  0
 10 34  1  0
 11 35  1  0
 13 36  1  0
 13 37  1  0
 14 38  1  0
 18 39  1  0
 18 40  1  0
 20 41  1  0
 21 42  1  0
 22 43  1  0
 24 44  1  0
 25 45  1  0
 26 46  1  0
 27 47  1  0
 28 48  1  0
M  END
$$$$
