
     RDKit          3D

 33 35  0  0  0  0  0  0  0  0999 V2000
   -2.3320    3.0836   -0.6865 C   0  0  0  0  0  0  0  0  0  0  0  0
   -3.1448    1.9240   -0.5635 O   0  0  0  0  0  0  0  0  0  0  0  0
   -2.5196    0.7125   -0.4182 C   0  0  0  0  0  0  0  0  0  0  0  0
   -1.1312    0.5409   -0.3600 C   0  0  0  0  0  0  0  0  0  0  0  0
   -0.5842   -0.7397   -0.1977 C   0  0  0  0  0  0  0  0  0  0  0  0
   -1.4186   -1.8638   -0.1469 C   0  0  0  0  0  0  0  0  0  0  0  0
   -2.8049   -1.6987   -0.1875 C   0  0  0  0  0  0  0  0  0  0  0  0
   -3.3498   -0.4183   -0.3210 C   0  0  0  0  0  0  0  0  0  0  0  0
   -5.0732   -0.2780   -0.3733 Cl  0  0  0  0  0  0  0  0  0  0  0  0
   -0.7846   -3.2200   -0.0236 C   0  0  0  0  0  0  0  0  0  0  0  0
    0.5322   -3.2220   -0.7955 C   0  0  0  0  0  0  0  0  0  0  0  0
    1.4239   -2.1376   -0.3630 N   0  0  0  0  0  0  0  0  0  0  0  0
    0.8879   -0.9885   -0.0975 C   0  0  0  0  0  0  0  0  0  0  0  0
    1.7999    0.1009    0.3450 C   0  0  0  0  0  0  0  0  0  0  0  0
    2.9750    0.3345   -0.3807 C   0  0  0  0  0  0  0  0  0  0  0  0
    3.8514    1.3422    0.0235 C   0  0  0  0  0  0  0  0  0  0  0  0
    3.5541    2.0958    1.1545 C   0  0  0  0  0  0  0  0  0  0  0  0
    4.3957    3.0628    1.5418 F   0  0  0  0  0  0  0  0  0  0  0  0
    2.4005    1.8569    1.8957 C   0  0  0  0  0  0  0  0  0  0  0  0
    1.5200    0.8501    1.4959 C   0  0  0  0  0  0  0  0  0  0  0  0
   -1.7310    3.2413    0.2151 H   0  0  0  0  0  0  0  0  0  0  0  0
   -2.9954    3.9465   -0.7990 H   0  0  0  0  0  0  0  0  0  0  0  0
   -1.7010    3.0302   -1.5797 H   0  0  0  0  0  0  0  0  0  0  0  0
   -0.4654    1.3913   -0.4516 H   0  0  0  0  0  0  0  0  0  0  0  0
   -3.4608   -2.5640   -0.1254 H   0  0  0  0  0  0  0  0  0  0  0  0
   -1.4433   -3.9970   -0.4271 H   0  0  0  0  0  0  0  0  0  0  0  0
   -0.6109   -3.4351    1.0374 H   0  0  0  0  0  0  0  0  0  0  0  0
    0.3575   -3.1329   -1.8750 H   0  0  0  0  0  0  0  0  0  0  0  0
    1.0418   -4.1776   -0.6308 H   0  0  0  0  0  0  0  0  0  0  0  0
    3.2075   -0.2708   -1.2542 H   0  0  0  0  0  0  0  0  0  0  0  0
    4.7648    1.5372   -0.5295 H   0  0  0  0  0  0  0  0  0  0  0  0
    2.2028    2.4478    2.7846 H   0  0  0  0  0  0  0  0  0  0  0  0
    0.6356    0.6455    2.0937 H   0  0  0  0  0  0  0  0  0  0  0  0
  1  2  1  0
  2  3  1  0
  3  4  2  0
  4  5  1  0
  5  6  2  0
  6  7  1  0
  7  8  2  0
  8  9  1  0
  6 10  1  0
 10 11  1  0
 11 12  1  0
 12 13  2  0
 13 14  1  0
 14 15  2  0
 15 16  1  0
 16 17  2  0
 17 18  1  0
 17 19  1  0
 19 20  2  0
  8  3  1  0
 20 14  1  0
 13  5  1  0
  1 21  1  0
  1 22  1  0
  1 23  1  0
  4 24  1  0
  7 25  1  0
 10 26  1  0
 10 27  1  0
 11 28  1  0
 11 29  1  0
 15 30  1  0
 16 31  1  0
 19 32  1  0
 20 33  1  0
M  END
$$$$
