
     RDKit          3D

 61 64  0  0  0  0  0  0  0  0999 V2000
   -1.5706    5.0323   -0.2576 C   0  0  0  0  0  0  0  0  0  0  0  0
   -1.1802    3.9609    0.7478 C   0  0  0  0  0  0  0  0  0  0  0  0
   -1.6467    2.5753    0.2994 C   0  0  0  0  0  0  0  0  0  0  0  0
   -1.2429    1.4993    1.3163 C   0  0  0  0  0  0  0  0  0  0  0  0
   -1.6842    0.1007    0.8902 C   0  0  0  0  0  0  0  0  0  0  0  0
   -0.8495   -0.8000    0.3168 C   0  0  0  0  0  0  0  0  0  0  0  0
    0.5595   -0.4177    0.0567 C   0  0  0  0  0  0  0  0  0  0  0  0
    1.5433   -0.6221    1.0304 C   0  0  0  0  0  0  0  0  0  0  0  0
    2.8739   -0.2675    0.7796 C   0  0  0  0  0  0  0  0  0  0  0  0
    3.2599    0.3005   -0.4457 C   0  0  0  0  0  0  0  0  0  0  0  0
    4.7138    0.7111   -0.7497 C   0  0  0  0  0  0  0  0  0  0  0  0
    4.7755    2.2279   -1.0305 C   0  0  0  0  0  0  0  0  0  0  0  0
    5.7001    0.4189    0.4037 C   0  0  0  0  0  0  0  0  0  0  0  0
    5.2220   -0.0570   -1.9890 C   0  0  0  0  0  0  0  0  0  0  0  0
    2.2544    0.5005   -1.4120 C   0  0  0  0  0  0  0  0  0  0  0  0
    0.9237    0.1478   -1.1682 C   0  0  0  0  0  0  0  0  0  0  0  0
   -1.2658   -2.0813   -0.1012 N   0  0  0  0  0  0  0  0  0  0  0  0
   -0.2878   -2.9997   -0.7465 C   0  0  0  0  0  0  0  0  0  0  0  0
   -0.7401   -4.4381   -0.6491 C   0  0  0  0  0  0  0  0  0  0  0  0
   -2.1186   -4.5188   -1.2386 C   0  0  0  0  0  0  0  0  0  0  0  0
   -2.9794   -3.5862   -0.5223 N   0  0  0  0  0  0  0  0  0  0  0  0
   -2.5519   -2.4418    0.0061 C   0  0  0  0  0  0  0  0  0  0  0  0
   -3.5200   -1.5716    0.7201 C   0  0  0  0  0  0  0  0  0  0  0  0
   -4.8435   -1.9757    1.0048 C   0  0  0  0  0  0  0  0  0  0  0  0
   -5.7350   -1.1314    1.6656 C   0  0  0  0  0  0  0  0  0  0  0  0
   -5.3200    0.1284    2.0611 C   0  0  0  0  0  0  0  0  0  0  0  0
   -4.0115    0.5375    1.8073 C   0  0  0  0  0  0  0  0  0  0  0  0
   -3.0927   -0.3002    1.1456 C   0  0  0  0  0  0  0  0  0  0  0  0
   -1.1203    4.8350   -1.2357 H   0  0  0  0  0  0  0  0  0  0  0  0
   -2.6573    5.0764   -0.3819 H   0  0  0  0  0  0  0  0  0  0  0  0
   -1.2274    6.0144    0.0825 H   0  0  0  0  0  0  0  0  0  0  0  0
   -1.6200    4.2041    1.7220 H   0  0  0  0  0  0  0  0  0  0  0  0
   -0.0911    3.9653    0.8722 H   0  0  0  0  0  0  0  0  0  0  0  0
   -2.7341    2.5867    0.1623 H   0  0  0  0  0  0  0  0  0  0  0  0
   -1.2086    2.3443   -0.6792 H   0  0  0  0  0  0  0  0  0  0  0  0
   -1.6341    1.7384    2.3123 H   0  0  0  0  0  0  0  0  0  0  0  0
   -0.1580    1.5516    1.4575 H   0  0  0  0  0  0  0  0  0  0  0  0
    1.2866   -1.0515    1.9972 H   0  0  0  0  0  0  0  0  0  0  0  0
    3.5964   -0.4415    1.5738 H   0  0  0  0  0  0  0  0  0  0  0  0
    5.8056    2.5540   -1.2162 H   0  0  0  0  0  0  0  0  0  0  0  0
    4.3919    2.8026   -0.1791 H   0  0  0  0  0  0  0  0  0  0  0  0
    4.1867    2.5110   -1.9099 H   0  0  0  0  0  0  0  0  0  0  0  0
    5.4289    0.9647    1.3149 H   0  0  0  0  0  0  0  0  0  0  0  0
    5.7355   -0.6503    0.6431 H   0  0  0  0  0  0  0  0  0  0  0  0
    6.7197    0.7235    0.1382 H   0  0  0  0  0  0  0  0  0  0  0  0
    5.1605   -1.1407   -1.8339 H   0  0  0  0  0  0  0  0  0  0  0  0
    4.6447    0.1796   -2.8894 H   0  0  0  0  0  0  0  0  0  0  0  0
    6.2679    0.1902   -2.2057 H   0  0  0  0  0  0  0  0  0  0  0  0
    2.4986    0.9476   -2.3747 H   0  0  0  0  0  0  0  0  0  0  0  0
    0.1799    0.3312   -1.9409 H   0  0  0  0  0  0  0  0  0  0  0  0
    0.6847   -2.9354   -0.2493 H   0  0  0  0  0  0  0  0  0  0  0  0
   -0.1699   -2.6962   -1.7936 H   0  0  0  0  0  0  0  0  0  0  0  0
   -0.7597   -4.7521    0.4014 H   0  0  0  0  0  0  0  0  0  0  0  0
   -0.0491   -5.0977   -1.1838 H   0  0  0  0  0  0  0  0  0  0  0  0
   -2.5283   -5.5272   -1.1249 H   0  0  0  0  0  0  0  0  0  0  0  0
   -2.1300   -4.2603   -2.3025 H   0  0  0  0  0  0  0  0  0  0  0  0
   -3.9616   -3.8125   -0.4599 H   0  0  0  0  0  0  0  0  0  0  0  0
   -5.2227   -2.9572    0.7402 H   0  0  0  0  0  0  0  0  0  0  0  0
   -6.7518   -1.4580    1.8756 H   0  0  0  0  0  0  0  0  0  0  0  0
   -6.0090    0.7948    2.5768 H   0  0  0  0  0  0  0  0  0  0  0  0
   -3.7404    1.5333    2.1494 H   0  0  0  0  0  0  0  0  0  0  0  0
  1  2  1  0
  2  3  1  0
  3  4  1  0
  4  5  1  0
  5  6  2  0
  6  7  1  0
  7  8  2  0
  8  9  1  0
  9 10  2  0
 10 11  1  0
 11 12  1  0
 11 13  1  0
 11 14  1  0
 10 15  1  0
 15 16  2  0
  6 17  1  0
 17 18  1  0
 18 19  1  0
 19 20  1  0
 20 21  1  0
 21 22  2  0
 22 23  1  0
 23 24  2  0
 24 25  1  0
 25 26  2  0
 26 27  1  0
 27 28  2  0
 28  5  1  0
 16  7  1  0
 22 17  1  0
 28 23  1  0
  1 29  1  0
  1 30  1  0
  1 31  1  0
  2 32  1  0
  2 33  1  0
  3 34  1  0
  3 35  1  0
  4 36  1  0
  4 37  1  0
  8 38  1  0
  9 39  1  0
 12 40  1  0
 12 41  1  0
 12 42  1  0
 13 43  1  0
 13 44  1  0
 13 45  1  0
 14 46  1  0
 14 47  1  0
 14 48  1  0
 15 49  1  0
 16 50  1  0
 18 51  1  0
 18 52  1  0
 19 53  1  0
 19 54  1  0
 20 55  1  0
 20 56  1  0
 21 57  1  0
 24 58  1  0
 25 59  1  0
 26 60  1  0
 27 61  1  0
M  CHG  1  21   1
M  END
$$$$
