
     RDKit          3D

 82 87  0  0  0  0  0  0  0  0999 V2000
    1.9553    1.8915   -4.7540 C   0  0  0  0  0  0  0  0  0  0  0  0
    1.9534    1.6948   -3.2573 C   0  0  0  0  0  0  0  0  0  0  0  0
    2.0070    2.8348   -2.4366 C   0  0  0  0  0  0  0  0  0  0  0  0
    2.0052    2.7110   -1.0510 C   0  0  0  0  0  0  0  0  0  0  0  0
    1.9710    1.4412   -0.4757 C   0  0  0  0  0  0  0  0  0  0  0  0
    1.8194    1.3331    0.9929 C   0  0  0  0  0  0  0  0  0  0  0  0
    0.9544    2.0391    1.5124 O   0  0  0  0  0  0  0  0  0  0  0  0
    2.6226    0.3977    1.6054 N   0  0  0  0  0  0  0  0  0  0  0  0
    2.5799   -0.0098    2.9561 C   0  0  0  0  0  0  0  0  0  0  0  0
    3.4623   -1.0158    3.3605 C   0  0  0  0  0  0  0  0  0  0  0  0
    3.4447   -1.4916    4.6750 C   0  0  0  0  0  0  0  0  0  0  0  0
    2.5379   -0.9733    5.5987 C   0  0  0  0  0  0  0  0  0  0  0  0
    1.6451    0.0316    5.2134 C   0  0  0  0  0  0  0  0  0  0  0  0
    0.6488    0.6168    6.1814 C   0  0  0  0  0  0  0  0  0  0  0  0
   -0.5221    0.9541    5.5483 F   0  0  0  0  0  0  0  0  0  0  0  0
    1.0862    1.7646    6.7603 F   0  0  0  0  0  0  0  0  0  0  0  0
    0.2921   -0.2238    7.1851 F   0  0  0  0  0  0  0  0  0  0  0  0
    1.6918    0.5183    3.8939 C   0  0  0  0  0  0  0  0  0  0  0  0
    1.9443    0.2939   -1.2796 C   0  0  0  0  0  0  0  0  0  0  0  0
    1.9442    0.4007   -2.6794 C   0  0  0  0  0  0  0  0  0  0  0  0
    1.8670   -0.7320   -3.5286 N   0  0  0  0  0  0  0  0  0  0  0  0
    1.8247   -2.0442   -3.1887 C   0  0  0  0  0  0  0  0  0  0  0  0
    2.7356   -2.8860   -3.6128 N   0  0  0  0  0  0  0  0  0  0  0  0
    2.5082   -4.0535   -2.9483 C   0  0  0  0  0  0  0  0  0  0  0  0
    3.2522   -5.2426   -2.9893 C   0  0  0  0  0  0  0  0  0  0  0  0
    2.8418   -6.3267   -2.2097 C   0  0  0  0  0  0  0  0  0  0  0  0
    1.7067   -6.2304   -1.4096 C   0  0  0  0  0  0  0  0  0  0  0  0
    0.9485   -5.0539   -1.3649 C   0  0  0  0  0  0  0  0  0  0  0  0
    1.3749   -3.9621   -2.1436 C   0  0  0  0  0  0  0  0  0  0  0  0
    0.8639   -2.6848   -2.3965 N   0  0  0  0  0  0  0  0  0  0  0  0
   -0.4018   -2.1939   -1.9302 C   0  0  0  0  0  0  0  0  0  0  0  0
   -1.0216   -1.1084   -2.5221 C   0  0  0  0  0  0  0  0  0  0  0  0
   -2.2352   -0.7002   -1.9932 C   0  0  0  0  0  0  0  0  0  0  0  0
   -2.8379    0.4707   -2.4572 N   0  0  0  0  0  0  0  0  0  0  0  0
   -4.2830    0.6967   -2.2251 C   0  0  0  0  0  0  0  0  0  0  0  0
   -4.6630    0.9500   -0.7427 C   0  0  0  0  0  0  0  0  0  0  0  0
   -3.4534    1.4474    0.0329 N   0  0  0  0  0  0  0  0  0  0  0  0
   -3.1230    2.9099   -0.1621 C   0  0  0  0  0  0  0  0  0  0  0  0
   -1.7158    3.2056    0.4031 C   0  0  0  0  0  0  0  0  0  0  0  0
   -1.5467    2.7195    1.8367 N   0  0  0  0  0  0  0  0  0  0  0  0
   -1.9840    3.7052    2.8817 C   0  0  0  0  0  0  0  0  0  0  0  0
   -2.0319    1.2968    2.0874 C   0  0  0  0  0  0  0  0  0  0  0  0
   -3.4362    1.0435    1.4933 C   0  0  0  0  0  0  0  0  0  0  0  0
   -2.7777   -1.2883   -0.9174 N   0  0  0  0  0  0  0  0  0  0  0  0
   -2.1545   -2.3844   -0.4630 C   0  0  0  0  0  0  0  0  0  0  0  0
   -0.9808   -2.8390   -0.8958 N   0  0  0  0  0  0  0  0  0  0  0  0
    1.1400    1.3256   -5.2162 H   0  0  0  0  0  0  0  0  0  0  0  0
    2.9126    1.5679   -5.1746 H   0  0  0  0  0  0  0  0  0  0  0  0
    1.8075    2.9434   -5.0208 H   0  0  0  0  0  0  0  0  0  0  0  0
    2.0605    3.8284   -2.8816 H   0  0  0  0  0  0  0  0  0  0  0  0
    2.0471    3.6032   -0.4299 H   0  0  0  0  0  0  0  0  0  0  0  0
    3.3368   -0.0534    1.0382 H   0  0  0  0  0  0  0  0  0  0  0  0
    4.1793   -1.4502    2.6665 H   0  0  0  0  0  0  0  0  0  0  0  0
    4.1418   -2.2715    4.9788 H   0  0  0  0  0  0  0  0  0  0  0  0
    2.5359   -1.3574    6.6189 H   0  0  0  0  0  0  0  0  0  0  0  0
    1.0181    1.3256    3.6368 H   0  0  0  0  0  0  0  0  0  0  0  0
    1.9260   -0.6836   -0.8060 H   0  0  0  0  0  0  0  0  0  0  0  0
    2.4078   -0.5813   -4.3824 H   0  0  0  0  0  0  0  0  0  0  0  0
    4.1341   -5.3131   -3.6185 H   0  0  0  0  0  0  0  0  0  0  0  0
    3.4115   -7.2535   -2.2354 H   0  0  0  0  0  0  0  0  0  0  0  0
    1.3974   -7.0906   -0.8178 H   0  0  0  0  0  0  0  0  0  0  0  0
    0.0569   -5.0176   -0.7489 H   0  0  0  0  0  0  0  0  0  0  0  0
   -0.6102   -0.6063   -3.3874 H   0  0  0  0  0  0  0  0  0  0  0  0
   -2.5589    0.6933   -3.4164 H   0  0  0  0  0  0  0  0  0  0  0  0
   -4.5617    1.5881   -2.7997 H   0  0  0  0  0  0  0  0  0  0  0  0
   -4.8743   -0.1312   -2.6338 H   0  0  0  0  0  0  0  0  0  0  0  0
   -5.4689    1.6831   -0.6355 H   0  0  0  0  0  0  0  0  0  0  0  0
   -4.9837    0.0106   -0.2803 H   0  0  0  0  0  0  0  0  0  0  0  0
   -2.7088    0.8988   -0.4349 H   0  0  0  0  0  0  0  0  0  0  0  0
   -3.1546    3.1261   -1.2340 H   0  0  0  0  0  0  0  0  0  0  0  0
   -3.8962    3.4902    0.3518 H   0  0  0  0  0  0  0  0  0  0  0  0
   -0.9690    2.6684   -0.1899 H   0  0  0  0  0  0  0  0  0  0  0  0
   -1.4812    4.2741    0.3753 H   0  0  0  0  0  0  0  0  0  0  0  0
   -0.5055    2.6491    1.9493 H   0  0  0  0  0  0  0  0  0  0  0  0
   -1.4760    4.6533    2.6882 H   0  0  0  0  0  0  0  0  0  0  0  0
   -3.0683    3.8204    2.8161 H   0  0  0  0  0  0  0  0  0  0  0  0
   -1.6876    3.3181    3.8599 H   0  0  0  0  0  0  0  0  0  0  0  0
   -2.0065    1.1120    3.1657 H   0  0  0  0  0  0  0  0  0  0  0  0
   -1.3031    0.6371    1.6033 H   0  0  0  0  0  0  0  0  0  0  0  0
   -3.6814   -0.0211    1.5539 H   0  0  0  0  0  0  0  0  0  0  0  0
   -4.2081    1.6295    2.0024 H   0  0  0  0  0  0  0  0  0  0  0  0
   -2.6298   -2.9396    0.3397 H   0  0  0  0  0  0  0  0  0  0  0  0
  1  2  1  0
  2  3  2  0
  3  4  1  0
  4  5  2  0
  5  6  1  0
  6  7  2  0
  6  8  1  0
  8  9  1  0
  9 10  2  0
 10 11  1  0
 11 12  2  0
 12 13  1  0
 13 14  1  0
 14 15  1  0
 14 16  1  0
 14 17  1  0
 13 18  2  0
  5 19  1  0
 19 20  2  0
 20 21  1  0
 21 22  1  0
 22 23  2  0
 23 24  1  0
 24 25  2  0
 25 26  1  0
 26 27  2  0
 27 28  1  0
 28 29  2  0
 29 30  1  0
 30 31  1  0
 31 32  2  0
 32 33  1  0
 33 34  1  0
 34 35  1  0
 35 36  1  0
 36 37  1  0
 37 38  1  0
 38 39  1  0
 39 40  1  0
 40 41  1  0
 40 42  1  0
 42 43  1  0
 33 44  2  0
 44 45  1  0
 45 46  2  0
 20  2  1  0
 30 22  1  0
 46 31  1  0
 18  9  1  0
 29 24  1  0
 43 37  1  0
  1 47  1  0
  1 48  1  0
  1 49  1  0
  3 50  1  0
  4 51  1  0
  8 52  1  0
 10 53  1  0
 11 54  1  0
 12 55  1  0
 18 56  1  0
 19 57  1  0
 21 58  1  0
 25 59  1  0
 26 60  1  0
 27 61  1  0
 28 62  1  0
 32 63  1  0
 34 64  1  0
 35 65  1  0
 35 66  1  0
 36 67  1  0
 36 68  1  0
 37 69  1  0
 38 70  1  0
 38 71  1  0
 39 72  1  0
 39 73  1  0
 40 74  1  0
 41 75  1  0
 41 76  1  0
 41 77  1  0
 42 78  1  0
 42 79  1  0
 43 80  1  0
 43 81  1  0
 45 82  1  0
M  CHG  2  37   1  40   1
M  END
$$$$
