
     RDKit          3D

 57 58  0  0  0  0  0  0  0  0999 V2000
   -6.3700   -1.9107    1.4778 C   0  0  0  0  0  0  0  0  0  0  0  0
   -4.9858   -1.3070    1.6308 C   0  0  0  0  0  0  0  0  0  0  0  0
   -4.1772   -1.4098    0.3440 C   0  0  0  0  0  0  0  0  0  0  0  0
   -2.8943   -0.8166    0.5812 O   0  0  0  0  0  0  0  0  0  0  0  0
   -2.1005   -0.7604   -0.5127 C   0  0  0  0  0  0  0  0  0  0  0  0
   -2.3352   -1.1872   -1.6288 O   0  0  0  0  0  0  0  0  0  0  0  0
   -0.8447   -0.0993   -0.1325 C   0  0  0  0  0  0  0  0  0  0  0  0
   -0.8500    1.2774    0.1134 C   0  0  0  0  0  0  0  0  0  0  0  0
   -2.0269    2.1512   -0.0384 C   0  0  0  0  0  0  0  0  0  0  0  0
   -2.7303    2.2415   -1.2536 C   0  0  0  0  0  0  0  0  0  0  0  0
   -3.8500    3.0686   -1.3793 C   0  0  0  0  0  0  0  0  0  0  0  0
   -4.2804    3.8275   -0.2933 C   0  0  0  0  0  0  0  0  0  0  0  0
   -3.5853    3.7613    0.9113 C   0  0  0  0  0  0  0  0  0  0  0  0
   -4.1125    4.7020    2.2525 Cl  0  0  0  0  0  0  0  0  0  0  0  0
   -2.4676    2.9370    1.0405 C   0  0  0  0  0  0  0  0  0  0  0  0
    0.2668    1.9300    0.5320 N   0  0  0  0  0  0  0  0  0  0  0  0
    1.4237    1.2321    0.6835 C   0  0  0  0  0  0  0  0  0  0  0  0
    2.5939    2.0505    1.1730 C   0  0  0  0  0  0  0  0  0  0  0  0
    3.1729    2.9242    0.0700 C   0  0  0  0  0  0  0  0  0  0  0  0
    1.5014   -0.1374    0.4059 C   0  0  0  0  0  0  0  0  0  0  0  0
    2.7790   -0.8425    0.5956 C   0  0  0  0  0  0  0  0  0  0  0  0
    3.0495   -1.3736    1.6623 O   0  0  0  0  0  0  0  0  0  0  0  0
    3.8398   -0.8628   -0.8021 S   0  0  0  0  0  0  0  0  0  0  0  0
    5.2559   -1.7500   -0.0831 C   0  0  0  0  0  0  0  0  0  0  0  0
    6.4015   -1.9142   -1.0820 C   0  0  0  0  0  0  0  0  0  0  0  0
    7.0901   -0.6062   -1.4484 C   0  0  0  0  0  0  0  0  0  0  0  0
    0.3471   -0.8408    0.0034 C   0  0  0  0  0  0  0  0  0  0  0  0
    0.3671   -2.3402   -0.2117 C   0  0  0  0  0  0  0  0  0  0  0  0
   -0.0234   -3.1050    1.0455 C   0  0  0  0  0  0  0  0  0  0  0  0
   -6.9377   -1.3967    0.6957 H   0  0  0  0  0  0  0  0  0  0  0  0
   -6.9278   -1.8234    2.4154 H   0  0  0  0  0  0  0  0  0  0  0  0
   -6.3083   -2.9720    1.2168 H   0  0  0  0  0  0  0  0  0  0  0  0
   -5.0691   -0.2548    1.9289 H   0  0  0  0  0  0  0  0  0  0  0  0
   -4.4480   -1.8089    2.4441 H   0  0  0  0  0  0  0  0  0  0  0  0
   -4.0432   -2.4605    0.0619 H   0  0  0  0  0  0  0  0  0  0  0  0
   -4.6875   -0.8742   -0.4654 H   0  0  0  0  0  0  0  0  0  0  0  0
   -2.4061    1.6702   -2.1231 H   0  0  0  0  0  0  0  0  0  0  0  0
   -4.3813    3.1226   -2.3265 H   0  0  0  0  0  0  0  0  0  0  0  0
   -5.1502    4.4711   -0.3936 H   0  0  0  0  0  0  0  0  0  0  0  0
   -1.9310    2.9010    1.9868 H   0  0  0  0  0  0  0  0  0  0  0  0
    2.2455    2.6925    1.9919 H   0  0  0  0  0  0  0  0  0  0  0  0
    3.3801    1.4229    1.6036 H   0  0  0  0  0  0  0  0  0  0  0  0
    4.0153    3.5081    0.4540 H   0  0  0  0  0  0  0  0  0  0  0  0
    3.5314    2.3239   -0.7718 H   0  0  0  0  0  0  0  0  0  0  0  0
    2.4248    3.6254   -0.3154 H   0  0  0  0  0  0  0  0  0  0  0  0
    5.6090   -1.2134    0.8042 H   0  0  0  0  0  0  0  0  0  0  0  0
    4.9164   -2.7421    0.2335 H   0  0  0  0  0  0  0  0  0  0  0  0
    6.0499   -2.4149   -1.9922 H   0  0  0  0  0  0  0  0  0  0  0  0
    7.1514   -2.5776   -0.6336 H   0  0  0  0  0  0  0  0  0  0  0  0
    7.9552   -0.8057   -2.0892 H   0  0  0  0  0  0  0  0  0  0  0  0
    6.4222    0.0659   -1.9949 H   0  0  0  0  0  0  0  0  0  0  0  0
    7.4464   -0.0867   -0.5531 H   0  0  0  0  0  0  0  0  0  0  0  0
   -0.2996   -2.6175   -1.0352 H   0  0  0  0  0  0  0  0  0  0  0  0
    1.3563   -2.6727   -0.5428 H   0  0  0  0  0  0  0  0  0  0  0  0
    0.6555   -2.8833    1.8752 H   0  0  0  0  0  0  0  0  0  0  0  0
    0.0141   -4.1827    0.8572 H   0  0  0  0  0  0  0  0  0  0  0  0
   -1.0387   -2.8559    1.3696 H   0  0  0  0  0  0  0  0  0  0  0  0
  1  2  1  0
  2  3  1  0
  3  4  1  0
  4  5  1  0
  5  6  2  0
  5  7  1  0
  7  8  2  0
  8  9  1  0
  9 10  2  0
 10 11  1  0
 11 12  2  0
 12 13  1  0
 13 14  1  0
 13 15  2  0
  8 16  1  0
 16 17  2  0
 17 18  1  0
 18 19  1  0
 17 20  1  0
 20 21  1  0
 21 22  2  0
 21 23  1  0
 23 24  1  0
 24 25  1  0
 25 26  1  0
 20 27  2  0
 27 28  1  0
 28 29  1  0
 27  7  1  0
 15  9  1  0
  1 30  1  0
  1 31  1  0
  1 32  1  0
  2 33  1  0
  2 34  1  0
  3 35  1  0
  3 36  1  0
 10 37  1  0
 11 38  1  0
 12 39  1  0
 15 40  1  0
 18 41  1  0
 18 42  1  0
 19 43  1  0
 19 44  1  0
 19 45  1  0
 24 46  1  0
 24 47  1  0
 25 48  1  0
 25 49  1  0
 26 50  1  0
 26 51  1  0
 26 52  1  0
 28 53  1  0
 28 54  1  0
 29 55  1  0
 29 56  1  0
 29 57  1  0
M  END
$$$$
