
     RDKit          3D

 69 74  0  0  0  0  0  0  0  0999 V2000
    3.4874   -3.0129   -1.1156 C   0  0  0  0  0  0  0  0  0  0  0  0
    2.3542   -2.1288   -0.6827 C   0  0  0  0  0  0  0  0  0  0  0  0
    1.0426   -2.4789   -1.0525 C   0  0  0  0  0  0  0  0  0  0  0  0
   -0.0565   -1.6943   -0.6802 C   0  0  0  0  0  0  0  0  0  0  0  0
    0.1316   -0.5404    0.0728 C   0  0  0  0  0  0  0  0  0  0  0  0
   -0.9030    0.3197    0.4960 N   0  0  0  0  0  0  0  0  0  0  0  0
   -2.2660    0.1962    0.2792 C   0  0  0  0  0  0  0  0  0  0  0  0
   -2.8069   -0.7282   -0.3141 O   0  0  0  0  0  0  0  0  0  0  0  0
   -2.9361    1.2834    0.8309 N   0  0  0  0  0  0  0  0  0  0  0  0
   -4.3267    1.5211    0.8721 C   0  0  0  0  0  0  0  0  0  0  0  0
   -5.2925    0.6239    0.4007 C   0  0  0  0  0  0  0  0  0  0  0  0
   -6.6703    0.8997    0.4624 C   0  0  0  0  0  0  0  0  0  0  0  0
   -7.6355    0.0199   -0.0215 N   0  0  0  0  0  0  0  0  0  0  0  0
   -7.2503   -1.0521   -0.9609 C   0  0  0  0  0  0  0  0  0  0  0  0
   -8.4897   -1.5940   -1.6898 C   0  0  0  0  0  0  0  0  0  0  0  0
   -9.5071   -2.0236   -0.7704 O   0  0  0  0  0  0  0  0  0  0  0  0
   -9.9213   -0.9199    0.0486 C   0  0  0  0  0  0  0  0  0  0  0  0
   -8.7555   -0.3442    0.8675 C   0  0  0  0  0  0  0  0  0  0  0  0
   -7.0495    2.1314    1.0143 C   0  0  0  0  0  0  0  0  0  0  0  0
   -6.1080    3.0479    1.5098 C   0  0  0  0  0  0  0  0  0  0  0  0
   -6.5612    4.3681    2.0724 C   0  0  0  0  0  0  0  0  0  0  0  0
   -7.7502    4.2874    2.7347 F   0  0  0  0  0  0  0  0  0  0  0  0
   -6.7363    5.3135    1.1082 F   0  0  0  0  0  0  0  0  0  0  0  0
   -5.6804    4.9041    2.9638 F   0  0  0  0  0  0  0  0  0  0  0  0
   -4.7460    2.7317    1.4293 C   0  0  0  0  0  0  0  0  0  0  0  0
    1.4314   -0.1851    0.4445 C   0  0  0  0  0  0  0  0  0  0  0  0
    2.5418   -0.9631    0.0765 C   0  0  0  0  0  0  0  0  0  0  0  0
    3.9716   -0.4324    0.5708 C   0  0  0  0  0  0  0  0  0  0  0  0
    5.1916   -1.0583    0.3112 N   0  0  0  0  0  0  0  0  0  0  0  0
    6.1438   -0.1810    0.9552 C   0  0  0  0  0  0  0  0  0  0  0  0
    5.5258    0.8467    1.5396 C   0  0  0  0  0  0  0  0  0  0  0  0
    6.5097    1.6144    2.1425 C   0  0  0  0  0  0  0  0  0  0  0  0
    7.7425    1.0773    1.9538 N   0  0  0  0  0  0  0  0  0  0  0  0
    7.4649   -0.0391    1.1831 N   0  0  0  0  0  0  0  0  0  0  0  0
    8.5032   -0.9623    0.7827 C   0  0  0  0  0  0  0  0  0  0  0  0
    9.1374   -0.5694   -0.5300 C   0  0  0  0  0  0  0  0  0  0  0  0
    8.4597   -0.7968   -1.7375 C   0  0  0  0  0  0  0  0  0  0  0  0
    9.0393   -0.4359   -2.9542 C   0  0  0  0  0  0  0  0  0  0  0  0
   10.2999    0.1580   -2.9776 C   0  0  0  0  0  0  0  0  0  0  0  0
   10.9787    0.3984   -1.7837 C   0  0  0  0  0  0  0  0  0  0  0  0
   10.3997    0.0398   -0.5648 C   0  0  0  0  0  0  0  0  0  0  0  0
    4.1071    0.7423    1.3272 N   0  0  0  0  0  0  0  0  0  0  0  0
    4.0112   -3.4246   -0.2476 H   0  0  0  0  0  0  0  0  0  0  0  0
    3.1236   -3.8677   -1.6973 H   0  0  0  0  0  0  0  0  0  0  0  0
    4.1807   -2.4661   -1.7619 H   0  0  0  0  0  0  0  0  0  0  0  0
    0.8652   -3.3760   -1.6409 H   0  0  0  0  0  0  0  0  0  0  0  0
   -1.0426   -2.0150   -0.9968 H   0  0  0  0  0  0  0  0  0  0  0  0
   -0.5852    1.1082    1.0386 H   0  0  0  0  0  0  0  0  0  0  0  0
   -2.3486    2.0031    1.2219 H   0  0  0  0  0  0  0  0  0  0  0  0
   -4.9732   -0.3287   -0.0054 H   0  0  0  0  0  0  0  0  0  0  0  0
   -6.7757   -1.8667   -0.4001 H   0  0  0  0  0  0  0  0  0  0  0  0
   -6.5466   -0.6826   -1.7159 H   0  0  0  0  0  0  0  0  0  0  0  0
   -8.9139   -0.8347   -2.3579 H   0  0  0  0  0  0  0  0  0  0  0  0
   -8.2112   -2.4570   -2.3030 H   0  0  0  0  0  0  0  0  0  0  0  0
  -10.3675   -0.1494   -0.5918 H   0  0  0  0  0  0  0  0  0  0  0  0
  -10.7027   -1.2838    0.7233 H   0  0  0  0  0  0  0  0  0  0  0  0
   -8.4008   -1.1006    1.5788 H   0  0  0  0  0  0  0  0  0  0  0  0
   -9.1313    0.5070    1.4438 H   0  0  0  0  0  0  0  0  0  0  0  0
   -8.1026    2.4063    1.0356 H   0  0  0  0  0  0  0  0  0  0  0  0
   -4.0138    3.4465    1.8011 H   0  0  0  0  0  0  0  0  0  0  0  0
    1.6151    0.7118    1.0324 H   0  0  0  0  0  0  0  0  0  0  0  0
    6.4047    2.5229    2.7139 H   0  0  0  0  0  0  0  0  0  0  0  0
    9.2464   -0.9965    1.5880 H   0  0  0  0  0  0  0  0  0  0  0  0
    8.0685   -1.9663    0.7092 H   0  0  0  0  0  0  0  0  0  0  0  0
    7.4618   -1.2394   -1.7270 H   0  0  0  0  0  0  0  0  0  0  0  0
    8.4953   -0.6079   -3.8787 H   0  0  0  0  0  0  0  0  0  0  0  0
   10.7451    0.4462   -3.9252 H   0  0  0  0  0  0  0  0  0  0  0  0
   11.9538    0.8764   -1.7994 H   0  0  0  0  0  0  0  0  0  0  0  0
   10.9298    0.2507    0.3612 H   0  0  0  0  0  0  0  0  0  0  0  0
  1  2  1  0
  2  3  2  0
  3  4  1  0
  4  5  2  0
  5  6  1  0
  6  7  1  0
  7  8  2  0
  7  9  1  0
  9 10  1  0
 10 11  2  0
 11 12  1  0
 12 13  1  0
 13 14  1  0
 14 15  1  0
 15 16  1  0
 16 17  1  0
 17 18  1  0
 12 19  2  0
 19 20  1  0
 20 21  1  0
 21 22  1  0
 21 23  1  0
 21 24  1  0
 20 25  2  0
  5 26  1  0
 26 27  2  0
 27 28  1  0
 28 29  2  0
 29 30  1  0
 30 31  2  0
 31 32  1  0
 32 33  2  0
 33 34  1  0
 34 35  1  0
 35 36  1  0
 36 37  2  0
 37 38  1  0
 38 39  2  0
 39 40  1  0
 40 41  2  0
 31 42  1  0
 27  2  1  0
 42 28  1  0
 25 10  1  0
 34 30  1  0
 41 36  1  0
 18 13  1  0
  1 43  1  0
  1 44  1  0
  1 45  1  0
  3 46  1  0
  4 47  1  0
  6 48  1  0
  9 49  1  0
 11 50  1  0
 14 51  1  0
 14 52  1  0
 15 53  1  0
 15 54  1  0
 17 55  1  0
 17 56  1  0
 18 57  1  0
 18 58  1  0
 19 59  1  0
 25 60  1  0
 26 61  1  0
 32 62  1  0
 35 63  1  0
 35 64  1  0
 37 65  1  0
 38 66  1  0
 39 67  1  0
 40 68  1  0
 41 69  1  0
M  CHG  1  42  -1
M  END
$$$$
