
     RDKit          3D

 79 84  0  0  0  0  0  0  0  0999 V2000
    2.7789   -1.9715   -1.7821 C   0  0  0  0  0  0  0  0  0  0  0  0
    1.9321   -0.9412   -1.9617 C   0  0  0  0  0  0  0  0  0  0  0  0
    1.3882   -0.6867   -3.3509 C   0  0  0  0  0  0  0  0  0  0  0  0
   -0.1256   -0.7910   -3.3374 C   0  0  0  0  0  0  0  0  0  0  0  0
   -0.7678    0.1001   -2.2737 C   0  0  0  0  0  0  0  0  0  0  0  0
   -0.1775   -0.1189   -0.8540 C   0  0  1  0  0  0  0  0  0  0  0  0
    1.4015    0.0257   -0.8577 C   0  0  2  0  0  0  0  0  0  0  0  0
    1.9106    1.4378   -1.2549 C   0  0  0  0  0  0  0  0  0  0  0  0
    1.9398   -0.3329    0.5672 C   0  0  1  0  0  0  0  0  0  0  0  0
    3.3619   -0.0344    0.6273 O   0  0  0  0  0  0  0  0  0  0  0  0
    4.1088   -0.8140    1.4489 C   0  0  0  0  0  0  0  0  0  0  0  0
    3.6882   -1.7440    2.1211 O   0  0  0  0  0  0  0  0  0  0  0  0
    5.5336   -0.3889    1.4241 C   0  0  0  0  0  0  0  0  0  0  0  0
    6.0036    0.6143    0.5653 C   0  0  0  0  0  0  0  0  0  0  0  0
    7.3540    0.9722    0.5783 C   0  0  0  0  0  0  0  0  0  0  0  0
    8.2390    0.3320    1.4454 C   0  0  0  0  0  0  0  0  0  0  0  0
    7.7787   -0.6678    2.3011 C   0  0  0  0  0  0  0  0  0  0  0  0
    6.4300   -1.0288    2.2909 C   0  0  0  0  0  0  0  0  0  0  0  0
    1.2373    0.4651    1.6860 C   0  0  2  0  0  0  0  0  0  0  0  0
    1.7833    0.1051    2.9718 O   0  0  0  0  0  0  0  0  0  0  0  0
   -0.3075    0.2521    1.7060 C   0  0  2  0  0  0  0  0  0  0  0  0
   -0.8332    1.0583    2.9202 C   0  0  0  0  0  0  0  0  0  0  0  0
   -0.4904   -1.1666    1.9316 O   0  0  0  0  0  0  0  0  0  0  0  0
   -1.8012   -1.7343    1.9065 C   0  0  2  0  0  0  0  0  0  0  0  0
   -2.5610   -1.5495    3.2195 C   0  0  0  0  0  0  0  0  0  0  0  0
   -3.3748   -2.7112    3.3807 O   0  0  0  0  0  0  0  0  0  0  0  0
   -2.8406   -3.7260    2.6475 C   0  0  0  0  0  0  0  0  0  0  0  0
   -3.2811   -4.8633    2.6259 O   0  0  0  0  0  0  0  0  0  0  0  0
   -1.6345   -3.2515    1.9039 C   0  0  0  0  0  0  0  0  0  0  0  0
   -2.6172   -1.2875    0.6830 C   0  0  0  0  0  0  0  0  0  0  0  0
   -2.4725    0.2126    0.4315 C   0  0  2  0  0  0  0  0  0  0  0  0
   -3.2241    0.6105   -0.7334 O   0  0  0  0  0  0  0  0  0  0  0  0
   -4.5620    0.7675   -0.5636 C   0  0  0  0  0  0  0  0  0  0  0  0
   -5.1748    0.5789    0.4749 O   0  0  0  0  0  0  0  0  0  0  0  0
   -5.2102    1.1912   -1.8221 C   0  0  0  0  0  0  0  0  0  0  0  0
   -6.6049    1.1989   -1.9086 C   0  0  0  0  0  0  0  0  0  0  0  0
   -7.2184    1.6041   -3.0923 C   0  0  0  0  0  0  0  0  0  0  0  0
   -6.4127    1.9928   -4.1506 C   0  0  0  0  0  0  0  0  0  0  0  0
   -5.0624    2.0039   -4.0997 N   0  0  0  0  0  0  0  0  0  0  0  0
   -4.4912    1.6040   -2.9357 C   0  0  0  0  0  0  0  0  0  0  0  0
   -0.9585    0.6447    0.3248 C   0  0  2  0  0  0  0  0  0  0  0  0
   -0.9610    2.1770    0.1071 C   0  0  0  0  0  0  0  0  0  0  0  0
    3.0851   -2.6016   -2.6136 H   0  0  0  0  0  0  0  0  0  0  0  0
    3.2003   -2.2446   -0.8225 H   0  0  0  0  0  0  0  0  0  0  0  0
    1.7854   -1.4056   -4.0782 H   0  0  0  0  0  0  0  0  0  0  0  0
    1.7009    0.3017   -3.7052 H   0  0  0  0  0  0  0  0  0  0  0  0
   -0.5224   -0.5248   -4.3241 H   0  0  0  0  0  0  0  0  0  0  0  0
   -0.4185   -1.8333   -3.1543 H   0  0  0  0  0  0  0  0  0  0  0  0
   -1.8273   -0.1535   -2.2944 H   0  0  0  0  0  0  0  0  0  0  0  0
   -0.6819    1.1468   -2.5798 H   0  0  0  0  0  0  0  0  0  0  0  0
   -0.3350   -1.1894   -0.6580 H   0  0  0  0  0  0  0  0  0  0  0  0
    1.9016    2.1460   -0.4253 H   0  0  0  0  0  0  0  0  0  0  0  0
    2.9530    1.3996   -1.5971 H   0  0  0  0  0  0  0  0  0  0  0  0
    1.3279    1.8870   -2.0638 H   0  0  0  0  0  0  0  0  0  0  0  0
    1.7856   -1.4050    0.7483 H   0  0  0  0  0  0  0  0  0  0  0  0
    5.3318    1.1237   -0.1208 H   0  0  0  0  0  0  0  0  0  0  0  0
    7.7156    1.7509   -0.0889 H   0  0  0  0  0  0  0  0  0  0  0  0
    9.2895    0.6126    1.4542 H   0  0  0  0  0  0  0  0  0  0  0  0
    8.4689   -1.1667    2.9771 H   0  0  0  0  0  0  0  0  0  0  0  0
    6.0804   -1.8100    2.9634 H   0  0  0  0  0  0  0  0  0  0  0  0
    1.4725    1.5287    1.5871 H   0  0  0  0  0  0  0  0  0  0  0  0
    1.9310   -0.8632    2.9655 H   0  0  0  0  0  0  0  0  0  0  0  0
   -0.4805    2.0951    2.8941 H   0  0  0  0  0  0  0  0  0  0  0  0
   -0.4988    0.6115    3.8636 H   0  0  0  0  0  0  0  0  0  0  0  0
   -1.9200    1.0975    2.9863 H   0  0  0  0  0  0  0  0  0  0  0  0
   -1.8937   -1.4676    4.0847 H   0  0  0  0  0  0  0  0  0  0  0  0
   -3.2188   -0.6765    3.2105 H   0  0  0  0  0  0  0  0  0  0  0  0
   -0.7363   -3.5695    2.4443 H   0  0  0  0  0  0  0  0  0  0  0  0
   -1.6128   -3.6724    0.8949 H   0  0  0  0  0  0  0  0  0  0  0  0
   -3.6737   -1.5586    0.8009 H   0  0  0  0  0  0  0  0  0  0  0  0
   -2.3033   -1.8264   -0.2189 H   0  0  0  0  0  0  0  0  0  0  0  0
   -2.9190    0.7478    1.2750 H   0  0  0  0  0  0  0  0  0  0  0  0
   -7.2133    0.8905   -1.0611 H   0  0  0  0  0  0  0  0  0  0  0  0
   -8.2990    1.6165   -3.1857 H   0  0  0  0  0  0  0  0  0  0  0  0
   -6.8442    2.3164   -5.0941 H   0  0  0  0  0  0  0  0  0  0  0  0
   -3.4063    1.6405   -2.9404 H   0  0  0  0  0  0  0  0  0  0  0  0
   -1.6477    2.6733    0.8033 H   0  0  0  0  0  0  0  0  0  0  0  0
    0.0136    2.6341    0.2702 H   0  0  0  0  0  0  0  0  0  0  0  0
   -1.2947    2.4488   -0.8983 H   0  0  0  0  0  0  0  0  0  0  0  0
  1  2  2  0
  2  3  1  0
  3  4  1  0
  4  5  1  0
  5  6  1  0
  6  7  1  0
  7  8  1  6
  7  9  1  0
  9 10  1  0
 10 11  1  0
 11 12  2  0
 11 13  1  0
 13 14  2  0
 14 15  1  0
 15 16  2  0
 16 17  1  0
 17 18  2  0
  9 19  1  0
 19 20  1  0
 19 21  1  0
 21 22  1  1
 21 23  1  0
 24 23  1  1
 24 25  1  0
 25 26  1  0
 26 27  1  0
 27 28  2  0
 27 29  1  0
 24 30  1  0
 30 31  1  0
 31 32  1  0
 32 33  1  0
 33 34  2  0
 33 35  1  0
 35 36  2  0
 36 37  1  0
 37 38  2  0
 38 39  1  0
 39 40  2  0
 31 41  1  0
 41 42  1  6
  7  2  1  0
 18 13  1  0
 41 21  1  0
 41  6  1  0
 29 24  1  0
 40 35  1  0
  1 43  1  0
  1 44  1  0
  3 45  1  0
  3 46  1  0
  4 47  1  0
  4 48  1  0
  5 49  1  0
  5 50  1  0
  6 51  1  1
  8 52  1  0
  8 53  1  0
  8 54  1  0
  9 55  1  1
 14 56  1  0
 15 57  1  0
 16 58  1  0
 17 59  1  0
 18 60  1  0
 19 61  1  6
 20 62  1  0
 22 63  1  0
 22 64  1  0
 22 65  1  0
 25 66  1  0
 25 67  1  0
 29 68  1  0
 29 69  1  0
 30 70  1  0
 30 71  1  0
 31 72  1  1
 36 73  1  0
 37 74  1  0
 38 75  1  0
 40 76  1  0
 42 77  1  0
 42 78  1  0
 42 79  1  0
M  END
$$$$
