
     RDKit          3D

 51 53  0  0  0  0  0  0  0  0999 V2000
   -3.4121    2.2399   -1.3184 C   0  0  0  0  0  0  0  0  0  0  0  0
   -4.3627    1.3846   -0.4632 C   0  0  0  0  0  0  0  0  0  0  0  0
   -5.7069    1.2380   -1.1939 C   0  0  0  0  0  0  0  0  0  0  0  0
   -4.5930    2.0918    0.8833 C   0  0  0  0  0  0  0  0  0  0  0  0
   -3.7582   -0.0213   -0.2340 C   0  0  0  0  0  0  0  0  0  0  0  0
   -2.5048    0.0977    0.4451 O   0  0  0  0  0  0  0  0  0  0  0  0
   -1.8635   -1.1055    0.6564 C   0  0  0  0  0  0  0  0  0  0  0  0
   -2.4906   -2.2495    0.2979 N   0  0  0  0  0  0  0  0  0  0  0  0
   -1.8332   -3.4286    0.4914 C   0  0  0  0  0  0  0  0  0  0  0  0
   -2.5193   -4.7331    0.1144 C   0  0  0  0  0  0  0  0  0  0  0  0
   -3.5668   -4.5860   -0.7473 F   0  0  0  0  0  0  0  0  0  0  0  0
   -1.6748   -5.6236   -0.4863 F   0  0  0  0  0  0  0  0  0  0  0  0
   -3.0234   -5.3902    1.2007 F   0  0  0  0  0  0  0  0  0  0  0  0
   -0.5609   -3.4750    1.0585 C   0  0  0  0  0  0  0  0  0  0  0  0
    0.0564   -2.2841    1.4288 C   0  0  0  0  0  0  0  0  0  0  0  0
   -0.5994   -1.0633    1.2345 C   0  0  0  0  0  0  0  0  0  0  0  0
    0.0708    0.2246    1.6220 C   0  0  0  0  0  0  0  0  0  0  0  0
    1.0892    0.5970    0.6667 N   0  0  0  0  0  0  0  0  0  0  0  0
    2.4267    0.3470    0.8803 C   0  0  0  0  0  0  0  0  0  0  0  0
    2.8256   -0.2089    1.8965 O   0  0  0  0  0  0  0  0  0  0  0  0
    3.1881    0.7923   -0.1710 N   0  0  0  0  0  0  0  0  0  0  0  0
    4.5860    0.7121   -0.3292 C   0  0  0  0  0  0  0  0  0  0  0  0
    5.4660    0.1408    0.6045 C   0  0  0  0  0  0  0  0  0  0  0  0
    6.8556    0.0946    0.3798 C   0  0  0  0  0  0  0  0  0  0  0  0
    7.4280    0.6154   -0.7850 C   0  0  0  0  0  0  0  0  0  0  0  0
    6.5689    1.1912   -1.7325 C   0  0  0  0  0  0  0  0  0  0  0  0
    6.8509    1.7600   -2.9270 N   0  0  0  0  0  0  0  0  0  0  0  0
    5.6866    2.1701   -3.4760 N   0  0  0  0  0  0  0  0  0  0  0  0
    4.7201    1.8430   -2.6059 C   0  0  0  0  0  0  0  0  0  0  0  0
    5.1959    1.2214   -1.4793 C   0  0  0  0  0  0  0  0  0  0  0  0
   -2.4520    2.4015   -0.8159 H   0  0  0  0  0  0  0  0  0  0  0  0
   -3.8456    3.2251   -1.5243 H   0  0  0  0  0  0  0  0  0  0  0  0
   -3.2082    1.7585   -2.2814 H   0  0  0  0  0  0  0  0  0  0  0  0
   -6.4130    0.6401   -0.6068 H   0  0  0  0  0  0  0  0  0  0  0  0
   -6.1685    2.2151   -1.3754 H   0  0  0  0  0  0  0  0  0  0  0  0
   -5.5780    0.7453   -2.1641 H   0  0  0  0  0  0  0  0  0  0  0  0
   -3.6522    2.2514    1.4216 H   0  0  0  0  0  0  0  0  0  0  0  0
   -5.2522    1.5020    1.5301 H   0  0  0  0  0  0  0  0  0  0  0  0
   -5.0598    3.0727    0.7388 H   0  0  0  0  0  0  0  0  0  0  0  0
   -4.4513   -0.6203    0.3717 H   0  0  0  0  0  0  0  0  0  0  0  0
   -3.6104   -0.5141   -1.2045 H   0  0  0  0  0  0  0  0  0  0  0  0
   -0.0484   -4.4218    1.2080 H   0  0  0  0  0  0  0  0  0  0  0  0
    1.0559   -2.3043    1.8627 H   0  0  0  0  0  0  0  0  0  0  0  0
   -0.6402    1.0554    1.6732 H   0  0  0  0  0  0  0  0  0  0  0  0
    0.5031    0.1265    2.6247 H   0  0  0  0  0  0  0  0  0  0  0  0
    0.7937    1.0017   -0.2072 H   0  0  0  0  0  0  0  0  0  0  0  0
    2.7059    1.2386   -0.9343 H   0  0  0  0  0  0  0  0  0  0  0  0
    5.0941   -0.2824    1.5322 H   0  0  0  0  0  0  0  0  0  0  0  0
    7.5013   -0.3559    1.1286 H   0  0  0  0  0  0  0  0  0  0  0  0
    8.4893    0.5956   -0.9872 H   0  0  0  0  0  0  0  0  0  0  0  0
    3.6912    2.0767   -2.8362 H   0  0  0  0  0  0  0  0  0  0  0  0
  1  2  1  0
  2  3  1  0
  2  4  1  0
  2  5  1  0
  5  6  1  0
  6  7  1  0
  7  8  2  0
  8  9  1  0
  9 10  1  0
 10 11  1  0
 10 12  1  0
 10 13  1  0
  9 14  2  0
 14 15  1  0
 15 16  2  0
 16 17  1  0
 17 18  1  0
 18 19  1  0
 19 20  2  0
 19 21  1  0
 21 22  1  0
 22 23  2  0
 23 24  1  0
 24 25  2  0
 25 26  1  0
 26 27  1  0
 27 28  1  0
 28 29  2  0
 29 30  1  0
 16  7  1  0
 30 22  1  0
 30 26  2  0
  1 31  1  0
  1 32  1  0
  1 33  1  0
  3 34  1  0
  3 35  1  0
  3 36  1  0
  4 37  1  0
  4 38  1  0
  4 39  1  0
  5 40  1  0
  5 41  1  0
 14 42  1  0
 15 43  1  0
 17 44  1  0
 17 45  1  0
 18 46  1  0
 21 47  1  0
 23 48  1  0
 24 49  1  0
 25 50  1  0
 29 51  1  0
M  CHG  1  27  -1
M  END
$$$$
