
     RDKit          3D

 90 95  0  0  0  0  0  0  0  0999 V2000
    0.2854    5.9445   -1.6393 C   0  0  0  0  0  0  0  0  0  0  0  0
    0.0723    4.9464   -0.5478 C   0  0  0  0  0  0  0  0  0  0  0  0
    0.5831    3.7021   -0.4550 C   0  0  0  0  0  0  0  0  0  0  0  0
    1.5254    3.0585   -1.4282 C   0  0  0  0  0  0  0  0  0  0  0  0
    0.1896    2.9066    0.7515 C   0  0  0  0  0  0  0  0  0  0  0  0
   -0.3143    3.3784    1.7585 O   0  0  0  0  0  0  0  0  0  0  0  0
    0.4480    1.5981    0.5196 O   0  0  0  0  0  0  0  0  0  0  0  0
    0.1730    0.6616    1.5948 C   0  0  2  0  0  0  0  0  0  0  0  0
    1.5268    0.1513    2.1179 C   0  0  2  0  0  0  0  0  0  0  0  0
    2.4661    1.1880    2.4883 O   0  0  0  0  0  0  0  0  0  0  0  0
    3.7802    0.8289    1.9641 C   0  0  0  0  0  0  0  0  0  0  0  0
    3.6930   -0.6481    1.5307 C   0  0  2  0  0  0  0  0  0  0  0  0
    3.9883   -1.5135    2.7738 C   0  0  0  0  0  0  0  0  0  0  0  0
    4.5841   -1.1072    0.3549 C   0  0  2  0  0  0  0  0  0  0  0  0
    4.6095   -0.0735   -0.6518 O   0  0  0  0  0  0  0  0  0  0  0  0
    5.6353   -0.1056   -1.5424 C   0  0  0  0  0  0  0  0  0  0  0  0
    5.4968    1.0226   -2.5176 C   0  0  0  0  0  0  0  0  0  0  0  0
    6.5380   -0.9295   -1.5578 O   0  0  0  0  0  0  0  0  0  0  0  0
    4.0288   -2.4289   -0.2565 C   0  0  0  0  0  0  0  0  0  0  0  0
    2.5206   -2.4013   -0.6352 C   0  0  2  0  0  0  0  0  0  0  0  0
    2.3794   -1.5878   -1.8019 O   0  0  0  0  0  0  0  0  0  0  0  0
    1.5791   -1.8769    0.5145 C   0  0  1  0  0  0  0  0  0  0  0  0
    1.4559   -2.9910    1.5788 C   0  0  0  0  0  0  0  0  0  0  0  0
    2.2539   -0.6100    1.0422 C   0  0  1  0  0  0  0  0  0  0  0  0
    0.1502   -1.3839   -0.0233 C   0  0  1  0  0  0  0  0  0  0  0  0
   -0.6182   -2.5012   -0.7797 C   0  0  0  0  0  0  0  0  0  0  0  0
   -2.1224   -2.3220   -1.0339 C   0  0  2  0  0  0  0  0  0  0  0  0
   -2.5099   -3.4878   -1.7824 O   0  0  0  0  0  0  0  0  0  0  0  0
   -3.9100   -3.5690   -1.9896 C   0  0  0  0  0  0  0  0  0  0  0  0
   -2.4709   -1.1498   -1.7514 O   0  0  0  0  0  0  0  0  0  0  0  0
   -2.0074    0.0847   -1.2244 C   0  0  1  0  0  0  0  0  0  0  0  0
   -3.0053    1.1923   -1.5711 C   0  0  0  0  0  0  0  0  0  0  0  0
   -3.8642    1.3987   -0.3147 C   0  0  1  0  0  0  0  0  0  0  0  0
   -5.1969    0.7232   -0.3300 C   0  0  0  0  0  0  0  0  0  0  0  0
   -5.6960   -0.2632   -1.0750 C   0  0  0  0  0  0  0  0  0  0  0  0
   -7.1002   -0.5388   -0.7343 C   0  0  0  0  0  0  0  0  0  0  0  0
   -7.4058    0.4101    0.2809 O   0  0  0  0  0  0  0  0  0  0  0  0
   -6.3082    1.1807    0.5201 C   0  0  0  0  0  0  0  0  0  0  0  0
   -6.2647    2.1086    1.3070 O   0  0  0  0  0  0  0  0  0  0  0  0
   -2.9482    0.8764    0.7773 C   0  0  0  0  0  0  0  0  0  0  0  0
   -3.2362    1.3103    2.1812 C   0  0  0  0  0  0  0  0  0  0  0  0
   -1.9287    0.1359    0.2856 C   0  0  0  0  0  0  0  0  0  0  0  0
   -0.7212   -0.5146    1.0096 C   0  0  2  0  0  0  0  0  0  0  0  0
   -1.2366   -1.4194    2.1587 C   0  0  0  0  0  0  0  0  0  0  0  0
    0.8393    5.5488   -2.4927 H   0  0  0  0  0  0  0  0  0  0  0  0
    0.8281    6.8108   -1.2488 H   0  0  0  0  0  0  0  0  0  0  0  0
   -0.6844    6.2906   -2.0114 H   0  0  0  0  0  0  0  0  0  0  0  0
   -0.5870    5.3014    0.2466 H   0  0  0  0  0  0  0  0  0  0  0  0
    1.9352    3.7629   -2.1558 H   0  0  0  0  0  0  0  0  0  0  0  0
    2.3833    2.6237   -0.9030 H   0  0  0  0  0  0  0  0  0  0  0  0
    1.0177    2.2630   -1.9838 H   0  0  0  0  0  0  0  0  0  0  0  0
   -0.3376    1.1651    2.4206 H   0  0  0  0  0  0  0  0  0  0  0  0
    1.3644   -0.4445    3.0193 H   0  0  0  0  0  0  0  0  0  0  0  0
    3.9810    1.5108    1.1312 H   0  0  0  0  0  0  0  0  0  0  0  0
    4.5293    1.0162    2.7396 H   0  0  0  0  0  0  0  0  0  0  0  0
    5.0018   -1.3069    3.1398 H   0  0  0  0  0  0  0  0  0  0  0  0
    3.9545   -2.5842    2.5708 H   0  0  0  0  0  0  0  0  0  0  0  0
    3.3066   -1.3103    3.6048 H   0  0  0  0  0  0  0  0  0  0  0  0
    5.6079   -1.2652    0.7178 H   0  0  0  0  0  0  0  0  0  0  0  0
    5.5198    1.9772   -1.9859 H   0  0  0  0  0  0  0  0  0  0  0  0
    6.3320    0.9966   -3.2233 H   0  0  0  0  0  0  0  0  0  0  0  0
    4.5636    0.9159   -3.0764 H   0  0  0  0  0  0  0  0  0  0  0  0
    4.2082   -3.2494    0.4457 H   0  0  0  0  0  0  0  0  0  0  0  0
    4.5997   -2.6667   -1.1620 H   0  0  0  0  0  0  0  0  0  0  0  0
    2.2079   -3.4124   -0.9236 H   0  0  0  0  0  0  0  0  0  0  0  0
    2.8484   -2.0343   -2.5288 H   0  0  0  0  0  0  0  0  0  0  0  0
    0.6505   -3.6948    1.3614 H   0  0  0  0  0  0  0  0  0  0  0  0
    1.2803   -2.6044    2.5835 H   0  0  0  0  0  0  0  0  0  0  0  0
    2.3557   -3.6085    1.6370 H   0  0  0  0  0  0  0  0  0  0  0  0
    2.2815    0.0685    0.1712 H   0  0  0  0  0  0  0  0  0  0  0  0
    0.4166   -0.6690   -0.8122 H   0  0  0  0  0  0  0  0  0  0  0  0
   -0.4955   -3.4667   -0.2807 H   0  0  0  0  0  0  0  0  0  0  0  0
   -0.1302   -2.6358   -1.7552 H   0  0  0  0  0  0  0  0  0  0  0  0
   -2.6780   -2.3518   -0.0905 H   0  0  0  0  0  0  0  0  0  0  0  0
   -4.4545   -3.4854   -1.0442 H   0  0  0  0  0  0  0  0  0  0  0  0
   -4.2381   -2.7965   -2.6900 H   0  0  0  0  0  0  0  0  0  0  0  0
   -4.1338   -4.5435   -2.4324 H   0  0  0  0  0  0  0  0  0  0  0  0
   -1.0653    0.3418   -1.7165 H   0  0  0  0  0  0  0  0  0  0  0  0
   -2.4492    2.1213   -1.7633 H   0  0  0  0  0  0  0  0  0  0  0  0
   -3.5896    0.9780   -2.4724 H   0  0  0  0  0  0  0  0  0  0  0  0
   -4.0166    2.4795   -0.1969 H   0  0  0  0  0  0  0  0  0  0  0  0
   -5.1548   -0.7963   -1.8409 H   0  0  0  0  0  0  0  0  0  0  0  0
   -7.2351   -1.5501   -0.3404 H   0  0  0  0  0  0  0  0  0  0  0  0
   -7.7664   -0.3835   -1.5876 H   0  0  0  0  0  0  0  0  0  0  0  0
   -2.4228    1.0993    2.8757 H   0  0  0  0  0  0  0  0  0  0  0  0
   -4.1305    0.8070    2.5603 H   0  0  0  0  0  0  0  0  0  0  0  0
   -3.4049    2.3918    2.2155 H   0  0  0  0  0  0  0  0  0  0  0  0
   -1.4741   -2.4296    1.8130 H   0  0  0  0  0  0  0  0  0  0  0  0
   -2.1486   -1.0456    2.6287 H   0  0  0  0  0  0  0  0  0  0  0  0
   -0.5138   -1.5194    2.9699 H   0  0  0  0  0  0  0  0  0  0  0  0
  1  2  1  0
  2  3  2  0
  3  4  1  0
  3  5  1  0
  5  6  2  0
  5  7  1  0
  7  8  1  0
  8  9  1  0
  9 10  1  0
 10 11  1  0
 11 12  1  0
 12 13  1  1
 12 14  1  0
 14 15  1  0
 15 16  1  0
 16 17  1  0
 16 18  2  0
 14 19  1  0
 19 20  1  0
 20 21  1  0
 20 22  1  0
 22 23  1  1
 22 24  1  0
 22 25  1  0
 25 26  1  0
 26 27  1  0
 27 28  1  0
 28 29  1  0
 27 30  1  0
 30 31  1  0
 31 32  1  0
 32 33  1  0
 33 34  1  0
 34 35  2  0
 35 36  1  0
 36 37  1  0
 37 38  1  0
 38 39  2  0
 33 40  1  0
 40 41  1  0
 40 42  2  0
 42 43  1  0
 43 44  1  1
 43  8  1  0
 24  9  1  0
 43 25  1  0
 24 12  1  0
 42 31  1  0
 38 34  1  0
  1 45  1  0
  1 46  1  0
  1 47  1  0
  2 48  1  0
  4 49  1  0
  4 50  1  0
  4 51  1  0
  8 52  1  1
  9 53  1  1
 11 54  1  0
 11 55  1  0
 13 56  1  0
 13 57  1  0
 13 58  1  0
 14 59  1  1
 17 60  1  0
 17 61  1  0
 17 62  1  0
 19 63  1  0
 19 64  1  0
 20 65  1  6
 21 66  1  0
 23 67  1  0
 23 68  1  0
 23 69  1  0
 24 70  1  6
 25 71  1  6
 26 72  1  0
 26 73  1  0
 27 74  1  1
 29 75  1  0
 29 76  1  0
 29 77  1  0
 31 78  1  6
 32 79  1  0
 32 80  1  0
 33 81  1  1
 35 82  1  0
 36 83  1  0
 36 84  1  0
 41 85  1  0
 41 86  1  0
 41 87  1  0
 44 88  1  0
 44 89  1  0
 44 90  1  0
M  END
$$$$
