
     RDKit          3D

 55 59  0  0  0  0  0  0  0  0999 V2000
    3.0314    0.4102    0.0869 O   0  0  0  0  0  0  0  0  0  0  0  0
    3.3517   -0.4597    0.8861 C   0  0  0  0  0  0  0  0  0  0  0  0
    2.4965   -1.0381    1.8145 N   0  0  0  0  0  0  0  0  0  0  0  0
    1.1021   -0.8512    1.9315 C   0  0  0  0  0  0  0  0  0  0  0  0
    0.4737   -1.4127    3.0490 C   0  0  0  0  0  0  0  0  0  0  0  0
   -0.9023   -1.2765    3.2318 C   0  0  0  0  0  0  0  0  0  0  0  0
   -1.6623   -0.5749    2.2971 C   0  0  0  0  0  0  0  0  0  0  0  0
   -1.0597    0.0000    1.1691 C   0  0  0  0  0  0  0  0  0  0  0  0
   -1.8971    0.7277    0.1820 C   0  0  0  0  0  0  0  0  0  0  0  0
   -1.4207    1.8361   -0.4226 C   0  0  0  0  0  0  0  0  0  0  0  0
   -2.2365    2.4886   -1.3186 N   0  0  0  0  0  0  0  0  0  0  0  0
   -2.0595    3.6096   -2.0821 C   0  0  0  0  0  0  0  0  0  0  0  0
   -3.2440    3.7639   -2.7726 C   0  0  0  0  0  0  0  0  0  0  0  0
   -4.1418    2.7719   -2.4529 N   0  0  0  0  0  0  0  0  0  0  0  0
   -3.4948    2.0264   -1.5790 C   0  0  0  0  0  0  0  0  0  0  0  0
   -3.9794    0.8311   -0.9016 C   0  0  0  0  0  0  0  0  0  0  0  0
   -5.2624    0.4084   -1.1899 N   0  0  0  0  0  0  0  0  0  0  0  0
   -5.9840   -0.7147   -0.7588 C   0  0  0  0  0  0  0  0  0  0  0  0
   -7.3444   -0.8030   -1.1038 C   0  0  0  0  0  0  0  0  0  0  0  0
   -8.1337   -1.8831   -0.6967 C   0  0  0  0  0  0  0  0  0  0  0  0
   -7.5756   -2.8996    0.0702 C   0  0  0  0  0  0  0  0  0  0  0  0
   -6.2327   -2.8315    0.4268 C   0  0  0  0  0  0  0  0  0  0  0  0
   -5.4475   -1.7471    0.0169 C   0  0  0  0  0  0  0  0  0  0  0  0
   -3.1774    0.2346   -0.0506 N   0  0  0  0  0  0  0  0  0  0  0  0
    0.3267   -0.1630    0.9929 C   0  0  0  0  0  0  0  0  0  0  0  0
    4.6233   -1.0047    0.9987 N   0  0  0  0  0  0  0  0  0  0  0  0
    5.7933   -0.6162    0.3130 C   0  0  0  0  0  0  0  0  0  0  0  0
    6.9429   -1.3873    0.5262 C   0  0  0  0  0  0  0  0  0  0  0  0
    8.1438   -1.0722   -0.1125 C   0  0  0  0  0  0  0  0  0  0  0  0
    8.2100    0.0237   -0.9694 C   0  0  0  0  0  0  0  0  0  0  0  0
    7.0763    0.8181   -1.1883 C   0  0  0  0  0  0  0  0  0  0  0  0
    7.1264    2.0006   -2.1241 C   0  0  0  0  0  0  0  0  0  0  0  0
    8.3964    2.4193   -2.3920 F   0  0  0  0  0  0  0  0  0  0  0  0
    6.5627    1.7319   -3.3338 F   0  0  0  0  0  0  0  0  0  0  0  0
    6.4751    3.0934   -1.6380 F   0  0  0  0  0  0  0  0  0  0  0  0
    5.8704    0.4843   -0.5436 C   0  0  0  0  0  0  0  0  0  0  0  0
    2.9268   -1.5912    2.5385 H   0  0  0  0  0  0  0  0  0  0  0  0
    1.0429   -1.9612    3.7944 H   0  0  0  0  0  0  0  0  0  0  0  0
   -1.3855   -1.7155    4.1008 H   0  0  0  0  0  0  0  0  0  0  0  0
   -2.7359   -0.4770    2.4501 H   0  0  0  0  0  0  0  0  0  0  0  0
   -0.4399    2.2590   -0.2487 H   0  0  0  0  0  0  0  0  0  0  0  0
   -1.1422    4.1802   -2.0722 H   0  0  0  0  0  0  0  0  0  0  0  0
   -3.4962    4.5402   -3.4843 H   0  0  0  0  0  0  0  0  0  0  0  0
   -5.7498    1.0127   -1.8441 H   0  0  0  0  0  0  0  0  0  0  0  0
   -7.8096   -0.0198   -1.6982 H   0  0  0  0  0  0  0  0  0  0  0  0
   -9.1823   -1.9260   -0.9786 H   0  0  0  0  0  0  0  0  0  0  0  0
   -8.1834   -3.7417    0.3892 H   0  0  0  0  0  0  0  0  0  0  0  0
   -5.7864   -3.6219    1.0246 H   0  0  0  0  0  0  0  0  0  0  0  0
   -4.4029   -1.7429    0.3119 H   0  0  0  0  0  0  0  0  0  0  0  0
    0.7856    0.2355    0.0939 H   0  0  0  0  0  0  0  0  0  0  0  0
    4.7096   -1.8149    1.5918 H   0  0  0  0  0  0  0  0  0  0  0  0
    6.9211   -2.2495    1.1879 H   0  0  0  0  0  0  0  0  0  0  0  0
    9.0270   -1.6835    0.0573 H   0  0  0  0  0  0  0  0  0  0  0  0
    9.1507    0.2588   -1.4657 H   0  0  0  0  0  0  0  0  0  0  0  0
    5.0037    1.1141   -0.7296 H   0  0  0  0  0  0  0  0  0  0  0  0
  1  2  2  0
  2  3  1  0
  3  4  1  0
  4  5  2  0
  5  6  1  0
  6  7  2  0
  7  8  1  0
  8  9  1  0
  9 10  2  0
 10 11  1  0
 11 12  1  0
 12 13  2  0
 13 14  1  0
 14 15  2  0
 15 16  1  0
 16 17  1  0
 17 18  1  0
 18 19  2  0
 19 20  1  0
 20 21  2  0
 21 22  1  0
 22 23  2  0
 16 24  2  0
  8 25  2  0
  2 26  1  0
 26 27  1  0
 27 28  2  0
 28 29  1  0
 29 30  2  0
 30 31  1  0
 31 32  1  0
 32 33  1  0
 32 34  1  0
 32 35  1  0
 31 36  2  0
 25  4  1  0
 36 27  1  0
 24  9  1  0
 15 11  1  0
 23 18  1  0
  3 37  1  0
  5 38  1  0
  6 39  1  0
  7 40  1  0
 10 41  1  0
 12 42  1  0
 13 43  1  0
 17 44  1  0
 19 45  1  0
 20 46  1  0
 21 47  1  0
 22 48  1  0
 23 49  1  0
 25 50  1  0
 26 51  1  0
 28 52  1  0
 29 53  1  0
 30 54  1  0
 36 55  1  0
M  END
$$$$
