
     RDKit          3D

 87 92  0  0  0  0  0  0  0  0999 V2000
   -2.3134    3.2825    2.9289 C   0  0  0  0  0  0  0  0  0  0  0  0
   -1.7437    2.7670    1.6461 C   0  0  0  0  0  0  0  0  0  0  0  0
   -1.1701    3.4746    0.6498 C   0  0  0  0  0  0  0  0  0  0  0  0
   -0.9695    4.9626    0.6338 C   0  0  0  0  0  0  0  0  0  0  0  0
   -0.6585    2.7981   -0.5892 C   0  0  0  0  0  0  0  0  0  0  0  0
   -0.2499    3.4130   -1.5631 O   0  0  0  0  0  0  0  0  0  0  0  0
   -0.6771    1.4525   -0.4477 O   0  0  0  0  0  0  0  0  0  0  0  0
   -0.2399    0.6495   -1.5747 C   0  0  2  0  0  0  0  0  0  0  0  0
   -1.4472   -0.1760   -2.0482 C   0  0  2  0  0  0  0  0  0  0  0  0
   -2.6285    0.6053   -2.3444 O   0  0  0  0  0  0  0  0  0  0  0  0
   -3.7779   -0.0400   -1.7194 C   0  0  0  0  0  0  0  0  0  0  0  0
   -3.3273   -1.4637   -1.3391 C   0  0  2  0  0  0  0  0  0  0  0  0
   -3.5128   -2.3569   -2.5829 C   0  0  0  0  0  0  0  0  0  0  0  0
   -3.9983   -2.1256   -0.1147 C   0  0  2  0  0  0  0  0  0  0  0  0
   -4.1696   -1.1363    0.9224 O   0  0  0  0  0  0  0  0  0  0  0  0
   -5.0894   -1.4036    1.8860 C   0  0  0  0  0  0  0  0  0  0  0  0
   -5.1297   -0.2798    2.8755 C   0  0  0  0  0  0  0  0  0  0  0  0
   -5.7801   -2.4099    1.9490 O   0  0  0  0  0  0  0  0  0  0  0  0
   -3.1172   -3.2971    0.4128 C   0  0  0  0  0  0  0  0  0  0  0  0
   -1.6260   -2.9396    0.6785 C   0  0  2  0  0  0  0  0  0  0  0  0
   -1.5688   -2.1408    1.8621 O   0  0  0  0  0  0  0  0  0  0  0  0
   -0.9180   -2.1980   -0.5219 C   0  0  1  0  0  0  0  0  0  0  0  0
   -0.6444   -3.2476   -1.6229 C   0  0  0  0  0  0  0  0  0  0  0  0
   -1.9006   -1.1082   -0.9548 C   0  0  1  0  0  0  0  0  0  0  0  0
    0.4031   -1.4014   -0.0737 C   0  0  1  0  0  0  0  0  0  0  0  0
    1.4992   -2.3295    0.5115 C   0  0  0  0  0  0  0  0  0  0  0  0
    2.8411   -1.6818    0.8692 C   0  0  2  0  0  0  0  0  0  0  0  0
    3.6127   -2.6321    1.5939 O   0  0  0  0  0  0  0  0  0  0  0  0
    2.7501   -0.5325    1.6789 O   0  0  0  0  0  0  0  0  0  0  0  0
    2.0971    0.6006    1.1188 C   0  0  1  0  0  0  0  0  0  0  0  0
    2.9045    1.8568    1.4462 C   0  0  0  0  0  0  0  0  0  0  0  0
    3.7230    2.1561    0.1868 C   0  0  1  0  0  0  0  0  0  0  0  0
    5.1195    1.6328    0.2717 C   0  0  0  0  0  0  0  0  0  0  0  0
    5.7499    0.6118   -0.3100 C   0  0  0  0  0  0  0  0  0  0  0  0
    7.1524    0.5310    0.1300 C   0  0  0  0  0  0  0  0  0  0  0  0
    7.3078    1.6356    1.0158 O   0  0  0  0  0  0  0  0  0  0  0  0
    6.1231    2.2986    1.1160 C   0  0  0  0  0  0  0  0  0  0  0  0
    5.9267    3.2930    1.7912 O   0  0  0  0  0  0  0  0  0  0  0  0
    2.8777    1.5119   -0.8982 C   0  0  0  0  0  0  0  0  0  0  0  0
    3.0762    1.9948   -2.2985 C   0  0  0  0  0  0  0  0  0  0  0  0
    1.9987    0.6162   -0.3951 C   0  0  0  0  0  0  0  0  0  0  0  0
    0.9461   -0.2812   -1.0963 C   0  0  2  0  0  0  0  0  0  0  0  0
    1.5975   -0.9638   -2.3239 C   0  0  0  0  0  0  0  0  0  0  0  0
   -2.3138    4.3707    3.0076 H   0  0  0  0  0  0  0  0  0  0  0  0
   -3.3503    2.9454    3.0284 H   0  0  0  0  0  0  0  0  0  0  0  0
   -1.7441    2.8802    3.7726 H   0  0  0  0  0  0  0  0  0  0  0  0
   -1.8365    1.6851    1.5485 H   0  0  0  0  0  0  0  0  0  0  0  0
   -1.2441    5.4483    1.5723 H   0  0  0  0  0  0  0  0  0  0  0  0
    0.0842    5.2025    0.4526 H   0  0  0  0  0  0  0  0  0  0  0  0
   -1.5699    5.4181   -0.1609 H   0  0  0  0  0  0  0  0  0  0  0  0
    0.0792    1.2913   -2.4024 H   0  0  0  0  0  0  0  0  0  0  0  0
   -1.1870   -0.7015   -2.9712 H   0  0  0  0  0  0  0  0  0  0  0  0
   -4.6173   -0.0173   -2.4213 H   0  0  0  0  0  0  0  0  0  0  0  0
   -4.0474    0.5726   -0.8526 H   0  0  0  0  0  0  0  0  0  0  0  0
   -2.9647   -1.9867   -3.4546 H   0  0  0  0  0  0  0  0  0  0  0  0
   -4.5723   -2.3881   -2.8660 H   0  0  0  0  0  0  0  0  0  0  0  0
   -3.2136   -3.3924   -2.4172 H   0  0  0  0  0  0  0  0  0  0  0  0
   -4.9877   -2.5026   -0.4040 H   0  0  0  0  0  0  0  0  0  0  0  0
   -5.4051    0.6494    2.3702 H   0  0  0  0  0  0  0  0  0  0  0  0
   -4.1557   -0.1792    3.3610 H   0  0  0  0  0  0  0  0  0  0  0  0
   -5.8811   -0.4965    3.6400 H   0  0  0  0  0  0  0  0  0  0  0  0
   -3.5479   -3.6692    1.3501 H   0  0  0  0  0  0  0  0  0  0  0  0
   -3.1665   -4.1271   -0.2993 H   0  0  0  0  0  0  0  0  0  0  0  0
   -1.0772   -3.8620    0.9052 H   0  0  0  0  0  0  0  0  0  0  0  0
   -1.9293   -2.6716    2.5942 H   0  0  0  0  0  0  0  0  0  0  0  0
   -1.3485   -4.0833   -1.5816 H   0  0  0  0  0  0  0  0  0  0  0  0
    0.3402   -3.7089   -1.5319 H   0  0  0  0  0  0  0  0  0  0  0  0
   -0.7184   -2.8383   -2.6317 H   0  0  0  0  0  0  0  0  0  0  0  0
   -2.0140   -0.4748   -0.0578 H   0  0  0  0  0  0  0  0  0  0  0  0
    0.0546   -0.8238    0.7907 H   0  0  0  0  0  0  0  0  0  0  0  0
    1.0961   -2.8007    1.4175 H   0  0  0  0  0  0  0  0  0  0  0  0
    1.7211   -3.1610   -0.1631 H   0  0  0  0  0  0  0  0  0  0  0  0
    3.4275   -1.4666   -0.0272 H   0  0  0  0  0  0  0  0  0  0  0  0
    3.2104   -2.6323    2.4789 H   0  0  0  0  0  0  0  0  0  0  0  0
    1.1227    0.7088    1.6050 H   0  0  0  0  0  0  0  0  0  0  0  0
    2.2139    2.6938    1.6212 H   0  0  0  0  0  0  0  0  0  0  0  0
    3.5165    1.7423    2.3478 H   0  0  0  0  0  0  0  0  0  0  0  0
    3.7548    3.2425    0.0348 H   0  0  0  0  0  0  0  0  0  0  0  0
    5.3037   -0.0868   -1.0016 H   0  0  0  0  0  0  0  0  0  0  0  0
    7.3603   -0.3983    0.6678 H   0  0  0  0  0  0  0  0  0  0  0  0
    7.8494    0.6375   -0.7060 H   0  0  0  0  0  0  0  0  0  0  0  0
    3.9328    1.4958   -2.7607 H   0  0  0  0  0  0  0  0  0  0  0  0
    2.1974    1.8419   -2.9263 H   0  0  0  0  0  0  0  0  0  0  0  0
    3.2659    3.0737   -2.3057 H   0  0  0  0  0  0  0  0  0  0  0  0
    0.9107   -1.6135   -2.8610 H   0  0  0  0  0  0  0  0  0  0  0  0
    1.9383   -0.2457   -3.0721 H   0  0  0  0  0  0  0  0  0  0  0  0
    2.4645   -1.5706   -2.0466 H   0  0  0  0  0  0  0  0  0  0  0  0
  1  2  1  0
  2  3  2  0
  3  4  1  0
  3  5  1  0
  5  6  2  0
  5  7  1  0
  7  8  1  0
  8  9  1  0
  9 10  1  0
 10 11  1  0
 11 12  1  0
 12 13  1  6
 12 14  1  0
 14 15  1  0
 15 16  1  0
 16 17  1  0
 16 18  2  0
 14 19  1  0
 19 20  1  0
 20 21  1  0
 20 22  1  0
 22 23  1  6
 22 24  1  0
 22 25  1  0
 25 26  1  0
 26 27  1  0
 27 28  1  0
 27 29  1  0
 29 30  1  0
 30 31  1  0
 31 32  1  0
 32 33  1  0
 33 34  2  0
 34 35  1  0
 35 36  1  0
 36 37  1  0
 37 38  2  0
 32 39  1  0
 39 40  1  0
 39 41  2  0
 41 42  1  0
 42 43  1  6
 42  8  1  0
 24  9  1  0
 42 25  1  0
 24 12  1  0
 41 30  1  0
 37 33  1  0
  1 44  1  0
  1 45  1  0
  1 46  1  0
  2 47  1  0
  4 48  1  0
  4 49  1  0
  4 50  1  0
  8 51  1  6
  9 52  1  6
 11 53  1  0
 11 54  1  0
 13 55  1  0
 13 56  1  0
 13 57  1  0
 14 58  1  6
 17 59  1  0
 17 60  1  0
 17 61  1  0
 19 62  1  0
 19 63  1  0
 20 64  1  1
 21 65  1  0
 23 66  1  0
 23 67  1  0
 23 68  1  0
 24 69  1  1
 25 70  1  1
 26 71  1  0
 26 72  1  0
 27 73  1  6
 28 74  1  0
 30 75  1  1
 31 76  1  0
 31 77  1  0
 32 78  1  6
 34 79  1  0
 35 80  1  0
 35 81  1  0
 40 82  1  0
 40 83  1  0
 40 84  1  0
 43 85  1  0
 43 86  1  0
 43 87  1  0
M  END
$$$$
