
     RDKit          3D

 74 79  0  0  0  0  0  0  0  0999 V2000
    7.4278   -2.2941   -2.6237 C   0  0  0  0  0  0  0  0  0  0  0  0
    6.5214   -2.0312   -1.4604 C   0  0  0  0  0  0  0  0  0  0  0  0
    5.9504   -2.9027   -0.8214 O   0  0  0  0  0  0  0  0  0  0  0  0
    6.4372   -0.6923   -1.2355 O   0  0  0  0  0  0  0  0  0  0  0  0
    5.5843   -0.2856   -0.1613 C   0  0  1  0  0  0  0  0  0  0  0  0
    6.0869    1.0613    0.4060 C   0  0  0  0  0  0  0  0  0  0  0  0
    4.8354    1.8756    0.7735 C   0  0  0  0  0  0  0  0  0  0  0  0
    3.6865    0.8885    0.5937 C   0  0  1  0  0  0  0  0  0  0  0  0
    2.2617    1.4319    0.4387 C   0  0  2  0  0  0  0  0  0  0  0  0
    1.8721    2.3246    1.6252 C   0  0  0  0  0  0  0  0  0  0  0  0
    0.4197    2.7845    1.5476 C   0  0  0  0  0  0  0  0  0  0  0  0
   -0.5398    1.5958    1.4091 C   0  0  1  0  0  0  0  0  0  0  0  0
   -2.0016    2.0712    1.4055 C   0  0  0  0  0  0  0  0  0  0  0  0
   -3.0119    0.9886    1.0604 C   0  0  0  0  0  0  0  0  0  0  0  0
   -4.4248    1.3068    1.2348 C   0  0  0  0  0  0  0  0  0  0  0  0
   -4.7805    2.6079    1.7199 C   0  0  0  0  0  0  0  0  0  0  0  0
   -5.0775    3.6617    2.1070 N   0  0  0  0  0  0  0  0  0  0  0  0
   -5.4010    0.4316    0.8872 C   0  0  0  0  0  0  0  0  0  0  0  0
   -6.7338    0.7938    0.9574 N   0  0  0  0  0  0  0  0  0  0  0  0
   -5.0366   -0.8540    0.4201 N   0  0  0  0  0  0  0  0  0  0  0  0
   -6.0791   -1.7873    0.0770 C   0  0  0  0  0  0  0  0  0  0  0  0
   -6.2692   -2.1704   -1.2572 C   0  0  0  0  0  0  0  0  0  0  0  0
   -7.3025   -3.0469   -1.5924 C   0  0  0  0  0  0  0  0  0  0  0  0
   -8.1505   -3.5399   -0.6003 C   0  0  0  0  0  0  0  0  0  0  0  0
   -7.9697   -3.1581    0.7289 C   0  0  0  0  0  0  0  0  0  0  0  0
   -6.9386   -2.2813    1.0686 C   0  0  0  0  0  0  0  0  0  0  0  0
   -3.6795   -1.2833    0.3289 C   0  0  0  0  0  0  0  0  0  0  0  0
   -3.2166   -2.9030    0.0342 S   0  0  0  0  0  0  0  0  0  0  0  0
   -2.6306   -0.2085    0.5754 C   0  0  0  0  0  0  0  0  0  0  0  0
   -1.1749   -0.5290    0.2685 C   0  0  0  0  0  0  0  0  0  0  0  0
   -0.2168    0.6958    0.1869 C   0  0  1  0  0  0  0  0  0  0  0  0
   -0.4669    1.4326   -1.1552 C   0  0  0  0  0  0  0  0  0  0  0  0
    1.2800    0.2261    0.3049 C   0  0  1  0  0  0  0  0  0  0  0  0
    1.7255   -0.7720   -0.7954 C   0  0  0  0  0  0  0  0  0  0  0  0
    3.2020   -1.1922   -0.6799 C   0  0  0  0  0  0  0  0  0  0  0  0
    4.1347    0.0249   -0.6030 C   0  0  2  0  0  0  0  0  0  0  0  0
    4.1333    0.7621   -1.9664 C   0  0  0  0  0  0  0  0  0  0  0  0
    8.4300   -1.9170   -2.4057 H   0  0  0  0  0  0  0  0  0  0  0  0
    7.0243   -1.8199   -3.5219 H   0  0  0  0  0  0  0  0  0  0  0  0
    7.4913   -3.3722   -2.7974 H   0  0  0  0  0  0  0  0  0  0  0  0
    5.6024   -1.0228    0.6535 H   0  0  0  0  0  0  0  0  0  0  0  0
    6.7076    1.6075   -0.3135 H   0  0  0  0  0  0  0  0  0  0  0  0
    6.7098    0.8849    1.2903 H   0  0  0  0  0  0  0  0  0  0  0  0
    4.8945    2.2546    1.7989 H   0  0  0  0  0  0  0  0  0  0  0  0
    4.7318    2.7387    0.1064 H   0  0  0  0  0  0  0  0  0  0  0  0
    3.6868    0.2548    1.4968 H   0  0  0  0  0  0  0  0  0  0  0  0
    2.2130    2.0492   -0.4645 H   0  0  0  0  0  0  0  0  0  0  0  0
    2.0263    1.7812    2.5663 H   0  0  0  0  0  0  0  0  0  0  0  0
    2.5201    3.2080    1.6619 H   0  0  0  0  0  0  0  0  0  0  0  0
    0.2981    3.4799    0.7089 H   0  0  0  0  0  0  0  0  0  0  0  0
    0.1787    3.3506    2.4558 H   0  0  0  0  0  0  0  0  0  0  0  0
   -0.4109    0.9816    2.3146 H   0  0  0  0  0  0  0  0  0  0  0  0
   -2.2124    2.4646    2.4090 H   0  0  0  0  0  0  0  0  0  0  0  0
   -2.1208    2.9073    0.7039 H   0  0  0  0  0  0  0  0  0  0  0  0
   -7.0291    1.7132    1.2658 H   0  0  0  0  0  0  0  0  0  0  0  0
   -7.4344    0.1821    0.5551 H   0  0  0  0  0  0  0  0  0  0  0  0
   -5.6201   -1.7849   -2.0388 H   0  0  0  0  0  0  0  0  0  0  0  0
   -7.4435   -3.3482   -2.6272 H   0  0  0  0  0  0  0  0  0  0  0  0
   -8.9505   -4.2276   -0.8635 H   0  0  0  0  0  0  0  0  0  0  0  0
   -8.6273   -3.5485    1.5014 H   0  0  0  0  0  0  0  0  0  0  0  0
   -6.7974   -1.9941    2.1075 H   0  0  0  0  0  0  0  0  0  0  0  0
   -0.8146   -1.2144    1.0476 H   0  0  0  0  0  0  0  0  0  0  0  0
   -1.1163   -1.0601   -0.6892 H   0  0  0  0  0  0  0  0  0  0  0  0
    0.1792    2.3056   -1.2786 H   0  0  0  0  0  0  0  0  0  0  0  0
   -1.4985    1.7848   -1.2511 H   0  0  0  0  0  0  0  0  0  0  0  0
   -0.2936    0.7736   -2.0119 H   0  0  0  0  0  0  0  0  0  0  0  0
    1.3543   -0.3347    1.2506 H   0  0  0  0  0  0  0  0  0  0  0  0
    1.5569   -0.3479   -1.7895 H   0  0  0  0  0  0  0  0  0  0  0  0
    1.1147   -1.6804   -0.7422 H   0  0  0  0  0  0  0  0  0  0  0  0
    3.4637   -1.8287   -1.5333 H   0  0  0  0  0  0  0  0  0  0  0  0
    3.3191   -1.8126    0.2180 H   0  0  0  0  0  0  0  0  0  0  0  0
    3.1475    1.1486   -2.2377 H   0  0  0  0  0  0  0  0  0  0  0  0
    4.8220    1.6127   -1.9826 H   0  0  0  0  0  0  0  0  0  0  0  0
    4.4411    0.0843   -2.7711 H   0  0  0  0  0  0  0  0  0  0  0  0
  1  2  1  0
  2  3  2  0
  2  4  1  0
  4  5  1  0
  5  6  1  0
  6  7  1  0
  7  8  1  0
  8  9  1  0
  9 10  1  0
 10 11  1  0
 11 12  1  0
 12 13  1  0
 13 14  1  0
 14 15  1  0
 15 16  1  0
 16 17  3  0
 15 18  2  0
 18 19  1  0
 18 20  1  0
 20 21  1  0
 21 22  2  0
 22 23  1  0
 23 24  2  0
 24 25  1  0
 25 26  2  0
 20 27  1  0
 27 28  2  0
 27 29  1  0
 29 30  1  0
 30 31  1  0
 31 32  1  6
 31 33  1  0
 33 34  1  0
 34 35  1  0
 35 36  1  0
 36 37  1  6
 36  5  1  0
 36  8  1  0
 33  9  1  0
 31 12  1  0
 29 14  2  0
 26 21  1  0
  1 38  1  0
  1 39  1  0
  1 40  1  0
  5 41  1  1
  6 42  1  0
  6 43  1  0
  7 44  1  0
  7 45  1  0
  8 46  1  1
  9 47  1  6
 10 48  1  0
 10 49  1  0
 11 50  1  0
 11 51  1  0
 12 52  1  1
 13 53  1  0
 13 54  1  0
 19 55  1  0
 19 56  1  0
 22 57  1  0
 23 58  1  0
 24 59  1  0
 25 60  1  0
 26 61  1  0
 30 62  1  0
 30 63  1  0
 32 64  1  0
 32 65  1  0
 32 66  1  0
 33 67  1  1
 34 68  1  0
 34 69  1  0
 35 70  1  0
 35 71  1  0
 37 72  1  0
 37 73  1  0
 37 74  1  0
M  END
$$$$
