
     RDKit          3D

 58 62  0  0  0  0  0  0  0  0999 V2000
    5.8912   -0.8082    0.6020 C   0  0  0  0  0  0  0  0  0  0  0  0
    6.2458    0.6168    0.3697 C   0  0  0  0  0  0  0  0  0  0  0  0
    5.3653    1.6837    0.1554 C   0  0  0  0  0  0  0  0  0  0  0  0
    3.9067    1.8229    0.0790 C   0  0  0  0  0  0  0  0  0  0  0  0
    3.3644    2.9118   -0.1126 O   0  0  0  0  0  0  0  0  0  0  0  0
    3.3019    0.6348    0.2422 N   0  0  0  0  0  0  0  0  0  0  0  0
    1.8360    0.6630    0.1913 N   0  0  0  0  0  0  0  0  0  0  0  0
    1.0480   -0.4542    0.3115 C   0  0  0  0  0  0  0  0  0  0  0  0
   -0.2957   -0.5971    0.2834 C   0  0  0  0  0  0  0  0  0  0  0  0
   -1.2266    0.4129    0.1419 N   0  0  0  0  0  0  0  0  0  0  0  0
   -2.6764    0.2349   -0.0420 N   0  0  0  0  0  0  0  0  0  0  0  0
   -3.4048    1.3609   -0.0642 C   0  0  0  0  0  0  0  0  0  0  0  0
   -2.9884    2.5179   -0.0015 O   0  0  0  0  0  0  0  0  0  0  0  0
   -4.8337    1.0510   -0.1862 C   0  0  0  0  0  0  0  0  0  0  0  0
   -5.6932    2.1264   -0.2443 O   0  0  0  0  0  0  0  0  0  0  0  0
   -6.9555    1.6518   -0.3547 C   0  0  0  0  0  0  0  0  0  0  0  0
   -8.1034    2.4383   -0.4409 C   0  0  0  0  0  0  0  0  0  0  0  0
   -9.3222    1.7613   -0.5495 C   0  0  0  0  0  0  0  0  0  0  0  0
   -9.3689    0.3655   -0.5691 C   0  0  0  0  0  0  0  0  0  0  0  0
   -8.1938   -0.3960   -0.4803 C   0  0  0  0  0  0  0  0  0  0  0  0
   -6.9550    0.2670   -0.3705 C   0  0  0  0  0  0  0  0  0  0  0  0
   -5.5842   -0.1287   -0.2611 C   0  0  0  0  0  0  0  0  0  0  0  0
   -5.0708   -1.5246   -0.2308 C   0  0  0  0  0  0  0  0  0  0  0  0
   -0.8032   -1.9818    0.4461 C   0  0  0  0  0  0  0  0  0  0  0  0
   -0.6480   -2.9271   -0.5776 C   0  0  0  0  0  0  0  0  0  0  0  0
   -1.1267   -4.2293   -0.4170 C   0  0  0  0  0  0  0  0  0  0  0  0
   -1.7644   -4.5867    0.7706 C   0  0  0  0  0  0  0  0  0  0  0  0
   -2.3609   -6.1925    0.9680 Cl  0  0  0  0  0  0  0  0  0  0  0  0
   -1.9293   -3.6587    1.7975 C   0  0  0  0  0  0  0  0  0  0  0  0
   -1.4484   -2.3584    1.6324 C   0  0  0  0  0  0  0  0  0  0  0  0
    6.1011    2.8364   -0.0145 O   0  0  0  0  0  0  0  0  0  0  0  0
    7.4124    2.5190    0.0865 C   0  0  0  0  0  0  0  0  0  0  0  0
    8.4677    3.4225   -0.0299 C   0  0  0  0  0  0  0  0  0  0  0  0
    9.7584    2.9017    0.1052 C   0  0  0  0  0  0  0  0  0  0  0  0
    9.9621    1.5409    0.3448 C   0  0  0  0  0  0  0  0  0  0  0  0
    8.8768    0.6586    0.4565 C   0  0  0  0  0  0  0  0  0  0  0  0
    7.5676    1.1635    0.3234 C   0  0  0  0  0  0  0  0  0  0  0  0
    6.7852   -1.4230    0.7473 H   0  0  0  0  0  0  0  0  0  0  0  0
    5.2758   -0.9156    1.5008 H   0  0  0  0  0  0  0  0  0  0  0  0
    5.3514   -1.2206   -0.2563 H   0  0  0  0  0  0  0  0  0  0  0  0
    1.3903    1.5695    0.0544 H   0  0  0  0  0  0  0  0  0  0  0  0
    1.6677   -1.3362    0.4490 H   0  0  0  0  0  0  0  0  0  0  0  0
   -0.8695    1.3610    0.0336 H   0  0  0  0  0  0  0  0  0  0  0  0
   -8.0355    3.5185   -0.4231 H   0  0  0  0  0  0  0  0  0  0  0  0
  -10.2430    2.3338   -0.6195 H   0  0  0  0  0  0  0  0  0  0  0  0
  -10.3265   -0.1411   -0.6542 H   0  0  0  0  0  0  0  0  0  0  0  0
   -8.2366   -1.4799   -0.4962 H   0  0  0  0  0  0  0  0  0  0  0  0
   -5.8854   -2.2506   -0.3178 H   0  0  0  0  0  0  0  0  0  0  0  0
   -4.3850   -1.7085   -1.0637 H   0  0  0  0  0  0  0  0  0  0  0  0
   -4.5565   -1.7284    0.7134 H   0  0  0  0  0  0  0  0  0  0  0  0
   -0.1634   -2.6236   -1.5026 H   0  0  0  0  0  0  0  0  0  0  0  0
   -1.0033   -4.9446   -1.2224 H   0  0  0  0  0  0  0  0  0  0  0  0
   -2.4350   -3.9246    2.7188 H   0  0  0  0  0  0  0  0  0  0  0  0
   -1.5874   -1.6073    2.4072 H   0  0  0  0  0  0  0  0  0  0  0  0
    8.2784    4.4721   -0.2156 H   0  0  0  0  0  0  0  0  0  0  0  0
   10.6117    3.5694    0.0220 H   0  0  0  0  0  0  0  0  0  0  0  0
   10.9734    1.1566    0.4468 H   0  0  0  0  0  0  0  0  0  0  0  0
    9.0418   -0.3972    0.6428 H   0  0  0  0  0  0  0  0  0  0  0  0
  1  2  1  0
  2  3  2  0
  3  4  1  0
  4  5  2  0
  4  6  1  0
  6  7  1  0
  7  8  1  0
  8  9  2  0
  9 10  1  0
 10 11  1  0
 11 12  1  0
 12 13  2  0
 12 14  1  0
 14 15  1  0
 15 16  1  0
 16 17  2  0
 17 18  1  0
 18 19  2  0
 19 20  1  0
 20 21  2  0
 21 22  1  0
 22 23  1  0
  9 24  1  0
 24 25  2  0
 25 26  1  0
 26 27  2  0
 27 28  1  0
 27 29  1  0
 29 30  2  0
  3 31  1  0
 31 32  1  0
 32 33  2  0
 33 34  1  0
 34 35  2  0
 35 36  1  0
 36 37  2  0
 37  2  1  0
 22 14  2  0
 30 24  1  0
 37 32  1  0
 21 16  1  0
  1 38  1  0
  1 39  1  0
  1 40  1  0
  7 41  1  0
  8 42  1  0
 10 43  1  0
 17 44  1  0
 18 45  1  0
 19 46  1  0
 20 47  1  0
 23 48  1  0
 23 49  1  0
 23 50  1  0
 25 51  1  0
 26 52  1  0
 29 53  1  0
 30 54  1  0
 33 55  1  0
 34 56  1  0
 35 57  1  0
 36 58  1  0
M  CHG  2   6  -1  11  -1
M  END
$$$$
