
     RDKit          3D

 50 56  0  0  0  0  0  0  0  0999 V2000
    0.5651    3.0090    3.1688 C   0  0  0  0  0  0  0  0  0  0  0  0
   -0.0630    2.8563    1.8221 C   0  0  0  0  0  0  0  0  0  0  0  0
   -0.4293    3.8928    1.0523 C   0  0  0  0  0  0  0  0  0  0  0  0
   -1.0341    3.6692   -0.3000 C   0  0  0  0  0  0  0  0  0  0  0  0
   -0.9597    4.6049   -1.0966 O   0  0  0  0  0  0  0  0  0  0  0  0
   -1.6125    2.2803   -0.4791 C   0  0  0  0  0  0  0  0  0  0  0  0
   -2.7702    2.0205   -1.1464 C   0  0  0  0  0  0  0  0  0  0  0  0
   -3.4163    2.8597   -1.8630 O   0  0  0  0  0  0  0  0  0  0  0  0
   -3.2865    0.4821   -0.8620 C   0  0  0  0  0  0  0  0  0  0  0  0
   -4.6794    0.1271   -0.7616 C   0  0  0  0  0  0  0  0  0  0  0  0
   -5.7181    0.9022   -0.7411 O   0  0  0  0  0  0  0  0  0  0  0  0
   -4.8685   -1.2785   -0.5879 C   0  0  0  0  0  0  0  0  0  0  0  0
   -3.9091   -2.3560   -0.5083 C   0  0  0  0  0  0  0  0  0  0  0  0
   -4.3598   -3.5308   -0.2057 O   0  0  0  0  0  0  0  0  0  0  0  0
   -2.4945   -1.9794   -0.6543 C   0  0  0  0  0  0  0  0  0  0  0  0
   -1.2838   -2.8635   -0.6523 C   0  0  0  0  0  0  0  0  0  0  0  0
   -1.2215   -4.3418   -1.1888 C   0  0  0  0  0  0  0  0  0  0  0  0
   -1.8048   -4.7501   -2.2467 O   0  0  0  0  0  0  0  0  0  0  0  0
   -0.3695   -5.1071   -0.4740 C   0  0  0  0  0  0  0  0  0  0  0  0
    0.5968   -4.5937    0.5238 C   0  0  0  0  0  0  0  0  0  0  0  0
    0.9216   -5.3336    1.4537 O   0  0  0  0  0  0  0  0  0  0  0  0
    1.0902   -3.1934    0.2172 C   0  0  0  0  0  0  0  0  0  0  0  0
    2.4667   -2.7760    0.5051 C   0  0  0  0  0  0  0  0  0  0  0  0
    3.3289   -3.6285    0.9554 O   0  0  0  0  0  0  0  0  0  0  0  0
    2.8089   -1.3633    0.1794 C   0  0  0  0  0  0  0  0  0  0  0  0
    4.1631   -0.6534    0.2703 C   0  0  0  0  0  0  0  0  0  0  0  0
    5.2718   -1.1200    0.7422 O   0  0  0  0  0  0  0  0  0  0  0  0
    4.2400    0.6731   -0.2227 C   0  0  0  0  0  0  0  0  0  0  0  0
    3.1773    1.3555   -0.7834 C   0  0  0  0  0  0  0  0  0  0  0  0
    3.3407    2.7175   -1.3716 C   0  0  0  0  0  0  0  0  0  0  0  0
    1.9509    0.7118   -0.8282 C   0  0  0  0  0  0  0  0  0  0  0  0
    1.6882   -0.5680   -0.2915 C   0  0  0  0  0  0  0  0  0  0  0  0
    0.2889   -1.0083   -0.3196 C   0  0  0  0  0  0  0  0  0  0  0  0
    0.0339   -2.3654   -0.2792 C   0  0  0  0  0  0  0  0  0  0  0  0
   -0.9028   -0.1629   -0.3765 C   0  0  0  0  0  0  0  0  0  0  0  0
   -0.8668    1.2238    0.1837 C   0  0  0  0  0  0  0  0  0  0  0  0
   -0.1929    1.5025    1.3194 C   0  0  0  0  0  0  0  0  0  0  0  0
   -2.2399   -0.5619   -0.6661 C   0  0  0  0  0  0  0  0  0  0  0  0
    0.6526    4.0618    3.4584 H   0  0  0  0  0  0  0  0  0  0  0  0
    1.5725    2.5787    3.1791 H   0  0  0  0  0  0  0  0  0  0  0  0
   -0.0357    2.5052    3.9336 H   0  0  0  0  0  0  0  0  0  0  0  0
   -0.2951    4.9242    1.3351 H   0  0  0  0  0  0  0  0  0  0  0  0
   -5.9101   -1.5906   -0.4695 H   0  0  0  0  0  0  0  0  0  0  0  0
   -0.2609   -6.1578   -0.6972 H   0  0  0  0  0  0  0  0  0  0  0  0
    5.2095    1.1645   -0.1759 H   0  0  0  0  0  0  0  0  0  0  0  0
    2.4467    3.3268   -1.2002 H   0  0  0  0  0  0  0  0  0  0  0  0
    3.5181    2.6435   -2.4490 H   0  0  0  0  0  0  0  0  0  0  0  0
    4.1833    3.2469   -0.9142 H   0  0  0  0  0  0  0  0  0  0  0  0
    1.1452    1.2363   -1.3405 H   0  0  0  0  0  0  0  0  0  0  0  0
    0.3244    0.7078    1.8535 H   0  0  0  0  0  0  0  0  0  0  0  0
  1  2  1  0
  2  3  2  0
  3  4  1  0
  4  5  2  0
  4  6  1  0
  6  7  2  0
  7  8  1  0
  7  9  1  0
  9 10  2  0
 10 11  1  0
 10 12  1  0
 12 13  2  0
 13 14  1  0
 13 15  1  0
 15 16  2  0
 16 17  1  0
 17 18  1  0
 17 19  2  0
 19 20  1  0
 20 21  2  0
 20 22  1  0
 22 23  1  0
 23 24  1  0
 23 25  2  0
 25 26  1  0
 26 27  1  0
 26 28  2  0
 28 29  1  0
 29 30  1  0
 29 31  2  0
 31 32  1  0
 32 33  2  0
 33 34  1  0
 33 35  1  0
 35 36  1  0
 36 37  2  0
 35 38  2  0
 37  2  1  0
 36  6  1  0
 38  9  1  0
 38 15  1  0
 34 16  1  0
 34 22  2  0
 32 25  1  0
  1 39  1  0
  1 40  1  0
  1 41  1  0
  3 42  1  0
 12 43  1  0
 19 44  1  0
 28 45  1  0
 30 46  1  0
 30 47  1  0
 30 48  1  0
 31 49  1  0
 37 50  1  0
M  CHG  6   8  -1  11  -1  14  -1  18  -1  24  -1  27  -1
M  END
$$$$
