
     RDKit          3D

 64 68  0  0  0  0  0  0  0  0999 V2000
    0.8477   -0.4187    1.3506 C   0  0  0  0  0  0  0  0  0  0  0  0
    1.2148   -1.7203    1.8156 O   0  0  0  0  0  0  0  0  0  0  0  0
    2.5000   -1.7143    2.3060 C   0  0  0  0  0  0  0  0  0  0  0  0
    2.7703   -1.1329    3.5444 C   0  0  0  0  0  0  0  0  0  0  0  0
    4.0706   -1.1594    4.0476 C   0  0  0  0  0  0  0  0  0  0  0  0
    5.1027   -1.7740    3.3203 C   0  0  0  0  0  0  0  0  0  0  0  0
    6.5113   -1.8231    3.8612 C   0  0  0  0  0  0  0  0  0  0  0  0
    6.7148   -0.9739    4.9084 F   0  0  0  0  0  0  0  0  0  0  0  0
    7.4487   -1.4911    2.9313 F   0  0  0  0  0  0  0  0  0  0  0  0
    6.8512   -3.0602    4.3161 F   0  0  0  0  0  0  0  0  0  0  0  0
    4.8075   -2.3811    2.0846 C   0  0  0  0  0  0  0  0  0  0  0  0
    3.5088   -2.3623    1.5746 C   0  0  0  0  0  0  0  0  0  0  0  0
    3.1375   -2.9505    0.3546 N   0  0  0  0  0  0  0  0  0  0  0  0
    3.9199   -3.5781   -0.5905 C   0  0  0  0  0  0  0  0  0  0  0  0
    5.1318   -3.7669   -0.5175 O   0  0  0  0  0  0  0  0  0  0  0  0
    3.1158   -4.0864   -1.8004 C   0  0  0  0  0  0  0  0  0  0  0  0
    1.7390   -3.5771   -1.8467 N   0  0  0  0  0  0  0  0  0  0  0  0
    1.3789   -2.2977   -2.2318 C   0  0  0  0  0  0  0  0  0  0  0  0
    2.2992   -1.3246   -2.6339 C   0  0  0  0  0  0  0  0  0  0  0  0
    1.8931   -0.0195   -2.9249 C   0  0  0  0  0  0  0  0  0  0  0  0
    0.5526    0.3377   -2.8077 C   0  0  0  0  0  0  0  0  0  0  0  0
   -0.3959   -0.6095   -2.4111 C   0  0  0  0  0  0  0  0  0  0  0  0
   -1.8096   -0.2085   -2.2545 C   0  0  0  0  0  0  0  0  0  0  0  0
   -2.7771   -0.9425   -2.8416 C   0  0  0  0  0  0  0  0  0  0  0  0
   -4.0844   -0.5360   -2.6872 N   0  0  0  0  0  0  0  0  0  0  0  0
   -5.2696   -1.0461   -3.1407 C   0  0  0  0  0  0  0  0  0  0  0  0
   -6.2369   -0.1925   -2.6508 C   0  0  0  0  0  0  0  0  0  0  0  0
   -5.6783    0.8245   -1.9126 N   0  0  0  0  0  0  0  0  0  0  0  0
   -4.3843    0.5820   -1.9607 C   0  0  0  0  0  0  0  0  0  0  0  0
   -3.3071    1.3453   -1.3547 C   0  0  0  0  0  0  0  0  0  0  0  0
   -3.5817    2.4742   -0.6246 N   0  0  0  0  0  0  0  0  0  0  0  0
   -2.5844    3.2927    0.0064 C   0  0  0  0  0  0  0  0  0  0  0  0
   -3.2513    4.4307    0.7336 C   0  0  0  0  0  0  0  0  0  0  0  0
   -3.4867    5.6502    0.0917 C   0  0  0  0  0  0  0  0  0  0  0  0
   -4.1270    6.6580    0.7952 C   0  0  0  0  0  0  0  0  0  0  0  0
   -4.5477    6.5322    2.0716 N   0  0  0  0  0  0  0  0  0  0  0  0
   -4.3254    5.3427    2.6694 C   0  0  0  0  0  0  0  0  0  0  0  0
   -3.6939    4.2753    2.0509 C   0  0  0  0  0  0  0  0  0  0  0  0
   -2.0661    0.9415   -1.5151 N   0  0  0  0  0  0  0  0  0  0  0  0
    0.0327   -1.9165   -2.1211 C   0  0  0  0  0  0  0  0  0  0  0  0
    1.5676   -0.0412    0.6161 H   0  0  0  0  0  0  0  0  0  0  0  0
    0.7463    0.2846    2.1836 H   0  0  0  0  0  0  0  0  0  0  0  0
   -0.1275   -0.5019    0.8622 H   0  0  0  0  0  0  0  0  0  0  0  0
    1.9737   -0.6721    4.1213 H   0  0  0  0  0  0  0  0  0  0  0  0
    4.2766   -0.7031    5.0151 H   0  0  0  0  0  0  0  0  0  0  0  0
    5.6142   -2.8687    1.5422 H   0  0  0  0  0  0  0  0  0  0  0  0
    2.1524   -2.8634    0.1081 H   0  0  0  0  0  0  0  0  0  0  0  0
    3.6554   -3.8495   -2.7234 H   0  0  0  0  0  0  0  0  0  0  0  0
    3.0739   -5.1779   -1.7126 H   0  0  0  0  0  0  0  0  0  0  0  0
    1.0027   -4.2651   -1.7294 H   0  0  0  0  0  0  0  0  0  0  0  0
    3.3577   -1.5532   -2.7216 H   0  0  0  0  0  0  0  0  0  0  0  0
    2.6277    0.7209   -3.2313 H   0  0  0  0  0  0  0  0  0  0  0  0
    0.2487    1.3603   -3.0211 H   0  0  0  0  0  0  0  0  0  0  0  0
   -2.5970   -1.8282   -3.4365 H   0  0  0  0  0  0  0  0  0  0  0  0
   -5.3261   -1.9366   -3.7492 H   0  0  0  0  0  0  0  0  0  0  0  0
   -7.3086   -0.2576   -2.7924 H   0  0  0  0  0  0  0  0  0  0  0  0
   -4.5588    2.7386   -0.5404 H   0  0  0  0  0  0  0  0  0  0  0  0
   -1.9923    2.7017    0.7159 H   0  0  0  0  0  0  0  0  0  0  0  0
   -1.8848    3.6901   -0.7389 H   0  0  0  0  0  0  0  0  0  0  0  0
   -3.1829    5.8148   -0.9371 H   0  0  0  0  0  0  0  0  0  0  0  0
   -4.3272    7.6216    0.3352 H   0  0  0  0  0  0  0  0  0  0  0  0
   -4.6829    5.2652    3.6923 H   0  0  0  0  0  0  0  0  0  0  0  0
   -3.5558    3.3415    2.5862 H   0  0  0  0  0  0  0  0  0  0  0  0
   -0.6944   -2.6445   -1.7677 H   0  0  0  0  0  0  0  0  0  0  0  0
  1  2  1  0
  2  3  1  0
  3  4  2  0
  4  5  1  0
  5  6  2  0
  6  7  1  0
  7  8  1  0
  7  9  1  0
  7 10  1  0
  6 11  1  0
 11 12  2  0
 12 13  1  0
 13 14  1  0
 14 15  2  0
 14 16  1  0
 16 17  1  0
 17 18  1  0
 18 19  2  0
 19 20  1  0
 20 21  2  0
 21 22  1  0
 22 23  1  0
 23 24  2  0
 24 25  1  0
 25 26  1  0
 26 27  2  0
 27 28  1  0
 28 29  2  0
 29 30  1  0
 30 31  1  0
 31 32  1  0
 32 33  1  0
 33 34  2  0
 34 35  1  0
 35 36  2  0
 36 37  1  0
 37 38  2  0
 30 39  2  0
 22 40  2  0
 12  3  1  0
 40 18  1  0
 39 23  1  0
 29 25  1  0
 38 33  1  0
  1 41  1  0
  1 42  1  0
  1 43  1  0
  4 44  1  0
  5 45  1  0
 11 46  1  0
 13 47  1  0
 16 48  1  0
 16 49  1  0
 17 50  1  0
 19 51  1  0
 20 52  1  0
 21 53  1  0
 24 54  1  0
 26 55  1  0
 27 56  1  0
 31 57  1  0
 32 58  1  0
 32 59  1  0
 34 60  1  0
 35 61  1  0
 37 62  1  0
 38 63  1  0
 40 64  1  0
M  END
$$$$
