
     RDKit          3D

 79 83  0  0  0  0  0  0  0  0999 V2000
    5.8268   -0.2391    1.9874 C   0  0  0  0  0  0  0  0  0  0  0  0
    5.4416   -0.7904    0.6033 C   0  0  1  0  0  0  0  0  0  0  0  0
    6.5066   -0.2087   -0.3791 C   0  0  0  0  0  0  0  0  0  0  0  0
    6.5935    1.0534   -0.4101 O   0  0  0  0  0  0  0  0  0  0  0  0
    7.1787   -1.0545   -1.0361 O   0  0  0  0  0  0  0  0  0  0  0  0
    5.4409   -2.3348    0.6709 C   0  0  0  0  0  0  0  0  0  0  0  0
    4.5132   -2.9402   -0.3817 C   0  0  0  0  0  0  0  0  0  0  0  0
    3.0234   -2.5542   -0.1438 C   0  0  2  0  0  0  0  0  0  0  0  0
    2.3800   -3.6407    0.7533 C   0  0  0  0  0  0  0  0  0  0  0  0
    2.3174   -2.5207   -1.5162 C   0  0  0  0  0  0  0  0  0  0  0  0
    0.8571   -2.0852   -1.4191 C   0  0  0  0  0  0  0  0  0  0  0  0
    0.6363   -0.6944   -0.7518 C   0  0  2  0  0  0  0  0  0  0  0  0
    1.1155    0.3763   -1.7780 C   0  0  0  0  0  0  0  0  0  0  0  0
    1.5252   -0.5143    0.4918 C   0  0  0  0  0  0  0  0  0  0  0  0
    1.1164    0.2383    1.5341 C   0  0  0  0  0  0  0  0  0  0  0  0
   -0.1940    0.9585    1.6470 C   0  0  0  0  0  0  0  0  0  0  0  0
   -1.0996    0.8846    0.3968 C   0  0  2  0  0  0  0  0  0  0  0  0
   -2.5884    1.4088    0.6310 C   0  0  1  0  0  0  0  0  0  0  0  0
   -3.3298    0.5990    1.7279 C   0  0  0  0  0  0  0  0  0  0  0  0
   -2.5330    2.8926    1.1161 C   0  0  0  0  0  0  0  0  0  0  0  0
   -3.8838    3.6277    1.0717 C   0  0  0  0  0  0  0  0  0  0  0  0
   -4.5324    3.5585   -0.3146 C   0  0  1  0  0  0  0  0  0  0  0  0
   -3.6717    4.3438   -1.1534 O   0  0  0  0  0  0  0  0  0  0  0  0
   -4.7081    2.0938   -0.8064 C   0  0  1  0  0  0  0  0  0  0  0  0
   -5.8215    1.3993    0.0026 C   0  0  0  0  0  0  0  0  0  0  0  0
   -5.2346    2.1404   -2.2846 C   0  0  0  0  0  0  0  0  0  0  0  0
   -6.0909    1.2718   -2.6156 O   0  0  0  0  0  0  0  0  0  0  0  0
   -4.7386    3.0568   -3.0081 O   0  0  0  0  0  0  0  0  0  0  0  0
   -3.3190    1.3759   -0.7680 C   0  0  2  0  0  0  0  0  0  0  0  0
   -3.2954   -0.0451   -1.3653 C   0  0  0  0  0  0  0  0  0  0  0  0
   -1.8532   -0.5093   -1.6084 C   0  0  0  0  0  0  0  0  0  0  0  0
   -0.9394   -0.4963   -0.3500 C   0  0  1  0  0  0  0  0  0  0  0  0
   -1.3981   -1.6780    0.5593 C   0  0  0  0  0  0  0  0  0  0  0  0
    2.9079   -1.1742    0.5710 C   0  0  2  0  0  0  0  0  0  0  0  0
    4.0619   -0.2356    0.1523 C   0  0  0  0  0  0  0  0  0  0  0  0
    5.8241    0.8566    2.0148 H   0  0  0  0  0  0  0  0  0  0  0  0
    5.1268   -0.5800    2.7585 H   0  0  0  0  0  0  0  0  0  0  0  0
    6.8308   -0.5712    2.2769 H   0  0  0  0  0  0  0  0  0  0  0  0
    6.4515   -2.7401    0.5431 H   0  0  0  0  0  0  0  0  0  0  0  0
    5.1162   -2.6766    1.6621 H   0  0  0  0  0  0  0  0  0  0  0  0
    4.8458   -2.6020   -1.3715 H   0  0  0  0  0  0  0  0  0  0  0  0
    4.6283   -4.0313   -0.3873 H   0  0  0  0  0  0  0  0  0  0  0  0
    1.3561   -3.3871    1.0441 H   0  0  0  0  0  0  0  0  0  0  0  0
    2.9499   -3.7766    1.6793 H   0  0  0  0  0  0  0  0  0  0  0  0
    2.3509   -4.6088    0.2406 H   0  0  0  0  0  0  0  0  0  0  0  0
    2.3564   -3.5167   -1.9770 H   0  0  0  0  0  0  0  0  0  0  0  0
    2.8509   -1.8557   -2.2053 H   0  0  0  0  0  0  0  0  0  0  0  0
    0.4317   -2.0812   -2.4310 H   0  0  0  0  0  0  0  0  0  0  0  0
    0.3300   -2.8795   -0.8897 H   0  0  0  0  0  0  0  0  0  0  0  0
    0.5761    0.3092   -2.7268 H   0  0  0  0  0  0  0  0  0  0  0  0
    1.0178    1.3992   -1.4043 H   0  0  0  0  0  0  0  0  0  0  0  0
    2.1720    0.2551   -2.0337 H   0  0  0  0  0  0  0  0  0  0  0  0
    1.7787    0.3605    2.3895 H   0  0  0  0  0  0  0  0  0  0  0  0
    0.0224    2.0103    1.8699 H   0  0  0  0  0  0  0  0  0  0  0  0
   -0.6927    0.5551    2.5313 H   0  0  0  0  0  0  0  0  0  0  0  0
   -0.6834    1.6326   -0.2913 H   0  0  0  0  0  0  0  0  0  0  0  0
   -3.9934    1.2211    2.3342 H   0  0  0  0  0  0  0  0  0  0  0  0
   -3.9508   -0.2013    1.3216 H   0  0  0  0  0  0  0  0  0  0  0  0
   -2.6541    0.1401    2.4514 H   0  0  0  0  0  0  0  0  0  0  0  0
   -2.1484    2.9416    2.1425 H   0  0  0  0  0  0  0  0  0  0  0  0
   -1.8182    3.4521    0.4983 H   0  0  0  0  0  0  0  0  0  0  0  0
   -3.6989    4.6777    1.3337 H   0  0  0  0  0  0  0  0  0  0  0  0
   -4.5630    3.2416    1.8368 H   0  0  0  0  0  0  0  0  0  0  0  0
   -5.5010    4.0723   -0.2919 H   0  0  0  0  0  0  0  0  0  0  0  0
   -3.9289    4.0887   -2.0794 H   0  0  0  0  0  0  0  0  0  0  0  0
   -6.8034    1.8342   -0.2250 H   0  0  0  0  0  0  0  0  0  0  0  0
   -5.8827    0.3285   -0.2192 H   0  0  0  0  0  0  0  0  0  0  0  0
   -5.7039    1.5046    1.0808 H   0  0  0  0  0  0  0  0  0  0  0  0
   -2.6832    1.9674   -1.4473 H   0  0  0  0  0  0  0  0  0  0  0  0
   -3.8300   -0.7641   -0.7393 H   0  0  0  0  0  0  0  0  0  0  0  0
   -3.8019   -0.0582   -2.3363 H   0  0  0  0  0  0  0  0  0  0  0  0
   -1.4455    0.1486   -2.3816 H   0  0  0  0  0  0  0  0  0  0  0  0
   -1.8794   -1.5131   -2.0495 H   0  0  0  0  0  0  0  0  0  0  0  0
   -0.7616   -1.8086    1.4384 H   0  0  0  0  0  0  0  0  0  0  0  0
   -1.4134   -2.6289    0.0191 H   0  0  0  0  0  0  0  0  0  0  0  0
   -2.4188   -1.5678    0.9164 H   0  0  0  0  0  0  0  0  0  0  0  0
    3.0710   -1.3718    1.6427 H   0  0  0  0  0  0  0  0  0  0  0  0
    4.0514   -0.1073   -0.9368 H   0  0  0  0  0  0  0  0  0  0  0  0
    3.9066    0.7670    0.5718 H   0  0  0  0  0  0  0  0  0  0  0  0
  2  1  1  1
  2  3  1  0
  3  4  2  0
  3  5  1  0
  2  6  1  0
  6  7  1  0
  7  8  1  0
  8  9  1  1
  8 10  1  0
 10 11  1  0
 11 12  1  0
 12 13  1  6
 12 14  1  0
 14 15  2  0
 15 16  1  0
 16 17  1  0
 17 18  1  0
 18 19  1  1
 18 20  1  0
 20 21  1  0
 21 22  1  0
 22 23  1  0
 22 24  1  0
 24 25  1  1
 24 26  1  0
 26 27  2  0
 26 28  1  0
 24 29  1  0
 29 30  1  0
 30 31  1  0
 31 32  1  0
 32 33  1  1
 14 34  1  0
 34 35  1  0
 35  2  1  0
 34  8  1  0
 32 12  1  0
 32 17  1  0
 29 18  1  0
  1 36  1  0
  1 37  1  0
  1 38  1  0
  6 39  1  0
  6 40  1  0
  7 41  1  0
  7 42  1  0
  9 43  1  0
  9 44  1  0
  9 45  1  0
 10 46  1  0
 10 47  1  0
 11 48  1  0
 11 49  1  0
 13 50  1  0
 13 51  1  0
 13 52  1  0
 15 53  1  0
 16 54  1  0
 16 55  1  0
 17 56  1  6
 19 57  1  0
 19 58  1  0
 19 59  1  0
 20 60  1  0
 20 61  1  0
 21 62  1  0
 21 63  1  0
 22 64  1  1
 23 65  1  0
 25 66  1  0
 25 67  1  0
 25 68  1  0
 29 69  1  6
 30 70  1  0
 30 71  1  0
 31 72  1  0
 31 73  1  0
 33 74  1  0
 33 75  1  0
 33 76  1  0
 34 77  1  1
 35 78  1  0
 35 79  1  0
M  CHG  2   5  -1  28  -1
M  END
$$$$
