
     RDKit          3D

 30 32  0  0  0  0  0  0  0  0999 V2000
    1.5178    3.0085    0.5728 O   0  0  0  0  0  0  0  0  0  0  0  0
    1.2884    1.7476    1.2578 S   0  0  0  0  0  0  0  0  0  0  0  0
    1.3437    1.6858    2.7091 O   0  0  0  0  0  0  0  0  0  0  0  0
    2.5448    0.6424    0.6392 C   0  0  0  0  0  0  0  0  0  0  0  0
    2.4389    0.1283   -0.6574 C   0  0  0  0  0  0  0  0  0  0  0  0
    3.4154   -0.7519   -1.1283 C   0  0  0  0  0  0  0  0  0  0  0  0
    4.4848   -1.1066   -0.3046 C   0  0  0  0  0  0  0  0  0  0  0  0
    5.8101   -2.2933   -0.9470 Br  0  0  0  0  0  0  0  0  0  0  0  0
    4.5879   -0.5942    0.9901 C   0  0  0  0  0  0  0  0  0  0  0  0
    3.6128    0.2832    1.4677 C   0  0  0  0  0  0  0  0  0  0  0  0
   -0.2797    1.0939    0.7606 C   0  0  0  0  0  0  0  0  0  0  0  0
   -1.0612    1.7863   -0.1689 C   0  0  0  0  0  0  0  0  0  0  0  0
   -2.2406    1.2025   -0.6342 C   0  0  0  0  0  0  0  0  0  0  0  0
   -2.6359   -0.0592   -0.1715 C   0  0  0  0  0  0  0  0  0  0  0  0
   -3.8440   -0.7367   -0.6849 C   0  0  0  0  0  0  0  0  0  0  0  0
   -4.2333   -1.9118   -0.3096 N   0  0  0  0  0  0  0  0  0  0  0  0
   -5.3556   -2.1533   -1.0267 N   0  0  0  0  0  0  0  0  0  0  0  0
   -5.5534   -1.0790   -1.7969 C   0  0  0  0  0  0  0  0  0  0  0  0
   -6.8271   -0.8993   -2.8821 S   0  0  0  0  0  0  0  0  0  0  0  0
   -4.6105   -0.1597   -1.6007 N   0  0  0  0  0  0  0  0  0  0  0  0
   -1.8583   -0.7225    0.7856 C   0  0  0  0  0  0  0  0  0  0  0  0
   -0.6789   -0.1501    1.2593 C   0  0  0  0  0  0  0  0  0  0  0  0
    1.6050    0.3965   -1.3042 H   0  0  0  0  0  0  0  0  0  0  0  0
    3.3253   -1.1580   -2.1330 H   0  0  0  0  0  0  0  0  0  0  0  0
    5.4168   -0.8751    1.6338 H   0  0  0  0  0  0  0  0  0  0  0  0
    3.6873    0.6788    2.4783 H   0  0  0  0  0  0  0  0  0  0  0  0
   -0.7623    2.7554   -0.5559 H   0  0  0  0  0  0  0  0  0  0  0  0
   -2.8575    1.7091   -1.3723 H   0  0  0  0  0  0  0  0  0  0  0  0
   -2.1944   -1.6983    1.1325 H   0  0  0  0  0  0  0  0  0  0  0  0
   -0.0864   -0.6891    1.9913 H   0  0  0  0  0  0  0  0  0  0  0  0
  1  2  2  0
  2  3  2  0
  2  4  1  0
  4  5  2  0
  5  6  1  0
  6  7  2  0
  7  8  1  0
  7  9  1  0
  9 10  2  0
  2 11  1  0
 11 12  2  0
 12 13  1  0
 13 14  2  0
 14 15  1  0
 15 16  2  0
 16 17  1  0
 17 18  1  0
 18 19  2  0
 18 20  1  0
 14 21  1  0
 21 22  2  0
 10  4  1  0
 22 11  1  0
 20 15  1  0
  5 23  1  0
  6 24  1  0
  9 25  1  0
 10 26  1  0
 12 27  1  0
 13 28  1  0
 21 29  1  0
 22 30  1  0
M  CHG  2  17  -1  20  -1
M  END
$$$$
