
     RDKit          3D

 67 68  0  0  0  0  0  0  0  0999 V2000
   -5.8144   -0.2422   -2.8172 C   0  0  0  0  0  0  0  0  0  0  0  0
   -5.2779    0.3921   -1.5409 C   0  0  0  0  0  0  0  0  0  0  0  0
   -4.2445   -0.5174   -0.8638 C   0  0  0  0  0  0  0  0  0  0  0  0
   -3.6216    0.0224    0.4634 C   0  0  0  0  0  0  0  0  0  0  0  0
   -4.7226    0.3816    1.5112 C   0  0  0  0  0  0  0  0  0  0  0  0
   -5.6855   -0.7510    1.8864 C   0  0  0  0  0  0  0  0  0  0  0  0
   -6.7053   -0.2861    2.9168 C   0  0  0  0  0  0  0  0  0  0  0  0
   -2.6787   -1.0585    1.0611 C   0  0  0  0  0  0  0  0  0  0  0  0
   -1.4129   -1.3028    0.2336 C   0  0  0  0  0  0  0  0  0  0  0  0
   -0.5783   -0.0216   -0.0084 C   0  0  0  0  0  0  0  0  0  0  0  0
    0.5354   -0.3117   -1.0530 C   0  0  0  0  0  0  0  0  0  0  0  0
    1.7955   -0.8784   -0.4182 C   0  0  0  0  0  0  0  0  0  0  0  0
    2.4217    0.1309    0.5405 N   0  0  0  0  0  0  0  0  0  0  0  0
    3.6382    0.8522   -0.0124 C   0  0  0  0  0  0  0  0  0  0  0  0
    4.8790   -0.0543   -0.0134 C   0  0  0  0  0  0  0  0  0  0  0  0
    6.1045    0.7076   -0.5392 C   0  0  0  0  0  0  0  0  0  0  0  0
    7.3689   -0.1234   -0.4480 N   0  0  0  0  0  0  0  0  0  0  0  0
    8.6068    0.7453   -0.5921 C   0  0  0  0  0  0  0  0  0  0  0  0
    7.4349   -1.2676   -1.4329 C   0  0  0  0  0  0  0  0  0  0  0  0
    1.4065    1.1307    1.1019 C   0  0  0  0  0  0  0  0  0  0  0  0
    0.0735    0.4349    1.3276 C   0  0  0  0  0  0  0  0  0  0  0  0
   -1.5042    1.0768   -0.5902 C   0  0  0  0  0  0  0  0  0  0  0  0
   -2.7867    1.3072    0.2143 C   0  0  0  0  0  0  0  0  0  0  0  0
   -5.0083   -0.4201   -3.5361 H   0  0  0  0  0  0  0  0  0  0  0  0
   -6.3037   -1.1980   -2.6044 H   0  0  0  0  0  0  0  0  0  0  0  0
   -6.5495    0.4181   -3.2880 H   0  0  0  0  0  0  0  0  0  0  0  0
   -4.8315    1.3579   -1.7965 H   0  0  0  0  0  0  0  0  0  0  0  0
   -6.1220    0.5857   -0.8719 H   0  0  0  0  0  0  0  0  0  0  0  0
   -4.7116   -1.4919   -0.6709 H   0  0  0  0  0  0  0  0  0  0  0  0
   -3.4527   -0.7194   -1.5940 H   0  0  0  0  0  0  0  0  0  0  0  0
   -4.2336    0.7310    2.4313 H   0  0  0  0  0  0  0  0  0  0  0  0
   -5.3057    1.2382    1.1491 H   0  0  0  0  0  0  0  0  0  0  0  0
   -6.2247   -1.1089    1.0039 H   0  0  0  0  0  0  0  0  0  0  0  0
   -5.1343   -1.6006    2.3019 H   0  0  0  0  0  0  0  0  0  0  0  0
   -7.3059    0.5425    2.5280 H   0  0  0  0  0  0  0  0  0  0  0  0
   -6.2116    0.0473    3.8351 H   0  0  0  0  0  0  0  0  0  0  0  0
   -7.3838   -1.1054    3.1744 H   0  0  0  0  0  0  0  0  0  0  0  0
   -2.3847   -0.7694    2.0784 H   0  0  0  0  0  0  0  0  0  0  0  0
   -3.2097   -2.0131    1.1579 H   0  0  0  0  0  0  0  0  0  0  0  0
   -1.6964   -1.7515   -0.7261 H   0  0  0  0  0  0  0  0  0  0  0  0
   -0.8032   -2.0620    0.7398 H   0  0  0  0  0  0  0  0  0  0  0  0
    0.8007    0.6070   -1.5937 H   0  0  0  0  0  0  0  0  0  0  0  0
    0.1685   -1.0083   -1.8167 H   0  0  0  0  0  0  0  0  0  0  0  0
    2.5369   -1.1343   -1.1802 H   0  0  0  0  0  0  0  0  0  0  0  0
    1.5838   -1.7769    0.1710 H   0  0  0  0  0  0  0  0  0  0  0  0
    2.7143   -0.4163    1.3628 H   0  0  0  0  0  0  0  0  0  0  0  0
    3.3831    1.2077   -1.0166 H   0  0  0  0  0  0  0  0  0  0  0  0
    3.8195    1.7164    0.6368 H   0  0  0  0  0  0  0  0  0  0  0  0
    5.0749   -0.4084    1.0060 H   0  0  0  0  0  0  0  0  0  0  0  0
    4.6956   -0.9377   -0.6320 H   0  0  0  0  0  0  0  0  0  0  0  0
    6.2699    1.6022    0.0717 H   0  0  0  0  0  0  0  0  0  0  0  0
    5.9801    1.0079   -1.5854 H   0  0  0  0  0  0  0  0  0  0  0  0
    7.4420   -0.5349    0.4936 H   0  0  0  0  0  0  0  0  0  0  0  0
    8.5784    1.5028    0.1955 H   0  0  0  0  0  0  0  0  0  0  0  0
    9.4853    0.1079   -0.4621 H   0  0  0  0  0  0  0  0  0  0  0  0
    8.5921    1.2046   -1.5839 H   0  0  0  0  0  0  0  0  0  0  0  0
    8.3870   -1.7858   -1.2898 H   0  0  0  0  0  0  0  0  0  0  0  0
    7.3566   -0.8604   -2.4443 H   0  0  0  0  0  0  0  0  0  0  0  0
    6.6125   -1.9525   -1.2179 H   0  0  0  0  0  0  0  0  0  0  0  0
    1.8264    1.4995    2.0435 H   0  0  0  0  0  0  0  0  0  0  0  0
    1.3223    1.9615    0.3926 H   0  0  0  0  0  0  0  0  0  0  0  0
    0.2433   -0.4279    1.9856 H   0  0  0  0  0  0  0  0  0  0  0  0
   -0.5864    1.1062    1.8852 H   0  0  0  0  0  0  0  0  0  0  0  0
   -1.7764    0.8186   -1.6216 H   0  0  0  0  0  0  0  0  0  0  0  0
   -0.9592    2.0272   -0.6554 H   0  0  0  0  0  0  0  0  0  0  0  0
   -3.3904    2.0678   -0.2936 H   0  0  0  0  0  0  0  0  0  0  0  0
   -2.5199    1.7587    1.1779 H   0  0  0  0  0  0  0  0  0  0  0  0
  1  2  1  0
  2  3  1  0
  3  4  1  0
  4  5  1  0
  5  6  1  0
  6  7  1  0
  4  8  1  0
  8  9  1  0
  9 10  1  0
 10 11  1  0
 11 12  1  0
 12 13  1  0
 13 14  1  0
 14 15  1  0
 15 16  1  0
 16 17  1  0
 17 18  1  0
 17 19  1  0
 13 20  1  0
 20 21  1  0
 10 22  1  0
 22 23  1  0
 23  4  1  0
 21 10  1  0
  1 24  1  0
  1 25  1  0
  1 26  1  0
  2 27  1  0
  2 28  1  0
  3 29  1  0
  3 30  1  0
  5 31  1  0
  5 32  1  0
  6 33  1  0
  6 34  1  0
  7 35  1  0
  7 36  1  0
  7 37  1  0
  8 38  1  0
  8 39  1  0
  9 40  1  0
  9 41  1  0
 11 42  1  0
 11 43  1  0
 12 44  1  0
 12 45  1  0
 13 46  1  0
 14 47  1  0
 14 48  1  0
 15 49  1  0
 15 50  1  0
 16 51  1  0
 16 52  1  0
 17 53  1  0
 18 54  1  0
 18 55  1  0
 18 56  1  0
 19 57  1  0
 19 58  1  0
 19 59  1  0
 20 60  1  0
 20 61  1  0
 21 62  1  0
 21 63  1  0
 22 64  1  0
 22 65  1  0
 23 66  1  0
 23 67  1  0
M  CHG  2  13   1  17   1
M  END
$$$$
