
     RDKit          3D

 41 42  0  0  0  0  0  0  0  0999 V2000
    8.4957    1.8741    0.1371 C   0  0  0  0  0  0  0  0  0  0  0  0
    7.5334    1.0872    0.8213 O   0  0  0  0  0  0  0  0  0  0  0  0
    6.2951    0.9507    0.2205 C   0  0  0  0  0  0  0  0  0  0  0  0
    5.3396    0.4986    1.1533 C   0  0  0  0  0  0  0  0  0  0  0  0
    4.0115    0.2877    0.7940 C   0  0  0  0  0  0  0  0  0  0  0  0
    3.6077    0.5334   -0.5131 C   0  0  0  0  0  0  0  0  0  0  0  0
    2.2257    0.2998   -0.9720 C   0  0  0  0  0  0  0  0  0  0  0  0
    1.1351    0.4212   -0.1980 C   0  0  0  0  0  0  0  0  0  0  0  0
   -0.2159    0.1456   -0.7361 C   0  0  0  0  0  0  0  0  0  0  0  0
   -0.4670   -0.1957   -1.8805 O   0  0  0  0  0  0  0  0  0  0  0  0
   -1.1082    0.3417    0.2674 O   0  0  0  0  0  0  0  0  0  0  0  0
   -2.4662    0.0182   -0.0625 C   0  0  0  0  0  0  0  0  0  0  0  0
   -2.7082   -1.4911   -0.1097 C   0  0  0  0  0  0  0  0  0  0  0  0
   -1.8701   -2.3064    0.2958 O   0  0  0  0  0  0  0  0  0  0  0  0
   -4.0132   -1.9553   -0.7207 C   0  0  0  0  0  0  0  0  0  0  0  0
   -5.2155   -1.4342    0.0042 C   0  0  0  0  0  0  0  0  0  0  0  0
   -5.5539   -1.9010    1.2613 C   0  0  0  0  0  0  0  0  0  0  0  0
   -6.6699   -1.3701    1.9100 C   0  0  0  0  0  0  0  0  0  0  0  0
   -7.5145   -0.3578    1.3753 C   0  0  0  0  0  0  0  0  0  0  0  0
   -8.5106    0.0290    2.0980 O   0  0  0  0  0  0  0  0  0  0  0  0
   -7.1632    0.1441    0.0493 C   0  0  0  0  0  0  0  0  0  0  0  0
   -7.7901    1.0577   -0.6107 O   0  0  0  0  0  0  0  0  0  0  0  0
   -6.0170   -0.4361   -0.5661 C   0  0  0  0  0  0  0  0  0  0  0  0
    4.5828    0.9554   -1.4407 C   0  0  0  0  0  0  0  0  0  0  0  0
    5.9560    1.1824   -1.1418 C   0  0  0  0  0  0  0  0  0  0  0  0
    6.7506    1.5459   -2.0787 O   0  0  0  0  0  0  0  0  0  0  0  0
    8.9397    1.3234   -0.6973 H   0  0  0  0  0  0  0  0  0  0  0  0
    9.3089    2.0726    0.8437 H   0  0  0  0  0  0  0  0  0  0  0  0
    8.0986    2.8503   -0.1605 H   0  0  0  0  0  0  0  0  0  0  0  0
    5.6510    0.3110    2.1762 H   0  0  0  0  0  0  0  0  0  0  0  0
    3.3173   -0.0784    1.5418 H   0  0  0  0  0  0  0  0  0  0  0  0
    2.1226    0.0188   -2.0185 H   0  0  0  0  0  0  0  0  0  0  0  0
    1.1870    0.7195    0.8410 H   0  0  0  0  0  0  0  0  0  0  0  0
   -2.7427    0.4758   -1.0188 H   0  0  0  0  0  0  0  0  0  0  0  0
   -3.0976    0.4455    0.7221 H   0  0  0  0  0  0  0  0  0  0  0  0
   -4.0351   -3.0520   -0.7144 H   0  0  0  0  0  0  0  0  0  0  0  0
   -4.0183   -1.6554   -1.7752 H   0  0  0  0  0  0  0  0  0  0  0  0
   -4.9723   -2.6689    1.7563 H   0  0  0  0  0  0  0  0  0  0  0  0
   -6.9189   -1.7523    2.8987 H   0  0  0  0  0  0  0  0  0  0  0  0
   -5.7628   -0.0589   -1.5569 H   0  0  0  0  0  0  0  0  0  0  0  0
    4.2729    1.1241   -2.4743 H   0  0  0  0  0  0  0  0  0  0  0  0
  1  2  1  0
  2  3  1  0
  3  4  2  0
  4  5  1  0
  5  6  2  0
  6  7  1  0
  7  8  2  0
  8  9  1  0
  9 10  2  0
  9 11  1  0
 11 12  1  0
 12 13  1  0
 13 14  2  0
 13 15  1  0
 15 16  1  0
 16 17  2  0
 17 18  1  0
 18 19  2  0
 19 20  1  0
 19 21  1  0
 21 22  1  0
 21 23  2  0
  6 24  1  0
 24 25  2  0
 25 26  1  0
 25  3  1  0
 23 16  1  0
  1 27  1  0
  1 28  1  0
  1 29  1  0
  4 30  1  0
  5 31  1  0
  7 32  1  0
  8 33  1  0
 12 34  1  0
 12 35  1  0
 15 36  1  0
 15 37  1  0
 17 38  1  0
 18 39  1  0
 23 40  1  0
 24 41  1  0
M  CHG  3  20  -1  22  -1  26  -1
M  END
$$$$
