
     RDKit          3D

 63 68  0  0  0  0  0  0  0  0999 V2000
   -4.9231    4.6576   -1.6015 C   0  0  0  0  0  0  0  0  0  0  0  0
   -4.5053    3.3868   -0.9958 C   0  0  0  0  0  0  0  0  0  0  0  0
   -3.2411    2.9221   -0.9759 N   0  0  0  0  0  0  0  0  0  0  0  0
   -3.2770    1.7358   -0.3200 C   0  0  0  0  0  0  0  0  0  0  0  0
   -4.5852    1.4741    0.0622 C   0  0  0  0  0  0  0  0  0  0  0  0
   -5.3291    2.5335   -0.3574 N   0  0  0  0  0  0  0  0  0  0  0  0
   -5.1538    0.2139    0.8468 C   0  0  0  0  0  0  0  0  0  0  0  0
   -6.5437    0.2533    1.0853 C   0  0  0  0  0  0  0  0  0  0  0  0
   -7.2072   -0.8054    1.6976 C   0  0  0  0  0  0  0  0  0  0  0  0
   -6.4863   -1.9246    2.0799 C   0  0  0  0  0  0  0  0  0  0  0  0
   -5.1067   -1.9759    1.8524 C   0  0  0  0  0  0  0  0  0  0  0  0
   -4.4018   -0.9185    1.2368 C   0  0  0  0  0  0  0  0  0  0  0  0
   -2.9701   -1.0453    1.0845 N   0  0  0  0  0  0  0  0  0  0  0  0
   -2.3679   -2.2923    0.8214 C   0  0  0  0  0  0  0  0  0  0  0  0
   -2.9184   -3.3872    0.7261 O   0  0  0  0  0  0  0  0  0  0  0  0
   -0.9150   -2.3084    0.5647 C   0  0  0  0  0  0  0  0  0  0  0  0
   -0.0151   -2.5043    1.6137 C   0  0  0  0  0  0  0  0  0  0  0  0
    1.3584   -2.4012    1.3698 C   0  0  0  0  0  0  0  0  0  0  0  0
    1.8261   -2.1153    0.0838 C   0  0  0  0  0  0  0  0  0  0  0  0
    3.1744   -1.8561   -0.2241 N   0  0  0  0  0  0  0  0  0  0  0  0
    4.2419   -1.7904    0.6466 C   0  0  0  0  0  0  0  0  0  0  0  0
    4.2812   -2.1913    1.8038 O   0  0  0  0  0  0  0  0  0  0  0  0
    5.4762   -1.1830    0.0675 C   0  0  0  0  0  0  0  0  0  0  0  0
    6.6762   -1.8777    0.2928 C   0  0  0  0  0  0  0  0  0  0  0  0
    7.8776   -1.3947   -0.2216 C   0  0  0  0  0  0  0  0  0  0  0  0
    7.8897   -0.2117   -0.9541 C   0  0  0  0  0  0  0  0  0  0  0  0
    6.7023    0.4953   -1.1649 C   0  0  0  0  0  0  0  0  0  0  0  0
    5.4725    0.0344   -0.6555 C   0  0  0  0  0  0  0  0  0  0  0  0
    4.2607    0.8471   -0.8759 C   0  0  0  0  0  0  0  0  0  0  0  0
    3.5327    1.3731    0.2047 C   0  0  0  0  0  0  0  0  0  0  0  0
    2.3468    2.0814   -0.0059 C   0  0  0  0  0  0  0  0  0  0  0  0
    1.8755    2.2856   -1.3001 C   0  0  0  0  0  0  0  0  0  0  0  0
    2.5957    1.7937   -2.3858 C   0  0  0  0  0  0  0  0  0  0  0  0
    3.7809    1.0834   -2.1763 C   0  0  0  0  0  0  0  0  0  0  0  0
    0.9099   -1.9932   -0.9712 C   0  0  0  0  0  0  0  0  0  0  0  0
   -0.4598   -2.0972   -0.7362 C   0  0  0  0  0  0  0  0  0  0  0  0
   -2.1795    0.1930    1.2236 C   0  0  0  0  0  0  0  0  0  0  0  0
   -2.0495    0.9707   -0.0724 C   0  0  0  0  0  0  0  0  0  0  0  0
   -4.2540    4.9314   -2.4231 H   0  0  0  0  0  0  0  0  0  0  0  0
   -4.8997    5.4507   -0.8482 H   0  0  0  0  0  0  0  0  0  0  0  0
   -5.9396    4.5770   -1.9989 H   0  0  0  0  0  0  0  0  0  0  0  0
   -7.1111    1.1276    0.7675 H   0  0  0  0  0  0  0  0  0  0  0  0
   -8.2782   -0.7493    1.8628 H   0  0  0  0  0  0  0  0  0  0  0  0
   -6.9860   -2.7608    2.5592 H   0  0  0  0  0  0  0  0  0  0  0  0
   -4.5835   -2.8602    2.2057 H   0  0  0  0  0  0  0  0  0  0  0  0
   -0.3783   -2.6948    2.6198 H   0  0  0  0  0  0  0  0  0  0  0  0
    2.0376   -2.5138    2.2090 H   0  0  0  0  0  0  0  0  0  0  0  0
    3.3531   -1.5835   -1.1826 H   0  0  0  0  0  0  0  0  0  0  0  0
    6.6687   -2.7998    0.8715 H   0  0  0  0  0  0  0  0  0  0  0  0
    8.8021   -1.9384   -0.0451 H   0  0  0  0  0  0  0  0  0  0  0  0
    8.8259    0.1727   -1.3515 H   0  0  0  0  0  0  0  0  0  0  0  0
    6.7427    1.4331   -1.7181 H   0  0  0  0  0  0  0  0  0  0  0  0
    3.8717    1.2151    1.2271 H   0  0  0  0  0  0  0  0  0  0  0  0
    1.7808    2.4646    0.8400 H   0  0  0  0  0  0  0  0  0  0  0  0
    0.9418    2.8244   -1.4594 H   0  0  0  0  0  0  0  0  0  0  0  0
    2.2241    1.9577   -3.3943 H   0  0  0  0  0  0  0  0  0  0  0  0
    4.3178    0.6966   -3.0398 H   0  0  0  0  0  0  0  0  0  0  0  0
    1.2452   -1.7715   -1.9810 H   0  0  0  0  0  0  0  0  0  0  0  0
   -1.1685   -1.9704   -1.5515 H   0  0  0  0  0  0  0  0  0  0  0  0
   -1.1754   -0.0575    1.5763 H   0  0  0  0  0  0  0  0  0  0  0  0
   -2.6108    0.7983    2.0333 H   0  0  0  0  0  0  0  0  0  0  0  0
   -1.2074    1.6679    0.0142 H   0  0  0  0  0  0  0  0  0  0  0  0
   -1.8621    0.3221   -0.9324 H   0  0  0  0  0  0  0  0  0  0  0  0
  1  2  1  0
  2  3  2  0
  3  4  1  0
  4  5  2  0
  5  6  1  0
  5  7  1  0
  7  8  2  0
  8  9  1  0
  9 10  2  0
 10 11  1  0
 11 12  2  0
 12 13  1  0
 13 14  1  0
 14 15  2  0
 14 16  1  0
 16 17  2  0
 17 18  1  0
 18 19  2  0
 19 20  1  0
 20 21  1  0
 21 22  2  0
 21 23  1  0
 23 24  2  0
 24 25  1  0
 25 26  2  0
 26 27  1  0
 27 28  2  0
 28 29  1  0
 29 30  2  0
 30 31  1  0
 31 32  2  0
 32 33  1  0
 33 34  2  0
 19 35  1  0
 35 36  2  0
 13 37  1  0
 37 38  1  0
  6  2  1  0
 12  7  1  0
 36 16  1  0
 38  4  1  0
 28 23  1  0
 34 29  1  0
  1 39  1  0
  1 40  1  0
  1 41  1  0
  8 42  1  0
  9 43  1  0
 10 44  1  0
 11 45  1  0
 17 46  1  0
 18 47  1  0
 20 48  1  0
 24 49  1  0
 25 50  1  0
 26 51  1  0
 27 52  1  0
 30 53  1  0
 31 54  1  0
 32 55  1  0
 33 56  1  0
 34 57  1  0
 35 58  1  0
 36 59  1  0
 37 60  1  0
 37 61  1  0
 38 62  1  0
 38 63  1  0
M  CHG  1   6  -1
M  END
$$$$
