
     RDKit          3D

 81 85  0  0  0  0  0  0  0  0999 V2000
    5.9888    3.2043   -0.8800 C   0  0  0  0  0  0  0  0  0  0  0  0
    5.3196    1.9758   -0.2445 C   0  0  2  0  0  0  0  0  0  0  0  0
    5.7462    0.7323   -1.0452 C   0  0  0  0  0  0  0  0  0  0  0  0
    4.7883   -0.4495   -0.9155 C   0  0  0  0  0  0  0  0  0  0  0  0
    4.0520   -0.4929    0.4363 C   0  0  2  0  0  0  0  0  0  0  0  0
    5.1484   -0.7143    1.5416 C   0  0  0  0  0  0  0  0  0  0  0  0
    5.9792   -1.6449    1.3204 O   0  0  0  0  0  0  0  0  0  0  0  0
    5.1066    0.0587    2.5411 O   0  0  0  0  0  0  0  0  0  0  0  0
    3.1978   -1.7675    0.5671 C   0  0  0  0  0  0  0  0  0  0  0  0
    2.0649   -1.8081   -0.4532 C   0  0  0  0  0  0  0  0  0  0  0  0
    1.0793   -0.5999   -0.3772 C   0  0  2  0  0  0  0  0  0  0  0  0
    0.9513   -0.0546   -1.8287 C   0  0  0  0  0  0  0  0  0  0  0  0
    1.6448    0.5594    0.4844 C   0  0  0  0  0  0  0  0  0  0  0  0
    0.8172    1.3167    1.2353 C   0  0  0  0  0  0  0  0  0  0  0  0
   -0.6735    1.2180    1.3127 C   0  0  0  0  0  0  0  0  0  0  0  0
   -1.3074    0.1784    0.3688 C   0  0  2  0  0  0  0  0  0  0  0  0
   -2.8585   -0.0832    0.6375 C   0  0  1  0  0  0  0  0  0  0  0  0
   -3.1319   -0.6192    2.0674 C   0  0  0  0  0  0  0  0  0  0  0  0
   -3.6270    1.2636    0.4882 C   0  0  0  0  0  0  0  0  0  0  0  0
   -5.1431    1.0995    0.4484 C   0  0  1  0  0  0  0  0  0  0  0  0
   -5.7490    2.3869    0.2364 O   0  0  0  0  0  0  0  0  0  0  0  0
   -5.6043    0.1491   -0.6621 C   0  0  2  0  0  0  0  0  0  0  0  0
   -7.0423    0.0751   -0.5338 O   0  0  0  0  0  0  0  0  0  0  0  0
   -4.9147   -1.2383   -0.6091 C   0  0  1  0  0  0  0  0  0  0  0  0
   -5.5170   -2.1790    0.4449 C   0  0  0  0  0  0  0  0  0  0  0  0
   -5.3767   -1.8015   -1.9976 C   0  0  0  0  0  0  0  0  0  0  0  0
   -4.4813   -2.0296   -2.8529 O   0  0  0  0  0  0  0  0  0  0  0  0
   -6.6361   -1.9240   -2.1311 O   0  0  0  0  0  0  0  0  0  0  0  0
   -3.3632   -1.0546   -0.4933 C   0  0  2  0  0  0  0  0  0  0  0  0
   -2.5588   -2.3707   -0.4586 C   0  0  0  0  0  0  0  0  0  0  0  0
   -1.0753   -2.1099   -0.7452 C   0  0  0  0  0  0  0  0  0  0  0  0
   -0.3797   -1.0879    0.2084 C   0  0  1  0  0  0  0  0  0  0  0  0
   -0.1606   -1.8011    1.5776 C   0  0  0  0  0  0  0  0  0  0  0  0
    3.1817    0.7870    0.6341 C   0  0  2  0  0  0  0  0  0  0  0  0
    3.7723    2.0703   -0.1121 C   0  0  1  0  0  0  0  0  0  0  0  0
    3.3728    3.3691    0.6155 C   0  0  0  0  0  0  0  0  0  0  0  0
    3.2376    2.1932   -1.4412 O   0  0  0  0  0  0  0  0  0  0  0  0
    5.5492    3.4464   -1.8529 H   0  0  0  0  0  0  0  0  0  0  0  0
    5.9061    4.0837   -0.2347 H   0  0  0  0  0  0  0  0  0  0  0  0
    7.0595    3.0249   -1.0305 H   0  0  0  0  0  0  0  0  0  0  0  0
    5.7394    1.8923    0.7658 H   0  0  0  0  0  0  0  0  0  0  0  0
    5.8484    0.9710   -2.1119 H   0  0  0  0  0  0  0  0  0  0  0  0
    6.7477    0.4304   -0.7120 H   0  0  0  0  0  0  0  0  0  0  0  0
    4.0637   -0.3732   -1.7329 H   0  0  0  0  0  0  0  0  0  0  0  0
    5.3392   -1.3782   -1.1118 H   0  0  0  0  0  0  0  0  0  0  0  0
    3.8108   -2.6670    0.4219 H   0  0  0  0  0  0  0  0  0  0  0  0
    2.7883   -1.8473    1.5827 H   0  0  0  0  0  0  0  0  0  0  0  0
    2.5051   -1.8828   -1.4557 H   0  0  0  0  0  0  0  0  0  0  0  0
    1.5457   -2.7644   -0.3463 H   0  0  0  0  0  0  0  0  0  0  0  0
    0.5627   -0.8025   -2.5245 H   0  0  0  0  0  0  0  0  0  0  0  0
    1.9277    0.2231   -2.2361 H   0  0  0  0  0  0  0  0  0  0  0  0
    0.3212    0.8365   -1.8968 H   0  0  0  0  0  0  0  0  0  0  0  0
    1.2418    2.0557    1.9117 H   0  0  0  0  0  0  0  0  0  0  0  0
   -1.0827    2.2101    1.0882 H   0  0  0  0  0  0  0  0  0  0  0  0
   -0.9165    1.0137    2.3581 H   0  0  0  0  0  0  0  0  0  0  0  0
   -1.3045    0.6620   -0.6179 H   0  0  0  0  0  0  0  0  0  0  0  0
   -3.0717   -1.7049    2.1414 H   0  0  0  0  0  0  0  0  0  0  0  0
   -2.4485   -0.2070    2.8116 H   0  0  0  0  0  0  0  0  0  0  0  0
   -4.1273   -0.3598    2.4337 H   0  0  0  0  0  0  0  0  0  0  0  0
   -3.3088    1.7803   -0.4278 H   0  0  0  0  0  0  0  0  0  0  0  0
   -3.3725    1.9479    1.3078 H   0  0  0  0  0  0  0  0  0  0  0  0
   -5.5341    0.7624    1.4129 H   0  0  0  0  0  0  0  0  0  0  0  0
   -6.6576    2.1571   -0.0507 H   0  0  0  0  0  0  0  0  0  0  0  0
   -5.4181    0.6401   -1.6282 H   0  0  0  0  0  0  0  0  0  0  0  0
   -7.2903   -0.6486   -1.1695 H   0  0  0  0  0  0  0  0  0  0  0  0
   -5.4378   -1.7744    1.4544 H   0  0  0  0  0  0  0  0  0  0  0  0
   -5.0259   -3.1576    0.4316 H   0  0  0  0  0  0  0  0  0  0  0  0
   -6.5835   -2.3738    0.2852 H   0  0  0  0  0  0  0  0  0  0  0  0
   -3.0755   -0.5618   -1.4368 H   0  0  0  0  0  0  0  0  0  0  0  0
   -2.9253   -3.0667   -1.2207 H   0  0  0  0  0  0  0  0  0  0  0  0
   -2.6722   -2.9004    0.4904 H   0  0  0  0  0  0  0  0  0  0  0  0
   -1.0296   -1.7607   -1.7798 H   0  0  0  0  0  0  0  0  0  0  0  0
   -0.5519   -3.0724   -0.7285 H   0  0  0  0  0  0  0  0  0  0  0  0
    0.3023   -1.1521    2.3257 H   0  0  0  0  0  0  0  0  0  0  0  0
   -1.0847   -2.1796    2.0091 H   0  0  0  0  0  0  0  0  0  0  0  0
    0.4785   -2.6836    1.4818 H   0  0  0  0  0  0  0  0  0  0  0  0
    3.2818    1.0399    1.6985 H   0  0  0  0  0  0  0  0  0  0  0  0
    2.2889    3.5112    0.6239 H   0  0  0  0  0  0  0  0  0  0  0  0
    3.7494    4.2557    0.0949 H   0  0  0  0  0  0  0  0  0  0  0  0
    3.7435    3.3859    1.6450 H   0  0  0  0  0  0  0  0  0  0  0  0
    2.2701    2.1818   -1.3392 H   0  0  0  0  0  0  0  0  0  0  0  0
  1  2  1  0
  2  3  1  0
  3  4  1  0
  4  5  1  0
  5  6  1  1
  6  7  2  0
  6  8  1  0
  5  9  1  0
  9 10  1  0
 10 11  1  0
 11 12  1  6
 11 13  1  0
 13 14  2  0
 14 15  1  0
 15 16  1  0
 16 17  1  0
 17 18  1  1
 17 19  1  0
 19 20  1  0
 20 21  1  0
 20 22  1  0
 22 23  1  0
 22 24  1  0
 24 25  1  1
 24 26  1  0
 26 27  2  0
 26 28  1  0
 24 29  1  0
 29 30  1  0
 30 31  1  0
 31 32  1  0
 32 33  1  1
 13 34  1  0
 34 35  1  0
 35 36  1  0
 35 37  1  6
 35  2  1  0
 34  5  1  0
 32 11  1  0
 32 16  1  0
 29 17  1  0
  1 38  1  0
  1 39  1  0
  1 40  1  0
  2 41  1  1
  3 42  1  0
  3 43  1  0
  4 44  1  0
  4 45  1  0
  9 46  1  0
  9 47  1  0
 10 48  1  0
 10 49  1  0
 12 50  1  0
 12 51  1  0
 12 52  1  0
 14 53  1  0
 15 54  1  0
 15 55  1  0
 16 56  1  6
 18 57  1  0
 18 58  1  0
 18 59  1  0
 19 60  1  0
 19 61  1  0
 20 62  1  1
 21 63  1  0
 22 64  1  6
 23 65  1  0
 25 66  1  0
 25 67  1  0
 25 68  1  0
 29 69  1  6
 30 70  1  0
 30 71  1  0
 31 72  1  0
 31 73  1  0
 33 74  1  0
 33 75  1  0
 33 76  1  0
 34 77  1  1
 36 78  1  0
 36 79  1  0
 36 80  1  0
 37 81  1  0
M  CHG  2   8  -1  28  -1
M  END
$$$$
