
     RDKit          3D

 49 51  0  0  0  0  0  0  0  0999 V2000
   -7.7260   -0.3085   -1.7569 C   0  0  0  0  0  0  0  0  0  0  0  0
   -6.9643   -0.4935   -0.4323 C   0  0  0  0  0  0  0  0  0  0  0  0
   -7.8920   -0.1419    0.7443 C   0  0  0  0  0  0  0  0  0  0  0  0
   -6.5539   -1.9725   -0.3066 C   0  0  0  0  0  0  0  0  0  0  0  0
   -5.7573    0.4029   -0.4120 C   0  0  0  0  0  0  0  0  0  0  0  0
   -4.3995    0.2058   -0.3088 C   0  0  0  0  0  0  0  0  0  0  0  0
   -3.8384    1.4996   -0.3580 C   0  0  0  0  0  0  0  0  0  0  0  0
   -2.5199    1.8937   -0.2970 N   0  0  0  0  0  0  0  0  0  0  0  0
   -1.4373    1.0486   -0.1694 C   0  0  0  0  0  0  0  0  0  0  0  0
   -1.5250   -0.1711   -0.0949 O   0  0  0  0  0  0  0  0  0  0  0  0
   -0.2524    1.7681   -0.1370 N   0  0  0  0  0  0  0  0  0  0  0  0
    1.0612    1.2685   -0.0217 C   0  0  0  0  0  0  0  0  0  0  0  0
    1.3821   -0.0839    0.0747 C   0  0  0  0  0  0  0  0  0  0  0  0
    2.7185   -0.4917    0.1856 C   0  0  0  0  0  0  0  0  0  0  0  0
    3.7579    0.4441    0.2005 C   0  0  0  0  0  0  0  0  0  0  0  0
    5.0728   -0.0516    0.3210 N   0  0  0  0  0  0  0  0  0  0  0  0
    6.2475    0.6781    0.3018 C   0  0  0  0  0  0  0  0  0  0  0  0
    6.3658    1.8790    0.0911 O   0  0  0  0  0  0  0  0  0  0  0  0
    7.4850   -0.1172    0.5243 C   0  0  0  0  0  0  0  0  0  0  0  0
    8.6428    0.2528   -0.1601 C   0  0  0  0  0  0  0  0  0  0  0  0
    9.7879   -0.4895    0.0557 C   0  0  0  0  0  0  0  0  0  0  0  0
    9.8468   -1.5450    0.8963 N   0  0  0  0  0  0  0  0  0  0  0  0
    8.7187   -1.8643    1.5652 C   0  0  0  0  0  0  0  0  0  0  0  0
    7.5207   -1.1883    1.4183 C   0  0  0  0  0  0  0  0  0  0  0  0
    3.4375    1.7965    0.1071 C   0  0  0  0  0  0  0  0  0  0  0  0
    2.1013    2.2041   -0.0044 C   0  0  0  0  0  0  0  0  0  0  0  0
   -4.7932    2.4273   -0.4830 N   0  0  0  0  0  0  0  0  0  0  0  0
   -5.9911    1.7420   -0.5167 O   0  0  0  0  0  0  0  0  0  0  0  0
   -8.6023   -0.9650   -1.8053 H   0  0  0  0  0  0  0  0  0  0  0  0
   -8.0792    0.7222   -1.8787 H   0  0  0  0  0  0  0  0  0  0  0  0
   -7.0873   -0.5388   -2.6179 H   0  0  0  0  0  0  0  0  0  0  0  0
   -8.7728   -0.7938    0.7633 H   0  0  0  0  0  0  0  0  0  0  0  0
   -7.3742   -0.2507    1.7047 H   0  0  0  0  0  0  0  0  0  0  0  0
   -8.2491    0.8928    0.6813 H   0  0  0  0  0  0  0  0  0  0  0  0
   -5.8992   -2.2788   -1.1312 H   0  0  0  0  0  0  0  0  0  0  0  0
   -6.0161   -2.1614    0.6302 H   0  0  0  0  0  0  0  0  0  0  0  0
   -7.4313   -2.6294   -0.3210 H   0  0  0  0  0  0  0  0  0  0  0  0
   -3.8893   -0.7407   -0.2120 H   0  0  0  0  0  0  0  0  0  0  0  0
   -2.3964    2.8906   -0.3565 H   0  0  0  0  0  0  0  0  0  0  0  0
   -0.3341    2.7713   -0.2017 H   0  0  0  0  0  0  0  0  0  0  0  0
    0.6188   -0.8553    0.0658 H   0  0  0  0  0  0  0  0  0  0  0  0
    2.9237   -1.5568    0.2568 H   0  0  0  0  0  0  0  0  0  0  0  0
    5.1527   -1.0578    0.3844 H   0  0  0  0  0  0  0  0  0  0  0  0
    8.6500    1.0962   -0.8428 H   0  0  0  0  0  0  0  0  0  0  0  0
   10.7168   -0.2489   -0.4540 H   0  0  0  0  0  0  0  0  0  0  0  0
    8.8111   -2.7025    2.2508 H   0  0  0  0  0  0  0  0  0  0  0  0
    6.6621   -1.4778    2.0121 H   0  0  0  0  0  0  0  0  0  0  0  0
    4.2026    2.5664    0.1205 H   0  0  0  0  0  0  0  0  0  0  0  0
    1.8971    3.2695   -0.0759 H   0  0  0  0  0  0  0  0  0  0  0  0
  1  2  1  0
  2  3  1  0
  2  4  1  0
  2  5  1  0
  5  6  2  0
  6  7  1  0
  7  8  1  0
  8  9  1  0
  9 10  2  0
  9 11  1  0
 11 12  1  0
 12 13  2  0
 13 14  1  0
 14 15  2  0
 15 16  1  0
 16 17  1  0
 17 18  2  0
 17 19  1  0
 19 20  2  0
 20 21  1  0
 21 22  2  0
 22 23  1  0
 23 24  2  0
 15 25  1  0
 25 26  2  0
  7 27  2  0
 27 28  1  0
 28  5  1  0
 26 12  1  0
 24 19  1  0
  1 29  1  0
  1 30  1  0
  1 31  1  0
  3 32  1  0
  3 33  1  0
  3 34  1  0
  4 35  1  0
  4 36  1  0
  4 37  1  0
  6 38  1  0
  8 39  1  0
 11 40  1  0
 13 41  1  0
 14 42  1  0
 16 43  1  0
 20 44  1  0
 21 45  1  0
 23 46  1  0
 24 47  1  0
 25 48  1  0
 26 49  1  0
M  END
$$$$
