
     RDKit          3D

 54 58  0  0  0  0  0  0  0  0999 V2000
    4.8002   -1.7118    0.1633 C   0  0  0  0  0  0  0  0  0  0  0  0
    3.8902   -0.7686    0.4428 C   0  0  0  0  0  0  0  0  0  0  0  0
    3.2485   -0.5531    1.8041 C   0  0  2  0  0  0  0  0  0  0  0  0
    2.1119   -1.5586    2.0540 C   0  0  0  0  0  0  0  0  0  0  0  0
    0.7654   -1.1270    1.4407 C   0  0  1  0  0  0  0  0  0  0  0  0
    0.0491   -0.3417    2.3892 O   0  0  0  0  0  0  0  0  0  0  0  0
    0.9195   -0.3317    0.1180 C   0  0  2  0  0  0  0  0  0  0  0  0
    2.0763    0.7544    0.2143 C   0  0  2  0  0  0  0  0  0  0  0  0
    2.6692    0.8469    1.6384 C   0  0  0  0  0  0  0  0  0  0  0  0
    1.7696    2.1681   -0.2456 C   0  0  0  0  0  0  0  0  0  0  0  0
    2.6522    2.9685   -0.5445 O   0  0  0  0  0  0  0  0  0  0  0  0
    0.4791    2.5582   -0.2658 O   0  0  0  0  0  0  0  0  0  0  0  0
   -0.5679    1.6644    0.1346 C   0  0  1  0  0  0  0  0  0  0  0  0
   -1.8894    2.3609   -0.1679 C   0  0  0  0  0  0  0  0  0  0  0  0
   -3.0705    1.4778    0.2082 C   0  0  2  0  0  0  0  0  0  0  0  0
   -3.0128    1.1871    1.6024 O   0  0  0  0  0  0  0  0  0  0  0  0
   -3.0626    0.1560   -0.5961 C   0  0  0  0  0  0  0  0  0  0  0  0
   -4.2029   -0.7581   -0.0748 C   0  0  0  0  0  0  0  0  0  0  0  0
   -3.4127    0.4880   -2.0702 C   0  0  0  0  0  0  0  0  0  0  0  0
   -1.6874   -0.6082   -0.3858 C   0  0  1  0  0  0  0  0  0  0  0  0
   -1.4338   -1.6250   -1.4938 C   0  0  2  0  0  0  0  0  0  0  0  0
   -0.5966   -2.6711   -1.0424 O   0  0  0  0  0  0  0  0  0  0  0  0
   -0.7782   -0.8892   -2.5146 O   0  0  0  0  0  0  0  0  0  0  0  0
   -0.1999    0.2268   -1.9772 C   0  0  0  0  0  0  0  0  0  0  0  0
    0.4507    1.0178   -2.6416 O   0  0  0  0  0  0  0  0  0  0  0  0
   -0.4069    0.2702   -0.4690 C   0  0  2  0  0  0  0  0  0  0  0  0
    3.3387    0.2479   -0.5374 C   0  0  2  0  0  0  0  0  0  0  0  0
    3.0582   -0.3591   -1.7863 O   0  0  0  0  0  0  0  0  0  0  0  0
    5.1502   -2.4077    0.9179 H   0  0  0  0  0  0  0  0  0  0  0  0
    5.2071   -1.8076   -0.8396 H   0  0  0  0  0  0  0  0  0  0  0  0
    3.9932   -0.5947    2.6058 H   0  0  0  0  0  0  0  0  0  0  0  0
    1.9899   -1.6802    3.1379 H   0  0  0  0  0  0  0  0  0  0  0  0
    2.3922   -2.5425    1.6577 H   0  0  0  0  0  0  0  0  0  0  0  0
    0.1688   -2.0293    1.2764 H   0  0  0  0  0  0  0  0  0  0  0  0
   -0.2001   -0.9269    3.1274 H   0  0  0  0  0  0  0  0  0  0  0  0
    1.2570   -1.1017   -0.5863 H   0  0  0  0  0  0  0  0  0  0  0  0
    3.4663    1.6028    1.6944 H   0  0  0  0  0  0  0  0  0  0  0  0
    1.9412    1.1243    2.4058 H   0  0  0  0  0  0  0  0  0  0  0  0
   -0.5039    1.6132    1.2261 H   0  0  0  0  0  0  0  0  0  0  0  0
   -1.9297    2.6748   -1.2165 H   0  0  0  0  0  0  0  0  0  0  0  0
   -1.9268    3.2923    0.4132 H   0  0  0  0  0  0  0  0  0  0  0  0
   -4.0062    2.0225    0.0329 H   0  0  0  0  0  0  0  0  0  0  0  0
   -3.0946    2.0277    2.0878 H   0  0  0  0  0  0  0  0  0  0  0  0
   -5.1701   -0.2442   -0.1212 H   0  0  0  0  0  0  0  0  0  0  0  0
   -4.0400   -1.0610    0.9653 H   0  0  0  0  0  0  0  0  0  0  0  0
   -4.2882   -1.6731   -0.6706 H   0  0  0  0  0  0  0  0  0  0  0  0
   -4.3466    1.0610   -2.1243 H   0  0  0  0  0  0  0  0  0  0  0  0
   -3.5711   -0.4132   -2.6709 H   0  0  0  0  0  0  0  0  0  0  0  0
   -2.6454    1.0867   -2.5662 H   0  0  0  0  0  0  0  0  0  0  0  0
   -1.7390   -1.1047    0.5886 H   0  0  0  0  0  0  0  0  0  0  0  0
   -2.3482   -2.0794   -1.8834 H   0  0  0  0  0  0  0  0  0  0  0  0
   -0.5416   -3.3029   -1.7810 H   0  0  0  0  0  0  0  0  0  0  0  0
    4.0925    1.0295   -0.6912 H   0  0  0  0  0  0  0  0  0  0  0  0
    2.7362    0.3446   -2.3832 H   0  0  0  0  0  0  0  0  0  0  0  0
  1  2  2  0
  2  3  1  0
  3  4  1  0
  4  5  1  0
  5  6  1  0
  5  7  1  0
  7  8  1  0
  8  9  1  0
  8 10  1  6
 10 11  2  0
 10 12  1  0
 12 13  1  0
 13 14  1  0
 14 15  1  0
 15 16  1  0
 15 17  1  0
 17 18  1  0
 17 19  1  0
 17 20  1  0
 20 21  1  0
 21 22  1  0
 21 23  1  0
 23 24  1  0
 24 25  2  0
 26 24  1  6
  8 27  1  0
 27 28  1  0
 27  2  1  0
  9  3  1  0
 26 13  1  0
 26  7  1  0
 26 20  1  0
  1 29  1  0
  1 30  1  0
  3 31  1  1
  4 32  1  0
  4 33  1  0
  5 34  1  6
  6 35  1  0
  7 36  1  6
  9 37  1  0
  9 38  1  0
 13 39  1  1
 14 40  1  0
 14 41  1  0
 15 42  1  1
 16 43  1  0
 18 44  1  0
 18 45  1  0
 18 46  1  0
 19 47  1  0
 19 48  1  0
 19 49  1  0
 20 50  1  1
 21 51  1  6
 22 52  1  0
 27 53  1  6
 28 54  1  0
M  END
$$$$
