
     RDKit          3D

 48 52  0  0  0  0  0  0  0  0999 V2000
    4.9908   -2.5147   -0.7507 C   0  0  0  0  0  0  0  0  0  0  0  0
    5.6207   -2.0293    0.3940 C   0  0  0  0  0  0  0  0  0  0  0  0
    5.1265   -0.8926    1.0361 C   0  0  0  0  0  0  0  0  0  0  0  0
    3.9986   -0.2287    0.5349 C   0  0  0  0  0  0  0  0  0  0  0  0
    3.4476    0.9913    1.2392 C   0  0  0  0  0  0  0  0  0  0  0  0
    2.4338    0.6458    2.3380 C   0  0  0  0  0  0  0  0  0  0  0  0
    1.2088    0.0951    1.7999 N   0  0  0  0  0  0  0  0  0  0  0  0
    0.2405    0.8943    1.2363 C   0  0  0  0  0  0  0  0  0  0  0  0
    0.2971    2.2693    1.3124 N   0  0  0  0  0  0  0  0  0  0  0  0
   -0.6477    3.0937    0.7596 C   0  0  0  0  0  0  0  0  0  0  0  0
   -0.4846    4.4621    0.9067 C   0  0  0  0  0  0  0  0  0  0  0  0
   -1.3943    5.3912    0.3778 C   0  0  0  0  0  0  0  0  0  0  0  0
   -2.5152    4.9608   -0.3279 C   0  0  0  0  0  0  0  0  0  0  0  0
   -2.7303    3.6001   -0.5072 C   0  0  0  0  0  0  0  0  0  0  0  0
   -1.8011    2.6797    0.0343 C   0  0  0  0  0  0  0  0  0  0  0  0
   -1.8378    1.2723   -0.0391 C   0  0  0  0  0  0  0  0  0  0  0  0
   -2.7830    0.4976   -0.6564 C   0  0  0  0  0  0  0  0  0  0  0  0
   -2.3870   -0.8099   -0.4644 N   0  0  0  0  0  0  0  0  0  0  0  0
   -3.0405   -1.9923   -0.9201 C   0  0  0  0  0  0  0  0  0  0  0  0
   -4.2330   -1.9304   -1.6551 C   0  0  0  0  0  0  0  0  0  0  0  0
   -4.8503   -3.1079   -2.0889 C   0  0  0  0  0  0  0  0  0  0  0  0
   -4.2861   -4.3479   -1.7945 C   0  0  0  0  0  0  0  0  0  0  0  0
   -3.1019   -4.4173   -1.0647 C   0  0  0  0  0  0  0  0  0  0  0  0
   -2.4794   -3.2460   -0.6279 C   0  0  0  0  0  0  0  0  0  0  0  0
   -1.2296   -0.8943    0.2458 N   0  0  0  0  0  0  0  0  0  0  0  0
   -0.8766    0.3753    0.5238 C   0  0  0  0  0  0  0  0  0  0  0  0
    3.3715   -0.7273   -0.6150 C   0  0  0  0  0  0  0  0  0  0  0  0
    3.8659   -1.8647   -1.2545 C   0  0  0  0  0  0  0  0  0  0  0  0
    5.3752   -3.4003   -1.2493 H   0  0  0  0  0  0  0  0  0  0  0  0
    6.4970   -2.5371    0.7879 H   0  0  0  0  0  0  0  0  0  0  0  0
    5.6275   -0.5282    1.9298 H   0  0  0  0  0  0  0  0  0  0  0  0
    4.2838    1.5427    1.6881 H   0  0  0  0  0  0  0  0  0  0  0  0
    3.0077    1.6715    0.4993 H   0  0  0  0  0  0  0  0  0  0  0  0
    2.8699   -0.0921    3.0221 H   0  0  0  0  0  0  0  0  0  0  0  0
    2.2228    1.5352    2.9441 H   0  0  0  0  0  0  0  0  0  0  0  0
    1.1361   -0.8998    1.6197 H   0  0  0  0  0  0  0  0  0  0  0  0
    0.3823    4.8269    1.4544 H   0  0  0  0  0  0  0  0  0  0  0  0
   -1.2188    6.4548    0.5229 H   0  0  0  0  0  0  0  0  0  0  0  0
   -3.2158    5.6854   -0.7347 H   0  0  0  0  0  0  0  0  0  0  0  0
   -3.6014    3.2568   -1.0560 H   0  0  0  0  0  0  0  0  0  0  0  0
   -3.6766    0.7551   -1.2014 H   0  0  0  0  0  0  0  0  0  0  0  0
   -4.7108   -0.9899   -1.9086 H   0  0  0  0  0  0  0  0  0  0  0  0
   -5.7753   -3.0575   -2.6585 H   0  0  0  0  0  0  0  0  0  0  0  0
   -4.7696   -5.2607   -2.1334 H   0  0  0  0  0  0  0  0  0  0  0  0
   -2.6599   -5.3833   -0.8332 H   0  0  0  0  0  0  0  0  0  0  0  0
   -1.5548   -3.3281   -0.0589 H   0  0  0  0  0  0  0  0  0  0  0  0
    2.4874   -0.2331   -1.0133 H   0  0  0  0  0  0  0  0  0  0  0  0
    3.3701   -2.2436   -2.1442 H   0  0  0  0  0  0  0  0  0  0  0  0
  1  2  2  0
  2  3  1  0
  3  4  2  0
  4  5  1  0
  5  6  1  0
  6  7  1  0
  7  8  1  0
  8  9  2  0
  9 10  1  0
 10 11  2  0
 11 12  1  0
 12 13  2  0
 13 14  1  0
 14 15  2  0
 15 16  1  0
 16 17  2  0
 17 18  1  0
 18 19  1  0
 19 20  2  0
 20 21  1  0
 21 22  2  0
 22 23  1  0
 23 24  2  0
 18 25  1  0
 25 26  2  0
  4 27  1  0
 27 28  2  0
 28  1  1  0
 26  8  1  0
 15 10  1  0
 26 16  1  0
 24 19  1  0
  1 29  1  0
  2 30  1  0
  3 31  1  0
  5 32  1  0
  5 33  1  0
  6 34  1  0
  6 35  1  0
  7 36  1  0
 11 37  1  0
 12 38  1  0
 13 39  1  0
 14 40  1  0
 17 41  1  0
 20 42  1  0
 21 43  1  0
 22 44  1  0
 23 45  1  0
 24 46  1  0
 27 47  1  0
 28 48  1  0
M  END
$$$$
