
     RDKit          3D

 30 31  0  0  0  0  0  0  0  0999 V2000
   -2.3085    0.1931   -2.6641 C   0  0  0  0  0  0  0  0  0  0  0  0
   -2.7255    0.3938   -1.2502 C   0  0  0  0  0  0  0  0  0  0  0  0
   -3.9050    0.8453   -0.8760 N   0  0  0  0  0  0  0  0  0  0  0  0
   -3.9098    0.8496    0.4931 C   0  0  0  0  0  0  0  0  0  0  0  0
   -2.6946    0.4249    0.9605 C   0  0  0  0  0  0  0  0  0  0  0  0
   -2.2656    0.3197    2.3113 N   0  0  0  0  0  0  0  0  0  0  0  0
   -1.0425    0.2388    2.4991 O   0  0  0  0  0  0  0  0  0  0  0  0
   -3.1349    0.3390    3.1831 O   0  0  0  0  0  0  0  0  0  0  0  0
   -1.9348    0.1253   -0.1464 N   0  0  0  0  0  0  0  0  0  0  0  0
   -0.5849   -0.4096   -0.1926 C   0  0  0  0  0  0  0  0  0  0  0  0
    0.4766    0.6855   -0.1145 C   0  0  0  0  0  0  0  0  0  0  0  0
    1.8063    0.0785    0.1458 N   0  0  0  0  0  0  0  0  0  0  0  0
    2.5998   -0.2808   -0.8915 C   0  0  0  0  0  0  0  0  0  0  0  0
    3.8486   -0.8475   -0.6649 C   0  0  0  0  0  0  0  0  0  0  0  0
    4.2837   -1.0389    0.6396 C   0  0  0  0  0  0  0  0  0  0  0  0
    3.4650   -0.6571    1.6938 C   0  0  0  0  0  0  0  0  0  0  0  0
    2.2235   -0.0935    1.4248 C   0  0  0  0  0  0  0  0  0  0  0  0
   -3.0696    0.5849   -3.3462 H   0  0  0  0  0  0  0  0  0  0  0  0
   -2.1779   -0.8717   -2.8789 H   0  0  0  0  0  0  0  0  0  0  0  0
   -1.3698    0.7153   -2.8718 H   0  0  0  0  0  0  0  0  0  0  0  0
   -4.7797    1.1700    1.0556 H   0  0  0  0  0  0  0  0  0  0  0  0
   -0.4696   -0.9777   -1.1224 H   0  0  0  0  0  0  0  0  0  0  0  0
   -0.4829   -1.1501    0.6077 H   0  0  0  0  0  0  0  0  0  0  0  0
    0.5390    1.2460   -1.0547 H   0  0  0  0  0  0  0  0  0  0  0  0
    0.2876    1.4192    0.6762 H   0  0  0  0  0  0  0  0  0  0  0  0
    2.2286   -0.1114   -1.8985 H   0  0  0  0  0  0  0  0  0  0  0  0
    4.4831   -1.1363   -1.5006 H   0  0  0  0  0  0  0  0  0  0  0  0
    5.2606   -1.4802    0.8349 H   0  0  0  0  0  0  0  0  0  0  0  0
    3.7939   -0.7955    2.7221 H   0  0  0  0  0  0  0  0  0  0  0  0
    1.5595    0.2213    2.2258 H   0  0  0  0  0  0  0  0  0  0  0  0
  1  2  1  0
  2  3  2  0
  3  4  1  0
  4  5  2  0
  5  6  1  0
  6  7  2  0
  6  8  1  0
  5  9  1  0
  9 10  1  0
 10 11  1  0
 11 12  1  0
 12 13  2  0
 13 14  1  0
 14 15  2  0
 15 16  1  0
 16 17  2  0
  9  2  1  0
 17 12  1  0
  1 18  1  0
  1 19  1  0
  1 20  1  0
  4 21  1  0
 10 22  1  0
 10 23  1  0
 11 24  1  0
 11 25  1  0
 13 26  1  0
 14 27  1  0
 15 28  1  0
 16 29  1  0
 17 30  1  0
M  CHG  3   6   1   8  -1  12   1
M  END
$$$$
