
     RDKit          3D

 65 66  0  0  0  0  0  0  0  0999 V2000
    6.2122   -2.2550    3.4654 C   0  0  0  0  0  0  0  0  0  0  0  0
    7.5469   -2.1025    2.7519 C   0  0  0  0  0  0  0  0  0  0  0  0
    7.4256   -1.4758    1.3605 C   0  0  0  0  0  0  0  0  0  0  0  0
    6.6588   -2.3545    0.3691 C   0  0  0  0  0  0  0  0  0  0  0  0
    6.6909   -1.8174   -1.0657 C   0  0  0  0  0  0  0  0  0  0  0  0
    6.0891   -0.4224   -1.2657 C   0  0  0  0  0  0  0  0  0  0  0  0
    4.6468   -0.2473   -0.7835 C   0  0  0  0  0  0  0  0  0  0  0  0
    3.6593   -1.1793   -1.4821 C   0  0  0  0  0  0  0  0  0  0  0  0
    2.2959   -0.9354   -1.0573 N   0  0  0  0  0  0  0  0  0  0  0  0
    1.5940   -1.5731   -0.0772 C   0  0  0  0  0  0  0  0  0  0  0  0
    0.3680   -0.9464   -0.0840 C   0  0  0  0  0  0  0  0  0  0  0  0
   -0.8294   -1.1966    0.7633 C   0  0  0  0  0  0  0  0  0  0  0  0
   -1.9697   -0.2027    0.5144 C   0  0  0  0  0  0  0  0  0  0  0  0
   -2.6490   -0.4285   -0.8344 C   0  0  0  0  0  0  0  0  0  0  0  0
   -3.3869    0.7927   -1.2823 N   0  0  0  0  0  0  0  0  0  0  0  0
   -4.4919    1.3578   -0.4098 C   0  0  1  0  0  0  0  0  0  0  0  0
   -4.8447    2.7420   -0.9759 C   0  0  2  0  0  0  0  0  0  0  0  0
   -3.6426    3.5198   -1.0272 O   0  0  0  0  0  0  0  0  0  0  0  0
   -5.9110    3.4277   -0.1155 C   0  0  1  0  0  0  0  0  0  0  0  0
   -6.2109    4.6882   -0.7207 O   0  0  0  0  0  0  0  0  0  0  0  0
   -7.1741    2.5605   -0.0413 C   0  0  2  0  0  0  0  0  0  0  0  0
   -8.1108    3.1511    0.8638 O   0  0  0  0  0  0  0  0  0  0  0  0
   -6.8422    1.1507    0.4678 C   0  0  1  0  0  0  0  0  0  0  0  0
   -8.0073    0.3213    0.4025 O   0  0  0  0  0  0  0  0  0  0  0  0
   -5.7420    0.4703   -0.3645 C   0  0  2  0  0  0  0  0  0  0  0  0
   -5.4356   -0.7945    0.2307 O   0  0  0  0  0  0  0  0  0  0  0  0
    0.3706    0.0252   -1.0529 N   0  0  0  0  0  0  0  0  0  0  0  0
    1.5496    0.0114   -1.6538 N   0  0  0  0  0  0  0  0  0  0  0  0
    5.6850   -1.2974    3.5222 H   0  0  0  0  0  0  0  0  0  0  0  0
    5.5657   -2.9767    2.9576 H   0  0  0  0  0  0  0  0  0  0  0  0
    6.3717   -2.6151    4.4868 H   0  0  0  0  0  0  0  0  0  0  0  0
    8.0366   -3.0805    2.6803 H   0  0  0  0  0  0  0  0  0  0  0  0
    8.1979   -1.4664    3.3634 H   0  0  0  0  0  0  0  0  0  0  0  0
    6.9433   -0.4959    1.4509 H   0  0  0  0  0  0  0  0  0  0  0  0
    8.4369   -1.2982    0.9745 H   0  0  0  0  0  0  0  0  0  0  0  0
    7.1006   -3.3588    0.3653 H   0  0  0  0  0  0  0  0  0  0  0  0
    5.6196   -2.4758    0.6923 H   0  0  0  0  0  0  0  0  0  0  0  0
    7.7318   -1.7955   -1.4127 H   0  0  0  0  0  0  0  0  0  0  0  0
    6.1740   -2.5323   -1.7170 H   0  0  0  0  0  0  0  0  0  0  0  0
    6.7185    0.3198   -0.7604 H   0  0  0  0  0  0  0  0  0  0  0  0
    6.1370   -0.1778   -2.3344 H   0  0  0  0  0  0  0  0  0  0  0  0
    4.3509    0.7944   -0.9639 H   0  0  0  0  0  0  0  0  0  0  0  0
    4.5908   -0.3875    0.3026 H   0  0  0  0  0  0  0  0  0  0  0  0
    3.6932   -1.0485   -2.5697 H   0  0  0  0  0  0  0  0  0  0  0  0
    3.8782   -2.2297   -1.2633 H   0  0  0  0  0  0  0  0  0  0  0  0
    2.0118   -2.3731    0.5169 H   0  0  0  0  0  0  0  0  0  0  0  0
   -0.5278   -1.1231    1.8155 H   0  0  0  0  0  0  0  0  0  0  0  0
   -1.1854   -2.2210    0.6016 H   0  0  0  0  0  0  0  0  0  0  0  0
   -2.7132   -0.3232    1.3116 H   0  0  0  0  0  0  0  0  0  0  0  0
   -1.5870    0.8231    0.5915 H   0  0  0  0  0  0  0  0  0  0  0  0
   -1.9358   -0.6321   -1.6370 H   0  0  0  0  0  0  0  0  0  0  0  0
   -3.3468   -1.2687   -0.8120 H   0  0  0  0  0  0  0  0  0  0  0  0
   -2.6958    1.5604   -1.3858 H   0  0  0  0  0  0  0  0  0  0  0  0
   -3.7306    0.6268   -2.2354 H   0  0  0  0  0  0  0  0  0  0  0  0
   -4.0481    1.4665    0.5862 H   0  0  0  0  0  0  0  0  0  0  0  0
   -5.1988    2.6579   -2.0116 H   0  0  0  0  0  0  0  0  0  0  0  0
   -3.9265    4.4447   -1.2028 H   0  0  0  0  0  0  0  0  0  0  0  0
   -5.5167    3.6477    0.8842 H   0  0  0  0  0  0  0  0  0  0  0  0
   -6.7157    5.2131   -0.0686 H   0  0  0  0  0  0  0  0  0  0  0  0
   -7.6730    2.5036   -1.0169 H   0  0  0  0  0  0  0  0  0  0  0  0
   -8.6286    3.8147    0.3685 H   0  0  0  0  0  0  0  0  0  0  0  0
   -6.5527    1.1803    1.5260 H   0  0  0  0  0  0  0  0  0  0  0  0
   -8.7090    0.7951    0.8968 H   0  0  0  0  0  0  0  0  0  0  0  0
   -6.1075    0.2616   -1.3775 H   0  0  0  0  0  0  0  0  0  0  0  0
   -6.3038   -1.2193    0.4129 H   0  0  0  0  0  0  0  0  0  0  0  0
  1  2  1  0
  2  3  1  0
  3  4  1  0
  4  5  1  0
  5  6  1  0
  6  7  1  0
  7  8  1  0
  8  9  1  0
  9 10  1  0
 10 11  2  0
 11 12  1  0
 12 13  1  0
 13 14  1  0
 14 15  1  0
 15 16  1  0
 16 17  1  0
 17 18  1  0
 17 19  1  0
 19 20  1  0
 19 21  1  0
 21 22  1  0
 21 23  1  0
 23 24  1  0
 23 25  1  0
 25 26  1  0
 11 27  1  0
 27 28  2  0
 28  9  1  0
 25 16  1  0
  1 29  1  0
  1 30  1  0
  1 31  1  0
  2 32  1  0
  2 33  1  0
  3 34  1  0
  3 35  1  0
  4 36  1  0
  4 37  1  0
  5 38  1  0
  5 39  1  0
  6 40  1  0
  6 41  1  0
  7 42  1  0
  7 43  1  0
  8 44  1  0
  8 45  1  0
 10 46  1  0
 12 47  1  0
 12 48  1  0
 13 49  1  0
 13 50  1  0
 14 51  1  0
 14 52  1  0
 15 53  1  0
 15 54  1  0
 16 55  1  1
 17 56  1  6
 18 57  1  0
 19 58  1  1
 20 59  1  0
 21 60  1  6
 22 61  1  0
 23 62  1  1
 24 63  1  0
 25 64  1  6
 26 65  1  0
M  CHG  1  15   1
M  END
$$$$
