
     RDKit          3D

 84 88  0  0  0  0  0  0  0  0999 V2000
    5.8503    1.2078   -3.2419 C   0  0  0  0  0  0  0  0  0  0  0  0
    6.0763    0.1047   -2.2534 C   0  0  0  0  0  0  0  0  0  0  0  0
    6.9449   -0.7510   -2.3692 O   0  0  0  0  0  0  0  0  0  0  0  0
    5.1537    0.1905   -1.2642 O   0  0  0  0  0  0  0  0  0  0  0  0
    5.3288   -0.6643   -0.1073 C   0  0  2  0  0  0  0  0  0  0  0  0
    4.6188   -1.9860   -0.4286 C   0  0  0  0  0  0  0  0  0  0  0  0
    3.1050   -1.8056   -0.6183 C   0  0  0  0  0  0  0  0  0  0  0  0
    2.3887   -1.1387    0.5952 C   0  0  1  0  0  0  0  0  0  0  0  0
    2.3673   -2.1888    1.7381 C   0  0  0  0  0  0  0  0  0  0  0  0
    3.1711    0.1819    0.9626 C   0  0  1  0  0  0  0  0  0  0  0  0
    2.4504    0.9281    2.1046 C   0  0  0  0  0  0  0  0  0  0  0  0
    1.0582    1.3836    1.6474 C   0  0  0  0  0  0  0  0  0  0  0  0
    0.1268    0.2391    1.1508 C   0  0  2  0  0  0  0  0  0  0  0  0
   -0.3297   -0.5555    2.4138 C   0  0  0  0  0  0  0  0  0  0  0  0
    0.9198   -0.6956    0.1551 C   0  0  2  0  0  0  0  0  0  0  0  0
    0.0302   -1.8484   -0.3602 C   0  0  0  0  0  0  0  0  0  0  0  0
   -1.4129   -1.4962   -0.5641 C   0  0  0  0  0  0  0  0  0  0  0  0
   -1.9995   -0.3232   -0.2475 C   0  0  0  0  0  0  0  0  0  0  0  0
   -3.4985   -0.1624   -0.5323 C   0  0  2  0  0  0  0  0  0  0  0  0
   -3.8060    0.2600   -1.9863 C   0  0  0  0  0  0  0  0  0  0  0  0
   -5.3026    0.0393   -2.3410 C   0  0  2  0  0  0  0  0  0  0  0  0
   -5.5192   -1.3533   -2.9587 C   0  0  0  0  0  0  0  0  0  0  0  0
   -5.6501    1.0486   -3.4802 C   0  0  0  0  0  0  0  0  0  0  0  0
   -6.5728    1.8757   -3.2289 O   0  0  0  0  0  0  0  0  0  0  0  0
   -4.9757    0.9286   -4.5444 O   0  0  0  0  0  0  0  0  0  0  0  0
   -6.2092    0.1730   -1.0959 C   0  0  0  0  0  0  0  0  0  0  0  0
   -5.6441    1.1828   -0.0977 C   0  0  0  0  0  0  0  0  0  0  0  0
   -4.2729    0.7291    0.4849 C   0  0  1  0  0  0  0  0  0  0  0  0
   -4.5417   -0.0927    1.7703 C   0  0  0  0  0  0  0  0  0  0  0  0
   -3.4625    1.9961    0.8334 C   0  0  0  0  0  0  0  0  0  0  0  0
   -2.0597    1.6787    1.3471 C   0  0  0  0  0  0  0  0  0  0  0  0
   -1.1888    0.8297    0.3732 C   0  0  1  0  0  0  0  0  0  0  0  0
   -0.7946    1.7645   -0.8097 C   0  0  0  0  0  0  0  0  0  0  0  0
    4.7180    0.0307    1.1414 C   0  0  1  0  0  0  0  0  0  0  0  0
    5.1224   -0.6871    2.4421 C   0  0  0  0  0  0  0  0  0  0  0  0
    5.5228    1.3778    1.1708 C   0  0  0  0  0  0  0  0  0  0  0  0
    6.7552    1.2821    1.4519 O   0  0  0  0  0  0  0  0  0  0  0  0
    4.8740    2.4292    0.9068 O   0  0  0  0  0  0  0  0  0  0  0  0
    5.8770    2.1746   -2.7323 H   0  0  0  0  0  0  0  0  0  0  0  0
    4.8904    1.0638   -3.7439 H   0  0  0  0  0  0  0  0  0  0  0  0
    6.6472    1.1925   -3.9909 H   0  0  0  0  0  0  0  0  0  0  0  0
    6.3985   -0.8608    0.0456 H   0  0  0  0  0  0  0  0  0  0  0  0
    4.8333   -2.7250    0.3489 H   0  0  0  0  0  0  0  0  0  0  0  0
    5.0193   -2.4043   -1.3602 H   0  0  0  0  0  0  0  0  0  0  0  0
    2.6644   -2.7893   -0.8239 H   0  0  0  0  0  0  0  0  0  0  0  0
    2.9384   -1.2041   -1.5213 H   0  0  0  0  0  0  0  0  0  0  0  0
    2.4374   -1.7455    2.7323 H   0  0  0  0  0  0  0  0  0  0  0  0
    1.4707   -2.8106    1.7280 H   0  0  0  0  0  0  0  0  0  0  0  0
    3.1915   -2.9034    1.6704 H   0  0  0  0  0  0  0  0  0  0  0  0
    3.0603    0.8374    0.0835 H   0  0  0  0  0  0  0  0  0  0  0  0
    2.3753    0.3234    3.0117 H   0  0  0  0  0  0  0  0  0  0  0  0
    3.0096    1.8216    2.3997 H   0  0  0  0  0  0  0  0  0  0  0  0
    0.5820    1.9324    2.4690 H   0  0  0  0  0  0  0  0  0  0  0  0
    1.2210    2.1164    0.8519 H   0  0  0  0  0  0  0  0  0  0  0  0
   -1.0790   -1.3186    2.1874 H   0  0  0  0  0  0  0  0  0  0  0  0
   -0.7514    0.1026    3.1795 H   0  0  0  0  0  0  0  0  0  0  0  0
    0.4906   -1.0554    2.9218 H   0  0  0  0  0  0  0  0  0  0  0  0
    1.1089   -0.0762   -0.7318 H   0  0  0  0  0  0  0  0  0  0  0  0
    0.0465   -2.7054    0.3171 H   0  0  0  0  0  0  0  0  0  0  0  0
    0.4247   -2.2049   -1.3193 H   0  0  0  0  0  0  0  0  0  0  0  0
   -2.0147   -2.2829   -1.0163 H   0  0  0  0  0  0  0  0  0  0  0  0
   -3.9206   -1.1752   -0.4314 H   0  0  0  0  0  0  0  0  0  0  0  0
   -3.5449    1.3163   -2.1230 H   0  0  0  0  0  0  0  0  0  0  0  0
   -3.1694   -0.2975   -2.6859 H   0  0  0  0  0  0  0  0  0  0  0  0
   -6.5605   -1.4846   -3.2758 H   0  0  0  0  0  0  0  0  0  0  0  0
   -4.8860   -1.5224   -3.8372 H   0  0  0  0  0  0  0  0  0  0  0  0
   -5.2864   -2.1465   -2.2394 H   0  0  0  0  0  0  0  0  0  0  0  0
   -7.2282    0.4663   -1.3741 H   0  0  0  0  0  0  0  0  0  0  0  0
   -6.3155   -0.7961   -0.5915 H   0  0  0  0  0  0  0  0  0  0  0  0
   -5.5462    2.1516   -0.6042 H   0  0  0  0  0  0  0  0  0  0  0  0
   -6.3679    1.3427    0.7111 H   0  0  0  0  0  0  0  0  0  0  0  0
   -3.6270   -0.5278    2.1843 H   0  0  0  0  0  0  0  0  0  0  0  0
   -4.9965    0.5304    2.5487 H   0  0  0  0  0  0  0  0  0  0  0  0
   -5.2284   -0.9232    1.5719 H   0  0  0  0  0  0  0  0  0  0  0  0
   -3.3906    2.6565   -0.0386 H   0  0  0  0  0  0  0  0  0  0  0  0
   -3.9937    2.5760    1.5998 H   0  0  0  0  0  0  0  0  0  0  0  0
   -2.1847    1.1881    2.3132 H   0  0  0  0  0  0  0  0  0  0  0  0
   -1.5513    2.6263    1.5669 H   0  0  0  0  0  0  0  0  0  0  0  0
   -0.2531    2.6522   -0.4716 H   0  0  0  0  0  0  0  0  0  0  0  0
   -1.6707    2.1440   -1.3427 H   0  0  0  0  0  0  0  0  0  0  0  0
   -0.1844    1.2627   -1.5655 H   0  0  0  0  0  0  0  0  0  0  0  0
    4.7568   -1.7110    2.4967 H   0  0  0  0  0  0  0  0  0  0  0  0
    6.2100   -0.7714    2.5534 H   0  0  0  0  0  0  0  0  0  0  0  0
    4.7553   -0.1484    3.3224 H   0  0  0  0  0  0  0  0  0  0  0  0
  1  2  1  0
  2  3  2  0
  2  4  1  0
  4  5  1  0
  5  6  1  0
  6  7  1  0
  7  8  1  0
  8  9  1  1
  8 10  1  0
 10 11  1  0
 11 12  1  0
 12 13  1  0
 13 14  1  1
 13 15  1  0
 15 16  1  0
 16 17  1  0
 17 18  2  0
 18 19  1  0
 19 20  1  0
 20 21  1  0
 21 22  1  6
 21 23  1  0
 23 24  2  0
 23 25  1  0
 21 26  1  0
 26 27  1  0
 27 28  1  0
 28 29  1  1
 28 30  1  0
 30 31  1  0
 31 32  1  0
 32 33  1  6
 10 34  1  0
 34 35  1  1
 34 36  1  0
 36 37  2  0
 36 38  1  0
 34  5  1  0
 15  8  1  0
 32 18  1  0
 32 13  1  0
 28 19  1  0
  1 39  1  0
  1 40  1  0
  1 41  1  0
  5 42  1  1
  6 43  1  0
  6 44  1  0
  7 45  1  0
  7 46  1  0
  9 47  1  0
  9 48  1  0
  9 49  1  0
 10 50  1  6
 11 51  1  0
 11 52  1  0
 12 53  1  0
 12 54  1  0
 14 55  1  0
 14 56  1  0
 14 57  1  0
 15 58  1  6
 16 59  1  0
 16 60  1  0
 17 61  1  0
 19 62  1  6
 20 63  1  0
 20 64  1  0
 22 65  1  0
 22 66  1  0
 22 67  1  0
 26 68  1  0
 26 69  1  0
 27 70  1  0
 27 71  1  0
 29 72  1  0
 29 73  1  0
 29 74  1  0
 30 75  1  0
 30 76  1  0
 31 77  1  0
 31 78  1  0
 33 79  1  0
 33 80  1  0
 33 81  1  0
 35 82  1  0
 35 83  1  0
 35 84  1  0
M  CHG  2  25  -1  38  -1
M  END
$$$$
