
     RDKit          3D

 60 64  0  0  0  0  0  0  0  0999 V2000
    5.0167    0.2915    0.4726 O   0  0  0  0  0  0  0  0  0  0  0  0
    4.0356   -0.2153   -0.0553 C   0  0  0  0  0  0  0  0  0  0  0  0
    2.7240   -0.0244    0.3539 N   0  0  0  0  0  0  0  0  0  0  0  0
    2.2466    0.8411    1.3608 C   0  0  0  0  0  0  0  0  0  0  0  0
    3.0441    1.7388    2.0676 C   0  0  0  0  0  0  0  0  0  0  0  0
    2.4772    2.5790    3.0293 C   0  0  0  0  0  0  0  0  0  0  0  0
    1.1078    2.5247    3.2968 C   0  0  0  0  0  0  0  0  0  0  0  0
    0.2854    1.6196    2.6138 C   0  0  0  0  0  0  0  0  0  0  0  0
   -1.1779    1.5294    2.8530 C   0  0  0  0  0  0  0  0  0  0  0  0
   -1.6781    1.6848    4.0966 C   0  0  0  0  0  0  0  0  0  0  0  0
   -3.0398    1.5633    4.2729 N   0  0  0  0  0  0  0  0  0  0  0  0
   -3.8355    1.6656    5.3814 C   0  0  0  0  0  0  0  0  0  0  0  0
   -5.1168    1.4406    4.9227 C   0  0  0  0  0  0  0  0  0  0  0  0
   -5.1268    1.2023    3.5695 N   0  0  0  0  0  0  0  0  0  0  0  0
   -3.8602    1.2824    3.2165 C   0  0  0  0  0  0  0  0  0  0  0  0
   -3.2793    1.1065    1.8969 C   0  0  0  0  0  0  0  0  0  0  0  0
   -4.0656    0.8048    0.8150 N   0  0  0  0  0  0  0  0  0  0  0  0
   -3.5736    0.6493   -0.5276 C   0  0  0  0  0  0  0  0  0  0  0  0
   -4.6630    0.1213   -1.4227 C   0  0  0  0  0  0  0  0  0  0  0  0
   -5.4273    0.9918   -2.2104 C   0  0  0  0  0  0  0  0  0  0  0  0
   -6.4333    0.4934   -3.0434 C   0  0  0  0  0  0  0  0  0  0  0  0
   -6.7073   -0.8820   -3.1049 C   0  0  0  0  0  0  0  0  0  0  0  0
   -7.7905   -1.4216   -4.0200 C   0  0  0  0  0  0  0  0  0  0  0  0
   -8.4349   -0.5754   -4.7171 O   0  0  0  0  0  0  0  0  0  0  0  0
   -7.9702   -2.6807   -4.0251 O   0  0  0  0  0  0  0  0  0  0  0  0
   -5.9511   -1.7447   -2.2965 C   0  0  0  0  0  0  0  0  0  0  0  0
   -4.9444   -1.2513   -1.4623 C   0  0  0  0  0  0  0  0  0  0  0  0
   -1.9779    1.2347    1.7530 N   0  0  0  0  0  0  0  0  0  0  0  0
    0.8732    0.7930    1.6394 C   0  0  0  0  0  0  0  0  0  0  0  0
    4.0770   -1.0668   -1.1517 N   0  0  0  0  0  0  0  0  0  0  0  0
    5.2148   -1.5718   -1.8143 C   0  0  0  0  0  0  0  0  0  0  0  0
    4.9919   -2.3564   -2.9529 C   0  0  0  0  0  0  0  0  0  0  0  0
    6.0610   -2.8962   -3.6702 C   0  0  0  0  0  0  0  0  0  0  0  0
    7.3687   -2.6607   -3.2529 C   0  0  0  0  0  0  0  0  0  0  0  0
    7.6167   -1.8884   -2.1098 C   0  0  0  0  0  0  0  0  0  0  0  0
    9.0266   -1.6119   -1.6509 C   0  0  0  0  0  0  0  0  0  0  0  0
    9.9486   -2.4432   -2.2173 F   0  0  0  0  0  0  0  0  0  0  0  0
    9.4365   -0.3489   -1.9522 F   0  0  0  0  0  0  0  0  0  0  0  0
    9.1883   -1.7506   -0.3057 F   0  0  0  0  0  0  0  0  0  0  0  0
    6.5293   -1.3446   -1.4003 C   0  0  0  0  0  0  0  0  0  0  0  0
    2.0228   -0.5973   -0.0896 H   0  0  0  0  0  0  0  0  0  0  0  0
    4.1104    1.8231    1.8836 H   0  0  0  0  0  0  0  0  0  0  0  0
    3.1078    3.2865    3.5621 H   0  0  0  0  0  0  0  0  0  0  0  0
    0.6944    3.2119    4.0301 H   0  0  0  0  0  0  0  0  0  0  0  0
   -1.0848    1.8852    4.9778 H   0  0  0  0  0  0  0  0  0  0  0  0
   -3.4416    1.8809    6.3634 H   0  0  0  0  0  0  0  0  0  0  0  0
   -6.0351    1.4364    5.4964 H   0  0  0  0  0  0  0  0  0  0  0  0
   -5.0658    0.7089    0.9678 H   0  0  0  0  0  0  0  0  0  0  0  0
   -3.2061    1.6098   -0.9081 H   0  0  0  0  0  0  0  0  0  0  0  0
   -2.7251   -0.0459   -0.5528 H   0  0  0  0  0  0  0  0  0  0  0  0
   -5.2476    2.0633   -2.1887 H   0  0  0  0  0  0  0  0  0  0  0  0
   -7.0183    1.1754   -3.6591 H   0  0  0  0  0  0  0  0  0  0  0  0
   -6.1590   -2.8135   -2.3267 H   0  0  0  0  0  0  0  0  0  0  0  0
   -4.3829   -1.9487   -0.8464 H   0  0  0  0  0  0  0  0  0  0  0  0
    0.2338    0.1011    1.0938 H   0  0  0  0  0  0  0  0  0  0  0  0
    3.1874   -1.3156   -1.5558 H   0  0  0  0  0  0  0  0  0  0  0  0
    3.9817   -2.5554   -3.3031 H   0  0  0  0  0  0  0  0  0  0  0  0
    5.8715   -3.4985   -4.5556 H   0  0  0  0  0  0  0  0  0  0  0  0
    8.1953   -3.0836   -3.8219 H   0  0  0  0  0  0  0  0  0  0  0  0
    6.7446   -0.7470   -0.5178 H   0  0  0  0  0  0  0  0  0  0  0  0
  1  2  2  0
  2  3  1  0
  3  4  1  0
  4  5  2  0
  5  6  1  0
  6  7  2  0
  7  8  1  0
  8  9  1  0
  9 10  2  0
 10 11  1  0
 11 12  1  0
 12 13  2  0
 13 14  1  0
 14 15  2  0
 15 16  1  0
 16 17  1  0
 17 18  1  0
 18 19  1  0
 19 20  2  0
 20 21  1  0
 21 22  2  0
 22 23  1  0
 23 24  2  0
 23 25  1  0
 22 26  1  0
 26 27  2  0
 16 28  2  0
  8 29  2  0
  2 30  1  0
 30 31  1  0
 31 32  2  0
 32 33  1  0
 33 34  2  0
 34 35  1  0
 35 36  1  0
 36 37  1  0
 36 38  1  0
 36 39  1  0
 35 40  2  0
 29  4  1  0
 40 31  1  0
 28  9  1  0
 15 11  1  0
 27 19  1  0
  3 41  1  0
  5 42  1  0
  6 43  1  0
  7 44  1  0
 10 45  1  0
 12 46  1  0
 13 47  1  0
 17 48  1  0
 18 49  1  0
 18 50  1  0
 20 51  1  0
 21 52  1  0
 26 53  1  0
 27 54  1  0
 29 55  1  0
 30 56  1  0
 32 57  1  0
 33 58  1  0
 34 59  1  0
 40 60  1  0
M  CHG  1  25  -1
M  END
$$$$
