
     RDKit          3D

 86 90  0  0  0  0  0  0  0  0999 V2000
    6.5840    1.5250    2.0478 C   0  0  0  0  0  0  0  0  0  0  0  0
    5.8123    0.4041    1.3338 C   0  0  2  0  0  0  0  0  0  0  0  0
    6.5065    0.0799   -0.0064 C   0  0  0  0  0  0  0  0  0  0  0  0
    5.7446    0.5924   -1.2250 C   0  0  0  0  0  0  0  0  0  0  0  0
    4.3009    0.0206   -1.3292 C   0  0  2  0  0  0  0  0  0  0  0  0
    4.5446   -1.3039   -2.1365 C   0  0  0  0  0  0  0  0  0  0  0  0
    4.8383   -2.3315   -1.4575 O   0  0  0  0  0  0  0  0  0  0  0  0
    4.4857   -1.2071   -3.3980 O   0  0  0  0  0  0  0  0  0  0  0  0
    3.4471    1.0233   -2.1313 C   0  0  0  0  0  0  0  0  0  0  0  0
    1.9940    0.5711   -2.2565 C   0  0  0  0  0  0  0  0  0  0  0  0
    1.2551    0.3788   -0.9005 C   0  0  2  0  0  0  0  0  0  0  0  0
    1.0584    1.7842   -0.2664 C   0  0  0  0  0  0  0  0  0  0  0  0
    2.1392   -0.4417    0.0595 C   0  0  0  0  0  0  0  0  0  0  0  0
    1.6043   -1.3895    0.8582 C   0  0  0  0  0  0  0  0  0  0  0  0
    0.1548   -1.7324    0.9905 C   0  0  0  0  0  0  0  0  0  0  0  0
   -0.7991   -0.7714    0.2525 C   0  0  2  0  0  0  0  0  0  0  0  0
   -2.3342   -1.2158    0.2858 C   0  0  1  0  0  0  0  0  0  0  0  0
   -2.5544   -2.6217   -0.3320 C   0  0  0  0  0  0  0  0  0  0  0  0
   -2.7989   -1.2917    1.7731 C   0  0  0  0  0  0  0  0  0  0  0  0
   -4.3136   -1.4001    1.9477 C   0  0  1  0  0  0  0  0  0  0  0  0
   -4.6199   -1.3601    3.3509 O   0  0  0  0  0  0  0  0  0  0  0  0
   -5.0447   -0.2508    1.2426 C   0  0  2  0  0  0  0  0  0  0  0  0
   -6.4481   -0.4079    1.5032 O   0  0  0  0  0  0  0  0  0  0  0  0
   -4.7384   -0.1665   -0.2822 C   0  0  1  0  0  0  0  0  0  0  0  0
   -5.3683   -1.3457   -1.0558 C   0  0  0  0  0  0  0  0  0  0  0  0
   -5.4469    1.1067   -0.8495 C   0  0  0  0  0  0  0  0  0  0  0  0
   -5.0768    2.2790   -0.1435 O   0  0  0  0  0  0  0  0  0  0  0  0
   -6.2795    3.1716    0.5085 S   0  0  0  0  0  0  0  0  0  0  0  0
   -5.5788    4.2211    1.2365 O   0  0  0  0  0  0  0  0  0  0  0  0
   -6.9839    2.2080    1.3577 O   0  0  0  0  0  0  0  0  0  0  0  0
   -7.0434    3.6241   -0.6492 O   0  0  0  0  0  0  0  0  0  0  0  0
   -3.1671   -0.0811   -0.4347 C   0  0  2  0  0  0  0  0  0  0  0  0
   -2.6548    0.1229   -1.8756 C   0  0  0  0  0  0  0  0  0  0  0  0
   -1.1963    0.5923   -1.8710 C   0  0  0  0  0  0  0  0  0  0  0  0
   -0.1985   -0.3558   -1.1461 C   0  0  1  0  0  0  0  0  0  0  0  0
   -0.0055   -1.6030   -2.0599 C   0  0  0  0  0  0  0  0  0  0  0  0
    3.6837   -0.2615    0.0739 C   0  0  2  0  0  0  0  0  0  0  0  0
    4.2803    0.6983    1.1806 C   0  0  1  0  0  0  0  0  0  0  0  0
    3.5854    0.5213    2.5448 C   0  0  0  0  0  0  0  0  0  0  0  0
    4.1315    2.0737    0.8013 O   0  0  0  0  0  0  0  0  0  0  0  0
    6.1470    1.7621    3.0216 H   0  0  0  0  0  0  0  0  0  0  0  0
    6.6087    2.4417    1.4493 H   0  0  0  0  0  0  0  0  0  0  0  0
    7.6212    1.2200    2.2271 H   0  0  0  0  0  0  0  0  0  0  0  0
    5.9224   -0.4948    1.9574 H   0  0  0  0  0  0  0  0  0  0  0  0
    7.5276    0.4801   -0.0260 H   0  0  0  0  0  0  0  0  0  0  0  0
    6.6233   -1.0076   -0.0858 H   0  0  0  0  0  0  0  0  0  0  0  0
    6.3290    0.3645   -2.1265 H   0  0  0  0  0  0  0  0  0  0  0  0
    5.7202    1.6887   -1.1731 H   0  0  0  0  0  0  0  0  0  0  0  0
    3.4823    2.0183   -1.6749 H   0  0  0  0  0  0  0  0  0  0  0  0
    3.8565    1.1622   -3.1403 H   0  0  0  0  0  0  0  0  0  0  0  0
    1.4548    1.2996   -2.8745 H   0  0  0  0  0  0  0  0  0  0  0  0
    2.0111   -0.3576   -2.8309 H   0  0  0  0  0  0  0  0  0  0  0  0
    0.5680    2.4786   -0.9555 H   0  0  0  0  0  0  0  0  0  0  0  0
    2.0010    2.2653   -0.0143 H   0  0  0  0  0  0  0  0  0  0  0  0
    0.4784    1.7549    0.6595 H   0  0  0  0  0  0  0  0  0  0  0  0
    2.2666   -1.9989    1.4703 H   0  0  0  0  0  0  0  0  0  0  0  0
    0.0448   -2.7632    0.6457 H   0  0  0  0  0  0  0  0  0  0  0  0
   -0.0867   -1.7327    2.0596 H   0  0  0  0  0  0  0  0  0  0  0  0
   -0.7924    0.1469    0.8554 H   0  0  0  0  0  0  0  0  0  0  0  0
   -3.3606   -3.1752    0.1552 H   0  0  0  0  0  0  0  0  0  0  0  0
   -2.8091   -2.5885   -1.3926 H   0  0  0  0  0  0  0  0  0  0  0  0
   -1.6853   -3.2732   -0.2305 H   0  0  0  0  0  0  0  0  0  0  0  0
   -2.3282   -2.1418    2.2836 H   0  0  0  0  0  0  0  0  0  0  0  0
   -2.4521   -0.4032    2.3190 H   0  0  0  0  0  0  0  0  0  0  0  0
   -4.6937   -2.3653    1.6027 H   0  0  0  0  0  0  0  0  0  0  0  0
   -5.5598   -1.0842    3.3774 H   0  0  0  0  0  0  0  0  0  0  0  0
   -4.7391    0.6750    1.7481 H   0  0  0  0  0  0  0  0  0  0  0  0
   -6.8156    0.5167    1.5016 H   0  0  0  0  0  0  0  0  0  0  0  0
   -6.4636   -1.2892   -1.0412 H   0  0  0  0  0  0  0  0  0  0  0  0
   -5.0643   -1.3403   -2.1075 H   0  0  0  0  0  0  0  0  0  0  0  0
   -5.1214   -2.3198   -0.6368 H   0  0  0  0  0  0  0  0  0  0  0  0
   -6.5356    0.9653   -0.8273 H   0  0  0  0  0  0  0  0  0  0  0  0
   -5.2068    1.2631   -1.9051 H   0  0  0  0  0  0  0  0  0  0  0  0
   -2.9020    0.8482    0.0965 H   0  0  0  0  0  0  0  0  0  0  0  0
   -3.2297    0.9015   -2.3845 H   0  0  0  0  0  0  0  0  0  0  0  0
   -2.7666   -0.7770   -2.4855 H   0  0  0  0  0  0  0  0  0  0  0  0
   -0.8764    0.7626   -2.9061 H   0  0  0  0  0  0  0  0  0  0  0  0
   -1.2069    1.5759   -1.3933 H   0  0  0  0  0  0  0  0  0  0  0  0
    0.7959   -2.2600   -1.7098 H   0  0  0  0  0  0  0  0  0  0  0  0
   -0.9021   -2.2101   -2.1509 H   0  0  0  0  0  0  0  0  0  0  0  0
    0.2286   -1.3143   -3.0901 H   0  0  0  0  0  0  0  0  0  0  0  0
    4.0521   -1.2464    0.3971 H   0  0  0  0  0  0  0  0  0  0  0  0
    4.0307    1.1647    3.3108 H   0  0  0  0  0  0  0  0  0  0  0  0
    2.5335    0.8228    2.4962 H   0  0  0  0  0  0  0  0  0  0  0  0
    3.6473   -0.5121    2.8994 H   0  0  0  0  0  0  0  0  0  0  0  0
    4.1476    2.6173    1.6034 H   0  0  0  0  0  0  0  0  0  0  0  0
  1  2  1  0
  2  3  1  0
  3  4  1  0
  4  5  1  0
  5  6  1  6
  6  7  2  0
  6  8  1  0
  5  9  1  0
  9 10  1  0
 10 11  1  0
 11 12  1  1
 11 13  1  0
 13 14  2  0
 14 15  1  0
 15 16  1  0
 16 17  1  0
 17 18  1  6
 17 19  1  0
 19 20  1  0
 20 21  1  0
 20 22  1  0
 22 23  1  0
 22 24  1  0
 24 25  1  6
 24 26  1  0
 26 27  1  0
 27 28  1  0
 28 29  2  0
 28 30  2  0
 28 31  1  0
 24 32  1  0
 32 33  1  0
 33 34  1  0
 34 35  1  0
 35 36  1  6
 13 37  1  0
 37 38  1  0
 38 39  1  0
 38 40  1  6
 38  2  1  0
 37  5  1  0
 35 11  1  0
 35 16  1  0
 32 17  1  0
  1 41  1  0
  1 42  1  0
  1 43  1  0
  2 44  1  1
  3 45  1  0
  3 46  1  0
  4 47  1  0
  4 48  1  0
  9 49  1  0
  9 50  1  0
 10 51  1  0
 10 52  1  0
 12 53  1  0
 12 54  1  0
 12 55  1  0
 14 56  1  0
 15 57  1  0
 15 58  1  0
 16 59  1  1
 18 60  1  0
 18 61  1  0
 18 62  1  0
 19 63  1  0
 19 64  1  0
 20 65  1  6
 21 66  1  0
 22 67  1  1
 23 68  1  0
 25 69  1  0
 25 70  1  0
 25 71  1  0
 26 72  1  0
 26 73  1  0
 32 74  1  1
 33 75  1  0
 33 76  1  0
 34 77  1  0
 34 78  1  0
 36 79  1  0
 36 80  1  0
 36 81  1  0
 37 82  1  1
 39 83  1  0
 39 84  1  0
 39 85  1  0
 40 86  1  0
M  CHG  2   8  -1  31  -1
M  END
$$$$
