
     RDKit          3D

 51 54  0  0  0  0  0  0  0  0999 V2000
   -2.7677   -3.5304    0.2353 C   0  0  0  0  0  0  0  0  0  0  0  0
   -3.4237   -2.3538    0.9567 C   0  0  0  0  0  0  0  0  0  0  0  0
   -3.2813   -1.1004    0.1941 N   0  0  0  0  0  0  0  0  0  0  0  0
   -1.9719   -0.6210    0.0522 C   0  0  0  0  0  0  0  0  0  0  0  0
   -1.0445   -1.0056    0.9737 N   0  0  0  0  0  0  0  0  0  0  0  0
    0.2213   -0.5347    0.8864 C   0  0  0  0  0  0  0  0  0  0  0  0
    0.6580    0.3222   -0.1061 C   0  0  0  0  0  0  0  0  0  0  0  0
    2.0652    0.8520   -0.1493 C   0  0  0  0  0  0  0  0  0  0  0  0
    2.9728   -0.1470    0.3137 O   0  0  0  0  0  0  0  0  0  0  0  0
    4.2967    0.1889    0.3781 C   0  0  0  0  0  0  0  0  0  0  0  0
    4.8560    1.4047   -0.0176 C   0  0  0  0  0  0  0  0  0  0  0  0
    6.2320    1.6190    0.1071 C   0  0  0  0  0  0  0  0  0  0  0  0
    7.0583    0.6178    0.6203 C   0  0  0  0  0  0  0  0  0  0  0  0
    6.5073   -0.6087    1.0059 C   0  0  0  0  0  0  0  0  0  0  0  0
    7.3346   -1.7108    1.5632 C   0  0  0  0  0  0  0  0  0  0  0  0
    8.6587   -1.7428    1.2268 N   0  0  0  0  0  0  0  0  0  0  0  0
    6.8511   -2.5788    2.2785 O   0  0  0  0  0  0  0  0  0  0  0  0
    5.1262   -0.8117    0.8915 C   0  0  0  0  0  0  0  0  0  0  0  0
   -0.2936    0.7141   -1.0465 C   0  0  0  0  0  0  0  0  0  0  0  0
   -1.6198    0.2436   -0.9724 C   0  0  0  0  0  0  0  0  0  0  0  0
   -2.5178    0.5973   -2.0848 C   0  0  0  0  0  0  0  0  0  0  0  0
   -1.9745    0.7131   -3.1893 O   0  0  0  0  0  0  0  0  0  0  0  0
   -3.8692    0.9051   -1.8980 N   0  0  0  0  0  0  0  0  0  0  0  0
   -4.5676    1.4347   -3.0706 C   0  0  0  0  0  0  0  0  0  0  0  0
   -4.6190    0.7719   -0.6827 C   0  0  0  0  0  0  0  0  0  0  0  0
   -5.7350    1.6106   -0.4804 C   0  0  0  0  0  0  0  0  0  0  0  0
   -6.5517    1.4661    0.6343 C   0  0  0  0  0  0  0  0  0  0  0  0
   -6.2363    0.4647    1.5181 C   0  0  0  0  0  0  0  0  0  0  0  0
   -7.1852    0.1870    2.9172 Cl  0  0  0  0  0  0  0  0  0  0  0  0
   -5.1909   -0.3649    1.3728 N   0  0  0  0  0  0  0  0  0  0  0  0
   -4.3708   -0.2158    0.2947 C   0  0  0  0  0  0  0  0  0  0  0  0
   -2.9780   -4.4619    0.7709 H   0  0  0  0  0  0  0  0  0  0  0  0
   -3.1580   -3.6281   -0.7834 H   0  0  0  0  0  0  0  0  0  0  0  0
   -1.6810   -3.4267    0.1690 H   0  0  0  0  0  0  0  0  0  0  0  0
   -3.0359   -2.2528    1.9785 H   0  0  0  0  0  0  0  0  0  0  0  0
   -4.4817   -2.6339    1.0503 H   0  0  0  0  0  0  0  0  0  0  0  0
    0.8896   -0.8872    1.6689 H   0  0  0  0  0  0  0  0  0  0  0  0
    2.3182    1.1177   -1.1830 H   0  0  0  0  0  0  0  0  0  0  0  0
    2.1142    1.7411    0.4913 H   0  0  0  0  0  0  0  0  0  0  0  0
    4.2526    2.2102   -0.4233 H   0  0  0  0  0  0  0  0  0  0  0  0
    6.6591    2.5742   -0.1906 H   0  0  0  0  0  0  0  0  0  0  0  0
    8.1181    0.8219    0.7355 H   0  0  0  0  0  0  0  0  0  0  0  0
    9.2085   -2.5039    1.6041 H   0  0  0  0  0  0  0  0  0  0  0  0
    9.0959   -1.1155    0.5697 H   0  0  0  0  0  0  0  0  0  0  0  0
    4.6914   -1.7604    1.2025 H   0  0  0  0  0  0  0  0  0  0  0  0
   -0.0080    1.3759   -1.8631 H   0  0  0  0  0  0  0  0  0  0  0  0
   -4.5751    2.5280   -3.0154 H   0  0  0  0  0  0  0  0  0  0  0  0
   -4.0742    1.1478   -4.0040 H   0  0  0  0  0  0  0  0  0  0  0  0
   -5.5895    1.0440   -3.1170 H   0  0  0  0  0  0  0  0  0  0  0  0
   -5.9788    2.4068   -1.1781 H   0  0  0  0  0  0  0  0  0  0  0  0
   -7.4048    2.1145    0.7945 H   0  0  0  0  0  0  0  0  0  0  0  0
  1  2  1  0
  2  3  1  0
  3  4  1  0
  4  5  2  0
  5  6  1  0
  6  7  2  0
  7  8  1  0
  8  9  1  0
  9 10  1  0
 10 11  2  0
 11 12  1  0
 12 13  2  0
 13 14  1  0
 14 15  1  0
 15 16  1  0
 15 17  2  0
 14 18  2  0
  7 19  1  0
 19 20  2  0
 20 21  1  0
 21 22  2  0
 21 23  1  0
 23 24  1  0
 23 25  1  0
 25 26  2  0
 26 27  1  0
 27 28  2  0
 28 29  1  0
 28 30  1  0
 30 31  2  0
 31  3  1  0
 20  4  1  0
 31 25  1  0
 18 10  1  0
  1 32  1  0
  1 33  1  0
  1 34  1  0
  2 35  1  0
  2 36  1  0
  6 37  1  0
  8 38  1  0
  8 39  1  0
 11 40  1  0
 12 41  1  0
 13 42  1  0
 16 43  1  0
 16 44  1  0
 18 45  1  0
 19 46  1  0
 24 47  1  0
 24 48  1  0
 24 49  1  0
 26 50  1  0
 27 51  1  0
M  END
$$$$
