
     RDKit          3D

 34 34  0  0  0  0  0  0  0  0999 V2000
   -5.8062   -0.9075    0.8718 C   0  0  0  0  0  0  0  0  0  0  0  0
   -4.5320   -0.1295    1.0735 C   0  0  0  0  0  0  0  0  0  0  0  0
   -4.2165    0.2969    2.1834 O   0  0  0  0  0  0  0  0  0  0  0  0
   -3.6724    0.0795   -0.1585 C   0  0  0  0  0  0  0  0  0  0  0  0
   -2.4443    0.9363    0.1407 C   0  0  0  0  0  0  0  0  0  0  0  0
   -1.6025    1.1256   -1.0896 C   0  0  0  0  0  0  0  0  0  0  0  0
   -0.3251    0.7419   -1.2309 C   0  0  0  0  0  0  0  0  0  0  0  0
    0.5875    0.0802   -0.2687 C   0  0  0  0  0  0  0  0  0  0  0  0
    1.9336    0.5008   -0.8284 C   0  0  1  0  0  0  0  0  0  0  0  0
    3.0030   -0.5336   -0.6180 C   0  0  0  0  0  0  0  0  0  0  0  0
    3.9757   -0.5325    0.3155 C   0  0  0  0  0  0  0  0  0  0  0  0
    4.9973   -1.6392    0.3618 C   0  0  0  0  0  0  0  0  0  0  0  0
    4.1513    0.5167    1.3787 C   0  0  0  0  0  0  0  0  0  0  0  0
    1.7384    0.6654   -2.2401 O   0  0  0  0  0  0  0  0  0  0  0  0
    0.4346    0.9677   -2.4836 C   0  0  0  0  0  0  0  0  0  0  0  0
   -0.0257    1.3307   -3.5497 O   0  0  0  0  0  0  0  0  0  0  0  0
   -5.5692   -1.9103    0.5082 H   0  0  0  0  0  0  0  0  0  0  0  0
   -6.3409   -0.9927    1.8219 H   0  0  0  0  0  0  0  0  0  0  0  0
   -6.4440   -0.3862    0.1537 H   0  0  0  0  0  0  0  0  0  0  0  0
   -3.3669   -0.9069   -0.5263 H   0  0  0  0  0  0  0  0  0  0  0  0
   -4.2912    0.5606   -0.9248 H   0  0  0  0  0  0  0  0  0  0  0  0
   -1.8654    0.4799    0.9515 H   0  0  0  0  0  0  0  0  0  0  0  0
   -2.7582    1.9233    0.5020 H   0  0  0  0  0  0  0  0  0  0  0  0
   -2.0910    1.6233   -1.9289 H   0  0  0  0  0  0  0  0  0  0  0  0
    0.4415   -1.0056   -0.3119 H   0  0  0  0  0  0  0  0  0  0  0  0
    0.4666    0.4140    0.7658 H   0  0  0  0  0  0  0  0  0  0  0  0
    2.2408    1.4788   -0.4403 H   0  0  0  0  0  0  0  0  0  0  0  0
    2.9716   -1.3592   -1.3296 H   0  0  0  0  0  0  0  0  0  0  0  0
    6.0053   -1.2287    0.2425 H   0  0  0  0  0  0  0  0  0  0  0  0
    4.9455   -2.1634    1.3217 H   0  0  0  0  0  0  0  0  0  0  0  0
    4.8444   -2.3800   -0.4302 H   0  0  0  0  0  0  0  0  0  0  0  0
    5.0858    1.0637    1.2174 H   0  0  0  0  0  0  0  0  0  0  0  0
    3.3359    1.2434    1.4068 H   0  0  0  0  0  0  0  0  0  0  0  0
    4.1926    0.0469    2.3673 H   0  0  0  0  0  0  0  0  0  0  0  0
  1  2  1  0
  2  3  2  0
  2  4  1  0
  4  5  1  0
  5  6  1  0
  6  7  2  0
  7  8  1  0
  8  9  1  0
  9 10  1  0
 10 11  2  3
 11 12  1  0
 11 13  1  0
  9 14  1  0
 14 15  1  0
 15 16  2  0
 15  7  1  0
  1 17  1  0
  1 18  1  0
  1 19  1  0
  4 20  1  0
  4 21  1  0
  5 22  1  0
  5 23  1  0
  6 24  1  0
  8 25  1  0
  8 26  1  0
  9 27  1  1
 10 28  1  0
 12 29  1  0
 12 30  1  0
 12 31  1  0
 13 32  1  0
 13 33  1  0
 13 34  1  0
M  END
$$$$
