
     RDKit          3D

 68 72  0  0  0  0  0  0  0  0999 V2000
   -6.3627    0.3075    3.6489 C   0  0  0  0  0  0  0  0  0  0  0  0
   -4.9275    0.0264    3.2893 C   0  0  0  0  0  0  0  0  0  0  0  0
   -3.9370    0.1123    4.2795 C   0  0  0  0  0  0  0  0  0  0  0  0
   -2.5994   -0.1484    3.9736 C   0  0  0  0  0  0  0  0  0  0  0  0
   -2.2313   -0.4912    2.6693 C   0  0  0  0  0  0  0  0  0  0  0  0
   -0.7943   -0.7576    2.3790 C   0  0  0  0  0  0  0  0  0  0  0  0
   -0.0800   -1.2100    3.2665 O   0  0  0  0  0  0  0  0  0  0  0  0
   -0.3675   -0.3958    1.1093 N   0  0  0  0  0  0  0  0  0  0  0  0
    0.9020   -0.6479    0.5525 C   0  0  0  0  0  0  0  0  0  0  0  0
    1.8355   -1.5092    1.1268 C   0  0  0  0  0  0  0  0  0  0  0  0
    3.0824   -1.7185    0.5325 C   0  0  0  0  0  0  0  0  0  0  0  0
    3.4337   -1.0569   -0.6530 C   0  0  0  0  0  0  0  0  0  0  0  0
    4.8139   -1.2837   -1.2276 C   0  0  0  0  0  0  0  0  0  0  0  0
    5.7566   -0.0933   -1.0431 N   0  0  0  0  0  0  0  0  0  0  0  0
    6.0300    0.2246    0.4269 C   0  0  0  0  0  0  0  0  0  0  0  0
    6.9786    1.4409    0.5734 C   0  0  0  0  0  0  0  0  0  0  0  0
    8.2595    1.2508   -0.2345 N   0  0  0  0  0  0  0  0  0  0  0  0
    9.1786    2.4508   -0.0950 C   0  0  0  0  0  0  0  0  0  0  0  0
    7.9841    0.9336   -1.7017 C   0  0  0  0  0  0  0  0  0  0  0  0
    7.0410   -0.2865   -1.8456 C   0  0  0  0  0  0  0  0  0  0  0  0
    2.4857   -0.1907   -1.2549 C   0  0  0  0  0  0  0  0  0  0  0  0
    2.8078    0.5598   -2.5257 C   0  0  0  0  0  0  0  0  0  0  0  0
    3.9698    1.2760   -2.3494 F   0  0  0  0  0  0  0  0  0  0  0  0
    1.8765    1.4476   -2.9341 F   0  0  0  0  0  0  0  0  0  0  0  0
    3.0741   -0.2709   -3.5647 F   0  0  0  0  0  0  0  0  0  0  0  0
    1.2262   -0.0098   -0.6483 C   0  0  0  0  0  0  0  0  0  0  0  0
   -3.2136   -0.6043    1.6786 C   0  0  0  0  0  0  0  0  0  0  0  0
   -4.5550   -0.3415    1.9843 C   0  0  0  0  0  0  0  0  0  0  0  0
   -5.5271   -0.4636    0.9386 C   0  0  0  0  0  0  0  0  0  0  0  0
   -6.3523   -0.5603    0.0716 C   0  0  0  0  0  0  0  0  0  0  0  0
   -7.3417   -0.6684   -0.9397 C   0  0  0  0  0  0  0  0  0  0  0  0
   -7.1910   -1.0675   -2.2489 C   0  0  0  0  0  0  0  0  0  0  0  0
   -8.3872   -1.0392   -2.9215 N   0  0  0  0  0  0  0  0  0  0  0  0
   -9.2696   -0.6336   -2.0314 C   0  0  0  0  0  0  0  0  0  0  0  0
  -10.6624   -0.4198   -2.1370 C   0  0  0  0  0  0  0  0  0  0  0  0
  -11.3440    0.0030   -1.0653 C   0  0  0  0  0  0  0  0  0  0  0  0
  -10.5749    0.2242    0.1835 C   0  0  0  0  0  0  0  0  0  0  0  0
   -9.3012    0.0475    0.3435 N   0  0  0  0  0  0  0  0  0  0  0  0
   -8.6805   -0.3888   -0.7978 N   0  0  0  0  0  0  0  0  0  0  0  0
   -6.7584    1.1222    3.0337 H   0  0  0  0  0  0  0  0  0  0  0  0
   -6.9732   -0.5899    3.5063 H   0  0  0  0  0  0  0  0  0  0  0  0
   -6.4604    0.6119    4.6965 H   0  0  0  0  0  0  0  0  0  0  0  0
   -4.2035    0.3783    5.3014 H   0  0  0  0  0  0  0  0  0  0  0  0
   -1.8492   -0.0837    4.7596 H   0  0  0  0  0  0  0  0  0  0  0  0
   -1.0138    0.1547    0.5559 H   0  0  0  0  0  0  0  0  0  0  0  0
    1.6071   -2.0610    2.0369 H   0  0  0  0  0  0  0  0  0  0  0  0
    3.7592   -2.4203    1.0198 H   0  0  0  0  0  0  0  0  0  0  0  0
    5.3057   -2.1480   -0.7653 H   0  0  0  0  0  0  0  0  0  0  0  0
    4.7457   -1.4820   -2.3026 H   0  0  0  0  0  0  0  0  0  0  0  0
    5.2543    0.7125   -1.4573 H   0  0  0  0  0  0  0  0  0  0  0  0
    5.0734    0.4480    0.9066 H   0  0  0  0  0  0  0  0  0  0  0  0
    6.4733   -0.6728    0.8715 H   0  0  0  0  0  0  0  0  0  0  0  0
    7.2714    1.5761    1.6193 H   0  0  0  0  0  0  0  0  0  0  0  0
    6.4978    2.3525    0.2016 H   0  0  0  0  0  0  0  0  0  0  0  0
    8.7921    0.4675    0.1771 H   0  0  0  0  0  0  0  0  0  0  0  0
   10.1010    2.2294   -0.6377 H   0  0  0  0  0  0  0  0  0  0  0  0
    9.3899    2.5875    0.9685 H   0  0  0  0  0  0  0  0  0  0  0  0
    8.6726    3.3244   -0.5139 H   0  0  0  0  0  0  0  0  0  0  0  0
    7.5313    1.8278   -2.1440 H   0  0  0  0  0  0  0  0  0  0  0  0
    8.9492    0.7319   -2.1770 H   0  0  0  0  0  0  0  0  0  0  0  0
    7.5201   -1.1966   -1.4687 H   0  0  0  0  0  0  0  0  0  0  0  0
    6.7536   -0.4235   -2.8929 H   0  0  0  0  0  0  0  0  0  0  0  0
    0.4969    0.6543   -1.1152 H   0  0  0  0  0  0  0  0  0  0  0  0
   -2.9580   -0.9276    0.6731 H   0  0  0  0  0  0  0  0  0  0  0  0
   -6.2812   -1.3756   -2.7470 H   0  0  0  0  0  0  0  0  0  0  0  0
  -11.1495   -0.6059   -3.0874 H   0  0  0  0  0  0  0  0  0  0  0  0
  -12.4098    0.1869   -1.0676 H   0  0  0  0  0  0  0  0  0  0  0  0
  -11.1731    0.5737    1.0420 H   0  0  0  0  0  0  0  0  0  0  0  0
  1  2  1  0
  2  3  2  0
  3  4  1  0
  4  5  2  0
  5  6  1  0
  6  7  2  0
  6  8  1  0
  8  9  1  0
  9 10  2  0
 10 11  1  0
 11 12  2  0
 12 13  1  0
 13 14  1  0
 14 15  1  0
 15 16  1  0
 16 17  1  0
 17 18  1  0
 17 19  1  0
 19 20  1  0
 12 21  1  0
 21 22  1  0
 22 23  1  0
 22 24  1  0
 22 25  1  0
 21 26  2  0
  5 27  1  0
 27 28  2  0
 28 29  1  0
 29 30  3  0
 30 31  1  0
 31 32  2  0
 32 33  1  0
 33 34  2  0
 34 35  1  0
 35 36  2  0
 36 37  1  0
 37 38  2  0
 38 39  1  0
 28  2  1  0
 39 31  1  0
 26  9  1  0
 39 34  1  0
 20 14  1  0
  1 40  1  0
  1 41  1  0
  1 42  1  0
  3 43  1  0
  4 44  1  0
  8 45  1  0
 10 46  1  0
 11 47  1  0
 13 48  1  0
 13 49  1  0
 14 50  1  0
 15 51  1  0
 15 52  1  0
 16 53  1  0
 16 54  1  0
 17 55  1  0
 18 56  1  0
 18 57  1  0
 18 58  1  0
 19 59  1  0
 19 60  1  0
 20 61  1  0
 20 62  1  0
 26 63  1  0
 27 64  1  0
 32 65  1  0
 35 66  1  0
 36 67  1  0
 37 68  1  0
M  CHG  2  14   1  17   1
M  END
$$$$
