
     RDKit          3D

 64 69  0  0  0  0  0  0  0  0999 V2000
   -6.4713   -3.5249    4.2265 C   0  0  0  0  0  0  0  0  0  0  0  0
   -5.5774   -3.1901    3.1717 O   0  0  0  0  0  0  0  0  0  0  0  0
   -5.8809   -2.0818    2.4332 C   0  0  0  0  0  0  0  0  0  0  0  0
   -6.9911   -1.2658    2.5953 C   0  0  0  0  0  0  0  0  0  0  0  0
   -7.1629   -0.1555    1.7608 C   0  0  0  0  0  0  0  0  0  0  0  0
   -6.2580    0.1639    0.7580 C   0  0  0  0  0  0  0  0  0  0  0  0
   -6.4981    1.2520    0.0140 N   0  0  0  0  0  0  0  0  0  0  0  0
   -5.6492    1.5862   -0.9669 C   0  0  0  0  0  0  0  0  0  0  0  0
   -5.9444    2.7142   -1.7184 C   0  0  0  0  0  0  0  0  0  0  0  0
   -5.1273    3.1196   -2.7704 C   0  0  0  0  0  0  0  0  0  0  0  0
   -5.5308    4.5245   -3.6774 Cl  0  0  0  0  0  0  0  0  0  0  0  0
   -3.9932    2.3918   -3.0953 C   0  0  0  0  0  0  0  0  0  0  0  0
   -3.6805    1.2566   -2.3502 C   0  0  0  0  0  0  0  0  0  0  0  0
   -4.4922    0.8413   -1.2651 C   0  0  0  0  0  0  0  0  0  0  0  0
   -4.2326   -0.3027   -0.4638 C   0  0  0  0  0  0  0  0  0  0  0  0
   -3.0797   -1.1017   -0.6834 N   0  0  0  0  0  0  0  0  0  0  0  0
   -1.7257   -0.7818   -0.4885 C   0  0  0  0  0  0  0  0  0  0  0  0
   -0.7419   -1.6644   -0.9431 C   0  0  0  0  0  0  0  0  0  0  0  0
    0.6217   -1.3645   -0.8084 C   0  0  0  0  0  0  0  0  0  0  0  0
    1.0467   -0.1707   -0.2234 C   0  0  0  0  0  0  0  0  0  0  0  0
    2.3876    0.1902   -0.0613 N   0  0  0  0  0  0  0  0  0  0  0  0
    3.6034   -0.4107   -0.3841 C   0  0  0  0  0  0  0  0  0  0  0  0
    3.6632   -1.5851   -0.9904 N   0  0  0  0  0  0  0  0  0  0  0  0
    4.8815   -2.0489   -1.2441 C   0  0  0  0  0  0  0  0  0  0  0  0
    5.0168   -3.2861   -1.8835 N   0  0  0  0  0  0  0  0  0  0  0  0
    3.9168   -4.0708   -2.2616 N   0  0  0  0  0  0  0  0  0  0  0  0
    6.0023   -1.4153   -0.9308 N   0  0  0  0  0  0  0  0  0  0  0  0
    5.8564   -0.2438   -0.3255 C   0  0  0  0  0  0  0  0  0  0  0  0
    7.0510    0.4006   -0.0086 N   0  0  0  0  0  0  0  0  0  0  0  0
    7.3738    1.6120    0.6134 C   0  0  0  0  0  0  0  0  0  0  0  0
    6.4280    2.5194    1.1005 C   0  0  0  0  0  0  0  0  0  0  0  0
    6.8180    3.7164    1.7131 C   0  0  0  0  0  0  0  0  0  0  0  0
    8.1672    4.0270    1.8492 C   0  0  0  0  0  0  0  0  0  0  0  0
    9.1265    3.1408    1.3726 C   0  0  0  0  0  0  0  0  0  0  0  0
    8.7309    1.9468    0.7616 C   0  0  0  0  0  0  0  0  0  0  0  0
    4.6768    0.2886   -0.0371 N   0  0  0  0  0  0  0  0  0  0  0  0
    0.0553    0.7169    0.2189 C   0  0  0  0  0  0  0  0  0  0  0  0
   -1.3074    0.4201    0.0844 C   0  0  0  0  0  0  0  0  0  0  0  0
   -5.1356   -0.6590    0.5715 C   0  0  0  0  0  0  0  0  0  0  0  0
   -4.9612   -1.7742    1.4289 C   0  0  0  0  0  0  0  0  0  0  0  0
   -6.0827   -4.4195    4.7226 H   0  0  0  0  0  0  0  0  0  0  0  0
   -7.4666   -3.7648    3.8383 H   0  0  0  0  0  0  0  0  0  0  0  0
   -6.5196   -2.7246    4.9723 H   0  0  0  0  0  0  0  0  0  0  0  0
   -7.7405   -1.4529    3.3566 H   0  0  0  0  0  0  0  0  0  0  0  0
   -8.0333    0.4826    1.9007 H   0  0  0  0  0  0  0  0  0  0  0  0
   -6.8379    3.2844   -1.4760 H   0  0  0  0  0  0  0  0  0  0  0  0
   -3.3529    2.6938   -3.9194 H   0  0  0  0  0  0  0  0  0  0  0  0
   -2.7942    0.6875   -2.6230 H   0  0  0  0  0  0  0  0  0  0  0  0
   -3.2786   -2.0867   -0.8190 H   0  0  0  0  0  0  0  0  0  0  0  0
   -1.0223   -2.6017   -1.4171 H   0  0  0  0  0  0  0  0  0  0  0  0
    1.3370   -2.0916   -1.1772 H   0  0  0  0  0  0  0  0  0  0  0  0
    2.5676    1.0752    0.3908 H   0  0  0  0  0  0  0  0  0  0  0  0
    5.9742   -3.5843   -2.0412 H   0  0  0  0  0  0  0  0  0  0  0  0
    3.3574   -4.2784   -1.4278 H   0  0  0  0  0  0  0  0  0  0  0  0
    3.2902   -3.5013   -2.8402 H   0  0  0  0  0  0  0  0  0  0  0  0
    7.8269   -0.1692   -0.3135 H   0  0  0  0  0  0  0  0  0  0  0  0
    5.3653    2.3192    1.0167 H   0  0  0  0  0  0  0  0  0  0  0  0
    6.0618    4.4039    2.0831 H   0  0  0  0  0  0  0  0  0  0  0  0
    8.4687    4.9563    2.3248 H   0  0  0  0  0  0  0  0  0  0  0  0
   10.1828    3.3749    1.4742 H   0  0  0  0  0  0  0  0  0  0  0  0
    9.5036    1.2733    0.3984 H   0  0  0  0  0  0  0  0  0  0  0  0
    0.3312    1.6630    0.6790 H   0  0  0  0  0  0  0  0  0  0  0  0
   -2.0341    1.1418    0.4484 H   0  0  0  0  0  0  0  0  0  0  0  0
   -4.0861   -2.4121    1.3269 H   0  0  0  0  0  0  0  0  0  0  0  0
  1  2  1  0
  2  3  1  0
  3  4  2  0
  4  5  1  0
  5  6  2  0
  6  7  1  0
  7  8  2  0
  8  9  1  0
  9 10  2  0
 10 11  1  0
 10 12  1  0
 12 13  2  0
 13 14  1  0
 14 15  2  0
 15 16  1  0
 16 17  1  0
 17 18  2  0
 18 19  1  0
 19 20  2  0
 20 21  1  0
 21 22  1  0
 22 23  2  0
 23 24  1  0
 24 25  1  0
 25 26  1  0
 24 27  2  0
 27 28  1  0
 28 29  1  0
 29 30  1  0
 30 31  2  0
 31 32  1  0
 32 33  2  0
 33 34  1  0
 34 35  2  0
 28 36  2  0
 20 37  1  0
 37 38  2  0
 15 39  1  0
 39 40  2  0
 40  3  1  0
 39  6  1  0
 14  8  1  0
 38 17  1  0
 36 22  1  0
 35 30  1  0
  1 41  1  0
  1 42  1  0
  1 43  1  0
  4 44  1  0
  5 45  1  0
  9 46  1  0
 12 47  1  0
 13 48  1  0
 16 49  1  0
 18 50  1  0
 19 51  1  0
 21 52  1  0
 25 53  1  0
 26 54  1  0
 26 55  1  0
 29 56  1  0
 31 57  1  0
 32 58  1  0
 33 59  1  0
 34 60  1  0
 35 61  1  0
 37 62  1  0
 38 63  1  0
 40 64  1  0
M  END
$$$$
