
     RDKit          3D

 61 66  0  0  0  0  0  0  0  0999 V2000
   -6.6180    2.0776   -1.1318 C   0  0  0  0  0  0  0  0  0  0  0  0
   -5.3039    1.3813   -0.9125 C   0  0  0  0  0  0  0  0  0  0  0  0
   -4.5176    1.0003   -1.9996 C   0  0  0  0  0  0  0  0  0  0  0  0
   -3.2835    0.3914   -1.7876 C   0  0  0  0  0  0  0  0  0  0  0  0
   -2.8267    0.1719   -0.4840 C   0  0  0  0  0  0  0  0  0  0  0  0
   -3.5890    0.5365    0.6322 C   0  0  0  0  0  0  0  0  0  0  0  0
   -4.8279    1.1629    0.3892 C   0  0  0  0  0  0  0  0  0  0  0  0
   -3.0817    0.3430    2.0623 C   0  0  0  0  0  0  0  0  0  0  0  0
   -4.2018   -0.1371    3.0157 C   0  0  0  0  0  0  0  0  0  0  0  0
   -2.6120    1.7306    2.5750 C   0  0  0  0  0  0  0  0  0  0  0  0
   -1.8760   -0.6467    2.1158 C   0  0  1  0  0  0  0  0  0  0  0  0
   -2.2338   -2.1383    2.1038 C   0  0  0  0  0  0  0  0  0  0  0  0
   -1.0896   -2.9854    2.2443 O   0  0  0  0  0  0  0  0  0  0  0  0
    0.0782   -2.5933    1.6621 C   0  0  0  0  0  0  0  0  0  0  0  0
    1.1264   -3.5117    1.7272 C   0  0  0  0  0  0  0  0  0  0  0  0
    2.3623   -3.2077    1.1574 C   0  0  0  0  0  0  0  0  0  0  0  0
    2.5459   -1.9795    0.5184 C   0  0  0  0  0  0  0  0  0  0  0  0
    3.8337   -1.6455   -0.1053 C   0  0  0  0  0  0  0  0  0  0  0  0
    4.7465   -2.4605   -0.1086 O   0  0  0  0  0  0  0  0  0  0  0  0
    3.9485   -0.2942   -0.7231 C   0  0  0  0  0  0  0  0  0  0  0  0
    5.2366    0.1225   -1.3031 C   0  0  0  0  0  0  0  0  0  0  0  0
    6.0671    1.0194   -0.6167 C   0  0  0  0  0  0  0  0  0  0  0  0
    7.2793    1.4259   -1.1775 C   0  0  0  0  0  0  0  0  0  0  0  0
    7.6703    0.9377   -2.4232 C   0  0  0  0  0  0  0  0  0  0  0  0
    6.8539    0.0393   -3.1085 C   0  0  0  0  0  0  0  0  0  0  0  0
    5.6407   -0.3689   -2.5510 C   0  0  0  0  0  0  0  0  0  0  0  0
    2.8553    0.5001   -0.7339 C   0  0  0  0  0  0  0  0  0  0  0  0
    2.8034    1.8739   -1.3501 C   0  0  0  0  0  0  0  0  0  0  0  0
    1.6282    0.1428   -0.1888 O   0  0  0  0  0  0  0  0  0  0  0  0
    1.5039   -1.0613    0.4560 C   0  0  0  0  0  0  0  0  0  0  0  0
    0.2599   -1.3545    1.0434 C   0  0  0  0  0  0  0  0  0  0  0  0
   -0.8854   -0.3841    0.9789 C   0  0  1  0  0  0  0  0  0  0  0  0
   -1.5500   -0.5020   -0.3504 N   0  0  0  0  0  0  0  0  0  0  0  0
   -7.3278    1.8282   -0.3361 H   0  0  0  0  0  0  0  0  0  0  0  0
   -7.0711    1.7687   -2.0796 H   0  0  0  0  0  0  0  0  0  0  0  0
   -6.4679    3.1615   -1.1479 H   0  0  0  0  0  0  0  0  0  0  0  0
   -4.8662    1.1773   -3.0168 H   0  0  0  0  0  0  0  0  0  0  0  0
   -2.7006    0.0966   -2.6571 H   0  0  0  0  0  0  0  0  0  0  0  0
   -5.4459    1.5068    1.2191 H   0  0  0  0  0  0  0  0  0  0  0  0
   -3.7940   -0.3943    4.0004 H   0  0  0  0  0  0  0  0  0  0  0  0
   -4.9608    0.6343    3.1874 H   0  0  0  0  0  0  0  0  0  0  0  0
   -4.7234   -1.0152    2.6183 H   0  0  0  0  0  0  0  0  0  0  0  0
   -1.8538    2.1786    1.9238 H   0  0  0  0  0  0  0  0  0  0  0  0
   -2.1870    1.6551    3.5825 H   0  0  0  0  0  0  0  0  0  0  0  0
   -3.4435    2.4440    2.6272 H   0  0  0  0  0  0  0  0  0  0  0  0
   -1.3436   -0.4769    3.0651 H   0  0  0  0  0  0  0  0  0  0  0  0
   -2.8823   -2.3857    2.9495 H   0  0  0  0  0  0  0  0  0  0  0  0
   -2.7729   -2.4324    1.1961 H   0  0  0  0  0  0  0  0  0  0  0  0
    0.9848   -4.4705    2.2241 H   0  0  0  0  0  0  0  0  0  0  0  0
    3.1769   -3.9294    1.2115 H   0  0  0  0  0  0  0  0  0  0  0  0
    5.7842    1.4017    0.3611 H   0  0  0  0  0  0  0  0  0  0  0  0
    7.9245    2.1165   -0.6398 H   0  0  0  0  0  0  0  0  0  0  0  0
    8.6187    1.2484   -2.8555 H   0  0  0  0  0  0  0  0  0  0  0  0
    7.1687   -0.3515   -4.0731 H   0  0  0  0  0  0  0  0  0  0  0  0
    5.0245   -1.0824   -3.0927 H   0  0  0  0  0  0  0  0  0  0  0  0
    1.9345    1.9494   -2.0132 H   0  0  0  0  0  0  0  0  0  0  0  0
    2.6983    2.6290   -0.5643 H   0  0  0  0  0  0  0  0  0  0  0  0
    3.6821    2.1260   -1.9485 H   0  0  0  0  0  0  0  0  0  0  0  0
   -0.5023    0.6408    1.0510 H   0  0  0  0  0  0  0  0  0  0  0  0
   -1.6913   -1.4910   -0.5971 H   0  0  0  0  0  0  0  0  0  0  0  0
   -0.9062   -0.1202   -1.0562 H   0  0  0  0  0  0  0  0  0  0  0  0
  1  2  1  0
  2  3  2  0
  3  4  1  0
  4  5  2  0
  5  6  1  0
  6  7  2  0
  6  8  1  0
  8  9  1  0
  8 10  1  0
  8 11  1  0
 11 12  1  0
 12 13  1  0
 13 14  1  0
 14 15  2  0
 15 16  1  0
 16 17  2  0
 17 18  1  0
 18 19  2  0
 18 20  1  0
 20 21  1  0
 21 22  2  0
 22 23  1  0
 23 24  2  0
 24 25  1  0
 25 26  2  0
 20 27  2  0
 27 28  1  0
 27 29  1  0
 29 30  1  0
 30 31  2  0
 31 32  1  0
 32 33  1  0
  7  2  1  0
 32 11  1  0
 33  5  1  0
 31 14  1  0
 30 17  1  0
 26 21  1  0
  1 34  1  0
  1 35  1  0
  1 36  1  0
  3 37  1  0
  4 38  1  0
  7 39  1  0
  9 40  1  0
  9 41  1  0
  9 42  1  0
 10 43  1  0
 10 44  1  0
 10 45  1  0
 11 46  1  1
 12 47  1  0
 12 48  1  0
 15 49  1  0
 16 50  1  0
 22 51  1  0
 23 52  1  0
 24 53  1  0
 25 54  1  0
 26 55  1  0
 28 56  1  0
 28 57  1  0
 28 58  1  0
 32 59  1  1
 33 60  1  0
 33 61  1  0
M  CHG  1  33   1
M  END
$$$$
