
     RDKit          3D

101106  0  0  0  0  0  0  0  0999 V2000
    0.5263   -3.2836    3.3197 C   0  0  0  0  0  0  0  0  0  0  0  0
   -0.7215   -3.0157    2.8851 C   0  0  0  0  0  0  0  0  0  0  0  0
   -1.1292   -1.7311    2.1330 C   0  0  1  0  0  0  0  0  0  0  0  0
    0.0582   -0.9588    1.5121 C   0  0  0  0  0  0  0  0  0  0  0  0
    0.6583   -0.0036    2.2525 C   0  0  0  0  0  0  0  0  0  0  0  0
    1.8324    0.8285    1.8394 C   0  0  0  0  0  0  0  0  0  0  0  0
    2.5008    0.3660    0.5272 C   0  0  2  0  0  0  0  0  0  0  0  0
    3.7013    1.2984    0.0338 C   0  0  1  0  0  0  0  0  0  0  0  0
    3.2723    2.7747   -0.1609 C   0  0  0  0  0  0  0  0  0  0  0  0
    4.8168    1.2794    1.1218 C   0  0  0  0  0  0  0  0  0  0  0  0
    6.1435    1.8817    0.6656 C   0  0  1  0  0  0  0  0  0  0  0  0
    7.1082    1.6942    1.7108 O   0  0  0  0  0  0  0  0  0  0  0  0
    6.6750    1.2186   -0.6115 C   0  0  2  0  0  0  0  0  0  0  0  0
    7.9039    1.8828   -0.9452 O   0  0  0  0  0  0  0  0  0  0  0  0
    5.6608    1.2304   -1.7929 C   0  0  0  0  0  0  0  0  0  0  0  0
    5.5499    2.6294   -2.4295 C   0  0  0  0  0  0  0  0  0  0  0  0
    6.2270    0.3000   -2.9032 C   0  0  0  0  0  0  0  0  0  0  0  0
    4.2897    0.6512   -1.2750 C   0  0  2  0  0  0  0  0  0  0  0  0
    3.1906    0.5129   -2.3486 C   0  0  0  0  0  0  0  0  0  0  0  0
    2.0960   -0.4426   -1.8699 C   0  0  0  0  0  0  0  0  0  0  0  0
    1.4079   -0.0351   -0.5378 C   0  0  2  0  0  0  0  0  0  0  0  0
    0.4779    1.1768   -0.8520 C   0  0  0  0  0  0  0  0  0  0  0  0
    0.5163   -1.2708    0.0697 C   0  0  1  0  0  0  0  0  0  0  0  0
    1.3334   -2.5960    0.1148 C   0  0  0  0  0  0  0  0  0  0  0  0
   -0.7163   -1.5429   -0.8398 C   0  0  0  0  0  0  0  0  0  0  0  0
   -1.7720   -2.4584   -0.2200 C   0  0  0  0  0  0  0  0  0  0  0  0
   -2.3095   -1.9111    1.1237 C   0  0  2  0  0  0  0  0  0  0  0  0
   -2.9981   -0.5402    0.9397 C   0  0  0  0  0  0  0  0  0  0  0  0
   -3.0108    0.3527    1.7784 O   0  0  0  0  0  0  0  0  0  0  0  0
   -3.6651   -0.4823   -0.2444 O   0  0  0  0  0  0  0  0  0  0  0  0
   -4.3416    0.7547   -0.5040 C   0  0  2  0  0  0  0  0  0  0  0  0
   -5.6647    0.6774    0.0399 O   0  0  0  0  0  0  0  0  0  0  0  0
   -6.4199    1.8729   -0.1736 C   0  0  2  0  0  0  0  0  0  0  0  0
   -7.7706    1.7086    0.5364 C   0  0  0  0  0  0  0  0  0  0  0  0
   -8.6084    2.8398    0.3103 O   0  0  0  0  0  0  0  0  0  0  0  0
   -6.6031    2.1373   -1.6786 C   0  0  1  0  0  0  0  0  0  0  0  0
   -7.2588    3.3820   -1.9487 O   0  0  0  0  0  0  0  0  0  0  0  0
   -5.2350    2.1816   -2.3607 C   0  0  2  0  0  0  0  0  0  0  0  0
   -5.3969    2.2768   -3.7860 O   0  0  0  0  0  0  0  0  0  0  0  0
   -4.4043    0.9429   -2.0313 C   0  0  1  0  0  0  0  0  0  0  0  0
   -3.0946    1.1032   -2.5997 O   0  0  0  0  0  0  0  0  0  0  0  0
   -3.4279   -2.8612    1.6425 C   0  0  0  0  0  0  0  0  0  0  0  0
   -3.2207   -3.3230    3.0797 C   0  0  0  0  0  0  0  0  0  0  0  0
   -1.8441   -3.9631    3.2845 C   0  0  1  0  0  0  0  0  0  0  0  0
   -1.7355   -5.3126    2.5625 C   0  0  0  0  0  0  0  0  0  0  0  0
    0.7474   -4.1774    3.8959 H   0  0  0  0  0  0  0  0  0  0  0  0
    1.3655   -2.6218    3.1343 H   0  0  0  0  0  0  0  0  0  0  0  0
   -1.5156   -1.0986    2.9485 H   0  0  0  0  0  0  0  0  0  0  0  0
    0.2880    0.2037    3.2561 H   0  0  0  0  0  0  0  0  0  0  0  0
    1.4794    1.8607    1.7764 H   0  0  0  0  0  0  0  0  0  0  0  0
    2.5646    0.7930    2.6537 H   0  0  0  0  0  0  0  0  0  0  0  0
    3.0068   -0.5742    0.7865 H   0  0  0  0  0  0  0  0  0  0  0  0
    4.0972    3.4758   -0.0192 H   0  0  0  0  0  0  0  0  0  0  0  0
    2.8781    2.9804   -1.1569 H   0  0  0  0  0  0  0  0  0  0  0  0
    2.5204    3.0948    0.5622 H   0  0  0  0  0  0  0  0  0  0  0  0
    4.4872    1.8118    2.0233 H   0  0  0  0  0  0  0  0  0  0  0  0
    5.0023    0.2475    1.4512 H   0  0  0  0  0  0  0  0  0  0  0  0
    6.0676    2.9647    0.5322 H   0  0  0  0  0  0  0  0  0  0  0  0
    7.9560    1.9808    1.3168 H   0  0  0  0  0  0  0  0  0  0  0  0
    6.9487    0.1831   -0.3666 H   0  0  0  0  0  0  0  0  0  0  0  0
    8.3666    1.3333   -1.6005 H   0  0  0  0  0  0  0  0  0  0  0  0
    6.4794    2.9021   -2.9439 H   0  0  0  0  0  0  0  0  0  0  0  0
    5.3678    3.4168   -1.6983 H   0  0  0  0  0  0  0  0  0  0  0  0
    4.7520    2.6692   -3.1778 H   0  0  0  0  0  0  0  0  0  0  0  0
    5.6190    0.3290   -3.8126 H   0  0  0  0  0  0  0  0  0  0  0  0
    6.2764   -0.7400   -2.5619 H   0  0  0  0  0  0  0  0  0  0  0  0
    7.2375    0.5949   -3.2053 H   0  0  0  0  0  0  0  0  0  0  0  0
    4.5416   -0.3844   -0.9891 H   0  0  0  0  0  0  0  0  0  0  0  0
    2.7619    1.4779   -2.6303 H   0  0  0  0  0  0  0  0  0  0  0  0
    3.5980    0.0873   -3.2701 H   0  0  0  0  0  0  0  0  0  0  0  0
    2.5793   -1.4184   -1.7709 H   0  0  0  0  0  0  0  0  0  0  0  0
    1.3506   -0.5556   -2.6664 H   0  0  0  0  0  0  0  0  0  0  0  0
    1.0251    2.0901   -1.0692 H   0  0  0  0  0  0  0  0  0  0  0  0
   -0.1279    0.9979   -1.7469 H   0  0  0  0  0  0  0  0  0  0  0  0
   -0.2091    1.4040   -0.0315 H   0  0  0  0  0  0  0  0  0  0  0  0
    0.7691   -3.4162    0.5666 H   0  0  0  0  0  0  0  0  0  0  0  0
    1.5890   -2.9556   -0.8866 H   0  0  0  0  0  0  0  0  0  0  0  0
    2.2600   -2.5031    0.6872 H   0  0  0  0  0  0  0  0  0  0  0  0
   -0.3904   -1.9827   -1.7908 H   0  0  0  0  0  0  0  0  0  0  0  0
   -1.2240   -0.6147   -1.1063 H   0  0  0  0  0  0  0  0  0  0  0  0
   -2.5890   -2.5806   -0.9430 H   0  0  0  0  0  0  0  0  0  0  0  0
   -1.3556   -3.4621   -0.0822 H   0  0  0  0  0  0  0  0  0  0  0  0
   -3.7923    1.5950   -0.0579 H   0  0  0  0  0  0  0  0  0  0  0  0
   -5.9033    2.7266    0.2859 H   0  0  0  0  0  0  0  0  0  0  0  0
   -7.6140    1.5907    1.6144 H   0  0  0  0  0  0  0  0  0  0  0  0
   -8.2890    0.8112    0.1809 H   0  0  0  0  0  0  0  0  0  0  0  0
   -9.3853    2.7277    0.8901 H   0  0  0  0  0  0  0  0  0  0  0  0
   -7.2091    1.3460   -2.1370 H   0  0  0  0  0  0  0  0  0  0  0  0
   -7.9811    3.4642   -1.2856 H   0  0  0  0  0  0  0  0  0  0  0  0
   -4.6913    3.0890   -2.0677 H   0  0  0  0  0  0  0  0  0  0  0  0
   -6.0635    2.9834   -3.9134 H   0  0  0  0  0  0  0  0  0  0  0  0
   -4.8424    0.0554   -2.5046 H   0  0  0  0  0  0  0  0  0  0  0  0
   -3.2541    1.3747   -3.5262 H   0  0  0  0  0  0  0  0  0  0  0  0
   -4.4151   -2.3842    1.5820 H   0  0  0  0  0  0  0  0  0  0  0  0
   -3.5064   -3.7464    0.9988 H   0  0  0  0  0  0  0  0  0  0  0  0
   -3.3388   -2.4677    3.7578 H   0  0  0  0  0  0  0  0  0  0  0  0
   -4.0099   -4.0355    3.3497 H   0  0  0  0  0  0  0  0  0  0  0  0
   -1.7544   -4.1645    4.3616 H   0  0  0  0  0  0  0  0  0  0  0  0
   -1.7233   -5.2012    1.4743 H   0  0  0  0  0  0  0  0  0  0  0  0
   -2.5774   -5.9616    2.8268 H   0  0  0  0  0  0  0  0  0  0  0  0
   -0.8180   -5.8391    2.8475 H   0  0  0  0  0  0  0  0  0  0  0  0
  1  2  2  0
  2  3  1  0
  3  4  1  0
  4  5  2  0
  5  6  1  0
  6  7  1  0
  7  8  1  0
  8  9  1  6
  8 10  1  0
 10 11  1  0
 11 12  1  0
 11 13  1  0
 13 14  1  0
 13 15  1  0
 15 16  1  0
 15 17  1  0
 15 18  1  0
 18 19  1  0
 19 20  1  0
 20 21  1  0
 21 22  1  6
 21 23  1  0
 23 24  1  1
 23 25  1  0
 25 26  1  0
 26 27  1  0
 27 28  1  6
 28 29  2  0
 28 30  1  0
 30 31  1  0
 31 32  1  0
 32 33  1  0
 33 34  1  0
 34 35  1  0
 33 36  1  0
 36 37  1  0
 36 38  1  0
 38 39  1  0
 38 40  1  0
 40 41  1  0
 27 42  1  0
 42 43  1  0
 43 44  1  0
 44 45  1  0
 44  2  1  0
 27  3  1  0
 40 31  1  0
 23  4  1  0
 21  7  1  0
 18  8  1  0
  1 46  1  0
  1 47  1  0
  3 48  1  1
  5 49  1  0
  6 50  1  0
  6 51  1  0
  7 52  1  1
  9 53  1  0
  9 54  1  0
  9 55  1  0
 10 56  1  0
 10 57  1  0
 11 58  1  6
 12 59  1  0
 13 60  1  1
 14 61  1  0
 16 62  1  0
 16 63  1  0
 16 64  1  0
 17 65  1  0
 17 66  1  0
 17 67  1  0
 18 68  1  1
 19 69  1  0
 19 70  1  0
 20 71  1  0
 20 72  1  0
 22 73  1  0
 22 74  1  0
 22 75  1  0
 24 76  1  0
 24 77  1  0
 24 78  1  0
 25 79  1  0
 25 80  1  0
 26 81  1  0
 26 82  1  0
 31 83  1  1
 33 84  1  1
 34 85  1  0
 34 86  1  0
 35 87  1  0
 36 88  1  6
 37 89  1  0
 38 90  1  1
 39 91  1  0
 40 92  1  6
 41 93  1  0
 42 94  1  0
 42 95  1  0
 43 96  1  0
 43 97  1  0
 44 98  1  1
 45 99  1  0
 45100  1  0
 45101  1  0
M  END
$$$$
