
     RDKit          3D

 77 82  0  0  0  0  0  0  0  0999 V2000
   -7.9145   -0.7373    2.1470 C   0  0  0  0  0  0  0  0  0  0  0  0
   -7.5150    0.6260    2.1050 O   0  0  0  0  0  0  0  0  0  0  0  0
   -6.2999    0.9252    1.5440 C   0  0  0  0  0  0  0  0  0  0  0  0
   -5.3929   -0.0263    1.0625 C   0  0  0  0  0  0  0  0  0  0  0  0
   -4.1712    0.3369    0.5098 C   0  0  0  0  0  0  0  0  0  0  0  0
   -3.3497   -0.6228    0.0667 N   0  0  0  0  0  0  0  0  0  0  0  0
   -2.1919   -0.2842   -0.4999 C   0  0  0  0  0  0  0  0  0  0  0  0
   -1.3389   -1.2680   -0.9855 N   0  0  0  0  0  0  0  0  0  0  0  0
   -1.8561   -2.6494   -0.8729 C   0  0  0  0  0  0  0  0  0  0  0  0
   -0.7994   -3.6642   -1.3315 C   0  0  0  0  0  0  0  0  0  0  0  0
   -0.3186   -3.3602   -2.6474 O   0  0  0  0  0  0  0  0  0  0  0  0
    0.2887   -2.0651   -2.6750 C   0  0  0  0  0  0  0  0  0  0  0  0
   -0.7109   -0.9660   -2.2843 C   0  0  0  0  0  0  0  0  0  0  0  0
   -1.7581    0.9848   -0.5497 N   0  0  0  0  0  0  0  0  0  0  0  0
   -2.5801    1.9593   -0.0928 C   0  0  0  0  0  0  0  0  0  0  0  0
   -2.0336    3.2525   -0.0751 N   0  0  0  0  0  0  0  0  0  0  0  0
   -1.4425    3.6336    1.2281 C   0  0  0  0  0  0  0  0  0  0  0  0
   -0.0559    2.9616    1.4341 C   0  0  0  0  0  0  0  0  0  0  0  0
    0.4223    2.3491    0.1445 N   0  0  0  0  0  0  0  0  0  0  0  0
    1.6985    1.7049    0.2608 C   0  0  0  0  0  0  0  0  0  0  0  0
    2.6365    2.4750    0.2391 O   0  0  0  0  0  0  0  0  0  0  0  0
    1.6705    0.3473    0.3891 N   0  0  0  0  0  0  0  0  0  0  0  0
    2.7860   -0.5055    0.5345 C   0  0  0  0  0  0  0  0  0  0  0  0
    2.5217   -1.8678    0.7313 C   0  0  0  0  0  0  0  0  0  0  0  0
    3.5674   -2.7823    0.8804 C   0  0  0  0  0  0  0  0  0  0  0  0
    4.8877   -2.3452    0.8213 C   0  0  0  0  0  0  0  0  0  0  0  0
    5.8639   -3.2944    1.0165 O   0  0  0  0  0  0  0  0  0  0  0  0
    6.9878   -3.2147    0.2273 C   0  0  0  0  0  0  0  0  0  0  0  0
    8.2256   -3.2344    0.8696 C   0  0  0  0  0  0  0  0  0  0  0  0
    9.3982   -3.1897    0.1154 C   0  0  0  0  0  0  0  0  0  0  0  0
    9.3300   -3.1426   -1.2777 C   0  0  0  0  0  0  0  0  0  0  0  0
    8.0906   -3.1483   -1.9193 C   0  0  0  0  0  0  0  0  0  0  0  0
    6.9158   -3.1922   -1.1678 C   0  0  0  0  0  0  0  0  0  0  0  0
    5.1616   -0.9883    0.6485 C   0  0  0  0  0  0  0  0  0  0  0  0
    4.1137   -0.0718    0.4988 C   0  0  0  0  0  0  0  0  0  0  0  0
    0.2955    3.2807   -1.0281 C   0  0  0  0  0  0  0  0  0  0  0  0
   -1.2038    3.6270   -1.2457 C   0  0  0  0  0  0  0  0  0  0  0  0
   -3.8401    1.6886    0.4477 C   0  0  0  0  0  0  0  0  0  0  0  0
   -4.7520    2.6657    0.9163 C   0  0  0  0  0  0  0  0  0  0  0  0
   -5.9790    2.2895    1.4609 C   0  0  0  0  0  0  0  0  0  0  0  0
   -6.9096    3.1656    1.9531 O   0  0  0  0  0  0  0  0  0  0  0  0
   -6.7590    4.5423    1.6354 C   0  0  0  0  0  0  0  0  0  0  0  0
   -8.9115   -0.7802    2.5957 H   0  0  0  0  0  0  0  0  0  0  0  0
   -7.2398   -1.3253    2.7775 H   0  0  0  0  0  0  0  0  0  0  0  0
   -7.9840   -1.1598    1.1392 H   0  0  0  0  0  0  0  0  0  0  0  0
   -5.6212   -1.0871    1.1070 H   0  0  0  0  0  0  0  0  0  0  0  0
   -2.7448   -2.7553   -1.5088 H   0  0  0  0  0  0  0  0  0  0  0  0
   -2.1323   -2.8825    0.1625 H   0  0  0  0  0  0  0  0  0  0  0  0
   -1.2351   -4.6680   -1.3582 H   0  0  0  0  0  0  0  0  0  0  0  0
    0.0495   -3.6893   -0.6388 H   0  0  0  0  0  0  0  0  0  0  0  0
    1.1566   -2.0630   -2.0064 H   0  0  0  0  0  0  0  0  0  0  0  0
    0.6545   -1.8883   -3.6914 H   0  0  0  0  0  0  0  0  0  0  0  0
   -0.1773   -0.0089   -2.2591 H   0  0  0  0  0  0  0  0  0  0  0  0
   -1.4928   -0.9046   -3.0522 H   0  0  0  0  0  0  0  0  0  0  0  0
   -2.1054    3.4039    2.0706 H   0  0  0  0  0  0  0  0  0  0  0  0
   -1.3093    4.7227    1.2369 H   0  0  0  0  0  0  0  0  0  0  0  0
   -0.1331    2.1476    2.1635 H   0  0  0  0  0  0  0  0  0  0  0  0
    0.6884    3.6888    1.7767 H   0  0  0  0  0  0  0  0  0  0  0  0
   -0.2517    1.6038   -0.0811 H   0  0  0  0  0  0  0  0  0  0  0  0
    0.7727   -0.1257    0.4028 H   0  0  0  0  0  0  0  0  0  0  0  0
    1.5034   -2.2447    0.7834 H   0  0  0  0  0  0  0  0  0  0  0  0
    3.3548   -3.8367    1.0421 H   0  0  0  0  0  0  0  0  0  0  0  0
    8.2780   -3.2834    1.9537 H   0  0  0  0  0  0  0  0  0  0  0  0
   10.3652   -3.2005    0.6121 H   0  0  0  0  0  0  0  0  0  0  0  0
   10.2454   -3.1148   -1.8643 H   0  0  0  0  0  0  0  0  0  0  0  0
    8.0427   -3.1305   -3.0051 H   0  0  0  0  0  0  0  0  0  0  0  0
    5.9553   -3.2206   -1.6730 H   0  0  0  0  0  0  0  0  0  0  0  0
    6.1887   -0.6300    0.6372 H   0  0  0  0  0  0  0  0  0  0  0  0
    4.3877    0.9695    0.3595 H   0  0  0  0  0  0  0  0  0  0  0  0
    0.7070    2.7827   -1.9127 H   0  0  0  0  0  0  0  0  0  0  0  0
    0.8806    4.1807   -0.8077 H   0  0  0  0  0  0  0  0  0  0  0  0
   -1.2941    4.7074   -1.4101 H   0  0  0  0  0  0  0  0  0  0  0  0
   -1.5778    3.1512   -2.1613 H   0  0  0  0  0  0  0  0  0  0  0  0
   -4.4773    3.7130    0.8405 H   0  0  0  0  0  0  0  0  0  0  0  0
   -6.6851    4.6965    0.5537 H   0  0  0  0  0  0  0  0  0  0  0  0
   -7.6522    5.0673    1.9874 H   0  0  0  0  0  0  0  0  0  0  0  0
   -5.8951    4.9695    2.1546 H   0  0  0  0  0  0  0  0  0  0  0  0
  1  2  1  0
  2  3  1  0
  3  4  2  0
  4  5  1  0
  5  6  2  0
  6  7  1  0
  7  8  1  0
  8  9  1  0
  9 10  1  0
 10 11  1  0
 11 12  1  0
 12 13  1  0
  7 14  2  0
 14 15  1  0
 15 16  1  0
 16 17  1  0
 17 18  1  0
 18 19  1  0
 19 20  1  0
 20 21  2  0
 20 22  1  0
 22 23  1  0
 23 24  2  0
 24 25  1  0
 25 26  2  0
 26 27  1  0
 27 28  1  0
 28 29  2  0
 29 30  1  0
 30 31  2  0
 31 32  1  0
 32 33  2  0
 26 34  1  0
 34 35  2  0
 19 36  1  0
 36 37  1  0
 15 38  2  0
 38 39  1  0
 39 40  2  0
 40 41  1  0
 41 42  1  0
 40  3  1  0
 38  5  1  0
 13  8  1  0
 37 16  1  0
 35 23  1  0
 33 28  1  0
  1 43  1  0
  1 44  1  0
  1 45  1  0
  4 46  1  0
  9 47  1  0
  9 48  1  0
 10 49  1  0
 10 50  1  0
 12 51  1  0
 12 52  1  0
 13 53  1  0
 13 54  1  0
 17 55  1  0
 17 56  1  0
 18 57  1  0
 18 58  1  0
 19 59  1  0
 22 60  1  0
 24 61  1  0
 25 62  1  0
 29 63  1  0
 30 64  1  0
 31 65  1  0
 32 66  1  0
 33 67  1  0
 34 68  1  0
 35 69  1  0
 36 70  1  0
 36 71  1  0
 37 72  1  0
 37 73  1  0
 39 74  1  0
 42 75  1  0
 42 76  1  0
 42 77  1  0
M  CHG  1  19   1
M  END
$$$$
