
     RDKit          3D

 74 78  0  0  0  0  0  0  0  0999 V2000
   -1.1120   -0.6149   -1.7181 C   0  0  0  0  0  0  0  0  0  0  0  0
   -0.5668   -0.5409   -0.3332 C   0  0  0  0  0  0  0  0  0  0  0  0
    0.8086   -0.3707   -0.0666 C   0  0  0  0  0  0  0  0  0  0  0  0
    1.3532   -0.2723    1.2353 C   0  0  0  0  0  0  0  0  0  0  0  0
    2.7122   -0.0981    1.4293 N   0  0  0  0  0  0  0  0  0  0  0  0
    3.3097    0.1023    2.7431 C   0  0  0  0  0  0  0  0  0  0  0  0
    4.7144    0.6059    2.4285 C   0  0  0  0  0  0  0  0  0  0  0  0
    5.0601   -0.1044    1.1248 C   0  0  2  0  0  0  0  0  0  0  0  0
    6.1219    0.5683    0.4021 N   0  0  0  0  0  0  0  0  0  0  0  0
    6.8391   -0.0346   -0.5821 C   0  0  0  0  0  0  0  0  0  0  0  0
    6.7251   -1.1997   -0.9234 O   0  0  0  0  0  0  0  0  0  0  0  0
    7.6855    0.8752   -1.1171 O   0  0  0  0  0  0  0  0  0  0  0  0
    8.5620    0.5117   -2.2135 C   0  0  0  0  0  0  0  0  0  0  0  0
    7.7626    0.1065   -3.4571 C   0  0  0  0  0  0  0  0  0  0  0  0
    9.5602   -0.5735   -1.7946 C   0  0  0  0  0  0  0  0  0  0  0  0
    9.3417    1.7973   -2.5307 C   0  0  0  0  0  0  0  0  0  0  0  0
    3.7150   -0.1297    0.3705 C   0  0  0  0  0  0  0  0  0  0  0  0
    0.4682   -0.3480    2.3197 C   0  0  0  0  0  0  0  0  0  0  0  0
   -0.9023   -0.4909    2.0828 C   0  0  0  0  0  0  0  0  0  0  0  0
   -1.9435   -0.5767    2.9401 N   0  0  0  0  0  0  0  0  0  0  0  0
   -3.0998   -0.6555    2.2370 C   0  0  0  0  0  0  0  0  0  0  0  0
   -4.6258   -0.8607    2.7886 C   0  0  0  0  0  0  0  0  0  0  0  0
   -5.5510   -1.4332    1.9675 C   0  0  0  0  0  0  0  0  0  0  0  0
   -5.2870   -1.8594    0.6579 N   0  0  0  0  0  0  0  0  0  0  0  0
   -5.9969   -1.3333   -0.5009 C   0  0  0  0  0  0  0  0  0  0  0  0
   -5.6292    0.1502   -0.7548 C   0  0  1  0  0  0  0  0  0  0  0  0
   -4.2840    0.2574   -1.2339 O   0  0  0  0  0  0  0  0  0  0  0  0
   -6.5705    0.7674   -1.7764 C   0  0  0  0  0  0  0  0  0  0  0  0
   -7.7425    1.4052   -1.3370 C   0  0  0  0  0  0  0  0  0  0  0  0
   -8.6401    1.9575   -2.2521 C   0  0  0  0  0  0  0  0  0  0  0  0
   -8.3782    1.8748   -3.6190 C   0  0  0  0  0  0  0  0  0  0  0  0
   -7.2190    1.2401   -4.0646 C   0  0  0  0  0  0  0  0  0  0  0  0
   -6.9055    1.1376   -5.7559 Cl  0  0  0  0  0  0  0  0  0  0  0  0
   -6.3198    0.6863   -3.1550 C   0  0  0  0  0  0  0  0  0  0  0  0
   -6.9015   -1.6029    2.4521 C   0  0  0  0  0  0  0  0  0  0  0  0
   -7.1901   -1.1538    3.6799 C   0  0  0  0  0  0  0  0  0  0  0  0
   -6.3663   -0.5383    4.5551 N   0  0  0  0  0  0  0  0  0  0  0  0
   -5.0809   -0.3365    4.1694 C   0  0  0  0  0  0  0  0  0  0  0  0
   -4.3019    0.2862    4.8919 O   0  0  0  0  0  0  0  0  0  0  0  0
   -2.7743   -0.6827    0.8918 N   0  0  0  0  0  0  0  0  0  0  0  0
   -1.4223   -0.5766    0.7787 C   0  0  0  0  0  0  0  0  0  0  0  0
   -1.4175    0.3801   -2.0560 H   0  0  0  0  0  0  0  0  0  0  0  0
   -1.9710   -1.2911   -1.7745 H   0  0  0  0  0  0  0  0  0  0  0  0
   -0.3573   -0.9988   -2.4128 H   0  0  0  0  0  0  0  0  0  0  0  0
    1.4675   -0.3079   -0.9272 H   0  0  0  0  0  0  0  0  0  0  0  0
    3.3508   -0.8469    3.2893 H   0  0  0  0  0  0  0  0  0  0  0  0
    2.7793    0.8468    3.3465 H   0  0  0  0  0  0  0  0  0  0  0  0
    5.4261    0.3893    3.2310 H   0  0  0  0  0  0  0  0  0  0  0  0
    4.6957    1.6940    2.2848 H   0  0  0  0  0  0  0  0  0  0  0  0
    5.3744   -1.1349    1.3365 H   0  0  0  0  0  0  0  0  0  0  0  0
    6.2781    1.5581    0.5280 H   0  0  0  0  0  0  0  0  0  0  0  0
    7.2392   -0.8439   -3.3156 H   0  0  0  0  0  0  0  0  0  0  0  0
    8.4142   -0.0060   -4.3303 H   0  0  0  0  0  0  0  0  0  0  0  0
    6.9967    0.8555   -3.6879 H   0  0  0  0  0  0  0  0  0  0  0  0
   10.0577   -0.3029   -0.8565 H   0  0  0  0  0  0  0  0  0  0  0  0
    9.0700   -1.5366   -1.6232 H   0  0  0  0  0  0  0  0  0  0  0  0
   10.3255   -0.7287   -2.5628 H   0  0  0  0  0  0  0  0  0  0  0  0
    8.6583    2.6110   -2.8003 H   0  0  0  0  0  0  0  0  0  0  0  0
    9.9000    2.1413   -1.6521 H   0  0  0  0  0  0  0  0  0  0  0  0
   10.0486    1.6521   -3.3544 H   0  0  0  0  0  0  0  0  0  0  0  0
    3.6099    0.7489   -0.2773 H   0  0  0  0  0  0  0  0  0  0  0  0
    3.6461   -1.0353   -0.2427 H   0  0  0  0  0  0  0  0  0  0  0  0
    0.7674   -0.2973    3.3540 H   0  0  0  0  0  0  0  0  0  0  0  0
   -4.2557   -1.8081    0.5219 H   0  0  0  0  0  0  0  0  0  0  0  0
   -5.7097   -1.9380   -1.3694 H   0  0  0  0  0  0  0  0  0  0  0  0
   -7.0780   -1.4549   -0.3688 H   0  0  0  0  0  0  0  0  0  0  0  0
   -5.6843    0.7405    0.1678 H   0  0  0  0  0  0  0  0  0  0  0  0
   -3.7272   -0.0176   -0.4462 H   0  0  0  0  0  0  0  0  0  0  0  0
   -7.9512    1.4716   -0.2687 H   0  0  0  0  0  0  0  0  0  0  0  0
   -9.5385    2.4509   -1.8927 H   0  0  0  0  0  0  0  0  0  0  0  0
   -9.0770    2.3064   -4.3283 H   0  0  0  0  0  0  0  0  0  0  0  0
   -5.4129    0.1964   -3.5030 H   0  0  0  0  0  0  0  0  0  0  0  0
   -7.6344   -2.1105    1.8429 H   0  0  0  0  0  0  0  0  0  0  0  0
   -8.2190   -1.3264    3.9915 H   0  0  0  0  0  0  0  0  0  0  0  0
  1  2  1  0
  2  3  2  0
  3  4  1  0
  4  5  1  0
  5  6  1  0
  6  7  1  0
  7  8  1  0
  8  9  1  0
  9 10  1  0
 10 11  2  0
 10 12  1  0
 12 13  1  0
 13 14  1  0
 13 15  1  0
 13 16  1  0
  8 17  1  0
  4 18  2  0
 18 19  1  0
 19 20  1  0
 20 21  1  0
 21 22  1  0
 22 23  2  0
 23 24  1  0
 24 25  1  0
 25 26  1  0
 26 27  1  0
 26 28  1  0
 28 29  2  0
 29 30  1  0
 30 31  2  0
 31 32  1  0
 32 33  1  0
 32 34  2  0
 23 35  1  0
 35 36  2  0
 36 37  1  0
 37 38  1  0
 38 39  2  0
 21 40  2  0
 40 41  1  0
 41  2  1  0
 17  5  1  0
 41 19  2  0
 38 22  1  0
 34 28  1  0
  1 42  1  0
  1 43  1  0
  1 44  1  0
  3 45  1  0
  6 46  1  0
  6 47  1  0
  7 48  1  0
  7 49  1  0
  8 50  1  1
  9 51  1  0
 14 52  1  0
 14 53  1  0
 14 54  1  0
 15 55  1  0
 15 56  1  0
 15 57  1  0
 16 58  1  0
 16 59  1  0
 16 60  1  0
 17 61  1  0
 17 62  1  0
 18 63  1  0
 24 64  1  0
 25 65  1  0
 25 66  1  0
 26 67  1  1
 27 68  1  0
 29 69  1  0
 30 70  1  0
 31 71  1  0
 34 72  1  0
 35 73  1  0
 36 74  1  0
M  CHG  2  20  -1  37  -1
M  END
$$$$
