
     RDKit          3D

 38 41  0  0  0  0  0  0  0  0999 V2000
   -6.0906    0.0845   -0.0619 O   0  0  0  0  0  0  0  0  0  0  0  0
   -5.5281    1.1707    0.2700 C   0  0  0  0  0  0  0  0  0  0  0  0
   -6.0911    2.2408    0.6488 O   0  0  0  0  0  0  0  0  0  0  0  0
   -4.0131    1.1909    0.2078 C   0  0  0  0  0  0  0  0  0  0  0  0
   -3.2992    2.3441    0.5634 C   0  0  0  0  0  0  0  0  0  0  0  0
   -1.9099    2.3628    0.5043 C   0  0  0  0  0  0  0  0  0  0  0  0
   -1.2319    1.2158    0.0949 C   0  0  0  0  0  0  0  0  0  0  0  0
   -1.9013    0.0493   -0.2673 C   0  0  0  0  0  0  0  0  0  0  0  0
   -3.3007    0.0538   -0.2099 C   0  0  0  0  0  0  0  0  0  0  0  0
   -1.1790   -1.1852   -0.7222 C   0  0  2  0  0  0  0  0  0  0  0  0
   -1.3053   -2.3554    0.2147 C   0  0  0  0  0  0  0  0  0  0  0  0
   -0.1745   -3.0682    0.2702 C   0  0  0  0  0  0  0  0  0  0  0  0
    0.8715   -2.4811   -0.6147 C   0  0  0  0  0  0  0  0  0  0  0  0
    0.3583   -1.0425   -0.8165 C   0  0  2  0  0  0  0  0  0  0  0  0
    0.8822   -0.0586    0.2558 C   0  0  1  0  0  0  0  0  0  0  0  0
    2.3850    0.1682    0.1317 C   0  0  0  0  0  0  0  0  0  0  0  0
    2.7466    0.9935   -0.8996 N   0  0  0  0  0  0  0  0  0  0  0  0
    4.0738    1.2308   -1.0715 C   0  0  0  0  0  0  0  0  0  0  0  0
    5.0595    0.7049   -0.2522 C   0  0  0  0  0  0  0  0  0  0  0  0
    6.7137    1.0573   -0.5308 Cl  0  0  0  0  0  0  0  0  0  0  0  0
    4.6775   -0.1083    0.8083 C   0  0  0  0  0  0  0  0  0  0  0  0
    3.3240   -0.3808    1.0112 C   0  0  0  0  0  0  0  0  0  0  0  0
    2.8827   -1.3617    2.3545 Cl  0  0  0  0  0  0  0  0  0  0  0  0
    0.2077    1.2700    0.0181 N   0  0  0  0  0  0  0  0  0  0  0  0
   -3.8521    3.2289    0.8828 H   0  0  0  0  0  0  0  0  0  0  0  0
   -1.3964    3.2794    0.7758 H   0  0  0  0  0  0  0  0  0  0  0  0
   -3.8716   -0.8341   -0.4914 H   0  0  0  0  0  0  0  0  0  0  0  0
   -1.5756   -1.4768   -1.7047 H   0  0  0  0  0  0  0  0  0  0  0  0
   -2.2244   -2.6272    0.7235 H   0  0  0  0  0  0  0  0  0  0  0  0
   -0.0557   -3.9885    0.8287 H   0  0  0  0  0  0  0  0  0  0  0  0
    1.8644   -2.5373   -0.1683 H   0  0  0  0  0  0  0  0  0  0  0  0
    0.8963   -3.0277   -1.5645 H   0  0  0  0  0  0  0  0  0  0  0  0
    0.6458   -0.6842   -1.8147 H   0  0  0  0  0  0  0  0  0  0  0  0
    0.6066   -0.3507    1.2749 H   0  0  0  0  0  0  0  0  0  0  0  0
    4.3266    1.8751   -1.9111 H   0  0  0  0  0  0  0  0  0  0  0  0
    5.4306   -0.5247    1.4738 H   0  0  0  0  0  0  0  0  0  0  0  0
    0.4906    1.6193   -0.9089 H   0  0  0  0  0  0  0  0  0  0  0  0
    0.5569    1.9531    0.6970 H   0  0  0  0  0  0  0  0  0  0  0  0
  1  2  2  0
  2  3  1  0
  2  4  1  0
  4  5  2  0
  5  6  1  0
  6  7  2  0
  7  8  1  0
  8  9  2  0
  8 10  1  0
 10 11  1  0
 11 12  2  0
 12 13  1  0
 13 14  1  0
 14 15  1  0
 15 16  1  0
 16 17  2  0
 17 18  1  0
 18 19  2  0
 19 20  1  0
 19 21  1  0
 21 22  2  0
 22 23  1  0
 15 24  1  0
  9  4  1  0
 14 10  1  0
 22 16  1  0
 24  7  1  0
  5 25  1  0
  6 26  1  0
  9 27  1  0
 10 28  1  6
 11 29  1  0
 12 30  1  0
 13 31  1  0
 13 32  1  0
 14 33  1  6
 15 34  1  1
 18 35  1  0
 21 36  1  0
 24 37  1  0
 24 38  1  0
M  CHG  2   3  -1  24   1
M  END
$$$$
