
     RDKit          3D

102107  0  0  0  0  0  0  0  0999 V2000
    0.2527    4.6310    0.7092 C   0  0  0  0  0  0  0  0  0  0  0  0
    1.4134    3.9708    0.5234 C   0  0  0  0  0  0  0  0  0  0  0  0
    1.5952    2.4514    0.7189 C   0  0  1  0  0  0  0  0  0  0  0  0
    0.2731    1.6495    0.7055 C   0  0  0  0  0  0  0  0  0  0  0  0
   -0.3531    1.4252    1.8803 C   0  0  0  0  0  0  0  0  0  0  0  0
   -1.6434    0.6867    2.0646 C   0  0  0  0  0  0  0  0  0  0  0  0
   -2.3923    0.4153    0.7427 C   0  0  2  0  0  0  0  0  0  0  0  0
   -3.7711   -0.3724    0.9222 C   0  0  1  0  0  0  0  0  0  0  0  0
   -3.5993   -1.6912    1.7159 C   0  0  0  0  0  0  0  0  0  0  0  0
   -4.7465    0.5358    1.7593 C   0  0  0  0  0  0  0  0  0  0  0  0
   -6.1865    0.6318    1.2338 C   0  0  1  0  0  0  0  0  0  0  0  0
   -6.2716    1.6695    0.2519 O   0  0  0  0  0  0  0  0  0  0  0  0
   -6.7148   -0.6906    0.6573 C   0  0  2  0  0  0  0  0  0  0  0  0
   -6.8361   -1.6257    1.7344 O   0  0  0  0  0  0  0  0  0  0  0  0
   -5.8438   -1.2356   -0.5291 C   0  0  1  0  0  0  0  0  0  0  0  0
   -5.8382   -2.7833   -0.5573 C   0  0  0  0  0  0  0  0  0  0  0  0
   -6.5167   -0.7622   -1.8594 C   0  0  0  0  0  0  0  0  0  0  0  0
   -7.8228   -1.3184   -2.0027 O   0  0  0  0  0  0  0  0  0  0  0  0
   -4.3844   -0.6221   -0.4976 C   0  0  2  0  0  0  0  0  0  0  0  0
   -3.3777   -1.3384   -1.4215 C   0  0  0  0  0  0  0  0  0  0  0  0
   -2.1461   -0.4631   -1.6493 C   0  0  0  0  0  0  0  0  0  0  0  0
   -1.3773   -0.0925   -0.3532 C   0  0  2  0  0  0  0  0  0  0  0  0
   -0.6385   -1.3786    0.1305 C   0  0  0  0  0  0  0  0  0  0  0  0
   -0.2807    1.0955   -0.6287 C   0  0  1  0  0  0  0  0  0  0  0  0
   -0.9138    2.2848   -1.4102 C   0  0  0  0  0  0  0  0  0  0  0  0
    0.8845    0.5591   -1.5092 C   0  0  0  0  0  0  0  0  0  0  0  0
    2.0990    1.4849   -1.5837 C   0  0  0  0  0  0  0  0  0  0  0  0
    2.6891    1.7987   -0.1880 C   0  0  2  0  0  0  0  0  0  0  0  0
    3.1911    0.5171    0.5142 C   0  0  0  0  0  0  0  0  0  0  0  0
    3.1877    0.3386    1.7263 O   0  0  0  0  0  0  0  0  0  0  0  0
    3.7219   -0.3581   -0.3818 O   0  0  0  0  0  0  0  0  0  0  0  0
    4.2147   -1.5812    0.1802 C   0  0  2  0  0  0  0  0  0  0  0  0
    5.5870   -1.3960    0.5540 O   0  0  0  0  0  0  0  0  0  0  0  0
    6.1580   -2.5824    1.1278 C   0  0  2  0  0  0  0  0  0  0  0  0
    7.5570   -2.2208    1.6357 C   0  0  0  0  0  0  0  0  0  0  0  0
    8.3955   -1.8280    0.5506 O   0  0  0  0  0  0  0  0  0  0  0  0
    6.1908   -3.6953    0.0680 C   0  0  1  0  0  0  0  0  0  0  0  0
    6.7260   -4.9188    0.5803 O   0  0  0  0  0  0  0  0  0  0  0  0
    4.7607   -3.9622   -0.4085 C   0  0  2  0  0  0  0  0  0  0  0  0
    4.7655   -4.9244   -1.4760 O   0  0  0  0  0  0  0  0  0  0  0  0
    4.0952   -2.6756   -0.8982 C   0  0  1  0  0  0  0  0  0  0  0  0
    2.7227   -2.9579   -1.2131 O   0  0  0  0  0  0  0  0  0  0  0  0
    3.9551    2.6865   -0.3662 C   0  0  0  0  0  0  0  0  0  0  0  0
    3.9383    3.9539    0.4797 C   0  0  0  0  0  0  0  0  0  0  0  0
    2.6711    4.7831    0.2484 C   0  0  1  0  0  0  0  0  0  0  0  0
    2.6516    5.4075   -1.1529 C   0  0  0  0  0  0  0  0  0  0  0  0
   -0.6701    4.1270    0.9752 H   0  0  0  0  0  0  0  0  0  0  0  0
    0.1926    5.7112    0.6141 H   0  0  0  0  0  0  0  0  0  0  0  0
    1.9787    2.3969    1.7506 H   0  0  0  0  0  0  0  0  0  0  0  0
    0.0884    1.8043    2.8014 H   0  0  0  0  0  0  0  0  0  0  0  0
   -1.4035   -0.2416    2.5909 H   0  0  0  0  0  0  0  0  0  0  0  0
   -2.2764    1.2761    2.7369 H   0  0  0  0  0  0  0  0  0  0  0  0
   -2.7208    1.4012    0.3865 H   0  0  0  0  0  0  0  0  0  0  0  0
   -3.1684   -2.4992    1.1260 H   0  0  0  0  0  0  0  0  0  0  0  0
   -4.5519   -2.0739    2.0854 H   0  0  0  0  0  0  0  0  0  0  0  0
   -2.9861   -1.5634    2.6108 H   0  0  0  0  0  0  0  0  0  0  0  0
   -4.7771    0.1744    2.7959 H   0  0  0  0  0  0  0  0  0  0  0  0
   -4.3541    1.5583    1.8211 H   0  0  0  0  0  0  0  0  0  0  0  0
   -6.8307    0.9374    2.0679 H   0  0  0  0  0  0  0  0  0  0  0  0
   -6.0455    2.5037    0.6991 H   0  0  0  0  0  0  0  0  0  0  0  0
   -7.7392   -0.5056    0.3120 H   0  0  0  0  0  0  0  0  0  0  0  0
   -7.4432   -2.3229    1.4288 H   0  0  0  0  0  0  0  0  0  0  0  0
   -5.3026   -3.2162    0.2897 H   0  0  0  0  0  0  0  0  0  0  0  0
   -5.3712   -3.1682   -1.4703 H   0  0  0  0  0  0  0  0  0  0  0  0
   -6.8569   -3.1871   -0.5348 H   0  0  0  0  0  0  0  0  0  0  0  0
   -5.9378   -1.0770   -2.7328 H   0  0  0  0  0  0  0  0  0  0  0  0
   -6.6103    0.3276   -1.8967 H   0  0  0  0  0  0  0  0  0  0  0  0
   -8.1989   -0.9409   -2.8170 H   0  0  0  0  0  0  0  0  0  0  0  0
   -4.4895    0.3827   -0.9365 H   0  0  0  0  0  0  0  0  0  0  0  0
   -3.0855   -2.3166   -1.0296 H   0  0  0  0  0  0  0  0  0  0  0  0
   -3.8273   -1.5270   -2.4023 H   0  0  0  0  0  0  0  0  0  0  0  0
   -2.5061    0.4357   -2.1576 H   0  0  0  0  0  0  0  0  0  0  0  0
   -1.4788   -0.9653   -2.3600 H   0  0  0  0  0  0  0  0  0  0  0  0
   -1.3057   -2.1188    0.5621 H   0  0  0  0  0  0  0  0  0  0  0  0
   -0.1426   -1.8927   -0.7004 H   0  0  0  0  0  0  0  0  0  0  0  0
    0.1261   -1.1671    0.8842 H   0  0  0  0  0  0  0  0  0  0  0  0
   -1.7856    2.7085   -0.9053 H   0  0  0  0  0  0  0  0  0  0  0  0
   -0.2091    3.1075   -1.5574 H   0  0  0  0  0  0  0  0  0  0  0  0
   -1.2165    1.9955   -2.4213 H   0  0  0  0  0  0  0  0  0  0  0  0
    1.2450   -0.4044   -1.1449 H   0  0  0  0  0  0  0  0  0  0  0  0
    0.5272    0.3719   -2.5297 H   0  0  0  0  0  0  0  0  0  0  0  0
    2.8535    1.0118   -2.2258 H   0  0  0  0  0  0  0  0  0  0  0  0
    1.8246    2.4127   -2.0971 H   0  0  0  0  0  0  0  0  0  0  0  0
    3.6165   -1.8710    1.0548 H   0  0  0  0  0  0  0  0  0  0  0  0
    5.5610   -2.8908    1.9961 H   0  0  0  0  0  0  0  0  0  0  0  0
    7.5094   -1.3804    2.3363 H   0  0  0  0  0  0  0  0  0  0  0  0
    8.0285   -3.0673    2.1431 H   0  0  0  0  0  0  0  0  0  0  0  0
    7.9628   -1.0458    0.1553 H   0  0  0  0  0  0  0  0  0  0  0  0
    6.7966   -3.4066   -0.8002 H   0  0  0  0  0  0  0  0  0  0  0  0
    7.6968   -4.8129    0.6023 H   0  0  0  0  0  0  0  0  0  0  0  0
    4.1657   -4.4168    0.3938 H   0  0  0  0  0  0  0  0  0  0  0  0
    5.3183   -5.6630   -1.1490 H   0  0  0  0  0  0  0  0  0  0  0  0
    4.5647   -2.3385   -1.8308 H   0  0  0  0  0  0  0  0  0  0  0  0
    2.7520   -3.7506   -1.7860 H   0  0  0  0  0  0  0  0  0  0  0  0
    4.8692    2.1300   -0.1201 H   0  0  0  0  0  0  0  0  0  0  0  0
    4.0774    2.9710   -1.4190 H   0  0  0  0  0  0  0  0  0  0  0  0
    4.0189    3.6844    1.5410 H   0  0  0  0  0  0  0  0  0  0  0  0
    4.8270    4.5550    0.2510 H   0  0  0  0  0  0  0  0  0  0  0  0
    2.7079    5.6111    0.9707 H   0  0  0  0  0  0  0  0  0  0  0  0
    2.5246    4.6579   -1.9395 H   0  0  0  0  0  0  0  0  0  0  0  0
    1.8316    6.1273   -1.2518 H   0  0  0  0  0  0  0  0  0  0  0  0
    3.5838    5.9484   -1.3484 H   0  0  0  0  0  0  0  0  0  0  0  0
  1  2  2  0
  2  3  1  0
  3  4  1  0
  4  5  2  0
  5  6  1  0
  6  7  1  0
  7  8  1  0
  8  9  1  1
  8 10  1  0
 10 11  1  0
 11 12  1  0
 11 13  1  0
 13 14  1  0
 13 15  1  0
 15 16  1  6
 15 17  1  0
 17 18  1  0
 15 19  1  0
 19 20  1  0
 20 21  1  0
 21 22  1  0
 22 23  1  1
 22 24  1  0
 24 25  1  6
 24 26  1  0
 26 27  1  0
 27 28  1  0
 28 29  1  1
 29 30  2  0
 29 31  1  0
 31 32  1  0
 32 33  1  0
 33 34  1  0
 34 35  1  0
 35 36  1  0
 34 37  1  0
 37 38  1  0
 37 39  1  0
 39 40  1  0
 39 41  1  0
 41 42  1  0
 28 43  1  0
 43 44  1  0
 44 45  1  0
 45 46  1  0
 45  2  1  0
 28  3  1  0
 41 32  1  0
 24  4  1  0
 22  7  1  0
 19  8  1  0
  1 47  1  0
  1 48  1  0
  3 49  1  1
  5 50  1  0
  6 51  1  0
  6 52  1  0
  7 53  1  6
  9 54  1  0
  9 55  1  0
  9 56  1  0
 10 57  1  0
 10 58  1  0
 11 59  1  1
 12 60  1  0
 13 61  1  6
 14 62  1  0
 16 63  1  0
 16 64  1  0
 16 65  1  0
 17 66  1  0
 17 67  1  0
 18 68  1  0
 19 69  1  6
 20 70  1  0
 20 71  1  0
 21 72  1  0
 21 73  1  0
 23 74  1  0
 23 75  1  0
 23 76  1  0
 25 77  1  0
 25 78  1  0
 25 79  1  0
 26 80  1  0
 26 81  1  0
 27 82  1  0
 27 83  1  0
 32 84  1  1
 34 85  1  1
 35 86  1  0
 35 87  1  0
 36 88  1  0
 37 89  1  6
 38 90  1  0
 39 91  1  1
 40 92  1  0
 41 93  1  6
 42 94  1  0
 43 95  1  0
 43 96  1  0
 44 97  1  0
 44 98  1  0
 45 99  1  1
 46100  1  0
 46101  1  0
 46102  1  0
M  END
$$$$
