
     RDKit          3D

 60 63  0  0  0  0  0  0  0  0999 V2000
   -0.9558   -3.3503   -0.3476 C   0  0  0  0  0  0  0  0  0  0  0  0
   -1.5072   -2.1995   -1.0292 N   0  0  0  0  0  0  0  0  0  0  0  0
   -2.6500   -2.3394   -1.7395 N   0  0  0  0  0  0  0  0  0  0  0  0
   -2.6673   -1.2280   -2.4876 C   0  0  0  0  0  0  0  0  0  0  0  0
   -1.7406   -0.2760   -2.0263 C   0  0  0  0  0  0  0  0  0  0  0  0
   -1.6166    1.3195   -2.5775 Cl  0  0  0  0  0  0  0  0  0  0  0  0
   -1.0733   -0.8938   -0.9858 C   0  0  0  0  0  0  0  0  0  0  0  0
   -0.1319   -0.3745    0.0006 C   0  0  0  0  0  0  0  0  0  0  0  0
    1.0827    0.1955   -0.4023 C   0  0  0  0  0  0  0  0  0  0  0  0
    1.9822    0.7016    0.5417 C   0  0  0  0  0  0  0  0  0  0  0  0
    3.2269    1.2795    0.2116 N   0  0  0  0  0  0  0  0  0  0  0  0
    3.7359    1.5002   -1.0575 C   0  0  0  0  0  0  0  0  0  0  0  0
    3.1581    1.3027   -2.1189 O   0  0  0  0  0  0  0  0  0  0  0  0
    5.1128    2.0701   -1.0959 C   0  0  0  0  0  0  0  0  0  0  0  0
    5.4293    2.9824   -2.1086 C   0  0  0  0  0  0  0  0  0  0  0  0
    6.7088    3.5333   -2.1816 C   0  0  0  0  0  0  0  0  0  0  0  0
    7.6810    3.1692   -1.2487 C   0  0  0  0  0  0  0  0  0  0  0  0
    7.3859    2.2465   -0.2334 C   0  0  0  0  0  0  0  0  0  0  0  0
    8.4465    1.8193    0.7532 C   0  0  0  0  0  0  0  0  0  0  0  0
    9.4187    2.7519    0.9399 F   0  0  0  0  0  0  0  0  0  0  0  0
    9.0783    0.6776    0.3714 F   0  0  0  0  0  0  0  0  0  0  0  0
    7.9293    1.5660    1.9891 F   0  0  0  0  0  0  0  0  0  0  0  0
    6.0956    1.6896   -0.1715 C   0  0  0  0  0  0  0  0  0  0  0  0
    1.6536    0.6259    1.9030 C   0  0  0  0  0  0  0  0  0  0  0  0
    0.4425    0.0663    2.3191 C   0  0  0  0  0  0  0  0  0  0  0  0
   -0.4523   -0.4129    1.3670 C   0  0  0  0  0  0  0  0  0  0  0  0
   -1.6352   -0.9930    1.7584 O   0  0  0  0  0  0  0  0  0  0  0  0
   -2.5732   -0.0043    2.2026 C   0  0  0  0  0  0  0  0  0  0  0  0
   -3.9569   -0.6648    2.2489 C   0  0  0  0  0  0  0  0  0  0  0  0
   -4.4592   -1.0546    0.8675 N   0  0  0  0  0  0  0  0  0  0  0  0
   -5.5433   -2.1148    0.9334 C   0  0  0  0  0  0  0  0  0  0  0  0
   -5.9348   -2.5537   -0.4815 C   0  0  0  0  0  0  0  0  0  0  0  0
   -6.2009   -1.4491   -1.3806 N   0  0  0  0  0  0  0  0  0  0  0  0
   -5.6567   -0.1994   -1.2604 C   0  0  0  0  0  0  0  0  0  0  0  0
   -5.7981    0.6251   -2.1576 O   0  0  0  0  0  0  0  0  0  0  0  0
   -4.9447    0.1471    0.0503 C   0  0  0  0  0  0  0  0  0  0  0  0
    0.0878   -3.1607   -0.0879 H   0  0  0  0  0  0  0  0  0  0  0  0
   -1.5517   -3.5348    0.5492 H   0  0  0  0  0  0  0  0  0  0  0  0
   -1.0093   -4.2089   -1.0223 H   0  0  0  0  0  0  0  0  0  0  0  0
   -3.3960   -1.1281   -3.2839 H   0  0  0  0  0  0  0  0  0  0  0  0
    1.3124    0.2254   -1.4638 H   0  0  0  0  0  0  0  0  0  0  0  0
    3.7853    1.6043    0.9909 H   0  0  0  0  0  0  0  0  0  0  0  0
    4.6794    3.2647   -2.8459 H   0  0  0  0  0  0  0  0  0  0  0  0
    6.9500    4.2419   -2.9716 H   0  0  0  0  0  0  0  0  0  0  0  0
    8.6782    3.6033   -1.3238 H   0  0  0  0  0  0  0  0  0  0  0  0
    5.8824    0.9368    0.5852 H   0  0  0  0  0  0  0  0  0  0  0  0
    2.3409    0.9983    2.6601 H   0  0  0  0  0  0  0  0  0  0  0  0
    0.2194    0.0008    3.3801 H   0  0  0  0  0  0  0  0  0  0  0  0
   -2.3023    0.3173    3.2150 H   0  0  0  0  0  0  0  0  0  0  0  0
   -2.5794    0.8710    1.5424 H   0  0  0  0  0  0  0  0  0  0  0  0
   -3.8939   -1.5931    2.8274 H   0  0  0  0  0  0  0  0  0  0  0  0
   -4.7065   -0.0069    2.7001 H   0  0  0  0  0  0  0  0  0  0  0  0
   -3.6753   -1.4670    0.3292 H   0  0  0  0  0  0  0  0  0  0  0  0
   -6.3923   -1.6701    1.4644 H   0  0  0  0  0  0  0  0  0  0  0  0
   -5.1511   -2.9624    1.5043 H   0  0  0  0  0  0  0  0  0  0  0  0
   -5.1344   -3.1489   -0.9307 H   0  0  0  0  0  0  0  0  0  0  0  0
   -6.8327   -3.1788   -0.4494 H   0  0  0  0  0  0  0  0  0  0  0  0
   -6.6723   -1.6270   -2.2644 H   0  0  0  0  0  0  0  0  0  0  0  0
   -4.0653    0.7557   -0.1736 H   0  0  0  0  0  0  0  0  0  0  0  0
   -5.6433    0.7063    0.6813 H   0  0  0  0  0  0  0  0  0  0  0  0
  1  2  1  0
  2  3  1  0
  3  4  2  0
  4  5  1  0
  5  6  1  0
  5  7  2  0
  7  8  1  0
  8  9  2  0
  9 10  1  0
 10 11  1  0
 11 12  1  0
 12 13  2  0
 12 14  1  0
 14 15  2  0
 15 16  1  0
 16 17  2  0
 17 18  1  0
 18 19  1  0
 19 20  1  0
 19 21  1  0
 19 22  1  0
 18 23  2  0
 10 24  2  0
 24 25  1  0
 25 26  2  0
 26 27  1  0
 27 28  1  0
 28 29  1  0
 29 30  1  0
 30 31  1  0
 31 32  1  0
 32 33  1  0
 33 34  1  0
 34 35  2  0
 34 36  1  0
  7  2  1  0
 26  8  1  0
 36 30  1  0
 23 14  1  0
  1 37  1  0
  1 38  1  0
  1 39  1  0
  4 40  1  0
  9 41  1  0
 11 42  1  0
 15 43  1  0
 16 44  1  0
 17 45  1  0
 23 46  1  0
 24 47  1  0
 25 48  1  0
 28 49  1  0
 28 50  1  0
 29 51  1  0
 29 52  1  0
 30 53  1  0
 31 54  1  0
 31 55  1  0
 32 56  1  0
 32 57  1  0
 33 58  1  0
 36 59  1  0
 36 60  1  0
M  CHG  1  30   1
M  END
$$$$
