
     RDKit          3D

 51 54  0  0  0  0  0  0  0  0999 V2000
   -4.8934    0.9438    1.5476 C   0  0  0  0  0  0  0  0  0  0  0  0
   -3.5994    0.3919    1.0014 N   0  0  0  0  0  0  0  0  0  0  0  0
   -2.4629    1.4089    1.1136 C   0  0  0  0  0  0  0  0  0  0  0  0
   -2.2879    1.9337   -0.2953 C   0  0  0  0  0  0  0  0  0  0  0  0
   -2.5540    0.7234   -1.1865 C   0  0  1  0  0  0  0  0  0  0  0  0
   -2.8988    1.1394   -2.6149 C   0  0  0  0  0  0  0  0  0  0  0  0
   -1.4779   -0.3269   -1.1735 C   0  0  0  0  0  0  0  0  0  0  0  0
   -0.1184   -0.1724   -1.3809 C   0  0  0  0  0  0  0  0  0  0  0  0
    0.6952   -1.2919   -1.1816 C   0  0  0  0  0  0  0  0  0  0  0  0
    2.0840   -1.1646   -1.2674 O   0  0  0  0  0  0  0  0  0  0  0  0
    2.6295   -0.4920   -0.1708 C   0  0  0  0  0  0  0  0  0  0  0  0
    1.9552   -0.0410    0.7487 O   0  0  0  0  0  0  0  0  0  0  0  0
    3.9878   -0.4330   -0.3277 N   0  0  0  0  0  0  0  0  0  0  0  0
    4.9419    0.1451    0.5306 C   0  0  0  0  0  0  0  0  0  0  0  0
    4.6269    0.7648    1.7419 C   0  0  0  0  0  0  0  0  0  0  0  0
    5.6349    1.3158    2.5407 C   0  0  0  0  0  0  0  0  0  0  0  0
    6.9672    1.2523    2.1354 C   0  0  0  0  0  0  0  0  0  0  0  0
    7.2947    0.6350    0.9275 C   0  0  0  0  0  0  0  0  0  0  0  0
    8.6606    0.5636    0.4990 C   0  0  0  0  0  0  0  0  0  0  0  0
    9.7586    0.4962    0.1320 N   0  0  0  0  0  0  0  0  0  0  0  0
    6.2830    0.0831    0.1295 C   0  0  0  0  0  0  0  0  0  0  0  0
    0.1650   -2.5536   -0.8708 C   0  0  0  0  0  0  0  0  0  0  0  0
   -1.2113   -2.7052   -0.6930 C   0  0  0  0  0  0  0  0  0  0  0  0
   -2.0014   -1.5794   -0.8460 C   0  0  0  0  0  0  0  0  0  0  0  0
   -3.4370   -1.5023   -0.5828 N   0  0  0  0  0  0  0  0  0  0  0  0
   -4.2072   -2.1669   -1.6966 C   0  0  0  0  0  0  0  0  0  0  0  0
   -3.6999   -0.0253   -0.4504 C   0  0  1  0  0  0  0  0  0  0  0  0
   -5.1677    1.8308    0.9704 H   0  0  0  0  0  0  0  0  0  0  0  0
   -5.6515    0.1619    1.4549 H   0  0  0  0  0  0  0  0  0  0  0  0
   -4.7359    1.1897    2.6009 H   0  0  0  0  0  0  0  0  0  0  0  0
   -3.3285   -0.3776    1.6231 H   0  0  0  0  0  0  0  0  0  0  0  0
   -2.7247    2.1814    1.8424 H   0  0  0  0  0  0  0  0  0  0  0  0
   -1.5843    0.8560    1.4629 H   0  0  0  0  0  0  0  0  0  0  0  0
   -1.2957    2.3732   -0.4390 H   0  0  0  0  0  0  0  0  0  0  0  0
   -3.0294    2.7207   -0.4823 H   0  0  0  0  0  0  0  0  0  0  0  0
   -3.7825    1.7868   -2.6340 H   0  0  0  0  0  0  0  0  0  0  0  0
   -3.1038    0.2805   -3.2611 H   0  0  0  0  0  0  0  0  0  0  0  0
   -2.0700    1.6939   -3.0704 H   0  0  0  0  0  0  0  0  0  0  0  0
    0.3265    0.7878   -1.6315 H   0  0  0  0  0  0  0  0  0  0  0  0
    4.3327   -0.8677   -1.1748 H   0  0  0  0  0  0  0  0  0  0  0  0
    3.6063    0.8363    2.1032 H   0  0  0  0  0  0  0  0  0  0  0  0
    5.3801    1.7948    3.4841 H   0  0  0  0  0  0  0  0  0  0  0  0
    7.7430    1.6844    2.7661 H   0  0  0  0  0  0  0  0  0  0  0  0
    6.5586   -0.3949   -0.8093 H   0  0  0  0  0  0  0  0  0  0  0  0
    0.8342   -3.4038   -0.7406 H   0  0  0  0  0  0  0  0  0  0  0  0
   -1.6129   -3.6780   -0.4257 H   0  0  0  0  0  0  0  0  0  0  0  0
   -3.6404   -2.0324    0.2701 H   0  0  0  0  0  0  0  0  0  0  0  0
   -3.9539   -1.7040   -2.6529 H   0  0  0  0  0  0  0  0  0  0  0  0
   -5.2712   -2.0419   -1.4777 H   0  0  0  0  0  0  0  0  0  0  0  0
   -3.9586   -3.2323   -1.6985 H   0  0  0  0  0  0  0  0  0  0  0  0
   -4.7055    0.2121   -0.8187 H   0  0  0  0  0  0  0  0  0  0  0  0
  1  2  1  0
  2  3  1  0
  3  4  1  0
  4  5  1  0
  5  6  1  6
  5  7  1  0
  7  8  2  0
  8  9  1  0
  9 10  1  0
 10 11  1  0
 11 12  2  0
 11 13  1  0
 13 14  1  0
 14 15  2  0
 15 16  1  0
 16 17  2  0
 17 18  1  0
 18 19  1  0
 19 20  3  0
 18 21  2  0
  9 22  2  0
 22 23  1  0
 23 24  2  0
 24 25  1  0
 25 26  1  0
 25 27  1  0
 27  2  1  0
 27  5  1  0
 24  7  1  0
 21 14  1  0
  1 28  1  0
  1 29  1  0
  1 30  1  0
  2 31  1  0
  3 32  1  0
  3 33  1  0
  4 34  1  0
  4 35  1  0
  6 36  1  0
  6 37  1  0
  6 38  1  0
  8 39  1  0
 13 40  1  0
 15 41  1  0
 16 42  1  0
 17 43  1  0
 21 44  1  0
 22 45  1  0
 23 46  1  0
 25 47  1  0
 26 48  1  0
 26 49  1  0
 26 50  1  0
 27 51  1  6
M  CHG  2   2   1  25   1
M  END
$$$$
