
     RDKit          3D

 45 48  0  0  0  0  0  0  0  0999 V2000
   -5.1082    1.9899    0.4105 C   0  0  0  0  0  0  0  0  0  0  0  0
   -4.4849    0.9375   -0.4956 C   0  0  2  0  0  0  0  0  0  0  0  0
   -5.5151    0.0269   -1.1617 C   0  0  0  0  0  0  0  0  0  0  0  0
   -5.5674   -1.2076   -0.2838 C   0  0  0  0  0  0  0  0  0  0  0  0
   -4.1166   -1.4105    0.0913 C   0  0  0  0  0  0  0  0  0  0  0  0
   -3.6278   -0.0031    0.3601 N   0  0  0  0  0  0  0  0  0  0  0  0
   -2.1423    0.2042    0.1683 C   0  0  0  0  0  0  0  0  0  0  0  0
   -1.3357   -0.5995    1.1918 C   0  0  0  0  0  0  0  0  0  0  0  0
    0.1375   -0.3129    1.0620 C   0  0  0  0  0  0  0  0  0  0  0  0
    0.7187    0.7487    1.7599 C   0  0  0  0  0  0  0  0  0  0  0  0
    2.0812    1.0287    1.6103 C   0  0  0  0  0  0  0  0  0  0  0  0
    2.8964    0.2777    0.7772 C   0  0  0  0  0  0  0  0  0  0  0  0
    4.1947    0.5978    0.6701 N   0  0  0  0  0  0  0  0  0  0  0  0
    4.9872   -0.1474   -0.1440 C   0  0  0  0  0  0  0  0  0  0  0  0
    6.4117    0.2283   -0.2392 C   0  0  0  0  0  0  0  0  0  0  0  0
    7.2969   -0.3882   -1.0063 N   0  0  0  0  0  0  0  0  0  0  0  0
    8.5395    0.1988   -0.8696 C   0  0  0  0  0  0  0  0  0  0  0  0
    8.6012    1.2636   -0.0003 C   0  0  0  0  0  0  0  0  0  0  0  0
    7.0543    1.5470    0.6746 S   0  0  0  0  0  0  0  0  0  0  0  0
    4.4959   -1.2257   -0.8710 C   0  0  0  0  0  0  0  0  0  0  0  0
    3.1476   -1.5525   -0.7610 C   0  0  0  0  0  0  0  0  0  0  0  0
    2.3172   -0.7964    0.0734 C   0  0  0  0  0  0  0  0  0  0  0  0
    0.9461   -1.0841    0.2172 C   0  0  0  0  0  0  0  0  0  0  0  0
   -5.7270    2.6788   -0.1738 H   0  0  0  0  0  0  0  0  0  0  0  0
   -4.3341    2.5790    0.9135 H   0  0  0  0  0  0  0  0  0  0  0  0
   -5.7440    1.5387    1.1800 H   0  0  0  0  0  0  0  0  0  0  0  0
   -3.8424    1.4089   -1.2481 H   0  0  0  0  0  0  0  0  0  0  0  0
   -6.4966    0.4970   -1.2770 H   0  0  0  0  0  0  0  0  0  0  0  0
   -5.1637   -0.2505   -2.1635 H   0  0  0  0  0  0  0  0  0  0  0  0
   -6.1738   -1.0185    0.6097 H   0  0  0  0  0  0  0  0  0  0  0  0
   -5.9862   -2.0731   -0.8047 H   0  0  0  0  0  0  0  0  0  0  0  0
   -3.9799   -2.0074    0.9968 H   0  0  0  0  0  0  0  0  0  0  0  0
   -3.5339   -1.8197   -0.7409 H   0  0  0  0  0  0  0  0  0  0  0  0
   -3.8408    0.1997    1.3468 H   0  0  0  0  0  0  0  0  0  0  0  0
   -1.8977   -0.0774   -0.8625 H   0  0  0  0  0  0  0  0  0  0  0  0
   -1.9611    1.2783    0.2927 H   0  0  0  0  0  0  0  0  0  0  0  0
   -1.6657   -0.3595    2.2105 H   0  0  0  0  0  0  0  0  0  0  0  0
   -1.5071   -1.6751    1.0636 H   0  0  0  0  0  0  0  0  0  0  0  0
    0.1337    1.3703    2.4347 H   0  0  0  0  0  0  0  0  0  0  0  0
    2.5237    1.8561    2.1629 H   0  0  0  0  0  0  0  0  0  0  0  0
    9.3769   -0.1940   -1.4339 H   0  0  0  0  0  0  0  0  0  0  0  0
    9.4556    1.8703    0.2631 H   0  0  0  0  0  0  0  0  0  0  0  0
    5.1535   -1.8049   -1.5135 H   0  0  0  0  0  0  0  0  0  0  0  0
    2.7614   -2.3966   -1.3264 H   0  0  0  0  0  0  0  0  0  0  0  0
    0.5210   -1.9220   -0.3327 H   0  0  0  0  0  0  0  0  0  0  0  0
  1  2  1  0
  2  3  1  0
  3  4  1  0
  4  5  1  0
  5  6  1  0
  6  7  1  0
  7  8  1  0
  8  9  1  0
  9 10  2  0
 10 11  1  0
 11 12  2  0
 12 13  1  0
 13 14  2  0
 14 15  1  0
 15 16  2  0
 16 17  1  0
 17 18  2  0
 18 19  1  0
 14 20  1  0
 20 21  2  0
 21 22  1  0
 22 23  2  0
  6  2  1  0
 23  9  1  0
 22 12  1  0
 19 15  1  0
  1 24  1  0
  1 25  1  0
  1 26  1  0
  2 27  1  6
  3 28  1  0
  3 29  1  0
  4 30  1  0
  4 31  1  0
  5 32  1  0
  5 33  1  0
  6 34  1  0
  7 35  1  0
  7 36  1  0
  8 37  1  0
  8 38  1  0
 10 39  1  0
 11 40  1  0
 17 41  1  0
 18 42  1  0
 20 43  1  0
 21 44  1  0
 23 45  1  0
M  CHG  1   6   1
M  END
$$$$
