
     RDKit          3D

 60 64  0  0  0  0  0  0  0  0999 V2000
   -9.4615    0.5737    1.1691 C   0  0  0  0  0  0  0  0  0  0  0  0
   -8.1499    0.4297    0.4447 C   0  0  0  0  0  0  0  0  0  0  0  0
   -8.1136   -0.2603   -0.7739 C   0  0  0  0  0  0  0  0  0  0  0  0
   -6.9151   -0.4072   -1.4761 C   0  0  0  0  0  0  0  0  0  0  0  0
   -5.7245    0.1299   -0.9793 C   0  0  0  0  0  0  0  0  0  0  0  0
   -4.5609   -0.0629   -1.7532 N   0  0  0  0  0  0  0  0  0  0  0  0
   -3.2581    0.2937   -1.4336 C   0  0  0  0  0  0  0  0  0  0  0  0
   -2.9046    0.7659   -0.3614 O   0  0  0  0  0  0  0  0  0  0  0  0
   -2.4137    0.0436   -2.5070 N   0  0  0  0  0  0  0  0  0  0  0  0
   -1.0062    0.1497   -2.5360 C   0  0  0  0  0  0  0  0  0  0  0  0
   -0.3797    0.0025   -3.7788 C   0  0  0  0  0  0  0  0  0  0  0  0
    1.0082    0.0887   -3.8880 C   0  0  0  0  0  0  0  0  0  0  0  0
    1.7823    0.3249   -2.7528 C   0  0  0  0  0  0  0  0  0  0  0  0
    1.1822    0.4790   -1.4952 C   0  0  0  0  0  0  0  0  0  0  0  0
    2.0321    0.7153   -0.3006 C   0  0  0  0  0  0  0  0  0  0  0  0
    1.6132    1.5568    0.6687 C   0  0  0  0  0  0  0  0  0  0  0  0
    2.4327    1.7608    1.7571 N   0  0  0  0  0  0  0  0  0  0  0  0
    2.3002    2.5285    2.8814 C   0  0  0  0  0  0  0  0  0  0  0  0
    3.4584    2.3138    3.5997 C   0  0  0  0  0  0  0  0  0  0  0  0
    4.2965    1.4399    2.9474 N   0  0  0  0  0  0  0  0  0  0  0  0
    3.6419    1.1316    1.8461 C   0  0  0  0  0  0  0  0  0  0  0  0
    4.0583    0.2436    0.7759 C   0  0  0  0  0  0  0  0  0  0  0  0
    5.2697   -0.3986    0.8391 N   0  0  0  0  0  0  0  0  0  0  0  0
    5.7525   -1.3121   -0.1583 C   0  0  0  0  0  0  0  0  0  0  0  0
    7.1128   -1.8222    0.2403 C   0  0  0  0  0  0  0  0  0  0  0  0
    8.2709   -1.1264   -0.1194 C   0  0  0  0  0  0  0  0  0  0  0  0
    9.4979   -1.6217    0.2926 C   0  0  0  0  0  0  0  0  0  0  0  0
    9.6460   -2.7413    1.0321 N   0  0  0  0  0  0  0  0  0  0  0  0
    8.5154   -3.3902    1.3829 C   0  0  0  0  0  0  0  0  0  0  0  0
    7.2439   -2.9750    1.0204 C   0  0  0  0  0  0  0  0  0  0  0  0
    3.2627    0.0635   -0.2548 N   0  0  0  0  0  0  0  0  0  0  0  0
   -0.2178    0.3710   -1.4023 C   0  0  0  0  0  0  0  0  0  0  0  0
   -5.7572    0.8285    0.2287 C   0  0  0  0  0  0  0  0  0  0  0  0
   -6.9585    0.9914    0.9519 C   0  0  0  0  0  0  0  0  0  0  0  0
   -6.9380    1.7566    2.2584 C   0  0  0  0  0  0  0  0  0  0  0  0
   -7.2513    0.9721    3.3278 F   0  0  0  0  0  0  0  0  0  0  0  0
   -5.7319    2.3172    2.5547 F   0  0  0  0  0  0  0  0  0  0  0  0
   -7.8313    2.7865    2.2777 F   0  0  0  0  0  0  0  0  0  0  0  0
   -9.3726    0.2226    2.2016 H   0  0  0  0  0  0  0  0  0  0  0  0
   -9.7845    1.6192    1.1629 H   0  0  0  0  0  0  0  0  0  0  0  0
  -10.2487   -0.0211    0.6931 H   0  0  0  0  0  0  0  0  0  0  0  0
   -9.0223   -0.6934   -1.1883 H   0  0  0  0  0  0  0  0  0  0  0  0
   -6.9320   -0.9533   -2.4158 H   0  0  0  0  0  0  0  0  0  0  0  0
   -4.6837   -0.5786   -2.6102 H   0  0  0  0  0  0  0  0  0  0  0  0
   -2.8564   -0.1589   -3.3892 H   0  0  0  0  0  0  0  0  0  0  0  0
   -0.9595   -0.1784   -4.6798 H   0  0  0  0  0  0  0  0  0  0  0  0
    1.4890   -0.0277   -4.8557 H   0  0  0  0  0  0  0  0  0  0  0  0
    2.8645    0.3887   -2.8505 H   0  0  0  0  0  0  0  0  0  0  0  0
    0.6738    2.0941    0.6528 H   0  0  0  0  0  0  0  0  0  0  0  0
    1.4276    3.1365    3.0706 H   0  0  0  0  0  0  0  0  0  0  0  0
    3.7323    2.7445    4.5547 H   0  0  0  0  0  0  0  0  0  0  0  0
    5.8376   -0.2233    1.6624 H   0  0  0  0  0  0  0  0  0  0  0  0
    5.8182   -0.8176   -1.1351 H   0  0  0  0  0  0  0  0  0  0  0  0
    5.0619   -2.1562   -0.2743 H   0  0  0  0  0  0  0  0  0  0  0  0
    8.2216   -0.2138   -0.7046 H   0  0  0  0  0  0  0  0  0  0  0  0
   10.4221   -1.1132    0.0333 H   0  0  0  0  0  0  0  0  0  0  0  0
    8.6619   -4.2815    1.9864 H   0  0  0  0  0  0  0  0  0  0  0  0
    6.3749   -3.5385    1.3448 H   0  0  0  0  0  0  0  0  0  0  0  0
   -0.6787    0.4376   -0.4221 H   0  0  0  0  0  0  0  0  0  0  0  0
   -4.8515    1.2706    0.6371 H   0  0  0  0  0  0  0  0  0  0  0  0
  1  2  1  0
  2  3  2  0
  3  4  1  0
  4  5  2  0
  5  6  1  0
  6  7  1  0
  7  8  2  0
  7  9  1  0
  9 10  1  0
 10 11  2  0
 11 12  1  0
 12 13  2  0
 13 14  1  0
 14 15  1  0
 15 16  2  0
 16 17  1  0
 17 18  1  0
 18 19  2  0
 19 20  1  0
 20 21  2  0
 21 22  1  0
 22 23  1  0
 23 24  1  0
 24 25  1  0
 25 26  2  0
 26 27  1  0
 27 28  2  0
 28 29  1  0
 29 30  2  0
 22 31  2  0
 14 32  2  0
  5 33  1  0
 33 34  2  0
 34 35  1  0
 35 36  1  0
 35 37  1  0
 35 38  1  0
 34  2  1  0
 32 10  1  0
 31 15  1  0
 21 17  1  0
 30 25  1  0
  1 39  1  0
  1 40  1  0
  1 41  1  0
  3 42  1  0
  4 43  1  0
  6 44  1  0
  9 45  1  0
 11 46  1  0
 12 47  1  0
 13 48  1  0
 16 49  1  0
 18 50  1  0
 19 51  1  0
 23 52  1  0
 24 53  1  0
 24 54  1  0
 26 55  1  0
 27 56  1  0
 29 57  1  0
 30 58  1  0
 32 59  1  0
 33 60  1  0
M  END
$$$$
