
     RDKit          3D

 56 59  0  0  0  0  0  0  0  0999 V2000
   -5.7033    1.7489   -2.2485 C   0  0  0  0  0  0  0  0  0  0  0  0
   -5.7353    1.1671   -0.8446 C   0  0  0  0  0  0  0  0  0  0  0  0
   -4.4231    0.4648   -0.4995 C   0  0  0  0  0  0  0  0  0  0  0  0
   -4.4624   -0.1677    0.8862 C   0  0  0  0  0  0  0  0  0  0  0  0
   -5.2671    0.2018    1.7348 O   0  0  0  0  0  0  0  0  0  0  0  0
   -3.5135   -1.1936    1.1574 N   0  0  0  0  0  0  0  0  0  0  0  0
   -2.2357   -1.1153    0.5185 C   0  0  0  0  0  0  0  0  0  0  0  0
   -1.8567   -2.1082   -0.3846 C   0  0  0  0  0  0  0  0  0  0  0  0
   -0.6013   -2.0544   -0.9971 C   0  0  0  0  0  0  0  0  0  0  0  0
    0.2922   -1.0118   -0.7188 C   0  0  0  0  0  0  0  0  0  0  0  0
    1.5613   -1.0186   -1.3202 N   0  0  0  0  0  0  0  0  0  0  0  0
    2.6800   -0.1849   -1.0598 C   0  0  0  0  0  0  0  0  0  0  0  0
    3.0941    0.7480   -2.0448 C   0  0  0  0  0  0  0  0  0  0  0  0
    2.4400    0.9275   -3.2891 C   0  0  0  0  0  0  0  0  0  0  0  0
    2.8933    1.8651   -4.2153 C   0  0  0  0  0  0  0  0  0  0  0  0
    4.0020    2.6407   -3.9120 C   0  0  0  0  0  0  0  0  0  0  0  0
    4.6443    2.4755   -2.6832 C   0  0  0  0  0  0  0  0  0  0  0  0
    4.2108    1.5481   -1.7446 C   0  0  0  0  0  0  0  0  0  0  0  0
    4.8791    1.4605   -0.5856 N   0  0  0  0  0  0  0  0  0  0  0  0
    4.4969    0.5711    0.3374 C   0  0  0  0  0  0  0  0  0  0  0  0
    5.2325    0.5114    1.5112 C   0  0  0  0  0  0  0  0  0  0  0  0
    4.9117   -0.4050    2.5184 C   0  0  0  0  0  0  0  0  0  0  0  0
    5.7090   -0.4419    3.7490 N   0  0  0  0  0  0  0  0  0  0  0  0
    6.6620    0.3437    3.8440 O   0  0  0  0  0  0  0  0  0  0  0  0
    5.3795   -1.2561    4.6231 O   0  0  0  0  0  0  0  0  0  0  0  0
    3.8435   -1.2852    2.3582 C   0  0  0  0  0  0  0  0  0  0  0  0
    3.0983   -1.2297    1.1815 C   0  0  0  0  0  0  0  0  0  0  0  0
    3.4011   -0.2955    0.1589 C   0  0  0  0  0  0  0  0  0  0  0  0
   -0.0954   -0.0334    0.2064 C   0  0  0  0  0  0  0  0  0  0  0  0
   -1.3490   -0.0816    0.8239 C   0  0  0  0  0  0  0  0  0  0  0  0
   -3.6442   -2.2168    2.4934 S   0  0  0  0  0  0  0  0  0  0  0  0
   -3.3125   -1.1161    3.8556 C   0  0  0  0  0  0  0  0  0  0  0  0
   -5.0175   -2.6648    2.6012 O   0  0  0  0  0  0  0  0  0  0  0  0
   -2.5714   -3.1930    2.4575 O   0  0  0  0  0  0  0  0  0  0  0  0
   -5.5486    0.9636   -2.9953 H   0  0  0  0  0  0  0  0  0  0  0  0
   -4.8982    2.4836   -2.3501 H   0  0  0  0  0  0  0  0  0  0  0  0
   -6.6504    2.2493   -2.4732 H   0  0  0  0  0  0  0  0  0  0  0  0
   -5.9304    1.9722   -0.1262 H   0  0  0  0  0  0  0  0  0  0  0  0
   -6.5697    0.4603   -0.7630 H   0  0  0  0  0  0  0  0  0  0  0  0
   -4.2334   -0.3186   -1.2418 H   0  0  0  0  0  0  0  0  0  0  0  0
   -3.5998    1.1863   -0.5314 H   0  0  0  0  0  0  0  0  0  0  0  0
   -2.5253   -2.9377   -0.6030 H   0  0  0  0  0  0  0  0  0  0  0  0
   -0.3218   -2.8504   -1.6834 H   0  0  0  0  0  0  0  0  0  0  0  0
    1.6656   -1.6064   -2.1401 H   0  0  0  0  0  0  0  0  0  0  0  0
    1.5592    0.3409   -3.5392 H   0  0  0  0  0  0  0  0  0  0  0  0
    2.3795    1.9905   -5.1650 H   0  0  0  0  0  0  0  0  0  0  0  0
    4.3689    3.3777   -4.6217 H   0  0  0  0  0  0  0  0  0  0  0  0
    5.5102    3.0918   -2.4496 H   0  0  0  0  0  0  0  0  0  0  0  0
    6.0720    1.1953    1.6261 H   0  0  0  0  0  0  0  0  0  0  0  0
    3.5800   -2.0128    3.1232 H   0  0  0  0  0  0  0  0  0  0  0  0
    2.2728   -1.9293    1.0603 H   0  0  0  0  0  0  0  0  0  0  0  0
    0.5764    0.7848    0.4553 H   0  0  0  0  0  0  0  0  0  0  0  0
   -1.6147    0.6918    1.5394 H   0  0  0  0  0  0  0  0  0  0  0  0
   -3.3382   -1.7093    4.7729 H   0  0  0  0  0  0  0  0  0  0  0  0
   -4.0782   -0.3423    3.9049 H   0  0  0  0  0  0  0  0  0  0  0  0
   -2.3193   -0.6820    3.7319 H   0  0  0  0  0  0  0  0  0  0  0  0
  1  2  1  0
  2  3  1  0
  3  4  1  0
  4  5  2  0
  4  6  1  0
  6  7  1  0
  7  8  2  0
  8  9  1  0
  9 10  2  0
 10 11  1  0
 11 12  1  0
 12 13  1  0
 13 14  2  0
 14 15  1  0
 15 16  2  0
 16 17  1  0
 17 18  2  0
 18 19  1  0
 19 20  2  0
 20 21  1  0
 21 22  2  0
 22 23  1  0
 23 24  2  0
 23 25  1  0
 22 26  1  0
 26 27  2  0
 27 28  1  0
 10 29  1  0
 29 30  2  0
  6 31  1  0
 31 32  1  0
 31 33  2  0
 31 34  2  0
 30  7  1  0
 28 12  2  0
 18 13  1  0
 28 20  1  0
  1 35  1  0
  1 36  1  0
  1 37  1  0
  2 38  1  0
  2 39  1  0
  3 40  1  0
  3 41  1  0
  8 42  1  0
  9 43  1  0
 11 44  1  0
 14 45  1  0
 15 46  1  0
 16 47  1  0
 17 48  1  0
 21 49  1  0
 26 50  1  0
 27 51  1  0
 29 52  1  0
 30 53  1  0
 32 54  1  0
 32 55  1  0
 32 56  1  0
M  CHG  2  23   1  25  -1
M  END
$$$$
