
     RDKit          3D

 78 83  0  0  0  0  0  0  0  0999 V2000
   10.8403    0.4173   -0.2294 C   0  0  0  0  0  0  0  0  0  0  0  0
   10.0426   -0.8447    0.0398 C   0  0  0  0  0  0  0  0  0  0  0  0
    8.5550   -0.6133    0.0631 N   0  0  0  0  0  0  0  0  0  0  0  0
    8.0708    0.2956    1.1887 C   0  0  0  0  0  0  0  0  0  0  0  0
    6.5292    0.2786    1.2697 C   0  0  0  0  0  0  0  0  0  0  0  0
    5.9184    0.5633   -0.0431 N   0  0  0  0  0  0  0  0  0  0  0  0
    4.5945    1.0044   -0.0529 C   0  0  0  0  0  0  0  0  0  0  0  0
    3.6041    0.3901   -0.8303 C   0  0  0  0  0  0  0  0  0  0  0  0
    2.2772    0.8529   -0.8509 C   0  0  0  0  0  0  0  0  0  0  0  0
    1.3073    0.1342   -1.7285 C   0  0  0  0  0  0  0  0  0  0  0  0
    1.7519   -0.4117   -2.7322 O   0  0  0  0  0  0  0  0  0  0  0  0
    0.0007    0.1264   -1.2845 N   0  0  0  0  0  0  0  0  0  0  0  0
   -1.1228   -0.4328   -1.9329 C   0  0  0  0  0  0  0  0  0  0  0  0
   -1.0830   -1.0319   -3.1851 C   0  0  0  0  0  0  0  0  0  0  0  0
   -2.2492   -1.5562   -3.7440 C   0  0  0  0  0  0  0  0  0  0  0  0
   -3.4766   -1.4883   -3.0624 C   0  0  0  0  0  0  0  0  0  0  0  0
   -4.6919   -2.0807   -3.7265 C   0  0  0  0  0  0  0  0  0  0  0  0
   -3.5422   -0.8711   -1.7919 C   0  0  0  0  0  0  0  0  0  0  0  0
   -4.7740   -0.8056   -1.1038 N   0  0  0  0  0  0  0  0  0  0  0  0
   -5.0609   -0.3197    0.1333 C   0  0  0  0  0  0  0  0  0  0  0  0
   -4.2347    0.1883    1.0233 N   0  0  0  0  0  0  0  0  0  0  0  0
   -5.0022    0.5923    2.0740 C   0  0  0  0  0  0  0  0  0  0  0  0
   -4.5943    1.2457    3.2483 C   0  0  0  0  0  0  0  0  0  0  0  0
   -5.5594    1.6460    4.1750 C   0  0  0  0  0  0  0  0  0  0  0  0
   -6.9092    1.4163    3.9272 C   0  0  0  0  0  0  0  0  0  0  0  0
   -7.3319    0.7583    2.7652 C   0  0  0  0  0  0  0  0  0  0  0  0
   -6.3500    0.3133    1.8597 C   0  0  0  0  0  0  0  0  0  0  0  0
   -6.3720   -0.3701    0.6429 N   0  0  0  0  0  0  0  0  0  0  0  0
   -7.4847   -1.0134    0.0015 C   0  0  0  0  0  0  0  0  0  0  0  0
   -8.5875   -1.4105    0.7329 C   0  0  0  0  0  0  0  0  0  0  0  0
   -9.6135   -2.0178    0.0400 C   0  0  0  0  0  0  0  0  0  0  0  0
  -10.7283   -2.4902    0.6997 N   0  0  0  0  0  0  0  0  0  0  0  0
   -9.5569   -2.2525   -1.2731 N   0  0  0  0  0  0  0  0  0  0  0  0
   -8.4432   -1.8624   -1.8986 C   0  0  0  0  0  0  0  0  0  0  0  0
   -7.3881   -1.2623   -1.3287 N   0  0  0  0  0  0  0  0  0  0  0  0
   -2.3490   -0.3592   -1.2541 C   0  0  0  0  0  0  0  0  0  0  0  0
    1.9220    1.9726   -0.0956 C   0  0  0  0  0  0  0  0  0  0  0  0
    2.8836    2.6082    0.7009 C   0  0  0  0  0  0  0  0  0  0  0  0
    2.5313    3.8396    1.5012 C   0  0  0  0  0  0  0  0  0  0  0  0
    2.7763    4.9868    0.8152 F   0  0  0  0  0  0  0  0  0  0  0  0
    3.2451    3.9310    2.6579 F   0  0  0  0  0  0  0  0  0  0  0  0
    1.2215    3.8805    1.8647 F   0  0  0  0  0  0  0  0  0  0  0  0
    4.2049    2.1180    0.7065 C   0  0  0  0  0  0  0  0  0  0  0  0
    6.4238   -0.1926   -1.2051 C   0  0  0  0  0  0  0  0  0  0  0  0
    7.9642   -0.1596   -1.2693 C   0  0  0  0  0  0  0  0  0  0  0  0
   10.6773    1.1757    0.5415 H   0  0  0  0  0  0  0  0  0  0  0  0
   10.5992    0.8530   -1.2031 H   0  0  0  0  0  0  0  0  0  0  0  0
   11.9097    0.1816   -0.2337 H   0  0  0  0  0  0  0  0  0  0  0  0
   10.2331   -1.5986   -0.7315 H   0  0  0  0  0  0  0  0  0  0  0  0
   10.3104   -1.2758    1.0103 H   0  0  0  0  0  0  0  0  0  0  0  0
    8.1355   -1.5336    0.2502 H   0  0  0  0  0  0  0  0  0  0  0  0
    8.5114   -0.0727    2.1204 H   0  0  0  0  0  0  0  0  0  0  0  0
    8.4354    1.3055    0.9749 H   0  0  0  0  0  0  0  0  0  0  0  0
    6.2306    1.0029    2.0348 H   0  0  0  0  0  0  0  0  0  0  0  0
    6.1921   -0.7090    1.6091 H   0  0  0  0  0  0  0  0  0  0  0  0
    3.8371   -0.4840   -1.4348 H   0  0  0  0  0  0  0  0  0  0  0  0
   -0.1974    0.5258   -0.3762 H   0  0  0  0  0  0  0  0  0  0  0  0
   -0.1648   -1.1074   -3.7574 H   0  0  0  0  0  0  0  0  0  0  0  0
   -2.1904   -2.0227   -4.7256 H   0  0  0  0  0  0  0  0  0  0  0  0
   -5.1297   -2.8599   -3.0942 H   0  0  0  0  0  0  0  0  0  0  0  0
   -5.4356   -1.3012   -3.9208 H   0  0  0  0  0  0  0  0  0  0  0  0
   -4.4429   -2.5438   -4.6873 H   0  0  0  0  0  0  0  0  0  0  0  0
   -5.5707   -1.1434   -1.6436 H   0  0  0  0  0  0  0  0  0  0  0  0
   -3.5427    1.4520    3.4151 H   0  0  0  0  0  0  0  0  0  0  0  0
   -5.2538    2.1615    5.0824 H   0  0  0  0  0  0  0  0  0  0  0  0
   -7.6509    1.7647    4.6442 H   0  0  0  0  0  0  0  0  0  0  0  0
   -8.3943    0.6404    2.5841 H   0  0  0  0  0  0  0  0  0  0  0  0
   -8.6514   -1.3327    1.8072 H   0  0  0  0  0  0  0  0  0  0  0  0
  -11.3937   -2.9471    0.0866 H   0  0  0  0  0  0  0  0  0  0  0  0
  -11.1061   -1.9667    1.4748 H   0  0  0  0  0  0  0  0  0  0  0  0
   -8.3888   -2.0529   -2.9652 H   0  0  0  0  0  0  0  0  0  0  0  0
   -2.3704    0.1171   -0.2800 H   0  0  0  0  0  0  0  0  0  0  0  0
    0.9138    2.3814   -0.1421 H   0  0  0  0  0  0  0  0  0  0  0  0
    4.9470    2.6599    1.2919 H   0  0  0  0  0  0  0  0  0  0  0  0
    6.0861   -1.2344   -1.1406 H   0  0  0  0  0  0  0  0  0  0  0  0
    6.0463    0.2342   -2.1424 H   0  0  0  0  0  0  0  0  0  0  0  0
    8.3239    0.8569   -1.4587 H   0  0  0  0  0  0  0  0  0  0  0  0
    8.3350   -0.8397   -2.0424 H   0  0  0  0  0  0  0  0  0  0  0  0
  1  2  1  0
  2  3  1  0
  3  4  1  0
  4  5  1  0
  5  6  1  0
  6  7  1  0
  7  8  2  0
  8  9  1  0
  9 10  1  0
 10 11  2  0
 10 12  1  0
 12 13  1  0
 13 14  2  0
 14 15  1  0
 15 16  2  0
 16 17  1  0
 16 18  1  0
 18 19  1  0
 19 20  1  0
 20 21  2  0
 21 22  1  0
 22 23  2  0
 23 24  1  0
 24 25  2  0
 25 26  1  0
 26 27  2  0
 27 28  1  0
 28 29  1  0
 29 30  2  0
 30 31  1  0
 31 32  1  0
 31 33  2  0
 33 34  1  0
 34 35  2  0
 18 36  2  0
  9 37  2  0
 37 38  1  0
 38 39  1  0
 39 40  1  0
 39 41  1  0
 39 42  1  0
 38 43  2  0
  6 44  1  0
 44 45  1  0
 45  3  1  0
 43  7  1  0
 36 13  1  0
 28 20  1  0
 35 29  1  0
 27 22  1  0
  1 46  1  0
  1 47  1  0
  1 48  1  0
  2 49  1  0
  2 50  1  0
  3 51  1  0
  4 52  1  0
  4 53  1  0
  5 54  1  0
  5 55  1  0
  8 56  1  0
 12 57  1  0
 14 58  1  0
 15 59  1  0
 17 60  1  0
 17 61  1  0
 17 62  1  0
 19 63  1  0
 23 64  1  0
 24 65  1  0
 25 66  1  0
 26 67  1  0
 30 68  1  0
 32 69  1  0
 32 70  1  0
 34 71  1  0
 36 72  1  0
 37 73  1  0
 43 74  1  0
 44 75  1  0
 44 76  1  0
 45 77  1  0
 45 78  1  0
M  CHG  1   3   1
M  END
$$$$
