
     RDKit          3D

 37 39  0  0  0  0  0  0  0  0999 V2000
   -2.0841   -3.1467   -0.0267 C   0  0  0  0  0  0  0  0  0  0  0  0
   -0.9127   -2.4967   -0.7618 C   0  0  0  0  0  0  0  0  0  0  0  0
   -0.6418   -1.1414   -0.2560 N   0  0  0  0  0  0  0  0  0  0  0  0
    0.7156   -0.7881   -0.2250 C   0  0  0  0  0  0  0  0  0  0  0  0
    1.5726   -1.4449   -1.0595 N   0  0  0  0  0  0  0  0  0  0  0  0
    2.8745   -1.0791   -1.0946 C   0  0  0  0  0  0  0  0  0  0  0  0
    3.4170   -0.0720   -0.3193 C   0  0  0  0  0  0  0  0  0  0  0  0
    4.8776    0.2505   -0.3708 C   0  0  0  0  0  0  0  0  0  0  0  0
    5.0616    1.6589   -0.3593 O   0  0  0  0  0  0  0  0  0  0  0  0
    2.5459    0.5674    0.5609 C   0  0  0  0  0  0  0  0  0  0  0  0
    1.1834    0.2186    0.6065 C   0  0  0  0  0  0  0  0  0  0  0  0
    0.3643    0.8445    1.6574 C   0  0  0  0  0  0  0  0  0  0  0  0
    0.9444    1.0622    2.7271 O   0  0  0  0  0  0  0  0  0  0  0  0
   -0.9473    1.2710    1.4309 N   0  0  0  0  0  0  0  0  0  0  0  0
   -1.5443    2.0875    2.4877 C   0  0  0  0  0  0  0  0  0  0  0  0
   -1.7462    0.9964    0.2710 C   0  0  0  0  0  0  0  0  0  0  0  0
   -2.7750    1.8968   -0.0735 C   0  0  0  0  0  0  0  0  0  0  0  0
   -3.6385    1.6378   -1.1306 C   0  0  0  0  0  0  0  0  0  0  0  0
   -3.4664    0.4629   -1.8200 C   0  0  0  0  0  0  0  0  0  0  0  0
   -2.5044   -0.4311   -1.5250 N   0  0  0  0  0  0  0  0  0  0  0  0
   -1.6346   -0.1764   -0.5036 C   0  0  0  0  0  0  0  0  0  0  0  0
   -2.2003   -4.1854   -0.3525 H   0  0  0  0  0  0  0  0  0  0  0  0
   -3.0318   -2.6342   -0.2142 H   0  0  0  0  0  0  0  0  0  0  0  0
   -1.9118   -3.1467    1.0550 H   0  0  0  0  0  0  0  0  0  0  0  0
   -1.0766   -2.5009   -1.8470 H   0  0  0  0  0  0  0  0  0  0  0  0
   -0.0577   -3.1608   -0.5752 H   0  0  0  0  0  0  0  0  0  0  0  0
    3.4814   -1.6489   -1.7935 H   0  0  0  0  0  0  0  0  0  0  0  0
    5.3365   -0.1414   -1.2844 H   0  0  0  0  0  0  0  0  0  0  0  0
    5.3846   -0.1847    0.4966 H   0  0  0  0  0  0  0  0  0  0  0  0
    6.0201    1.8183   -0.3489 H   0  0  0  0  0  0  0  0  0  0  0  0
    2.9281    1.3398    1.2273 H   0  0  0  0  0  0  0  0  0  0  0  0
   -1.4479    3.1440    2.2176 H   0  0  0  0  0  0  0  0  0  0  0  0
   -1.0456    1.9409    3.4504 H   0  0  0  0  0  0  0  0  0  0  0  0
   -2.5969    1.8205    2.6288 H   0  0  0  0  0  0  0  0  0  0  0  0
   -2.9110    2.8309    0.4636 H   0  0  0  0  0  0  0  0  0  0  0  0
   -4.4230    2.3349   -1.4012 H   0  0  0  0  0  0  0  0  0  0  0  0
   -4.1098    0.1957   -2.6528 H   0  0  0  0  0  0  0  0  0  0  0  0
  1  2  1  0
  2  3  1  0
  3  4  1  0
  4  5  2  0
  5  6  1  0
  6  7  2  0
  7  8  1  0
  8  9  1  0
  7 10  1  0
 10 11  2  0
 11 12  1  0
 12 13  2  0
 12 14  1  0
 14 15  1  0
 14 16  1  0
 16 17  2  0
 17 18  1  0
 18 19  2  0
 19 20  1  0
 20 21  2  0
 21  3  1  0
 11  4  1  0
 21 16  1  0
  1 22  1  0
  1 23  1  0
  1 24  1  0
  2 25  1  0
  2 26  1  0
  6 27  1  0
  8 28  1  0
  8 29  1  0
  9 30  1  0
 10 31  1  0
 15 32  1  0
 15 33  1  0
 15 34  1  0
 17 35  1  0
 18 36  1  0
 19 37  1  0
M  END
$$$$
