
     RDKit          3D

 56 60  0  0  0  0  0  0  0  0999 V2000
   -0.7090   -1.1509   -1.1372 O   0  0  0  0  0  0  0  0  0  0  0  0
   -1.1875   -0.4670   -0.2517 C   0  0  0  0  0  0  0  0  0  0  0  0
   -2.6442   -0.3293   -0.0011 C   0  0  0  0  0  0  0  0  0  0  0  0
   -3.1764    0.6874    0.7992 C   0  0  0  0  0  0  0  0  0  0  0  0
   -4.5609    0.7599    0.9988 C   0  0  0  0  0  0  0  0  0  0  0  0
   -5.4362   -0.1650    0.4063 C   0  0  0  0  0  0  0  0  0  0  0  0
   -6.8896   -0.0764    0.6194 C   0  0  0  0  0  0  0  0  0  0  0  0
   -7.7780   -0.0182   -0.4678 C   0  0  0  0  0  0  0  0  0  0  0  0
   -9.1582    0.0678   -0.2663 C   0  0  0  0  0  0  0  0  0  0  0  0
   -9.6738    0.0959    1.0264 C   0  0  0  0  0  0  0  0  0  0  0  0
   -8.8116    0.0382    2.1177 C   0  0  0  0  0  0  0  0  0  0  0  0
   -7.4313   -0.0467    1.9158 C   0  0  0  0  0  0  0  0  0  0  0  0
   -4.8838   -1.1699   -0.4016 C   0  0  0  0  0  0  0  0  0  0  0  0
   -3.5034   -1.2532   -0.6079 C   0  0  0  0  0  0  0  0  0  0  0  0
   -0.1546    0.2148    0.5551 N   0  0  0  0  0  0  0  0  0  0  0  0
    0.5158    1.3223   -0.2302 C   0  0  0  0  0  0  0  0  0  0  0  0
    1.5786    0.7946   -1.2334 C   0  0  0  0  0  0  0  0  0  0  0  0
    2.5531   -0.1929   -0.6157 N   0  0  0  0  0  0  0  0  0  0  0  0
    3.5834    0.4924    0.1919 C   0  0  0  0  0  0  0  0  0  0  0  0
    3.1013    1.1578    1.0893 O   0  0  0  0  0  0  0  0  0  0  0  0
    5.0394    0.3855   -0.0796 C   0  0  0  0  0  0  0  0  0  0  0  0
    5.8690    1.3578    0.4925 C   0  0  0  0  0  0  0  0  0  0  0  0
    7.2502    1.3352    0.2759 C   0  0  0  0  0  0  0  0  0  0  0  0
    7.8062    0.3180   -0.5192 C   0  0  0  0  0  0  0  0  0  0  0  0
    9.1308    0.0092   -0.9267 C   0  0  0  0  0  0  0  0  0  0  0  0
    9.0752   -1.1250   -1.7009 C   0  0  0  0  0  0  0  0  0  0  0  0
    7.7677   -1.5210   -1.7787 N   0  0  0  0  0  0  0  0  0  0  0  0
    6.9638   -0.6502   -1.0692 C   0  0  0  0  0  0  0  0  0  0  0  0
    5.5733   -0.6502   -0.8685 C   0  0  0  0  0  0  0  0  0  0  0  0
    1.8840   -1.3002    0.1705 C   0  0  0  0  0  0  0  0  0  0  0  0
    0.8193   -0.7740    1.1726 C   0  0  0  0  0  0  0  0  0  0  0  0
   -2.5751    1.4596    1.2672 H   0  0  0  0  0  0  0  0  0  0  0  0
   -4.9719    1.5644    1.6118 H   0  0  0  0  0  0  0  0  0  0  0  0
   -7.4047   -0.0288   -1.4897 H   0  0  0  0  0  0  0  0  0  0  0  0
   -9.8325    0.1142   -1.1185 H   0  0  0  0  0  0  0  0  0  0  0  0
  -10.7482    0.1613    1.1831 H   0  0  0  0  0  0  0  0  0  0  0  0
   -9.2162    0.0555    3.1272 H   0  0  0  0  0  0  0  0  0  0  0  0
   -6.7844   -0.1034    2.7883 H   0  0  0  0  0  0  0  0  0  0  0  0
   -5.5375   -1.9063   -0.8717 H   0  0  0  0  0  0  0  0  0  0  0  0
   -3.1243   -2.0519   -1.2450 H   0  0  0  0  0  0  0  0  0  0  0  0
   -0.6512    0.6437    1.3439 H   0  0  0  0  0  0  0  0  0  0  0  0
    0.9554    1.9990    0.5079 H   0  0  0  0  0  0  0  0  0  0  0  0
   -0.2685    1.8799   -0.7547 H   0  0  0  0  0  0  0  0  0  0  0  0
    2.1643    1.6200   -1.6536 H   0  0  0  0  0  0  0  0  0  0  0  0
    1.1035    0.2692   -2.0678 H   0  0  0  0  0  0  0  0  0  0  0  0
    3.0536   -0.6195   -1.4032 H   0  0  0  0  0  0  0  0  0  0  0  0
    5.4644    2.1547    1.1166 H   0  0  0  0  0  0  0  0  0  0  0  0
    7.8929    2.0937    0.7195 H   0  0  0  0  0  0  0  0  0  0  0  0
   10.0329    0.5557   -0.6780 H   0  0  0  0  0  0  0  0  0  0  0  0
    9.8580   -1.6844   -2.1987 H   0  0  0  0  0  0  0  0  0  0  0  0
    7.4532   -2.3366   -2.2879 H   0  0  0  0  0  0  0  0  0  0  0  0
    4.9839   -1.4488   -1.3005 H   0  0  0  0  0  0  0  0  0  0  0  0
    2.6688   -1.8563    0.6959 H   0  0  0  0  0  0  0  0  0  0  0  0
    1.4460   -1.9781   -0.5674 H   0  0  0  0  0  0  0  0  0  0  0  0
    1.2921   -0.2507    2.0096 H   0  0  0  0  0  0  0  0  0  0  0  0
    0.2327   -1.6002    1.5900 H   0  0  0  0  0  0  0  0  0  0  0  0
  1  2  2  0
  2  3  1  0
  3  4  2  0
  4  5  1  0
  5  6  2  0
  6  7  1  0
  7  8  2  0
  8  9  1  0
  9 10  2  0
 10 11  1  0
 11 12  2  0
  6 13  1  0
 13 14  2  0
  2 15  1  0
 15 16  1  0
 16 17  1  0
 17 18  1  0
 18 19  1  0
 19 20  2  0
 19 21  1  0
 21 22  2  0
 22 23  1  0
 23 24  2  0
 24 25  1  0
 25 26  2  0
 26 27  1  0
 27 28  1  0
 28 29  2  0
 18 30  1  0
 30 31  1  0
 14  3  1  0
 31 15  1  0
 12  7  1  0
 29 21  1  0
 28 24  1  0
  4 32  1  0
  5 33  1  0
  8 34  1  0
  9 35  1  0
 10 36  1  0
 11 37  1  0
 12 38  1  0
 13 39  1  0
 14 40  1  0
 15 41  1  0
 16 42  1  0
 16 43  1  0
 17 44  1  0
 17 45  1  0
 18 46  1  0
 22 47  1  0
 23 48  1  0
 25 49  1  0
 26 50  1  0
 27 51  1  0
 29 52  1  0
 30 53  1  0
 30 54  1  0
 31 55  1  0
 31 56  1  0
M  CHG  2  15   1  18   1
M  END
$$$$
