
     RDKit          3D

 67 70  0  0  0  0  0  0  0  0999 V2000
    7.3849   -1.2773   -0.0481 C   0  0  0  0  0  0  0  0  0  0  0  0
    6.5348   -0.2391   -0.7165 N   0  0  0  0  0  0  0  0  0  0  0  0
    6.7568   -0.2123   -2.1995 C   0  0  0  0  0  0  0  0  0  0  0  0
    6.6518    1.1202   -0.0563 C   0  0  0  0  0  0  0  0  0  0  0  0
    5.3762    1.9737   -0.2315 C   0  0  0  0  0  0  0  0  0  0  0  0
    4.2481    1.5710    0.6022 N   0  0  0  0  0  0  0  0  0  0  0  0
    3.5862    0.3887    0.4644 C   0  0  0  0  0  0  0  0  0  0  0  0
    3.9666   -0.4895   -0.3026 O   0  0  0  0  0  0  0  0  0  0  0  0
    2.5054    0.2797    1.2837 N   0  0  0  0  0  0  0  0  0  0  0  0
    1.6845   -0.9217    1.3350 C   0  0  0  0  0  0  0  0  0  0  0  0
    0.5718   -0.9077    0.2716 C   0  0  1  0  0  0  0  0  0  0  0  0
   -0.1224   -2.2712    0.1811 C   0  0  0  0  0  0  0  0  0  0  0  0
   -1.3184   -2.2264   -0.7760 C   0  0  0  0  0  0  0  0  0  0  0  0
   -2.2412   -1.0179   -0.5167 C   0  0  2  0  0  0  0  0  0  0  0  0
   -1.3842    0.2442   -0.4036 C   0  0  2  0  0  0  0  0  0  0  0  0
   -0.4124    0.0865    0.6350 O   0  0  0  0  0  0  0  0  0  0  0  0
   -2.2631    1.4140   -0.0716 C   0  0  0  0  0  0  0  0  0  0  0  0
   -2.1008    2.6630   -0.6847 C   0  0  0  0  0  0  0  0  0  0  0  0
   -2.9648    3.7292   -0.3775 C   0  0  0  0  0  0  0  0  0  0  0  0
   -2.7900    5.0725   -1.0627 C   0  0  0  0  0  0  0  0  0  0  0  0
   -1.4781    5.4005   -1.2141 F   0  0  0  0  0  0  0  0  0  0  0  0
   -3.3321    5.0787   -2.3073 F   0  0  0  0  0  0  0  0  0  0  0  0
   -3.3635    6.0968   -0.3804 F   0  0  0  0  0  0  0  0  0  0  0  0
   -4.0031    3.5196    0.5452 C   0  0  0  0  0  0  0  0  0  0  0  0
   -4.1610    2.2800    1.1714 C   0  0  0  0  0  0  0  0  0  0  0  0
   -3.2880    1.2428    0.8557 C   0  0  0  0  0  0  0  0  0  0  0  0
   -3.3658   -0.0157    1.5646 N   0  0  0  0  0  0  0  0  0  0  0  0
   -3.1376   -1.2451    0.7345 C   0  0  1  0  0  0  0  0  0  0  0  0
   -4.4613   -1.9129    0.4028 C   0  0  0  0  0  0  0  0  0  0  0  0
   -4.7708   -3.1672    0.9554 C   0  0  0  0  0  0  0  0  0  0  0  0
   -5.9950   -3.7803    0.6843 C   0  0  0  0  0  0  0  0  0  0  0  0
   -6.9253   -3.1505   -0.1375 C   0  0  0  0  0  0  0  0  0  0  0  0
   -6.6347   -1.9073   -0.6920 C   0  0  0  0  0  0  0  0  0  0  0  0
   -5.4123   -1.2893   -0.4242 C   0  0  0  0  0  0  0  0  0  0  0  0
    7.2025   -2.2374   -0.5382 H   0  0  0  0  0  0  0  0  0  0  0  0
    8.4331   -0.9814   -0.1421 H   0  0  0  0  0  0  0  0  0  0  0  0
    7.0863   -1.3381    1.0019 H   0  0  0  0  0  0  0  0  0  0  0  0
    5.5477   -0.5476   -0.5835 H   0  0  0  0  0  0  0  0  0  0  0  0
    6.5685   -1.2160   -2.5901 H   0  0  0  0  0  0  0  0  0  0  0  0
    6.0520    0.4924   -2.6456 H   0  0  0  0  0  0  0  0  0  0  0  0
    7.7888    0.0931   -2.3920 H   0  0  0  0  0  0  0  0  0  0  0  0
    6.8385    0.9548    1.0107 H   0  0  0  0  0  0  0  0  0  0  0  0
    7.5230    1.6169   -0.4966 H   0  0  0  0  0  0  0  0  0  0  0  0
    5.6050    3.0071    0.0508 H   0  0  0  0  0  0  0  0  0  0  0  0
    5.0391    1.9793   -1.2726 H   0  0  0  0  0  0  0  0  0  0  0  0
    3.8701    2.2552    1.2449 H   0  0  0  0  0  0  0  0  0  0  0  0
    2.2134    1.0717    1.8382 H   0  0  0  0  0  0  0  0  0  0  0  0
    1.2536   -0.9588    2.3414 H   0  0  0  0  0  0  0  0  0  0  0  0
    2.3356   -1.7920    1.1973 H   0  0  0  0  0  0  0  0  0  0  0  0
    1.0050   -0.6395   -0.7010 H   0  0  0  0  0  0  0  0  0  0  0  0
    0.5865   -3.0385   -0.1504 H   0  0  0  0  0  0  0  0  0  0  0  0
   -0.4751   -2.5694    1.1756 H   0  0  0  0  0  0  0  0  0  0  0  0
   -0.9333   -2.1539   -1.8017 H   0  0  0  0  0  0  0  0  0  0  0  0
   -1.8792   -3.1663   -0.7213 H   0  0  0  0  0  0  0  0  0  0  0  0
   -2.8831   -0.9074   -1.4018 H   0  0  0  0  0  0  0  0  0  0  0  0
   -0.8717    0.4373   -1.3558 H   0  0  0  0  0  0  0  0  0  0  0  0
   -1.3023    2.8184   -1.4124 H   0  0  0  0  0  0  0  0  0  0  0  0
   -4.6881    4.3349    0.7877 H   0  0  0  0  0  0  0  0  0  0  0  0
   -4.9598    2.1607    1.8997 H   0  0  0  0  0  0  0  0  0  0  0  0
   -2.6522    0.0264    2.3047 H   0  0  0  0  0  0  0  0  0  0  0  0
   -4.2745   -0.0973    2.0403 H   0  0  0  0  0  0  0  0  0  0  0  0
   -2.6080   -1.9059    1.4309 H   0  0  0  0  0  0  0  0  0  0  0  0
   -4.0690   -3.6945    1.6000 H   0  0  0  0  0  0  0  0  0  0  0  0
   -6.2275   -4.7550    1.1105 H   0  0  0  0  0  0  0  0  0  0  0  0
   -7.8778   -3.6330   -0.3507 H   0  0  0  0  0  0  0  0  0  0  0  0
   -7.3653   -1.4247   -1.3394 H   0  0  0  0  0  0  0  0  0  0  0  0
   -5.2229   -0.3213   -0.8838 H   0  0  0  0  0  0  0  0  0  0  0  0
  1  2  1  0
  2  3  1  0
  2  4  1  0
  4  5  1  0
  5  6  1  0
  6  7  1  0
  7  8  2  0
  7  9  1  0
  9 10  1  0
 10 11  1  0
 11 12  1  0
 12 13  1  0
 13 14  1  0
 14 15  1  0
 15 16  1  0
 15 17  1  0
 17 18  2  0
 18 19  1  0
 19 20  1  0
 20 21  1  0
 20 22  1  0
 20 23  1  0
 19 24  2  0
 24 25  1  0
 25 26  2  0
 26 27  1  0
 27 28  1  0
 28 29  1  0
 29 30  2  0
 30 31  1  0
 31 32  2  0
 32 33  1  0
 33 34  2  0
 16 11  1  0
 26 17  1  0
 34 29  1  0
 28 14  1  0
  1 35  1  0
  1 36  1  0
  1 37  1  0
  2 38  1  0
  3 39  1  0
  3 40  1  0
  3 41  1  0
  4 42  1  0
  4 43  1  0
  5 44  1  0
  5 45  1  0
  6 46  1  0
  9 47  1  0
 10 48  1  0
 10 49  1  0
 11 50  1  6
 12 51  1  0
 12 52  1  0
 13 53  1  0
 13 54  1  0
 14 55  1  6
 15 56  1  6
 18 57  1  0
 24 58  1  0
 25 59  1  0
 27 60  1  0
 27 61  1  0
 28 62  1  1
 30 63  1  0
 31 64  1  0
 32 65  1  0
 33 66  1  0
 34 67  1  0
M  CHG  2   2   1  27   1
M  END
$$$$
