
     RDKit          3D

 70 74  0  0  0  0  0  0  0  0999 V2000
    6.6984   -4.0832   -0.4304 C   0  0  0  0  0  0  0  0  0  0  0  0
    5.7486   -3.8558    0.5614 C   0  0  0  0  0  0  0  0  0  0  0  0
    4.9191   -2.7329    0.4970 C   0  0  0  0  0  0  0  0  0  0  0  0
    5.0235   -1.8231   -0.5676 C   0  0  0  0  0  0  0  0  0  0  0  0
    4.1522   -0.5800   -0.6886 C   0  0  0  0  0  0  0  0  0  0  0  0
    2.7158   -0.7673   -0.1332 C   0  0  0  0  0  0  0  0  0  0  0  0
    1.8071    0.4021   -0.5156 C   0  0  0  0  0  0  0  0  0  0  0  0
    0.4132    0.2377    0.1137 N   0  0  0  0  0  0  0  0  0  0  0  0
   -0.3276    1.5769    0.1053 C   0  0  0  0  0  0  0  0  0  0  0  0
   -1.7343    1.4577    0.7388 C   0  0  0  0  0  0  0  0  0  0  0  0
   -2.5617    0.3553    0.0723 N   0  0  0  0  0  0  0  0  0  0  0  0
   -3.9769    0.2331    0.7128 C   0  0  0  0  0  0  0  0  0  0  0  0
   -4.8066   -0.8896    0.1058 C   0  0  0  0  0  0  0  0  0  0  0  0
   -5.3350   -1.8854    0.9488 C   0  0  0  0  0  0  0  0  0  0  0  0
   -6.0779   -2.9445    0.4254 C   0  0  0  0  0  0  0  0  0  0  0  0
   -6.3113   -3.0234   -0.9438 C   0  0  0  0  0  0  0  0  0  0  0  0
   -5.8102   -2.0406   -1.7921 C   0  0  0  0  0  0  0  0  0  0  0  0
   -5.0649   -0.9788   -1.2745 C   0  0  0  0  0  0  0  0  0  0  0  0
   -4.7212    1.5600    0.7620 C   0  0  0  0  0  0  0  0  0  0  0  0
   -4.9481    2.3437   -0.3844 C   0  0  0  0  0  0  0  0  0  0  0  0
   -5.6140    3.5678   -0.2895 C   0  0  0  0  0  0  0  0  0  0  0  0
   -6.0661    4.0252    0.9446 C   0  0  0  0  0  0  0  0  0  0  0  0
   -5.8632    3.2575    2.0869 C   0  0  0  0  0  0  0  0  0  0  0  0
   -5.1996    2.0329    1.9985 C   0  0  0  0  0  0  0  0  0  0  0  0
   -1.8200   -0.9839    0.0824 C   0  0  0  0  0  0  0  0  0  0  0  0
   -0.4097   -0.8656   -0.5473 C   0  0  0  0  0  0  0  0  0  0  0  0
    4.8110    0.6603   -0.1016 C   0  0  0  0  0  0  0  0  0  0  0  0
    5.0794    0.7722    1.2724 C   0  0  0  0  0  0  0  0  0  0  0  0
    5.6550    1.9329    1.7921 C   0  0  0  0  0  0  0  0  0  0  0  0
    5.9736    2.9935    0.9480 C   0  0  0  0  0  0  0  0  0  0  0  0
    5.7283    2.8918   -0.4188 C   0  0  0  0  0  0  0  0  0  0  0  0
    5.1542    1.7323   -0.9426 C   0  0  0  0  0  0  0  0  0  0  0  0
    6.0003   -2.0620   -1.5510 C   0  0  0  0  0  0  0  0  0  0  0  0
    6.8272   -3.1847   -1.4846 C   0  0  0  0  0  0  0  0  0  0  0  0
    7.3498   -4.9528   -0.3747 H   0  0  0  0  0  0  0  0  0  0  0  0
    5.6669   -4.5517    1.3936 H   0  0  0  0  0  0  0  0  0  0  0  0
    4.2117   -2.5847    1.3064 H   0  0  0  0  0  0  0  0  0  0  0  0
    4.0196   -0.4144   -1.7687 H   0  0  0  0  0  0  0  0  0  0  0  0
    2.7249   -0.8739    0.9586 H   0  0  0  0  0  0  0  0  0  0  0  0
    2.3057   -1.7000   -0.5378 H   0  0  0  0  0  0  0  0  0  0  0  0
    1.6680    0.4871   -1.5986 H   0  0  0  0  0  0  0  0  0  0  0  0
    2.2004    1.3458   -0.1263 H   0  0  0  0  0  0  0  0  0  0  0  0
    0.5921   -0.0178    1.0982 H   0  0  0  0  0  0  0  0  0  0  0  0
   -0.3973    1.8964   -0.9404 H   0  0  0  0  0  0  0  0  0  0  0  0
    0.2818    2.2885    0.6715 H   0  0  0  0  0  0  0  0  0  0  0  0
   -2.2606    2.4071    0.6160 H   0  0  0  0  0  0  0  0  0  0  0  0
   -1.6606    1.2052    1.8022 H   0  0  0  0  0  0  0  0  0  0  0  0
   -2.7555    0.6234   -0.9002 H   0  0  0  0  0  0  0  0  0  0  0  0
   -3.7410   -0.0524    1.7476 H   0  0  0  0  0  0  0  0  0  0  0  0
   -5.1956   -1.8495    2.0288 H   0  0  0  0  0  0  0  0  0  0  0  0
   -6.4945   -3.7038    1.0861 H   0  0  0  0  0  0  0  0  0  0  0  0
   -6.9057   -3.8418   -1.3478 H   0  0  0  0  0  0  0  0  0  0  0  0
   -6.0234   -2.0976   -2.8588 H   0  0  0  0  0  0  0  0  0  0  0  0
   -4.7192   -0.2268   -1.9775 H   0  0  0  0  0  0  0  0  0  0  0  0
   -4.6388    2.0232   -1.3747 H   0  0  0  0  0  0  0  0  0  0  0  0
   -5.8037    4.1640   -1.1813 H   0  0  0  0  0  0  0  0  0  0  0  0
   -6.5991    4.9725    1.0137 H   0  0  0  0  0  0  0  0  0  0  0  0
   -6.2419    3.6102    3.0455 H   0  0  0  0  0  0  0  0  0  0  0  0
   -5.0824    1.4532    2.9135 H   0  0  0  0  0  0  0  0  0  0  0  0
   -2.4046   -1.7069   -0.4913 H   0  0  0  0  0  0  0  0  0  0  0  0
   -1.7509   -1.3042    1.1278 H   0  0  0  0  0  0  0  0  0  0  0  0
   -0.4802   -0.6195   -1.6123 H   0  0  0  0  0  0  0  0  0  0  0  0
    0.1295   -1.8071   -0.4180 H   0  0  0  0  0  0  0  0  0  0  0  0
    4.8792   -0.0526    1.9524 H   0  0  0  0  0  0  0  0  0  0  0  0
    5.8852    2.0016    2.8536 H   0  0  0  0  0  0  0  0  0  0  0  0
    6.4446    3.8878    1.3513 H   0  0  0  0  0  0  0  0  0  0  0  0
    6.0118    3.7090   -1.0793 H   0  0  0  0  0  0  0  0  0  0  0  0
    5.0044    1.6713   -2.0189 H   0  0  0  0  0  0  0  0  0  0  0  0
    6.1391   -1.3680   -2.3782 H   0  0  0  0  0  0  0  0  0  0  0  0
    7.5817   -3.3531   -2.2501 H   0  0  0  0  0  0  0  0  0  0  0  0
  1  2  2  0
  2  3  1  0
  3  4  2  0
  4  5  1  0
  5  6  1  0
  6  7  1  0
  7  8  1  0
  8  9  1  0
  9 10  1  0
 10 11  1  0
 11 12  1  0
 12 13  1  0
 13 14  2  0
 14 15  1  0
 15 16  2  0
 16 17  1  0
 17 18  2  0
 12 19  1  0
 19 20  2  0
 20 21  1  0
 21 22  2  0
 22 23  1  0
 23 24  2  0
 11 25  1  0
 25 26  1  0
  5 27  1  0
 27 28  2  0
 28 29  1  0
 29 30  2  0
 30 31  1  0
 31 32  2  0
  4 33  1  0
 33 34  2  0
 34  1  1  0
 26  8  1  0
 32 27  1  0
 18 13  1  0
 24 19  1  0
  1 35  1  0
  2 36  1  0
  3 37  1  0
  5 38  1  0
  6 39  1  0
  6 40  1  0
  7 41  1  0
  7 42  1  0
  8 43  1  0
  9 44  1  0
  9 45  1  0
 10 46  1  0
 10 47  1  0
 11 48  1  0
 12 49  1  0
 14 50  1  0
 15 51  1  0
 16 52  1  0
 17 53  1  0
 18 54  1  0
 20 55  1  0
 21 56  1  0
 22 57  1  0
 23 58  1  0
 24 59  1  0
 25 60  1  0
 25 61  1  0
 26 62  1  0
 26 63  1  0
 28 64  1  0
 29 65  1  0
 30 66  1  0
 31 67  1  0
 32 68  1  0
 33 69  1  0
 34 70  1  0
M  CHG  2   8   1  11   1
M  END
$$$$
