
     RDKit          3D

 62 66  0  0  0  0  0  0  0  0999 V2000
   -4.9807   -3.0082    0.6087 C   0  0  0  0  0  0  0  0  0  0  0  0
   -5.1232   -1.4829    0.7486 C   0  0  0  0  0  0  0  0  0  0  0  0
   -6.6175   -1.1381    0.8827 C   0  0  0  0  0  0  0  0  0  0  0  0
   -4.5716   -0.7556   -0.4815 C   0  0  0  0  0  0  0  0  0  0  0  0
   -3.0505   -0.7876   -0.5239 C   0  0  0  0  0  0  0  0  0  0  0  0
   -2.4468   -0.2448    0.7821 C   0  0  2  0  0  0  0  0  0  0  0  0
   -2.6577    1.2966    0.9256 C   0  0  0  0  0  0  0  0  0  0  0  0
   -1.3238    1.9791    0.5707 C   0  0  0  0  0  0  0  0  0  0  0  0
   -0.4462    0.8548    0.0369 C   0  0  1  0  0  0  0  0  0  0  0  0
    1.0720    1.0606    0.0236 C   0  0  2  0  0  0  0  0  0  0  0  0
    1.4839    2.2941   -0.7860 C   0  0  0  0  0  0  0  0  0  0  0  0
    2.9859    2.5282   -0.6549 C   0  0  0  0  0  0  0  0  0  0  0  0
    3.8095    1.2754   -0.8068 C   0  0  0  0  0  0  0  0  0  0  0  0
    5.1967    1.4372   -0.9866 C   0  0  0  0  0  0  0  0  0  0  0  0
    6.0351    0.3396   -1.1179 C   0  0  0  0  0  0  0  0  0  0  0  0
    7.3863    0.4171   -1.3078 O   0  0  0  0  0  0  0  0  0  0  0  0
    8.2464    1.8121   -1.4599 P   0  0  0  0  0  0  0  0  0  0  0  0
    9.6766    1.3248   -1.6714 O   0  0  0  0  0  0  0  0  0  0  0  0
    7.6509    2.5176   -2.6755 O   0  0  0  0  0  0  0  0  0  0  0  0
    8.0377    2.5554   -0.1433 O   0  0  0  0  0  0  0  0  0  0  0  0
    5.4901   -0.9388   -1.0622 C   0  0  0  0  0  0  0  0  0  0  0  0
    4.1153   -1.1193   -0.8772 C   0  0  0  0  0  0  0  0  0  0  0  0
    3.2526   -0.0195   -0.7282 C   0  0  0  0  0  0  0  0  0  0  0  0
    1.7471   -0.2009   -0.5938 C   0  0  1  0  0  0  0  0  0  0  0  0
    1.3008   -1.4882    0.1459 C   0  0  0  0  0  0  0  0  0  0  0  0
   -0.2312   -1.6170    0.2534 C   0  0  0  0  0  0  0  0  0  0  0  0
   -0.8815   -0.3676    0.8745 C   0  0  2  0  0  0  0  0  0  0  0  0
   -0.4401   -0.2833    2.3671 C   0  0  0  0  0  0  0  0  0  0  0  0
   -3.0506   -0.9129    1.9139 O   0  0  0  0  0  0  0  0  0  0  0  0
   -4.3903   -1.0762    2.0225 C   0  0  0  0  0  0  0  0  0  0  0  0
   -4.9411   -1.0359    3.1190 O   0  0  0  0  0  0  0  0  0  0  0  0
   -5.4414   -3.5257    1.4587 H   0  0  0  0  0  0  0  0  0  0  0  0
   -5.4649   -3.3704   -0.3048 H   0  0  0  0  0  0  0  0  0  0  0  0
   -3.9314   -3.3211    0.5832 H   0  0  0  0  0  0  0  0  0  0  0  0
   -6.7607   -0.0669    1.0669 H   0  0  0  0  0  0  0  0  0  0  0  0
   -7.1683   -1.4021   -0.0271 H   0  0  0  0  0  0  0  0  0  0  0  0
   -7.0815   -1.6745    1.7186 H   0  0  0  0  0  0  0  0  0  0  0  0
   -4.9671   -1.2069   -1.4005 H   0  0  0  0  0  0  0  0  0  0  0  0
   -4.9159    0.2852   -0.4890 H   0  0  0  0  0  0  0  0  0  0  0  0
   -2.7504   -1.8295   -0.6754 H   0  0  0  0  0  0  0  0  0  0  0  0
   -2.7032   -0.2250   -1.3967 H   0  0  0  0  0  0  0  0  0  0  0  0
   -3.4432    1.6736    0.2642 H   0  0  0  0  0  0  0  0  0  0  0  0
   -2.9547    1.5695    1.9453 H   0  0  0  0  0  0  0  0  0  0  0  0
   -1.4713    2.7684   -0.1737 H   0  0  0  0  0  0  0  0  0  0  0  0
   -0.8858    2.4448    1.4606 H   0  0  0  0  0  0  0  0  0  0  0  0
   -0.7445    0.6963   -1.0104 H   0  0  0  0  0  0  0  0  0  0  0  0
    1.4333    1.2071    1.0493 H   0  0  0  0  0  0  0  0  0  0  0  0
    1.2192    2.1550   -1.8423 H   0  0  0  0  0  0  0  0  0  0  0  0
    0.9565    3.1903   -0.4410 H   0  0  0  0  0  0  0  0  0  0  0  0
    3.2908    3.2700   -1.4030 H   0  0  0  0  0  0  0  0  0  0  0  0
    3.1967    2.9527    0.3351 H   0  0  0  0  0  0  0  0  0  0  0  0
    5.6349    2.4344   -1.0318 H   0  0  0  0  0  0  0  0  0  0  0  0
    6.1525   -1.7912   -1.1749 H   0  0  0  0  0  0  0  0  0  0  0  0
    3.7453   -2.1377   -0.8659 H   0  0  0  0  0  0  0  0  0  0  0  0
    1.3821   -0.2979   -1.6283 H   0  0  0  0  0  0  0  0  0  0  0  0
    1.7596   -1.5294    1.1406 H   0  0  0  0  0  0  0  0  0  0  0  0
    1.6581   -2.3758   -0.3890 H   0  0  0  0  0  0  0  0  0  0  0  0
   -0.6047   -1.7827   -0.7635 H   0  0  0  0  0  0  0  0  0  0  0  0
   -0.4885   -2.5127    0.8311 H   0  0  0  0  0  0  0  0  0  0  0  0
   -0.7288   -1.1939    2.9054 H   0  0  0  0  0  0  0  0  0  0  0  0
    0.6408   -0.1800    2.4892 H   0  0  0  0  0  0  0  0  0  0  0  0
   -0.8975    0.5605    2.8933 H   0  0  0  0  0  0  0  0  0  0  0  0
  1  2  1  0
  2  3  1  0
  2  4  1  0
  4  5  1  0
  5  6  1  0
  6  7  1  0
  7  8  1  0
  8  9  1  0
  9 10  1  0
 10 11  1  0
 11 12  1  0
 12 13  1  0
 13 14  2  0
 14 15  1  0
 15 16  1  0
 16 17  1  0
 17 18  2  0
 17 19  1  0
 17 20  1  0
 15 21  2  0
 21 22  1  0
 22 23  2  0
 23 24  1  0
 24 25  1  0
 25 26  1  0
 26 27  1  0
 27 28  1  1
  6 29  1  1
 29 30  1  0
 30 31  2  0
 30  2  1  0
 27  6  1  0
 27  9  1  0
 24 10  1  0
 23 13  1  0
  1 32  1  0
  1 33  1  0
  1 34  1  0
  3 35  1  0
  3 36  1  0
  3 37  1  0
  4 38  1  0
  4 39  1  0
  5 40  1  0
  5 41  1  0
  7 42  1  0
  7 43  1  0
  8 44  1  0
  8 45  1  0
  9 46  1  6
 10 47  1  1
 11 48  1  0
 11 49  1  0
 12 50  1  0
 12 51  1  0
 14 52  1  0
 21 53  1  0
 22 54  1  0
 24 55  1  6
 25 56  1  0
 25 57  1  0
 26 58  1  0
 26 59  1  0
 28 60  1  0
 28 61  1  0
 28 62  1  0
M  CHG  2  19  -1  20  -1
M  END
$$$$
