
     RDKit          3D

 61 63  0  0  0  0  0  0  0  0999 V2000
    6.8819   -0.4104   -2.2515 C   0  0  0  0  0  0  0  0  0  0  0  0
    7.1398   -0.4206   -0.7365 C   0  0  0  0  0  0  0  0  0  0  0  0
    7.9274   -1.6956   -0.3857 C   0  0  0  0  0  0  0  0  0  0  0  0
    7.9835    0.8000   -0.3376 C   0  0  0  0  0  0  0  0  0  0  0  0
    5.8757   -0.4451    0.0090 N   0  0  0  0  0  0  0  0  0  0  0  0
    4.9042    0.5042   -0.0414 C   0  0  0  0  0  0  0  0  0  0  0  0
    4.9087    1.5166   -0.7223 O   0  0  0  0  0  0  0  0  0  0  0  0
    3.8960    0.1466    0.7978 O   0  0  0  0  0  0  0  0  0  0  0  0
    2.8332    1.0933    0.8863 C   0  0  1  0  0  0  0  0  0  0  0  0
    1.9053    1.0491   -0.3298 C   0  0  0  0  0  0  0  0  0  0  0  0
    0.6177    1.6892    0.1769 C   0  0  1  0  0  0  0  0  0  0  0  0
   -0.6735    1.0970   -0.3864 C   0  0  0  0  0  0  0  0  0  0  0  0
   -1.6061    1.0843    0.8192 C   0  0  1  0  0  0  0  0  0  0  0  0
   -2.7265    0.1156    0.6439 N   0  0  0  0  0  0  0  0  0  0  0  0
   -3.7819    0.4993   -0.3852 C   0  0  0  0  0  0  0  0  0  0  0  0
   -4.8902   -0.5737   -0.5207 C   0  0  0  0  0  0  0  0  0  0  0  0
   -4.6221   -1.7656   -0.5415 O   0  0  0  0  0  0  0  0  0  0  0  0
   -6.3528   -0.2720   -0.4486 N   0  0  0  0  0  0  0  0  0  0  0  0
   -7.1675   -1.1186   -1.4223 C   0  0  0  0  0  0  0  0  0  0  0  0
   -8.1496   -1.8986   -0.5606 C   0  0  0  0  0  0  0  0  0  0  0  0
   -7.5166   -1.9503    0.8176 C   0  0  0  0  0  0  0  0  0  0  0  0
   -6.9355   -0.5585    0.9634 C   0  0  1  0  0  0  0  0  0  0  0  0
   -5.8971   -0.4183    1.9963 C   0  0  0  0  0  0  0  0  0  0  0  0
   -4.8932   -0.2199    2.5467 N   0  0  0  0  0  0  0  0  0  0  0  0
   -0.6948    0.6436    1.9610 C   0  0  0  0  0  0  0  0  0  0  0  0
    0.5891    1.4289    1.6971 C   0  0  1  0  0  0  0  0  0  0  0  0
    1.8892    0.6989    2.0242 C   0  0  0  0  0  0  0  0  0  0  0  0
    6.2507   -1.2558   -2.5486 H   0  0  0  0  0  0  0  0  0  0  0  0
    7.8206   -0.4772   -2.8130 H   0  0  0  0  0  0  0  0  0  0  0  0
    6.3741    0.5045   -2.5735 H   0  0  0  0  0  0  0  0  0  0  0  0
    8.1355   -1.7479    0.6895 H   0  0  0  0  0  0  0  0  0  0  0  0
    8.8857   -1.7336   -0.9157 H   0  0  0  0  0  0  0  0  0  0  0  0
    7.3600   -2.5954   -0.6507 H   0  0  0  0  0  0  0  0  0  0  0  0
    8.9615    0.7839   -0.8319 H   0  0  0  0  0  0  0  0  0  0  0  0
    8.1535    0.8237    0.7450 H   0  0  0  0  0  0  0  0  0  0  0  0
    7.4943    1.7406   -0.6111 H   0  0  0  0  0  0  0  0  0  0  0  0
    5.7043   -1.1989    0.6596 H   0  0  0  0  0  0  0  0  0  0  0  0
    3.2202    2.1056    1.0653 H   0  0  0  0  0  0  0  0  0  0  0  0
    2.3151    1.5924   -1.1869 H   0  0  0  0  0  0  0  0  0  0  0  0
    1.7551    0.0120   -0.6542 H   0  0  0  0  0  0  0  0  0  0  0  0
    0.6434    2.7722   -0.0003 H   0  0  0  0  0  0  0  0  0  0  0  0
   -1.0667    1.7055   -1.2072 H   0  0  0  0  0  0  0  0  0  0  0  0
   -0.5129    0.0830   -0.7721 H   0  0  0  0  0  0  0  0  0  0  0  0
   -2.0397    2.0719    1.0169 H   0  0  0  0  0  0  0  0  0  0  0  0
   -2.3392   -0.8192    0.4239 H   0  0  0  0  0  0  0  0  0  0  0  0
   -3.1769   -0.0131    1.5760 H   0  0  0  0  0  0  0  0  0  0  0  0
   -3.2831    0.6107   -1.3511 H   0  0  0  0  0  0  0  0  0  0  0  0
   -4.2174    1.4475   -0.0596 H   0  0  0  0  0  0  0  0  0  0  0  0
   -6.4983    0.7172   -0.6780 H   0  0  0  0  0  0  0  0  0  0  0  0
   -6.5029   -1.7734   -1.9939 H   0  0  0  0  0  0  0  0  0  0  0  0
   -7.6747   -0.4322   -2.1072 H   0  0  0  0  0  0  0  0  0  0  0  0
   -9.1069   -1.3651   -0.5147 H   0  0  0  0  0  0  0  0  0  0  0  0
   -8.3478   -2.8955   -0.9652 H   0  0  0  0  0  0  0  0  0  0  0  0
   -6.7411   -2.7248    0.8573 H   0  0  0  0  0  0  0  0  0  0  0  0
   -8.2504   -2.1762    1.5979 H   0  0  0  0  0  0  0  0  0  0  0  0
   -7.7280    0.1865    1.1014 H   0  0  0  0  0  0  0  0  0  0  0  0
   -0.5147   -0.4379    1.9252 H   0  0  0  0  0  0  0  0  0  0  0  0
   -1.1199    0.8778    2.9423 H   0  0  0  0  0  0  0  0  0  0  0  0
    0.5543    2.3904    2.2252 H   0  0  0  0  0  0  0  0  0  0  0  0
    1.7568   -0.3897    2.0521 H   0  0  0  0  0  0  0  0  0  0  0  0
    2.2909    0.9909    3.0002 H   0  0  0  0  0  0  0  0  0  0  0  0
  1  2  1  0
  2  3  1  0
  2  4  1  0
  2  5  1  0
  5  6  1  0
  6  7  2  0
  6  8  1  0
  8  9  1  0
  9 10  1  0
 10 11  1  0
 11 12  1  0
 12 13  1  0
 13 14  1  0
 14 15  1  0
 15 16  1  0
 16 17  2  0
 16 18  1  0
 18 19  1  0
 19 20  1  0
 20 21  1  0
 21 22  1  0
 22 23  1  0
 23 24  3  0
 13 25  1  0
 25 26  1  0
 26 27  1  0
 27  9  1  0
 26 11  1  0
 22 18  1  0
  1 28  1  0
  1 29  1  0
  1 30  1  0
  3 31  1  0
  3 32  1  0
  3 33  1  0
  4 34  1  0
  4 35  1  0
  4 36  1  0
  5 37  1  0
  9 38  1  1
 10 39  1  0
 10 40  1  0
 11 41  1  1
 12 42  1  0
 12 43  1  0
 13 44  1  1
 14 45  1  0
 14 46  1  0
 15 47  1  0
 15 48  1  0
 18 49  1  0
 19 50  1  0
 19 51  1  0
 20 52  1  0
 20 53  1  0
 21 54  1  0
 21 55  1  0
 22 56  1  1
 25 57  1  0
 25 58  1  0
 26 59  1  1
 27 60  1  0
 27 61  1  0
M  CHG  2  14   1  18   1
M  END
$$$$
