
     RDKit          3D

 57 61  0  0  0  0  0  0  0  0999 V2000
    4.1929    1.1555    3.4134 O   0  0  0  0  0  0  0  0  0  0  0  0
    4.1889    0.4899    2.3713 C   0  0  0  0  0  0  0  0  0  0  0  0
    3.0870    0.1557    1.6697 N   0  0  0  0  0  0  0  0  0  0  0  0
    1.7344    0.4384    1.9218 C   0  0  0  0  0  0  0  0  0  0  0  0
    1.2742    1.1578    3.0224 C   0  0  0  0  0  0  0  0  0  0  0  0
   -0.0942    1.3755    3.1965 C   0  0  0  0  0  0  0  0  0  0  0  0
   -1.0109    0.8665    2.2736 C   0  0  0  0  0  0  0  0  0  0  0  0
   -0.5783    0.1312    1.1607 C   0  0  0  0  0  0  0  0  0  0  0  0
   -1.5706   -0.4042    0.1900 C   0  0  0  0  0  0  0  0  0  0  0  0
   -1.3084   -1.5437   -0.4868 C   0  0  0  0  0  0  0  0  0  0  0  0
   -2.2513   -2.0141   -1.3726 N   0  0  0  0  0  0  0  0  0  0  0  0
   -2.2825   -3.1082   -2.1936 C   0  0  0  0  0  0  0  0  0  0  0  0
   -3.5011   -3.0395   -2.8360 C   0  0  0  0  0  0  0  0  0  0  0  0
   -4.2201   -1.9385   -2.4313 N   0  0  0  0  0  0  0  0  0  0  0  0
   -3.4303   -1.3490   -1.5549 C   0  0  0  0  0  0  0  0  0  0  0  0
   -3.6779   -0.1337   -0.8014 C   0  0  0  0  0  0  0  0  0  0  0  0
   -4.8533    0.5579   -0.9650 N   0  0  0  0  0  0  0  0  0  0  0  0
   -5.1564    1.7908   -0.2944 C   0  0  0  0  0  0  0  0  0  0  0  0
   -6.5258    2.2653   -0.7073 C   0  0  0  0  0  0  0  0  0  0  0  0
   -6.6874    3.1145   -1.8058 C   0  0  0  0  0  0  0  0  0  0  0  0
   -7.9693    3.5027   -2.1618 C   0  0  0  0  0  0  0  0  0  0  0  0
   -9.0842    3.1036   -1.5125 N   0  0  0  0  0  0  0  0  0  0  0  0
   -8.9074    2.2712   -0.4641 C   0  0  0  0  0  0  0  0  0  0  0  0
   -7.6681    1.8272   -0.0309 C   0  0  0  0  0  0  0  0  0  0  0  0
   -2.7674    0.2983    0.0411 N   0  0  0  0  0  0  0  0  0  0  0  0
    0.8045   -0.0547    0.9950 C   0  0  0  0  0  0  0  0  0  0  0  0
    5.4093    0.0921    1.9163 N   0  0  0  0  0  0  0  0  0  0  0  0
    5.9267   -0.6634    0.8269 C   0  0  0  0  0  0  0  0  0  0  0  0
    7.3447   -0.7122    0.8291 C   0  0  0  0  0  0  0  0  0  0  0  0
    8.0797   -1.4002   -0.1432 C   0  0  0  0  0  0  0  0  0  0  0  0
    9.5786   -1.4045   -0.1144 C   0  0  0  0  0  0  0  0  0  0  0  0
   10.1228   -0.3293   -0.7535 F   0  0  0  0  0  0  0  0  0  0  0  0
   10.0966   -1.3772    1.1487 F   0  0  0  0  0  0  0  0  0  0  0  0
   10.1345   -2.5013   -0.7080 F   0  0  0  0  0  0  0  0  0  0  0  0
    7.3789   -2.0440   -1.1519 C   0  0  0  0  0  0  0  0  0  0  0  0
    5.9821   -2.0047   -1.1592 C   0  0  0  0  0  0  0  0  0  0  0  0
    5.1925   -1.3329   -0.1930 C   0  0  0  0  0  0  0  0  0  0  0  0
    3.9225   -1.3851   -0.3107 O   0  0  0  0  0  0  0  0  0  0  0  0
    3.3044   -0.4178    0.8405 H   0  0  0  0  0  0  0  0  0  0  0  0
    1.9619    1.5583    3.7594 H   0  0  0  0  0  0  0  0  0  0  0  0
   -0.4434    1.9401    4.0558 H   0  0  0  0  0  0  0  0  0  0  0  0
   -2.0721    1.0435    2.4306 H   0  0  0  0  0  0  0  0  0  0  0  0
   -0.4015   -2.1265   -0.3832 H   0  0  0  0  0  0  0  0  0  0  0  0
   -1.4631   -3.8102   -2.2508 H   0  0  0  0  0  0  0  0  0  0  0  0
   -3.8974   -3.7280   -3.5712 H   0  0  0  0  0  0  0  0  0  0  0  0
   -5.5125    0.1831   -1.6388 H   0  0  0  0  0  0  0  0  0  0  0  0
   -4.4110    2.5569   -0.5401 H   0  0  0  0  0  0  0  0  0  0  0  0
   -5.1290    1.6562    0.7938 H   0  0  0  0  0  0  0  0  0  0  0  0
   -5.8332    3.4644   -2.3770 H   0  0  0  0  0  0  0  0  0  0  0  0
   -8.1375    4.1633   -3.0074 H   0  0  0  0  0  0  0  0  0  0  0  0
   -9.8189    1.9558    0.0352 H   0  0  0  0  0  0  0  0  0  0  0  0
   -7.5957    1.1494    0.8137 H   0  0  0  0  0  0  0  0  0  0  0  0
    1.1877   -0.5873    0.1259 H   0  0  0  0  0  0  0  0  0  0  0  0
    6.1025    0.4540    2.5514 H   0  0  0  0  0  0  0  0  0  0  0  0
    7.8953   -0.1954    1.6134 H   0  0  0  0  0  0  0  0  0  0  0  0
    7.8954   -2.5850   -1.9398 H   0  0  0  0  0  0  0  0  0  0  0  0
    5.4622   -2.5287   -1.9642 H   0  0  0  0  0  0  0  0  0  0  0  0
  1  2  2  0
  2  3  1  0
  3  4  1  0
  4  5  2  0
  5  6  1  0
  6  7  2  0
  7  8  1  0
  8  9  1  0
  9 10  2  0
 10 11  1  0
 11 12  1  0
 12 13  2  0
 13 14  1  0
 14 15  2  0
 15 16  1  0
 16 17  1  0
 17 18  1  0
 18 19  1  0
 19 20  2  0
 20 21  1  0
 21 22  2  0
 22 23  1  0
 23 24  2  0
 16 25  2  0
  8 26  2  0
  2 27  1  0
 27 28  1  0
 28 29  2  0
 29 30  1  0
 30 31  1  0
 31 32  1  0
 31 33  1  0
 31 34  1  0
 30 35  2  0
 35 36  1  0
 36 37  2  0
 37 38  1  0
 26  4  1  0
 37 28  1  0
 25  9  1  0
 15 11  1  0
 24 19  1  0
  3 39  1  0
  5 40  1  0
  6 41  1  0
  7 42  1  0
 10 43  1  0
 12 44  1  0
 13 45  1  0
 17 46  1  0
 18 47  1  0
 18 48  1  0
 20 49  1  0
 21 50  1  0
 23 51  1  0
 24 52  1  0
 26 53  1  0
 27 54  1  0
 29 55  1  0
 35 56  1  0
 36 57  1  0
M  CHG  1  38  -1
M  END
$$$$
