
     RDKit          3D

 77 81  0  0  0  0  0  0  0  0999 V2000
   -1.7917    3.2043    4.4966 C   0  0  0  0  0  0  0  0  0  0  0  0
   -1.2184    2.4325    3.3215 C   0  0  0  0  0  0  0  0  0  0  0  0
   -1.5733    0.9539    3.4323 N   0  0  0  0  0  0  0  0  0  0  0  0
   -0.5526    0.0906    2.6695 C   0  0  0  0  0  0  0  0  0  0  0  0
   -1.1361   -1.2956    2.3318 C   0  0  0  0  0  0  0  0  0  0  0  0
   -2.3585   -1.1784    1.4145 N   0  0  0  0  0  0  0  0  0  0  0  0
   -3.1191   -2.4902    1.3124 C   0  0  0  0  0  0  0  0  0  0  0  0
   -4.1161   -2.5626    0.1474 C   0  0  0  0  0  0  0  0  0  0  0  0
   -3.5190   -2.2859   -1.2321 C   0  0  0  0  0  0  0  0  0  0  0  0
   -3.1317   -0.9074   -1.2497 O   0  0  0  0  0  0  0  0  0  0  0  0
   -2.1626   -0.6348   -2.1789 C   0  0  0  0  0  0  0  0  0  0  0  0
   -2.5156    0.1370   -3.2867 C   0  0  0  0  0  0  0  0  0  0  0  0
   -1.5537    0.6485   -4.1493 C   0  0  0  0  0  0  0  0  0  0  0  0
   -1.9481    1.3839   -5.1963 N   0  0  0  0  0  0  0  0  0  0  0  0
   -0.9996    1.9399   -5.9897 C   0  0  0  0  0  0  0  0  0  0  0  0
    0.3600    1.8590   -5.7443 C   0  0  0  0  0  0  0  0  0  0  0  0
    1.2720    2.5640   -6.5859 C   0  0  0  0  0  0  0  0  0  0  0  0
    2.0429    3.1202   -7.2498 N   0  0  0  0  0  0  0  0  0  0  0  0
    0.7847    1.1242   -4.6290 C   0  0  0  0  0  0  0  0  0  0  0  0
    2.1302    1.2341   -4.1661 N   0  0  0  0  0  0  0  0  0  0  0  0
    2.5560    1.5125   -2.8483 C   0  0  0  0  0  0  0  0  0  0  0  0
    3.7483    0.9679   -2.3688 C   0  0  0  0  0  0  0  0  0  0  0  0
    4.0583    1.0256   -1.0020 C   0  0  0  0  0  0  0  0  0  0  0  0
    3.1781    1.6231   -0.0850 C   0  0  0  0  0  0  0  0  0  0  0  0
    3.5677    1.5959    1.6619 S   0  0  0  0  0  0  0  0  0  0  0  0
    3.4067   -0.1070    1.9543 C   0  0  0  0  0  0  0  0  0  0  0  0
    2.2910   -0.8109    1.8589 N   0  0  0  0  0  0  0  0  0  0  0  0
    2.6677   -2.0947    2.1820 C   0  0  0  0  0  0  0  0  0  0  0  0
    3.9997   -2.1558    2.5100 C   0  0  0  0  0  0  0  0  0  0  0  0
    4.4633   -0.8757    2.3726 N   0  0  0  0  0  0  0  0  0  0  0  0
    5.8240   -0.4551    2.6198 C   0  0  0  0  0  0  0  0  0  0  0  0
    2.0226    2.2402   -0.5804 C   0  0  0  0  0  0  0  0  0  0  0  0
    0.8723    3.0359    0.4408 Cl  0  0  0  0  0  0  0  0  0  0  0  0
    1.7241    2.1888   -1.9441 C   0  0  0  0  0  0  0  0  0  0  0  0
   -0.1939    0.4243   -3.8578 C   0  0  0  0  0  0  0  0  0  0  0  0
    0.1352   -0.4614   -2.8003 C   0  0  0  0  0  0  0  0  0  0  0  0
   -0.8328   -0.9756   -1.9468 C   0  0  0  0  0  0  0  0  0  0  0  0
   -0.5477   -1.7202   -0.8292 O   0  0  0  0  0  0  0  0  0  0  0  0
    0.6151   -2.5490   -0.9606 C   0  0  0  0  0  0  0  0  0  0  0  0
   -3.2032    0.0701    1.6659 C   0  0  0  0  0  0  0  0  0  0  0  0
   -3.0298    0.6285    3.0955 C   0  0  0  0  0  0  0  0  0  0  0  0
   -1.4854    4.2536    4.4367 H   0  0  0  0  0  0  0  0  0  0  0  0
   -1.4276    2.8028    5.4480 H   0  0  0  0  0  0  0  0  0  0  0  0
   -2.8847    3.1800    4.5125 H   0  0  0  0  0  0  0  0  0  0  0  0
   -1.5987    2.7938    2.3615 H   0  0  0  0  0  0  0  0  0  0  0  0
   -0.1261    2.5029    3.3417 H   0  0  0  0  0  0  0  0  0  0  0  0
   -1.4435    0.7281    4.4311 H   0  0  0  0  0  0  0  0  0  0  0  0
    0.3190    0.0118    3.3241 H   0  0  0  0  0  0  0  0  0  0  0  0
   -0.2943    0.6240    1.7504 H   0  0  0  0  0  0  0  0  0  0  0  0
   -0.4076   -1.9231    1.8145 H   0  0  0  0  0  0  0  0  0  0  0  0
   -1.4681   -1.8047    3.2436 H   0  0  0  0  0  0  0  0  0  0  0  0
   -1.9686   -1.0496    0.4582 H   0  0  0  0  0  0  0  0  0  0  0  0
   -3.6296   -2.6357    2.2706 H   0  0  0  0  0  0  0  0  0  0  0  0
   -2.3650   -3.2766    1.1937 H   0  0  0  0  0  0  0  0  0  0  0  0
   -4.9425   -1.8665    0.3285 H   0  0  0  0  0  0  0  0  0  0  0  0
   -4.5537   -3.5682    0.1407 H   0  0  0  0  0  0  0  0  0  0  0  0
   -4.2824   -2.4397   -2.0033 H   0  0  0  0  0  0  0  0  0  0  0  0
   -2.6863   -2.9716   -1.4267 H   0  0  0  0  0  0  0  0  0  0  0  0
   -3.5603    0.3798   -3.4705 H   0  0  0  0  0  0  0  0  0  0  0  0
   -1.3922    2.5019   -6.8362 H   0  0  0  0  0  0  0  0  0  0  0  0
    2.8618    1.2598   -4.8751 H   0  0  0  0  0  0  0  0  0  0  0  0
    4.4250    0.4461   -3.0435 H   0  0  0  0  0  0  0  0  0  0  0  0
    4.9885    0.5719   -0.6646 H   0  0  0  0  0  0  0  0  0  0  0  0
    1.9715   -2.9226    2.1675 H   0  0  0  0  0  0  0  0  0  0  0  0
    4.6367   -2.9770    2.8148 H   0  0  0  0  0  0  0  0  0  0  0  0
    6.4175   -1.3156    2.9402 H   0  0  0  0  0  0  0  0  0  0  0  0
    5.8183    0.2990    3.4106 H   0  0  0  0  0  0  0  0  0  0  0  0
    6.2389   -0.0503    1.6935 H   0  0  0  0  0  0  0  0  0  0  0  0
    0.8133    2.6619   -2.3049 H   0  0  0  0  0  0  0  0  0  0  0  0
    1.1818   -0.6997   -2.6369 H   0  0  0  0  0  0  0  0  0  0  0  0
    0.6278   -3.0825   -1.9174 H   0  0  0  0  0  0  0  0  0  0  0  0
    1.5256   -1.9582   -0.8222 H   0  0  0  0  0  0  0  0  0  0  0  0
    0.5766   -3.2975   -0.1636 H   0  0  0  0  0  0  0  0  0  0  0  0
   -2.8728    0.8133    0.9318 H   0  0  0  0  0  0  0  0  0  0  0  0
   -4.2515   -0.1695    1.4762 H   0  0  0  0  0  0  0  0  0  0  0  0
   -3.3478   -0.1165    3.8333 H   0  0  0  0  0  0  0  0  0  0  0  0
   -3.6302    1.5312    3.2344 H   0  0  0  0  0  0  0  0  0  0  0  0
  1  2  1  0
  2  3  1  0
  3  4  1  0
  4  5  1  0
  5  6  1  0
  6  7  1  0
  7  8  1  0
  8  9  1  0
  9 10  1  0
 10 11  1  0
 11 12  2  0
 12 13  1  0
 13 14  2  0
 14 15  1  0
 15 16  2  0
 16 17  1  0
 17 18  3  0
 16 19  1  0
 19 20  1  0
 20 21  1  0
 21 22  2  0
 22 23  1  0
 23 24  2  0
 24 25  1  0
 25 26  1  0
 26 27  2  0
 27 28  1  0
 28 29  2  0
 29 30  1  0
 30 31  1  0
 24 32  1  0
 32 33  1  0
 32 34  2  0
 19 35  2  0
 35 36  1  0
 36 37  2  0
 37 38  1  0
 38 39  1  0
  6 40  1  0
 40 41  1  0
 41  3  1  0
 37 11  1  0
 35 13  1  0
 34 21  1  0
 30 26  1  0
  1 42  1  0
  1 43  1  0
  1 44  1  0
  2 45  1  0
  2 46  1  0
  3 47  1  0
  4 48  1  0
  4 49  1  0
  5 50  1  0
  5 51  1  0
  6 52  1  0
  7 53  1  0
  7 54  1  0
  8 55  1  0
  8 56  1  0
  9 57  1  0
  9 58  1  0
 12 59  1  0
 15 60  1  0
 20 61  1  0
 22 62  1  0
 23 63  1  0
 28 64  1  0
 29 65  1  0
 31 66  1  0
 31 67  1  0
 31 68  1  0
 34 69  1  0
 36 70  1  0
 39 71  1  0
 39 72  1  0
 39 73  1  0
 40 74  1  0
 40 75  1  0
 41 76  1  0
 41 77  1  0
M  CHG  2   3   1   6   1
M  END
$$$$
