
     RDKit          3D

 63 67  0  0  0  0  0  0  0  0999 V2000
   10.3664   -0.8222   -0.4797 C   0  0  0  0  0  0  0  0  0  0  0  0
    8.9965   -0.5548   -1.0871 C   0  0  2  0  0  0  0  0  0  0  0  0
    8.3778    0.4671   -0.3022 O   0  0  0  0  0  0  0  0  0  0  0  0
    8.1392   -1.8373   -1.1131 C   0  0  0  0  0  0  0  0  0  0  0  0
    7.0159   -1.7086   -2.0181 N   0  0  0  0  0  0  0  0  0  0  0  0
    5.8406   -1.0908   -1.7146 C   0  0  0  0  0  0  0  0  0  0  0  0
    4.8989   -1.1286   -2.6581 N   0  0  0  0  0  0  0  0  0  0  0  0
    3.7384   -0.5097   -2.3866 C   0  0  0  0  0  0  0  0  0  0  0  0
    3.4751    0.1303   -1.2000 C   0  0  0  0  0  0  0  0  0  0  0  0
    4.4881    0.1010   -0.2674 C   0  0  0  0  0  0  0  0  0  0  0  0
    4.3417    0.7154    1.0170 N   0  0  0  0  0  0  0  0  0  0  0  0
    5.4074    1.0042    1.8507 C   0  0  0  0  0  0  0  0  0  0  0  0
    4.9002    1.7477    2.8826 C   0  0  0  0  0  0  0  0  0  0  0  0
    3.5472    1.8618    2.7672 N   0  0  0  0  0  0  0  0  0  0  0  0
    3.2038    1.1574    1.6991 C   0  0  0  0  0  0  0  0  0  0  0  0
    1.8062    0.8677    1.3743 C   0  0  0  0  0  0  0  0  0  0  0  0
    0.8905    1.9175    1.2556 C   0  0  0  0  0  0  0  0  0  0  0  0
   -0.4518    1.6587    0.9588 C   0  0  0  0  0  0  0  0  0  0  0  0
   -0.9058    0.3454    0.7845 C   0  0  0  0  0  0  0  0  0  0  0  0
   -2.2732    0.1736    0.4854 N   0  0  0  0  0  0  0  0  0  0  0  0
   -2.9330   -1.0084    0.2012 C   0  0  0  0  0  0  0  0  0  0  0  0
   -2.4091   -2.1114    0.0994 O   0  0  0  0  0  0  0  0  0  0  0  0
   -4.3694   -0.8495   -0.0086 C   0  0  0  0  0  0  0  0  0  0  0  0
   -5.1882   -1.8626   -0.4667 C   0  0  0  0  0  0  0  0  0  0  0  0
   -6.4734   -1.4467   -0.5706 O   0  0  0  0  0  0  0  0  0  0  0  0
   -6.5138   -0.1399   -0.1755 C   0  0  0  0  0  0  0  0  0  0  0  0
   -7.8330    0.4885   -0.2152 C   0  0  0  0  0  0  0  0  0  0  0  0
   -8.9582   -0.2910    0.1244 C   0  0  0  0  0  0  0  0  0  0  0  0
  -10.2603    0.2400    0.1209 C   0  0  0  0  0  0  0  0  0  0  0  0
  -11.4366   -0.6213    0.5156 C   0  0  0  0  0  0  0  0  0  0  0  0
  -12.6187   -0.1784    0.0040 F   0  0  0  0  0  0  0  0  0  0  0  0
  -11.6071   -0.6704    1.8649 F   0  0  0  0  0  0  0  0  0  0  0  0
  -11.3132   -1.9128    0.1037 F   0  0  0  0  0  0  0  0  0  0  0  0
  -10.4366    1.5859   -0.2179 C   0  0  0  0  0  0  0  0  0  0  0  0
   -9.3379    2.3735   -0.5642 C   0  0  0  0  0  0  0  0  0  0  0  0
   -8.0451    1.8328   -0.5671 C   0  0  0  0  0  0  0  0  0  0  0  0
   -6.7675    2.8934   -1.0576 Cl  0  0  0  0  0  0  0  0  0  0  0  0
   -5.2438    0.2618    0.1933 C   0  0  0  0  0  0  0  0  0  0  0  0
    0.0023   -0.7044    0.9328 C   0  0  0  0  0  0  0  0  0  0  0  0
    1.3456   -0.4468    1.2363 C   0  0  0  0  0  0  0  0  0  0  0  0
    5.6895   -0.4719   -0.5365 N   0  0  0  0  0  0  0  0  0  0  0  0
   10.9208   -1.5676   -1.0579 H   0  0  0  0  0  0  0  0  0  0  0  0
   10.2739   -1.1761    0.5532 H   0  0  0  0  0  0  0  0  0  0  0  0
   10.9563    0.1002   -0.4446 H   0  0  0  0  0  0  0  0  0  0  0  0
    9.1219   -0.1606   -2.1021 H   0  0  0  0  0  0  0  0  0  0  0  0
    7.4170    0.3992   -0.4768 H   0  0  0  0  0  0  0  0  0  0  0  0
    7.7944   -2.1006   -0.1057 H   0  0  0  0  0  0  0  0  0  0  0  0
    8.7519   -2.6713   -1.4741 H   0  0  0  0  0  0  0  0  0  0  0  0
    7.0333   -2.1390   -2.9308 H   0  0  0  0  0  0  0  0  0  0  0  0
    3.0002   -0.5403   -3.1834 H   0  0  0  0  0  0  0  0  0  0  0  0
    2.5314    0.6374   -1.0740 H   0  0  0  0  0  0  0  0  0  0  0  0
    6.4202    0.7114    1.6126 H   0  0  0  0  0  0  0  0  0  0  0  0
    5.4401    2.1998    3.7047 H   0  0  0  0  0  0  0  0  0  0  0  0
    1.2200    2.9447    1.4041 H   0  0  0  0  0  0  0  0  0  0  0  0
   -1.1318    2.5026    0.8726 H   0  0  0  0  0  0  0  0  0  0  0  0
   -2.8216    1.0206    0.4540 H   0  0  0  0  0  0  0  0  0  0  0  0
   -5.0032   -2.8904   -0.7508 H   0  0  0  0  0  0  0  0  0  0  0  0
   -8.8188   -1.3377    0.4025 H   0  0  0  0  0  0  0  0  0  0  0  0
  -11.4329    2.0273   -0.2209 H   0  0  0  0  0  0  0  0  0  0  0  0
   -9.4970    3.4146   -0.8388 H   0  0  0  0  0  0  0  0  0  0  0  0
   -4.9913    1.2393    0.5777 H   0  0  0  0  0  0  0  0  0  0  0  0
   -0.3012   -1.7428    0.8390 H   0  0  0  0  0  0  0  0  0  0  0  0
    2.0212   -1.2890    1.3747 H   0  0  0  0  0  0  0  0  0  0  0  0
  1  2  1  0
  2  3  1  0
  2  4  1  0
  4  5  1  0
  5  6  1  0
  6  7  2  0
  7  8  1  0
  8  9  2  0
  9 10  1  0
 10 11  1  0
 11 12  1  0
 12 13  2  0
 13 14  1  0
 14 15  2  0
 15 16  1  0
 16 17  2  0
 17 18  1  0
 18 19  2  0
 19 20  1  0
 20 21  1  0
 21 22  2  0
 21 23  1  0
 23 24  2  0
 24 25  1  0
 25 26  1  0
 26 27  1  0
 27 28  2  0
 28 29  1  0
 29 30  1  0
 30 31  1  0
 30 32  1  0
 30 33  1  0
 29 34  2  0
 34 35  1  0
 35 36  2  0
 36 37  1  0
 26 38  2  0
 19 39  1  0
 39 40  2  0
 10 41  2  0
 41  6  1  0
 15 11  1  0
 40 16  1  0
 38 23  1  0
 36 27  1  0
  1 42  1  0
  1 43  1  0
  1 44  1  0
  2 45  1  6
  3 46  1  0
  4 47  1  0
  4 48  1  0
  5 49  1  0
  8 50  1  0
  9 51  1  0
 12 52  1  0
 13 53  1  0
 17 54  1  0
 18 55  1  0
 20 56  1  0
 24 57  1  0
 28 58  1  0
 34 59  1  0
 35 60  1  0
 38 61  1  0
 39 62  1  0
 40 63  1  0
M  END
$$$$
