
     RDKit          3D

102109  0  0  0  0  0  0  0  0999 V2000
   -5.0282   -1.9756   -3.0586 C   0  0  0  0  0  0  0  0  0  0  0  0
   -5.1349   -1.5899   -1.5854 C   0  0  2  0  0  0  0  0  0  0  0  0
   -6.5743   -1.1324   -1.2448 C   0  0  0  0  0  0  0  0  0  0  0  0
   -6.6936   -0.5806    0.1971 C   0  0  1  0  0  0  0  0  0  0  0  0
   -5.4228   -0.7265    0.8496 O   0  0  0  0  0  0  0  0  0  0  0  0
   -4.5705    0.2102    0.1365 C   0  0  1  0  0  0  0  0  0  0  0  0
   -5.4935    1.4151   -0.1622 C   0  0  0  0  0  0  0  0  0  0  0  0
   -6.8871    0.9401    0.2754 C   0  0  2  0  0  0  0  0  0  0  0  0
   -7.2372    1.4550    1.7111 C   0  0  0  0  0  0  0  0  0  0  0  0
   -7.4812    2.9717    1.7039 C   0  0  0  0  0  0  0  0  0  0  0  0
   -8.4849    0.7734    2.2881 C   0  0  0  0  0  0  0  0  0  0  0  0
   -6.1483    1.2104    2.6134 O   0  0  0  0  0  0  0  0  0  0  0  0
   -3.2899    0.4658    0.9710 C   0  0  2  0  0  0  0  0  0  0  0  0
   -3.3227    1.6855    1.6974 O   0  0  0  0  0  0  0  0  0  0  0  0
   -2.1365    0.3751   -0.0613 C   0  0  1  0  0  0  0  0  0  0  0  0
   -2.0607    1.7214   -0.8492 C   0  0  0  0  0  0  0  0  0  0  0  0
   -0.7475    0.0443    0.5547 C   0  0  2  0  0  0  0  0  0  0  0  0
   -0.1131    1.2040    1.3355 C   0  0  0  0  0  0  0  0  0  0  0  0
    1.2229    0.7857    1.9438 C   0  0  0  0  0  0  0  0  0  0  0  0
    2.2596    0.5709    0.8332 C   0  0  1  0  0  0  0  0  0  0  0  0
    3.6983    0.1887    1.3306 C   0  0  0  0  0  0  0  0  0  0  0  0
    3.7249   -1.1491    2.1022 C   0  0  0  0  0  0  0  0  0  0  0  0
    4.2344    1.2725    2.2986 C   0  0  0  0  0  0  0  0  0  0  0  0
    4.6505    0.1452    0.0889 C   0  0  1  0  0  0  0  0  0  0  0  0
    5.9451   -0.3251    0.4903 O   0  0  0  0  0  0  0  0  0  0  0  0
    7.0232    0.4774    0.0008 C   0  0  2  0  0  0  0  0  0  0  0  0
    7.0896    0.4968   -1.4277 O   0  0  0  0  0  0  0  0  0  0  0  0
    7.8634   -0.5755   -1.9611 C   0  0  0  0  0  0  0  0  0  0  0  0
    9.3422   -0.4352   -1.5817 C   0  0  2  0  0  0  0  0  0  0  0  0
    9.9350   -1.7377   -1.5137 O   0  0  0  0  0  0  0  0  0  0  0  0
    9.5072    0.2878   -0.2376 C   0  0  2  0  0  0  0  0  0  0  0  0
   10.7395   -0.1213    0.3797 O   0  0  0  0  0  0  0  0  0  0  0  0
    8.3226   -0.0362    0.6667 C   0  0  1  0  0  0  0  0  0  0  0  0
    8.5288    0.5618    1.9587 O   0  0  0  0  0  0  0  0  0  0  0  0
    4.1284   -0.7733   -1.0204 C   0  0  0  0  0  0  0  0  0  0  0  0
    2.7205   -0.3876   -1.4564 C   0  0  0  0  0  0  0  0  0  0  0  0
    1.7698   -0.3805   -0.2693 C   0  0  1  0  0  0  0  0  0  0  0  0
    1.1031   -1.6902    0.0589 C   0  0  0  0  0  0  0  0  0  0  0  0
    0.2387   -0.5610   -0.4846 C   0  0  1  0  0  0  0  0  0  0  0  0
   -0.2486   -0.6971   -1.9330 C   0  0  0  0  0  0  0  0  0  0  0  0
   -1.7483   -0.9289   -2.1822 C   0  0  0  0  0  0  0  0  0  0  0  0
   -2.6229   -0.8510   -0.9281 C   0  0  1  0  0  0  0  0  0  0  0  0
   -2.5337   -2.2290   -0.2094 C   0  0  0  0  0  0  0  0  0  0  0  0
   -4.1219   -0.4858   -1.1894 C   0  0  1  0  0  0  0  0  0  0  0  0
   -4.0482   -2.4030   -3.2855 H   0  0  0  0  0  0  0  0  0  0  0  0
   -5.1825   -1.1088   -3.7098 H   0  0  0  0  0  0  0  0  0  0  0  0
   -5.7818   -2.7274   -3.3165 H   0  0  0  0  0  0  0  0  0  0  0  0
   -4.9593   -2.4959   -0.9950 H   0  0  0  0  0  0  0  0  0  0  0  0
   -7.2499   -1.9919   -1.3455 H   0  0  0  0  0  0  0  0  0  0  0  0
   -6.9357   -0.3947   -1.9721 H   0  0  0  0  0  0  0  0  0  0  0  0
   -7.4522   -1.1466    0.7416 H   0  0  0  0  0  0  0  0  0  0  0  0
   -5.1732    2.3357    0.3277 H   0  0  0  0  0  0  0  0  0  0  0  0
   -5.5104    1.6571   -1.2315 H   0  0  0  0  0  0  0  0  0  0  0  0
   -7.6652    1.2732   -0.4214 H   0  0  0  0  0  0  0  0  0  0  0  0
   -6.5851    3.5315    1.4201 H   0  0  0  0  0  0  0  0  0  0  0  0
   -7.7434    3.3272    2.7076 H   0  0  0  0  0  0  0  0  0  0  0  0
   -8.2925    3.2437    1.0209 H   0  0  0  0  0  0  0  0  0  0  0  0
   -9.3356    0.8463    1.6031 H   0  0  0  0  0  0  0  0  0  0  0  0
   -8.3030   -0.2807    2.5202 H   0  0  0  0  0  0  0  0  0  0  0  0
   -8.7721    1.2327    3.2416 H   0  0  0  0  0  0  0  0  0  0  0  0
   -5.9388    0.2555    2.5406 H   0  0  0  0  0  0  0  0  0  0  0  0
   -3.1788   -0.3210    1.7264 H   0  0  0  0  0  0  0  0  0  0  0  0
   -4.1424    1.6753    2.2362 H   0  0  0  0  0  0  0  0  0  0  0  0
   -1.9469    2.5761   -0.1736 H   0  0  0  0  0  0  0  0  0  0  0  0
   -2.9558    1.9247   -1.4412 H   0  0  0  0  0  0  0  0  0  0  0  0
   -1.2129    1.7578   -1.5371 H   0  0  0  0  0  0  0  0  0  0  0  0
   -0.9225   -0.7386    1.3064 H   0  0  0  0  0  0  0  0  0  0  0  0
    0.0539    2.0756    0.6931 H   0  0  0  0  0  0  0  0  0  0  0  0
   -0.7804    1.5189    2.1446 H   0  0  0  0  0  0  0  0  0  0  0  0
    1.0871   -0.1121    2.5554 H   0  0  0  0  0  0  0  0  0  0  0  0
    1.5506    1.5850    2.6169 H   0  0  0  0  0  0  0  0  0  0  0  0
    2.3598    1.5511    0.3399 H   0  0  0  0  0  0  0  0  0  0  0  0
    4.7293   -1.3687    2.4822 H   0  0  0  0  0  0  0  0  0  0  0  0
    3.0601   -1.1251    2.9716 H   0  0  0  0  0  0  0  0  0  0  0  0
    3.4273   -1.9964    1.4800 H   0  0  0  0  0  0  0  0  0  0  0  0
    4.1880    2.2673    1.8419 H   0  0  0  0  0  0  0  0  0  0  0  0
    5.2776    1.0839    2.5753 H   0  0  0  0  0  0  0  0  0  0  0  0
    3.6634    1.3024    3.2323 H   0  0  0  0  0  0  0  0  0  0  0  0
    4.7259    1.1644   -0.3169 H   0  0  0  0  0  0  0  0  0  0  0  0
    6.8475    1.5093    0.3298 H   0  0  0  0  0  0  0  0  0  0  0  0
    7.4445   -1.5343   -1.6301 H   0  0  0  0  0  0  0  0  0  0  0  0
    7.7628   -0.5577   -3.0517 H   0  0  0  0  0  0  0  0  0  0  0  0
    9.8855    0.1215   -2.3533 H   0  0  0  0  0  0  0  0  0  0  0  0
   10.7118   -1.6240   -0.9244 H   0  0  0  0  0  0  0  0  0  0  0  0
    9.5675    1.3724   -0.3901 H   0  0  0  0  0  0  0  0  0  0  0  0
   10.6647    0.1839    1.3078 H   0  0  0  0  0  0  0  0  0  0  0  0
    8.2739   -1.1179    0.8458 H   0  0  0  0  0  0  0  0  0  0  0  0
    7.7484    0.3134    2.4912 H   0  0  0  0  0  0  0  0  0  0  0  0
    4.7977   -0.7314   -1.8871 H   0  0  0  0  0  0  0  0  0  0  0  0
    4.1529   -1.8182   -0.6881 H   0  0  0  0  0  0  0  0  0  0  0  0
    2.7289    0.6080   -1.9165 H   0  0  0  0  0  0  0  0  0  0  0  0
    2.4053   -1.0917   -2.2330 H   0  0  0  0  0  0  0  0  0  0  0  0
    0.9972   -1.9824    1.0985 H   0  0  0  0  0  0  0  0  0  0  0  0
    1.2949   -2.5494   -0.5774 H   0  0  0  0  0  0  0  0  0  0  0  0
    0.0567    0.2068   -2.4751 H   0  0  0  0  0  0  0  0  0  0  0  0
    0.2815   -1.5188   -2.4306 H   0  0  0  0  0  0  0  0  0  0  0  0
   -1.8758   -1.9000   -2.6769 H   0  0  0  0  0  0  0  0  0  0  0  0
   -2.0829   -0.1973   -2.9293 H   0  0  0  0  0  0  0  0  0  0  0  0
   -1.5173   -2.4957    0.0852 H   0  0  0  0  0  0  0  0  0  0  0  0
   -2.8608   -3.0367   -0.8743 H   0  0  0  0  0  0  0  0  0  0  0  0
   -3.1542   -2.2781    0.6896 H   0  0  0  0  0  0  0  0  0  0  0  0
   -4.1304    0.2539   -2.0002 H   0  0  0  0  0  0  0  0  0  0  0  0
  1  2  1  0
  2  3  1  0
  3  4  1  0
  4  5  1  0
  5  6  1  0
  6  7  1  6
  7  8  1  0
  8  9  1  0
  9 10  1  0
  9 11  1  0
  9 12  1  0
  6 13  1  0
 13 14  1  0
 13 15  1  0
 15 16  1  6
 15 17  1  0
 17 18  1  0
 18 19  1  0
 19 20  1  0
 20 21  1  0
 21 22  1  0
 21 23  1  0
 21 24  1  0
 24 25  1  0
 25 26  1  0
 26 27  1  0
 27 28  1  0
 28 29  1  0
 29 30  1  0
 29 31  1  0
 31 32  1  0
 31 33  1  0
 33 34  1  0
 24 35  1  0
 35 36  1  0
 37 36  1  6
 37 38  1  0
 39 38  1  1
 39 40  1  0
 40 41  1  0
 41 42  1  0
 42 43  1  1
 42 44  1  0
 44  2  1  0
  8  4  1  0
 42 15  1  0
 44  6  1  0
 39 17  1  0
 37 20  1  0
 33 26  1  0
 39 37  1  0
  1 45  1  0
  1 46  1  0
  1 47  1  0
  2 48  1  1
  3 49  1  0
  3 50  1  0
  4 51  1  1
  7 52  1  0
  7 53  1  0
  8 54  1  6
 10 55  1  0
 10 56  1  0
 10 57  1  0
 11 58  1  0
 11 59  1  0
 11 60  1  0
 12 61  1  0
 13 62  1  1
 14 63  1  0
 16 64  1  0
 16 65  1  0
 16 66  1  0
 17 67  1  1
 18 68  1  0
 18 69  1  0
 19 70  1  0
 19 71  1  0
 20 72  1  6
 22 73  1  0
 22 74  1  0
 22 75  1  0
 23 76  1  0
 23 77  1  0
 23 78  1  0
 24 79  1  6
 26 80  1  1
 28 81  1  0
 28 82  1  0
 29 83  1  6
 30 84  1  0
 31 85  1  6
 32 86  1  0
 33 87  1  1
 34 88  1  0
 35 89  1  0
 35 90  1  0
 36 91  1  0
 36 92  1  0
 38 93  1  0
 38 94  1  0
 40 95  1  0
 40 96  1  0
 41 97  1  0
 41 98  1  0
 43 99  1  0
 43100  1  0
 43101  1  0
 44102  1  6
M  END
$$$$
