
     RDKit          3D

 41 43  0  0  0  0  0  0  0  0999 V2000
    0.0745   -0.0215   -3.0113 C   0  0  0  0  0  0  0  0  0  0  0  0
   -0.4530   -1.1126   -2.0502 C   0  0  0  0  0  0  0  0  0  0  0  0
   -0.3550   -2.4482   -2.8169 C   0  0  0  0  0  0  0  0  0  0  0  0
   -1.8640   -0.9045   -1.8441 O   0  0  0  0  0  0  0  0  0  0  0  0
   -2.2147    0.0797   -0.9664 C   0  0  0  0  0  0  0  0  0  0  0  0
   -3.5469    0.4942   -1.0356 C   0  0  0  0  0  0  0  0  0  0  0  0
   -4.0163    1.5083   -0.2002 C   0  0  0  0  0  0  0  0  0  0  0  0
   -3.1492    2.1127    0.7109 C   0  0  0  0  0  0  0  0  0  0  0  0
   -3.6185    3.1619    1.5678 C   0  0  0  0  0  0  0  0  0  0  0  0
   -3.9951    4.0117    2.2629 N   0  0  0  0  0  0  0  0  0  0  0  0
   -1.8178    1.6863    0.7864 C   0  0  0  0  0  0  0  0  0  0  0  0
   -1.3411    0.6475   -0.0376 C   0  0  0  0  0  0  0  0  0  0  0  0
    0.1015    0.1892    0.0634 C   0  0  1  0  0  0  0  0  0  0  0  0
    0.3996    0.0729    1.4692 O   0  0  0  0  0  0  0  0  0  0  0  0
    1.6946    0.3619    1.8315 C   0  0  0  0  0  0  0  0  0  0  0  0
    1.9249    0.5883    3.1785 C   0  0  0  0  0  0  0  0  0  0  0  0
    3.2274    0.8526    3.5894 C   0  0  0  0  0  0  0  0  0  0  0  0
    4.2474    0.8713    2.6448 C   0  0  0  0  0  0  0  0  0  0  0  0
    3.9205    0.6167    1.3227 C   0  0  0  0  0  0  0  0  0  0  0  0
    2.6647    0.3508    0.8932 N   0  0  0  0  0  0  0  0  0  0  0  0
    0.3306   -1.1597   -0.6964 C   0  0  1  0  0  0  0  0  0  0  0  0
   -0.0706   -2.3633    0.1792 C   0  0  0  0  0  0  0  0  0  0  0  0
    1.7297   -1.3429   -1.0038 O   0  0  0  0  0  0  0  0  0  0  0  0
   -0.0126    0.9843   -2.5899 H   0  0  0  0  0  0  0  0  0  0  0  0
   -0.5160   -0.0049   -3.9353 H   0  0  0  0  0  0  0  0  0  0  0  0
    1.1227   -0.1893   -3.2792 H   0  0  0  0  0  0  0  0  0  0  0  0
   -0.8550   -2.3736   -3.7905 H   0  0  0  0  0  0  0  0  0  0  0  0
   -0.8748   -3.2543   -2.2883 H   0  0  0  0  0  0  0  0  0  0  0  0
    0.6831   -2.7478   -2.9911 H   0  0  0  0  0  0  0  0  0  0  0  0
   -4.2191    0.0289   -1.7533 H   0  0  0  0  0  0  0  0  0  0  0  0
   -5.0557    1.8222   -0.2717 H   0  0  0  0  0  0  0  0  0  0  0  0
   -1.1435    2.1591    1.5004 H   0  0  0  0  0  0  0  0  0  0  0  0
    0.7068    0.9880   -0.3881 H   0  0  0  0  0  0  0  0  0  0  0  0
    1.1086    0.5607    3.8915 H   0  0  0  0  0  0  0  0  0  0  0  0
    3.4442    1.0400    4.6374 H   0  0  0  0  0  0  0  0  0  0  0  0
    5.2731    1.0751    2.9327 H   0  0  0  0  0  0  0  0  0  0  0  0
    4.6854    0.6161    0.5503 H   0  0  0  0  0  0  0  0  0  0  0  0
   -1.1345   -2.3558    0.4336 H   0  0  0  0  0  0  0  0  0  0  0  0
    0.5070   -2.3869    1.1100 H   0  0  0  0  0  0  0  0  0  0  0  0
    0.1640   -3.3121   -0.3146 H   0  0  0  0  0  0  0  0  0  0  0  0
    2.2432   -0.9034   -0.2912 H   0  0  0  0  0  0  0  0  0  0  0  0
  1  2  1  0
  2  3  1  0
  2  4  1  0
  4  5  1  0
  5  6  2  0
  6  7  1  0
  7  8  2  0
  8  9  1  0
  9 10  3  0
  8 11  1  0
 11 12  2  0
 12 13  1  0
 13 14  1  0
 14 15  1  0
 15 16  2  0
 16 17  1  0
 17 18  2  0
 18 19  1  0
 19 20  2  0
 13 21  1  0
 21 22  1  0
 21 23  1  6
 21  2  1  0
 12  5  1  0
 20 15  1  0
  1 24  1  0
  1 25  1  0
  1 26  1  0
  3 27  1  0
  3 28  1  0
  3 29  1  0
  6 30  1  0
  7 31  1  0
 11 32  1  0
 13 33  1  6
 16 34  1  0
 17 35  1  0
 18 36  1  0
 19 37  1  0
 22 38  1  0
 22 39  1  0
 22 40  1  0
 23 41  1  0
M  END
$$$$
