
     RDKit          3D

 20 21  0  0  0  0  0  0  0  0999 V2000
    4.0041    0.3767   -0.5936 N   0  0  0  0  0  0  0  0  0  0  0  0
    2.9226    0.2657    0.1756 C   0  0  0  0  0  0  0  0  0  0  0  0
    2.8540    0.2896    1.4797 N   0  0  0  0  0  0  0  0  0  0  0  0
    1.5166    0.1348    1.7210 C   0  0  0  0  0  0  0  0  0  0  0  0
    1.0023    0.1052    3.0271 O   0  0  0  0  0  0  0  0  0  0  0  0
    0.8026    0.0200    0.5394 C   0  0  0  0  0  0  0  0  0  0  0  0
   -0.5866   -0.1574    0.1114 C   0  0  0  0  0  0  0  0  0  0  0  0
   -1.6292   -0.2598    1.0422 C   0  0  0  0  0  0  0  0  0  0  0  0
   -2.9565   -0.4293    0.6329 C   0  0  0  0  0  0  0  0  0  0  0  0
   -3.2658   -0.4998   -0.7225 C   0  0  0  0  0  0  0  0  0  0  0  0
   -2.2480   -0.4008   -1.6669 C   0  0  0  0  0  0  0  0  0  0  0  0
   -0.9223   -0.2313   -1.2518 C   0  0  0  0  0  0  0  0  0  0  0  0
    1.7392    0.1076   -0.4733 O   0  0  0  0  0  0  0  0  0  0  0  0
    3.9319    0.3434   -1.5954 H   0  0  0  0  0  0  0  0  0  0  0  0
    4.8985    0.4952   -0.1450 H   0  0  0  0  0  0  0  0  0  0  0  0
   -1.4092   -0.2071    2.1073 H   0  0  0  0  0  0  0  0  0  0  0  0
   -3.7384   -0.5047    1.3827 H   0  0  0  0  0  0  0  0  0  0  0  0
   -4.2956   -0.6313   -1.0391 H   0  0  0  0  0  0  0  0  0  0  0  0
   -2.4778   -0.4544   -2.7265 H   0  0  0  0  0  0  0  0  0  0  0  0
   -0.1425   -0.1562   -2.0053 H   0  0  0  0  0  0  0  0  0  0  0  0
  1  2  1  0
  2  3  2  0
  3  4  1  0
  4  5  1  0
  4  6  2  0
  6  7  1  0
  7  8  2  0
  8  9  1  0
  9 10  2  0
 10 11  1  0
 11 12  2  0
  6 13  1  0
 13  2  1  0
 12  7  1  0
  1 14  1  0
  1 15  1  0
  8 16  1  0
  9 17  1  0
 10 18  1  0
 11 19  1  0
 12 20  1  0
M  CHG  1   5  -1
M  END
$$$$
