
     RDKit          3D

 75 82  0  0  0  0  0  0  0  0999 V2000
    6.3805    0.2254    1.2087 C   0  0  0  0  0  0  0  0  0  0  0  0
    5.3933   -0.2575    0.1308 C   0  0  0  0  0  0  0  0  0  0  0  0
    6.1040   -1.3773   -0.6445 C   0  0  0  0  0  0  0  0  0  0  0  0
    5.1833    0.8170   -0.8136 O   0  0  0  0  0  0  0  0  0  0  0  0
    3.8459    1.3369   -0.6881 C   0  0  2  0  0  0  0  0  0  0  0  0
    3.9173    2.8225   -0.4372 C   0  0  0  0  0  0  0  0  0  0  0  0
    4.0368    2.8728    1.0521 C   0  0  0  0  0  0  0  0  0  0  0  0
    4.3230    3.8604    1.7080 O   0  0  0  0  0  0  0  0  0  0  0  0
    3.7391    1.6535    1.5954 O   0  0  0  0  0  0  0  0  0  0  0  0
    3.2438    0.7440    0.5679 C   0  0  1  0  0  0  0  0  0  0  0  0
    1.7185    0.8363    0.7419 C   0  0  0  0  0  0  0  0  0  0  0  0
    0.7250   -0.0932    0.0350 C   0  0  2  0  0  0  0  0  0  0  0  0
    0.6263    0.0916   -1.4893 C   0  0  0  0  0  0  0  0  0  0  0  0
   -0.3315   -0.8733   -2.2274 C   0  0  0  0  0  0  0  0  0  0  0  0
   -1.8515   -0.7317   -1.9850 C   0  0  2  0  0  0  0  0  0  0  0  0
   -2.5823   -1.7654   -2.8679 C   0  0  0  0  0  0  0  0  0  0  0  0
   -2.2995    0.6346   -2.4690 C   0  0  0  0  0  0  0  0  0  0  0  0
   -2.0081    1.0964   -3.5703 O   0  0  0  0  0  0  0  0  0  0  0  0
   -3.0444    1.4253   -1.4237 C   0  0  2  0  0  0  0  0  0  0  0  0
   -4.2254    2.1870   -2.0140 C   0  0  0  0  0  0  0  0  0  0  0  0
   -2.0744    2.3635   -0.9471 O   0  0  0  0  0  0  0  0  0  0  0  0
   -3.4151    0.3420   -0.3667 C   0  0  2  0  0  0  0  0  0  0  0  0
   -4.7006   -0.2313   -0.6917 O   0  0  0  0  0  0  0  0  0  0  0  0
   -3.4749    0.9588    1.0512 C   0  0  1  0  0  0  0  0  0  0  0  0
   -4.8212    1.3584    1.3546 O   0  0  0  0  0  0  0  0  0  0  0  0
   -5.2982    0.6251    2.4006 C   0  0  0  0  0  0  0  0  0  0  0  0
   -6.4060    0.7906    2.8899 O   0  0  0  0  0  0  0  0  0  0  0  0
   -4.2905   -0.4177    2.8520 C   0  0  2  0  0  0  0  0  0  0  0  0
   -4.7396   -1.8061    2.4057 C   0  0  0  0  0  0  0  0  0  0  0  0
   -4.1524   -0.4324    4.2728 O   0  0  0  0  0  0  0  0  0  0  0  0
   -3.0040    0.0840    2.1977 C   0  0  1  0  0  0  0  0  0  0  0  0
   -2.1165   -0.9684    1.8644 O   0  0  0  0  0  0  0  0  0  0  0  0
   -1.4141   -0.8450    0.6358 C   0  0  1  0  0  0  0  0  0  0  0  0
   -0.5598    0.2883    0.5959 O   0  0  0  0  0  0  0  0  0  0  0  0
   -0.4597   -2.0317    0.6304 C   0  0  0  0  0  0  0  0  0  0  0  0
   -0.7399   -3.2158    0.7335 O   0  0  0  0  0  0  0  0  0  0  0  0
    0.9078   -1.5218    0.3987 C   0  0  0  0  0  0  0  0  0  0  0  0
    2.0129   -2.2672    0.4446 C   0  0  0  0  0  0  0  0  0  0  0  0
    3.3509   -1.7916   -0.0181 C   0  0  0  0  0  0  0  0  0  0  0  0
    3.9820   -0.5977    0.7199 C   0  0  1  0  0  0  0  0  0  0  0  0
   -2.3927   -0.8232   -0.5253 C   0  0  2  0  0  0  0  0  0  0  0  0
    6.0360    1.1087    1.7474 H   0  0  0  0  0  0  0  0  0  0  0  0
    6.5785   -0.5637    1.9419 H   0  0  0  0  0  0  0  0  0  0  0  0
    7.3344    0.5194    0.7543 H   0  0  0  0  0  0  0  0  0  0  0  0
    6.2812   -2.2565   -0.0170 H   0  0  0  0  0  0  0  0  0  0  0  0
    7.0742   -1.0309   -1.0217 H   0  0  0  0  0  0  0  0  0  0  0  0
    5.5431   -1.6748   -1.5368 H   0  0  0  0  0  0  0  0  0  0  0  0
    3.3268    1.0990   -1.6164 H   0  0  0  0  0  0  0  0  0  0  0  0
    4.7916    3.2851   -0.9014 H   0  0  0  0  0  0  0  0  0  0  0  0
    2.9938    3.3296   -0.7292 H   0  0  0  0  0  0  0  0  0  0  0  0
    1.4041    1.8711    0.5361 H   0  0  0  0  0  0  0  0  0  0  0  0
    1.5216    0.7472    1.8240 H   0  0  0  0  0  0  0  0  0  0  0  0
    0.3372    1.1242   -1.7174 H   0  0  0  0  0  0  0  0  0  0  0  0
    1.6119   -0.0641   -1.9376 H   0  0  0  0  0  0  0  0  0  0  0  0
   -0.0266   -1.9117   -2.0492 H   0  0  0  0  0  0  0  0  0  0  0  0
   -0.1410   -0.7185   -3.2999 H   0  0  0  0  0  0  0  0  0  0  0  0
   -2.2902   -1.6710   -3.9205 H   0  0  0  0  0  0  0  0  0  0  0  0
   -2.3506   -2.7870   -2.5467 H   0  0  0  0  0  0  0  0  0  0  0  0
   -3.6698   -1.6356   -2.8286 H   0  0  0  0  0  0  0  0  0  0  0  0
   -4.7759    2.7164   -1.2292 H   0  0  0  0  0  0  0  0  0  0  0  0
   -4.9164    1.5276   -2.5490 H   0  0  0  0  0  0  0  0  0  0  0  0
   -3.8870    2.9504   -2.7244 H   0  0  0  0  0  0  0  0  0  0  0  0
   -1.8537    2.9517   -1.6971 H   0  0  0  0  0  0  0  0  0  0  0  0
   -5.3912    0.4096   -0.4233 H   0  0  0  0  0  0  0  0  0  0  0  0
   -2.8720    1.8703    1.1045 H   0  0  0  0  0  0  0  0  0  0  0  0
   -4.0272   -2.5731    2.7289 H   0  0  0  0  0  0  0  0  0  0  0  0
   -4.8643   -1.8778    1.3224 H   0  0  0  0  0  0  0  0  0  0  0  0
   -5.7011   -2.0656    2.8648 H   0  0  0  0  0  0  0  0  0  0  0  0
   -5.0466   -0.5573    4.6449 H   0  0  0  0  0  0  0  0  0  0  0  0
   -2.4699    0.7163    2.9203 H   0  0  0  0  0  0  0  0  0  0  0  0
    1.9276   -3.3212    0.7125 H   0  0  0  0  0  0  0  0  0  0  0  0
    4.0146   -2.6588    0.0893 H   0  0  0  0  0  0  0  0  0  0  0  0
    3.2908   -1.5928   -1.0956 H   0  0  0  0  0  0  0  0  0  0  0  0
    4.0819   -0.8654    1.7800 H   0  0  0  0  0  0  0  0  0  0  0  0
   -2.9539   -1.7669   -0.4392 H   0  0  0  0  0  0  0  0  0  0  0  0
  1  2  1  0
  2  3  1  0
  2  4  1  0
  4  5  1  0
  5  6  1  0
  6  7  1  0
  7  8  2  0
  7  9  1  0
 10  9  1  1
 10 11  1  0
 12 11  1  1
 12 13  1  0
 13 14  1  0
 14 15  1  0
 15 16  1  6
 15 17  1  0
 17 18  2  0
 17 19  1  0
 19 20  1  0
 19 21  1  1
 19 22  1  0
 22 23  1  6
 22 24  1  0
 24 25  1  0
 25 26  1  0
 26 27  2  0
 26 28  1  0
 28 29  1  0
 28 30  1  1
 28 31  1  0
 31 32  1  0
 33 32  1  1
 33 34  1  0
 33 35  1  0
 35 36  2  0
 35 37  1  0
 37 38  2  0
 38 39  1  0
 39 40  1  0
 33 41  1  0
 40  2  1  0
 10  5  1  0
 34 12  1  0
 40 10  1  0
 37 12  1  0
 41 15  1  0
 41 22  1  0
 31 24  1  0
  1 42  1  0
  1 43  1  0
  1 44  1  0
  3 45  1  0
  3 46  1  0
  3 47  1  0
  5 48  1  6
  6 49  1  0
  6 50  1  0
 11 51  1  0
 11 52  1  0
 13 53  1  0
 13 54  1  0
 14 55  1  0
 14 56  1  0
 16 57  1  0
 16 58  1  0
 16 59  1  0
 20 60  1  0
 20 61  1  0
 20 62  1  0
 21 63  1  0
 23 64  1  0
 24 65  1  6
 29 66  1  0
 29 67  1  0
 29 68  1  0
 30 69  1  0
 31 70  1  1
 38 71  1  0
 39 72  1  0
 39 73  1  0
 40 74  1  1
 41 75  1  6
M  END
$$$$
