
     RDKit          3D

 74 80  0  0  0  0  0  0  0  0999 V2000
   -2.4036    3.6781    0.5791 C   0  0  0  0  0  0  0  0  0  0  0  0
   -2.6848    2.9908   -0.7304 C   0  0  0  0  0  0  0  0  0  0  0  0
   -1.7437    2.4245   -1.5128 C   0  0  0  0  0  0  0  0  0  0  0  0
   -0.2885    2.4427   -1.2456 C   0  0  0  0  0  0  0  0  0  0  0  0
    0.3483    3.4162   -0.8839 O   0  0  0  0  0  0  0  0  0  0  0  0
    0.1986    1.2026   -1.5029 O   0  0  0  0  0  0  0  0  0  0  0  0
    1.6243    1.0467   -1.5061 C   0  0  0  0  0  0  0  0  0  0  0  0
    2.2241    0.2877   -0.2595 C   0  0  2  0  0  0  0  0  0  0  0  0
    2.3196    1.3591    0.9249 C   0  0  0  0  0  0  0  0  0  0  0  0
    3.5653    2.3036    0.9103 C   0  0  0  0  0  0  0  0  0  0  0  0
    4.7484    1.4232    0.7385 C   0  0  2  0  0  0  0  0  0  0  0  0
    5.1827    0.6231    1.9364 C   0  0  0  0  0  0  0  0  0  0  0  0
    5.7893    1.3746   -0.2114 O   0  0  0  0  0  0  0  0  0  0  0  0
    4.5728    0.9604   -0.7476 C   0  0  1  0  0  0  0  0  0  0  0  0
    3.6872   -0.2274   -0.7237 C   0  0  1  0  0  0  0  0  0  0  0  0
    4.2301   -1.2952    0.0515 O   0  0  0  0  0  0  0  0  0  0  0  0
    3.3189   -2.3517    0.3573 C   0  0  2  0  0  0  0  0  0  0  0  0
    2.5732   -2.8944   -0.8701 C   0  0  0  0  0  0  0  0  0  0  0  0
    1.2889   -2.0289   -0.9885 C   0  0  1  0  0  0  0  0  0  0  0  0
    0.1105   -2.8507   -0.8748 O   0  0  0  0  0  0  0  0  0  0  0  0
   -0.2080   -3.5839   -1.9701 C   0  0  0  0  0  0  0  0  0  0  0  0
    0.4882   -3.7382   -2.9613 O   0  0  0  0  0  0  0  0  0  0  0  0
   -1.5281   -4.2285   -1.8131 C   0  0  0  0  0  0  0  0  0  0  0  0
   -2.6657   -3.6264   -1.4249 C   0  0  0  0  0  0  0  0  0  0  0  0
   -2.8072   -2.2291   -1.0934 C   0  0  0  0  0  0  0  0  0  0  0  0
   -3.9374   -1.6388   -0.6761 C   0  0  0  0  0  0  0  0  0  0  0  0
   -3.9554   -0.1876   -0.3024 C   0  0  1  0  0  0  0  0  0  0  0  0
   -4.5220    0.5740   -1.3703 O   0  0  0  0  0  0  0  0  0  0  0  0
   -4.9905    1.7732   -0.7345 C   0  0  2  0  0  0  0  0  0  0  0  0
   -4.1495    2.9917   -1.1632 C   0  0  0  0  0  0  0  0  0  0  0  0
   -5.0052    1.6102    0.6910 O   0  0  0  0  0  0  0  0  0  0  0  0
   -4.8204    0.2005    0.8849 C   0  0  2  0  0  0  0  0  0  0  0  0
   -4.1787   -0.0648    2.2323 C   0  0  0  0  0  0  0  0  0  0  0  0
    1.3600   -0.9862    0.2007 C   0  0  2  0  0  0  0  0  0  0  0  0
   -0.0093   -0.6390    0.8033 C   0  0  0  0  0  0  0  0  0  0  0  0
    2.2251   -1.7720    1.1785 C   0  0  2  0  0  0  0  0  0  0  0  0
    2.2311   -1.7077    2.6911 C   0  0  0  0  0  0  0  0  0  0  0  0
    1.5321   -2.7407    1.9874 O   0  0  0  0  0  0  0  0  0  0  0  0
   -3.0742    3.3050    1.3593 H   0  0  0  0  0  0  0  0  0  0  0  0
   -2.5604    4.7568    0.4787 H   0  0  0  0  0  0  0  0  0  0  0  0
   -1.3855    3.5143    0.9412 H   0  0  0  0  0  0  0  0  0  0  0  0
   -2.0232    1.9073   -2.4261 H   0  0  0  0  0  0  0  0  0  0  0  0
    2.1116    2.0183   -1.6463 H   0  0  0  0  0  0  0  0  0  0  0  0
    1.8443    0.4917   -2.4246 H   0  0  0  0  0  0  0  0  0  0  0  0
    1.4141    1.9730    0.9602 H   0  0  0  0  0  0  0  0  0  0  0  0
    2.3373    0.8344    1.8834 H   0  0  0  0  0  0  0  0  0  0  0  0
    3.4731    3.0547    0.1171 H   0  0  0  0  0  0  0  0  0  0  0  0
    3.6188    2.8509    1.8582 H   0  0  0  0  0  0  0  0  0  0  0  0
    5.5947    1.2994    2.6932 H   0  0  0  0  0  0  0  0  0  0  0  0
    5.9652   -0.1030    1.6890 H   0  0  0  0  0  0  0  0  0  0  0  0
    4.3577    0.0797    2.3978 H   0  0  0  0  0  0  0  0  0  0  0  0
    4.2485    1.6348   -1.5322 H   0  0  0  0  0  0  0  0  0  0  0  0
    3.6309   -0.5969   -1.7544 H   0  0  0  0  0  0  0  0  0  0  0  0
    3.8782   -3.1421    0.8673 H   0  0  0  0  0  0  0  0  0  0  0  0
    2.3075   -3.9454   -0.7063 H   0  0  0  0  0  0  0  0  0  0  0  0
    3.1824   -2.8345   -1.7774 H   0  0  0  0  0  0  0  0  0  0  0  0
    1.2442   -1.5231   -1.9569 H   0  0  0  0  0  0  0  0  0  0  0  0
   -1.5432   -5.2695   -2.1175 H   0  0  0  0  0  0  0  0  0  0  0  0
   -3.5703   -4.2304   -1.3786 H   0  0  0  0  0  0  0  0  0  0  0  0
   -1.9268   -1.6041   -1.2095 H   0  0  0  0  0  0  0  0  0  0  0  0
   -4.8635   -2.1982   -0.5876 H   0  0  0  0  0  0  0  0  0  0  0  0
   -2.9354    0.1800   -0.1480 H   0  0  0  0  0  0  0  0  0  0  0  0
   -6.0246    1.9279   -1.0628 H   0  0  0  0  0  0  0  0  0  0  0  0
   -4.6198    3.9035   -0.7734 H   0  0  0  0  0  0  0  0  0  0  0  0
   -4.1878    3.0680   -2.2580 H   0  0  0  0  0  0  0  0  0  0  0  0
   -5.8104   -0.2701    0.8355 H   0  0  0  0  0  0  0  0  0  0  0  0
   -4.0093   -1.1337    2.3909 H   0  0  0  0  0  0  0  0  0  0  0  0
   -4.8179    0.3124    3.0376 H   0  0  0  0  0  0  0  0  0  0  0  0
   -3.2215    0.4607    2.3224 H   0  0  0  0  0  0  0  0  0  0  0  0
   -0.6866   -0.2133    0.0676 H   0  0  0  0  0  0  0  0  0  0  0  0
   -0.5133   -1.5219    1.2121 H   0  0  0  0  0  0  0  0  0  0  0  0
    0.0730    0.0731    1.6297 H   0  0  0  0  0  0  0  0  0  0  0  0
    3.1382   -1.9853    3.2147 H   0  0  0  0  0  0  0  0  0  0  0  0
    1.6331   -0.9656    3.2028 H   0  0  0  0  0  0  0  0  0  0  0  0
  1  2  1  0
  2  3  2  0
  3  4  1  0
  4  5  2  0
  4  6  1  0
  6  7  1  0
  8  7  1  6
  8  9  1  0
  9 10  1  0
 10 11  1  0
 11 12  1  1
 11 13  1  0
 13 14  1  0
 14 15  1  0
 15 16  1  0
 16 17  1  0
 17 18  1  0
 18 19  1  0
 19 20  1  0
 20 21  1  0
 21 22  2  0
 21 23  1  0
 23 24  2  0
 24 25  1  0
 25 26  2  0
 26 27  1  0
 27 28  1  0
 28 29  1  0
 29 30  1  0
 29 31  1  0
 31 32  1  0
 32 33  1  0
 19 34  1  0
 34 35  1  1
 34 36  1  0
 36 37  1  0
 37 38  1  0
 30  2  1  0
 36 38  1  1
 15  8  1  0
 36 17  1  0
 34  8  1  0
 14 11  1  0
 32 27  1  0
  1 39  1  0
  1 40  1  0
  1 41  1  0
  3 42  1  0
  7 43  1  0
  7 44  1  0
  9 45  1  0
  9 46  1  0
 10 47  1  0
 10 48  1  0
 12 49  1  0
 12 50  1  0
 12 51  1  0
 14 52  1  6
 15 53  1  6
 17 54  1  1
 18 55  1  0
 18 56  1  0
 19 57  1  6
 23 58  1  0
 24 59  1  0
 25 60  1  0
 26 61  1  0
 27 62  1  1
 29 63  1  6
 30 64  1  0
 30 65  1  0
 32 66  1  1
 33 67  1  0
 33 68  1  0
 33 69  1  0
 35 70  1  0
 35 71  1  0
 35 72  1  0
 37 73  1  0
 37 74  1  0
M  END
$$$$
