
     RDKit          3D

 48 51  0  0  0  0  0  0  0  0999 V2000
   -0.2794   -4.5809   -0.3889 C   0  0  0  0  0  0  0  0  0  0  0  0
   -1.4397   -3.7319   -0.3373 N   0  0  0  0  0  0  0  0  0  0  0  0
   -2.7419   -4.1210   -0.4878 C   0  0  0  0  0  0  0  0  0  0  0  0
   -3.5715   -3.1031   -0.3835 N   0  0  0  0  0  0  0  0  0  0  0  0
   -2.7586   -2.0083   -0.1541 C   0  0  0  0  0  0  0  0  0  0  0  0
   -3.0398   -0.6450    0.0428 C   0  0  0  0  0  0  0  0  0  0  0  0
   -4.3358   -0.1756    0.0328 N   0  0  0  0  0  0  0  0  0  0  0  0
   -4.6803    1.2066    0.2663 C   0  0  0  0  0  0  0  0  0  0  0  0
   -4.9571    1.9460   -1.0410 C   0  0  0  0  0  0  0  0  0  0  0  0
   -3.7588    2.0582   -1.9744 C   0  0  0  0  0  0  0  0  0  0  0  0
   -2.6425    2.6290   -1.3081 O   0  0  0  0  0  0  0  0  0  0  0  0
   -1.9864    0.1960    0.2348 N   0  0  0  0  0  0  0  0  0  0  0  0
   -0.7203   -0.3038    0.2624 C   0  0  0  0  0  0  0  0  0  0  0  0
    0.3750    0.6597    0.5198 C   0  0  0  0  0  0  0  0  0  0  0  0
    0.1179    1.9623    0.9839 C   0  0  0  0  0  0  0  0  0  0  0  0
    1.1533    2.8674    1.2258 C   0  0  0  0  0  0  0  0  0  0  0  0
    2.4769    2.4879    1.0117 C   0  0  0  0  0  0  0  0  0  0  0  0
    2.7885    1.2013    0.5530 C   0  0  0  0  0  0  0  0  0  0  0  0
    4.1850    0.7956    0.3234 C   0  0  0  0  0  0  0  0  0  0  0  0
    5.1487    0.9111    1.3390 C   0  0  0  0  0  0  0  0  0  0  0  0
    6.4745    0.5260    1.1217 C   0  0  0  0  0  0  0  0  0  0  0  0
    6.8593    0.0195   -0.1171 C   0  0  0  0  0  0  0  0  0  0  0  0
    5.9200   -0.1026   -1.1379 C   0  0  0  0  0  0  0  0  0  0  0  0
    4.5943    0.2817   -0.9184 C   0  0  0  0  0  0  0  0  0  0  0  0
    1.7266    0.3071    0.3155 C   0  0  0  0  0  0  0  0  0  0  0  0
   -0.3638   -1.5950    0.0777 N   0  0  0  0  0  0  0  0  0  0  0  0
   -1.4284   -2.3828   -0.1232 C   0  0  0  0  0  0  0  0  0  0  0  0
    0.3690   -4.2356   -1.1983 H   0  0  0  0  0  0  0  0  0  0  0  0
   -0.5882   -5.6123   -0.5772 H   0  0  0  0  0  0  0  0  0  0  0  0
    0.2398   -4.5197    0.5710 H   0  0  0  0  0  0  0  0  0  0  0  0
   -3.0305   -5.1487   -0.6696 H   0  0  0  0  0  0  0  0  0  0  0  0
   -5.0631   -0.8687   -0.1087 H   0  0  0  0  0  0  0  0  0  0  0  0
   -3.9298    1.7287    0.8713 H   0  0  0  0  0  0  0  0  0  0  0  0
   -5.6007    1.2229    0.8625 H   0  0  0  0  0  0  0  0  0  0  0  0
   -5.7826    1.4634   -1.5778 H   0  0  0  0  0  0  0  0  0  0  0  0
   -5.2902    2.9586   -0.7812 H   0  0  0  0  0  0  0  0  0  0  0  0
   -4.0111    2.7069   -2.8194 H   0  0  0  0  0  0  0  0  0  0  0  0
   -3.4695    1.0858   -2.3859 H   0  0  0  0  0  0  0  0  0  0  0  0
   -2.2673    1.9077   -0.7603 H   0  0  0  0  0  0  0  0  0  0  0  0
   -0.9048    2.2887    1.1674 H   0  0  0  0  0  0  0  0  0  0  0  0
    0.9245    3.8704    1.5770 H   0  0  0  0  0  0  0  0  0  0  0  0
    3.2689    3.2116    1.1935 H   0  0  0  0  0  0  0  0  0  0  0  0
    4.8666    1.2949    2.3174 H   0  0  0  0  0  0  0  0  0  0  0  0
    7.2042    0.6209    1.9215 H   0  0  0  0  0  0  0  0  0  0  0  0
    7.8904   -0.2786   -0.2872 H   0  0  0  0  0  0  0  0  0  0  0  0
    6.2172   -0.4933   -2.1074 H   0  0  0  0  0  0  0  0  0  0  0  0
    3.8786    0.1895   -1.7330 H   0  0  0  0  0  0  0  0  0  0  0  0
    1.9630   -0.6985   -0.0327 H   0  0  0  0  0  0  0  0  0  0  0  0
  1  2  1  0
  2  3  1  0
  3  4  2  0
  4  5  1  0
  5  6  2  0
  6  7  1  0
  7  8  1  0
  8  9  1  0
  9 10  1  0
 10 11  1  0
  6 12  1  0
 12 13  2  0
 13 14  1  0
 14 15  2  0
 15 16  1  0
 16 17  2  0
 17 18  1  0
 18 19  1  0
 19 20  2  0
 20 21  1  0
 21 22  2  0
 22 23  1  0
 23 24  2  0
 18 25  2  0
 13 26  1  0
 26 27  2  0
 27  2  1  0
 27  5  1  0
 25 14  1  0
 24 19  1  0
  1 28  1  0
  1 29  1  0
  1 30  1  0
  3 31  1  0
  7 32  1  0
  8 33  1  0
  8 34  1  0
  9 35  1  0
  9 36  1  0
 10 37  1  0
 10 38  1  0
 11 39  1  0
 15 40  1  0
 16 41  1  0
 17 42  1  0
 20 43  1  0
 21 44  1  0
 22 45  1  0
 23 46  1  0
 24 47  1  0
 25 48  1  0
M  END
$$$$
