
     RDKit          3D

 44 46  0  0  0  0  0  0  0  0999 V2000
    4.6819    2.1899    0.8310 C   0  0  0  0  0  0  0  0  0  0  0  0
    3.9147    1.0103    0.4330 C   0  0  0  0  0  0  0  0  0  0  0  0
    3.2649    0.0504    0.1165 C   0  0  0  0  0  0  0  0  0  0  0  0
    2.4505   -1.1211   -0.2716 C   0  0  1  0  0  0  0  0  0  0  0  0
    3.3461   -2.1434   -0.7196 O   0  0  0  0  0  0  0  0  0  0  0  0
    1.6772   -1.6735    0.9299 C   0  0  0  0  0  0  0  0  0  0  0  0
    0.4900   -0.7952    1.3414 C   0  0  0  0  0  0  0  0  0  0  0  0
   -0.5166   -0.5365    0.1809 C   0  0  1  0  0  0  0  0  0  0  0  0
   -1.2207   -1.8646   -0.2739 C   0  0  0  0  0  0  0  0  0  0  0  0
   -1.8797   -2.7048    0.8185 C   0  0  0  0  0  0  0  0  0  0  0  0
   -1.6120    0.4712    0.5667 C   0  0  0  0  0  0  0  0  0  0  0  0
   -2.1551    0.5143    1.8576 C   0  0  0  0  0  0  0  0  0  0  0  0
   -3.1841    1.4107    2.1917 C   0  0  0  0  0  0  0  0  0  0  0  0
   -3.7416    2.3170    1.2813 C   0  0  0  0  0  0  0  0  0  0  0  0
   -4.6748    3.1281    1.5922 O   0  0  0  0  0  0  0  0  0  0  0  0
   -3.1779    2.2559   -0.0036 C   0  0  0  0  0  0  0  0  0  0  0  0
   -2.1417    1.3662   -0.3794 C   0  0  0  0  0  0  0  0  0  0  0  0
   -1.6139    1.4912   -1.7860 C   0  0  0  0  0  0  0  0  0  0  0  0
   -0.5722    0.4506   -2.1835 C   0  0  0  0  0  0  0  0  0  0  0  0
    0.3191    0.0967   -0.9901 C   0  0  2  0  0  0  0  0  0  0  0  0
    1.5064   -0.7760   -1.4324 C   0  0  0  0  0  0  0  0  0  0  0  0
    5.6928    1.9098    1.1422 H   0  0  0  0  0  0  0  0  0  0  0  0
    4.7660    2.8976    0.0008 H   0  0  0  0  0  0  0  0  0  0  0  0
    4.1992    2.7039    1.6676 H   0  0  0  0  0  0  0  0  0  0  0  0
    3.9315   -1.7255   -1.3735 H   0  0  0  0  0  0  0  0  0  0  0  0
    1.3243   -2.6882    0.7047 H   0  0  0  0  0  0  0  0  0  0  0  0
    2.3503   -1.7944    1.7896 H   0  0  0  0  0  0  0  0  0  0  0  0
    0.8703    0.1653    1.7161 H   0  0  0  0  0  0  0  0  0  0  0  0
    0.0048   -1.2687    2.2013 H   0  0  0  0  0  0  0  0  0  0  0  0
   -2.0006   -1.6421   -1.0129 H   0  0  0  0  0  0  0  0  0  0  0  0
   -0.5047   -2.5182   -0.7824 H   0  0  0  0  0  0  0  0  0  0  0  0
   -1.1551   -3.0559    1.5576 H   0  0  0  0  0  0  0  0  0  0  0  0
   -2.6751   -2.1599    1.3321 H   0  0  0  0  0  0  0  0  0  0  0  0
   -2.3366   -3.5934    0.3690 H   0  0  0  0  0  0  0  0  0  0  0  0
   -1.8121   -0.1520    2.6409 H   0  0  0  0  0  0  0  0  0  0  0  0
   -3.5736    1.4008    3.2090 H   0  0  0  0  0  0  0  0  0  0  0  0
   -3.5678    2.9507   -0.7489 H   0  0  0  0  0  0  0  0  0  0  0  0
   -1.1561    2.4852   -1.8770 H   0  0  0  0  0  0  0  0  0  0  0  0
   -2.4453    1.4507   -2.5001 H   0  0  0  0  0  0  0  0  0  0  0  0
    0.0284    0.8503   -3.0101 H   0  0  0  0  0  0  0  0  0  0  0  0
   -1.0652   -0.4433   -2.5813 H   0  0  0  0  0  0  0  0  0  0  0  0
    0.7451    1.0456   -0.6270 H   0  0  0  0  0  0  0  0  0  0  0  0
    2.0684   -0.2578   -2.2224 H   0  0  0  0  0  0  0  0  0  0  0  0
    1.1506   -1.6983   -1.9082 H   0  0  0  0  0  0  0  0  0  0  0  0
  1  2  1  0
  2  3  3  0
  4  3  1  1
  4  5  1  0
  4  6  1  0
  6  7  1  0
  7  8  1  0
  8  9  1  6
  9 10  1  0
  8 11  1  0
 11 12  2  0
 12 13  1  0
 13 14  2  0
 14 15  1  0
 14 16  1  0
 16 17  2  0
 17 18  1  0
 18 19  1  0
 19 20  1  0
 20 21  1  0
 21  4  1  0
 20  8  1  0
 17 11  1  0
  1 22  1  0
  1 23  1  0
  1 24  1  0
  5 25  1  0
  6 26  1  0
  6 27  1  0
  7 28  1  0
  7 29  1  0
  9 30  1  0
  9 31  1  0
 10 32  1  0
 10 33  1  0
 10 34  1  0
 12 35  1  0
 13 36  1  0
 16 37  1  0
 18 38  1  0
 18 39  1  0
 19 40  1  0
 19 41  1  0
 20 42  1  1
 21 43  1  0
 21 44  1  0
M  CHG  1  15  -1
M  END
$$$$
