
     RDKit          3D

 82 86  0  0  0  0  0  0  0  0999 V2000
   -2.8221    0.3708    4.9622 C   0  0  0  0  0  0  0  0  0  0  0  0
   -2.7316   -0.5451    3.7814 C   0  0  0  0  0  0  0  0  0  0  0  0
   -3.4096   -1.5511    3.6259 O   0  0  0  0  0  0  0  0  0  0  0  0
   -1.7978   -0.0897    2.9078 O   0  0  0  0  0  0  0  0  0  0  0  0
   -1.5755   -0.9031    1.7318 C   0  0  1  0  0  0  0  0  0  0  0  0
   -0.9331   -0.0144    0.6439 C   0  0  2  0  0  0  0  0  0  0  0  0
   -1.8637    1.0411    0.2862 O   0  0  0  0  0  0  0  0  0  0  0  0
   -1.7094    2.2376    0.9073 C   0  0  0  0  0  0  0  0  0  0  0  0
   -0.8831    2.5043    1.7643 O   0  0  0  0  0  0  0  0  0  0  0  0
   -2.6778    3.2304    0.3721 C   0  0  0  0  0  0  0  0  0  0  0  0
   -2.5377    4.5676    0.7687 C   0  0  0  0  0  0  0  0  0  0  0  0
   -3.4189    5.5395    0.2917 C   0  0  0  0  0  0  0  0  0  0  0  0
   -4.4442    5.1812   -0.5823 C   0  0  0  0  0  0  0  0  0  0  0  0
   -4.5912    3.8528   -0.9808 C   0  0  0  0  0  0  0  0  0  0  0  0
   -3.7113    2.8771   -0.5060 C   0  0  0  0  0  0  0  0  0  0  0  0
   -0.5702   -0.8115   -0.6600 C   0  0  1  0  0  0  0  0  0  0  0  0
   -1.8865   -1.2025   -1.4008 C   0  0  0  0  0  0  0  0  0  0  0  0
    0.2052    0.1188   -1.6807 C   0  0  1  0  0  0  0  0  0  0  0  0
    0.8785    1.1898   -0.9854 O   0  0  0  0  0  0  0  0  0  0  0  0
    0.9978    2.3680   -1.6539 C   0  0  0  0  0  0  0  0  0  0  0  0
    0.6132    2.5789   -2.7937 O   0  0  0  0  0  0  0  0  0  0  0  0
    1.6867    3.3909   -0.8221 C   0  0  0  0  0  0  0  0  0  0  0  0
    1.9732    4.6327   -1.4066 C   0  0  0  0  0  0  0  0  0  0  0  0
    2.6181    5.6277   -0.6692 C   0  0  0  0  0  0  0  0  0  0  0  0
    2.9779    5.3893    0.6561 C   0  0  0  0  0  0  0  0  0  0  0  0
    2.6938    4.1583    1.2459 C   0  0  0  0  0  0  0  0  0  0  0  0
    2.0517    3.1595    0.5100 C   0  0  0  0  0  0  0  0  0  0  0  0
    1.2185   -0.6215   -2.5965 C   0  0  0  0  0  0  0  0  0  0  0  0
    1.8970   -1.8735   -1.9883 C   0  0  2  0  0  0  0  0  0  0  0  0
    0.7714   -2.8042   -1.5536 C   0  0  1  0  0  0  0  0  0  0  0  0
    1.2465   -4.1354   -1.3253 O   0  0  0  0  0  0  0  0  0  0  0  0
    1.3792   -4.9253   -2.4231 C   0  0  0  0  0  0  0  0  0  0  0  0
    1.8715   -6.2814   -2.0230 C   0  0  0  0  0  0  0  0  0  0  0  0
    1.1380   -4.5820   -3.5714 O   0  0  0  0  0  0  0  0  0  0  0  0
    0.3211   -2.0629   -0.2655 C   0  0  1  0  0  0  0  0  0  0  0  0
    1.5685   -1.4752    0.3032 O   0  0  0  0  0  0  0  0  0  0  0  0
    2.6364   -1.6230   -0.6607 C   0  0  0  0  0  0  0  0  0  0  0  0
    3.5295   -2.7974   -0.2055 C   0  0  0  0  0  0  0  0  0  0  0  0
    3.5591   -0.3990   -0.6560 C   0  0  0  0  0  0  0  0  0  0  0  0
   -0.2882   -2.9627    0.8724 C   0  0  1  0  0  0  0  0  0  0  0  0
   -1.4576   -3.8605    0.4532 C   0  0  0  0  0  0  0  0  0  0  0  0
    0.7217   -3.8892    1.3397 O   0  0  0  0  0  0  0  0  0  0  0  0
   -0.6694   -2.0941    2.0991 C   0  0  1  0  0  0  0  0  0  0  0  0
    0.5426   -1.6344    2.7438 O   0  0  0  0  0  0  0  0  0  0  0  0
   -3.5678   -0.0147    5.6634 H   0  0  0  0  0  0  0  0  0  0  0  0
   -3.1315    1.3667    4.6353 H   0  0  0  0  0  0  0  0  0  0  0  0
   -1.8562    0.4153    5.4714 H   0  0  0  0  0  0  0  0  0  0  0  0
   -2.5516   -1.2455    1.3707 H   0  0  0  0  0  0  0  0  0  0  0  0
   -0.0263    0.4321    1.0682 H   0  0  0  0  0  0  0  0  0  0  0  0
   -1.7377    4.8581    1.4477 H   0  0  0  0  0  0  0  0  0  0  0  0
   -3.3033    6.5755    0.6006 H   0  0  0  0  0  0  0  0  0  0  0  0
   -5.1294    5.9391   -0.9549 H   0  0  0  0  0  0  0  0  0  0  0  0
   -5.3913    3.5770   -1.6636 H   0  0  0  0  0  0  0  0  0  0  0  0
   -3.8457    1.8486   -0.8293 H   0  0  0  0  0  0  0  0  0  0  0  0
   -2.4431   -0.3097   -1.7121 H   0  0  0  0  0  0  0  0  0  0  0  0
   -2.5783   -1.7706   -0.7849 H   0  0  0  0  0  0  0  0  0  0  0  0
   -1.7086   -1.7703   -2.3167 H   0  0  0  0  0  0  0  0  0  0  0  0
   -0.5388    0.5887   -2.3374 H   0  0  0  0  0  0  0  0  0  0  0  0
    1.6939    4.8305   -2.4398 H   0  0  0  0  0  0  0  0  0  0  0  0
    2.8369    6.5884   -1.1286 H   0  0  0  0  0  0  0  0  0  0  0  0
    3.4760    6.1650    1.2326 H   0  0  0  0  0  0  0  0  0  0  0  0
    2.9639    3.9754    2.2832 H   0  0  0  0  0  0  0  0  0  0  0  0
    1.8283    2.2139    0.9978 H   0  0  0  0  0  0  0  0  0  0  0  0
    0.6744   -0.9521   -3.4919 H   0  0  0  0  0  0  0  0  0  0  0  0
    1.9907    0.0696   -2.9534 H   0  0  0  0  0  0  0  0  0  0  0  0
    2.5658   -2.3251   -2.7287 H   0  0  0  0  0  0  0  0  0  0  0  0
   -0.0347   -2.8749   -2.2860 H   0  0  0  0  0  0  0  0  0  0  0  0
    1.1616   -6.7444   -1.3330 H   0  0  0  0  0  0  0  0  0  0  0  0
    1.9558   -6.9132   -2.9117 H   0  0  0  0  0  0  0  0  0  0  0  0
    2.8578   -6.1951   -1.5603 H   0  0  0  0  0  0  0  0  0  0  0  0
    2.9738   -3.6809    0.1083 H   0  0  0  0  0  0  0  0  0  0  0  0
    4.1091   -2.5156    0.6827 H   0  0  0  0  0  0  0  0  0  0  0  0
    4.2363   -3.0853   -0.9907 H   0  0  0  0  0  0  0  0  0  0  0  0
    3.9413   -0.2068    0.3537 H   0  0  0  0  0  0  0  0  0  0  0  0
    4.4119   -0.5476   -1.3277 H   0  0  0  0  0  0  0  0  0  0  0  0
    3.0717    0.5224   -0.9583 H   0  0  0  0  0  0  0  0  0  0  0  0
   -1.5760   -4.6873    1.1652 H   0  0  0  0  0  0  0  0  0  0  0  0
   -1.2842   -4.3277   -0.5206 H   0  0  0  0  0  0  0  0  0  0  0  0
   -2.4170   -3.3453    0.4230 H   0  0  0  0  0  0  0  0  0  0  0  0
    1.2905   -3.3810    1.9533 H   0  0  0  0  0  0  0  0  0  0  0  0
   -1.1548   -2.7190    2.8570 H   0  0  0  0  0  0  0  0  0  0  0  0
    1.1182   -1.2317    2.0587 H   0  0  0  0  0  0  0  0  0  0  0  0
  1  2  1  0
  2  3  2  0
  2  4  1  0
  4  5  1  0
  5  6  1  0
  6  7  1  0
  7  8  1  0
  8  9  2  0
  8 10  1  0
 10 11  2  0
 11 12  1  0
 12 13  2  0
 13 14  1  0
 14 15  2  0
  6 16  1  0
 16 17  1  6
 16 18  1  0
 18 19  1  0
 19 20  1  0
 20 21  2  0
 20 22  1  0
 22 23  2  0
 23 24  1  0
 24 25  2  0
 25 26  1  0
 26 27  2  0
 18 28  1  0
 28 29  1  0
 29 30  1  0
 30 31  1  0
 31 32  1  0
 32 33  1  0
 32 34  2  0
 30 35  1  0
 35 36  1  1
 36 37  1  0
 37 38  1  0
 37 39  1  0
 35 40  1  0
 40 41  1  0
 40 42  1  1
 40 43  1  0
 43 44  1  0
 43  5  1  0
 15 10  1  0
 35 16  1  0
 27 22  1  0
 37 29  1  0
  1 45  1  0
  1 46  1  0
  1 47  1  0
  5 48  1  6
  6 49  1  1
 11 50  1  0
 12 51  1  0
 13 52  1  0
 14 53  1  0
 15 54  1  0
 17 55  1  0
 17 56  1  0
 17 57  1  0
 18 58  1  6
 23 59  1  0
 24 60  1  0
 25 61  1  0
 26 62  1  0
 27 63  1  0
 28 64  1  0
 28 65  1  0
 29 66  1  6
 30 67  1  6
 33 68  1  0
 33 69  1  0
 33 70  1  0
 38 71  1  0
 38 72  1  0
 38 73  1  0
 39 74  1  0
 39 75  1  0
 39 76  1  0
 41 77  1  0
 41 78  1  0
 41 79  1  0
 42 80  1  0
 43 81  1  1
 44 82  1  0
M  END
$$$$
