
     RDKit          3D

 74 78  0  0  0  0  0  0  0  0999 V2000
   11.1870   -1.3694   -1.1075 C   0  0  0  0  0  0  0  0  0  0  0  0
   10.4137   -2.2076   -0.0984 C   0  0  2  0  0  0  0  0  0  0  0  0
    9.9788   -3.4091   -0.7435 O   0  0  0  0  0  0  0  0  0  0  0  0
    9.2092   -1.4628    0.5099 C   0  0  0  0  0  0  0  0  0  0  0  0
    8.1824   -1.2568   -0.4927 N   0  0  0  0  0  0  0  0  0  0  0  0
    6.9429   -0.7961   -0.1432 C   0  0  0  0  0  0  0  0  0  0  0  0
    6.5882   -0.7115    1.1415 N   0  0  0  0  0  0  0  0  0  0  0  0
    5.3477   -0.2698    1.4036 C   0  0  0  0  0  0  0  0  0  0  0  0
    4.4515    0.1093    0.4337 C   0  0  0  0  0  0  0  0  0  0  0  0
    4.9046    0.0190   -0.8633 C   0  0  0  0  0  0  0  0  0  0  0  0
    4.0791    0.3691   -1.9770 N   0  0  0  0  0  0  0  0  0  0  0  0
    4.3667    0.0008   -3.2802 C   0  0  0  0  0  0  0  0  0  0  0  0
    3.2925    0.3836   -4.0374 C   0  0  0  0  0  0  0  0  0  0  0  0
    2.3751    1.0348   -3.2679 N   0  0  0  0  0  0  0  0  0  0  0  0
    2.8843    1.0898   -2.0463 C   0  0  0  0  0  0  0  0  0  0  0  0
    2.2690    1.8801   -0.9800 C   0  0  0  0  0  0  0  0  0  0  0  0
    2.9251    2.9973   -0.4496 C   0  0  0  0  0  0  0  0  0  0  0  0
    2.3141    3.7576    0.5449 C   0  0  0  0  0  0  0  0  0  0  0  0
    1.0409    3.4124    1.0038 C   0  0  0  0  0  0  0  0  0  0  0  0
    0.3626    2.3062    0.4744 C   0  0  0  0  0  0  0  0  0  0  0  0
   -0.9285    2.0399    0.9841 N   0  0  0  0  0  0  0  0  0  0  0  0
   -1.7567    0.9860    0.6453 C   0  0  0  0  0  0  0  0  0  0  0  0
   -1.5154    0.0856   -0.1500 O   0  0  0  0  0  0  0  0  0  0  0  0
   -3.0958    0.9768    1.3028 C   0  0  0  0  0  0  0  0  0  0  0  0
   -4.1682    0.4236    0.5825 C   0  0  0  0  0  0  0  0  0  0  0  0
   -5.4656    0.3489    1.1080 C   0  0  0  0  0  0  0  0  0  0  0  0
   -6.4969   -0.2211    0.3705 N   0  0  0  0  0  0  0  0  0  0  0  0
   -7.6579   -0.8195    1.0469 C   0  0  0  0  0  0  0  0  0  0  0  0
   -8.2813   -1.9408    0.1883 C   0  0  0  0  0  0  0  0  0  0  0  0
   -8.5775   -1.4444   -1.2234 N   0  0  0  0  0  0  0  0  0  0  0  0
   -9.2423   -2.4940   -2.0610 C   0  0  0  0  0  0  0  0  0  0  0  0
   -7.3036   -0.9149   -1.8775 C   0  0  0  0  0  0  0  0  0  0  0  0
   -6.6873    0.2131   -1.0267 C   0  0  0  0  0  0  0  0  0  0  0  0
   -5.6491    0.8436    2.4069 C   0  0  0  0  0  0  0  0  0  0  0  0
   -4.5909    1.3978    3.1569 C   0  0  0  0  0  0  0  0  0  0  0  0
   -4.8392    1.8859    4.5650 C   0  0  0  0  0  0  0  0  0  0  0  0
   -3.9366    2.8197    4.9693 F   0  0  0  0  0  0  0  0  0  0  0  0
   -6.0658    2.4577    4.7115 F   0  0  0  0  0  0  0  0  0  0  0  0
   -4.7811    0.8772    5.4740 F   0  0  0  0  0  0  0  0  0  0  0  0
   -3.3063    1.4500    2.5983 C   0  0  0  0  0  0  0  0  0  0  0  0
    0.9831    1.5496   -0.5227 C   0  0  0  0  0  0  0  0  0  0  0  0
    6.1430   -0.4500   -1.1561 N   0  0  0  0  0  0  0  0  0  0  0  0
   10.5835   -1.1427   -1.9923 H   0  0  0  0  0  0  0  0  0  0  0  0
   12.0610   -1.9243   -1.4661 H   0  0  0  0  0  0  0  0  0  0  0  0
   11.5312   -0.4305   -0.6637 H   0  0  0  0  0  0  0  0  0  0  0  0
   11.0941   -2.4988    0.7093 H   0  0  0  0  0  0  0  0  0  0  0  0
    9.0314   -3.2866   -0.9467 H   0  0  0  0  0  0  0  0  0  0  0  0
    9.5281   -0.5075    0.9421 H   0  0  0  0  0  0  0  0  0  0  0  0
    8.8074   -2.0897    1.3159 H   0  0  0  0  0  0  0  0  0  0  0  0
    8.4025   -1.1404   -1.4708 H   0  0  0  0  0  0  0  0  0  0  0  0
    5.0820   -0.2382    2.4566 H   0  0  0  0  0  0  0  0  0  0  0  0
    3.4578    0.4092    0.7246 H   0  0  0  0  0  0  0  0  0  0  0  0
    5.2716   -0.5344   -3.5328 H   0  0  0  0  0  0  0  0  0  0  0  0
    3.1360    0.2280   -5.0971 H   0  0  0  0  0  0  0  0  0  0  0  0
    3.9055    3.2911   -0.8200 H   0  0  0  0  0  0  0  0  0  0  0  0
    2.8237    4.6275    0.9531 H   0  0  0  0  0  0  0  0  0  0  0  0
    0.5877    4.0291    1.7761 H   0  0  0  0  0  0  0  0  0  0  0  0
   -1.2788    2.7259    1.6386 H   0  0  0  0  0  0  0  0  0  0  0  0
   -3.9548    0.0096   -0.4018 H   0  0  0  0  0  0  0  0  0  0  0  0
   -8.4064   -0.0425    1.2437 H   0  0  0  0  0  0  0  0  0  0  0  0
   -7.3708   -1.2667    2.0062 H   0  0  0  0  0  0  0  0  0  0  0  0
   -9.2290   -2.2762    0.6216 H   0  0  0  0  0  0  0  0  0  0  0  0
   -7.5968   -2.7913    0.0916 H   0  0  0  0  0  0  0  0  0  0  0  0
   -9.2273   -0.6524   -1.1391 H   0  0  0  0  0  0  0  0  0  0  0  0
   -8.5632   -3.3445   -2.1631 H   0  0  0  0  0  0  0  0  0  0  0  0
  -10.1679   -2.7899   -1.5606 H   0  0  0  0  0  0  0  0  0  0  0  0
   -9.4697   -2.0551   -3.0359 H   0  0  0  0  0  0  0  0  0  0  0  0
   -6.6151   -1.7619   -1.9742 H   0  0  0  0  0  0  0  0  0  0  0  0
   -7.5784   -0.5437   -2.8700 H   0  0  0  0  0  0  0  0  0  0  0  0
   -7.3541    1.0845   -1.0338 H   0  0  0  0  0  0  0  0  0  0  0  0
   -5.7554    0.5240   -1.5094 H   0  0  0  0  0  0  0  0  0  0  0  0
   -6.6363    0.8233    2.8665 H   0  0  0  0  0  0  0  0  0  0  0  0
   -2.4808    1.8293    3.1974 H   0  0  0  0  0  0  0  0  0  0  0  0
    0.4856    0.7010   -0.9837 H   0  0  0  0  0  0  0  0  0  0  0  0
  1  2  1  0
  2  3  1  0
  2  4  1  0
  4  5  1  0
  5  6  1  0
  6  7  2  0
  7  8  1  0
  8  9  2  0
  9 10  1  0
 10 11  1  0
 11 12  1  0
 12 13  2  0
 13 14  1  0
 14 15  2  0
 15 16  1  0
 16 17  2  0
 17 18  1  0
 18 19  2  0
 19 20  1  0
 20 21  1  0
 21 22  1  0
 22 23  2  0
 22 24  1  0
 24 25  2  0
 25 26  1  0
 26 27  1  0
 27 28  1  0
 28 29  1  0
 29 30  1  0
 30 31  1  0
 30 32  1  0
 32 33  1  0
 26 34  2  0
 34 35  1  0
 35 36  1  0
 36 37  1  0
 36 38  1  0
 36 39  1  0
 35 40  2  0
 20 41  2  0
 10 42  2  0
 42  6  1  0
 15 11  1  0
 41 16  1  0
 40 24  1  0
 33 27  1  0
  1 43  1  0
  1 44  1  0
  1 45  1  0
  2 46  1  1
  3 47  1  0
  4 48  1  0
  4 49  1  0
  5 50  1  0
  8 51  1  0
  9 52  1  0
 12 53  1  0
 13 54  1  0
 17 55  1  0
 18 56  1  0
 19 57  1  0
 21 58  1  0
 25 59  1  0
 28 60  1  0
 28 61  1  0
 29 62  1  0
 29 63  1  0
 30 64  1  0
 31 65  1  0
 31 66  1  0
 31 67  1  0
 32 68  1  0
 32 69  1  0
 33 70  1  0
 33 71  1  0
 34 72  1  0
 40 73  1  0
 41 74  1  0
M  CHG  1  30   1
M  END
$$$$
