
     RDKit          3D

 82 86  0  0  0  0  0  0  0  0999 V2000
    2.5551    1.5980   -3.1106 C   0  0  0  0  0  0  0  0  0  0  0  0
    2.0916    1.0158   -1.9856 C   0  0  0  0  0  0  0  0  0  0  0  0
    0.5804    0.9143   -1.8189 C   0  0  2  0  0  0  0  0  0  0  0  0
   -0.0735    1.9249   -0.8713 C   0  0  0  0  0  0  0  0  0  0  0  0
   -1.5119    1.3956   -0.7881 C   0  0  2  0  0  0  0  0  0  0  0  0
   -2.1653    1.6591   -2.0284 O   0  0  0  0  0  0  0  0  0  0  0  0
   -2.3184    2.0218    0.3104 C   0  0  0  0  0  0  0  0  0  0  0  0
   -3.5937    1.7205    0.6395 C   0  0  0  0  0  0  0  0  0  0  0  0
   -4.1409    2.4196    1.7844 C   0  0  0  0  0  0  0  0  0  0  0  0
   -5.3645    2.9396    1.9233 C   0  0  0  0  0  0  0  0  0  0  0  0
   -6.4329    2.9644    0.9256 C   0  0  0  0  0  0  0  0  0  0  0  0
   -7.2126    3.9110    0.9062 O   0  0  0  0  0  0  0  0  0  0  0  0
   -6.5478    1.9391    0.0660 O   0  0  0  0  0  0  0  0  0  0  0  0
   -5.9534    0.6143    0.2109 C   0  0  0  0  0  0  0  0  0  0  0  0
   -6.7061   -0.1765   -0.8906 C   0  0  0  0  0  0  0  0  0  0  0  0
   -6.3427   -0.0308    1.5532 C   0  0  0  0  0  0  0  0  0  0  0  0
   -4.4172    0.6651   -0.1183 C   0  0  2  0  0  0  0  0  0  0  0  0
   -3.7658   -0.7558   -0.0239 C   0  0  2  0  0  0  0  0  0  0  0  0
   -3.4146   -1.0293    1.3542 O   0  0  0  0  0  0  0  0  0  0  0  0
   -3.3966   -2.3328    1.7418 C   0  0  0  0  0  0  0  0  0  0  0  0
   -2.9760   -2.4301    3.1758 C   0  0  0  0  0  0  0  0  0  0  0  0
   -3.6840   -3.2899    1.0385 O   0  0  0  0  0  0  0  0  0  0  0  0
   -2.5382   -0.9687   -0.9368 C   0  0  0  0  0  0  0  0  0  0  0  0
   -1.3080   -0.1211   -0.5920 C   0  0  1  0  0  0  0  0  0  0  0  0
    0.0239   -0.4704   -1.3732 C   0  0  1  0  0  0  0  0  0  0  0  0
   -0.1787   -1.3518   -2.6217 C   0  0  0  0  0  0  0  0  0  0  0  0
    0.9855   -1.1970   -0.4012 C   0  0  0  0  0  0  0  0  0  0  0  0
    2.4643   -1.1122   -0.7930 C   0  0  0  0  0  0  0  0  0  0  0  0
    2.9620    0.3488   -0.9088 C   0  0  2  0  0  0  0  0  0  0  0  0
    2.6685    1.0134    0.3259 O   0  0  0  0  0  0  0  0  0  0  0  0
    4.5238    0.4473   -1.1430 C   0  0  1  0  0  0  0  0  0  0  0  0
    5.0206    1.8958   -0.9226 C   0  0  0  0  0  0  0  0  0  0  0  0
    5.3483   -0.5337   -0.2595 C   0  0  1  0  0  0  0  0  0  0  0  0
    6.8645   -0.4233   -0.4391 C   0  0  0  0  0  0  0  0  0  0  0  0
    7.5260   -1.3497    0.5307 C   0  0  0  0  0  0  0  0  0  0  0  0
    6.9394   -1.6817    1.6932 C   0  0  0  0  0  0  0  0  0  0  0  0
    7.5624   -2.6000    2.6975 C   0  0  0  0  0  0  0  0  0  0  0  0
    5.6361   -1.0740    2.0773 C   0  0  0  0  0  0  0  0  0  0  0  0
    5.1666   -1.2042    3.2000 O   0  0  0  0  0  0  0  0  0  0  0  0
    5.0002   -0.3369    1.1272 O   0  0  0  0  0  0  0  0  0  0  0  0
    1.8773    2.0259   -3.8454 H   0  0  0  0  0  0  0  0  0  0  0  0
    3.6065    1.6830   -3.3547 H   0  0  0  0  0  0  0  0  0  0  0  0
    0.1429    1.1212   -2.8090 H   0  0  0  0  0  0  0  0  0  0  0  0
    0.4022    1.9353    0.1146 H   0  0  0  0  0  0  0  0  0  0  0  0
   -0.0267    2.9362   -1.2915 H   0  0  0  0  0  0  0  0  0  0  0  0
   -2.3502    2.6143   -2.0575 H   0  0  0  0  0  0  0  0  0  0  0  0
   -1.7851    2.7731    0.8934 H   0  0  0  0  0  0  0  0  0  0  0  0
   -3.4416    2.5961    2.6033 H   0  0  0  0  0  0  0  0  0  0  0  0
   -5.5989    3.5105    2.8170 H   0  0  0  0  0  0  0  0  0  0  0  0
   -6.4685    0.2164   -1.8861 H   0  0  0  0  0  0  0  0  0  0  0  0
   -6.4889   -1.2476   -0.8805 H   0  0  0  0  0  0  0  0  0  0  0  0
   -7.7910   -0.0615   -0.7715 H   0  0  0  0  0  0  0  0  0  0  0  0
   -5.7660    0.3516    2.3978 H   0  0  0  0  0  0  0  0  0  0  0  0
   -7.3972    0.1630    1.7822 H   0  0  0  0  0  0  0  0  0  0  0  0
   -6.1975   -1.1160    1.5357 H   0  0  0  0  0  0  0  0  0  0  0  0
   -4.3863    0.9749   -1.1728 H   0  0  0  0  0  0  0  0  0  0  0  0
   -4.5011   -1.4984   -0.3466 H   0  0  0  0  0  0  0  0  0  0  0  0
   -3.6935   -1.9017    3.8085 H   0  0  0  0  0  0  0  0  0  0  0  0
   -2.9527   -3.4815    3.4763 H   0  0  0  0  0  0  0  0  0  0  0  0
   -1.9737   -2.0115    3.2968 H   0  0  0  0  0  0  0  0  0  0  0  0
   -2.2457   -2.0223   -0.8521 H   0  0  0  0  0  0  0  0  0  0  0  0
   -2.8439   -0.8111   -1.9775 H   0  0  0  0  0  0  0  0  0  0  0  0
   -1.1112   -0.2813    0.4776 H   0  0  0  0  0  0  0  0  0  0  0  0
    0.7569   -1.4775   -3.1773 H   0  0  0  0  0  0  0  0  0  0  0  0
   -0.9045   -0.9074   -3.3115 H   0  0  0  0  0  0  0  0  0  0  0  0
   -0.5348   -2.3529   -2.3577 H   0  0  0  0  0  0  0  0  0  0  0  0
    0.6957   -2.2515   -0.3077 H   0  0  0  0  0  0  0  0  0  0  0  0
    0.8946   -0.7809    0.6105 H   0  0  0  0  0  0  0  0  0  0  0  0
    2.9977   -1.6426    0.0026 H   0  0  0  0  0  0  0  0  0  0  0  0
    2.6494   -1.6585   -1.7255 H   0  0  0  0  0  0  0  0  0  0  0  0
    3.2395    0.6138    1.0108 H   0  0  0  0  0  0  0  0  0  0  0  0
    4.7369    0.1655   -2.1825 H   0  0  0  0  0  0  0  0  0  0  0  0
    6.0017    2.0416   -1.3861 H   0  0  0  0  0  0  0  0  0  0  0  0
    5.1124    2.1332    0.1427 H   0  0  0  0  0  0  0  0  0  0  0  0
    4.3555    2.6432   -1.3623 H   0  0  0  0  0  0  0  0  0  0  0  0
    5.0573   -1.5578   -0.5296 H   0  0  0  0  0  0  0  0  0  0  0  0
    7.2412    0.5841   -0.2362 H   0  0  0  0  0  0  0  0  0  0  0  0
    7.1380   -0.6934   -1.4646 H   0  0  0  0  0  0  0  0  0  0  0  0
    8.5049   -1.7425    0.2698 H   0  0  0  0  0  0  0  0  0  0  0  0
    7.7422   -2.0753    3.6416 H   0  0  0  0  0  0  0  0  0  0  0  0
    8.5232   -2.9931    2.3485 H   0  0  0  0  0  0  0  0  0  0  0  0
    6.9062   -3.4547    2.8921 H   0  0  0  0  0  0  0  0  0  0  0  0
  1  2  2  0
  2  3  1  0
  3  4  1  0
  4  5  1  0
  5  6  1  6
  5  7  1  0
  7  8  2  0
  8  9  1  0
  9 10  2  0
 10 11  1  0
 11 12  2  0
 11 13  1  0
 13 14  1  0
 14 15  1  0
 14 16  1  0
 14 17  1  0
 17 18  1  0
 18 19  1  0
 19 20  1  0
 20 21  1  0
 20 22  2  0
 18 23  1  0
 23 24  1  0
 24 25  1  0
 25 26  1  6
 25 27  1  0
 27 28  1  0
 28 29  1  0
 29 30  1  1
 29 31  1  0
 31 32  1  0
 31 33  1  0
 33 34  1  0
 34 35  1  0
 35 36  2  0
 36 37  1  0
 36 38  1  0
 38 39  2  0
 38 40  1  0
 29  2  1  0
 40 33  1  0
 25  3  1  0
 24  5  1  0
 17  8  1  0
  1 41  1  0
  1 42  1  0
  3 43  1  6
  4 44  1  0
  4 45  1  0
  6 46  1  0
  7 47  1  0
  9 48  1  0
 10 49  1  0
 15 50  1  0
 15 51  1  0
 15 52  1  0
 16 53  1  0
 16 54  1  0
 16 55  1  0
 17 56  1  6
 18 57  1  6
 21 58  1  0
 21 59  1  0
 21 60  1  0
 23 61  1  0
 23 62  1  0
 24 63  1  1
 26 64  1  0
 26 65  1  0
 26 66  1  0
 27 67  1  0
 27 68  1  0
 28 69  1  0
 28 70  1  0
 30 71  1  0
 31 72  1  6
 32 73  1  0
 32 74  1  0
 32 75  1  0
 33 76  1  6
 34 77  1  0
 34 78  1  0
 35 79  1  0
 37 80  1  0
 37 81  1  0
 37 82  1  0
M  END
$$$$
