
     RDKit          3D

 73 78  0  0  0  0  0  0  0  0999 V2000
   -7.0615   -0.2985    1.7003 C   0  0  0  0  0  0  0  0  0  0  0  0
   -5.7903    0.3933    1.2960 C   0  0  0  0  0  0  0  0  0  0  0  0
   -4.6665    0.2308    2.1343 C   0  0  0  0  0  0  0  0  0  0  0  0
   -3.4448    0.8931    1.9037 C   0  0  0  0  0  0  0  0  0  0  0  0
   -2.3181    0.7441    2.8347 C   0  0  0  0  0  0  0  0  0  0  0  0
   -2.4722    0.8068    4.2391 C   0  0  0  0  0  0  0  0  0  0  0  0
   -1.3944    0.6661    5.1233 C   0  0  0  0  0  0  0  0  0  0  0  0
   -0.0974    0.4564    4.6458 C   0  0  0  0  0  0  0  0  0  0  0  0
    0.0918    0.3947    3.2610 C   0  0  0  0  0  0  0  0  0  0  0  0
    1.2338    0.2074    2.5302 N   0  0  0  0  0  0  0  0  0  0  0  0
    0.8294    0.2382    1.2791 C   0  0  0  0  0  0  0  0  0  0  0  0
    1.5060    0.1231    0.1224 N   0  0  0  0  0  0  0  0  0  0  0  0
    2.8840   -0.0676   -0.0736 C   0  0  0  0  0  0  0  0  0  0  0  0
    3.8106   -0.2135    0.9593 C   0  0  0  0  0  0  0  0  0  0  0  0
    5.1794   -0.3954    0.6992 C   0  0  0  0  0  0  0  0  0  0  0  0
    5.6861   -0.4294   -0.6047 C   0  0  0  0  0  0  0  0  0  0  0  0
    7.0417   -0.6093   -0.8828 N   0  0  0  0  0  0  0  0  0  0  0  0
    7.6830    0.3859   -1.7633 C   0  0  0  0  0  0  0  0  0  0  0  0
    8.9849   -0.1642   -2.3821 C   0  0  0  0  0  0  0  0  0  0  0  0
    9.9191   -0.7531   -1.3325 N   0  0  0  0  0  0  0  0  0  0  0  0
   10.6159    0.2812   -0.4996 C   0  0  0  0  0  0  0  0  0  0  0  0
    9.1916   -1.8109   -0.5109 C   0  0  0  0  0  0  0  0  0  0  0  0
    7.8977   -1.2619    0.1230 C   0  0  0  0  0  0  0  0  0  0  0  0
    4.7520   -0.2901   -1.6389 C   0  0  0  0  0  0  0  0  0  0  0  0
    3.3827   -0.1123   -1.3810 C   0  0  0  0  0  0  0  0  0  0  0  0
   -0.5219    0.4293    1.1327 O   0  0  0  0  0  0  0  0  0  0  0  0
   -0.9966    0.5370    2.4148 C   0  0  0  0  0  0  0  0  0  0  0  0
   -3.3645    1.7296    0.7838 C   0  0  0  0  0  0  0  0  0  0  0  0
   -4.4543    1.8885   -0.0773 C   0  0  0  0  0  0  0  0  0  0  0  0
   -5.6598    1.2104    0.1604 C   0  0  0  0  0  0  0  0  0  0  0  0
   -6.7345    1.4315   -0.8413 C   0  0  0  0  0  0  0  0  0  0  0  0
   -6.9568    2.5188   -1.3402 O   0  0  0  0  0  0  0  0  0  0  0  0
   -7.5200    0.3236   -1.4027 N   0  0  0  0  0  0  0  0  0  0  0  0
   -9.0069    0.6245   -1.3797 C   0  0  0  0  0  0  0  0  0  0  0  0
   -9.7582   -0.5687   -1.9795 C   0  0  0  0  0  0  0  0  0  0  0  0
   -9.3056   -0.8421   -3.3105 O   0  0  0  0  0  0  0  0  0  0  0  0
   -7.9069   -1.1414   -3.3636 C   0  0  0  0  0  0  0  0  0  0  0  0
   -7.0736    0.0245   -2.8206 C   0  0  0  0  0  0  0  0  0  0  0  0
   -7.9298    0.3372    1.5074 H   0  0  0  0  0  0  0  0  0  0  0  0
   -7.1674   -1.2471    1.1664 H   0  0  0  0  0  0  0  0  0  0  0  0
   -7.0710   -0.5128    2.7749 H   0  0  0  0  0  0  0  0  0  0  0  0
   -4.7494   -0.4192    3.0083 H   0  0  0  0  0  0  0  0  0  0  0  0
   -3.4583    0.9883    4.6672 H   0  0  0  0  0  0  0  0  0  0  0  0
   -1.5652    0.7270    6.1971 H   0  0  0  0  0  0  0  0  0  0  0  0
    0.7424    0.3493    5.3242 H   0  0  0  0  0  0  0  0  0  0  0  0
    0.9571    0.1881   -0.7228 H   0  0  0  0  0  0  0  0  0  0  0  0
    3.4978   -0.1898    1.9999 H   0  0  0  0  0  0  0  0  0  0  0  0
    5.8331   -0.4854    1.5620 H   0  0  0  0  0  0  0  0  0  0  0  0
    7.8982    1.2909   -1.1823 H   0  0  0  0  0  0  0  0  0  0  0  0
    7.0322    0.6869   -2.5912 H   0  0  0  0  0  0  0  0  0  0  0  0
    8.7628   -0.9811   -3.0783 H   0  0  0  0  0  0  0  0  0  0  0  0
    9.5381    0.6126   -2.9199 H   0  0  0  0  0  0  0  0  0  0  0  0
   10.6555   -1.2501   -1.8499 H   0  0  0  0  0  0  0  0  0  0  0  0
   11.3116   -0.2358    0.1664 H   0  0  0  0  0  0  0  0  0  0  0  0
   11.1693    0.9392   -1.1746 H   0  0  0  0  0  0  0  0  0  0  0  0
    9.8780    0.8462    0.0734 H   0  0  0  0  0  0  0  0  0  0  0  0
    8.9637   -2.6269   -1.2062 H   0  0  0  0  0  0  0  0  0  0  0  0
    9.8899   -2.1811    0.2466 H   0  0  0  0  0  0  0  0  0  0  0  0
    7.3752   -2.1100    0.5826 H   0  0  0  0  0  0  0  0  0  0  0  0
    8.1472   -0.5491    0.9179 H   0  0  0  0  0  0  0  0  0  0  0  0
    5.0656   -0.3499   -2.6777 H   0  0  0  0  0  0  0  0  0  0  0  0
    2.7089   -0.0147   -2.2291 H   0  0  0  0  0  0  0  0  0  0  0  0
   -2.4499    2.2872    0.5809 H   0  0  0  0  0  0  0  0  0  0  0  0
   -4.3481    2.5588   -0.9308 H   0  0  0  0  0  0  0  0  0  0  0  0
   -7.3337   -0.5044   -0.8369 H   0  0  0  0  0  0  0  0  0  0  0  0
   -9.1736    1.5245   -1.9821 H   0  0  0  0  0  0  0  0  0  0  0  0
   -9.3014    0.8010   -0.3416 H   0  0  0  0  0  0  0  0  0  0  0  0
   -9.6310   -1.4673   -1.3646 H   0  0  0  0  0  0  0  0  0  0  0  0
  -10.8285   -0.3462   -2.0301 H   0  0  0  0  0  0  0  0  0  0  0  0
   -7.7149   -2.0618   -2.7997 H   0  0  0  0  0  0  0  0  0  0  0  0
   -7.6448   -1.3292   -4.4093 H   0  0  0  0  0  0  0  0  0  0  0  0
   -7.2352    0.9303   -3.4158 H   0  0  0  0  0  0  0  0  0  0  0  0
   -6.0091   -0.2283   -2.7903 H   0  0  0  0  0  0  0  0  0  0  0  0
  1  2  1  0
  2  3  2  0
  3  4  1  0
  4  5  1  0
  5  6  2  0
  6  7  1  0
  7  8  2  0
  8  9  1  0
  9 10  1  0
 10 11  2  0
 11 12  1  0
 12 13  1  0
 13 14  2  0
 14 15  1  0
 15 16  2  0
 16 17  1  0
 17 18  1  0
 18 19  1  0
 19 20  1  0
 20 21  1  0
 20 22  1  0
 22 23  1  0
 16 24  1  0
 24 25  2  0
 11 26  1  0
 26 27  1  0
  4 28  2  0
 28 29  1  0
 29 30  2  0
 30 31  1  0
 31 32  2  0
 31 33  1  0
 33 34  1  0
 34 35  1  0
 35 36  1  0
 36 37  1  0
 37 38  1  0
 30  2  1  0
 38 33  1  0
 27  5  1  0
 27  9  2  0
 25 13  1  0
 23 17  1  0
  1 39  1  0
  1 40  1  0
  1 41  1  0
  3 42  1  0
  6 43  1  0
  7 44  1  0
  8 45  1  0
 12 46  1  0
 14 47  1  0
 15 48  1  0
 18 49  1  0
 18 50  1  0
 19 51  1  0
 19 52  1  0
 20 53  1  0
 21 54  1  0
 21 55  1  0
 21 56  1  0
 22 57  1  0
 22 58  1  0
 23 59  1  0
 23 60  1  0
 24 61  1  0
 25 62  1  0
 28 63  1  0
 29 64  1  0
 33 65  1  0
 34 66  1  0
 34 67  1  0
 35 68  1  0
 35 69  1  0
 37 70  1  0
 37 71  1  0
 38 72  1  0
 38 73  1  0
M  CHG  2  20   1  33   1
M  END
$$$$
