
     RDKit          3D

 86 91  0  0  0  0  0  0  0  0999 V2000
   -1.5694    4.6403   -3.3057 C   0  0  0  0  0  0  0  0  0  0  0  0
   -1.6615    3.8816   -2.0212 C   0  0  0  0  0  0  0  0  0  0  0  0
   -0.7220    3.0970   -1.4559 C   0  0  0  0  0  0  0  0  0  0  0  0
    0.6573    2.8486   -1.9887 C   0  0  0  0  0  0  0  0  0  0  0  0
   -1.0940    2.4349   -0.1653 C   0  0  0  0  0  0  0  0  0  0  0  0
   -2.0455    2.7572    0.5289 O   0  0  0  0  0  0  0  0  0  0  0  0
   -0.2356    1.4140    0.0731 O   0  0  0  0  0  0  0  0  0  0  0  0
   -0.4346    0.6456    1.2890 C   0  0  2  0  0  0  0  0  0  0  0  0
    0.8362    0.7884    2.1411 C   0  0  2  0  0  0  0  0  0  0  0  0
    1.2330    2.1586    2.3898 O   0  0  0  0  0  0  0  0  0  0  0  0
    2.6632    2.2834    2.1326 C   0  0  0  0  0  0  0  0  0  0  0  0
    3.2215    0.8495    2.0747 C   0  0  2  0  0  0  0  0  0  0  0  0
    3.5310    0.4172    3.5230 C   0  0  0  0  0  0  0  0  0  0  0  0
    4.4528    0.5947    1.1772 C   0  0  2  0  0  0  0  0  0  0  0  0
    4.2981    1.3050   -0.0739 O   0  0  0  0  0  0  0  0  0  0  0  0
    5.4494    1.7016   -0.6887 C   0  0  0  0  0  0  0  0  0  0  0  0
    5.1231    2.4067   -1.9693 C   0  0  0  0  0  0  0  0  0  0  0  0
    6.5804    1.5130   -0.2677 O   0  0  0  0  0  0  0  0  0  0  0  0
    4.5858   -0.9206    0.8568 C   0  0  0  0  0  0  0  0  0  0  0  0
    3.2949   -1.5816    0.2888 C   0  0  2  0  0  0  0  0  0  0  0  0
    3.1460   -1.1605   -1.0678 O   0  0  0  0  0  0  0  0  0  0  0  0
    1.9899   -1.2932    1.1345 C   0  0  1  0  0  0  0  0  0  0  0  0
    2.0791   -2.1552    2.4142 C   0  0  0  0  0  0  0  0  0  0  0  0
    2.0156    0.2086    1.4095 C   0  0  1  0  0  0  0  0  0  0  0  0
    0.6320   -1.5383    0.3101 C   0  0  1  0  0  0  0  0  0  0  0  0
    0.4426   -3.0249   -0.0862 C   0  0  0  0  0  0  0  0  0  0  0  0
   -0.7045   -3.2805   -1.0596 C   0  0  0  0  0  0  0  0  0  0  0  0
   -0.7802   -2.2252   -2.0019 O   0  0  0  0  0  0  0  0  0  0  0  0
   -1.5811   -1.1099   -1.6273 C   0  0  1  0  0  0  0  0  0  0  0  0
   -2.9592   -1.2926   -2.2564 C   0  0  0  0  0  0  0  0  0  0  0  0
   -3.9465   -0.6434   -1.2939 C   0  0  1  0  0  0  0  0  0  0  0  0
   -5.2350   -1.3965   -1.2855 C   0  0  0  0  0  0  0  0  0  0  0  0
   -5.7124   -2.3741   -0.5143 C   0  0  0  0  0  0  0  0  0  0  0  0
   -7.0668   -2.7697   -0.9355 C   0  0  0  0  0  0  0  0  0  0  0  0
   -7.3514   -1.9232   -2.0451 O   0  0  0  0  0  0  0  0  0  0  0  0
   -6.2854   -1.1077   -2.2732 C   0  0  0  0  0  0  0  0  0  0  0  0
   -6.2109   -0.2750   -3.1582 O   0  0  0  0  0  0  0  0  0  0  0  0
   -3.1809   -0.6151    0.0181 C   0  0  0  0  0  0  0  0  0  0  0  0
   -3.9151   -0.1287    1.2305 C   0  0  0  0  0  0  0  0  0  0  0  0
   -1.8643   -0.8939   -0.1464 C   0  0  0  0  0  0  0  0  0  0  0  0
   -0.7096   -0.8629    0.8969 C   0  0  2  0  0  0  0  0  0  0  0  0
   -1.1828   -1.6505    2.1450 C   0  0  0  0  0  0  0  0  0  0  0  0
   -0.6621    4.4295   -3.8749 H   0  0  0  0  0  0  0  0  0  0  0  0
   -1.6075    5.7153   -3.1047 H   0  0  0  0  0  0  0  0  0  0  0  0
   -2.4219    4.3833   -3.9428 H   0  0  0  0  0  0  0  0  0  0  0  0
   -2.6237    3.9928   -1.5178 H   0  0  0  0  0  0  0  0  0  0  0  0
    0.7450    1.8232   -2.3628 H   0  0  0  0  0  0  0  0  0  0  0  0
    0.9294    3.5244   -2.8028 H   0  0  0  0  0  0  0  0  0  0  0  0
    1.4057    2.9968   -1.2021 H   0  0  0  0  0  0  0  0  0  0  0  0
   -1.2628    1.0608    1.8696 H   0  0  0  0  0  0  0  0  0  0  0  0
    0.6732    0.3264    3.1191 H   0  0  0  0  0  0  0  0  0  0  0  0
    2.7669    2.8222    1.1848 H   0  0  0  0  0  0  0  0  0  0  0  0
    3.1090    2.8991    2.9199 H   0  0  0  0  0  0  0  0  0  0  0  0
    3.9432   -0.5899    3.5932 H   0  0  0  0  0  0  0  0  0  0  0  0
    2.6535    0.4644    4.1749 H   0  0  0  0  0  0  0  0  0  0  0  0
    4.2855    1.0838    3.9589 H   0  0  0  0  0  0  0  0  0  0  0  0
    5.3527    0.9506    1.6940 H   0  0  0  0  0  0  0  0  0  0  0  0
    4.5115    3.2883   -1.7613 H   0  0  0  0  0  0  0  0  0  0  0  0
    6.0498    2.7308   -2.4512 H   0  0  0  0  0  0  0  0  0  0  0  0
    4.5984    1.7250   -2.6435 H   0  0  0  0  0  0  0  0  0  0  0  0
    5.3856   -1.0513    0.1168 H   0  0  0  0  0  0  0  0  0  0  0  0
    4.9024   -1.4537    1.7587 H   0  0  0  0  0  0  0  0  0  0  0  0
    3.4608   -2.6643    0.2428 H   0  0  0  0  0  0  0  0  0  0  0  0
    3.1827   -0.1886   -1.0961 H   0  0  0  0  0  0  0  0  0  0  0  0
    1.5904   -1.6959    3.2749 H   0  0  0  0  0  0  0  0  0  0  0  0
    1.6500   -3.1498    2.2778 H   0  0  0  0  0  0  0  0  0  0  0  0
    3.1126   -2.3423    2.7174 H   0  0  0  0  0  0  0  0  0  0  0  0
    1.9835    0.6693    0.4081 H   0  0  0  0  0  0  0  0  0  0  0  0
    0.8087   -1.0016   -0.6326 H   0  0  0  0  0  0  0  0  0  0  0  0
    1.3631   -3.3655   -0.5751 H   0  0  0  0  0  0  0  0  0  0  0  0
    0.3010   -3.6727    0.7833 H   0  0  0  0  0  0  0  0  0  0  0  0
   -1.6607   -3.4415   -0.5488 H   0  0  0  0  0  0  0  0  0  0  0  0
   -0.4976   -4.2040   -1.6120 H   0  0  0  0  0  0  0  0  0  0  0  0
   -1.1064   -0.2131   -2.0416 H   0  0  0  0  0  0  0  0  0  0  0  0
   -3.1755   -2.3576   -2.4206 H   0  0  0  0  0  0  0  0  0  0  0  0
   -3.0007   -0.8222   -3.2467 H   0  0  0  0  0  0  0  0  0  0  0  0
   -4.1283    0.3995   -1.5869 H   0  0  0  0  0  0  0  0  0  0  0  0
   -5.1852   -2.8337    0.3085 H   0  0  0  0  0  0  0  0  0  0  0  0
   -7.1068   -3.8142   -1.2570 H   0  0  0  0  0  0  0  0  0  0  0  0
   -7.8067   -2.5972   -0.1488 H   0  0  0  0  0  0  0  0  0  0  0  0
   -4.4072   -0.9586    1.7452 H   0  0  0  0  0  0  0  0  0  0  0  0
   -4.6817    0.6005    0.9453 H   0  0  0  0  0  0  0  0  0  0  0  0
   -3.2715    0.3845    1.9441 H   0  0  0  0  0  0  0  0  0  0  0  0
   -1.9781   -1.1359    2.6888 H   0  0  0  0  0  0  0  0  0  0  0  0
   -0.3972   -1.7977    2.8805 H   0  0  0  0  0  0  0  0  0  0  0  0
   -1.5659   -2.6415    1.8773 H   0  0  0  0  0  0  0  0  0  0  0  0
  1  2  1  0
  2  3  2  0
  3  4  1  0
  3  5  1  0
  5  6  2  0
  5  7  1  0
  7  8  1  0
  8  9  1  0
  9 10  1  0
 10 11  1  0
 11 12  1  0
 12 13  1  1
 12 14  1  0
 14 15  1  0
 15 16  1  0
 16 17  1  0
 16 18  2  0
 14 19  1  0
 19 20  1  0
 20 21  1  0
 20 22  1  0
 22 23  1  1
 22 24  1  0
 22 25  1  0
 25 26  1  0
 26 27  1  0
 27 28  1  0
 28 29  1  0
 29 30  1  0
 30 31  1  0
 31 32  1  0
 32 33  2  0
 33 34  1  0
 34 35  1  0
 35 36  1  0
 36 37  2  0
 31 38  1  0
 38 39  1  0
 38 40  2  0
 40 41  1  0
 41 42  1  1
 41  8  1  0
 24  9  1  0
 41 25  1  0
 24 12  1  0
 40 29  1  0
 36 32  1  0
  1 43  1  0
  1 44  1  0
  1 45  1  0
  2 46  1  0
  4 47  1  0
  4 48  1  0
  4 49  1  0
  8 50  1  1
  9 51  1  1
 11 52  1  0
 11 53  1  0
 13 54  1  0
 13 55  1  0
 13 56  1  0
 14 57  1  1
 17 58  1  0
 17 59  1  0
 17 60  1  0
 19 61  1  0
 19 62  1  0
 20 63  1  6
 21 64  1  0
 23 65  1  0
 23 66  1  0
 23 67  1  0
 24 68  1  6
 25 69  1  6
 26 70  1  0
 26 71  1  0
 27 72  1  0
 27 73  1  0
 29 74  1  6
 30 75  1  0
 30 76  1  0
 31 77  1  6
 33 78  1  0
 34 79  1  0
 34 80  1  0
 39 81  1  0
 39 82  1  0
 39 83  1  0
 42 84  1  0
 42 85  1  0
 42 86  1  0
M  END
$$$$
