
     RDKit          3D

 62 67  0  0  0  0  0  0  0  0999 V2000
   -8.0924    3.8275    1.6016 C   0  0  0  0  0  0  0  0  0  0  0  0
   -8.9076    2.6714    1.4567 O   0  0  0  0  0  0  0  0  0  0  0  0
   -8.2520    1.4890    1.2400 C   0  0  0  0  0  0  0  0  0  0  0  0
   -6.8698    1.3042    1.2542 C   0  0  0  0  0  0  0  0  0  0  0  0
   -6.3274    0.0370    1.0172 C   0  0  0  0  0  0  0  0  0  0  0  0
   -7.1576   -1.0642    0.7624 C   0  0  0  0  0  0  0  0  0  0  0  0
   -6.5583   -2.4265    0.5062 C   0  0  0  0  0  0  0  0  0  0  0  0
   -5.9441   -2.5146   -0.8002 N   0  0  0  0  0  0  0  0  0  0  0  0
   -6.6512   -2.9486   -1.9083 N   0  0  0  0  0  0  0  0  0  0  0  0
   -5.7056   -2.9280   -2.8830 C   0  0  0  0  0  0  0  0  0  0  0  0
   -4.4757   -2.5263   -2.3862 C   0  0  0  0  0  0  0  0  0  0  0  0
   -3.1036   -2.2896   -2.7447 N   0  0  0  0  0  0  0  0  0  0  0  0
   -2.5094   -1.8877   -1.5390 C   0  0  0  0  0  0  0  0  0  0  0  0
   -0.9552   -1.4980   -1.4433 C   0  0  0  0  0  0  0  0  0  0  0  0
   -0.2152   -1.5812   -2.6302 C   0  0  0  0  0  0  0  0  0  0  0  0
    1.1433   -1.2627   -2.6525 C   0  0  0  0  0  0  0  0  0  0  0  0
    1.7943   -0.8524   -1.4861 C   0  0  0  0  0  0  0  0  0  0  0  0
    3.1688   -0.5502   -1.6002 N   0  0  0  0  0  0  0  0  0  0  0  0
    4.0425   -0.1206   -0.6090 C   0  0  0  0  0  0  0  0  0  0  0  0
    3.7379    0.0722    0.5598 O   0  0  0  0  0  0  0  0  0  0  0  0
    5.3072    0.0572   -1.1387 N   0  0  0  0  0  0  0  0  0  0  0  0
    6.4384    0.4741   -0.4848 C   0  0  0  0  0  0  0  0  0  0  0  0
    7.5734    0.5924   -1.1335 N   0  0  0  0  0  0  0  0  0  0  0  0
    8.5626    1.0249   -0.2654 C   0  0  0  0  0  0  0  0  0  0  0  0
    9.9089    1.2701   -0.5993 C   0  0  0  0  0  0  0  0  0  0  0  0
   10.8030    1.7067    0.3858 C   0  0  0  0  0  0  0  0  0  0  0  0
   10.3816    1.8941    1.7047 C   0  0  0  0  0  0  0  0  0  0  0  0
   11.3457    2.3941    2.7420 C   0  0  0  0  0  0  0  0  0  0  0  0
    9.0393    1.6686    2.0494 C   0  0  0  0  0  0  0  0  0  0  0  0
    8.1520    1.2302    1.0515 C   0  0  0  0  0  0  0  0  0  0  0  0
    6.4759    0.8648    1.1688 S   0  0  0  0  0  0  0  0  0  0  0  0
    1.0601   -0.7683   -0.3007 C   0  0  0  0  0  0  0  0  0  0  0  0
   -0.3174   -1.0875   -0.2595 C   0  0  0  0  0  0  0  0  0  0  0  0
   -1.0386   -0.9723    1.0536 C   0  0  0  0  0  0  0  0  0  0  0  0
   -3.4070   -1.8677   -0.4695 N   0  0  0  0  0  0  0  0  0  0  0  0
   -4.6474   -2.2824   -1.0862 C   0  0  0  0  0  0  0  0  0  0  0  0
   -8.5439   -0.8712    0.7428 C   0  0  0  0  0  0  0  0  0  0  0  0
   -9.0831    0.3953    0.9855 C   0  0  0  0  0  0  0  0  0  0  0  0
   -7.4797    3.9966    0.7097 H   0  0  0  0  0  0  0  0  0  0  0  0
   -8.7552    4.6905    1.7170 H   0  0  0  0  0  0  0  0  0  0  0  0
   -7.4731    3.7625    2.5024 H   0  0  0  0  0  0  0  0  0  0  0  0
   -6.1777    2.1188    1.4366 H   0  0  0  0  0  0  0  0  0  0  0  0
   -5.2423   -0.0873    1.0116 H   0  0  0  0  0  0  0  0  0  0  0  0
   -5.7993   -2.6551    1.2638 H   0  0  0  0  0  0  0  0  0  0  0  0
   -7.3188   -3.2136    0.5694 H   0  0  0  0  0  0  0  0  0  0  0  0
   -5.9687   -3.2139   -3.8890 H   0  0  0  0  0  0  0  0  0  0  0  0
   -0.7132   -1.8993   -3.5444 H   0  0  0  0  0  0  0  0  0  0  0  0
    1.6689   -1.3442   -3.5984 H   0  0  0  0  0  0  0  0  0  0  0  0
    3.5492   -0.6636   -2.5259 H   0  0  0  0  0  0  0  0  0  0  0  0
    5.4662   -0.1304   -2.1134 H   0  0  0  0  0  0  0  0  0  0  0  0
   10.2418    1.1205   -1.6213 H   0  0  0  0  0  0  0  0  0  0  0  0
   11.8376    1.8979    0.1078 H   0  0  0  0  0  0  0  0  0  0  0  0
   11.0779    2.0213    3.7362 H   0  0  0  0  0  0  0  0  0  0  0  0
   12.3627    2.0481    2.5291 H   0  0  0  0  0  0  0  0  0  0  0  0
   11.3403    3.4883    2.7606 H   0  0  0  0  0  0  0  0  0  0  0  0
    8.6856    1.8255    3.0647 H   0  0  0  0  0  0  0  0  0  0  0  0
    1.5355   -0.4539    0.6229 H   0  0  0  0  0  0  0  0  0  0  0  0
   -1.4326   -1.9443    1.3653 H   0  0  0  0  0  0  0  0  0  0  0  0
   -1.8412   -0.2312    0.9908 H   0  0  0  0  0  0  0  0  0  0  0  0
   -0.3648   -0.6373    1.8505 H   0  0  0  0  0  0  0  0  0  0  0  0
   -9.2109   -1.7020    0.5260 H   0  0  0  0  0  0  0  0  0  0  0  0
  -10.1606    0.5325    0.9631 H   0  0  0  0  0  0  0  0  0  0  0  0
  1  2  1  0
  2  3  1  0
  3  4  2  0
  4  5  1  0
  5  6  2  0
  6  7  1  0
  7  8  1  0
  8  9  1  0
  9 10  2  0
 10 11  1  0
 11 12  1  0
 12 13  1  0
 13 14  1  0
 14 15  2  0
 15 16  1  0
 16 17  2  0
 17 18  1  0
 18 19  1  0
 19 20  2  0
 19 21  1  0
 21 22  1  0
 22 23  2  0
 23 24  1  0
 24 25  2  0
 25 26  1  0
 26 27  2  0
 27 28  1  0
 27 29  1  0
 29 30  2  0
 30 31  1  0
 17 32  1  0
 32 33  2  0
 33 34  1  0
 13 35  2  0
 35 36  1  0
  6 37  1  0
 37 38  2  0
 38  3  1  0
 36  8  1  0
 36 11  2  0
 33 14  1  0
 31 22  1  0
 30 24  1  0
  1 39  1  0
  1 40  1  0
  1 41  1  0
  4 42  1  0
  5 43  1  0
  7 44  1  0
  7 45  1  0
 10 46  1  0
 15 47  1  0
 16 48  1  0
 18 49  1  0
 21 50  1  0
 25 51  1  0
 26 52  1  0
 28 53  1  0
 28 54  1  0
 28 55  1  0
 29 56  1  0
 32 57  1  0
 34 58  1  0
 34 59  1  0
 34 60  1  0
 37 61  1  0
 38 62  1  0
M  CHG  1  12  -1
M  END
$$$$
