
     RDKit          3D

 61 65  0  0  0  0  0  0  0  0999 V2000
   -9.8295   -1.3856    0.5167 C   0  0  0  0  0  0  0  0  0  0  0  0
   -8.4131   -0.9723    0.6176 C   0  0  0  0  0  0  0  0  0  0  0  0
   -7.5100   -0.7038   -0.3883 C   0  0  0  0  0  0  0  0  0  0  0  0
   -6.3237   -0.3604    0.2283 N   0  0  0  0  0  0  0  0  0  0  0  0
   -5.0936   -0.0001   -0.4018 C   0  0  0  0  0  0  0  0  0  0  0  0
   -3.9639    0.3194    0.3711 C   0  0  0  0  0  0  0  0  0  0  0  0
   -2.7532    0.6732   -0.2335 C   0  0  0  0  0  0  0  0  0  0  0  0
   -1.5800    0.9974    0.4797 N   0  0  0  0  0  0  0  0  0  0  0  0
   -1.4214    1.0783    1.8530 C   0  0  0  0  0  0  0  0  0  0  0  0
   -2.3002    0.9588    2.6983 O   0  0  0  0  0  0  0  0  0  0  0  0
   -0.0359    1.3870    2.3084 C   0  0  0  0  0  0  0  0  0  0  0  0
    0.1347    2.1585    3.4566 C   0  0  0  0  0  0  0  0  0  0  0  0
    1.4194    2.4745    3.8916 C   0  0  0  0  0  0  0  0  0  0  0  0
    2.5494    2.0212    3.1869 C   0  0  0  0  0  0  0  0  0  0  0  0
    3.9125    2.4136    3.6956 C   0  0  0  0  0  0  0  0  0  0  0  0
    2.3912    1.2115    2.0368 C   0  0  0  0  0  0  0  0  0  0  0  0
    3.5173    0.7777    1.3226 N   0  0  0  0  0  0  0  0  0  0  0  0
    3.7050    0.1999    0.0697 C   0  0  0  0  0  0  0  0  0  0  0  0
    2.6954    0.0374   -0.7972 N   0  0  0  0  0  0  0  0  0  0  0  0
    2.9906   -0.5183   -1.9840 C   0  0  0  0  0  0  0  0  0  0  0  0
    4.2556   -0.9074   -2.3468 C   0  0  0  0  0  0  0  0  0  0  0  0
    5.2469   -0.6982   -1.4103 C   0  0  0  0  0  0  0  0  0  0  0  0
    6.6575   -1.0590   -1.6362 C   0  0  0  0  0  0  0  0  0  0  0  0
    7.4972   -1.4471   -0.5806 C   0  0  0  0  0  0  0  0  0  0  0  0
    8.8282   -1.7911   -0.8154 C   0  0  0  0  0  0  0  0  0  0  0  0
    9.2990   -1.7370   -2.1142 C   0  0  0  0  0  0  0  0  0  0  0  0
    8.5411   -1.3651   -3.1652 N   0  0  0  0  0  0  0  0  0  0  0  0
    7.2526   -1.0323   -2.8992 C   0  0  0  0  0  0  0  0  0  0  0  0
    4.9715   -0.1508   -0.2036 N   0  0  0  0  0  0  0  0  0  0  0  0
    1.0869    0.9044    1.6215 C   0  0  0  0  0  0  0  0  0  0  0  0
   -2.6733    0.7036   -1.6293 C   0  0  0  0  0  0  0  0  0  0  0  0
   -3.7878    0.3961   -2.4241 C   0  0  0  0  0  0  0  0  0  0  0  0
   -3.6736    0.4113   -3.9286 C   0  0  0  0  0  0  0  0  0  0  0  0
   -2.8080    1.3586   -4.3858 F   0  0  0  0  0  0  0  0  0  0  0  0
   -3.2233   -0.7745   -4.4221 F   0  0  0  0  0  0  0  0  0  0  0  0
   -4.8576    0.6546   -4.5550 F   0  0  0  0  0  0  0  0  0  0  0  0
   -4.9942    0.0378   -1.8004 C   0  0  0  0  0  0  0  0  0  0  0  0
   -6.5859   -0.4407    1.5804 C   0  0  0  0  0  0  0  0  0  0  0  0
   -7.8232   -0.8048    1.8392 N   0  0  0  0  0  0  0  0  0  0  0  0
  -10.1439   -1.4774   -0.5276 H   0  0  0  0  0  0  0  0  0  0  0  0
   -9.9782   -2.3538    1.0046 H   0  0  0  0  0  0  0  0  0  0  0  0
  -10.4756   -0.6495    1.0047 H   0  0  0  0  0  0  0  0  0  0  0  0
   -7.6355   -0.7354   -1.4589 H   0  0  0  0  0  0  0  0  0  0  0  0
   -4.0184    0.2883    1.4522 H   0  0  0  0  0  0  0  0  0  0  0  0
   -0.7707    1.2298   -0.0838 H   0  0  0  0  0  0  0  0  0  0  0  0
   -0.7297    2.5188    4.0107 H   0  0  0  0  0  0  0  0  0  0  0  0
    1.5343    3.0848    4.7855 H   0  0  0  0  0  0  0  0  0  0  0  0
    4.4679    1.5251    4.0124 H   0  0  0  0  0  0  0  0  0  0  0  0
    3.8443    3.0864    4.5572 H   0  0  0  0  0  0  0  0  0  0  0  0
    4.4731    2.9394    2.9158 H   0  0  0  0  0  0  0  0  0  0  0  0
    4.4151    0.8590    1.7755 H   0  0  0  0  0  0  0  0  0  0  0  0
    2.1495   -0.6491   -2.6587 H   0  0  0  0  0  0  0  0  0  0  0  0
    4.4373   -1.3660   -3.3093 H   0  0  0  0  0  0  0  0  0  0  0  0
    7.1126   -1.4878    0.4368 H   0  0  0  0  0  0  0  0  0  0  0  0
    9.4781   -2.0937   -0.0020 H   0  0  0  0  0  0  0  0  0  0  0  0
   10.3272   -1.9962   -2.3501 H   0  0  0  0  0  0  0  0  0  0  0  0
    6.7004   -0.7171   -3.7808 H   0  0  0  0  0  0  0  0  0  0  0  0
    0.9402    0.2422    0.7750 H   0  0  0  0  0  0  0  0  0  0  0  0
   -1.7371    0.9715   -2.1175 H   0  0  0  0  0  0  0  0  0  0  0  0
   -5.8408   -0.2061   -2.4380 H   0  0  0  0  0  0  0  0  0  0  0  0
   -5.8509   -0.2260    2.3438 H   0  0  0  0  0  0  0  0  0  0  0  0
  1  2  1  0
  2  3  2  0
  3  4  1  0
  4  5  1  0
  5  6  2  0
  6  7  1  0
  7  8  1  0
  8  9  1  0
  9 10  2  0
  9 11  1  0
 11 12  2  0
 12 13  1  0
 13 14  2  0
 14 15  1  0
 14 16  1  0
 16 17  1  0
 17 18  1  0
 18 19  2  0
 19 20  1  0
 20 21  2  0
 21 22  1  0
 22 23  1  0
 23 24  2  0
 24 25  1  0
 25 26  2  0
 26 27  1  0
 27 28  2  0
 22 29  2  0
 16 30  2  0
  7 31  2  0
 31 32  1  0
 32 33  1  0
 33 34  1  0
 33 35  1  0
 33 36  1  0
 32 37  2  0
  4 38  1  0
 38 39  2  0
 39  2  1  0
 37  5  1  0
 30 11  1  0
 29 18  1  0
 28 23  1  0
  1 40  1  0
  1 41  1  0
  1 42  1  0
  3 43  1  0
  6 44  1  0
  8 45  1  0
 12 46  1  0
 13 47  1  0
 15 48  1  0
 15 49  1  0
 15 50  1  0
 17 51  1  0
 20 52  1  0
 21 53  1  0
 24 54  1  0
 25 55  1  0
 26 56  1  0
 28 57  1  0
 30 58  1  0
 31 59  1  0
 37 60  1  0
 38 61  1  0
M  END
$$$$
