
     RDKit          3D

 72 76  0  0  0  0  0  0  0  0999 V2000
   -7.9876    0.7312    2.9108 C   0  0  0  0  0  0  0  0  0  0  0  0
   -8.4557    0.9477    1.4983 C   0  0  0  0  0  0  0  0  0  0  0  0
   -8.0482    1.8716    0.8020 O   0  0  0  0  0  0  0  0  0  0  0  0
   -9.3346   -0.0088    1.0498 N   0  0  0  0  0  0  0  0  0  0  0  0
   -9.8950    0.0053   -0.2920 C   0  0  0  0  0  0  0  0  0  0  0  0
   -9.0886   -0.7988   -1.3260 C   0  0  1  0  0  0  0  0  0  0  0  0
   -7.6861   -0.2957   -1.5840 C   0  0  0  0  0  0  0  0  0  0  0  0
   -6.8803   -1.1216   -0.7314 N   0  0  0  0  0  0  0  0  0  0  0  0
   -5.5344   -0.8272   -0.3970 C   0  0  0  0  0  0  0  0  0  0  0  0
   -4.7950   -1.6285    0.4783 C   0  0  0  0  0  0  0  0  0  0  0  0
   -3.4648   -1.3208    0.8119 C   0  0  0  0  0  0  0  0  0  0  0  0
   -2.8107   -0.2013    0.2868 C   0  0  0  0  0  0  0  0  0  0  0  0
   -1.4955    0.0771    0.6450 N   0  0  0  0  0  0  0  0  0  0  0  0
   -0.9900    1.4588    0.6532 C   0  0  0  0  0  0  0  0  0  0  0  0
   -0.0744    1.7037   -0.5627 C   0  0  0  0  0  0  0  0  0  0  0  0
    1.0262    0.6448   -0.5786 N   0  0  0  0  0  0  0  0  0  0  0  0
    1.9524    0.8657   -1.6858 C   0  0  0  0  0  0  0  0  0  0  0  0
    1.4368    1.0646   -2.7700 O   0  0  0  0  0  0  0  0  0  0  0  0
    3.4171    0.8506   -1.4968 C   0  0  0  0  0  0  0  0  0  0  0  0
    4.0554    0.4619   -0.3822 C   0  0  0  0  0  0  0  0  0  0  0  0
    5.5227    0.4612   -0.2759 C   0  0  0  0  0  0  0  0  0  0  0  0
    6.3059    1.5179   -0.7535 C   0  0  0  0  0  0  0  0  0  0  0  0
    7.6981    1.4930   -0.6076 C   0  0  0  0  0  0  0  0  0  0  0  0
    8.3434    0.4215    0.0275 C   0  0  0  0  0  0  0  0  0  0  0  0
    9.8073    0.3983    0.1789 C   0  0  0  0  0  0  0  0  0  0  0  0
   10.6524    0.5530   -0.9330 C   0  0  0  0  0  0  0  0  0  0  0  0
   12.0425    0.5306   -0.7905 C   0  0  0  0  0  0  0  0  0  0  0  0
   12.6116    0.3540    0.4678 C   0  0  0  0  0  0  0  0  0  0  0  0
   11.7927    0.1993    1.5831 C   0  0  0  0  0  0  0  0  0  0  0  0
   10.4027    0.2207    1.4392 C   0  0  0  0  0  0  0  0  0  0  0  0
    7.5476   -0.6247    0.5171 C   0  0  0  0  0  0  0  0  0  0  0  0
    6.1553   -0.6045    0.3728 C   0  0  0  0  0  0  0  0  0  0  0  0
    0.4442   -0.7556   -0.6388 C   0  0  0  0  0  0  0  0  0  0  0  0
   -0.4881   -0.9916    0.5709 C   0  0  0  0  0  0  0  0  0  0  0  0
   -3.5703    0.5947   -0.5868 C   0  0  0  0  0  0  0  0  0  0  0  0
   -3.0121    1.6682   -1.1714 F   0  0  0  0  0  0  0  0  0  0  0  0
   -4.8942    0.2966   -0.9258 C   0  0  0  0  0  0  0  0  0  0  0  0
   -7.6197   -2.2366   -0.3585 C   0  0  0  0  0  0  0  0  0  0  0  0
   -7.2667   -3.2008    0.3011 O   0  0  0  0  0  0  0  0  0  0  0  0
   -8.8965   -2.1398   -0.8573 O   0  0  0  0  0  0  0  0  0  0  0  0
   -8.7803    0.2903    3.5218 H   0  0  0  0  0  0  0  0  0  0  0  0
   -7.1229    0.0623    2.9033 H   0  0  0  0  0  0  0  0  0  0  0  0
   -7.7033    1.6908    3.3511 H   0  0  0  0  0  0  0  0  0  0  0  0
   -9.5943   -0.7723    1.6652 H   0  0  0  0  0  0  0  0  0  0  0  0
  -10.0122    1.0418   -0.6262 H   0  0  0  0  0  0  0  0  0  0  0  0
  -10.8926   -0.4373   -0.1959 H   0  0  0  0  0  0  0  0  0  0  0  0
   -9.6548   -0.8300   -2.2637 H   0  0  0  0  0  0  0  0  0  0  0  0
   -7.5786    0.7740   -1.3947 H   0  0  0  0  0  0  0  0  0  0  0  0
   -7.3890   -0.5057   -2.6186 H   0  0  0  0  0  0  0  0  0  0  0  0
   -5.2270   -2.5084    0.9478 H   0  0  0  0  0  0  0  0  0  0  0  0
   -2.9662   -1.9672    1.5313 H   0  0  0  0  0  0  0  0  0  0  0  0
   -0.4003    1.5949    1.5691 H   0  0  0  0  0  0  0  0  0  0  0  0
   -1.7891    2.2062    0.7044 H   0  0  0  0  0  0  0  0  0  0  0  0
   -0.6277    1.6255   -1.5041 H   0  0  0  0  0  0  0  0  0  0  0  0
    0.4148    2.6806   -0.4913 H   0  0  0  0  0  0  0  0  0  0  0  0
    1.5482    0.7559    0.2896 H   0  0  0  0  0  0  0  0  0  0  0  0
    3.9666    1.1636   -2.3826 H   0  0  0  0  0  0  0  0  0  0  0  0
    3.5476    0.0879    0.5005 H   0  0  0  0  0  0  0  0  0  0  0  0
    5.8582    2.3839   -1.2348 H   0  0  0  0  0  0  0  0  0  0  0  0
    8.2831    2.3324   -0.9819 H   0  0  0  0  0  0  0  0  0  0  0  0
   10.2322    0.6810   -1.9284 H   0  0  0  0  0  0  0  0  0  0  0  0
   12.6805    0.6484   -1.6629 H   0  0  0  0  0  0  0  0  0  0  0  0
   13.6930    0.3369    0.5791 H   0  0  0  0  0  0  0  0  0  0  0  0
   12.2356    0.0644    2.5668 H   0  0  0  0  0  0  0  0  0  0  0  0
    9.7847    0.1092    2.3275 H   0  0  0  0  0  0  0  0  0  0  0  0
    8.0155   -1.4770    1.0085 H   0  0  0  0  0  0  0  0  0  0  0  0
    5.5853   -1.4431    0.7660 H   0  0  0  0  0  0  0  0  0  0  0  0
   -0.1042   -0.8476   -1.5835 H   0  0  0  0  0  0  0  0  0  0  0  0
    1.2807   -1.4619   -0.6225 H   0  0  0  0  0  0  0  0  0  0  0  0
   -0.9240   -1.9930    0.4902 H   0  0  0  0  0  0  0  0  0  0  0  0
    0.1048   -0.9755    1.4937 H   0  0  0  0  0  0  0  0  0  0  0  0
   -5.3902    0.9727   -1.6138 H   0  0  0  0  0  0  0  0  0  0  0  0
  1  2  1  0
  2  3  2  0
  2  4  1  0
  4  5  1  0
  5  6  1  0
  6  7  1  0
  7  8  1  0
  8  9  1  0
  9 10  2  0
 10 11  1  0
 11 12  2  0
 12 13  1  0
 13 14  1  0
 14 15  1  0
 15 16  1  0
 16 17  1  0
 17 18  2  0
 17 19  1  0
 19 20  2  0
 20 21  1  0
 21 22  2  0
 22 23  1  0
 23 24  2  0
 24 25  1  0
 25 26  2  0
 26 27  1  0
 27 28  2  0
 28 29  1  0
 29 30  2  0
 24 31  1  0
 31 32  2  0
 16 33  1  0
 33 34  1  0
 12 35  1  0
 35 36  1  0
 35 37  2  0
  8 38  1  0
 38 39  2  0
 38 40  1  0
 40  6  1  0
 37  9  1  0
 34 13  1  0
 32 21  1  0
 30 25  1  0
  1 41  1  0
  1 42  1  0
  1 43  1  0
  4 44  1  0
  5 45  1  0
  5 46  1  0
  6 47  1  6
  7 48  1  0
  7 49  1  0
 10 50  1  0
 11 51  1  0
 14 52  1  0
 14 53  1  0
 15 54  1  0
 15 55  1  0
 16 56  1  0
 19 57  1  0
 20 58  1  0
 22 59  1  0
 23 60  1  0
 26 61  1  0
 27 62  1  0
 28 63  1  0
 29 64  1  0
 30 65  1  0
 31 66  1  0
 32 67  1  0
 33 68  1  0
 33 69  1  0
 34 70  1  0
 34 71  1  0
 37 72  1  0
M  CHG  1  16   1
M  END
$$$$
