
     RDKit          3D

 63 67  0  0  0  0  0  0  0  0999 V2000
   -0.9676   -0.3491   -3.6827 C   0  0  0  0  0  0  0  0  0  0  0  0
   -2.4422   -0.0111   -3.5385 C   0  0  2  0  0  0  0  0  0  0  0  0
   -2.5715    1.4144   -3.4707 O   0  0  0  0  0  0  0  0  0  0  0  0
   -3.0513   -0.6501   -2.2782 C   0  0  0  0  0  0  0  0  0  0  0  0
   -4.4471   -0.2725   -2.1759 N   0  0  0  0  0  0  0  0  0  0  0  0
   -5.1552   -0.4847   -1.0260 C   0  0  0  0  0  0  0  0  0  0  0  0
   -6.4658   -0.2395   -1.0947 N   0  0  0  0  0  0  0  0  0  0  0  0
   -7.1758   -0.4017    0.0338 C   0  0  0  0  0  0  0  0  0  0  0  0
   -6.6266   -0.7995    1.2285 C   0  0  0  0  0  0  0  0  0  0  0  0
   -5.2695   -1.0481    1.2087 C   0  0  0  0  0  0  0  0  0  0  0  0
   -4.5934   -1.4433    2.4057 N   0  0  0  0  0  0  0  0  0  0  0  0
   -5.1042   -1.3947    3.6907 C   0  0  0  0  0  0  0  0  0  0  0  0
   -4.0739   -1.7363    4.5285 C   0  0  0  0  0  0  0  0  0  0  0  0
   -2.9549   -2.0370    3.8146 N   0  0  0  0  0  0  0  0  0  0  0  0
   -3.2833   -1.9137    2.5375 C   0  0  0  0  0  0  0  0  0  0  0  0
   -2.3760   -2.2801    1.4492 C   0  0  0  0  0  0  0  0  0  0  0  0
   -2.6370   -3.3945    0.6451 C   0  0  0  0  0  0  0  0  0  0  0  0
   -1.7420   -3.7555   -0.3604 C   0  0  0  0  0  0  0  0  0  0  0  0
   -0.5813   -3.0060   -0.5716 C   0  0  0  0  0  0  0  0  0  0  0  0
   -0.3004   -1.8949    0.2261 C   0  0  0  0  0  0  0  0  0  0  0  0
    0.8449   -1.0845    0.0774 N   0  0  0  0  0  0  0  0  0  0  0  0
    1.8204   -1.1718   -0.8986 C   0  0  0  0  0  0  0  0  0  0  0  0
    1.8153   -1.9495   -1.8459 O   0  0  0  0  0  0  0  0  0  0  0  0
    2.9060   -0.2087   -0.7386 C   0  0  0  0  0  0  0  0  0  0  0  0
    3.8898   -0.0065   -1.6861 C   0  0  0  0  0  0  0  0  0  0  0  0
    4.7723    0.9396   -1.2841 O   0  0  0  0  0  0  0  0  0  0  0  0
    4.3719    1.3759   -0.0532 C   0  0  0  0  0  0  0  0  0  0  0  0
    5.2124    2.4076    0.5519 C   0  0  0  0  0  0  0  0  0  0  0  0
    6.6058    2.3462    0.3419 C   0  0  0  0  0  0  0  0  0  0  0  0
    7.4850    3.2934    0.8962 C   0  0  0  0  0  0  0  0  0  0  0  0
    8.9735    3.1778    0.6688 C   0  0  0  0  0  0  0  0  0  0  0  0
    9.6279    4.3653    0.8004 F   0  0  0  0  0  0  0  0  0  0  0  0
    9.2895    2.7144   -0.5714 F   0  0  0  0  0  0  0  0  0  0  0  0
    9.5633    2.3259    1.5512 F   0  0  0  0  0  0  0  0  0  0  0  0
    6.9567    4.3174    1.6896 C   0  0  0  0  0  0  0  0  0  0  0  0
    5.5805    4.4012    1.9046 C   0  0  0  0  0  0  0  0  0  0  0  0
    4.7112    3.4579    1.3400 C   0  0  0  0  0  0  0  0  0  0  0  0
    3.0222    3.6914    1.6401 Cl  0  0  0  0  0  0  0  0  0  0  0  0
    3.2368    0.6845    0.3257 C   0  0  0  0  0  0  0  0  0  0  0  0
   -1.1972   -1.5490    1.2465 C   0  0  0  0  0  0  0  0  0  0  0  0
   -4.5364   -0.8958    0.0860 N   0  0  0  0  0  0  0  0  0  0  0  0
   -0.3920    0.0436   -2.8376 H   0  0  0  0  0  0  0  0  0  0  0  0
   -0.8102   -1.4300   -3.7447 H   0  0  0  0  0  0  0  0  0  0  0  0
   -0.5557    0.1165   -4.5845 H   0  0  0  0  0  0  0  0  0  0  0  0
   -2.9871   -0.3446   -4.4289 H   0  0  0  0  0  0  0  0  0  0  0  0
   -3.3919    1.5870   -2.9697 H   0  0  0  0  0  0  0  0  0  0  0  0
   -2.9596   -1.7399   -2.3242 H   0  0  0  0  0  0  0  0  0  0  0  0
   -2.5030   -0.2798   -1.4040 H   0  0  0  0  0  0  0  0  0  0  0  0
   -5.0201   -0.1111   -2.9912 H   0  0  0  0  0  0  0  0  0  0  0  0
   -8.2381   -0.1919   -0.0551 H   0  0  0  0  0  0  0  0  0  0  0  0
   -7.2588   -0.9145    2.0962 H   0  0  0  0  0  0  0  0  0  0  0  0
   -6.1117   -1.0835    3.9179 H   0  0  0  0  0  0  0  0  0  0  0  0
   -4.0812   -1.7785    5.6104 H   0  0  0  0  0  0  0  0  0  0  0  0
   -3.5317   -3.9912    0.8028 H   0  0  0  0  0  0  0  0  0  0  0  0
   -1.9441   -4.6245   -0.9817 H   0  0  0  0  0  0  0  0  0  0  0  0
    0.0883   -3.3281   -1.3628 H   0  0  0  0  0  0  0  0  0  0  0  0
    0.9363   -0.3374    0.7504 H   0  0  0  0  0  0  0  0  0  0  0  0
    4.0813   -0.4449   -2.6569 H   0  0  0  0  0  0  0  0  0  0  0  0
    7.0190    1.5386   -0.2659 H   0  0  0  0  0  0  0  0  0  0  0  0
    7.6141    5.0608    2.1394 H   0  0  0  0  0  0  0  0  0  0  0  0
    5.1868    5.2134    2.5128 H   0  0  0  0  0  0  0  0  0  0  0  0
    2.7237    0.8054    1.2689 H   0  0  0  0  0  0  0  0  0  0  0  0
   -0.9965   -0.7003    1.8965 H   0  0  0  0  0  0  0  0  0  0  0  0
  1  2  1  0
  2  3  1  0
  2  4  1  0
  4  5  1  0
  5  6  1  0
  6  7  2  0
  7  8  1  0
  8  9  2  0
  9 10  1  0
 10 11  1  0
 11 12  1  0
 12 13  2  0
 13 14  1  0
 14 15  2  0
 15 16  1  0
 16 17  2  0
 17 18  1  0
 18 19  2  0
 19 20  1  0
 20 21  1  0
 21 22  1  0
 22 23  2  0
 22 24  1  0
 24 25  2  0
 25 26  1  0
 26 27  1  0
 27 28  1  0
 28 29  2  0
 29 30  1  0
 30 31  1  0
 31 32  1  0
 31 33  1  0
 31 34  1  0
 30 35  2  0
 35 36  1  0
 36 37  2  0
 37 38  1  0
 27 39  2  0
 20 40  2  0
 10 41  2  0
 41  6  1  0
 15 11  1  0
 40 16  1  0
 39 24  1  0
 37 28  1  0
  1 42  1  0
  1 43  1  0
  1 44  1  0
  2 45  1  6
  3 46  1  0
  4 47  1  0
  4 48  1  0
  5 49  1  0
  8 50  1  0
  9 51  1  0
 12 52  1  0
 13 53  1  0
 17 54  1  0
 18 55  1  0
 19 56  1  0
 21 57  1  0
 25 58  1  0
 29 59  1  0
 35 60  1  0
 36 61  1  0
 39 62  1  0
 40 63  1  0
M  END
$$$$
