
     RDKit          3D

 53 56  0  0  0  0  0  0  0  0999 V2000
    9.6463   -2.9513    3.4893 N   0  0  0  0  0  0  0  0  0  0  0  0
    9.6074   -2.2716    2.5485 C   0  0  0  0  0  0  0  0  0  0  0  0
    9.5131   -1.4127    1.3595 C   0  0  0  0  0  0  0  0  0  0  0  0
    8.1426   -1.0241    1.0790 N   0  0  0  0  0  0  0  0  0  0  0  0
    7.8740   -0.1377    0.0617 C   0  0  0  0  0  0  0  0  0  0  0  0
    8.7531    0.3323   -0.6515 O   0  0  0  0  0  0  0  0  0  0  0  0
    6.4455    0.2104   -0.1703 C   0  0  0  0  0  0  0  0  0  0  0  0
    6.0627    0.6162   -1.4523 C   0  0  0  0  0  0  0  0  0  0  0  0
    4.7306    0.9548   -1.7213 C   0  0  0  0  0  0  0  0  0  0  0  0
    3.7482    0.9099   -0.7159 C   0  0  0  0  0  0  0  0  0  0  0  0
    2.3377    1.2653   -0.9786 C   0  0  0  0  0  0  0  0  0  0  0  0
    1.9653    2.2394   -1.8812 C   0  0  0  0  0  0  0  0  0  0  0  0
    0.6172    2.4549   -2.0108 C   0  0  0  0  0  0  0  0  0  0  0  0
   -0.3119    1.7764   -1.3190 N   0  0  0  0  0  0  0  0  0  0  0  0
    0.1191    0.8473   -0.4566 C   0  0  0  0  0  0  0  0  0  0  0  0
   -0.7561    0.0840    0.3098 N   0  0  0  0  0  0  0  0  0  0  0  0
   -2.1457    0.0318    0.4383 C   0  0  0  0  0  0  0  0  0  0  0  0
   -2.7072   -0.8957    1.3213 C   0  0  0  0  0  0  0  0  0  0  0  0
   -4.0972   -0.9992    1.4920 C   0  0  0  0  0  0  0  0  0  0  0  0
   -4.9965   -0.1888    0.7879 C   0  0  0  0  0  0  0  0  0  0  0  0
   -6.3661   -0.3013    0.9692 N   0  0  0  0  0  0  0  0  0  0  0  0
   -7.2925    0.7882    0.6222 C   0  0  0  0  0  0  0  0  0  0  0  0
   -7.9034    0.5913   -0.7703 C   0  0  0  0  0  0  0  0  0  0  0  0
   -8.8413   -0.9748   -0.9066 S   0  0  0  0  0  0  0  0  0  0  0  0
   -7.5582   -2.1010   -0.2449 C   0  0  0  0  0  0  0  0  0  0  0  0
   -7.0004   -1.6246    1.1028 C   0  0  0  0  0  0  0  0  0  0  0  0
   -4.4207    0.7479   -0.0792 C   0  0  0  0  0  0  0  0  0  0  0  0
   -3.0295    0.8530   -0.2560 C   0  0  0  0  0  0  0  0  0  0  0  0
    1.4204    0.5751   -0.2623 N   0  0  0  0  0  0  0  0  0  0  0  0
    4.1582    0.5070    0.5698 C   0  0  0  0  0  0  0  0  0  0  0  0
    5.4887    0.1667    0.8466 C   0  0  0  0  0  0  0  0  0  0  0  0
   10.1082   -0.5030    1.4954 H   0  0  0  0  0  0  0  0  0  0  0  0
    9.9000   -1.9352    0.4778 H   0  0  0  0  0  0  0  0  0  0  0  0
    7.3922   -1.4848    1.5773 H   0  0  0  0  0  0  0  0  0  0  0  0
    6.7993    0.6630   -2.2529 H   0  0  0  0  0  0  0  0  0  0  0  0
    4.4720    1.2387   -2.7395 H   0  0  0  0  0  0  0  0  0  0  0  0
    2.6779    2.8216   -2.4485 H   0  0  0  0  0  0  0  0  0  0  0  0
    0.2299    3.2049   -2.6941 H   0  0  0  0  0  0  0  0  0  0  0  0
   -0.2200   -0.5587    0.8729 H   0  0  0  0  0  0  0  0  0  0  0  0
   -2.0678   -1.5537    1.9047 H   0  0  0  0  0  0  0  0  0  0  0  0
   -4.4574   -1.7123    2.2278 H   0  0  0  0  0  0  0  0  0  0  0  0
   -6.8054    1.7682    0.6898 H   0  0  0  0  0  0  0  0  0  0  0  0
   -8.0956    0.8182    1.3707 H   0  0  0  0  0  0  0  0  0  0  0  0
   -8.5899    1.4145   -0.9917 H   0  0  0  0  0  0  0  0  0  0  0  0
   -7.1303    0.5883   -1.5449 H   0  0  0  0  0  0  0  0  0  0  0  0
   -8.0095   -3.0914   -0.1288 H   0  0  0  0  0  0  0  0  0  0  0  0
   -6.7583   -2.1845   -0.9884 H   0  0  0  0  0  0  0  0  0  0  0  0
   -7.8108   -1.5606    1.8406 H   0  0  0  0  0  0  0  0  0  0  0  0
   -6.3154   -2.3880    1.4840 H   0  0  0  0  0  0  0  0  0  0  0  0
   -5.0384    1.4185   -0.6679 H   0  0  0  0  0  0  0  0  0  0  0  0
   -2.6656    1.5993   -0.9553 H   0  0  0  0  0  0  0  0  0  0  0  0
    3.4292    0.4684    1.3793 H   0  0  0  0  0  0  0  0  0  0  0  0
    5.7521   -0.1009    1.8654 H   0  0  0  0  0  0  0  0  0  0  0  0
  1  2  3  0
  2  3  1  0
  3  4  1  0
  4  5  1  0
  5  6  2  0
  5  7  1  0
  7  8  2  0
  8  9  1  0
  9 10  2  0
 10 11  1  0
 11 12  2  0
 12 13  1  0
 13 14  2  0
 14 15  1  0
 15 16  1  0
 16 17  1  0
 17 18  2  0
 18 19  1  0
 19 20  2  0
 20 21  1  0
 21 22  1  0
 22 23  1  0
 23 24  1  0
 24 25  1  0
 25 26  1  0
 20 27  1  0
 27 28  2  0
 15 29  2  0
 10 30  1  0
 30 31  2  0
 31  7  1  0
 29 11  1  0
 28 17  1  0
 26 21  1  0
  3 32  1  0
  3 33  1  0
  4 34  1  0
  8 35  1  0
  9 36  1  0
 12 37  1  0
 13 38  1  0
 16 39  1  0
 18 40  1  0
 19 41  1  0
 22 42  1  0
 22 43  1  0
 23 44  1  0
 23 45  1  0
 25 46  1  0
 25 47  1  0
 26 48  1  0
 26 49  1  0
 27 50  1  0
 28 51  1  0
 30 52  1  0
 31 53  1  0
M  END
$$$$
