
     RDKit          3D

 84 88  0  0  0  0  0  0  0  0999 V2000
   -1.2127   -5.2241    0.6829 C   0  0  0  0  0  0  0  0  0  0  0  0
   -1.7270   -4.0150    1.2438 O   0  0  0  0  0  0  0  0  0  0  0  0
   -1.1578   -2.8884    0.7367 C   0  0  0  0  0  0  0  0  0  0  0  0
   -0.2947   -2.8573   -0.1294 O   0  0  0  0  0  0  0  0  0  0  0  0
   -1.7178   -1.6647    1.4373 C   0  0  0  0  0  0  0  0  0  0  0  0
   -1.6410   -0.3720    0.5740 C   0  0  1  0  0  0  0  0  0  0  0  0
   -2.8880   -0.1789   -0.3818 C   0  0  0  0  0  0  0  0  0  0  0  0
   -3.1787   -1.4691   -1.1955 C   0  0  0  0  0  0  0  0  0  0  0  0
   -4.1989    0.1204    0.3898 C   0  0  0  0  0  0  0  0  0  0  0  0
   -2.5796    0.9989   -1.3908 C   0  0  2  0  0  0  0  0  0  0  0  0
   -1.7910    0.4468   -2.4841 O   0  0  0  0  0  0  0  0  0  0  0  0
   -1.9829    0.9983   -3.7141 C   0  0  0  0  0  0  0  0  0  0  0  0
   -1.1427    0.3066   -4.7420 C   0  0  0  0  0  0  0  0  0  0  0  0
   -2.7679    1.9051   -3.9493 O   0  0  0  0  0  0  0  0  0  0  0  0
   -1.8189    2.2050   -0.7624 C   0  0  2  0  0  0  0  0  0  0  0  0
   -2.3466    3.5607   -1.2986 C   0  0  0  0  0  0  0  0  0  0  0  0
   -3.8365    3.8180   -1.2802 C   0  0  0  0  0  0  0  0  0  0  0  0
   -1.5913    4.4339   -1.7406 O   0  0  0  0  0  0  0  0  0  0  0  0
   -0.2998    2.1514   -0.9952 C   0  0  0  0  0  0  0  0  0  0  0  0
    0.6539    1.8122   -0.0975 C   0  0  0  0  0  0  0  0  0  0  0  0
    0.2689    1.3101    1.3104 C   0  0  2  0  0  0  0  0  0  0  0  0
    1.2012    0.1679    1.8031 C   0  0  2  0  0  0  0  0  0  0  0  0
    1.0817    0.0633    3.2408 O   0  0  0  0  0  0  0  0  0  0  0  0
    1.2926   -1.1669    3.7858 C   0  0  0  0  0  0  0  0  0  0  0  0
    1.2202   -1.0876    5.2792 C   0  0  0  0  0  0  0  0  0  0  0  0
    1.4880   -2.1935    3.1530 O   0  0  0  0  0  0  0  0  0  0  0  0
    2.6807    0.4400    1.5169 C   0  0  0  0  0  0  0  0  0  0  0  0
    3.0092    0.7753    0.0467 C   0  0  2  0  0  0  0  0  0  0  0  0
    4.5223    1.1294    0.0080 C   0  0  0  0  0  0  0  0  0  0  0  0
    2.1606    2.0068   -0.3672 C   0  0  1  0  0  0  0  0  0  0  0  0
    2.5349    2.4037   -1.7972 C   0  0  0  0  0  0  0  0  0  0  0  0
    2.4117    1.2609   -2.7658 C   0  0  0  0  0  0  0  0  0  0  0  0
    2.0543    1.4339   -3.9266 O   0  0  0  0  0  0  0  0  0  0  0  0
    2.8431    0.0559   -2.3377 O   0  0  0  0  0  0  0  0  0  0  0  0
    2.6848   -0.3693   -0.9596 C   0  0  1  0  0  0  0  0  0  0  0  0
    3.4889   -1.6241   -0.7453 C   0  0  0  0  0  0  0  0  0  0  0  0
    4.7406   -1.9687   -1.3402 C   0  0  0  0  0  0  0  0  0  0  0  0
    5.0807   -3.2089   -0.8571 C   0  0  0  0  0  0  0  0  0  0  0  0
    4.1233   -3.6638   -0.0124 O   0  0  0  0  0  0  0  0  0  0  0  0
    3.1579   -2.7114    0.0413 C   0  0  0  0  0  0  0  0  0  0  0  0
   -1.2742    0.9401    1.4057 C   0  0  2  0  0  0  0  0  0  0  0  0
   -1.7698    0.8999    2.8687 C   0  0  0  0  0  0  0  0  0  0  0  0
   -1.9576    2.1443    0.7426 C   0  0  0  0  0  0  0  0  0  0  0  0
   -2.5595    3.0023    1.3878 O   0  0  0  0  0  0  0  0  0  0  0  0
   -0.1395   -5.3121    0.8795 H   0  0  0  0  0  0  0  0  0  0  0  0
   -1.7227   -6.0639    1.1629 H   0  0  0  0  0  0  0  0  0  0  0  0
   -1.4157   -5.2636   -0.3919 H   0  0  0  0  0  0  0  0  0  0  0  0
   -2.7450   -1.8632    1.7547 H   0  0  0  0  0  0  0  0  0  0  0  0
   -1.1097   -1.5848    2.3387 H   0  0  0  0  0  0  0  0  0  0  0  0
   -0.8057   -0.5243   -0.1212 H   0  0  0  0  0  0  0  0  0  0  0  0
   -2.2846   -1.8455   -1.7027 H   0  0  0  0  0  0  0  0  0  0  0  0
   -3.9381   -1.2809   -1.9641 H   0  0  0  0  0  0  0  0  0  0  0  0
   -3.5652   -2.2728   -0.5599 H   0  0  0  0  0  0  0  0  0  0  0  0
   -5.0414    0.2097   -0.3072 H   0  0  0  0  0  0  0  0  0  0  0  0
   -4.4516   -0.6839    1.0875 H   0  0  0  0  0  0  0  0  0  0  0  0
   -4.1753    1.0480    0.9610 H   0  0  0  0  0  0  0  0  0  0  0  0
   -3.5476    1.3080   -1.8016 H   0  0  0  0  0  0  0  0  0  0  0  0
   -0.8460    1.0266   -5.5092 H   0  0  0  0  0  0  0  0  0  0  0  0
   -1.7144   -0.5084   -5.1913 H   0  0  0  0  0  0  0  0  0  0  0  0
   -0.2323   -0.0915   -4.2858 H   0  0  0  0  0  0  0  0  0  0  0  0
   -4.2672    3.5430   -2.2454 H   0  0  0  0  0  0  0  0  0  0  0  0
   -4.3278    3.2516   -0.4868 H   0  0  0  0  0  0  0  0  0  0  0  0
   -4.0141    4.8809   -1.0928 H   0  0  0  0  0  0  0  0  0  0  0  0
   -0.0258    2.5099   -1.9868 H   0  0  0  0  0  0  0  0  0  0  0  0
    0.4321    2.1694    1.9802 H   0  0  0  0  0  0  0  0  0  0  0  0
    0.9192   -0.7742    1.3285 H   0  0  0  0  0  0  0  0  0  0  0  0
    1.9520   -0.3645    5.6482 H   0  0  0  0  0  0  0  0  0  0  0  0
    0.2104   -0.8044    5.5861 H   0  0  0  0  0  0  0  0  0  0  0  0
    1.4569   -2.0665    5.7057 H   0  0  0  0  0  0  0  0  0  0  0  0
    3.2784   -0.4141    1.8596 H   0  0  0  0  0  0  0  0  0  0  0  0
    3.0061    1.2717    2.1599 H   0  0  0  0  0  0  0  0  0  0  0  0
    5.1242    0.3623    0.5084 H   0  0  0  0  0  0  0  0  0  0  0  0
    4.7173    2.0752    0.5268 H   0  0  0  0  0  0  0  0  0  0  0  0
    4.9083    1.2225   -1.0118 H   0  0  0  0  0  0  0  0  0  0  0  0
    2.4509    2.8533    0.2737 H   0  0  0  0  0  0  0  0  0  0  0  0
    3.5683    2.7643   -1.8492 H   0  0  0  0  0  0  0  0  0  0  0  0
    1.9274    3.2444   -2.1491 H   0  0  0  0  0  0  0  0  0  0  0  0
    1.6293   -0.6566   -0.8752 H   0  0  0  0  0  0  0  0  0  0  0  0
    5.3167   -1.3814   -2.0421 H   0  0  0  0  0  0  0  0  0  0  0  0
    5.9200   -3.8716   -1.0142 H   0  0  0  0  0  0  0  0  0  0  0  0
    2.3118   -2.9502    0.6724 H   0  0  0  0  0  0  0  0  0  0  0  0
   -1.3303    0.1018    3.4660 H   0  0  0  0  0  0  0  0  0  0  0  0
   -2.8566    0.7715    2.9152 H   0  0  0  0  0  0  0  0  0  0  0  0
   -1.5368    1.8367    3.3897 H   0  0  0  0  0  0  0  0  0  0  0  0
  1  2  1  0
  2  3  1  0
  3  4  2  0
  3  5  1  0
  5  6  1  0
  6  7  1  0
  7  8  1  0
  7  9  1  0
  7 10  1  0
 10 11  1  0
 11 12  1  0
 12 13  1  0
 12 14  2  0
 10 15  1  0
 15 16  1  6
 16 17  1  0
 16 18  2  0
 15 19  1  0
 19 20  2  0
 20 21  1  0
 21 22  1  0
 22 23  1  0
 23 24  1  0
 24 25  1  0
 24 26  2  0
 22 27  1  0
 27 28  1  0
 28 29  1  1
 28 30  1  0
 30 31  1  0
 31 32  1  0
 32 33  2  0
 32 34  1  0
 34 35  1  0
 35 36  1  0
 36 37  1  0
 37 38  2  0
 38 39  1  0
 39 40  1  0
 21 41  1  0
 41 42  1  1
 41 43  1  0
 43 44  2  0
 41  6  1  0
 43 15  1  0
 30 20  1  0
 40 36  2  0
 35 28  1  0
  1 45  1  0
  1 46  1  0
  1 47  1  0
  5 48  1  0
  5 49  1  0
  6 50  1  6
  8 51  1  0
  8 52  1  0
  8 53  1  0
  9 54  1  0
  9 55  1  0
  9 56  1  0
 10 57  1  6
 13 58  1  0
 13 59  1  0
 13 60  1  0
 17 61  1  0
 17 62  1  0
 17 63  1  0
 19 64  1  0
 21 65  1  1
 22 66  1  6
 25 67  1  0
 25 68  1  0
 25 69  1  0
 27 70  1  0
 27 71  1  0
 29 72  1  0
 29 73  1  0
 29 74  1  0
 30 75  1  1
 31 76  1  0
 31 77  1  0
 35 78  1  6
 37 79  1  0
 38 80  1  0
 40 81  1  0
 42 82  1  0
 42 83  1  0
 42 84  1  0
M  END
$$$$
