
     RDKit          3D

 83 87  0  0  0  0  0  0  0  0999 V2000
    6.5114   -1.9073   -1.4575 C   0  0  0  0  0  0  0  0  0  0  0  0
    5.6323   -0.6778   -1.1836 C   0  0  2  0  0  0  0  0  0  0  0  0
    6.1477    0.0044    0.0910 C   0  0  0  0  0  0  0  0  0  0  0  0
    5.4308    1.3235    0.3318 C   0  0  0  0  0  0  0  0  0  0  0  0
    3.8900    1.2003    0.4096 C   0  0  2  0  0  0  0  0  0  0  0  0
    3.5167    2.7195    0.2861 C   0  0  0  0  0  0  0  0  0  0  0  0
    3.3709    3.1663   -0.8894 O   0  0  0  0  0  0  0  0  0  0  0  0
    3.4573    3.3646    1.3743 O   0  0  0  0  0  0  0  0  0  0  0  0
    3.4570    0.6094    1.7601 C   0  0  0  0  0  0  0  0  0  0  0  0
    1.9382    0.6230    1.9290 C   0  0  0  0  0  0  0  0  0  0  0  0
    1.1186    0.0163    0.7495 C   0  0  2  0  0  0  0  0  0  0  0  0
    1.0682   -1.5241    0.9950 C   0  0  0  0  0  0  0  0  0  0  0  0
    1.7820    0.1962   -0.6317 C   0  0  0  0  0  0  0  0  0  0  0  0
    1.0253    0.2773   -1.7477 C   0  0  0  0  0  0  0  0  0  0  0  0
   -0.4694    0.1921   -1.8147 C   0  0  0  0  0  0  0  0  0  0  0  0
   -1.1839   -0.0067   -0.4571 C   0  0  2  0  0  0  0  0  0  0  0  0
   -2.7604    0.2445   -0.5069 C   0  0  1  0  0  0  0  0  0  0  0  0
   -3.1100    1.6974   -0.9309 C   0  0  0  0  0  0  0  0  0  0  0  0
   -3.4155   -0.7117   -1.5616 C   0  0  1  0  0  0  0  0  0  0  0  0
   -2.9550   -2.0609   -1.3882 O   0  0  0  0  0  0  0  0  0  0  0  0
   -4.9504   -0.7487   -1.4852 C   0  0  1  0  0  0  0  0  0  0  0  0
   -5.4299   -1.7510   -2.4083 O   0  0  0  0  0  0  0  0  0  0  0  0
   -5.4442   -1.1123   -0.0776 C   0  0  2  0  0  0  0  0  0  0  0  0
   -6.8830   -1.1498   -0.1122 O   0  0  0  0  0  0  0  0  0  0  0  0
   -4.8991   -0.1853    1.0472 C   0  0  0  0  0  0  0  0  0  0  0  0
   -5.5836    1.1972    1.0351 C   0  0  0  0  0  0  0  0  0  0  0  0
   -5.2887   -0.8410    2.4011 C   0  0  0  0  0  0  0  0  0  0  0  0
   -3.3269   -0.1169    0.9227 C   0  0  2  0  0  0  0  0  0  0  0  0
   -2.6350    0.7231    2.0185 C   0  0  0  0  0  0  0  0  0  0  0  0
   -1.1276    0.4615    2.0614 C   0  0  0  0  0  0  0  0  0  0  0  0
   -0.3826    0.6764    0.7136 C   0  0  1  0  0  0  0  0  0  0  0  0
   -0.2817    2.2205    0.4904 C   0  0  0  0  0  0  0  0  0  0  0  0
    3.3144    0.3581   -0.7583 C   0  0  2  0  0  0  0  0  0  0  0  0
    4.1083   -0.9846   -1.0567 C   0  0  1  0  0  0  0  0  0  0  0  0
    3.5830   -1.6544   -2.3430 C   0  0  0  0  0  0  0  0  0  0  0  0
    3.9503   -1.9352    0.0034 O   0  0  0  0  0  0  0  0  0  0  0  0
    7.5679   -1.6195   -1.5048 H   0  0  0  0  0  0  0  0  0  0  0  0
    6.4120   -2.6641   -0.6731 H   0  0  0  0  0  0  0  0  0  0  0  0
    6.2706   -2.3700   -2.4184 H   0  0  0  0  0  0  0  0  0  0  0  0
    5.7755    0.0136   -2.0257 H   0  0  0  0  0  0  0  0  0  0  0  0
    6.0350   -0.6541    0.9603 H   0  0  0  0  0  0  0  0  0  0  0  0
    7.2219    0.2077   -0.0038 H   0  0  0  0  0  0  0  0  0  0  0  0
    5.7242    2.0060   -0.4790 H   0  0  0  0  0  0  0  0  0  0  0  0
    5.8251    1.7735    1.2531 H   0  0  0  0  0  0  0  0  0  0  0  0
    3.8992    1.1736    2.5918 H   0  0  0  0  0  0  0  0  0  0  0  0
    3.8283   -0.4117    1.8851 H   0  0  0  0  0  0  0  0  0  0  0  0
    1.6541    1.6560    2.1271 H   0  0  0  0  0  0  0  0  0  0  0  0
    1.6906    0.0949    2.8600 H   0  0  0  0  0  0  0  0  0  0  0  0
    0.3665   -1.8123    1.7789 H   0  0  0  0  0  0  0  0  0  0  0  0
    2.0329   -1.9097    1.3328 H   0  0  0  0  0  0  0  0  0  0  0  0
    0.7992   -2.0875    0.0945 H   0  0  0  0  0  0  0  0  0  0  0  0
    1.5145    0.4594   -2.7025 H   0  0  0  0  0  0  0  0  0  0  0  0
   -0.7278   -0.6372   -2.4839 H   0  0  0  0  0  0  0  0  0  0  0  0
   -0.8075    1.1024   -2.3150 H   0  0  0  0  0  0  0  0  0  0  0  0
   -1.1011   -1.0816   -0.2510 H   0  0  0  0  0  0  0  0  0  0  0  0
   -3.2281    2.3754   -0.0846 H   0  0  0  0  0  0  0  0  0  0  0  0
   -2.3625    2.1397   -1.5914 H   0  0  0  0  0  0  0  0  0  0  0  0
   -4.0445    1.7613   -1.4927 H   0  0  0  0  0  0  0  0  0  0  0  0
   -3.1181   -0.4207   -2.5764 H   0  0  0  0  0  0  0  0  0  0  0  0
   -3.4916   -2.5901   -2.0122 H   0  0  0  0  0  0  0  0  0  0  0  0
   -5.3995    0.1915   -1.8161 H   0  0  0  0  0  0  0  0  0  0  0  0
   -6.3179   -1.9984   -2.0796 H   0  0  0  0  0  0  0  0  0  0  0  0
   -5.1451   -2.1473    0.1346 H   0  0  0  0  0  0  0  0  0  0  0  0
   -7.2047   -0.2482   -0.2844 H   0  0  0  0  0  0  0  0  0  0  0  0
   -5.5802    1.6624    0.0487 H   0  0  0  0  0  0  0  0  0  0  0  0
   -6.6355    1.1211    1.3358 H   0  0  0  0  0  0  0  0  0  0  0  0
   -5.1125    1.8892    1.7397 H   0  0  0  0  0  0  0  0  0  0  0  0
   -5.0544   -0.1946    3.2527 H   0  0  0  0  0  0  0  0  0  0  0  0
   -6.3644   -1.0462    2.4508 H   0  0  0  0  0  0  0  0  0  0  0  0
   -4.7668   -1.7935    2.5459 H   0  0  0  0  0  0  0  0  0  0  0  0
   -2.9992   -1.1526    1.1118 H   0  0  0  0  0  0  0  0  0  0  0  0
   -2.8268    1.7923    1.8991 H   0  0  0  0  0  0  0  0  0  0  0  0
   -3.0283    0.4617    3.0060 H   0  0  0  0  0  0  0  0  0  0  0  0
   -0.6878    1.0950    2.8419 H   0  0  0  0  0  0  0  0  0  0  0  0
   -1.0085   -0.5642    2.4171 H   0  0  0  0  0  0  0  0  0  0  0  0
    0.2455    2.7283    1.3013 H   0  0  0  0  0  0  0  0  0  0  0  0
   -1.2563    2.7037    0.4687 H   0  0  0  0  0  0  0  0  0  0  0  0
    0.2275    2.4888   -0.4384 H   0  0  0  0  0  0  0  0  0  0  0  0
    3.4797    0.9482   -1.6731 H   0  0  0  0  0  0  0  0  0  0  0  0
    3.6685   -0.9889   -3.2077 H   0  0  0  0  0  0  0  0  0  0  0  0
    4.1189   -2.5816   -2.5691 H   0  0  0  0  0  0  0  0  0  0  0  0
    2.5392   -1.9656   -2.2320 H   0  0  0  0  0  0  0  0  0  0  0  0
    4.1967   -2.8102   -0.3318 H   0  0  0  0  0  0  0  0  0  0  0  0
  1  2  1  0
  2  3  1  0
  3  4  1  0
  4  5  1  0
  5  6  1  6
  6  7  2  0
  6  8  1  0
  5  9  1  0
  9 10  1  0
 10 11  1  0
 11 12  1  1
 11 13  1  0
 13 14  2  0
 14 15  1  0
 15 16  1  0
 16 17  1  0
 17 18  1  6
 17 19  1  0
 19 20  1  0
 19 21  1  0
 21 22  1  0
 21 23  1  0
 23 24  1  0
 23 25  1  0
 25 26  1  0
 25 27  1  0
 25 28  1  0
 28 29  1  0
 29 30  1  0
 30 31  1  0
 31 32  1  6
 13 33  1  0
 33 34  1  0
 34 35  1  0
 34 36  1  1
 34  2  1  0
 33  5  1  0
 31 11  1  0
 31 16  1  0
 28 17  1  0
  1 37  1  0
  1 38  1  0
  1 39  1  0
  2 40  1  6
  3 41  1  0
  3 42  1  0
  4 43  1  0
  4 44  1  0
  9 45  1  0
  9 46  1  0
 10 47  1  0
 10 48  1  0
 12 49  1  0
 12 50  1  0
 12 51  1  0
 14 52  1  0
 15 53  1  0
 15 54  1  0
 16 55  1  1
 18 56  1  0
 18 57  1  0
 18 58  1  0
 19 59  1  6
 20 60  1  0
 21 61  1  6
 22 62  1  0
 23 63  1  1
 24 64  1  0
 26 65  1  0
 26 66  1  0
 26 67  1  0
 27 68  1  0
 27 69  1  0
 27 70  1  0
 28 71  1  1
 29 72  1  0
 29 73  1  0
 30 74  1  0
 30 75  1  0
 32 76  1  0
 32 77  1  0
 32 78  1  0
 33 79  1  6
 35 80  1  0
 35 81  1  0
 35 82  1  0
 36 83  1  0
M  CHG  1   8  -1
M  END
$$$$
