
     RDKit          3D

 80 85  0  0  0  0  0  0  0  0999 V2000
    3.0516   -2.6464   -1.1566 C   0  0  0  0  0  0  0  0  0  0  0  0
    2.4971   -1.4608   -0.8401 C   0  0  0  0  0  0  0  0  0  0  0  0
    3.1743   -0.1709   -1.0427 C   0  0  0  0  0  0  0  0  0  0  0  0
    4.6834   -0.1305   -1.3326 C   0  0  1  0  0  0  0  0  0  0  0  0
    4.9109    0.0225   -2.8456 C   0  0  0  0  0  0  0  0  0  0  0  0
    5.4844    0.9424   -0.5385 C   0  0  1  0  0  0  0  0  0  0  0  0
    5.3207    0.7889    0.9753 C   0  0  0  0  0  0  0  0  0  0  0  0
    6.2818    1.6956    1.6731 C   0  0  0  0  0  0  0  0  0  0  0  0
    7.4270    2.0894    1.0930 C   0  0  0  0  0  0  0  0  0  0  0  0
    8.4135    3.0003    1.7537 C   0  0  0  0  0  0  0  0  0  0  0  0
    7.8123    1.5589   -0.2419 C   0  0  0  0  0  0  0  0  0  0  0  0
    8.9251    1.7548   -0.7138 O   0  0  0  0  0  0  0  0  0  0  0  0
    6.8842    0.8103   -0.8901 O   0  0  0  0  0  0  0  0  0  0  0  0
    2.4624    0.9714   -0.9779 C   0  0  0  0  0  0  0  0  0  0  0  0
    0.9999    1.0372   -0.6781 C   0  0  0  0  0  0  0  0  0  0  0  0
    0.5098   -0.1064    0.2407 C   0  0  2  0  0  0  0  0  0  0  0  0
    0.9749    0.1608    1.6871 C   0  0  0  0  0  0  0  0  0  0  0  0
    1.0957   -1.4678   -0.2370 C   0  0  1  0  0  0  0  0  0  0  0  0
    0.0117   -2.0161   -1.1744 C   0  0  0  0  0  0  0  0  0  0  0  0
   -1.2788   -1.6898   -0.4190 C   0  0  2  0  0  0  0  0  0  0  0  0
   -1.3711   -2.5828    0.6928 O   0  0  0  0  0  0  0  0  0  0  0  0
   -2.4903   -1.8043   -1.2921 C   0  0  1  0  0  0  0  0  0  0  0  0
   -3.4120   -2.8363   -0.9375 O   0  0  0  0  0  0  0  0  0  0  0  0
   -3.9029   -1.4797   -0.7956 C   0  0  2  0  0  0  0  0  0  0  0  0
   -4.8155   -0.9458   -1.8308 C   0  0  0  0  0  0  0  0  0  0  0  0
   -5.9126   -0.1840   -1.7437 C   0  0  0  0  0  0  0  0  0  0  0  0
   -6.5775    0.4268   -0.5886 C   0  0  0  0  0  0  0  0  0  0  0  0
   -7.3358    1.3713   -0.7925 O   0  0  0  0  0  0  0  0  0  0  0  0
   -6.3695   -0.0274    0.6573 O   0  0  0  0  0  0  0  0  0  0  0  0
   -5.6253   -1.1966    1.0737 C   0  0  0  0  0  0  0  0  0  0  0  0
   -5.7558   -1.1875    2.6175 C   0  0  0  0  0  0  0  0  0  0  0  0
   -6.3333   -2.4870    0.6123 C   0  0  0  0  0  0  0  0  0  0  0  0
   -4.1182   -1.1127    0.6735 C   0  0  2  0  0  0  0  0  0  0  0  0
   -3.4337    0.2394    1.0479 C   0  0  2  0  0  0  0  0  0  0  0  0
   -3.7021    1.2367    0.0386 O   0  0  0  0  0  0  0  0  0  0  0  0
   -3.7323    2.5350    0.4533 C   0  0  0  0  0  0  0  0  0  0  0  0
   -4.0706    3.4312   -0.6980 C   0  0  0  0  0  0  0  0  0  0  0  0
   -3.5044    2.9246    1.5890 O   0  0  0  0  0  0  0  0  0  0  0  0
   -1.9091    0.1399    1.2896 C   0  0  0  0  0  0  0  0  0  0  0  0
   -1.0574   -0.2450    0.0690 C   0  0  1  0  0  0  0  0  0  0  0  0
    2.5223   -3.5781   -0.9754 H   0  0  0  0  0  0  0  0  0  0  0  0
    4.0268   -2.7553   -1.6159 H   0  0  0  0  0  0  0  0  0  0  0  0
    5.1440   -1.0831   -1.0448 H   0  0  0  0  0  0  0  0  0  0  0  0
    4.5920    1.0093   -3.1991 H   0  0  0  0  0  0  0  0  0  0  0  0
    5.9690   -0.0984   -3.1006 H   0  0  0  0  0  0  0  0  0  0  0  0
    4.3537   -0.7337   -3.4096 H   0  0  0  0  0  0  0  0  0  0  0  0
    5.1770    1.9472   -0.8576 H   0  0  0  0  0  0  0  0  0  0  0  0
    5.5175   -0.2405    1.2967 H   0  0  0  0  0  0  0  0  0  0  0  0
    4.3024    1.0490    1.2789 H   0  0  0  0  0  0  0  0  0  0  0  0
    6.0229    2.0302    2.6739 H   0  0  0  0  0  0  0  0  0  0  0  0
    8.0654    3.3326    2.7375 H   0  0  0  0  0  0  0  0  0  0  0  0
    9.3733    2.4928    1.8962 H   0  0  0  0  0  0  0  0  0  0  0  0
    8.5779    3.8935    1.1421 H   0  0  0  0  0  0  0  0  0  0  0  0
    2.9341    1.9295   -1.1800 H   0  0  0  0  0  0  0  0  0  0  0  0
    0.4774    1.0331   -1.6434 H   0  0  0  0  0  0  0  0  0  0  0  0
    0.7712    2.0030   -0.2100 H   0  0  0  0  0  0  0  0  0  0  0  0
    2.0665    0.1439    1.7705 H   0  0  0  0  0  0  0  0  0  0  0  0
    0.6410    1.1401    2.0449 H   0  0  0  0  0  0  0  0  0  0  0  0
    0.5936   -0.6012    2.3754 H   0  0  0  0  0  0  0  0  0  0  0  0
    1.1431   -2.1366    0.6372 H   0  0  0  0  0  0  0  0  0  0  0  0
    0.0506   -1.5197   -2.1522 H   0  0  0  0  0  0  0  0  0  0  0  0
    0.1239   -3.0947   -1.3326 H   0  0  0  0  0  0  0  0  0  0  0  0
   -1.7888   -3.3987    0.3566 H   0  0  0  0  0  0  0  0  0  0  0  0
   -2.2701   -1.6528   -2.3423 H   0  0  0  0  0  0  0  0  0  0  0  0
   -4.5597   -1.2478   -2.8481 H   0  0  0  0  0  0  0  0  0  0  0  0
   -6.4059    0.0938   -2.6739 H   0  0  0  0  0  0  0  0  0  0  0  0
   -5.1750   -1.9934    3.0783 H   0  0  0  0  0  0  0  0  0  0  0  0
   -5.4448   -0.2345    3.0553 H   0  0  0  0  0  0  0  0  0  0  0  0
   -6.8039   -1.3096    2.9180 H   0  0  0  0  0  0  0  0  0  0  0  0
   -6.4128   -2.5777   -0.4727 H   0  0  0  0  0  0  0  0  0  0  0  0
   -5.8163   -3.3766    0.9881 H   0  0  0  0  0  0  0  0  0  0  0  0
   -7.3673   -2.5106    0.9774 H   0  0  0  0  0  0  0  0  0  0  0  0
   -3.6361   -1.8867    1.2855 H   0  0  0  0  0  0  0  0  0  0  0  0
   -3.8585    0.5823    1.9961 H   0  0  0  0  0  0  0  0  0  0  0  0
   -3.3311    3.3074   -1.4933 H   0  0  0  0  0  0  0  0  0  0  0  0
   -4.0498    4.4726   -0.3643 H   0  0  0  0  0  0  0  0  0  0  0  0
   -5.0733    3.2030   -1.0662 H   0  0  0  0  0  0  0  0  0  0  0  0
   -1.5728    1.1280    1.6249 H   0  0  0  0  0  0  0  0  0  0  0  0
   -1.7304   -0.5485    2.1236 H   0  0  0  0  0  0  0  0  0  0  0  0
   -1.3611    0.4276   -0.7455 H   0  0  0  0  0  0  0  0  0  0  0  0
  1  2  2  0
  2  3  1  0
  3  4  1  0
  4  5  1  0
  4  6  1  0
  6  7  1  0
  7  8  1  0
  8  9  2  0
  9 10  1  0
  9 11  1  0
 11 12  2  0
 11 13  1  0
  3 14  2  0
 14 15  1  0
 15 16  1  0
 16 17  1  1
 16 18  1  0
 18 19  1  0
 19 20  1  0
 20 21  1  1
 20 22  1  0
 22 23  1  0
 24 23  1  1
 24 25  1  0
 25 26  2  0
 26 27  1  0
 27 28  2  0
 27 29  1  0
 29 30  1  0
 30 31  1  0
 30 32  1  0
 30 33  1  0
 33 34  1  0
 34 35  1  0
 35 36  1  0
 36 37  1  0
 36 38  2  0
 34 39  1  0
 39 40  1  0
 18  2  1  0
 40 20  1  0
 13  6  1  0
 40 16  1  0
 24 22  1  0
 33 24  1  0
  1 41  1  0
  1 42  1  0
  4 43  1  1
  5 44  1  0
  5 45  1  0
  5 46  1  0
  6 47  1  6
  7 48  1  0
  7 49  1  0
  8 50  1  0
 10 51  1  0
 10 52  1  0
 10 53  1  0
 14 54  1  0
 15 55  1  0
 15 56  1  0
 17 57  1  0
 17 58  1  0
 17 59  1  0
 18 60  1  1
 19 61  1  0
 19 62  1  0
 21 63  1  0
 22 64  1  6
 25 65  1  0
 26 66  1  0
 31 67  1  0
 31 68  1  0
 31 69  1  0
 32 70  1  0
 32 71  1  0
 32 72  1  0
 33 73  1  1
 34 74  1  1
 37 75  1  0
 37 76  1  0
 37 77  1  0
 39 78  1  0
 39 79  1  0
 40 80  1  6
M  END
$$$$
