
     RDKit          3D

 82 87  0  0  0  0  0  0  0  0999 V2000
    2.5562   -3.7347   -2.9593 C   0  0  0  0  0  0  0  0  0  0  0  0
    2.4488   -2.4749   -2.1387 C   0  0  0  0  0  0  0  0  0  0  0  0
    2.3998   -1.2363   -2.7993 C   0  0  0  0  0  0  0  0  0  0  0  0
    2.2687   -0.0484   -2.0794 C   0  0  0  0  0  0  0  0  0  0  0  0
    2.2407   -0.0779   -0.6877 C   0  0  0  0  0  0  0  0  0  0  0  0
    2.1030    1.0818    0.0987 N   0  0  0  0  0  0  0  0  0  0  0  0
    1.4992    2.2572   -0.2981 C   0  0  0  0  0  0  0  0  0  0  0  0
    0.8209    2.4154   -1.3131 O   0  0  0  0  0  0  0  0  0  0  0  0
    1.6041    3.3821    0.6641 C   0  0  0  0  0  0  0  0  0  0  0  0
    1.8796    4.6599    0.1680 C   0  0  0  0  0  0  0  0  0  0  0  0
    1.9574    5.7433    1.0432 C   0  0  0  0  0  0  0  0  0  0  0  0
    1.7446    5.5563    2.4107 C   0  0  0  0  0  0  0  0  0  0  0  0
    1.4547    4.2820    2.9208 C   0  0  0  0  0  0  0  0  0  0  0  0
    1.1842    4.0707    4.3942 C   0  0  0  0  0  0  0  0  0  0  0  0
    1.8820    3.0170    4.8953 F   0  0  0  0  0  0  0  0  0  0  0  0
    1.4824    5.1426    5.1699 F   0  0  0  0  0  0  0  0  0  0  0  0
   -0.1299    3.7867    4.6146 F   0  0  0  0  0  0  0  0  0  0  0  0
    1.3826    3.1923    2.0343 C   0  0  0  0  0  0  0  0  0  0  0  0
    2.3652   -1.3013   -0.0236 C   0  0  0  0  0  0  0  0  0  0  0  0
    2.4158   -2.5167   -0.7278 C   0  0  0  0  0  0  0  0  0  0  0  0
    2.3577   -3.7669   -0.0681 N   0  0  0  0  0  0  0  0  0  0  0  0
    2.0094   -4.0485    1.2140 C   0  0  0  0  0  0  0  0  0  0  0  0
    2.6840   -4.8995    1.9501 N   0  0  0  0  0  0  0  0  0  0  0  0
    2.2190   -4.7412    3.2247 C   0  0  0  0  0  0  0  0  0  0  0  0
    2.6687   -5.3502    4.4061 C   0  0  0  0  0  0  0  0  0  0  0  0
    2.0447   -5.0272    5.6146 C   0  0  0  0  0  0  0  0  0  0  0  0
    0.9862   -4.1217    5.6456 C   0  0  0  0  0  0  0  0  0  0  0  0
    0.5178   -3.5133    4.4750 C   0  0  0  0  0  0  0  0  0  0  0  0
    1.1632   -3.8336    3.2683 C   0  0  0  0  0  0  0  0  0  0  0  0
    0.9443   -3.4948    1.9351 N   0  0  0  0  0  0  0  0  0  0  0  0
   -0.1663   -2.7387    1.4460 C   0  0  0  0  0  0  0  0  0  0  0  0
   -0.6467   -2.9501    0.1678 C   0  0  0  0  0  0  0  0  0  0  0  0
   -1.6629   -2.1176   -0.2555 C   0  0  0  0  0  0  0  0  0  0  0  0
   -2.1858   -2.2040   -1.5412 N   0  0  0  0  0  0  0  0  0  0  0  0
   -1.4315   -1.5502   -2.6130 C   0  0  0  0  0  0  0  0  0  0  0  0
   -1.3037   -0.0244   -2.3899 C   0  0  0  0  0  0  0  0  0  0  0  0
   -2.5889    0.5462   -1.7894 N   0  0  0  0  0  0  0  0  0  0  0  0
   -2.3744    1.8338   -1.0240 C   0  0  0  0  0  0  0  0  0  0  0  0
   -2.2663    3.0612   -1.9589 C   0  0  0  0  0  0  0  0  0  0  0  0
   -3.2246    2.9766   -3.1571 N   0  0  0  0  0  0  0  0  0  0  0  0
   -3.7399    4.3402   -3.5575 C   0  0  0  0  0  0  0  0  0  0  0  0
   -4.3533    1.9722   -2.9608 C   0  0  0  0  0  0  0  0  0  0  0  0
   -3.7998    0.5463   -2.7004 C   0  0  0  0  0  0  0  0  0  0  0  0
   -2.1720   -1.1306    0.5032 N   0  0  0  0  0  0  0  0  0  0  0  0
   -1.7075   -1.0756    1.7624 C   0  0  0  0  0  0  0  0  0  0  0  0
   -0.7181   -1.8161    2.2649 N   0  0  0  0  0  0  0  0  0  0  0  0
    3.5178   -4.2241   -2.7757 H   0  0  0  0  0  0  0  0  0  0  0  0
    2.4881   -3.5227   -4.0316 H   0  0  0  0  0  0  0  0  0  0  0  0
    1.7407   -4.4219   -2.7114 H   0  0  0  0  0  0  0  0  0  0  0  0
    2.4763   -1.1918   -3.8849 H   0  0  0  0  0  0  0  0  0  0  0  0
    2.2565    0.8937   -2.6214 H   0  0  0  0  0  0  0  0  0  0  0  0
    2.4671    1.0158    1.0451 H   0  0  0  0  0  0  0  0  0  0  0  0
    2.0580    4.8164   -0.8940 H   0  0  0  0  0  0  0  0  0  0  0  0
    2.1939    6.7368    0.6646 H   0  0  0  0  0  0  0  0  0  0  0  0
    1.8115    6.4147    3.0812 H   0  0  0  0  0  0  0  0  0  0  0  0
    1.1367    2.2089    2.4322 H   0  0  0  0  0  0  0  0  0  0  0  0
    2.4014   -1.3110    1.0634 H   0  0  0  0  0  0  0  0  0  0  0  0
    3.0015   -4.4476   -0.4714 H   0  0  0  0  0  0  0  0  0  0  0  0
    3.4921   -6.0568    4.3765 H   0  0  0  0  0  0  0  0  0  0  0  0
    2.3881   -5.4920    6.5367 H   0  0  0  0  0  0  0  0  0  0  0  0
    0.5093   -3.8921    6.5972 H   0  0  0  0  0  0  0  0  0  0  0  0
   -0.3223   -2.8287    4.5193 H   0  0  0  0  0  0  0  0  0  0  0  0
   -0.2582   -3.7292   -0.4761 H   0  0  0  0  0  0  0  0  0  0  0  0
   -2.4915   -3.1546   -1.7621 H   0  0  0  0  0  0  0  0  0  0  0  0
   -0.4447   -2.0062   -2.7315 H   0  0  0  0  0  0  0  0  0  0  0  0
   -1.9690   -1.7266   -3.5513 H   0  0  0  0  0  0  0  0  0  0  0  0
   -1.0814    0.5199   -3.3126 H   0  0  0  0  0  0  0  0  0  0  0  0
   -0.5199    0.1639   -1.6553 H   0  0  0  0  0  0  0  0  0  0  0  0
   -2.7839   -0.1739   -1.0514 H   0  0  0  0  0  0  0  0  0  0  0  0
   -3.2474    1.9388   -0.3691 H   0  0  0  0  0  0  0  0  0  0  0  0
   -1.4978    1.7215   -0.3806 H   0  0  0  0  0  0  0  0  0  0  0  0
   -1.2700    3.1522   -2.3973 H   0  0  0  0  0  0  0  0  0  0  0  0
   -2.4963    3.9744   -1.3998 H   0  0  0  0  0  0  0  0  0  0  0  0
   -2.6620    2.6605   -3.9604 H   0  0  0  0  0  0  0  0  0  0  0  0
   -2.8757    4.9868   -3.7298 H   0  0  0  0  0  0  0  0  0  0  0  0
   -4.3139    4.2239   -4.4802 H   0  0  0  0  0  0  0  0  0  0  0  0
   -4.3674    4.7235   -2.7488 H   0  0  0  0  0  0  0  0  0  0  0  0
   -4.9519    2.3255   -2.1138 H   0  0  0  0  0  0  0  0  0  0  0  0
   -4.9686    1.9818   -3.8663 H   0  0  0  0  0  0  0  0  0  0  0  0
   -3.5038    0.0866   -3.6485 H   0  0  0  0  0  0  0  0  0  0  0  0
   -4.5626   -0.0809   -2.2278 H   0  0  0  0  0  0  0  0  0  0  0  0
   -2.1637   -0.3552    2.4340 H   0  0  0  0  0  0  0  0  0  0  0  0
  1  2  1  0
  2  3  2  0
  3  4  1  0
  4  5  2  0
  5  6  1  0
  6  7  1  0
  7  8  2  0
  7  9  1  0
  9 10  2  0
 10 11  1  0
 11 12  2  0
 12 13  1  0
 13 14  1  0
 14 15  1  0
 14 16  1  0
 14 17  1  0
 13 18  2  0
  5 19  1  0
 19 20  2  0
 20 21  1  0
 21 22  1  0
 22 23  2  0
 23 24  1  0
 24 25  2  0
 25 26  1  0
 26 27  2  0
 27 28  1  0
 28 29  2  0
 29 30  1  0
 30 31  1  0
 31 32  2  0
 32 33  1  0
 33 34  1  0
 34 35  1  0
 35 36  1  0
 36 37  1  0
 37 38  1  0
 38 39  1  0
 39 40  1  0
 40 41  1  0
 40 42  1  0
 42 43  1  0
 33 44  2  0
 44 45  1  0
 45 46  2  0
 20  2  1  0
 30 22  1  0
 46 31  1  0
 18  9  1  0
 29 24  1  0
 43 37  1  0
  1 47  1  0
  1 48  1  0
  1 49  1  0
  3 50  1  0
  4 51  1  0
  6 52  1  0
 10 53  1  0
 11 54  1  0
 12 55  1  0
 18 56  1  0
 19 57  1  0
 21 58  1  0
 25 59  1  0
 26 60  1  0
 27 61  1  0
 28 62  1  0
 32 63  1  0
 34 64  1  0
 35 65  1  0
 35 66  1  0
 36 67  1  0
 36 68  1  0
 37 69  1  0
 38 70  1  0
 38 71  1  0
 39 72  1  0
 39 73  1  0
 40 74  1  0
 41 75  1  0
 41 76  1  0
 41 77  1  0
 42 78  1  0
 42 79  1  0
 43 80  1  0
 43 81  1  0
 45 82  1  0
M  CHG  2  37   1  40   1
M  END
$$$$
