
     RDKit          3D

 68 73  0  0  0  0  0  0  0  0999 V2000
    7.6154    2.4126    0.1287 C   0  0  0  0  0  0  0  0  0  0  0  0
    7.5205    0.9501    0.3616 N   0  0  0  0  0  0  0  0  0  0  0  0
    8.5518    0.1231   -0.3796 C   0  0  0  0  0  0  0  0  0  0  0  0
    8.1887   -1.3843   -0.3216 C   0  0  0  0  0  0  0  0  0  0  0  0
    7.2104   -1.6832    0.7427 N   0  0  0  0  0  0  0  0  0  0  0  0
    5.8726   -1.6631    0.3483 C   0  0  0  0  0  0  0  0  0  0  0  0
    4.9746   -2.5760    0.8863 C   0  0  0  0  0  0  0  0  0  0  0  0
    3.6278   -2.5060    0.5266 C   0  0  0  0  0  0  0  0  0  0  0  0
    3.1939   -1.5187   -0.3580 C   0  0  0  0  0  0  0  0  0  0  0  0
    1.8005   -1.4268   -0.7530 C   0  0  0  0  0  0  0  0  0  0  0  0
    0.8240   -2.4363   -0.8656 C   0  0  0  0  0  0  0  0  0  0  0  0
   -0.3684   -1.9766   -1.2330 N   0  0  0  0  0  0  0  0  0  0  0  0
   -0.1938   -0.6364   -1.3816 N   0  0  0  0  0  0  0  0  0  0  0  0
   -1.1463    0.3294   -1.7505 C   0  0  0  0  0  0  0  0  0  0  0  0
   -2.5292   -0.0457   -2.0882 C   0  0  0  0  0  0  0  0  0  0  0  0
   -3.5971    0.3526   -1.2664 C   0  0  0  0  0  0  0  0  0  0  0  0
   -4.9140   -0.0011   -1.5804 C   0  0  0  0  0  0  0  0  0  0  0  0
   -6.0305    0.3649   -0.7994 N   0  0  0  0  0  0  0  0  0  0  0  0
   -6.0419    1.2132    0.2943 C   0  0  0  0  0  0  0  0  0  0  0  0
   -5.1036    1.8832    0.7091 O   0  0  0  0  0  0  0  0  0  0  0  0
   -7.3592    1.3355    0.9812 C   0  0  0  0  0  0  0  0  0  0  0  0
   -7.7215    2.5766    1.5161 C   0  0  0  0  0  0  0  0  0  0  0  0
   -8.9434    2.7279    2.1717 C   0  0  0  0  0  0  0  0  0  0  0  0
   -9.8049    1.6378    2.3041 C   0  0  0  0  0  0  0  0  0  0  0  0
   -9.4534    0.3821    1.7847 C   0  0  0  0  0  0  0  0  0  0  0  0
  -10.3653   -0.8084    1.9633 C   0  0  0  0  0  0  0  0  0  0  0  0
  -10.0480   -1.5415    3.0638 F   0  0  0  0  0  0  0  0  0  0  0  0
  -11.6759   -0.4682    2.0963 F   0  0  0  0  0  0  0  0  0  0  0  0
  -10.3079   -1.6695    0.9086 F   0  0  0  0  0  0  0  0  0  0  0  0
   -8.2165    0.2364    1.1310 C   0  0  0  0  0  0  0  0  0  0  0  0
   -5.1571   -0.7750   -2.7234 C   0  0  0  0  0  0  0  0  0  0  0  0
   -4.1036   -1.1718   -3.5497 C   0  0  0  0  0  0  0  0  0  0  0  0
   -2.8021   -0.8030   -3.2305 C   0  0  0  0  0  0  0  0  0  0  0  0
   -1.8085   -1.1672   -4.0550 F   0  0  0  0  0  0  0  0  0  0  0  0
   -0.7862    1.6241   -1.8064 C   0  0  0  0  0  0  0  0  0  0  0  0
    0.6276    1.9159   -1.4638 C   0  0  0  0  0  0  0  0  0  0  0  0
    1.5367    1.0513   -1.1263 N   0  0  0  0  0  0  0  0  0  0  0  0
    1.1295   -0.2598   -1.0797 C   0  0  0  0  0  0  0  0  0  0  0  0
    4.1629   -0.6449   -0.8402 C   0  0  0  0  0  0  0  0  0  0  0  0
    5.4820   -0.6793   -0.4963 N   0  0  0  0  0  0  0  0  0  0  0  0
    7.4558   -0.9835    2.0144 C   0  0  0  0  0  0  0  0  0  0  0  0
    7.4078    0.5592    1.8302 C   0  0  0  0  0  0  0  0  0  0  0  0
    6.7744    2.8950    0.6336 H   0  0  0  0  0  0  0  0  0  0  0  0
    7.5561    2.5934   -0.9476 H   0  0  0  0  0  0  0  0  0  0  0  0
    8.5674    2.7681    0.5312 H   0  0  0  0  0  0  0  0  0  0  0  0
    6.6215    0.6147   -0.0513 H   0  0  0  0  0  0  0  0  0  0  0  0
    8.5849    0.4711   -1.4173 H   0  0  0  0  0  0  0  0  0  0  0  0
    9.5185    0.3177    0.0977 H   0  0  0  0  0  0  0  0  0  0  0  0
    7.8291   -1.7274   -1.3005 H   0  0  0  0  0  0  0  0  0  0  0  0
    9.1051   -1.9546   -0.1269 H   0  0  0  0  0  0  0  0  0  0  0  0
    5.3157   -3.3466    1.5710 H   0  0  0  0  0  0  0  0  0  0  0  0
    2.9321   -3.2248    0.9534 H   0  0  0  0  0  0  0  0  0  0  0  0
    0.9317   -3.5003   -0.6954 H   0  0  0  0  0  0  0  0  0  0  0  0
   -3.3748    0.9243   -0.3702 H   0  0  0  0  0  0  0  0  0  0  0  0
   -6.9232    0.0034   -1.1116 H   0  0  0  0  0  0  0  0  0  0  0  0
   -7.0510    3.4293    1.4237 H   0  0  0  0  0  0  0  0  0  0  0  0
   -9.2213    3.6952    2.5851 H   0  0  0  0  0  0  0  0  0  0  0  0
  -10.7534    1.7702    2.8249 H   0  0  0  0  0  0  0  0  0  0  0  0
   -7.9221   -0.7477    0.7700 H   0  0  0  0  0  0  0  0  0  0  0  0
   -6.1676   -1.0734   -2.9925 H   0  0  0  0  0  0  0  0  0  0  0  0
   -4.2893   -1.7634   -4.4409 H   0  0  0  0  0  0  0  0  0  0  0  0
   -1.4408    2.4402   -2.0814 H   0  0  0  0  0  0  0  0  0  0  0  0
    0.9058    2.9822   -1.5122 H   0  0  0  0  0  0  0  0  0  0  0  0
    3.9066    0.1380   -1.5507 H   0  0  0  0  0  0  0  0  0  0  0  0
    6.7597   -1.2971    2.8020 H   0  0  0  0  0  0  0  0  0  0  0  0
    8.4563   -1.2609    2.3698 H   0  0  0  0  0  0  0  0  0  0  0  0
    8.2245    1.0454    2.3742 H   0  0  0  0  0  0  0  0  0  0  0  0
    6.4497    0.9583    2.1803 H   0  0  0  0  0  0  0  0  0  0  0  0
  1  2  1  0
  2  3  1  0
  3  4  1  0
  4  5  1  0
  5  6  1  0
  6  7  2  0
  7  8  1  0
  8  9  2  0
  9 10  1  0
 10 11  1  0
 11 12  2  0
 12 13  1  0
 13 14  1  0
 14 15  1  0
 15 16  2  0
 16 17  1  0
 17 18  1  0
 18 19  1  0
 19 20  2  0
 19 21  1  0
 21 22  2  0
 22 23  1  0
 23 24  2  0
 24 25  1  0
 25 26  1  0
 26 27  1  0
 26 28  1  0
 26 29  1  0
 25 30  2  0
 17 31  2  0
 31 32  1  0
 32 33  2  0
 33 34  1  0
 14 35  2  0
 35 36  1  0
 36 37  2  0
 37 38  1  0
  9 39  1  0
 39 40  2  0
  5 41  1  0
 41 42  1  0
 42  2  1  0
 40  6  1  0
 38 10  2  0
 38 13  1  0
 33 15  1  0
 30 21  1  0
  1 43  1  0
  1 44  1  0
  1 45  1  0
  2 46  1  0
  3 47  1  0
  3 48  1  0
  4 49  1  0
  4 50  1  0
  7 51  1  0
  8 52  1  0
 11 53  1  0
 16 54  1  0
 18 55  1  0
 22 56  1  0
 23 57  1  0
 24 58  1  0
 30 59  1  0
 31 60  1  0
 32 61  1  0
 35 62  1  0
 36 63  1  0
 39 64  1  0
 41 65  1  0
 41 66  1  0
 42 67  1  0
 42 68  1  0
M  CHG  1   2   1
M  END
$$$$
