
     RDKit          3D

 59 63  0  0  0  0  0  0  0  0999 V2000
    9.0087   -1.7948   -1.8385 C   0  0  0  0  0  0  0  0  0  0  0  0
    8.7065   -0.9097   -0.7211 N   0  0  0  0  0  0  0  0  0  0  0  0
    9.8245   -0.3914    0.0557 C   0  0  0  0  0  0  0  0  0  0  0  0
    7.3960   -0.5544   -0.4223 C   0  0  0  0  0  0  0  0  0  0  0  0
    6.3030   -1.0380   -1.1597 C   0  0  0  0  0  0  0  0  0  0  0  0
    4.9769   -0.6833   -0.8618 C   0  0  0  0  0  0  0  0  0  0  0  0
    4.6874    0.1792    0.1944 C   0  0  0  0  0  0  0  0  0  0  0  0
    3.3212    0.5452    0.5357 C   0  0  0  0  0  0  0  0  0  0  0  0
    2.7563    0.8149    1.7978 C   0  0  0  0  0  0  0  0  0  0  0  0
    1.4666    1.1380    1.7446 N   0  0  0  0  0  0  0  0  0  0  0  0
    1.1526    1.0814    0.4195 N   0  0  0  0  0  0  0  0  0  0  0  0
   -0.0932    1.3365   -0.1921 C   0  0  0  0  0  0  0  0  0  0  0  0
   -1.2908    1.7263    0.5847 C   0  0  0  0  0  0  0  0  0  0  0  0
   -1.2392    2.7961    1.4868 C   0  0  0  0  0  0  0  0  0  0  0  0
   -2.3695    3.1610    2.2169 C   0  0  0  0  0  0  0  0  0  0  0  0
   -3.5659    2.4637    2.0473 C   0  0  0  0  0  0  0  0  0  0  0  0
   -3.6459    1.3970    1.1453 C   0  0  0  0  0  0  0  0  0  0  0  0
   -4.8901    0.7410    1.0297 N   0  0  0  0  0  0  0  0  0  0  0  0
   -5.2333   -0.2456    0.1233 C   0  0  0  0  0  0  0  0  0  0  0  0
   -4.5582   -0.6472   -0.8169 O   0  0  0  0  0  0  0  0  0  0  0  0
   -6.5965   -0.8199    0.3062 C   0  0  0  0  0  0  0  0  0  0  0  0
   -7.1446   -1.0226    1.5788 C   0  0  0  0  0  0  0  0  0  0  0  0
   -8.4204   -1.5734    1.7079 C   0  0  0  0  0  0  0  0  0  0  0  0
   -9.1488   -1.9292    0.5710 C   0  0  0  0  0  0  0  0  0  0  0  0
   -8.6104   -1.7420   -0.7118 C   0  0  0  0  0  0  0  0  0  0  0  0
   -9.3812   -2.1594   -1.9406 C   0  0  0  0  0  0  0  0  0  0  0  0
   -9.0817   -3.4264   -2.3353 F   0  0  0  0  0  0  0  0  0  0  0  0
   -9.1403   -1.3607   -3.0169 F   0  0  0  0  0  0  0  0  0  0  0  0
  -10.7311   -2.1335   -1.7560 F   0  0  0  0  0  0  0  0  0  0  0  0
   -7.3224   -1.1955   -0.8324 C   0  0  0  0  0  0  0  0  0  0  0  0
   -2.5036    1.0300    0.4279 C   0  0  0  0  0  0  0  0  0  0  0  0
   -0.1930    1.2395   -1.5315 C   0  0  0  0  0  0  0  0  0  0  0  0
    1.0443    0.8566   -2.2526 C   0  0  0  0  0  0  0  0  0  0  0  0
    2.2006    0.6133   -1.7197 N   0  0  0  0  0  0  0  0  0  0  0  0
    2.2737    0.7210   -0.3537 C   0  0  0  0  0  0  0  0  0  0  0  0
    5.7565    0.6720    0.9448 C   0  0  0  0  0  0  0  0  0  0  0  0
    7.0790    0.3109    0.6375 C   0  0  0  0  0  0  0  0  0  0  0  0
    8.6687   -1.3592   -2.7845 H   0  0  0  0  0  0  0  0  0  0  0  0
    8.5384   -2.7745   -1.6988 H   0  0  0  0  0  0  0  0  0  0  0  0
   10.0847   -1.9730   -1.9406 H   0  0  0  0  0  0  0  0  0  0  0  0
    9.7403   -0.6880    1.1071 H   0  0  0  0  0  0  0  0  0  0  0  0
   10.7859   -0.7741   -0.3037 H   0  0  0  0  0  0  0  0  0  0  0  0
    9.8727    0.7011   -0.0114 H   0  0  0  0  0  0  0  0  0  0  0  0
    6.4501   -1.7130   -1.9974 H   0  0  0  0  0  0  0  0  0  0  0  0
    4.1789   -1.1013   -1.4711 H   0  0  0  0  0  0  0  0  0  0  0  0
    3.2397    0.7832    2.7659 H   0  0  0  0  0  0  0  0  0  0  0  0
   -0.3133    3.3484    1.6372 H   0  0  0  0  0  0  0  0  0  0  0  0
   -2.3140    3.9875    2.9208 H   0  0  0  0  0  0  0  0  0  0  0  0
   -4.4313    2.7711    2.6282 H   0  0  0  0  0  0  0  0  0  0  0  0
   -5.6182    1.0731    1.6485 H   0  0  0  0  0  0  0  0  0  0  0  0
   -6.5792   -0.7907    2.4778 H   0  0  0  0  0  0  0  0  0  0  0  0
   -8.8438   -1.7402    2.6964 H   0  0  0  0  0  0  0  0  0  0  0  0
  -10.1406   -2.3656    0.6891 H   0  0  0  0  0  0  0  0  0  0  0  0
   -6.8802   -1.0591   -1.8201 H   0  0  0  0  0  0  0  0  0  0  0  0
   -2.5305    0.1822   -0.2501 H   0  0  0  0  0  0  0  0  0  0  0  0
   -1.0915    1.4229   -2.1048 H   0  0  0  0  0  0  0  0  0  0  0  0
    0.9405    0.7806   -3.3480 H   0  0  0  0  0  0  0  0  0  0  0  0
    5.5884    1.3556    1.7730 H   0  0  0  0  0  0  0  0  0  0  0  0
    7.8605    0.7364    1.2599 H   0  0  0  0  0  0  0  0  0  0  0  0
  1  2  1  0
  2  3  1  0
  2  4  1  0
  4  5  2  0
  5  6  1  0
  6  7  2  0
  7  8  1  0
  8  9  1  0
  9 10  2  0
 10 11  1  0
 11 12  1  0
 12 13  1  0
 13 14  2  0
 14 15  1  0
 15 16  2  0
 16 17  1  0
 17 18  1  0
 18 19  1  0
 19 20  2  0
 19 21  1  0
 21 22  2  0
 22 23  1  0
 23 24  2  0
 24 25  1  0
 25 26  1  0
 26 27  1  0
 26 28  1  0
 26 29  1  0
 25 30  2  0
 17 31  2  0
 12 32  2  0
 32 33  1  0
 33 34  2  0
 34 35  1  0
  7 36  1  0
 36 37  2  0
 37  4  1  0
 35  8  2  0
 35 11  1  0
 31 13  1  0
 30 21  1  0
  1 38  1  0
  1 39  1  0
  1 40  1  0
  3 41  1  0
  3 42  1  0
  3 43  1  0
  5 44  1  0
  6 45  1  0
  9 46  1  0
 14 47  1  0
 15 48  1  0
 16 49  1  0
 18 50  1  0
 22 51  1  0
 23 52  1  0
 24 53  1  0
 30 54  1  0
 31 55  1  0
 32 56  1  0
 33 57  1  0
 36 58  1  0
 37 59  1  0
M  END
$$$$
