
     RDKit          3D

 56 59  0  0  0  0  0  0  0  0999 V2000
    5.5990    1.8943    0.7102 C   0  0  0  0  0  0  0  0  0  0  0  0
    5.2601    0.4344    0.5993 C   0  0  0  0  0  0  0  0  0  0  0  0
    3.9216    0.0364    0.7845 C   0  0  0  0  0  0  0  0  0  0  0  0
    3.5209   -1.3153    0.7433 C   0  0  0  0  0  0  0  0  0  0  0  0
    2.1063   -1.6859    0.9556 C   0  0  0  0  0  0  0  0  0  0  0  0
    1.7245   -2.8389    1.6088 C   0  0  0  0  0  0  0  0  0  0  0  0
    0.3736   -3.0419    1.7286 C   0  0  0  0  0  0  0  0  0  0  0  0
   -0.5489   -2.1924    1.2491 N   0  0  0  0  0  0  0  0  0  0  0  0
   -0.1085   -1.0905    0.6290 C   0  0  0  0  0  0  0  0  0  0  0  0
   -0.9762   -0.1441    0.0930 N   0  0  0  0  0  0  0  0  0  0  0  0
   -2.3664   -0.0214    0.0309 C   0  0  0  0  0  0  0  0  0  0  0  0
   -2.9162    1.0893   -0.6191 C   0  0  0  0  0  0  0  0  0  0  0  0
   -4.3044    1.2705   -0.7136 C   0  0  0  0  0  0  0  0  0  0  0  0
   -5.2084    0.3553   -0.1615 C   0  0  0  0  0  0  0  0  0  0  0  0
   -6.5801    0.5509   -0.2741 N   0  0  0  0  0  0  0  0  0  0  0  0
   -7.5117   -0.5734   -0.0772 C   0  0  0  0  0  0  0  0  0  0  0  0
   -8.8844   -0.2463   -0.6846 C   0  0  0  0  0  0  0  0  0  0  0  0
   -9.4133    0.9849   -0.1692 O   0  0  0  0  0  0  0  0  0  0  0  0
   -8.5259    2.0665   -0.4922 C   0  0  0  0  0  0  0  0  0  0  0  0
   -7.1307    1.8632    0.1188 C   0  0  0  0  0  0  0  0  0  0  0  0
   -4.6500   -0.7590    0.4753 C   0  0  0  0  0  0  0  0  0  0  0  0
   -3.2599   -0.9419    0.5741 C   0  0  0  0  0  0  0  0  0  0  0  0
    1.1959   -0.8094    0.4725 N   0  0  0  0  0  0  0  0  0  0  0  0
    4.5136   -2.2773    0.4948 C   0  0  0  0  0  0  0  0  0  0  0  0
    5.8450   -1.9046    0.2885 C   0  0  0  0  0  0  0  0  0  0  0  0
    6.2157   -0.5553    0.3182 C   0  0  0  0  0  0  0  0  0  0  0  0
    7.6437   -0.2550    0.0507 C   0  0  0  0  0  0  0  0  0  0  0  0
    8.5297   -0.8538    0.6463 O   0  0  0  0  0  0  0  0  0  0  0  0
    7.8846    0.6719   -0.9337 N   0  0  0  0  0  0  0  0  0  0  0  0
    9.2459    1.0206   -1.2925 C   0  0  0  0  0  0  0  0  0  0  0  0
    9.2928    2.1389   -2.2450 C   0  0  0  0  0  0  0  0  0  0  0  0
    9.2971    3.0218   -2.9993 N   0  0  0  0  0  0  0  0  0  0  0  0
    6.5695    2.0396    1.1951 H   0  0  0  0  0  0  0  0  0  0  0  0
    5.6104    2.3583   -0.2804 H   0  0  0  0  0  0  0  0  0  0  0  0
    4.8620    2.4222    1.3256 H   0  0  0  0  0  0  0  0  0  0  0  0
    3.1664    0.7979    0.9860 H   0  0  0  0  0  0  0  0  0  0  0  0
    2.4319   -3.5429    2.0243 H   0  0  0  0  0  0  0  0  0  0  0  0
   -0.0218   -3.9193    2.2317 H   0  0  0  0  0  0  0  0  0  0  0  0
   -0.4329    0.5908   -0.3341 H   0  0  0  0  0  0  0  0  0  0  0  0
   -2.2686    1.8340   -1.0748 H   0  0  0  0  0  0  0  0  0  0  0  0
   -4.6681    2.1342   -1.2631 H   0  0  0  0  0  0  0  0  0  0  0  0
   -7.6258   -0.7588    0.9979 H   0  0  0  0  0  0  0  0  0  0  0  0
   -7.1371   -1.4859   -0.5555 H   0  0  0  0  0  0  0  0  0  0  0  0
   -8.8239   -0.1785   -1.7776 H   0  0  0  0  0  0  0  0  0  0  0  0
   -9.5962   -1.0413   -0.4404 H   0  0  0  0  0  0  0  0  0  0  0  0
   -8.4652    2.1639   -1.5829 H   0  0  0  0  0  0  0  0  0  0  0  0
   -8.9703    2.9873   -0.1011 H   0  0  0  0  0  0  0  0  0  0  0  0
   -6.4975    2.6991   -0.1944 H   0  0  0  0  0  0  0  0  0  0  0  0
   -7.2055    1.8912    1.2131 H   0  0  0  0  0  0  0  0  0  0  0  0
   -5.2829   -1.5114    0.9365 H   0  0  0  0  0  0  0  0  0  0  0  0
   -2.9039   -1.8268    1.0922 H   0  0  0  0  0  0  0  0  0  0  0  0
    4.2618   -3.3342    0.4358 H   0  0  0  0  0  0  0  0  0  0  0  0
    6.5933   -2.6706    0.0921 H   0  0  0  0  0  0  0  0  0  0  0  0
    7.1133    1.0552   -1.4675 H   0  0  0  0  0  0  0  0  0  0  0  0
    9.7155    0.1297   -1.7233 H   0  0  0  0  0  0  0  0  0  0  0  0
    9.7908    1.2738   -0.3764 H   0  0  0  0  0  0  0  0  0  0  0  0
  1  2  1  0
  2  3  2  0
  3  4  1  0
  4  5  1  0
  5  6  2  0
  6  7  1  0
  7  8  2  0
  8  9  1  0
  9 10  1  0
 10 11  1  0
 11 12  2  0
 12 13  1  0
 13 14  2  0
 14 15  1  0
 15 16  1  0
 16 17  1  0
 17 18  1  0
 18 19  1  0
 19 20  1  0
 14 21  1  0
 21 22  2  0
  9 23  2  0
  4 24  2  0
 24 25  1  0
 25 26  2  0
 26 27  1  0
 27 28  2  0
 27 29  1  0
 29 30  1  0
 30 31  1  0
 31 32  3  0
 26  2  1  0
 23  5  1  0
 22 11  1  0
 20 15  1  0
  1 33  1  0
  1 34  1  0
  1 35  1  0
  3 36  1  0
  6 37  1  0
  7 38  1  0
 10 39  1  0
 12 40  1  0
 13 41  1  0
 16 42  1  0
 16 43  1  0
 17 44  1  0
 17 45  1  0
 19 46  1  0
 19 47  1  0
 20 48  1  0
 20 49  1  0
 21 50  1  0
 22 51  1  0
 24 52  1  0
 25 53  1  0
 29 54  1  0
 30 55  1  0
 30 56  1  0
M  END
$$$$
