
     RDKit          3D

 71 75  0  0  0  0  0  0  0  0999 V2000
    9.3261    0.2599    1.8824 C   0  0  0  0  0  0  0  0  0  0  0  0
   10.2802    0.8720    0.8664 C   0  0  2  0  0  0  0  0  0  0  0  0
   10.5533    2.2239    1.2497 O   0  0  0  0  0  0  0  0  0  0  0  0
    9.7654    0.8340   -0.5852 C   0  0  0  0  0  0  0  0  0  0  0  0
    8.7019    1.7910   -0.8085 N   0  0  0  0  0  0  0  0  0  0  0  0
    7.3774    1.4834   -0.7144 C   0  0  0  0  0  0  0  0  0  0  0  0
    6.5273    2.4738   -0.9923 N   0  0  0  0  0  0  0  0  0  0  0  0
    5.2157    2.1932   -0.9122 C   0  0  0  0  0  0  0  0  0  0  0  0
    4.7194    0.9653   -0.5477 C   0  0  0  0  0  0  0  0  0  0  0  0
    5.6630    0.0077   -0.2501 C   0  0  0  0  0  0  0  0  0  0  0  0
    5.2929   -1.3176    0.1351 N   0  0  0  0  0  0  0  0  0  0  0  0
    6.1634   -2.3928    0.0868 C   0  0  0  0  0  0  0  0  0  0  0  0
    5.4113   -3.5086    0.3397 C   0  0  0  0  0  0  0  0  0  0  0  0
    4.1225   -3.1613    0.6182 N   0  0  0  0  0  0  0  0  0  0  0  0
    4.0795   -1.8372    0.5923 C   0  0  0  0  0  0  0  0  0  0  0  0
    2.9099   -1.0840    1.0489 C   0  0  0  0  0  0  0  0  0  0  0  0
    3.0154   -0.1070    2.0453 C   0  0  0  0  0  0  0  0  0  0  0  0
    1.8829    0.5926    2.4586 C   0  0  0  0  0  0  0  0  0  0  0  0
    0.6352    0.3100    1.8950 C   0  0  0  0  0  0  0  0  0  0  0  0
    0.5043   -0.6839    0.9239 C   0  0  0  0  0  0  0  0  0  0  0  0
   -0.7220   -1.0544    0.3326 N   0  0  0  0  0  0  0  0  0  0  0  0
   -1.9537   -0.4314    0.4787 C   0  0  0  0  0  0  0  0  0  0  0  0
   -2.1347    0.6294    1.0607 O   0  0  0  0  0  0  0  0  0  0  0  0
   -2.9477   -1.1801   -0.1360 N   0  0  0  0  0  0  0  0  0  0  0  0
   -4.3071   -0.8422   -0.3003 C   0  0  0  0  0  0  0  0  0  0  0  0
   -5.1380   -1.8072   -0.8724 C   0  0  0  0  0  0  0  0  0  0  0  0
   -6.4965   -1.5480   -1.0735 C   0  0  0  0  0  0  0  0  0  0  0  0
   -7.0633   -0.3189   -0.7118 C   0  0  0  0  0  0  0  0  0  0  0  0
   -8.4112   -0.0638   -0.9257 N   0  0  0  0  0  0  0  0  0  0  0  0
   -8.7904    0.3437   -2.2906 C   0  0  0  0  0  0  0  0  0  0  0  0
  -10.2186    0.9110   -2.2836 C   0  0  0  0  0  0  0  0  0  0  0  0
  -11.1528   -0.0212   -1.7106 O   0  0  0  0  0  0  0  0  0  0  0  0
  -10.7894   -0.3082   -0.3485 C   0  0  0  0  0  0  0  0  0  0  0  0
   -9.3912   -0.9406   -0.2630 C   0  0  0  0  0  0  0  0  0  0  0  0
   -6.2329    0.6606   -0.1416 C   0  0  0  0  0  0  0  0  0  0  0  0
   -6.7953    1.9984    0.2742 C   0  0  0  0  0  0  0  0  0  0  0  0
   -7.3326    2.7052   -0.7641 F   0  0  0  0  0  0  0  0  0  0  0  0
   -5.8598    2.8339    0.8178 F   0  0  0  0  0  0  0  0  0  0  0  0
   -7.7764    1.9064    1.2187 F   0  0  0  0  0  0  0  0  0  0  0  0
   -4.8609    0.3871    0.0575 C   0  0  0  0  0  0  0  0  0  0  0  0
    1.6472   -1.3836    0.5155 C   0  0  0  0  0  0  0  0  0  0  0  0
    6.9912    0.2551   -0.3557 N   0  0  0  0  0  0  0  0  0  0  0  0
    9.0515   -0.7627    1.6075 H   0  0  0  0  0  0  0  0  0  0  0  0
    9.7984    0.2359    2.8708 H   0  0  0  0  0  0  0  0  0  0  0  0
    8.4175    0.8593    1.9968 H   0  0  0  0  0  0  0  0  0  0  0  0
   11.2286    0.3248    0.9116 H   0  0  0  0  0  0  0  0  0  0  0  0
    9.7266    2.7122    1.0735 H   0  0  0  0  0  0  0  0  0  0  0  0
   10.5949    1.1323   -1.2380 H   0  0  0  0  0  0  0  0  0  0  0  0
    9.4872   -0.1833   -0.8845 H   0  0  0  0  0  0  0  0  0  0  0  0
    8.9010    2.7147   -1.1629 H   0  0  0  0  0  0  0  0  0  0  0  0
    4.5506    3.0138   -1.1675 H   0  0  0  0  0  0  0  0  0  0  0  0
    3.6524    0.8047   -0.5499 H   0  0  0  0  0  0  0  0  0  0  0  0
    7.2041   -2.2700   -0.1788 H   0  0  0  0  0  0  0  0  0  0  0  0
    5.7321   -4.5424    0.3388 H   0  0  0  0  0  0  0  0  0  0  0  0
    3.9724    0.1103    2.5152 H   0  0  0  0  0  0  0  0  0  0  0  0
    1.9630    1.3529    3.2324 H   0  0  0  0  0  0  0  0  0  0  0  0
   -0.2222    0.8692    2.2585 H   0  0  0  0  0  0  0  0  0  0  0  0
   -0.6816   -1.8248   -0.3162 H   0  0  0  0  0  0  0  0  0  0  0  0
   -2.6836   -2.1024   -0.4448 H   0  0  0  0  0  0  0  0  0  0  0  0
   -4.7482   -2.7766   -1.1710 H   0  0  0  0  0  0  0  0  0  0  0  0
   -7.1151   -2.3179   -1.5286 H   0  0  0  0  0  0  0  0  0  0  0  0
   -8.7496   -0.5316   -2.9510 H   0  0  0  0  0  0  0  0  0  0  0  0
   -8.1029    1.1023   -2.6819 H   0  0  0  0  0  0  0  0  0  0  0  0
  -10.2654    1.8519   -1.7221 H   0  0  0  0  0  0  0  0  0  0  0  0
  -10.5418    1.1170   -3.3087 H   0  0  0  0  0  0  0  0  0  0  0  0
  -11.5355   -0.9997    0.0555 H   0  0  0  0  0  0  0  0  0  0  0  0
  -10.8396    0.6182    0.2363 H   0  0  0  0  0  0  0  0  0  0  0  0
   -9.1270   -1.0914    0.7901 H   0  0  0  0  0  0  0  0  0  0  0  0
   -9.4070   -1.9169   -0.7624 H   0  0  0  0  0  0  0  0  0  0  0  0
   -4.2442    1.1669    0.4979 H   0  0  0  0  0  0  0  0  0  0  0  0
    1.5727   -2.1764   -0.2265 H   0  0  0  0  0  0  0  0  0  0  0  0
  1  2  1  0
  2  3  1  0
  2  4  1  0
  4  5  1  0
  5  6  1  0
  6  7  2  0
  7  8  1  0
  8  9  2  0
  9 10  1  0
 10 11  1  0
 11 12  1  0
 12 13  2  0
 13 14  1  0
 14 15  2  0
 15 16  1  0
 16 17  2  0
 17 18  1  0
 18 19  2  0
 19 20  1  0
 20 21  1  0
 21 22  1  0
 22 23  2  0
 22 24  1  0
 24 25  1  0
 25 26  2  0
 26 27  1  0
 27 28  2  0
 28 29  1  0
 29 30  1  0
 30 31  1  0
 31 32  1  0
 32 33  1  0
 33 34  1  0
 28 35  1  0
 35 36  1  0
 36 37  1  0
 36 38  1  0
 36 39  1  0
 35 40  2  0
 20 41  2  0
 10 42  2  0
 42  6  1  0
 15 11  1  0
 41 16  1  0
 40 25  1  0
 34 29  1  0
  1 43  1  0
  1 44  1  0
  1 45  1  0
  2 46  1  6
  3 47  1  0
  4 48  1  0
  4 49  1  0
  5 50  1  0
  8 51  1  0
  9 52  1  0
 12 53  1  0
 13 54  1  0
 17 55  1  0
 18 56  1  0
 19 57  1  0
 21 58  1  0
 24 59  1  0
 26 60  1  0
 27 61  1  0
 30 62  1  0
 30 63  1  0
 31 64  1  0
 31 65  1  0
 33 66  1  0
 33 67  1  0
 34 68  1  0
 34 69  1  0
 40 70  1  0
 41 71  1  0
M  END
$$$$
