
     RDKit          3D

 84 89  0  0  0  0  0  0  0  0999 V2000
    0.5865    2.1266   -4.8758 C   0  0  0  0  0  0  0  0  0  0  0  0
    0.5825    2.1487   -3.3677 C   0  0  0  0  0  0  0  0  0  0  0  0
    0.3711    3.3799   -2.7178 C   0  0  0  0  0  0  0  0  0  0  0  0
    0.3288    3.4570   -1.3274 C   0  0  0  0  0  0  0  0  0  0  0  0
    0.5386    2.3005   -0.5819 C   0  0  0  0  0  0  0  0  0  0  0  0
    0.3261    2.2949    0.8810 C   0  0  0  0  0  0  0  0  0  0  0  0
   -0.3974    1.4106    1.3512 O   0  0  0  0  0  0  0  0  0  0  0  0
    1.0125    3.2639    1.5716 N   0  0  0  0  0  0  0  0  0  0  0  0
    0.8478    3.6153    2.9251 C   0  0  0  0  0  0  0  0  0  0  0  0
   -0.2866    3.2819    3.6682 C   0  0  0  0  0  0  0  0  0  0  0  0
   -0.4008    3.6837    5.0015 C   0  0  0  0  0  0  0  0  0  0  0  0
    0.6201    4.4201    5.6010 C   0  0  0  0  0  0  0  0  0  0  0  0
    1.7614    4.7736    4.8694 C   0  0  0  0  0  0  0  0  0  0  0  0
    2.8581    5.6048    5.4987 C   0  0  0  0  0  0  0  0  0  0  0  0
    2.7080    6.9294    5.2414 F   0  0  0  0  0  0  0  0  0  0  0  0
    2.9121    5.4744    6.8507 F   0  0  0  0  0  0  0  0  0  0  0  0
    4.0916    5.2619    5.0366 F   0  0  0  0  0  0  0  0  0  0  0  0
    1.8556    4.3797    3.5230 C   0  0  0  0  0  0  0  0  0  0  0  0
    0.8067    1.0841   -1.2147 C   0  0  0  0  0  0  0  0  0  0  0  0
    0.7673    0.9718   -2.6083 C   0  0  0  0  0  0  0  0  0  0  0  0
    0.8865   -0.2800   -3.2450 N   0  0  0  0  0  0  0  0  0  0  0  0
    1.4219   -1.4315   -2.7593 C   0  0  0  0  0  0  0  0  0  0  0  0
    2.2922   -1.5783   -1.7822 N   0  0  0  0  0  0  0  0  0  0  0  0
    2.7602   -2.8623   -1.9122 C   0  0  0  0  0  0  0  0  0  0  0  0
    3.8084   -3.4913   -1.2231 C   0  0  0  0  0  0  0  0  0  0  0  0
    4.1064   -4.8255   -1.5196 C   0  0  0  0  0  0  0  0  0  0  0  0
    3.3691   -5.5243   -2.4748 C   0  0  0  0  0  0  0  0  0  0  0  0
    2.3131   -4.9180   -3.1641 C   0  0  0  0  0  0  0  0  0  0  0  0
    2.0368   -3.5750   -2.8684 C   0  0  0  0  0  0  0  0  0  0  0  0
    1.0639   -2.6799   -3.2810 N   0  0  0  0  0  0  0  0  0  0  0  0
   -0.1927   -2.9824   -3.8897 C   0  0  0  0  0  0  0  0  0  0  0  0
   -0.4093   -4.1828   -4.4160 N   0  0  0  0  0  0  0  0  0  0  0  0
   -1.6781   -4.4130   -4.7496 C   0  0  0  0  0  0  0  0  0  0  0  0
   -2.7087   -3.6019   -4.5085 N   0  0  0  0  0  0  0  0  0  0  0  0
   -2.3998   -2.4443   -3.9570 C   0  0  0  0  0  0  0  0  0  0  0  0
   -3.4276   -1.6426   -3.5281 N   0  0  0  0  0  0  0  0  0  0  0  0
   -3.2198   -0.3185   -2.9857 C   0  0  0  0  0  0  0  0  0  0  0  0
   -3.1310   -0.3058   -1.4474 C   0  0  0  0  0  0  0  0  0  0  0  0
   -2.0664   -1.2469   -0.8972 C   0  0  0  0  0  0  0  0  0  0  0  0
   -1.6669   -0.9412    0.5416 N   0  0  0  0  0  0  0  0  0  0  0  0
   -0.5655   -1.9071    0.9924 C   0  0  0  0  0  0  0  0  0  0  0  0
    0.0430   -1.5021    2.3585 C   0  0  0  0  0  0  0  0  0  0  0  0
   -0.8483   -0.5297    3.1183 N   0  0  0  0  0  0  0  0  0  0  0  0
   -0.3912   -0.3432    4.5415 C   0  0  0  0  0  0  0  0  0  0  0  0
   -2.3218   -0.8779    3.0120 C   0  0  0  0  0  0  0  0  0  0  0  0
   -2.8157   -0.8992    1.5355 C   0  0  0  0  0  0  0  0  0  0  0  0
   -1.1576   -2.0773   -3.6828 N   0  0  0  0  0  0  0  0  0  0  0  0
   -0.3175    1.6330   -5.2462 H   0  0  0  0  0  0  0  0  0  0  0  0
    0.6145    3.1389   -5.2927 H   0  0  0  0  0  0  0  0  0  0  0  0
    1.4710    1.6000   -5.2489 H   0  0  0  0  0  0  0  0  0  0  0  0
    0.2176    4.2875   -3.3027 H   0  0  0  0  0  0  0  0  0  0  0  0
    0.1055    4.4103   -0.8532 H   0  0  0  0  0  0  0  0  0  0  0  0
    1.7511    3.7565    1.0721 H   0  0  0  0  0  0  0  0  0  0  0  0
   -1.1296    2.7743    3.2147 H   0  0  0  0  0  0  0  0  0  0  0  0
   -1.3000    3.4582    5.5715 H   0  0  0  0  0  0  0  0  0  0  0  0
    0.5148    4.7418    6.6382 H   0  0  0  0  0  0  0  0  0  0  0  0
    2.7393    4.6732    2.9557 H   0  0  0  0  0  0  0  0  0  0  0  0
    1.0090    0.2074   -0.6115 H   0  0  0  0  0  0  0  0  0  0  0  0
    0.4486   -0.3040   -4.1643 H   0  0  0  0  0  0  0  0  0  0  0  0
    4.3967   -2.9434   -0.4942 H   0  0  0  0  0  0  0  0  0  0  0  0
    4.9323   -5.3201   -1.0109 H   0  0  0  0  0  0  0  0  0  0  0  0
    3.6257   -6.5602   -2.6959 H   0  0  0  0  0  0  0  0  0  0  0  0
    1.7518   -5.4773   -3.9075 H   0  0  0  0  0  0  0  0  0  0  0  0
   -1.8996   -5.3595   -5.2345 H   0  0  0  0  0  0  0  0  0  0  0  0
   -4.3389   -1.9311   -3.8692 H   0  0  0  0  0  0  0  0  0  0  0  0
   -2.3377    0.1651   -3.4228 H   0  0  0  0  0  0  0  0  0  0  0  0
   -4.0734    0.3056   -3.2763 H   0  0  0  0  0  0  0  0  0  0  0  0
   -2.9271    0.7233   -1.1271 H   0  0  0  0  0  0  0  0  0  0  0  0
   -4.1069   -0.5835   -1.0309 H   0  0  0  0  0  0  0  0  0  0  0  0
   -1.1416   -1.1392   -1.4568 H   0  0  0  0  0  0  0  0  0  0  0  0
   -2.3984   -2.2902   -0.9214 H   0  0  0  0  0  0  0  0  0  0  0  0
   -1.2450    0.0094    0.5287 H   0  0  0  0  0  0  0  0  0  0  0  0
   -1.0274   -2.8989    1.0557 H   0  0  0  0  0  0  0  0  0  0  0  0
    0.2097   -1.9267    0.2215 H   0  0  0  0  0  0  0  0  0  0  0  0
    0.1935   -2.3872    2.9858 H   0  0  0  0  0  0  0  0  0  0  0  0
    1.0030   -0.9940    2.2176 H   0  0  0  0  0  0  0  0  0  0  0  0
   -0.7045    0.3973    2.6602 H   0  0  0  0  0  0  0  0  0  0  0  0
   -1.0168    0.4270    4.9986 H   0  0  0  0  0  0  0  0  0  0  0  0
   -0.4985   -1.2956    5.0670 H   0  0  0  0  0  0  0  0  0  0  0  0
    0.6524   -0.0191    4.5203 H   0  0  0  0  0  0  0  0  0  0  0  0
   -2.8834   -0.1367    3.5900 H   0  0  0  0  0  0  0  0  0  0  0  0
   -2.4490   -1.8633    3.4740 H   0  0  0  0  0  0  0  0  0  0  0  0
   -3.3811    0.0126    1.3187 H   0  0  0  0  0  0  0  0  0  0  0  0
   -3.4516   -1.7723    1.3555 H   0  0  0  0  0  0  0  0  0  0  0  0
  1  2  1  0
  2  3  2  0
  3  4  1  0
  4  5  2  0
  5  6  1  0
  6  7  2  0
  6  8  1  0
  8  9  1  0
  9 10  2  0
 10 11  1  0
 11 12  2  0
 12 13  1  0
 13 14  1  0
 14 15  1  0
 14 16  1  0
 14 17  1  0
 13 18  2  0
  5 19  1  0
 19 20  2  0
 20 21  1  0
 21 22  1  0
 22 23  2  0
 23 24  1  0
 24 25  2  0
 25 26  1  0
 26 27  2  0
 27 28  1  0
 28 29  2  0
 29 30  1  0
 30 31  1  0
 31 32  2  0
 32 33  1  0
 33 34  2  0
 34 35  1  0
 35 36  1  0
 36 37  1  0
 37 38  1  0
 38 39  1  0
 39 40  1  0
 40 41  1  0
 41 42  1  0
 42 43  1  0
 43 44  1  0
 43 45  1  0
 45 46  1  0
 35 47  2  0
 20  2  1  0
 30 22  1  0
 47 31  1  0
 18  9  1  0
 29 24  1  0
 46 40  1  0
  1 48  1  0
  1 49  1  0
  1 50  1  0
  3 51  1  0
  4 52  1  0
  8 53  1  0
 10 54  1  0
 11 55  1  0
 12 56  1  0
 18 57  1  0
 19 58  1  0
 21 59  1  0
 25 60  1  0
 26 61  1  0
 27 62  1  0
 28 63  1  0
 33 64  1  0
 36 65  1  0
 37 66  1  0
 37 67  1  0
 38 68  1  0
 38 69  1  0
 39 70  1  0
 39 71  1  0
 40 72  1  0
 41 73  1  0
 41 74  1  0
 42 75  1  0
 42 76  1  0
 43 77  1  0
 44 78  1  0
 44 79  1  0
 44 80  1  0
 45 81  1  0
 45 82  1  0
 46 83  1  0
 46 84  1  0
M  CHG  2  40   1  43   1
M  END
$$$$
