
     RDKit          3D

 57 60  0  0  0  0  0  0  0  0999 V2000
    6.7587    1.4376   -1.4044 C   0  0  0  0  0  0  0  0  0  0  0  0
    6.8440    0.7532   -0.1581 O   0  0  0  0  0  0  0  0  0  0  0  0
    5.7039    0.1796    0.3495 C   0  0  0  0  0  0  0  0  0  0  0  0
    4.4897    0.1242   -0.3604 C   0  0  0  0  0  0  0  0  0  0  0  0
    3.3321   -0.4702    0.1815 C   0  0  0  0  0  0  0  0  0  0  0  0
    2.0603   -0.5268   -0.5661 C   0  0  0  0  0  0  0  0  0  0  0  0
    2.0002   -0.7825   -1.9199 C   0  0  0  0  0  0  0  0  0  0  0  0
    0.7443   -0.8041   -2.4699 C   0  0  0  0  0  0  0  0  0  0  0  0
   -0.3774   -0.5905   -1.7639 N   0  0  0  0  0  0  0  0  0  0  0  0
   -0.2456   -0.3532   -0.4525 C   0  0  0  0  0  0  0  0  0  0  0  0
   -1.3404   -0.1193    0.3733 N   0  0  0  0  0  0  0  0  0  0  0  0
   -2.7213   -0.0672    0.1694 C   0  0  0  0  0  0  0  0  0  0  0  0
   -3.5528    0.2153    1.2589 C   0  0  0  0  0  0  0  0  0  0  0  0
   -4.9475    0.2801    1.1194 C   0  0  0  0  0  0  0  0  0  0  0  0
   -5.5779    0.0625   -0.1114 C   0  0  0  0  0  0  0  0  0  0  0  0
   -6.9610    0.1393   -0.2280 N   0  0  0  0  0  0  0  0  0  0  0  0
   -7.7837   -0.6317    0.7253 C   0  0  0  0  0  0  0  0  0  0  0  0
   -9.2188   -0.0838    0.7639 C   0  0  0  0  0  0  0  0  0  0  0  0
   -9.8064   -0.0323   -0.5451 O   0  0  0  0  0  0  0  0  0  0  0  0
   -9.0307    0.8302   -1.3910 C   0  0  0  0  0  0  0  0  0  0  0  0
   -7.5885    0.3247   -1.5480 C   0  0  0  0  0  0  0  0  0  0  0  0
   -4.7379   -0.2063   -1.1982 C   0  0  0  0  0  0  0  0  0  0  0  0
   -3.3407   -0.2746   -1.0611 C   0  0  0  0  0  0  0  0  0  0  0  0
    0.9448   -0.3199    0.1689 N   0  0  0  0  0  0  0  0  0  0  0  0
    3.4211   -1.0047    1.4739 C   0  0  0  0  0  0  0  0  0  0  0  0
    4.6194   -0.9661    2.1903 C   0  0  0  0  0  0  0  0  0  0  0  0
    5.7715   -0.3815    1.6410 C   0  0  0  0  0  0  0  0  0  0  0  0
    6.9981   -0.4040    2.5072 C   0  0  0  0  0  0  0  0  0  0  0  0
    6.9677   -0.9095    3.6258 O   0  0  0  0  0  0  0  0  0  0  0  0
    8.1473    0.1538    2.0077 N   0  0  0  0  0  0  0  0  0  0  0  0
    9.3714    0.1734    2.7804 C   0  0  0  0  0  0  0  0  0  0  0  0
   10.4732    0.8129    2.0467 C   0  0  0  0  0  0  0  0  0  0  0  0
   11.3269    1.3223    1.4458 N   0  0  0  0  0  0  0  0  0  0  0  0
    7.7397    1.8768   -1.6097 H   0  0  0  0  0  0  0  0  0  0  0  0
    6.5290    0.7423   -2.2181 H   0  0  0  0  0  0  0  0  0  0  0  0
    6.0313    2.2546   -1.3586 H   0  0  0  0  0  0  0  0  0  0  0  0
    4.4159    0.5625   -1.3512 H   0  0  0  0  0  0  0  0  0  0  0  0
    2.8765   -0.9757   -2.5226 H   0  0  0  0  0  0  0  0  0  0  0  0
    0.5949   -1.0028   -3.5271 H   0  0  0  0  0  0  0  0  0  0  0  0
   -1.0107    0.0430    1.3131 H   0  0  0  0  0  0  0  0  0  0  0  0
   -3.1254    0.4001    2.2413 H   0  0  0  0  0  0  0  0  0  0  0  0
   -5.5345    0.5399    1.9959 H   0  0  0  0  0  0  0  0  0  0  0  0
   -7.8029   -1.6779    0.3953 H   0  0  0  0  0  0  0  0  0  0  0  0
   -7.3841   -0.6098    1.7439 H   0  0  0  0  0  0  0  0  0  0  0  0
   -9.2427    0.9201    1.2049 H   0  0  0  0  0  0  0  0  0  0  0  0
   -9.8460   -0.7331    1.3830 H   0  0  0  0  0  0  0  0  0  0  0  0
   -9.0479    1.8455   -0.9766 H   0  0  0  0  0  0  0  0  0  0  0  0
   -9.5201    0.8631   -2.3696 H   0  0  0  0  0  0  0  0  0  0  0  0
   -7.5966   -0.6357   -2.0780 H   0  0  0  0  0  0  0  0  0  0  0  0
   -7.0357    1.0557   -2.1495 H   0  0  0  0  0  0  0  0  0  0  0  0
   -5.1490   -0.3947   -2.1856 H   0  0  0  0  0  0  0  0  0  0  0  0
   -2.7579   -0.4981   -1.9490 H   0  0  0  0  0  0  0  0  0  0  0  0
    2.5479   -1.4654    1.9352 H   0  0  0  0  0  0  0  0  0  0  0  0
    4.6450   -1.3988    3.1898 H   0  0  0  0  0  0  0  0  0  0  0  0
    8.1272    0.5611    1.0768 H   0  0  0  0  0  0  0  0  0  0  0  0
    9.6291   -0.8603    3.0351 H   0  0  0  0  0  0  0  0  0  0  0  0
    9.1731    0.7068    3.7164 H   0  0  0  0  0  0  0  0  0  0  0  0
  1  2  1  0
  2  3  1  0
  3  4  2  0
  4  5  1  0
  5  6  1  0
  6  7  2  0
  7  8  1  0
  8  9  2  0
  9 10  1  0
 10 11  1  0
 11 12  1  0
 12 13  2  0
 13 14  1  0
 14 15  2  0
 15 16  1  0
 16 17  1  0
 17 18  1  0
 18 19  1  0
 19 20  1  0
 20 21  1  0
 15 22  1  0
 22 23  2  0
 10 24  2  0
  5 25  2  0
 25 26  1  0
 26 27  2  0
 27 28  1  0
 28 29  2  0
 28 30  1  0
 30 31  1  0
 31 32  1  0
 32 33  3  0
 27  3  1  0
 24  6  1  0
 23 12  1  0
 21 16  1  0
  1 34  1  0
  1 35  1  0
  1 36  1  0
  4 37  1  0
  7 38  1  0
  8 39  1  0
 11 40  1  0
 13 41  1  0
 14 42  1  0
 17 43  1  0
 17 44  1  0
 18 45  1  0
 18 46  1  0
 20 47  1  0
 20 48  1  0
 21 49  1  0
 21 50  1  0
 22 51  1  0
 23 52  1  0
 25 53  1  0
 26 54  1  0
 30 55  1  0
 31 56  1  0
 31 57  1  0
M  END
$$$$
