
     RDKit          3D

 81 85  0  0  0  0  0  0  0  0999 V2000
   -3.4611    0.2948   -3.8421 C   0  0  0  0  0  0  0  0  0  0  0  0
   -2.5632   -0.7569   -3.2676 C   0  0  0  0  0  0  0  0  0  0  0  0
   -1.7700   -1.4221   -3.9192 O   0  0  0  0  0  0  0  0  0  0  0  0
   -2.7565   -0.8527   -1.9271 O   0  0  0  0  0  0  0  0  0  0  0  0
   -1.9363   -1.8037   -1.2048 C   0  0  1  0  0  0  0  0  0  0  0  0
   -0.7166   -1.0832   -0.5750 C   0  0  2  0  0  0  0  0  0  0  0  0
    0.1465   -0.5824   -1.6275 O   0  0  0  0  0  0  0  0  0  0  0  0
    0.0137    0.7243   -1.9681 C   0  0  0  0  0  0  0  0  0  0  0  0
   -0.7812    1.5171   -1.4898 O   0  0  0  0  0  0  0  0  0  0  0  0
    1.0233    1.0974   -2.9887 C   0  0  0  0  0  0  0  0  0  0  0  0
    1.6552    0.1418   -3.7941 C   0  0  0  0  0  0  0  0  0  0  0  0
    2.6023    0.5428   -4.7388 C   0  0  0  0  0  0  0  0  0  0  0  0
    2.9181    1.8941   -4.8832 C   0  0  0  0  0  0  0  0  0  0  0  0
    2.2853    2.8500   -4.0892 C   0  0  0  0  0  0  0  0  0  0  0  0
    1.3362    2.4543   -3.1458 C   0  0  0  0  0  0  0  0  0  0  0  0
    0.1410   -2.0230    0.3524 C   0  0  1  0  0  0  0  0  0  0  0  0
    0.8890   -3.0679   -0.5299 C   0  0  0  0  0  0  0  0  0  0  0  0
    1.2952   -1.2131    1.0772 C   0  0  1  0  0  0  0  0  0  0  0  0
    0.9830    0.1940    1.0960 O   0  0  0  0  0  0  0  0  0  0  0  0
    2.0369    1.0490    1.0344 C   0  0  0  0  0  0  0  0  0  0  0  0
    3.2174    0.7497    1.0949 O   0  0  0  0  0  0  0  0  0  0  0  0
    1.5075    2.4113    0.8316 C   0  0  0  0  0  0  0  0  0  0  0  0
    2.3555    3.4282    0.6161 C   0  0  0  0  0  0  0  0  0  0  0  0
    1.9427    4.8069    0.3165 C   0  0  0  0  0  0  0  0  0  0  0  0
    2.8007    5.6105   -0.4478 C   0  0  0  0  0  0  0  0  0  0  0  0
    2.4620    6.9318   -0.7504 C   0  0  0  0  0  0  0  0  0  0  0  0
    1.2646    7.4683   -0.2841 C   0  0  0  0  0  0  0  0  0  0  0  0
    0.4091    6.6859    0.4880 C   0  0  0  0  0  0  0  0  0  0  0  0
    0.7480    5.3641    0.7910 C   0  0  0  0  0  0  0  0  0  0  0  0
    1.6552   -1.6989    2.5072 C   0  0  0  0  0  0  0  0  0  0  0  0
    0.5162   -2.3706    3.3075 C   0  0  2  0  0  0  0  0  0  0  0  0
   -0.0150   -3.5047    2.4441 C   0  0  1  0  0  0  0  0  0  0  0  0
   -0.7456   -4.4272    3.2405 O   0  0  0  0  0  0  0  0  0  0  0  0
   -0.8237   -2.6828    1.4125 C   0  0  1  0  0  0  0  0  0  0  0  0
   -1.3809   -1.5429    2.1944 O   0  0  0  0  0  0  0  0  0  0  0  0
   -0.7343   -1.4906    3.4881 C   0  0  0  0  0  0  0  0  0  0  0  0
   -0.4565   -0.0389    3.8973 C   0  0  0  0  0  0  0  0  0  0  0  0
   -1.7265   -2.0190    4.5458 C   0  0  0  0  0  0  0  0  0  0  0  0
   -2.0584   -3.4216    0.7913 C   0  0  1  0  0  0  0  0  0  0  0  0
   -1.7658   -4.7581    0.1001 C   0  0  0  0  0  0  0  0  0  0  0  0
   -2.9465   -3.7796    1.8832 O   0  0  0  0  0  0  0  0  0  0  0  0
   -2.8387   -2.4659   -0.1437 C   0  0  1  0  0  0  0  0  0  0  0  0
   -3.5174   -1.4814    0.6674 O   0  0  0  0  0  0  0  0  0  0  0  0
   -3.2248    1.2658   -3.3997 H   0  0  0  0  0  0  0  0  0  0  0  0
   -3.3021    0.3559   -4.9225 H   0  0  0  0  0  0  0  0  0  0  0  0
   -4.5057    0.0314   -3.6583 H   0  0  0  0  0  0  0  0  0  0  0  0
   -1.5913   -2.5762   -1.8995 H   0  0  0  0  0  0  0  0  0  0  0  0
   -1.0994   -0.2404    0.0132 H   0  0  0  0  0  0  0  0  0  0  0  0
    1.4083   -0.9135   -3.7058 H   0  0  0  0  0  0  0  0  0  0  0  0
    3.0906   -0.1992   -5.3659 H   0  0  0  0  0  0  0  0  0  0  0  0
    3.6558    2.2030   -5.6201 H   0  0  0  0  0  0  0  0  0  0  0  0
    2.5283    3.9034   -4.2046 H   0  0  0  0  0  0  0  0  0  0  0  0
    0.8464    3.2077   -2.5313 H   0  0  0  0  0  0  0  0  0  0  0  0
    0.2372   -3.6007   -1.2175 H   0  0  0  0  0  0  0  0  0  0  0  0
    1.4329   -3.8077    0.0618 H   0  0  0  0  0  0  0  0  0  0  0  0
    1.6354   -2.5812   -1.1705 H   0  0  0  0  0  0  0  0  0  0  0  0
    2.2073   -1.3154    0.4741 H   0  0  0  0  0  0  0  0  0  0  0  0
    0.4302    2.5211    0.8053 H   0  0  0  0  0  0  0  0  0  0  0  0
    3.4294    3.2449    0.6148 H   0  0  0  0  0  0  0  0  0  0  0  0
    3.7411    5.2120   -0.8229 H   0  0  0  0  0  0  0  0  0  0  0  0
    3.1347    7.5413   -1.3481 H   0  0  0  0  0  0  0  0  0  0  0  0
    1.0001    8.4963   -0.5177 H   0  0  0  0  0  0  0  0  0  0  0  0
   -0.5229    7.1044    0.8595 H   0  0  0  0  0  0  0  0  0  0  0  0
    0.0663    4.7844    1.4080 H   0  0  0  0  0  0  0  0  0  0  0  0
    2.0780   -0.8788    3.0986 H   0  0  0  0  0  0  0  0  0  0  0  0
    2.4585   -2.4422    2.4084 H   0  0  0  0  0  0  0  0  0  0  0  0
    0.8970   -2.7189    4.2740 H   0  0  0  0  0  0  0  0  0  0  0  0
    0.7846   -4.0956    1.9950 H   0  0  0  0  0  0  0  0  0  0  0  0
   -1.6767   -4.4471    2.9272 H   0  0  0  0  0  0  0  0  0  0  0  0
    0.1627    0.5071    3.1924 H   0  0  0  0  0  0  0  0  0  0  0  0
    0.0327    0.0070    4.8763 H   0  0  0  0  0  0  0  0  0  0  0  0
   -1.3906    0.5335    3.9511 H   0  0  0  0  0  0  0  0  0  0  0  0
   -2.2263   -2.9449    4.2648 H   0  0  0  0  0  0  0  0  0  0  0  0
   -2.5481   -1.3062    4.6909 H   0  0  0  0  0  0  0  0  0  0  0  0
   -1.2334   -2.1649    5.5126 H   0  0  0  0  0  0  0  0  0  0  0  0
   -1.4274   -4.6550   -0.9303 H   0  0  0  0  0  0  0  0  0  0  0  0
   -2.6742   -5.3730    0.0631 H   0  0  0  0  0  0  0  0  0  0  0  0
   -1.0272   -5.3474    0.6520 H   0  0  0  0  0  0  0  0  0  0  0  0
   -3.5192   -2.9930    2.0222 H   0  0  0  0  0  0  0  0  0  0  0  0
   -3.6500   -3.0069   -0.6454 H   0  0  0  0  0  0  0  0  0  0  0  0
   -2.8484   -1.0402    1.2343 H   0  0  0  0  0  0  0  0  0  0  0  0
  1  2  1  0
  2  3  2  0
  2  4  1  0
  4  5  1  0
  5  6  1  0
  6  7  1  0
  7  8  1  0
  8  9  2  0
  8 10  1  0
 10 11  2  0
 11 12  1  0
 12 13  2  0
 13 14  1  0
 14 15  2  0
  6 16  1  0
 16 17  1  6
 16 18  1  0
 18 19  1  0
 19 20  1  0
 20 21  2  0
 20 22  1  0
 22 23  2  0
 23 24  1  0
 24 25  2  0
 25 26  1  0
 26 27  2  0
 27 28  1  0
 28 29  2  0
 18 30  1  0
 30 31  1  0
 31 32  1  0
 32 33  1  0
 32 34  1  0
 34 35  1  1
 35 36  1  0
 36 37  1  0
 36 38  1  0
 34 39  1  0
 39 40  1  0
 39 41  1  1
 39 42  1  0
 42 43  1  0
 42  5  1  0
 15 10  1  0
 34 16  1  0
 29 24  1  0
 36 31  1  0
  1 44  1  0
  1 45  1  0
  1 46  1  0
  5 47  1  6
  6 48  1  1
 11 49  1  0
 12 50  1  0
 13 51  1  0
 14 52  1  0
 15 53  1  0
 17 54  1  0
 17 55  1  0
 17 56  1  0
 18 57  1  6
 22 58  1  0
 23 59  1  0
 25 60  1  0
 26 61  1  0
 27 62  1  0
 28 63  1  0
 29 64  1  0
 30 65  1  0
 30 66  1  0
 31 67  1  1
 32 68  1  6
 33 69  1  0
 37 70  1  0
 37 71  1  0
 37 72  1  0
 38 73  1  0
 38 74  1  0
 38 75  1  0
 40 76  1  0
 40 77  1  0
 40 78  1  0
 41 79  1  0
 42 80  1  6
 43 81  1  0
M  END
$$$$
