
     RDKit          3D

 79 84  0  0  0  0  0  0  0  0999 V2000
  -11.6287   -3.0572    1.5382 C   0  0  0  0  0  0  0  0  0  0  0  0
  -10.6661   -2.4234    0.5788 N   0  0  0  0  0  0  0  0  0  0  0  0
   -9.2200   -2.7951    0.9068 C   0  0  0  0  0  0  0  0  0  0  0  0
   -8.2195   -1.8320    0.2423 C   0  0  0  0  0  0  0  0  0  0  0  0
   -8.4621   -0.4456    0.6677 N   0  0  0  0  0  0  0  0  0  0  0  0
   -7.4170    0.4695    0.7089 C   0  0  0  0  0  0  0  0  0  0  0  0
   -7.4278    1.5662    1.5847 C   0  0  0  0  0  0  0  0  0  0  0  0
   -6.3677    2.4767    1.6392 C   0  0  0  0  0  0  0  0  0  0  0  0
   -5.2629    2.3143    0.8098 C   0  0  0  0  0  0  0  0  0  0  0  0
   -5.2126    1.2434   -0.0826 C   0  0  0  0  0  0  0  0  0  0  0  0
   -4.0800    1.0621   -0.9749 C   0  0  0  0  0  0  0  0  0  0  0  0
   -4.0523    0.6758   -2.3298 C   0  0  0  0  0  0  0  0  0  0  0  0
   -2.8216    0.5801   -2.8281 N   0  0  0  0  0  0  0  0  0  0  0  0
   -2.0078    0.9276   -1.7837 N   0  0  0  0  0  0  0  0  0  0  0  0
   -0.5871    0.9858   -1.7970 C   0  0  0  0  0  0  0  0  0  0  0  0
    0.0350    0.6587   -2.9858 N   0  0  0  0  0  0  0  0  0  0  0  0
    0.0466    1.3378   -0.6559 C   0  0  0  0  0  0  0  0  0  0  0  0
    1.5043    1.4367   -0.5136 C   0  0  0  0  0  0  0  0  0  0  0  0
    2.2239    2.4320   -1.1828 C   0  0  0  0  0  0  0  0  0  0  0  0
    3.6122    2.5224   -1.0332 C   0  0  0  0  0  0  0  0  0  0  0  0
    4.3044    1.6227   -0.2132 C   0  0  0  0  0  0  0  0  0  0  0  0
    5.7014    1.7817   -0.1160 N   0  0  0  0  0  0  0  0  0  0  0  0
    6.5854    1.0298    0.6276 C   0  0  0  0  0  0  0  0  0  0  0  0
    6.3089    0.0828    1.3519 O   0  0  0  0  0  0  0  0  0  0  0  0
    7.8804    1.4744    0.4628 N   0  0  0  0  0  0  0  0  0  0  0  0
    8.9965    0.8431    1.1401 C   0  0  0  0  0  0  0  0  0  0  0  0
    9.5050   -0.4046    0.3999 C   0  0  0  0  0  0  0  0  0  0  0  0
   10.0782   -0.0475   -0.9823 C   0  0  0  0  0  0  0  0  0  0  0  0
   10.6492   -1.2729   -1.6929 C   0  0  0  0  0  0  0  0  0  0  0  0
   11.6891   -1.9879   -0.8370 C   0  0  0  0  0  0  0  0  0  0  0  0
   11.1309   -2.3484    0.5354 C   0  0  0  0  0  0  0  0  0  0  0  0
   10.5629   -1.1251    1.2507 C   0  0  0  0  0  0  0  0  0  0  0  0
    3.5832    0.6305    0.4524 C   0  0  0  0  0  0  0  0  0  0  0  0
    2.1937    0.5377    0.3052 C   0  0  0  0  0  0  0  0  0  0  0  0
   -0.8423    1.6197    0.5159 C   0  0  0  0  0  0  0  0  0  0  0  0
   -2.1395    1.5694    0.5443 N   0  0  0  0  0  0  0  0  0  0  0  0
   -2.7489    1.2208   -0.6304 C   0  0  0  0  0  0  0  0  0  0  0  0
   -6.2902    0.3392   -0.1242 C   0  0  0  0  0  0  0  0  0  0  0  0
   -9.8055   -0.0827    1.1401 C   0  0  0  0  0  0  0  0  0  0  0  0
  -10.8855   -0.9165    0.4254 C   0  0  0  0  0  0  0  0  0  0  0  0
  -11.4290   -4.1317    1.5588 H   0  0  0  0  0  0  0  0  0  0  0  0
  -12.6420   -2.8742    1.1711 H   0  0  0  0  0  0  0  0  0  0  0  0
  -11.4825   -2.6109    2.5254 H   0  0  0  0  0  0  0  0  0  0  0  0
  -10.8627   -2.8249   -0.3470 H   0  0  0  0  0  0  0  0  0  0  0  0
   -9.1169   -2.7572    1.9977 H   0  0  0  0  0  0  0  0  0  0  0  0
   -9.0731   -3.8238    0.5629 H   0  0  0  0  0  0  0  0  0  0  0  0
   -7.2132   -2.1608    0.5292 H   0  0  0  0  0  0  0  0  0  0  0  0
   -8.3042   -1.8998   -0.8488 H   0  0  0  0  0  0  0  0  0  0  0  0
   -8.2508    1.7264    2.2751 H   0  0  0  0  0  0  0  0  0  0  0  0
   -6.3987    3.3098    2.3374 H   0  0  0  0  0  0  0  0  0  0  0  0
   -4.4451    3.0299    0.8666 H   0  0  0  0  0  0  0  0  0  0  0  0
   -4.8893    0.4601   -2.9811 H   0  0  0  0  0  0  0  0  0  0  0  0
   -0.5588    0.3813   -3.7655 H   0  0  0  0  0  0  0  0  0  0  0  0
    1.0430    0.5992   -3.0545 H   0  0  0  0  0  0  0  0  0  0  0  0
    1.7115    3.1464   -1.8245 H   0  0  0  0  0  0  0  0  0  0  0  0
    4.1408    3.3085   -1.5667 H   0  0  0  0  0  0  0  0  0  0  0  0
    6.1045    2.5371   -0.6464 H   0  0  0  0  0  0  0  0  0  0  0  0
    8.0763    2.2423   -0.1584 H   0  0  0  0  0  0  0  0  0  0  0  0
    8.6790    0.5781    2.1554 H   0  0  0  0  0  0  0  0  0  0  0  0
    9.7889    1.5951    1.2252 H   0  0  0  0  0  0  0  0  0  0  0  0
    8.6623   -1.0933    0.2496 H   0  0  0  0  0  0  0  0  0  0  0  0
   10.8679    0.7069   -0.8740 H   0  0  0  0  0  0  0  0  0  0  0  0
    9.2995    0.3960   -1.6136 H   0  0  0  0  0  0  0  0  0  0  0  0
   11.1010   -0.9692   -2.6440 H   0  0  0  0  0  0  0  0  0  0  0  0
    9.8345   -1.9668   -1.9337 H   0  0  0  0  0  0  0  0  0  0  0  0
   12.0269   -2.8962   -1.3484 H   0  0  0  0  0  0  0  0  0  0  0  0
   12.5683   -1.3431   -0.7159 H   0  0  0  0  0  0  0  0  0  0  0  0
   11.9203   -2.7992    1.1473 H   0  0  0  0  0  0  0  0  0  0  0  0
   10.3432   -3.1036    0.4230 H   0  0  0  0  0  0  0  0  0  0  0  0
   11.3818   -0.4345    1.4901 H   0  0  0  0  0  0  0  0  0  0  0  0
   10.1235   -1.4393    2.2051 H   0  0  0  0  0  0  0  0  0  0  0  0
    4.0723   -0.0938    1.0970 H   0  0  0  0  0  0  0  0  0  0  0  0
    1.6654   -0.2531    0.8342 H   0  0  0  0  0  0  0  0  0  0  0  0
   -0.3180    1.9025    1.4454 H   0  0  0  0  0  0  0  0  0  0  0  0
   -6.2373   -0.4816   -0.8340 H   0  0  0  0  0  0  0  0  0  0  0  0
   -9.8693   -0.2358    2.2240 H   0  0  0  0  0  0  0  0  0  0  0  0
  -10.0217    0.9719    0.9312 H   0  0  0  0  0  0  0  0  0  0  0  0
  -11.8886   -0.6750    0.7918 H   0  0  0  0  0  0  0  0  0  0  0  0
  -10.8555   -0.7254   -0.6537 H   0  0  0  0  0  0  0  0  0  0  0  0
  1  2  1  0
  2  3  1  0
  3  4  1  0
  4  5  1  0
  5  6  1  0
  6  7  2  0
  7  8  1  0
  8  9  2  0
  9 10  1  0
 10 11  1  0
 11 12  1  0
 12 13  2  0
 13 14  1  0
 14 15  1  0
 15 16  1  0
 15 17  2  0
 17 18  1  0
 18 19  2  0
 19 20  1  0
 20 21  2  0
 21 22  1  0
 22 23  1  0
 23 24  2  0
 23 25  1  0
 25 26  1  0
 26 27  1  0
 27 28  1  0
 28 29  1  0
 29 30  1  0
 30 31  1  0
 31 32  1  0
 21 33  1  0
 33 34  2  0
 17 35  1  0
 35 36  2  0
 36 37  1  0
 10 38  2  0
  5 39  1  0
 39 40  1  0
 40  2  1  0
 38  6  1  0
 37 11  2  0
 37 14  1  0
 34 18  1  0
 32 27  1  0
  1 41  1  0
  1 42  1  0
  1 43  1  0
  2 44  1  0
  3 45  1  0
  3 46  1  0
  4 47  1  0
  4 48  1  0
  7 49  1  0
  8 50  1  0
  9 51  1  0
 12 52  1  0
 16 53  1  0
 16 54  1  0
 19 55  1  0
 20 56  1  0
 22 57  1  0
 25 58  1  0
 26 59  1  0
 26 60  1  0
 27 61  1  0
 28 62  1  0
 28 63  1  0
 29 64  1  0
 29 65  1  0
 30 66  1  0
 30 67  1  0
 31 68  1  0
 31 69  1  0
 32 70  1  0
 32 71  1  0
 33 72  1  0
 34 73  1  0
 35 74  1  0
 38 75  1  0
 39 76  1  0
 39 77  1  0
 40 78  1  0
 40 79  1  0
M  CHG  1   2   1
M  END
$$$$
