
     RDKit          3D

 65 70  0  0  0  0  0  0  0  0999 V2000
    2.0644   -1.5903   -0.8203 O   0  0  0  0  0  0  0  0  0  0  0  0
    2.6952   -0.5544   -0.9860 C   0  0  0  0  0  0  0  0  0  0  0  0
    2.1399    0.6630   -1.3557 N   0  0  0  0  0  0  0  0  0  0  0  0
    0.7732    0.9769   -1.5158 C   0  0  0  0  0  0  0  0  0  0  0  0
    0.4656    2.2461   -2.0193 C   0  0  0  0  0  0  0  0  0  0  0  0
   -0.8614    2.6346   -2.2026 C   0  0  0  0  0  0  0  0  0  0  0  0
   -1.8943    1.7537   -1.8852 C   0  0  0  0  0  0  0  0  0  0  0  0
   -1.6164    0.4746   -1.3832 C   0  0  0  0  0  0  0  0  0  0  0  0
   -2.7367   -0.4382   -1.0413 C   0  0  0  0  0  0  0  0  0  0  0  0
   -2.6282   -1.7607   -1.2912 C   0  0  0  0  0  0  0  0  0  0  0  0
   -3.6915   -2.5760   -0.9718 N   0  0  0  0  0  0  0  0  0  0  0  0
   -3.8900   -3.9241   -1.0930 C   0  0  0  0  0  0  0  0  0  0  0  0
   -5.1595   -4.1445   -0.5995 C   0  0  0  0  0  0  0  0  0  0  0  0
   -5.7443   -2.9717   -0.1822 N   0  0  0  0  0  0  0  0  0  0  0  0
   -4.8288   -2.0549   -0.4230 C   0  0  0  0  0  0  0  0  0  0  0  0
   -4.9075   -0.6256   -0.1813 C   0  0  0  0  0  0  0  0  0  0  0  0
   -6.0396   -0.0757    0.3661 N   0  0  0  0  0  0  0  0  0  0  0  0
   -6.1966    1.3207    0.6627 C   0  0  0  0  0  0  0  0  0  0  0  0
   -7.5616    1.5609    1.2530 C   0  0  0  0  0  0  0  0  0  0  0  0
   -8.6627    1.8127    0.4289 C   0  0  0  0  0  0  0  0  0  0  0  0
   -9.9031    2.0017    1.0176 C   0  0  0  0  0  0  0  0  0  0  0  0
  -10.1180    1.9512    2.3493 N   0  0  0  0  0  0  0  0  0  0  0  0
   -9.0456    1.6915    3.1271 C   0  0  0  0  0  0  0  0  0  0  0  0
   -7.7665    1.4883    2.6341 C   0  0  0  0  0  0  0  0  0  0  0  0
   -3.8828    0.1355   -0.4950 N   0  0  0  0  0  0  0  0  0  0  0  0
   -0.2719    0.1073   -1.1886 C   0  0  0  0  0  0  0  0  0  0  0  0
    4.0662   -0.4307   -0.8371 N   0  0  0  0  0  0  0  0  0  0  0  0
    5.0080   -1.4369   -0.5250 C   0  0  0  0  0  0  0  0  0  0  0  0
    4.6900   -2.7856   -0.3610 C   0  0  0  0  0  0  0  0  0  0  0  0
    5.6900   -3.7173   -0.0566 C   0  0  0  0  0  0  0  0  0  0  0  0
    7.0175   -3.3129    0.0800 C   0  0  0  0  0  0  0  0  0  0  0  0
    7.3522   -1.9714   -0.0828 C   0  0  0  0  0  0  0  0  0  0  0  0
    6.3482   -1.0400   -0.3672 C   0  0  0  0  0  0  0  0  0  0  0  0
    6.6675    0.2885   -0.5693 O   0  0  0  0  0  0  0  0  0  0  0  0
    7.2368    0.9619    0.4896 C   0  0  0  0  0  0  0  0  0  0  0  0
    6.8322    0.7943    1.8168 C   0  0  0  0  0  0  0  0  0  0  0  0
    7.4357    1.5467    2.8260 C   0  0  0  0  0  0  0  0  0  0  0  0
    8.4299    2.4726    2.5090 C   0  0  0  0  0  0  0  0  0  0  0  0
    8.8191    2.6531    1.1818 C   0  0  0  0  0  0  0  0  0  0  0  0
    8.2176    1.9026    0.1711 C   0  0  0  0  0  0  0  0  0  0  0  0
    2.7898    1.3963   -1.5917 H   0  0  0  0  0  0  0  0  0  0  0  0
    1.2518    2.9506   -2.2773 H   0  0  0  0  0  0  0  0  0  0  0  0
   -1.0931    3.6226   -2.5916 H   0  0  0  0  0  0  0  0  0  0  0  0
   -2.9259    2.0688   -2.0307 H   0  0  0  0  0  0  0  0  0  0  0  0
   -1.7610   -2.2331   -1.7339 H   0  0  0  0  0  0  0  0  0  0  0  0
   -3.1416   -4.5873   -1.5013 H   0  0  0  0  0  0  0  0  0  0  0  0
   -5.6833   -5.0891   -0.5231 H   0  0  0  0  0  0  0  0  0  0  0  0
   -6.7955   -0.7150    0.5918 H   0  0  0  0  0  0  0  0  0  0  0  0
   -6.0787    1.9238   -0.2458 H   0  0  0  0  0  0  0  0  0  0  0  0
   -5.4261    1.6537    1.3686 H   0  0  0  0  0  0  0  0  0  0  0  0
   -8.5607    1.8565   -0.6506 H   0  0  0  0  0  0  0  0  0  0  0  0
  -10.7839    2.2017    0.4142 H   0  0  0  0  0  0  0  0  0  0  0  0
   -9.2478    1.6461    4.1934 H   0  0  0  0  0  0  0  0  0  0  0  0
   -6.9491    1.2736    3.3150 H   0  0  0  0  0  0  0  0  0  0  0  0
   -0.0577   -0.8630   -0.7530 H   0  0  0  0  0  0  0  0  0  0  0  0
    4.4643    0.4942   -0.9183 H   0  0  0  0  0  0  0  0  0  0  0  0
    3.6731   -3.1498   -0.4677 H   0  0  0  0  0  0  0  0  0  0  0  0
    5.4262   -4.7652    0.0674 H   0  0  0  0  0  0  0  0  0  0  0  0
    7.7888   -4.0442    0.3073 H   0  0  0  0  0  0  0  0  0  0  0  0
    8.3874   -1.6553    0.0091 H   0  0  0  0  0  0  0  0  0  0  0  0
    6.0479    0.0896    2.0796 H   0  0  0  0  0  0  0  0  0  0  0  0
    7.1268    1.4133    3.8599 H   0  0  0  0  0  0  0  0  0  0  0  0
    8.8980    3.0575    3.2970 H   0  0  0  0  0  0  0  0  0  0  0  0
    9.5894    3.3793    0.9350 H   0  0  0  0  0  0  0  0  0  0  0  0
    8.5189    2.0468   -0.8629 H   0  0  0  0  0  0  0  0  0  0  0  0
  1  2  2  0
  2  3  1  0
  3  4  1  0
  4  5  2  0
  5  6  1  0
  6  7  2  0
  7  8  1  0
  8  9  1  0
  9 10  2  0
 10 11  1  0
 11 12  1  0
 12 13  2  0
 13 14  1  0
 14 15  2  0
 15 16  1  0
 16 17  1  0
 17 18  1  0
 18 19  1  0
 19 20  2  0
 20 21  1  0
 21 22  2  0
 22 23  1  0
 23 24  2  0
 16 25  2  0
  8 26  2  0
  2 27  1  0
 27 28  1  0
 28 29  2  0
 29 30  1  0
 30 31  2  0
 31 32  1  0
 32 33  2  0
 33 34  1  0
 34 35  1  0
 35 36  2  0
 36 37  1  0
 37 38  2  0
 38 39  1  0
 39 40  2  0
 26  4  1  0
 33 28  1  0
 40 35  1  0
 25  9  1  0
 15 11  1  0
 24 19  1  0
  3 41  1  0
  5 42  1  0
  6 43  1  0
  7 44  1  0
 10 45  1  0
 12 46  1  0
 13 47  1  0
 17 48  1  0
 18 49  1  0
 18 50  1  0
 20 51  1  0
 21 52  1  0
 23 53  1  0
 24 54  1  0
 26 55  1  0
 27 56  1  0
 29 57  1  0
 30 58  1  0
 31 59  1  0
 32 60  1  0
 36 61  1  0
 37 62  1  0
 38 63  1  0
 39 64  1  0
 40 65  1  0
M  END
$$$$
