
     RDKit          3D

 77 82  0  0  0  0  0  0  0  0999 V2000
    8.5805   -3.1822   -0.3471 C   0  0  0  0  0  0  0  0  0  0  0  0
    7.1642   -3.0499   -0.2864 O   0  0  0  0  0  0  0  0  0  0  0  0
    6.7120   -1.9633    0.5455 C   0  0  1  0  0  0  0  0  0  0  0  0
    7.0632   -0.5761   -0.0269 C   0  0  2  0  0  0  0  0  0  0  0  0
    8.4735   -0.3135    0.0850 O   0  0  0  0  0  0  0  0  0  0  0  0
    6.3266    0.5442    0.7138 C   0  0  1  0  0  0  0  0  0  0  0  0
    6.5941    1.7847    0.0353 O   0  0  0  0  0  0  0  0  0  0  0  0
    4.8206    0.2483    0.7927 C   0  0  2  0  0  0  0  0  0  0  0  0
    4.2449    1.3173    1.5579 O   0  0  0  0  0  0  0  0  0  0  0  0
    2.8887    1.4950    1.4730 C   0  0  0  0  0  0  0  0  0  0  0  0
    2.4408    2.7327    1.9403 C   0  0  0  0  0  0  0  0  0  0  0  0
    1.0821    3.0723    1.9206 C   0  0  0  0  0  0  0  0  0  0  0  0
    0.1539    2.1405    1.4295 C   0  0  0  0  0  0  0  0  0  0  0  0
   -1.2382    2.1204    1.2623 C   0  0  0  0  0  0  0  0  0  0  0  0
   -1.5889    0.9052    0.7226 C   0  0  0  0  0  0  0  0  0  0  0  0
   -0.4806    0.1465    0.5633 N   0  0  0  0  0  0  0  0  0  0  0  0
    0.6168    0.8927    0.9767 C   0  0  0  0  0  0  0  0  0  0  0  0
    1.9776    0.5474    0.9926 C   0  0  0  0  0  0  0  0  0  0  0  0
   -3.0682    0.7272    0.5472 C   0  0  1  0  0  0  0  0  0  0  0  0
   -3.5787    0.0599    1.8612 C   0  0  0  0  0  0  0  0  0  0  0  0
   -3.4210    2.2826    0.4844 C   0  0  1  0  0  0  0  0  0  0  0  0
   -4.9091    2.5315    0.5720 C   0  0  0  0  0  0  0  0  0  0  0  0
   -5.5954    1.8189   -0.6115 C   0  0  0  0  0  0  0  0  0  0  0  0
   -5.2173    0.3139   -0.7569 C   0  0  1  0  0  0  0  0  0  0  0  0
   -6.0180   -0.4494   -1.8698 C   0  0  0  0  0  0  0  0  0  0  0  0
   -7.5097   -0.5399   -1.4544 C   0  0  0  0  0  0  0  0  0  0  0  0
   -5.9783    0.2031   -3.2606 C   0  0  0  0  0  0  0  0  0  0  0  0
   -5.5247   -1.9010   -1.9971 C   0  0  0  0  0  0  0  0  0  0  0  0
   -6.1306   -2.7486   -2.6540 O   0  0  0  0  0  0  0  0  0  0  0  0
   -4.2716   -2.3225   -1.3244 C   0  0  0  0  0  0  0  0  0  0  0  0
   -3.4230   -1.4461   -0.7729 C   0  0  0  0  0  0  0  0  0  0  0  0
   -3.6456    0.0552   -0.7542 C   0  0  2  0  0  0  0  0  0  0  0  0
   -2.9504    0.5958   -2.0304 C   0  0  0  0  0  0  0  0  0  0  0  0
   -2.4329    2.9892    1.4687 C   0  0  0  0  0  0  0  0  0  0  0  0
    4.6265   -1.0131    1.4325 O   0  0  0  0  0  0  0  0  0  0  0  0
    5.1746   -2.0885    0.6656 C   0  0  2  0  0  0  0  0  0  0  0  0
    4.7718   -3.4149    1.3303 C   0  0  0  0  0  0  0  0  0  0  0  0
    5.0180   -4.5347    0.4865 O   0  0  0  0  0  0  0  0  0  0  0  0
    8.8072   -4.1767   -0.7417 H   0  0  0  0  0  0  0  0  0  0  0  0
    9.0334   -3.0934    0.6447 H   0  0  0  0  0  0  0  0  0  0  0  0
    9.0032   -2.4489   -1.0380 H   0  0  0  0  0  0  0  0  0  0  0  0
    7.1665   -2.0697    1.5397 H   0  0  0  0  0  0  0  0  0  0  0  0
    6.8369   -0.5460   -1.0999 H   0  0  0  0  0  0  0  0  0  0  0  0
    8.5818    0.6216   -0.1837 H   0  0  0  0  0  0  0  0  0  0  0  0
    6.7437    0.6519    1.7234 H   0  0  0  0  0  0  0  0  0  0  0  0
    6.0386    2.4563    0.4788 H   0  0  0  0  0  0  0  0  0  0  0  0
    4.3942    0.2520   -0.2206 H   0  0  0  0  0  0  0  0  0  0  0  0
    3.1571    3.4531    2.3282 H   0  0  0  0  0  0  0  0  0  0  0  0
    0.7536    4.0404    2.2853 H   0  0  0  0  0  0  0  0  0  0  0  0
   -0.4325   -0.8001    0.2128 H   0  0  0  0  0  0  0  0  0  0  0  0
    2.2837   -0.4360    0.6586 H   0  0  0  0  0  0  0  0  0  0  0  0
   -3.2229   -0.9740    1.9392 H   0  0  0  0  0  0  0  0  0  0  0  0
   -3.2090    0.5772    2.7550 H   0  0  0  0  0  0  0  0  0  0  0  0
   -4.6661    0.0419    1.9523 H   0  0  0  0  0  0  0  0  0  0  0  0
   -3.1133    2.6730   -0.4993 H   0  0  0  0  0  0  0  0  0  0  0  0
   -5.1174    3.6061    0.5179 H   0  0  0  0  0  0  0  0  0  0  0  0
   -5.3213    2.1782    1.5225 H   0  0  0  0  0  0  0  0  0  0  0  0
   -6.6766    1.9295   -0.4802 H   0  0  0  0  0  0  0  0  0  0  0  0
   -5.3397    2.3555   -1.5321 H   0  0  0  0  0  0  0  0  0  0  0  0
   -5.5891   -0.1450    0.1698 H   0  0  0  0  0  0  0  0  0  0  0  0
   -7.9833    0.4454   -1.4097 H   0  0  0  0  0  0  0  0  0  0  0  0
   -8.0903   -1.1390   -2.1664 H   0  0  0  0  0  0  0  0  0  0  0  0
   -7.6205   -1.0184   -0.4744 H   0  0  0  0  0  0  0  0  0  0  0  0
   -6.3429    1.2346   -3.2381 H   0  0  0  0  0  0  0  0  0  0  0  0
   -4.9823    0.2018   -3.7033 H   0  0  0  0  0  0  0  0  0  0  0  0
   -6.6169   -0.3444   -3.9653 H   0  0  0  0  0  0  0  0  0  0  0  0
   -4.0600   -3.3862   -1.3491 H   0  0  0  0  0  0  0  0  0  0  0  0
   -2.5004   -1.8322   -0.3484 H   0  0  0  0  0  0  0  0  0  0  0  0
   -3.3234    1.5785   -2.3307 H   0  0  0  0  0  0  0  0  0  0  0  0
   -1.8662    0.6811   -1.9033 H   0  0  0  0  0  0  0  0  0  0  0  0
   -3.0828   -0.0728   -2.8877 H   0  0  0  0  0  0  0  0  0  0  0  0
   -2.7870    2.9462    2.5029 H   0  0  0  0  0  0  0  0  0  0  0  0
   -2.2524    4.0278    1.1787 H   0  0  0  0  0  0  0  0  0  0  0  0
    4.7310   -2.0799   -0.3401 H   0  0  0  0  0  0  0  0  0  0  0  0
    3.7034   -3.4064    1.5717 H   0  0  0  0  0  0  0  0  0  0  0  0
    5.3072   -3.5594    2.2752 H   0  0  0  0  0  0  0  0  0  0  0  0
    5.9066   -4.4048    0.0933 H   0  0  0  0  0  0  0  0  0  0  0  0
  1  2  1  0
  2  3  1  0
  3  4  1  0
  4  5  1  0
  4  6  1  0
  6  7  1  0
  6  8  1  0
  8  9  1  0
  9 10  1  0
 10 11  2  0
 11 12  1  0
 12 13  2  0
 13 14  1  0
 14 15  2  0
 15 16  1  0
 16 17  1  0
 17 18  2  0
 15 19  1  0
 19 20  1  1
 19 21  1  0
 21 22  1  0
 22 23  1  0
 23 24  1  0
 24 25  1  0
 25 26  1  0
 25 27  1  0
 25 28  1  0
 28 29  2  0
 28 30  1  0
 30 31  2  0
 31 32  1  0
 32 33  1  6
 21 34  1  0
  8 35  1  0
 35 36  1  0
 36 37  1  0
 37 38  1  0
 36  3  1  0
 18 10  1  0
 32 19  1  0
 17 13  1  0
 32 24  1  0
 34 14  1  0
  1 39  1  0
  1 40  1  0
  1 41  1  0
  3 42  1  1
  4 43  1  6
  5 44  1  0
  6 45  1  1
  7 46  1  0
  8 47  1  6
 11 48  1  0
 12 49  1  0
 16 50  1  0
 18 51  1  0
 20 52  1  0
 20 53  1  0
 20 54  1  0
 21 55  1  6
 22 56  1  0
 22 57  1  0
 23 58  1  0
 23 59  1  0
 24 60  1  1
 26 61  1  0
 26 62  1  0
 26 63  1  0
 27 64  1  0
 27 65  1  0
 27 66  1  0
 30 67  1  0
 31 68  1  0
 33 69  1  0
 33 70  1  0
 33 71  1  0
 34 72  1  0
 34 73  1  0
 36 74  1  6
 37 75  1  0
 37 76  1  0
 38 77  1  0
M  END
$$$$
