
     RDKit          3D

 93 98  0  0  0  0  0  0  0  0999 V2000
   -0.4644    6.1502   -1.0846 C   0  0  0  0  0  0  0  0  0  0  0  0
   -0.4438    5.0666   -0.0555 C   0  0  0  0  0  0  0  0  0  0  0  0
    0.2813    3.9300   -0.0677 C   0  0  0  0  0  0  0  0  0  0  0  0
    1.2713    3.5251   -1.1193 C   0  0  0  0  0  0  0  0  0  0  0  0
    0.0902    3.0031    1.0930 C   0  0  0  0  0  0  0  0  0  0  0  0
   -0.4530    3.3092    2.1430 O   0  0  0  0  0  0  0  0  0  0  0  0
    0.5750    1.7819    0.7671 O   0  0  0  0  0  0  0  0  0  0  0  0
    0.4997    0.7389    1.7733 C   0  0  2  0  0  0  0  0  0  0  0  0
    1.9378    0.2889    2.0777 C   0  0  2  0  0  0  0  0  0  0  0  0
    2.8383    1.3620    2.4410 O   0  0  0  0  0  0  0  0  0  0  0  0
    4.0824    1.1921    1.6974 C   0  0  0  0  0  0  0  0  0  0  0  0
    4.0624   -0.2407    1.1303 C   0  0  2  0  0  0  0  0  0  0  0  0
    4.6065   -1.1801    2.2264 C   0  0  0  0  0  0  0  0  0  0  0  0
    4.8113   -0.4994   -0.1963 C   0  0  2  0  0  0  0  0  0  0  0  0
    4.6006    0.6183   -1.0846 O   0  0  0  0  0  0  0  0  0  0  0  0
    5.4854    0.7702   -2.1047 C   0  0  0  0  0  0  0  0  0  0  0  0
    5.1046    1.9570   -2.9351 C   0  0  0  0  0  0  0  0  0  0  0  0
    6.4487    0.0502   -2.3232 O   0  0  0  0  0  0  0  0  0  0  0  0
    4.2915   -1.8094   -0.8617 C   0  0  0  0  0  0  0  0  0  0  0  0
    2.7470   -1.9036   -1.0242 C   0  0  2  0  0  0  0  0  0  0  0  0
    2.3655   -1.0080   -2.0699 O   0  0  0  0  0  0  0  0  0  0  0  0
    1.9408   -1.5849    0.2945 C   0  0  1  0  0  0  0  0  0  0  0  0
    2.0907   -2.7980    1.2407 C   0  0  0  0  0  0  0  0  0  0  0  0
    2.5704   -0.3048    0.8467 C   0  0  1  0  0  0  0  0  0  0  0  0
    0.4072   -1.1984    0.0112 C   0  0  1  0  0  0  0  0  0  0  0  0
   -0.3872   -2.3458   -0.6650 C   0  0  0  0  0  0  0  0  0  0  0  0
   -1.8941   -2.1409   -0.8832 C   0  0  2  0  0  0  0  0  0  0  0  0
   -2.3195   -3.2418   -1.7034 O   0  0  0  0  0  0  0  0  0  0  0  0
   -3.7325   -3.2732   -1.8798 C   0  0  0  0  0  0  0  0  0  0  0  0
   -4.0783   -4.4730   -2.7396 C   0  0  0  0  0  0  0  0  0  0  0  0
   -2.2166   -0.9184   -1.5174 O   0  0  0  0  0  0  0  0  0  0  0  0
   -1.9134    0.2809   -0.8203 C   0  0  1  0  0  0  0  0  0  0  0  0
   -3.0988    1.2392   -0.9408 C   0  0  0  0  0  0  0  0  0  0  0  0
   -3.8538    1.1335    0.3874 C   0  0  1  0  0  0  0  0  0  0  0  0
   -5.0419    0.2304    0.3124 C   0  0  0  0  0  0  0  0  0  0  0  0
   -5.3083   -0.9721    0.8241 C   0  0  0  0  0  0  0  0  0  0  0  0
   -6.6645   -1.4163    0.4626 C   0  0  0  0  0  0  0  0  0  0  0  0
   -7.1900   -0.3459   -0.3151 O   0  0  0  0  0  0  0  0  0  0  0  0
   -6.2569    0.6413   -0.4082 C   0  0  0  0  0  0  0  0  0  0  0  0
   -6.4068    1.6991   -0.9919 O   0  0  0  0  0  0  0  0  0  0  0  0
   -2.7675    0.6567    1.3348 C   0  0  0  0  0  0  0  0  0  0  0  0
   -2.9815    0.8932    2.7955 C   0  0  0  0  0  0  0  0  0  0  0  0
   -1.7053    0.1417    0.6759 C   0  0  0  0  0  0  0  0  0  0  0  0
   -0.3737   -0.4519    1.2035 C   0  0  2  0  0  0  0  0  0  0  0  0
   -0.6824   -1.4584    2.3392 C   0  0  0  0  0  0  0  0  0  0  0  0
   -0.0631    7.0745   -0.6579 H   0  0  0  0  0  0  0  0  0  0  0  0
    0.1064    5.9113   -1.9840 H   0  0  0  0  0  0  0  0  0  0  0  0
   -1.4974    6.3394   -1.3942 H   0  0  0  0  0  0  0  0  0  0  0  0
   -1.1166    5.2497    0.7842 H   0  0  0  0  0  0  0  0  0  0  0  0
    0.8835    2.6875   -1.7085 H   0  0  0  0  0  0  0  0  0  0  0  0
    2.2175    3.2187   -0.6594 H   0  0  0  0  0  0  0  0  0  0  0  0
    1.5143    4.3344   -1.8118 H   0  0  0  0  0  0  0  0  0  0  0  0
    0.0677    1.1313    2.6996 H   0  0  0  0  0  0  0  0  0  0  0  0
    1.9282   -0.4035    2.9240 H   0  0  0  0  0  0  0  0  0  0  0  0
    4.9224    1.3865    2.3713 H   0  0  0  0  0  0  0  0  0  0  0  0
    4.0898    1.9630    0.9199 H   0  0  0  0  0  0  0  0  0  0  0  0
    4.0383   -1.1158    3.1591 H   0  0  0  0  0  0  0  0  0  0  0  0
    4.6298   -2.2273    1.9223 H   0  0  0  0  0  0  0  0  0  0  0  0
    5.6423   -0.9112    2.4686 H   0  0  0  0  0  0  0  0  0  0  0  0
    5.8866   -0.5851    0.0066 H   0  0  0  0  0  0  0  0  0  0  0  0
    5.1204    2.8602   -2.3199 H   0  0  0  0  0  0  0  0  0  0  0  0
    4.1125    1.8032   -3.3671 H   0  0  0  0  0  0  0  0  0  0  0  0
    5.8254    2.0767   -3.7489 H   0  0  0  0  0  0  0  0  0  0  0  0
    4.7413   -1.9030   -1.8574 H   0  0  0  0  0  0  0  0  0  0  0  0
    4.6457   -2.6673   -0.2813 H   0  0  0  0  0  0  0  0  0  0  0  0
    2.4874   -2.9119   -1.3697 H   0  0  0  0  0  0  0  0  0  0  0  0
    2.7356   -1.3524   -2.9018 H   0  0  0  0  0  0  0  0  0  0  0  0
    2.1142   -2.5175    2.2949 H   0  0  0  0  0  0  0  0  0  0  0  0
    3.0119   -3.3570    1.0538 H   0  0  0  0  0  0  0  0  0  0  0  0
    1.2921   -3.5314    1.1198 H   0  0  0  0  0  0  0  0  0  0  0  0
    2.4148    0.4418    0.0483 H   0  0  0  0  0  0  0  0  0  0  0  0
    0.4915   -0.4346   -0.7710 H   0  0  0  0  0  0  0  0  0  0  0  0
    0.0703   -2.5390   -1.6447 H   0  0  0  0  0  0  0  0  0  0  0  0
   -0.2763   -3.2842   -0.1144 H   0  0  0  0  0  0  0  0  0  0  0  0
   -2.4346   -2.2303    0.0646 H   0  0  0  0  0  0  0  0  0  0  0  0
   -4.2242   -3.3658   -0.9059 H   0  0  0  0  0  0  0  0  0  0  0  0
   -4.0769   -2.3581   -2.3728 H   0  0  0  0  0  0  0  0  0  0  0  0
   -3.7315   -5.3984   -2.2679 H   0  0  0  0  0  0  0  0  0  0  0  0
   -3.5813   -4.4056   -3.7130 H   0  0  0  0  0  0  0  0  0  0  0  0
   -5.1582   -4.5407   -2.8983 H   0  0  0  0  0  0  0  0  0  0  0  0
   -1.0640    0.7592   -1.3178 H   0  0  0  0  0  0  0  0  0  0  0  0
   -3.7235    1.0291   -1.8162 H   0  0  0  0  0  0  0  0  0  0  0  0
   -2.7218    2.2661   -1.0464 H   0  0  0  0  0  0  0  0  0  0  0  0
   -4.1872    2.1364    0.6837 H   0  0  0  0  0  0  0  0  0  0  0  0
   -4.6307   -1.5582    1.4267 H   0  0  0  0  0  0  0  0  0  0  0  0
   -6.6493   -2.3289   -0.1399 H   0  0  0  0  0  0  0  0  0  0  0  0
   -7.2941   -1.5670    1.3441 H   0  0  0  0  0  0  0  0  0  0  0  0
   -3.6249    0.1185    3.2222 H   0  0  0  0  0  0  0  0  0  0  0  0
   -2.0496    0.9249    3.3612 H   0  0  0  0  0  0  0  0  0  0  0  0
   -3.4639    1.8635    2.9564 H   0  0  0  0  0  0  0  0  0  0  0  0
    0.2143   -1.8980    2.7698 H   0  0  0  0  0  0  0  0  0  0  0  0
   -1.3147   -2.2835    1.9986 H   0  0  0  0  0  0  0  0  0  0  0  0
   -1.1950   -0.9952    3.1843 H   0  0  0  0  0  0  0  0  0  0  0  0
  1  2  1  0
  2  3  2  0
  3  4  1  0
  3  5  1  0
  5  6  2  0
  5  7  1  0
  7  8  1  0
  8  9  1  0
  9 10  1  0
 10 11  1  0
 11 12  1  0
 12 13  1  1
 12 14  1  0
 14 15  1  0
 15 16  1  0
 16 17  1  0
 16 18  2  0
 14 19  1  0
 19 20  1  0
 20 21  1  0
 20 22  1  0
 22 23  1  1
 22 24  1  0
 22 25  1  0
 25 26  1  0
 26 27  1  0
 27 28  1  0
 28 29  1  0
 29 30  1  0
 27 31  1  0
 31 32  1  0
 32 33  1  0
 33 34  1  0
 34 35  1  0
 35 36  2  0
 36 37  1  0
 37 38  1  0
 38 39  1  0
 39 40  2  0
 34 41  1  0
 41 42  1  0
 41 43  2  0
 43 44  1  0
 44 45  1  1
 44  8  1  0
 24  9  1  0
 44 25  1  0
 24 12  1  0
 43 32  1  0
 39 35  1  0
  1 46  1  0
  1 47  1  0
  1 48  1  0
  2 49  1  0
  4 50  1  0
  4 51  1  0
  4 52  1  0
  8 53  1  1
  9 54  1  1
 11 55  1  0
 11 56  1  0
 13 57  1  0
 13 58  1  0
 13 59  1  0
 14 60  1  1
 17 61  1  0
 17 62  1  0
 17 63  1  0
 19 64  1  0
 19 65  1  0
 20 66  1  6
 21 67  1  0
 23 68  1  0
 23 69  1  0
 23 70  1  0
 24 71  1  6
 25 72  1  6
 26 73  1  0
 26 74  1  0
 27 75  1  1
 29 76  1  0
 29 77  1  0
 30 78  1  0
 30 79  1  0
 30 80  1  0
 32 81  1  6
 33 82  1  0
 33 83  1  0
 34 84  1  1
 36 85  1  0
 37 86  1  0
 37 87  1  0
 42 88  1  0
 42 89  1  0
 42 90  1  0
 45 91  1  0
 45 92  1  0
 45 93  1  0
M  END
$$$$
