
     RDKit          3D

 70 74  0  0  0  0  0  0  0  0999 V2000
   -3.7146    3.4842    2.1131 C   0  0  0  0  0  0  0  0  0  0  0  0
   -2.5331    2.8414    2.5942 O   0  0  0  0  0  0  0  0  0  0  0  0
   -2.3932    1.5438    2.1625 C   0  0  0  0  0  0  0  0  0  0  0  0
   -3.4841    0.6747    2.0405 C   0  0  0  0  0  0  0  0  0  0  0  0
   -3.3107   -0.6251    1.5535 C   0  0  0  0  0  0  0  0  0  0  0  0
   -4.4547   -1.5803    1.3802 C   0  0  0  0  0  0  0  0  0  0  0  0
   -4.1957   -2.7788    1.5049 O   0  0  0  0  0  0  0  0  0  0  0  0
   -5.6881   -1.1017    1.2104 N   0  0  0  0  0  0  0  0  0  0  0  0
   -5.9356   -0.1609   -0.0529 S   0  0  0  0  0  0  0  0  0  0  0  0
   -5.1111   -0.3898   -1.2370 O   0  0  0  0  0  0  0  0  0  0  0  0
   -6.0963    1.2551    0.2883 O   0  0  0  0  0  0  0  0  0  0  0  0
   -7.6046   -0.6183   -0.6577 C   0  0  0  0  0  0  0  0  0  0  0  0
   -8.6528    0.2853   -0.4306 C   0  0  0  0  0  0  0  0  0  0  0  0
   -9.9402   -0.0100   -0.8759 C   0  0  0  0  0  0  0  0  0  0  0  0
  -10.1829   -1.2031   -1.5508 C   0  0  0  0  0  0  0  0  0  0  0  0
   -9.1391   -2.1036   -1.7794 C   0  0  0  0  0  0  0  0  0  0  0  0
   -7.8337   -1.8331   -1.3318 C   0  0  0  0  0  0  0  0  0  0  0  0
   -6.7495   -2.8315   -1.6227 C   0  0  0  0  0  0  0  0  0  0  0  0
   -2.0202   -1.0738    1.2566 C   0  0  0  0  0  0  0  0  0  0  0  0
   -0.9212   -0.2284    1.4241 C   0  0  0  0  0  0  0  0  0  0  0  0
   -1.0920    1.0931    1.8758 C   0  0  0  0  0  0  0  0  0  0  0  0
    0.1103    1.9957    2.0304 C   0  0  0  0  0  0  0  0  0  0  0  0
    0.5638    2.3628    0.6499 C   0  0  0  0  0  0  0  0  0  0  0  0
   -0.1350    3.1190   -0.2747 C   0  0  0  0  0  0  0  0  0  0  0  0
    0.6076    3.2048   -1.4182 N   0  0  0  0  0  0  0  0  0  0  0  0
    1.8117    2.5630   -1.2517 C   0  0  0  0  0  0  0  0  0  0  0  0
    2.8844    2.4141   -2.1359 C   0  0  0  0  0  0  0  0  0  0  0  0
    3.9986    1.6864   -1.6969 C   0  0  0  0  0  0  0  0  0  0  0  0
    4.0399    1.1211   -0.4232 C   0  0  0  0  0  0  0  0  0  0  0  0
    5.1276    0.3743    0.0629 N   0  0  0  0  0  0  0  0  0  0  0  0
    6.3075    0.0804   -0.5560 C   0  0  0  0  0  0  0  0  0  0  0  0
    6.6855    0.4164   -1.6674 O   0  0  0  0  0  0  0  0  0  0  0  0
    7.0454   -0.6814    0.2986 O   0  0  0  0  0  0  0  0  0  0  0  0
    8.3174   -1.1015   -0.1957 C   0  0  0  0  0  0  0  0  0  0  0  0
    9.1457   -1.6742    0.9478 C   0  0  0  0  0  0  0  0  0  0  0  0
   10.2065   -2.5113    0.2477 C   0  0  0  0  0  0  0  0  0  0  0  0
    9.5757   -2.9649   -1.0697 C   0  0  0  0  0  0  0  0  0  0  0  0
    8.2075   -2.2953   -1.1379 C   0  0  0  0  0  0  0  0  0  0  0  0
    2.9465    1.2845    0.4440 C   0  0  0  0  0  0  0  0  0  0  0  0
    1.8126    2.0187    0.0315 C   0  0  0  0  0  0  0  0  0  0  0  0
   -4.5817    3.2041    2.7193 H   0  0  0  0  0  0  0  0  0  0  0  0
   -3.5701    4.5634    2.2229 H   0  0  0  0  0  0  0  0  0  0  0  0
   -3.8900    3.2794    1.0510 H   0  0  0  0  0  0  0  0  0  0  0  0
   -4.4796    1.0028    2.3192 H   0  0  0  0  0  0  0  0  0  0  0  0
   -8.4665    1.2201    0.0906 H   0  0  0  0  0  0  0  0  0  0  0  0
  -10.7468    0.6944   -0.6982 H   0  0  0  0  0  0  0  0  0  0  0  0
  -11.1836   -1.4341   -1.9034 H   0  0  0  0  0  0  0  0  0  0  0  0
   -9.3487   -3.0272   -2.3136 H   0  0  0  0  0  0  0  0  0  0  0  0
   -6.1635   -3.0593   -0.7296 H   0  0  0  0  0  0  0  0  0  0  0  0
   -7.1730   -3.7838   -1.9619 H   0  0  0  0  0  0  0  0  0  0  0  0
   -6.0947   -2.4653   -2.4186 H   0  0  0  0  0  0  0  0  0  0  0  0
   -1.8767   -2.0854    0.8848 H   0  0  0  0  0  0  0  0  0  0  0  0
    0.0692   -0.6004    1.1751 H   0  0  0  0  0  0  0  0  0  0  0  0
   -0.1151    2.9014    2.6033 H   0  0  0  0  0  0  0  0  0  0  0  0
    0.8918    1.4658    2.5867 H   0  0  0  0  0  0  0  0  0  0  0  0
   -1.1194    3.5663   -0.2184 H   0  0  0  0  0  0  0  0  0  0  0  0
    0.3113    3.6654   -2.2669 H   0  0  0  0  0  0  0  0  0  0  0  0
    2.8603    2.8399   -3.1336 H   0  0  0  0  0  0  0  0  0  0  0  0
    4.8247    1.5728   -2.3926 H   0  0  0  0  0  0  0  0  0  0  0  0
    5.0519   -0.0143    0.9919 H   0  0  0  0  0  0  0  0  0  0  0  0
    8.8595   -0.2664   -0.6592 H   0  0  0  0  0  0  0  0  0  0  0  0
    8.5253   -2.3016    1.6001 H   0  0  0  0  0  0  0  0  0  0  0  0
    9.5791   -0.8901    1.5766 H   0  0  0  0  0  0  0  0  0  0  0  0
   10.5238   -3.3584    0.8638 H   0  0  0  0  0  0  0  0  0  0  0  0
   11.0946   -1.9025    0.0416 H   0  0  0  0  0  0  0  0  0  0  0  0
   10.2026   -2.6502   -1.9117 H   0  0  0  0  0  0  0  0  0  0  0  0
    9.4827   -4.0547   -1.1195 H   0  0  0  0  0  0  0  0  0  0  0  0
    7.4246   -2.9843   -0.7969 H   0  0  0  0  0  0  0  0  0  0  0  0
    7.9468   -1.9982   -2.1585 H   0  0  0  0  0  0  0  0  0  0  0  0
    2.9553    0.8484    1.4375 H   0  0  0  0  0  0  0  0  0  0  0  0
  1  2  1  0
  2  3  1  0
  3  4  2  0
  4  5  1  0
  5  6  1  0
  6  7  2  0
  6  8  1  0
  8  9  1  0
  9 10  2  0
  9 11  2  0
  9 12  1  0
 12 13  2  0
 13 14  1  0
 14 15  2  0
 15 16  1  0
 16 17  2  0
 17 18  1  0
  5 19  2  0
 19 20  1  0
 20 21  2  0
 21 22  1  0
 22 23  1  0
 23 24  2  0
 24 25  1  0
 25 26  1  0
 26 27  2  0
 27 28  1  0
 28 29  2  0
 29 30  1  0
 30 31  1  0
 31 32  2  0
 31 33  1  0
 33 34  1  0
 34 35  1  0
 35 36  1  0
 36 37  1  0
 37 38  1  0
 29 39  1  0
 39 40  2  0
 21  3  1  0
 40 23  1  0
 17 12  1  0
 40 26  1  0
 38 34  1  0
  1 41  1  0
  1 42  1  0
  1 43  1  0
  4 44  1  0
 13 45  1  0
 14 46  1  0
 15 47  1  0
 16 48  1  0
 18 49  1  0
 18 50  1  0
 18 51  1  0
 19 52  1  0
 20 53  1  0
 22 54  1  0
 22 55  1  0
 24 56  1  0
 25 57  1  0
 27 58  1  0
 28 59  1  0
 30 60  1  0
 34 61  1  0
 35 62  1  0
 35 63  1  0
 36 64  1  0
 36 65  1  0
 37 66  1  0
 37 67  1  0
 38 68  1  0
 38 69  1  0
 39 70  1  0
M  CHG  1   8  -1
M  END
$$$$
