
     RDKit          3D

 69 73  0  0  0  0  0  0  0  0999 V2000
    9.4327   -2.2868   -1.3411 C   0  0  0  0  0  0  0  0  0  0  0  0
    8.2611   -1.3884   -1.7047 C   0  0  2  0  0  0  0  0  0  0  0  0
    7.9602   -1.5841   -3.0911 O   0  0  0  0  0  0  0  0  0  0  0  0
    8.5911    0.0947   -1.4546 C   0  0  0  0  0  0  0  0  0  0  0  0
    7.5109    0.9511   -1.8991 N   0  0  0  0  0  0  0  0  0  0  0  0
    6.3611    1.1252   -1.1862 C   0  0  0  0  0  0  0  0  0  0  0  0
    5.4776    1.9829   -1.6997 N   0  0  0  0  0  0  0  0  0  0  0  0
    4.3408    2.1731   -1.0092 C   0  0  0  0  0  0  0  0  0  0  0  0
    4.0454    1.5282    0.1674 C   0  0  0  0  0  0  0  0  0  0  0  0
    4.9971    0.6387    0.6133 C   0  0  0  0  0  0  0  0  0  0  0  0
    4.8298   -0.0963    1.8277 N   0  0  0  0  0  0  0  0  0  0  0  0
    5.8774   -0.7143    2.4891 C   0  0  0  0  0  0  0  0  0  0  0  0
    5.3745   -1.1495    3.6857 C   0  0  0  0  0  0  0  0  0  0  0  0
    4.0382   -0.8916    3.7624 N   0  0  0  0  0  0  0  0  0  0  0  0
    3.6957   -0.3443    2.6053 C   0  0  0  0  0  0  0  0  0  0  0  0
    2.2987   -0.1156    2.2323 C   0  0  0  0  0  0  0  0  0  0  0  0
    1.4639    0.6115    3.0863 C   0  0  0  0  0  0  0  0  0  0  0  0
    0.1230    0.8299    2.7524 C   0  0  0  0  0  0  0  0  0  0  0  0
   -0.4112    0.3153    1.5647 C   0  0  0  0  0  0  0  0  0  0  0  0
   -1.7694    0.5879    1.2987 N   0  0  0  0  0  0  0  0  0  0  0  0
   -2.5081    0.1764    0.2040 C   0  0  0  0  0  0  0  0  0  0  0  0
   -2.1319   -0.5427   -0.7129 O   0  0  0  0  0  0  0  0  0  0  0  0
   -3.9167    0.6588    0.1837 C   0  0  0  0  0  0  0  0  0  0  0  0
   -4.9122   -0.2161   -0.2743 C   0  0  0  0  0  0  0  0  0  0  0  0
   -6.2629    0.1587   -0.3260 C   0  0  0  0  0  0  0  0  0  0  0  0
   -7.2304   -0.7358   -0.7661 N   0  0  0  0  0  0  0  0  0  0  0  0
   -6.9991   -1.4454   -2.0440 C   0  0  0  0  0  0  0  0  0  0  0  0
   -7.8722   -2.7069   -2.1286 C   0  0  0  0  0  0  0  0  0  0  0  0
   -9.2601   -2.4080   -1.9151 O   0  0  0  0  0  0  0  0  0  0  0  0
   -9.4393   -1.8424   -0.6088 C   0  0  0  0  0  0  0  0  0  0  0  0
   -8.6556   -0.5310   -0.4474 C   0  0  0  0  0  0  0  0  0  0  0  0
   -6.5772    1.4562    0.1081 C   0  0  0  0  0  0  0  0  0  0  0  0
   -5.5929    2.3647    0.5443 C   0  0  0  0  0  0  0  0  0  0  0  0
   -5.9813    3.7513    0.9931 C   0  0  0  0  0  0  0  0  0  0  0  0
   -5.0149    4.6777    0.7413 F   0  0  0  0  0  0  0  0  0  0  0  0
   -6.2106    3.8084    2.3335 F   0  0  0  0  0  0  0  0  0  0  0  0
   -7.1117    4.2178    0.3960 F   0  0  0  0  0  0  0  0  0  0  0  0
   -4.2547    1.9538    0.5818 C   0  0  0  0  0  0  0  0  0  0  0  0
    0.4156   -0.4319    0.7246 C   0  0  0  0  0  0  0  0  0  0  0  0
    1.7568   -0.6572    1.0609 C   0  0  0  0  0  0  0  0  0  0  0  0
    6.1654    0.4511   -0.0483 N   0  0  0  0  0  0  0  0  0  0  0  0
    9.1874   -3.3347   -1.5449 H   0  0  0  0  0  0  0  0  0  0  0  0
    9.6949   -2.1888   -0.2834 H   0  0  0  0  0  0  0  0  0  0  0  0
   10.3141   -2.0479   -1.9464 H   0  0  0  0  0  0  0  0  0  0  0  0
    7.3800   -1.6975   -1.1326 H   0  0  0  0  0  0  0  0  0  0  0  0
    7.2683   -0.9255   -3.2930 H   0  0  0  0  0  0  0  0  0  0  0  0
    9.4792    0.3650   -2.0386 H   0  0  0  0  0  0  0  0  0  0  0  0
    8.8339    0.2744   -0.4005 H   0  0  0  0  0  0  0  0  0  0  0  0
    7.6104    1.5453   -2.7081 H   0  0  0  0  0  0  0  0  0  0  0  0
    3.6520    2.8934   -1.4421 H   0  0  0  0  0  0  0  0  0  0  0  0
    3.1313    1.7695    0.6869 H   0  0  0  0  0  0  0  0  0  0  0  0
    6.8771   -0.7330    2.0784 H   0  0  0  0  0  0  0  0  0  0  0  0
    5.9043   -1.6377    4.4935 H   0  0  0  0  0  0  0  0  0  0  0  0
    1.8550    1.0035    4.0238 H   0  0  0  0  0  0  0  0  0  0  0  0
   -0.4937    1.4003    3.4423 H   0  0  0  0  0  0  0  0  0  0  0  0
   -2.2575    1.1087    2.0155 H   0  0  0  0  0  0  0  0  0  0  0  0
   -4.6167   -1.2237   -0.5608 H   0  0  0  0  0  0  0  0  0  0  0  0
   -7.2622   -0.7657   -2.8642 H   0  0  0  0  0  0  0  0  0  0  0  0
   -5.9558   -1.7450   -2.1814 H   0  0  0  0  0  0  0  0  0  0  0  0
   -7.7791   -3.1555   -3.1227 H   0  0  0  0  0  0  0  0  0  0  0  0
   -7.5511   -3.4555   -1.3942 H   0  0  0  0  0  0  0  0  0  0  0  0
  -10.5088   -1.6535   -0.4723 H   0  0  0  0  0  0  0  0  0  0  0  0
   -9.1329   -2.5783    0.1445 H   0  0  0  0  0  0  0  0  0  0  0  0
   -9.0673    0.2249   -1.1274 H   0  0  0  0  0  0  0  0  0  0  0  0
   -8.7831   -0.1844    0.5847 H   0  0  0  0  0  0  0  0  0  0  0  0
   -7.6100    1.8002    0.0815 H   0  0  0  0  0  0  0  0  0  0  0  0
   -3.4857    2.6576    0.8939 H   0  0  0  0  0  0  0  0  0  0  0  0
    0.0462   -0.8700   -0.1977 H   0  0  0  0  0  0  0  0  0  0  0  0
    2.3650   -1.2708    0.3988 H   0  0  0  0  0  0  0  0  0  0  0  0
  1  2  1  0
  2  3  1  0
  2  4  1  0
  4  5  1  0
  5  6  1  0
  6  7  2  0
  7  8  1  0
  8  9  2  0
  9 10  1  0
 10 11  1  0
 11 12  1  0
 12 13  2  0
 13 14  1  0
 14 15  2  0
 15 16  1  0
 16 17  2  0
 17 18  1  0
 18 19  2  0
 19 20  1  0
 20 21  1  0
 21 22  2  0
 21 23  1  0
 23 24  2  0
 24 25  1  0
 25 26  1  0
 26 27  1  0
 27 28  1  0
 28 29  1  0
 29 30  1  0
 30 31  1  0
 25 32  2  0
 32 33  1  0
 33 34  1  0
 34 35  1  0
 34 36  1  0
 34 37  1  0
 33 38  2  0
 19 39  1  0
 39 40  2  0
 10 41  2  0
 41  6  1  0
 15 11  1  0
 40 16  1  0
 38 23  1  0
 31 26  1  0
  1 42  1  0
  1 43  1  0
  1 44  1  0
  2 45  1  1
  3 46  1  0
  4 47  1  0
  4 48  1  0
  5 49  1  0
  8 50  1  0
  9 51  1  0
 12 52  1  0
 13 53  1  0
 17 54  1  0
 18 55  1  0
 20 56  1  0
 24 57  1  0
 27 58  1  0
 27 59  1  0
 28 60  1  0
 28 61  1  0
 30 62  1  0
 30 63  1  0
 31 64  1  0
 31 65  1  0
 32 66  1  0
 38 67  1  0
 39 68  1  0
 40 69  1  0
M  END
$$$$
