
     RDKit          3D

 81 85  0  0  0  0  0  0  0  0999 V2000
    2.5916    3.5312    1.0163 C   0  0  0  0  0  0  0  0  0  0  0  0
    2.1551    2.2915    0.7251 C   0  0  0  0  0  0  0  0  0  0  0  0
    3.0501    1.0950    0.3764 C   0  0  2  0  0  0  0  0  0  0  0  0
    4.5890    1.2760    0.6383 C   0  0  1  0  0  0  0  0  0  0  0  0
    4.8612    1.3912    2.1536 C   0  0  0  0  0  0  0  0  0  0  0  0
    5.5280    0.1760    0.0632 C   0  0  1  0  0  0  0  0  0  0  0  0
    5.1639   -1.2553    0.4611 C   0  0  0  0  0  0  0  0  0  0  0  0
    6.0401   -2.2102   -0.2820 C   0  0  0  0  0  0  0  0  0  0  0  0
    6.6054   -1.8852   -1.4563 C   0  0  0  0  0  0  0  0  0  0  0  0
    7.4897   -2.8157   -2.2266 C   0  0  0  0  0  0  0  0  0  0  0  0
    6.3139   -0.5758   -2.1009 C   0  0  0  0  0  0  0  0  0  0  0  0
    6.6689   -0.3340   -3.2475 O   0  0  0  0  0  0  0  0  0  0  0  0
    5.6018    0.3202   -1.3703 O   0  0  0  0  0  0  0  0  0  0  0  0
    2.6841    0.7113   -1.0709 C   0  0  0  0  0  0  0  0  0  0  0  0
    1.2171    0.2797   -1.1663 C   0  0  0  0  0  0  0  0  0  0  0  0
    0.1929    1.3482   -0.6963 C   0  0  2  0  0  0  0  0  0  0  0  0
    0.0279    2.4020   -1.8074 C   0  0  0  0  0  0  0  0  0  0  0  0
    0.6585    2.0559    0.6103 C   0  0  1  0  0  0  0  0  0  0  0  0
    0.0284    1.2310    1.7352 C   0  0  0  0  0  0  0  0  0  0  0  0
   -1.3926    1.0084    1.1968 C   0  0  2  0  0  0  0  0  0  0  0  0
   -2.1044    2.2386    1.2864 O   0  0  0  0  0  0  0  0  0  0  0  0
   -2.1608   -0.0462    1.9396 C   0  0  0  0  0  0  0  0  0  0  0  0
   -3.3840   -0.5077    1.5953 C   0  0  0  0  0  0  0  0  0  0  0  0
   -3.8504   -1.7030    2.2747 C   0  0  0  0  0  0  0  0  0  0  0  0
   -4.8070   -2.5679    1.9176 C   0  0  0  0  0  0  0  0  0  0  0  0
   -5.6705   -2.6063    0.7355 C   0  0  0  0  0  0  0  0  0  0  0  0
   -6.0545   -3.6984    0.3260 O   0  0  0  0  0  0  0  0  0  0  0  0
   -6.0719   -1.4677    0.1490 O   0  0  0  0  0  0  0  0  0  0  0  0
   -5.7575   -0.1177    0.5603 C   0  0  0  0  0  0  0  0  0  0  0  0
   -6.5152    0.7621   -0.4673 C   0  0  0  0  0  0  0  0  0  0  0  0
   -6.4011    0.2244    1.9226 C   0  0  0  0  0  0  0  0  0  0  0  0
   -4.2162    0.1647    0.4949 C   0  0  2  0  0  0  0  0  0  0  0  0
   -3.5901   -0.0733   -0.9152 C   0  0  2  0  0  0  0  0  0  0  0  0
   -3.2649   -1.4727   -1.0690 O   0  0  0  0  0  0  0  0  0  0  0  0
   -3.3475   -1.9863   -2.3264 C   0  0  0  0  0  0  0  0  0  0  0  0
   -3.0434   -3.4525   -2.2973 C   0  0  0  0  0  0  0  0  0  0  0  0
   -3.6183   -1.3562   -3.3382 O   0  0  0  0  0  0  0  0  0  0  0  0
   -2.3502    0.8055   -1.2116 C   0  0  0  0  0  0  0  0  0  0  0  0
   -1.1451    0.6073   -0.2809 C   0  0  1  0  0  0  0  0  0  0  0  0
    3.6405    3.8015    1.0484 H   0  0  0  0  0  0  0  0  0  0  0  0
    1.8983    4.3451    1.2130 H   0  0  0  0  0  0  0  0  0  0  0  0
    2.7353    0.2682    1.0285 H   0  0  0  0  0  0  0  0  0  0  0  0
    4.9021    2.2137    0.1601 H   0  0  0  0  0  0  0  0  0  0  0  0
    5.9307    1.5297    2.3464 H   0  0  0  0  0  0  0  0  0  0  0  0
    4.3464    2.2401    2.6091 H   0  0  0  0  0  0  0  0  0  0  0  0
    4.5363    0.4917    2.6868 H   0  0  0  0  0  0  0  0  0  0  0  0
    6.5435    0.3941    0.4257 H   0  0  0  0  0  0  0  0  0  0  0  0
    4.1232   -1.5037    0.2325 H   0  0  0  0  0  0  0  0  0  0  0  0
    5.3097   -1.3938    1.5374 H   0  0  0  0  0  0  0  0  0  0  0  0
    6.2075   -3.1888    0.1598 H   0  0  0  0  0  0  0  0  0  0  0  0
    7.0475   -3.0521   -3.2000 H   0  0  0  0  0  0  0  0  0  0  0  0
    7.6468   -3.7609   -1.6960 H   0  0  0  0  0  0  0  0  0  0  0  0
    8.4725   -2.3613   -2.3900 H   0  0  0  0  0  0  0  0  0  0  0  0
    2.8917    1.5393   -1.7593 H   0  0  0  0  0  0  0  0  0  0  0  0
    3.2701   -0.1430   -1.4165 H   0  0  0  0  0  0  0  0  0  0  0  0
    1.1206   -0.6302   -0.5587 H   0  0  0  0  0  0  0  0  0  0  0  0
    0.9926   -0.0261   -2.1960 H   0  0  0  0  0  0  0  0  0  0  0  0
    0.9635    2.9423   -1.9880 H   0  0  0  0  0  0  0  0  0  0  0  0
   -0.2690    1.9454   -2.7572 H   0  0  0  0  0  0  0  0  0  0  0  0
   -0.7275    3.1491   -1.5409 H   0  0  0  0  0  0  0  0  0  0  0  0
    0.1681    3.0415    0.6410 H   0  0  0  0  0  0  0  0  0  0  0  0
    0.5575    0.2829    1.8885 H   0  0  0  0  0  0  0  0  0  0  0  0
    0.0341    1.7904    2.6777 H   0  0  0  0  0  0  0  0  0  0  0  0
   -2.2433    2.4241    2.2312 H   0  0  0  0  0  0  0  0  0  0  0  0
   -1.5983   -0.5549    2.7215 H   0  0  0  0  0  0  0  0  0  0  0  0
   -3.3099   -1.9632    3.1868 H   0  0  0  0  0  0  0  0  0  0  0  0
   -4.9491   -3.4484    2.5413 H   0  0  0  0  0  0  0  0  0  0  0  0
   -6.2477    1.8195   -0.3714 H   0  0  0  0  0  0  0  0  0  0  0  0
   -7.6001    0.6740   -0.3274 H   0  0  0  0  0  0  0  0  0  0  0  0
   -6.3432    0.4403   -1.4989 H   0  0  0  0  0  0  0  0  0  0  0  0
   -6.0056   -0.3489    2.7617 H   0  0  0  0  0  0  0  0  0  0  0  0
   -7.4756    0.0048    1.9054 H   0  0  0  0  0  0  0  0  0  0  0  0
   -6.2707    1.2857    2.1614 H   0  0  0  0  0  0  0  0  0  0  0  0
   -4.1660    1.2464    0.6780 H   0  0  0  0  0  0  0  0  0  0  0  0
   -4.3235    0.2011   -1.6771 H   0  0  0  0  0  0  0  0  0  0  0  0
   -3.7682   -3.9696   -1.6639 H   0  0  0  0  0  0  0  0  0  0  0  0
   -3.1155   -3.8577   -3.3107 H   0  0  0  0  0  0  0  0  0  0  0  0
   -2.0270   -3.6124   -1.9291 H   0  0  0  0  0  0  0  0  0  0  0  0
   -2.0231    0.5722   -2.2321 H   0  0  0  0  0  0  0  0  0  0  0  0
   -2.6628    1.8563   -1.2115 H   0  0  0  0  0  0  0  0  0  0  0  0
   -0.9345   -0.4720   -0.2906 H   0  0  0  0  0  0  0  0  0  0  0  0
  1  2  2  0
  2  3  1  0
  3  4  1  0
  4  5  1  0
  4  6  1  0
  6  7  1  0
  7  8  1  0
  8  9  2  0
  9 10  1  0
  9 11  1  0
 11 12  2  0
 11 13  1  0
  3 14  1  0
 14 15  1  0
 15 16  1  0
 16 17  1  6
 16 18  1  0
 18 19  1  0
 19 20  1  0
 20 21  1  6
 20 22  1  0
 22 23  2  0
 23 24  1  0
 24 25  2  0
 25 26  1  0
 26 27  2  0
 26 28  1  0
 28 29  1  0
 29 30  1  0
 29 31  1  0
 29 32  1  0
 32 33  1  0
 33 34  1  0
 34 35  1  0
 35 36  1  0
 35 37  2  0
 33 38  1  0
 38 39  1  0
 18  2  1  0
 39 20  1  0
 13  6  1  0
 39 16  1  0
 32 23  1  0
  1 40  1  0
  1 41  1  0
  3 42  1  1
  4 43  1  6
  5 44  1  0
  5 45  1  0
  5 46  1  0
  6 47  1  1
  7 48  1  0
  7 49  1  0
  8 50  1  0
 10 51  1  0
 10 52  1  0
 10 53  1  0
 14 54  1  0
 14 55  1  0
 15 56  1  0
 15 57  1  0
 17 58  1  0
 17 59  1  0
 17 60  1  0
 18 61  1  6
 19 62  1  0
 19 63  1  0
 21 64  1  0
 22 65  1  0
 24 66  1  0
 25 67  1  0
 30 68  1  0
 30 69  1  0
 30 70  1  0
 31 71  1  0
 31 72  1  0
 31 73  1  0
 32 74  1  1
 33 75  1  6
 36 76  1  0
 36 77  1  0
 36 78  1  0
 38 79  1  0
 38 80  1  0
 39 81  1  1
M  END
$$$$
