
     RDKit          3D

 60 64  0  0  0  0  0  0  0  0999 V2000
    8.4676   -2.0210    2.6707 C   0  0  0  0  0  0  0  0  0  0  0  0
    8.8613   -1.9632    1.3056 O   0  0  0  0  0  0  0  0  0  0  0  0
    8.0156   -1.3010    0.4566 C   0  0  0  0  0  0  0  0  0  0  0  0
    8.3715   -1.3636   -0.8929 C   0  0  0  0  0  0  0  0  0  0  0  0
    7.5922   -0.7344   -1.8677 C   0  0  0  0  0  0  0  0  0  0  0  0
    6.4451   -0.0202   -1.5024 C   0  0  0  0  0  0  0  0  0  0  0  0
    5.5940    0.6688   -2.5425 C   0  0  0  0  0  0  0  0  0  0  0  0
    4.3483   -0.0281   -2.7754 N   0  0  0  0  0  0  0  0  0  0  0  0
    4.2317   -1.0021   -3.7520 N   0  0  0  0  0  0  0  0  0  0  0  0
    2.9208   -1.3460   -3.6653 C   0  0  0  0  0  0  0  0  0  0  0  0
    2.2647   -0.5984   -2.7002 C   0  0  0  0  0  0  0  0  0  0  0  0
    0.9869   -0.3749   -2.0793 N   0  0  0  0  0  0  0  0  0  0  0  0
    1.2450    0.6409   -1.1458 C   0  0  0  0  0  0  0  0  0  0  0  0
    0.0989    1.2272   -0.1898 C   0  0  0  0  0  0  0  0  0  0  0  0
   -1.1808    0.6671   -0.3402 C   0  0  0  0  0  0  0  0  0  0  0  0
   -2.2609    1.0881    0.4406 C   0  0  0  0  0  0  0  0  0  0  0  0
   -3.4950    0.4475    0.2117 N   0  0  0  0  0  0  0  0  0  0  0  0
   -4.7137    0.6884    0.8201 C   0  0  0  0  0  0  0  0  0  0  0  0
   -4.9445    1.5606    1.6460 O   0  0  0  0  0  0  0  0  0  0  0  0
   -5.6456   -0.2450    0.3943 N   0  0  0  0  0  0  0  0  0  0  0  0
   -7.0410   -0.2213    0.6121 C   0  0  0  0  0  0  0  0  0  0  0  0
   -7.7964    0.9125    0.9235 C   0  0  0  0  0  0  0  0  0  0  0  0
   -7.2576    2.1375    0.9546 F   0  0  0  0  0  0  0  0  0  0  0  0
   -9.1707    0.8222    1.1355 C   0  0  0  0  0  0  0  0  0  0  0  0
   -9.8064   -0.4066    1.0144 C   0  0  0  0  0  0  0  0  0  0  0  0
  -11.1278   -0.4745    1.2293 F   0  0  0  0  0  0  0  0  0  0  0  0
   -9.1012   -1.5538    0.6581 C   0  0  0  0  0  0  0  0  0  0  0  0
   -9.7863   -2.8786    0.5453 C   0  0  0  0  0  0  0  0  0  0  0  0
   -7.7210   -1.4399    0.4672 C   0  0  0  0  0  0  0  0  0  0  0  0
   -7.0164   -2.5386    0.1451 F   0  0  0  0  0  0  0  0  0  0  0  0
   -2.0545    2.0867    1.3864 C   0  0  0  0  0  0  0  0  0  0  0  0
   -0.7842    2.6556    1.5429 C   0  0  0  0  0  0  0  0  0  0  0  0
    0.3090    2.2379    0.7619 C   0  0  0  0  0  0  0  0  0  0  0  0
    1.6439    2.8882    0.9818 C   0  0  0  0  0  0  0  0  0  0  0  0
    2.5764    1.0598   -1.1496 N   0  0  0  0  0  0  0  0  0  0  0  0
    3.1718    0.2207   -2.1659 C   0  0  0  0  0  0  0  0  0  0  0  0
    6.0915    0.0391   -0.1467 C   0  0  0  0  0  0  0  0  0  0  0  0
    6.8702   -0.5964    0.8259 C   0  0  0  0  0  0  0  0  0  0  0  0
    7.4979   -2.5173    2.7844 H   0  0  0  0  0  0  0  0  0  0  0  0
    8.4579   -1.0227    3.1206 H   0  0  0  0  0  0  0  0  0  0  0  0
    9.2109   -2.6188    3.2071 H   0  0  0  0  0  0  0  0  0  0  0  0
    9.2571   -1.9185   -1.1903 H   0  0  0  0  0  0  0  0  0  0  0  0
    7.8787   -0.8158   -2.9135 H   0  0  0  0  0  0  0  0  0  0  0  0
    6.1189    0.7401   -3.5024 H   0  0  0  0  0  0  0  0  0  0  0  0
    5.3658    1.6938   -2.2270 H   0  0  0  0  0  0  0  0  0  0  0  0
    2.5253   -2.1112   -4.3141 H   0  0  0  0  0  0  0  0  0  0  0  0
   -1.3073   -0.1140   -1.0871 H   0  0  0  0  0  0  0  0  0  0  0  0
   -3.4813   -0.2370   -0.5300 H   0  0  0  0  0  0  0  0  0  0  0  0
   -5.2669   -1.1172    0.0484 H   0  0  0  0  0  0  0  0  0  0  0  0
   -9.7389    1.7130    1.3798 H   0  0  0  0  0  0  0  0  0  0  0  0
   -9.3049   -3.5058   -0.2122 H   0  0  0  0  0  0  0  0  0  0  0  0
  -10.8318   -2.7573    0.2432 H   0  0  0  0  0  0  0  0  0  0  0  0
   -9.7559   -3.3995    1.5073 H   0  0  0  0  0  0  0  0  0  0  0  0
   -2.8582    2.4480    2.0185 H   0  0  0  0  0  0  0  0  0  0  0  0
   -0.6532    3.4361    2.2886 H   0  0  0  0  0  0  0  0  0  0  0  0
    1.9828    3.3948    0.0731 H   0  0  0  0  0  0  0  0  0  0  0  0
    1.5883    3.6528    1.7652 H   0  0  0  0  0  0  0  0  0  0  0  0
    2.3834    2.1529    1.3132 H   0  0  0  0  0  0  0  0  0  0  0  0
    5.1864    0.5700    0.1565 H   0  0  0  0  0  0  0  0  0  0  0  0
    6.5421   -0.5230    1.8568 H   0  0  0  0  0  0  0  0  0  0  0  0
  1  2  1  0
  2  3  1  0
  3  4  2  0
  4  5  1  0
  5  6  2  0
  6  7  1  0
  7  8  1  0
  8  9  1  0
  9 10  2  0
 10 11  1  0
 11 12  1  0
 12 13  1  0
 13 14  1  0
 14 15  2  0
 15 16  1  0
 16 17  1  0
 17 18  1  0
 18 19  2  0
 18 20  1  0
 20 21  1  0
 21 22  2  0
 22 23  1  0
 22 24  1  0
 24 25  2  0
 25 26  1  0
 25 27  1  0
 27 28  1  0
 27 29  2  0
 29 30  1  0
 16 31  2  0
 31 32  1  0
 32 33  2  0
 33 34  1  0
 13 35  2  0
 35 36  1  0
  6 37  1  0
 37 38  2  0
 38  3  1  0
 36  8  1  0
 36 11  2  0
 33 14  1  0
 29 21  1  0
  1 39  1  0
  1 40  1  0
  1 41  1  0
  4 42  1  0
  5 43  1  0
  7 44  1  0
  7 45  1  0
 10 46  1  0
 15 47  1  0
 17 48  1  0
 20 49  1  0
 24 50  1  0
 28 51  1  0
 28 52  1  0
 28 53  1  0
 31 54  1  0
 32 55  1  0
 34 56  1  0
 34 57  1  0
 34 58  1  0
 37 59  1  0
 38 60  1  0
M  CHG  1  12  -1
M  END
$$$$
