
     RDKit          3D

 54 58  0  0  0  0  0  0  0  0999 V2000
   -5.9324    2.3711    2.2115 C   0  0  0  0  0  0  0  0  0  0  0  0
   -4.5050    2.3556    1.9979 N   0  0  0  0  0  0  0  0  0  0  0  0
   -3.5885    2.7838    2.9168 C   0  0  0  0  0  0  0  0  0  0  0  0
   -2.3603    2.5918    2.5006 N   0  0  0  0  0  0  0  0  0  0  0  0
   -2.4818    2.0453    1.2407 C   0  0  0  0  0  0  0  0  0  0  0  0
   -1.3113    1.6940    0.4514 C   0  0  0  0  0  0  0  0  0  0  0  0
   -1.2536    1.9067   -0.9289 C   0  0  0  0  0  0  0  0  0  0  0  0
   -0.1140    1.5441   -1.6468 C   0  0  0  0  0  0  0  0  0  0  0  0
    0.9836    0.9793   -0.9913 C   0  0  0  0  0  0  0  0  0  0  0  0
    0.9567    0.7815    0.3891 C   0  0  0  0  0  0  0  0  0  0  0  0
    2.0270    0.2426    1.1344 N   0  0  0  0  0  0  0  0  0  0  0  0
    3.2290   -0.2571    0.6573 C   0  0  0  0  0  0  0  0  0  0  0  0
    3.5241   -0.3727   -0.5247 O   0  0  0  0  0  0  0  0  0  0  0  0
    4.0551   -0.6174    1.7094 N   0  0  0  0  0  0  0  0  0  0  0  0
    5.3363   -1.2078    1.6457 C   0  0  0  0  0  0  0  0  0  0  0  0
    5.9825   -1.5791    0.4648 C   0  0  0  0  0  0  0  0  0  0  0  0
    7.2631   -2.1677    0.4975 C   0  0  0  0  0  0  0  0  0  0  0  0
    7.9483   -2.5450   -0.7958 C   0  0  0  0  0  0  0  0  0  0  0  0
    7.1284   -3.2083   -1.6561 F   0  0  0  0  0  0  0  0  0  0  0  0
    9.0266   -3.3587   -0.6122 F   0  0  0  0  0  0  0  0  0  0  0  0
    8.4129   -1.4601   -1.4728 F   0  0  0  0  0  0  0  0  0  0  0  0
    7.8950   -2.3722    1.7353 C   0  0  0  0  0  0  0  0  0  0  0  0
    7.2558   -2.0078    2.9188 C   0  0  0  0  0  0  0  0  0  0  0  0
    5.9899   -1.4342    2.8635 C   0  0  0  0  0  0  0  0  0  0  0  0
    5.3839   -1.0888    4.0113 F   0  0  0  0  0  0  0  0  0  0  0  0
   -0.1934    1.1482    1.1016 C   0  0  0  0  0  0  0  0  0  0  0  0
   -3.8192    1.8624    0.9069 C   0  0  0  0  0  0  0  0  0  0  0  0
   -4.4248    1.2527   -0.2435 C   0  0  0  0  0  0  0  0  0  0  0  0
   -4.1529   -0.0057   -0.7440 C   0  0  0  0  0  0  0  0  0  0  0  0
   -4.9036   -0.3121   -1.9282 C   0  0  0  0  0  0  0  0  0  0  0  0
   -4.9631   -1.4338   -2.7705 C   0  0  0  0  0  0  0  0  0  0  0  0
   -4.2083   -2.5665   -2.5844 N   0  0  0  0  0  0  0  0  0  0  0  0
   -5.7967   -1.4198   -3.8262 N   0  0  0  0  0  0  0  0  0  0  0  0
   -6.5402   -0.3223   -4.0403 C   0  0  0  0  0  0  0  0  0  0  0  0
   -6.5665    0.8018   -3.3175 N   0  0  0  0  0  0  0  0  0  0  0  0
   -5.7237    0.7490   -2.2729 C   0  0  0  0  0  0  0  0  0  0  0  0
   -5.5733    2.0716   -1.2112 S   0  0  0  0  0  0  0  0  0  0  0  0
   -6.3582    3.1983    1.6390 H   0  0  0  0  0  0  0  0  0  0  0  0
   -6.3548    1.4142    1.8957 H   0  0  0  0  0  0  0  0  0  0  0  0
   -6.1381    2.5168    3.2757 H   0  0  0  0  0  0  0  0  0  0  0  0
   -3.8671    3.2147    3.8701 H   0  0  0  0  0  0  0  0  0  0  0  0
   -2.0816    2.3695   -1.4593 H   0  0  0  0  0  0  0  0  0  0  0  0
   -0.0725    1.7102   -2.7207 H   0  0  0  0  0  0  0  0  0  0  0  0
    1.8523    0.7225   -1.5894 H   0  0  0  0  0  0  0  0  0  0  0  0
    1.8801    0.1932    2.1307 H   0  0  0  0  0  0  0  0  0  0  0  0
    3.7351   -0.4077    2.6452 H   0  0  0  0  0  0  0  0  0  0  0  0
    5.5146   -1.4260   -0.5051 H   0  0  0  0  0  0  0  0  0  0  0  0
    8.8879   -2.8182    1.7793 H   0  0  0  0  0  0  0  0  0  0  0  0
    7.7342   -2.1647    3.8807 H   0  0  0  0  0  0  0  0  0  0  0  0
   -0.2380    1.0124    2.1805 H   0  0  0  0  0  0  0  0  0  0  0  0
   -3.4411   -0.6830   -0.2874 H   0  0  0  0  0  0  0  0  0  0  0  0
   -4.3182   -3.2999   -3.2700 H   0  0  0  0  0  0  0  0  0  0  0  0
   -3.5227   -2.6438   -1.8523 H   0  0  0  0  0  0  0  0  0  0  0  0
   -7.1973   -0.3531   -4.9041 H   0  0  0  0  0  0  0  0  0  0  0  0
  1  2  1  0
  2  3  1  0
  3  4  2  0
  4  5  1  0
  5  6  1  0
  6  7  2  0
  7  8  1  0
  8  9  2  0
  9 10  1  0
 10 11  1  0
 11 12  1  0
 12 13  2  0
 12 14  1  0
 14 15  1  0
 15 16  2  0
 16 17  1  0
 17 18  1  0
 18 19  1  0
 18 20  1  0
 18 21  1  0
 17 22  2  0
 22 23  1  0
 23 24  2  0
 24 25  1  0
 10 26  2  0
  5 27  2  0
 27 28  1  0
 28 29  2  0
 29 30  1  0
 30 31  2  0
 31 32  1  0
 31 33  1  0
 33 34  2  0
 34 35  1  0
 35 36  2  0
 36 37  1  0
 27  2  1  0
 37 28  1  0
 26  6  1  0
 36 30  1  0
 24 15  1  0
  1 38  1  0
  1 39  1  0
  1 40  1  0
  3 41  1  0
  7 42  1  0
  8 43  1  0
  9 44  1  0
 11 45  1  0
 14 46  1  0
 16 47  1  0
 22 48  1  0
 23 49  1  0
 26 50  1  0
 29 51  1  0
 32 52  1  0
 32 53  1  0
 34 54  1  0
M  END
$$$$
