
     RDKit          3D

 53 56  0  0  0  0  0  0  0  0999 V2000
   10.2014    0.8413    0.1553 N   0  0  0  0  0  0  0  0  0  0  0  0
    9.4177    1.1779   -0.6333 C   0  0  0  0  0  0  0  0  0  0  0  0
    8.4259    1.6505   -1.6142 C   0  0  0  0  0  0  0  0  0  0  0  0
    7.0808    1.6487   -1.0659 N   0  0  0  0  0  0  0  0  0  0  0  0
    6.2377    0.5795   -1.2691 C   0  0  0  0  0  0  0  0  0  0  0  0
    6.5629   -0.4066   -1.9198 O   0  0  0  0  0  0  0  0  0  0  0  0
    4.8984    0.6436   -0.6205 C   0  0  0  0  0  0  0  0  0  0  0  0
    4.2679    1.8566   -0.3288 C   0  0  0  0  0  0  0  0  0  0  0  0
    3.0132    1.8532    0.2762 C   0  0  0  0  0  0  0  0  0  0  0  0
    2.3875    0.6420    0.5850 C   0  0  0  0  0  0  0  0  0  0  0  0
    2.9890   -0.5977    0.2948 C   0  0  0  0  0  0  0  0  0  0  0  0
    2.3004   -1.8651    0.6240 C   0  0  0  0  0  0  0  0  0  0  0  0
    2.9702   -3.0306    0.9336 C   0  0  0  0  0  0  0  0  0  0  0  0
    2.1855   -4.1172    1.2272 C   0  0  0  0  0  0  0  0  0  0  0  0
    0.8425   -4.0862    1.2241 N   0  0  0  0  0  0  0  0  0  0  0  0
    0.2580   -2.9196    0.9110 C   0  0  0  0  0  0  0  0  0  0  0  0
   -1.1330   -2.9379    0.9329 N   0  0  0  0  0  0  0  0  0  0  0  0
   -2.1210   -1.9999    0.6250 C   0  0  0  0  0  0  0  0  0  0  0  0
   -3.4569   -2.3121    0.9018 C   0  0  0  0  0  0  0  0  0  0  0  0
   -4.4951   -1.4063    0.6322 C   0  0  0  0  0  0  0  0  0  0  0  0
   -4.2475   -0.1505    0.0674 C   0  0  0  0  0  0  0  0  0  0  0  0
   -5.2570    0.7647   -0.2074 N   0  0  0  0  0  0  0  0  0  0  0  0
   -6.5804    0.6307    0.4253 C   0  0  0  0  0  0  0  0  0  0  0  0
   -7.3503    1.9578    0.3465 C   0  0  0  0  0  0  0  0  0  0  0  0
   -7.4478    2.4355   -1.0039 O   0  0  0  0  0  0  0  0  0  0  0  0
   -6.1329    2.6636   -1.5335 C   0  0  0  0  0  0  0  0  0  0  0  0
   -5.2920    1.3776   -1.5504 C   0  0  0  0  0  0  0  0  0  0  0  0
   -2.9063    0.1590   -0.1916 C   0  0  0  0  0  0  0  0  0  0  0  0
   -1.8651   -0.7435    0.0808 C   0  0  0  0  0  0  0  0  0  0  0  0
    0.9496   -1.8100    0.6181 N   0  0  0  0  0  0  0  0  0  0  0  0
    4.2527   -0.5685   -0.3227 C   0  0  0  0  0  0  0  0  0  0  0  0
    8.4637    1.0379   -2.5207 H   0  0  0  0  0  0  0  0  0  0  0  0
    8.6476    2.6839   -1.8994 H   0  0  0  0  0  0  0  0  0  0  0  0
    6.8303    2.3832   -0.4190 H   0  0  0  0  0  0  0  0  0  0  0  0
    4.7166    2.8095   -0.5902 H   0  0  0  0  0  0  0  0  0  0  0  0
    2.5103    2.7908    0.5021 H   0  0  0  0  0  0  0  0  0  0  0  0
    1.4056    0.6677    1.0585 H   0  0  0  0  0  0  0  0  0  0  0  0
    4.0484   -3.1024    0.9666 H   0  0  0  0  0  0  0  0  0  0  0  0
    2.6274   -5.0749    1.4861 H   0  0  0  0  0  0  0  0  0  0  0  0
   -1.4420   -3.8557    1.2161 H   0  0  0  0  0  0  0  0  0  0  0  0
   -3.7142   -3.2748    1.3368 H   0  0  0  0  0  0  0  0  0  0  0  0
   -5.5084   -1.7243    0.8581 H   0  0  0  0  0  0  0  0  0  0  0  0
   -6.4873    0.3539    1.4820 H   0  0  0  0  0  0  0  0  0  0  0  0
   -7.1483   -0.1497   -0.0958 H   0  0  0  0  0  0  0  0  0  0  0  0
   -8.3684    1.8181    0.7235 H   0  0  0  0  0  0  0  0  0  0  0  0
   -6.8703    2.7274    0.9631 H   0  0  0  0  0  0  0  0  0  0  0  0
   -6.2483    3.0434   -2.5537 H   0  0  0  0  0  0  0  0  0  0  0  0
   -5.6410    3.4450   -0.9416 H   0  0  0  0  0  0  0  0  0  0  0  0
   -4.2960    1.6279   -1.9284 H   0  0  0  0  0  0  0  0  0  0  0  0
   -5.7428    0.6577   -2.2450 H   0  0  0  0  0  0  0  0  0  0  0  0
   -2.6364    1.1340   -0.5879 H   0  0  0  0  0  0  0  0  0  0  0  0
   -0.8522   -0.4312   -0.1518 H   0  0  0  0  0  0  0  0  0  0  0  0
    4.7497   -1.4981   -0.5969 H   0  0  0  0  0  0  0  0  0  0  0  0
  1  2  3  0
  2  3  1  0
  3  4  1  0
  4  5  1  0
  5  6  2  0
  5  7  1  0
  7  8  2  0
  8  9  1  0
  9 10  2  0
 10 11  1  0
 11 12  1  0
 12 13  2  0
 13 14  1  0
 14 15  2  0
 15 16  1  0
 16 17  1  0
 17 18  1  0
 18 19  2  0
 19 20  1  0
 20 21  2  0
 21 22  1  0
 22 23  1  0
 23 24  1  0
 24 25  1  0
 25 26  1  0
 26 27  1  0
 21 28  1  0
 28 29  2  0
 16 30  2  0
 11 31  2  0
 31  7  1  0
 30 12  1  0
 29 18  1  0
 27 22  1  0
  3 32  1  0
  3 33  1  0
  4 34  1  0
  8 35  1  0
  9 36  1  0
 10 37  1  0
 13 38  1  0
 14 39  1  0
 17 40  1  0
 19 41  1  0
 20 42  1  0
 23 43  1  0
 23 44  1  0
 24 45  1  0
 24 46  1  0
 26 47  1  0
 26 48  1  0
 27 49  1  0
 27 50  1  0
 28 51  1  0
 29 52  1  0
 31 53  1  0
M  END
$$$$
