
     RDKit          3D

 60 63  0  0  0  0  0  0  0  0999 V2000
    2.2460    1.1453   -0.6452 O   0  0  0  0  0  0  0  0  0  0  0  0
    3.2221    0.4245   -0.4666 C   0  0  0  0  0  0  0  0  0  0  0  0
    3.2125   -0.8800   -0.0016 N   0  0  0  0  0  0  0  0  0  0  0  0
    2.0814   -1.6842    0.2604 C   0  0  0  0  0  0  0  0  0  0  0  0
    0.7689   -1.2910   -0.0215 C   0  0  0  0  0  0  0  0  0  0  0  0
   -0.3360   -2.1082    0.2698 C   0  0  0  0  0  0  0  0  0  0  0  0
   -1.6539   -1.7080    0.0073 N   0  0  0  0  0  0  0  0  0  0  0  0
   -1.8753   -0.8247   -1.1355 C   0  0  0  0  0  0  0  0  0  0  0  0
   -3.3450   -0.8256   -1.5317 C   0  0  0  0  0  0  0  0  0  0  0  0
   -4.2670   -0.5555   -0.3392 C   0  0  0  0  0  0  0  0  0  0  0  0
   -4.1078    0.8764    0.1673 N   0  0  0  0  0  0  0  0  0  0  0  0
   -4.9237    1.2269    1.3969 C   0  0  0  0  0  0  0  0  0  0  0  0
   -4.9921    2.7361    1.3423 C   0  0  0  0  0  0  0  0  0  0  0  0
   -5.2470    3.0022   -0.1247 C   0  0  0  0  0  0  0  0  0  0  0  0
   -4.4198    1.9609   -0.8617 C   0  0  0  0  0  0  0  0  0  0  0  0
   -3.9844   -1.5798    0.7629 C   0  0  0  0  0  0  0  0  0  0  0  0
   -2.5200   -1.6033    1.1806 C   0  0  0  0  0  0  0  0  0  0  0  0
   -0.0814   -3.3598    0.8441 C   0  0  0  0  0  0  0  0  0  0  0  0
    1.2265   -3.7930    1.1185 C   0  0  0  0  0  0  0  0  0  0  0  0
    1.4563   -5.1439    1.7480 C   0  0  0  0  0  0  0  0  0  0  0  0
    1.2338   -5.1256    3.0904 F   0  0  0  0  0  0  0  0  0  0  0  0
    2.7261   -5.6049    1.5817 F   0  0  0  0  0  0  0  0  0  0  0  0
    0.6373   -6.1072    1.2440 F   0  0  0  0  0  0  0  0  0  0  0  0
    2.3018   -2.9409    0.8283 C   0  0  0  0  0  0  0  0  0  0  0  0
    4.5758    0.9957   -0.7197 C   0  0  0  0  0  0  0  0  0  0  0  0
    5.6219    0.2187   -1.2317 C   0  0  0  0  0  0  0  0  0  0  0  0
    6.8706    0.7982   -1.4636 C   0  0  0  0  0  0  0  0  0  0  0  0
    7.0775    2.1525   -1.1934 C   0  0  0  0  0  0  0  0  0  0  0  0
    6.0372    2.9477   -0.6896 C   0  0  0  0  0  0  0  0  0  0  0  0
    6.2429    4.4208   -0.4293 C   0  0  0  0  0  0  0  0  0  0  0  0
    5.8282    5.1909   -1.4713 F   0  0  0  0  0  0  0  0  0  0  0  0
    7.5446    4.7510   -0.2084 F   0  0  0  0  0  0  0  0  0  0  0  0
    5.5558    4.8623    0.6610 F   0  0  0  0  0  0  0  0  0  0  0  0
    4.7817    2.3588   -0.4664 C   0  0  0  0  0  0  0  0  0  0  0  0
    4.1094   -1.2938    0.2226 H   0  0  0  0  0  0  0  0  0  0  0  0
    0.5935   -0.3189   -0.4638 H   0  0  0  0  0  0  0  0  0  0  0  0
   -1.5586    0.1974   -0.8963 H   0  0  0  0  0  0  0  0  0  0  0  0
   -1.2905   -1.1595   -2.0018 H   0  0  0  0  0  0  0  0  0  0  0  0
   -3.5971   -1.8112   -1.9461 H   0  0  0  0  0  0  0  0  0  0  0  0
   -3.5078   -0.1078   -2.3424 H   0  0  0  0  0  0  0  0  0  0  0  0
   -5.3133   -0.6432   -0.6561 H   0  0  0  0  0  0  0  0  0  0  0  0
   -3.1226    1.0124    0.4362 H   0  0  0  0  0  0  0  0  0  0  0  0
   -4.4041    0.8537    2.2831 H   0  0  0  0  0  0  0  0  0  0  0  0
   -5.9111    0.7654    1.2898 H   0  0  0  0  0  0  0  0  0  0  0  0
   -5.7787    3.1414    1.9847 H   0  0  0  0  0  0  0  0  0  0  0  0
   -4.0360    3.1758    1.6503 H   0  0  0  0  0  0  0  0  0  0  0  0
   -6.3101    2.8587   -0.3532 H   0  0  0  0  0  0  0  0  0  0  0  0
   -4.9823    4.0223   -0.4183 H   0  0  0  0  0  0  0  0  0  0  0  0
   -3.4587    2.3533   -1.2071 H   0  0  0  0  0  0  0  0  0  0  0  0
   -4.9806    1.5253   -1.6938 H   0  0  0  0  0  0  0  0  0  0  0  0
   -4.6203   -1.4163    1.6393 H   0  0  0  0  0  0  0  0  0  0  0  0
   -4.2526   -2.5746    0.3815 H   0  0  0  0  0  0  0  0  0  0  0  0
   -2.2693   -0.6924    1.7383 H   0  0  0  0  0  0  0  0  0  0  0  0
   -2.3834   -2.4441    1.8707 H   0  0  0  0  0  0  0  0  0  0  0  0
   -0.9115   -4.0328    1.0564 H   0  0  0  0  0  0  0  0  0  0  0  0
    3.3142   -3.2726    1.0548 H   0  0  0  0  0  0  0  0  0  0  0  0
    5.4765   -0.8275   -1.4879 H   0  0  0  0  0  0  0  0  0  0  0  0
    7.6834    0.1980   -1.8688 H   0  0  0  0  0  0  0  0  0  0  0  0
    8.0571    2.5904   -1.3871 H   0  0  0  0  0  0  0  0  0  0  0  0
    3.9592    2.9672   -0.0894 H   0  0  0  0  0  0  0  0  0  0  0  0
  1  2  2  0
  2  3  1  0
  3  4  1  0
  4  5  2  0
  5  6  1  0
  6  7  1  0
  7  8  1  0
  8  9  1  0
  9 10  1  0
 10 11  1  0
 11 12  1  0
 12 13  1  0
 13 14  1  0
 14 15  1  0
 10 16  1  0
 16 17  1  0
  6 18  2  0
 18 19  1  0
 19 20  1  0
 20 21  1  0
 20 22  1  0
 20 23  1  0
 19 24  2  0
  2 25  1  0
 25 26  2  0
 26 27  1  0
 27 28  2  0
 28 29  1  0
 29 30  1  0
 30 31  1  0
 30 32  1  0
 30 33  1  0
 29 34  2  0
 24  4  1  0
 34 25  1  0
 17  7  1  0
 15 11  1  0
  3 35  1  0
  5 36  1  0
  8 37  1  0
  8 38  1  0
  9 39  1  0
  9 40  1  0
 10 41  1  0
 11 42  1  0
 12 43  1  0
 12 44  1  0
 13 45  1  0
 13 46  1  0
 14 47  1  0
 14 48  1  0
 15 49  1  0
 15 50  1  0
 16 51  1  0
 16 52  1  0
 17 53  1  0
 17 54  1  0
 18 55  1  0
 24 56  1  0
 26 57  1  0
 27 58  1  0
 28 59  1  0
 34 60  1  0
M  CHG  1  11   1
M  END
$$$$
