
     RDKit          3D

 60 63  0  0  0  0  0  0  0  0999 V2000
    3.0060   -1.6159    0.9158 O   0  0  0  0  0  0  0  0  0  0  0  0
    3.3037   -0.6342    0.2456 C   0  0  0  0  0  0  0  0  0  0  0  0
    4.5207    0.0220    0.2262 N   0  0  0  0  0  0  0  0  0  0  0  0
    5.7053   -0.3583    0.8937 C   0  0  0  0  0  0  0  0  0  0  0  0
    5.8421   -1.5313    1.6362 C   0  0  0  0  0  0  0  0  0  0  0  0
    7.0522   -1.8367    2.2661 C   0  0  0  0  0  0  0  0  0  0  0  0
    8.1402   -0.9732    2.1565 C   0  0  0  0  0  0  0  0  0  0  0  0
    8.0311    0.2040    1.4065 C   0  0  0  0  0  0  0  0  0  0  0  0
    9.1932    1.1594    1.2965 C   0  0  0  0  0  0  0  0  0  0  0  0
   10.4047    0.5574    1.4453 F   0  0  0  0  0  0  0  0  0  0  0  0
    9.1411    2.1430    2.2358 F   0  0  0  0  0  0  0  0  0  0  0  0
    9.2379    1.7963    0.0924 F   0  0  0  0  0  0  0  0  0  0  0  0
    6.8053    0.5035    0.7843 C   0  0  0  0  0  0  0  0  0  0  0  0
    2.2418   -0.0364   -0.6151 C   0  0  0  0  0  0  0  0  0  0  0  0
    0.9094   -0.1448   -0.1839 C   0  0  0  0  0  0  0  0  0  0  0  0
   -0.1551    0.3713   -0.9342 C   0  0  0  0  0  0  0  0  0  0  0  0
   -1.4862    0.2546   -0.5303 N   0  0  0  0  0  0  0  0  0  0  0  0
   -2.2521    1.4939   -0.4078 C   0  0  0  0  0  0  0  0  0  0  0  0
   -3.7337    1.1938   -0.6135 C   0  0  0  0  0  0  0  0  0  0  0  0
   -4.1979    0.0808    0.3312 C   0  0  0  0  0  0  0  0  0  0  0  0
   -5.6576   -0.2715    0.0381 N   0  0  0  0  0  0  0  0  0  0  0  0
   -6.2640   -1.3303    0.9543 C   0  0  0  0  0  0  0  0  0  0  0  0
   -7.6495   -0.8173    1.3131 C   0  0  0  0  0  0  0  0  0  0  0  0
   -7.9668    0.2174    0.2559 C   0  0  0  0  0  0  0  0  0  0  0  0
   -6.6301    0.8910    0.0423 C   0  0  0  0  0  0  0  0  0  0  0  0
   -3.3379   -1.1734    0.1483 C   0  0  0  0  0  0  0  0  0  0  0  0
   -1.8613   -0.8503    0.3494 C   0  0  0  0  0  0  0  0  0  0  0  0
    0.1642    1.0011   -2.1471 C   0  0  0  0  0  0  0  0  0  0  0  0
    1.4897    1.1165   -2.6075 C   0  0  0  0  0  0  0  0  0  0  0  0
    1.7726    1.7594   -3.9436 C   0  0  0  0  0  0  0  0  0  0  0  0
    0.9105    2.7732   -4.2322 F   0  0  0  0  0  0  0  0  0  0  0  0
    1.6761    0.8761   -4.9720 F   0  0  0  0  0  0  0  0  0  0  0  0
    3.0207    2.2968   -4.0167 F   0  0  0  0  0  0  0  0  0  0  0  0
    2.5290    0.5799   -1.8357 C   0  0  0  0  0  0  0  0  0  0  0  0
    4.5737    0.8928   -0.2852 H   0  0  0  0  0  0  0  0  0  0  0  0
    5.0254   -2.2382    1.7448 H   0  0  0  0  0  0  0  0  0  0  0  0
    7.1417   -2.7543    2.8437 H   0  0  0  0  0  0  0  0  0  0  0  0
    9.0749   -1.2249    2.6563 H   0  0  0  0  0  0  0  0  0  0  0  0
    6.7249    1.4259    0.2110 H   0  0  0  0  0  0  0  0  0  0  0  0
    0.7245   -0.6346    0.7700 H   0  0  0  0  0  0  0  0  0  0  0  0
   -1.9539    2.2522   -1.1403 H   0  0  0  0  0  0  0  0  0  0  0  0
   -2.0876    1.9284    0.5864 H   0  0  0  0  0  0  0  0  0  0  0  0
   -3.9039    0.8953   -1.6562 H   0  0  0  0  0  0  0  0  0  0  0  0
   -4.3003    2.1159   -0.4438 H   0  0  0  0  0  0  0  0  0  0  0  0
   -4.1644    0.4262    1.3720 H   0  0  0  0  0  0  0  0  0  0  0  0
   -5.6845   -0.6621   -0.9153 H   0  0  0  0  0  0  0  0  0  0  0  0
   -5.6393   -1.4448    1.8450 H   0  0  0  0  0  0  0  0  0  0  0  0
   -6.2953   -2.2622    0.3819 H   0  0  0  0  0  0  0  0  0  0  0  0
   -8.3905   -1.6213    1.3492 H   0  0  0  0  0  0  0  0  0  0  0  0
   -7.6244   -0.3467    2.3036 H   0  0  0  0  0  0  0  0  0  0  0  0
   -8.7412    0.9199    0.5761 H   0  0  0  0  0  0  0  0  0  0  0  0
   -8.3041   -0.2695   -0.6668 H   0  0  0  0  0  0  0  0  0  0  0  0
   -6.3641    1.5496    0.8759 H   0  0  0  0  0  0  0  0  0  0  0  0
   -6.5603    1.4128   -0.9157 H   0  0  0  0  0  0  0  0  0  0  0  0
   -3.6234   -1.9597    0.8552 H   0  0  0  0  0  0  0  0  0  0  0  0
   -3.4854   -1.5817   -0.8604 H   0  0  0  0  0  0  0  0  0  0  0  0
   -1.6685   -0.5845    1.3962 H   0  0  0  0  0  0  0  0  0  0  0  0
   -1.2900   -1.7578    0.1175 H   0  0  0  0  0  0  0  0  0  0  0  0
   -0.6376    1.3809   -2.7800 H   0  0  0  0  0  0  0  0  0  0  0  0
    3.5487    0.6192   -2.2148 H   0  0  0  0  0  0  0  0  0  0  0  0
  1  2  2  0
  2  3  1  0
  3  4  1  0
  4  5  2  0
  5  6  1  0
  6  7  2  0
  7  8  1  0
  8  9  1  0
  9 10  1  0
  9 11  1  0
  9 12  1  0
  8 13  2  0
  2 14  1  0
 14 15  2  0
 15 16  1  0
 16 17  1  0
 17 18  1  0
 18 19  1  0
 19 20  1  0
 20 21  1  0
 21 22  1  0
 22 23  1  0
 23 24  1  0
 24 25  1  0
 20 26  1  0
 26 27  1  0
 16 28  2  0
 28 29  1  0
 29 30  1  0
 30 31  1  0
 30 32  1  0
 30 33  1  0
 29 34  2  0
 13  4  1  0
 34 14  1  0
 27 17  1  0
 25 21  1  0
  3 35  1  0
  5 36  1  0
  6 37  1  0
  7 38  1  0
 13 39  1  0
 15 40  1  0
 18 41  1  0
 18 42  1  0
 19 43  1  0
 19 44  1  0
 20 45  1  0
 21 46  1  0
 22 47  1  0
 22 48  1  0
 23 49  1  0
 23 50  1  0
 24 51  1  0
 24 52  1  0
 25 53  1  0
 25 54  1  0
 26 55  1  0
 26 56  1  0
 27 57  1  0
 27 58  1  0
 28 59  1  0
 34 60  1  0
M  CHG  1  21   1
M  END
$$$$
