
     RDKit          3D

 54 58  0  0  0  0  0  0  0  0999 V2000
   -2.9366   -0.1588    0.2116 O   0  0  0  0  0  0  0  0  0  0  0  0
   -3.2607    0.6486   -0.6493 C   0  0  0  0  0  0  0  0  0  0  0  0
   -2.4452    1.0669   -1.6920 N   0  0  0  0  0  0  0  0  0  0  0  0
   -1.0792    0.7687   -1.8873 C   0  0  0  0  0  0  0  0  0  0  0  0
   -0.5051    1.1667   -3.0999 C   0  0  0  0  0  0  0  0  0  0  0  0
    0.8409    0.9140   -3.3635 C   0  0  0  0  0  0  0  0  0  0  0  0
    1.6249    0.2587   -2.4150 C   0  0  0  0  0  0  0  0  0  0  0  0
    1.0768   -0.1527   -1.1918 C   0  0  0  0  0  0  0  0  0  0  0  0
    1.9405   -0.8299   -0.1911 C   0  0  0  0  0  0  0  0  0  0  0  0
    1.4413   -1.8264    0.5702 C   0  0  0  0  0  0  0  0  0  0  0  0
    2.2792   -2.4336    1.4778 N   0  0  0  0  0  0  0  0  0  0  0  0
    2.0898   -3.4453    2.3785 C   0  0  0  0  0  0  0  0  0  0  0  0
    3.3115   -3.6065    2.9992 C   0  0  0  0  0  0  0  0  0  0  0  0
    4.2445   -2.7250    2.5037 N   0  0  0  0  0  0  0  0  0  0  0  0
    3.5812   -2.0389    1.5945 C   0  0  0  0  0  0  0  0  0  0  0  0
    4.0879   -0.9682    0.7489 C   0  0  0  0  0  0  0  0  0  0  0  0
    5.4128   -0.6062    0.8908 N   0  0  0  0  0  0  0  0  0  0  0  0
    6.1558    0.3898    0.2461 C   0  0  0  0  0  0  0  0  0  0  0  0
    7.5307    0.4791    0.5042 C   0  0  0  0  0  0  0  0  0  0  0  0
    8.3164    1.4443   -0.1253 C   0  0  0  0  0  0  0  0  0  0  0  0
    7.7044    2.3086   -1.0129 C   0  0  0  0  0  0  0  0  0  0  0  0
    6.3896    2.2676   -1.3008 N   0  0  0  0  0  0  0  0  0  0  0  0
    5.6524    1.3146   -0.6677 C   0  0  0  0  0  0  0  0  0  0  0  0
    3.2655   -0.4107   -0.1080 N   0  0  0  0  0  0  0  0  0  0  0  0
   -0.2787    0.1264   -0.9372 C   0  0  0  0  0  0  0  0  0  0  0  0
   -4.4984    1.2722   -0.7269 N   0  0  0  0  0  0  0  0  0  0  0  0
   -5.6340    1.0410    0.0773 C   0  0  0  0  0  0  0  0  0  0  0  0
   -6.7427    1.8709   -0.1315 C   0  0  0  0  0  0  0  0  0  0  0  0
   -7.9079    1.7100    0.6207 C   0  0  0  0  0  0  0  0  0  0  0  0
   -7.9795    0.7113    1.5888 C   0  0  0  0  0  0  0  0  0  0  0  0
   -6.8876   -0.1399    1.8068 C   0  0  0  0  0  0  0  0  0  0  0  0
   -6.9425   -1.2180    2.8609 C   0  0  0  0  0  0  0  0  0  0  0  0
   -8.2123   -1.5118    3.2623 F   0  0  0  0  0  0  0  0  0  0  0  0
   -6.4073   -2.3990    2.4443 F   0  0  0  0  0  0  0  0  0  0  0  0
   -6.2670   -0.8755    3.9922 F   0  0  0  0  0  0  0  0  0  0  0  0
   -5.7166    0.0385    1.0463 C   0  0  0  0  0  0  0  0  0  0  0  0
   -2.8937    1.5743   -2.4382 H   0  0  0  0  0  0  0  0  0  0  0  0
   -1.0936    1.6768   -3.8575 H   0  0  0  0  0  0  0  0  0  0  0  0
    1.2832    1.2284   -4.3053 H   0  0  0  0  0  0  0  0  0  0  0  0
    2.6749    0.0714   -2.6337 H   0  0  0  0  0  0  0  0  0  0  0  0
    0.4238   -2.1916    0.5164 H   0  0  0  0  0  0  0  0  0  0  0  0
    1.1394   -3.9448    2.4995 H   0  0  0  0  0  0  0  0  0  0  0  0
    3.5667   -4.3138    3.7787 H   0  0  0  0  0  0  0  0  0  0  0  0
    5.9122   -1.1524    1.5858 H   0  0  0  0  0  0  0  0  0  0  0  0
    8.0065   -0.2075    1.1999 H   0  0  0  0  0  0  0  0  0  0  0  0
    9.3797    1.5158    0.0729 H   0  0  0  0  0  0  0  0  0  0  0  0
    8.2699    3.0778   -1.5302 H   0  0  0  0  0  0  0  0  0  0  0  0
    4.6021    1.3424   -0.9371 H   0  0  0  0  0  0  0  0  0  0  0  0
   -0.6914   -0.1424    0.0297 H   0  0  0  0  0  0  0  0  0  0  0  0
   -4.5765    2.0246   -1.3929 H   0  0  0  0  0  0  0  0  0  0  0  0
   -6.7155    2.6600   -0.8787 H   0  0  0  0  0  0  0  0  0  0  0  0
   -8.7589    2.3658    0.4523 H   0  0  0  0  0  0  0  0  0  0  0  0
   -8.8917    0.5967    2.1728 H   0  0  0  0  0  0  0  0  0  0  0  0
   -4.8820   -0.6328    1.2335 H   0  0  0  0  0  0  0  0  0  0  0  0
  1  2  2  0
  2  3  1  0
  3  4  1  0
  4  5  2  0
  5  6  1  0
  6  7  2  0
  7  8  1  0
  8  9  1  0
  9 10  2  0
 10 11  1  0
 11 12  1  0
 12 13  2  0
 13 14  1  0
 14 15  2  0
 15 16  1  0
 16 17  1  0
 17 18  1  0
 18 19  2  0
 19 20  1  0
 20 21  2  0
 21 22  1  0
 22 23  2  0
 16 24  2  0
  8 25  2  0
  2 26  1  0
 26 27  1  0
 27 28  2  0
 28 29  1  0
 29 30  2  0
 30 31  1  0
 31 32  1  0
 32 33  1  0
 32 34  1  0
 32 35  1  0
 31 36  2  0
 25  4  1  0
 36 27  1  0
 24  9  1  0
 15 11  1  0
 23 18  1  0
  3 37  1  0
  5 38  1  0
  6 39  1  0
  7 40  1  0
 10 41  1  0
 12 42  1  0
 13 43  1  0
 17 44  1  0
 19 45  1  0
 20 46  1  0
 21 47  1  0
 23 48  1  0
 25 49  1  0
 26 50  1  0
 28 51  1  0
 29 52  1  0
 30 53  1  0
 36 54  1  0
M  END
$$$$
