LIB_ZNDXPRCORYDEAP__M_PUB_ALL__e8__s20260927
     RDKit          3D

 57 61  0  0  0  0  0  0  0  0999 V2000
    4.0210  -13.2230   -6.3960 O   0  0  0  0  0  0  0  0  0  0  0  0
    5.0500  -12.8450   -5.8510 C   0  0  0  0  0  0  0  0  0  0  0  0
    5.1010  -12.0480   -4.7160 N   0  0  0  0  0  0  0  0  0  0  0  0
    4.0200  -11.6370   -3.9050 C   0  0  0  0  0  0  0  0  0  0  0  0
    3.3240  -10.4900   -4.3010 C   0  0  0  0  0  0  0  0  0  0  0  0
    2.2490  -10.0170   -3.5490 C   0  0  0  0  0  0  0  0  0  0  0  0
    1.8590  -10.6920   -2.3920 C   0  0  0  0  0  0  0  0  0  0  0  0
    2.5360  -11.8460   -1.9740 C   0  0  0  0  0  0  0  0  0  0  0  0
    2.1080  -12.5350   -0.7290 C   0  0  0  0  0  0  0  0  0  0  0  0
    2.7200  -13.6780   -0.3480 C   0  0  0  0  0  0  0  0  0  0  0  0
    2.2900  -14.2970    0.8050 N   0  0  0  0  0  0  0  0  0  0  0  0
    2.6930  -15.4350    1.4480 C   0  0  0  0  0  0  0  0  0  0  0  0
    1.8750  -15.5300    2.5540 C   0  0  0  0  0  0  0  0  0  0  0  0
    0.9810  -14.4850    2.6070 N   0  0  0  0  0  0  0  0  0  0  0  0
    1.2660  -13.7690    1.5380 C   0  0  0  0  0  0  0  0  0  0  0  0
    0.6290  -12.5440    1.0870 C   0  0  0  0  0  0  0  0  0  0  0  0
   -0.4040  -11.9940    1.8030 N   0  0  0  0  0  0  0  0  0  0  0  0
   -1.0760  -10.7760    1.4460 C   0  0  0  0  0  0  0  0  0  0  0  0
   -2.4230  -11.0980    0.8520 C   0  0  0  0  0  0  0  0  0  0  0  0
   -2.9740  -10.2920   -0.1490 C   0  0  0  0  0  0  0  0  0  0  0  0
   -4.2040  -10.6440   -0.6820 C   0  0  0  0  0  0  0  0  0  0  0  0
   -4.9070  -11.7300   -0.2960 N   0  0  0  0  0  0  0  0  0  0  0  0
   -4.3510  -12.5040    0.6580 C   0  0  0  0  0  0  0  0  0  0  0  0
   -3.1270  -12.2370    1.2530 C   0  0  0  0  0  0  0  0  0  0  0  0
    1.0530  -11.9700   -0.0170 N   0  0  0  0  0  0  0  0  0  0  0  0
    3.6290  -12.2970   -2.7360 C   0  0  0  0  0  0  0  0  0  0  0  0
    6.3320  -13.1480   -6.2870 N   0  0  0  0  0  0  0  0  0  0  0  0
    6.7050  -13.8440   -7.4550 C   0  0  0  0  0  0  0  0  0  0  0  0
    7.0630  -15.1910   -7.3060 C   0  0  0  0  0  0  0  0  0  0  0  0
    7.4500  -15.9500   -8.4130 C   0  0  0  0  0  0  0  0  0  0  0  0
    7.4820  -15.3620   -9.6720 C   0  0  0  0  0  0  0  0  0  0  0  0
    7.8560  -16.1070  -10.7200 F   0  0  0  0  0  0  0  0  0  0  0  0
    7.1390  -14.0260   -9.8500 C   0  0  0  0  0  0  0  0  0  0  0  0
    7.1940  -13.4380  -11.2280 C   0  0  0  0  0  0  0  0  0  0  0  0
    6.3240  -14.0210  -12.1010 F   0  0  0  0  0  0  0  0  0  0  0  0
    8.4220  -13.5540  -11.8040 F   0  0  0  0  0  0  0  0  0  0  0  0
    6.8900  -12.1100  -11.2470 F   0  0  0  0  0  0  0  0  0  0  0  0
    6.7500  -13.2690   -8.7300 C   0  0  0  0  0  0  0  0  0  0  0  0
    5.9970  -11.6500   -4.4850 H   0  0  0  0  0  0  0  0  0  0  0  0
    3.6274   -9.9563   -5.2138 H   0  0  0  0  0  0  0  0  0  0  0  0
    1.7093   -9.1130   -3.8676 H   0  0  0  0  0  0  0  0  0  0  0  0
    1.0112  -10.3146   -1.8015 H   0  0  0  0  0  0  0  0  0  0  0  0
    3.5410  -14.1035   -0.9437 H   0  0  0  0  0  0  0  0  0  0  0  0
    3.4956  -16.1248    1.1479 H   0  0  0  0  0  0  0  0  0  0  0  0
    1.9300  -16.3377    3.2987 H   0  0  0  0  0  0  0  0  0  0  0  0
   -0.6840  -12.4810    2.6490 H   0  0  0  0  0  0  0  0  0  0  0  0
   -1.2107  -10.1553    2.3441 H   0  0  0  0  0  0  0  0  0  0  0  0
   -0.4722  -10.2283    0.7074 H   0  0  0  0  0  0  0  0  0  0  0  0
   -2.4425   -9.3975   -0.5059 H   0  0  0  0  0  0  0  0  0  0  0  0
   -4.6323  -10.0011   -1.4651 H   0  0  0  0  0  0  0  0  0  0  0  0
   -4.9005  -13.3997    0.9834 H   0  0  0  0  0  0  0  0  0  0  0  0
   -2.7190  -12.9072    2.0239 H   0  0  0  0  0  0  0  0  0  0  0  0
    4.1867  -13.1858   -2.4059 H   0  0  0  0  0  0  0  0  0  0  0  0
    7.0840  -12.8970   -5.6620 H   0  0  0  0  0  0  0  0  0  0  0  0
    7.0390  -15.6544   -6.3087 H   0  0  0  0  0  0  0  0  0  0  0  0
    7.7279  -17.0071   -8.2890 H   0  0  0  0  0  0  0  0  0  0  0  0
    6.4776  -12.2110   -8.8581 H   0  0  0  0  0  0  0  0  0  0  0  0
  1  2  2  0
  2  3  1  0
  3  4  1  0
  4  5  2  0
  5  6  1  0
  6  7  2  0
  7  8  1  0
  8  9  1  0
  9 10  2  0
 10 11  1  0
 11 12  1  0
 12 13  2  0
 13 14  1  0
 14 15  2  0
 15 16  1  0
 16 17  1  0
 17 18  1  0
 18 19  1  0
 19 20  2  0
 20 21  1  0
 21 22  2  0
 22 23  1  0
 23 24  2  0
 16 25  2  0
  8 26  2  0
  2 27  1  0
 27 28  1  0
 28 29  2  0
 29 30  1  0
 30 31  2  0
 31 32  1  0
 31 33  1  0
 33 34  1  0
 34 35  1  0
 34 36  1  0
 34 37  1  0
 33 38  2  0
 26  4  1  0
 38 28  1  0
 25  9  1  0
 15 11  1  0
 24 19  1  0
  3 39  1  0
  5 40  1  0
  6 41  1  0
  7 42  1  0
 10 43  1  0
 12 44  1  0
 13 45  1  0
 17 46  1  0
 18 47  1  0
 18 48  1  0
 20 49  1  0
 21 50  1  0
 23 51  1  0
 24 52  1  0
 26 53  1  0
 27 54  1  0
 29 55  1  0
 30 56  1  0
 38 57  1  0
M  END
>  <meeko>  (1) 
{"is_sidechain": [false], "free_energy": -10.049, "intermolecular_energy": -13.574, "internal_energy": -1.273}

$$$$
LIB_ZNDXPRCORYDEAP__M_PUB_ALL__e8__s20260927
     RDKit          3D

 57 61  0  0  0  0  0  0  0  0999 V2000
    6.9030  -10.7720   -1.9290 O   0  0  0  0  0  0  0  0  0  0  0  0
    6.7200  -11.9780   -2.0300 C   0  0  0  0  0  0  0  0  0  0  0  0
    5.4770  -12.5920   -2.0620 N   0  0  0  0  0  0  0  0  0  0  0  0
    4.2110  -11.9690   -2.1210 C   0  0  0  0  0  0  0  0  0  0  0  0
    3.8640  -11.3380   -3.3210 C   0  0  0  0  0  0  0  0  0  0  0  0
    2.6330  -10.6960   -3.4540 C   0  0  0  0  0  0  0  0  0  0  0  0
    1.7370  -10.6800   -2.3870 C   0  0  0  0  0  0  0  0  0  0  0  0
    2.0570  -11.3060   -1.1740 C   0  0  0  0  0  0  0  0  0  0  0  0
    1.0890  -11.2590   -0.0480 C   0  0  0  0  0  0  0  0  0  0  0  0
    0.3220  -10.1630    0.1360 C   0  0  0  0  0  0  0  0  0  0  0  0
   -0.5560  -10.1490    1.1970 N   0  0  0  0  0  0  0  0  0  0  0  0
   -1.4520   -9.2160    1.6430 C   0  0  0  0  0  0  0  0  0  0  0  0
   -2.0370   -9.7860    2.7540 C   0  0  0  0  0  0  0  0  0  0  0  0
   -1.5260  -11.0380    3.0040 N   0  0  0  0  0  0  0  0  0  0  0  0
   -0.6400  -11.2170    2.0450 C   0  0  0  0  0  0  0  0  0  0  0  0
    0.2110  -12.3710    1.8170 C   0  0  0  0  0  0  0  0  0  0  0  0
    0.1480  -13.4550    2.6560 N   0  0  0  0  0  0  0  0  0  0  0  0
    0.9330  -14.6470    2.4940 C   0  0  0  0  0  0  0  0  0  0  0  0
    1.0200  -15.3760    3.8100 C   0  0  0  0  0  0  0  0  0  0  0  0
    0.6550  -14.7440    5.0030 C   0  0  0  0  0  0  0  0  0  0  0  0
    0.7280  -15.4650    6.1850 C   0  0  0  0  0  0  0  0  0  0  0  0
    1.1280  -16.7530    6.2570 N   0  0  0  0  0  0  0  0  0  0  0  0
    1.4600  -17.3490    5.0930 C   0  0  0  0  0  0  0  0  0  0  0  0
    1.4210  -16.7150    3.8610 C   0  0  0  0  0  0  0  0  0  0  0  0
    1.0430  -12.3630    0.8000 N   0  0  0  0  0  0  0  0  0  0  0  0
    3.3100  -11.9340   -1.0520 C   0  0  0  0  0  0  0  0  0  0  0  0
    7.7300  -12.9250   -2.1230 N   0  0  0  0  0  0  0  0  0  0  0  0
    9.1220  -12.7160   -2.0250 C   0  0  0  0  0  0  0  0  0  0  0  0
    9.8390  -12.6380   -3.2270 C   0  0  0  0  0  0  0  0  0  0  0  0
   11.2210  -12.4360   -3.2170 C   0  0  0  0  0  0  0  0  0  0  0  0
   11.8900  -12.3170   -2.0050 C   0  0  0  0  0  0  0  0  0  0  0  0
   13.2150  -12.1250   -2.0170 F   0  0  0  0  0  0  0  0  0  0  0  0
   11.2060  -12.3970   -0.7960 C   0  0  0  0  0  0  0  0  0  0  0  0
   11.9740  -12.2660    0.4850 C   0  0  0  0  0  0  0  0  0  0  0  0
   12.6620  -11.0930    0.5860 F   0  0  0  0  0  0  0  0  0  0  0  0
   12.9010  -13.2490    0.6480 F   0  0  0  0  0  0  0  0  0  0  0  0
   11.1730  -12.3120    1.5860 F   0  0  0  0  0  0  0  0  0  0  0  0
    9.8140  -12.5990   -0.8150 C   0  0  0  0  0  0  0  0  0  0  0  0
    5.4660  -13.5940   -1.9530 H   0  0  0  0  0  0  0  0  0  0  0  0
    4.5679  -11.3485   -4.1662 H   0  0  0  0  0  0  0  0  0  0  0  0
    2.3695  -10.2024   -4.4011 H   0  0  0  0  0  0  0  0  0  0  0  0
    0.7683  -10.1708   -2.4976 H   0  0  0  0  0  0  0  0  0  0  0  0
    0.3966   -9.3023   -0.5449 H   0  0  0  0  0  0  0  0  0  0  0  0
   -1.6603   -8.2267    1.2096 H   0  0  0  0  0  0  0  0  0  0  0  0
   -2.8139   -9.3008    3.3631 H   0  0  0  0  0  0  0  0  0  0  0  0
   -0.5170  -13.4040    3.4210 H   0  0  0  0  0  0  0  0  0  0  0  0
    0.4594  -15.2986    1.7449 H   0  0  0  0  0  0  0  0  0  0  0  0
    1.9448  -14.3760    2.1582 H   0  0  0  0  0  0  0  0  0  0  0  0
    0.3172  -13.6972    5.0035 H   0  0  0  0  0  0  0  0  0  0  0  0
    0.4434  -14.9583    7.1189 H   0  0  0  0  0  0  0  0  0  0  0  0
    1.7808  -18.4008    5.1235 H   0  0  0  0  0  0  0  0  0  0  0  0
    1.6995  -17.2534    2.9431 H   0  0  0  0  0  0  0  0  0  0  0  0
    3.5862  -12.4064   -0.0978 H   0  0  0  0  0  0  0  0  0  0  0  0
    7.4390  -13.8630   -2.3510 H   0  0  0  0  0  0  0  0  0  0  0  0
    9.3090  -12.7367   -4.1858 H   0  0  0  0  0  0  0  0  0  0  0  0
   11.7770  -12.3714   -4.1639 H   0  0  0  0  0  0  0  0  0  0  0  0
    9.2623  -12.6658    0.1343 H   0  0  0  0  0  0  0  0  0  0  0  0
  1  2  2  0
  2  3  1  0
  3  4  1  0
  4  5  2  0
  5  6  1  0
  6  7  2  0
  7  8  1  0
  8  9  1  0
  9 10  2  0
 10 11  1  0
 11 12  1  0
 12 13  2  0
 13 14  1  0
 14 15  2  0
 15 16  1  0
 16 17  1  0
 17 18  1  0
 18 19  1  0
 19 20  2  0
 20 21  1  0
 21 22  2  0
 22 23  1  0
 23 24  2  0
 16 25  2  0
  8 26  2  0
  2 27  1  0
 27 28  1  0
 28 29  2  0
 29 30  1  0
 30 31  2  0
 31 32  1  0
 31 33  1  0
 33 34  1  0
 34 35  1  0
 34 36  1  0
 34 37  1  0
 33 38  2  0
 26  4  1  0
 38 28  1  0
 25  9  1  0
 15 11  1  0
 24 19  1  0
  3 39  1  0
  5 40  1  0
  6 41  1  0
  7 42  1  0
 10 43  1  0
 12 44  1  0
 13 45  1  0
 17 46  1  0
 18 47  1  0
 18 48  1  0
 20 49  1  0
 21 50  1  0
 23 51  1  0
 24 52  1  0
 26 53  1  0
 27 54  1  0
 29 55  1  0
 30 56  1  0
 38 57  1  0
M  END
>  <meeko>  (2) 
{"is_sidechain": [false], "free_energy": -9.539, "intermolecular_energy": -13.042, "internal_energy": -1.116}

$$$$
LIB_ZNDXPRCORYDEAP__M_PUB_ALL__e8__s20260927
     RDKit          3D

 57 61  0  0  0  0  0  0  0  0999 V2000
    6.9930  -10.8100   -1.4030 O   0  0  0  0  0  0  0  0  0  0  0  0
    6.8740  -11.9930   -1.6960 C   0  0  0  0  0  0  0  0  0  0  0  0
    5.6690  -12.6250   -1.9670 N   0  0  0  0  0  0  0  0  0  0  0  0
    4.3940  -12.0310   -2.0900 C   0  0  0  0  0  0  0  0  0  0  0  0
    4.0900  -11.4170   -3.3110 C   0  0  0  0  0  0  0  0  0  0  0  0
    2.8540  -10.8030   -3.5080 C   0  0  0  0  0  0  0  0  0  0  0  0
    1.9080  -10.7990   -2.4830 C   0  0  0  0  0  0  0  0  0  0  0  0
    2.1840  -11.4080   -1.2510 C   0  0  0  0  0  0  0  0  0  0  0  0
    1.1630  -11.3750   -0.1730 C   0  0  0  0  0  0  0  0  0  0  0  0
    0.3130  -10.3290   -0.0830 C   0  0  0  0  0  0  0  0  0  0  0  0
   -0.6130  -10.3250    0.9370 N   0  0  0  0  0  0  0  0  0  0  0  0
   -1.5930   -9.4390    1.2930 C   0  0  0  0  0  0  0  0  0  0  0  0
   -2.1880   -9.9920    2.4060 C   0  0  0  0  0  0  0  0  0  0  0  0
   -1.6030  -11.1890    2.7460 N   0  0  0  0  0  0  0  0  0  0  0  0
   -0.6620  -11.3520    1.8370 C   0  0  0  0  0  0  0  0  0  0  0  0
    0.2780  -12.4510    1.7100 C   0  0  0  0  0  0  0  0  0  0  0  0
    0.2520  -13.4930    2.6020 N   0  0  0  0  0  0  0  0  0  0  0  0
    1.1260  -14.6310    2.5400 C   0  0  0  0  0  0  0  0  0  0  0  0
    1.1290  -15.3380    3.8710 C   0  0  0  0  0  0  0  0  0  0  0  0
    0.7410  -14.6700    5.0370 C   0  0  0  0  0  0  0  0  0  0  0  0
    0.7350  -15.3710    6.2320 C   0  0  0  0  0  0  0  0  0  0  0  0
    1.0790  -16.6720    6.3430 N   0  0  0  0  0  0  0  0  0  0  0  0
    1.4340  -17.3030    5.2040 C   0  0  0  0  0  0  0  0  0  0  0  0
    1.4710  -16.6910    3.9610 C   0  0  0  0  0  0  0  0  0  0  0  0
    1.1540  -12.4350    0.7310 N   0  0  0  0  0  0  0  0  0  0  0  0
    3.4430  -12.0080   -1.0660 C   0  0  0  0  0  0  0  0  0  0  0  0
    7.9260  -12.8920   -1.7990 N   0  0  0  0  0  0  0  0  0  0  0  0
    9.2860  -12.6660   -1.5030 C   0  0  0  0  0  0  0  0  0  0  0  0
    9.6190  -12.4610   -0.1570 C   0  0  0  0  0  0  0  0  0  0  0  0
   10.9440  -12.2270    0.2190 C   0  0  0  0  0  0  0  0  0  0  0  0
   11.9380  -12.1920   -0.7510 C   0  0  0  0  0  0  0  0  0  0  0  0
   13.2020  -11.9650   -0.3700 F   0  0  0  0  0  0  0  0  0  0  0  0
   11.6370  -12.3850   -2.0950 C   0  0  0  0  0  0  0  0  0  0  0  0
   12.7450  -12.3340   -3.1040 C   0  0  0  0  0  0  0  0  0  0  0  0
   13.6910  -13.2980   -2.9180 F   0  0  0  0  0  0  0  0  0  0  0  0
   13.4200  -11.1520   -3.0890 F   0  0  0  0  0  0  0  0  0  0  0  0
   12.3030  -12.5030   -4.3820 F   0  0  0  0  0  0  0  0  0  0  0  0
   10.3010  -12.6210   -2.4650 C   0  0  0  0  0  0  0  0  0  0  0  0
    5.6870  -13.6320   -2.0030 H   0  0  0  0  0  0  0  0  0  0  0  0
    4.8330  -11.4191   -4.1221 H   0  0  0  0  0  0  0  0  0  0  0  0
    2.6251  -10.3223   -4.4706 H   0  0  0  0  0  0  0  0  0  0  0  0
    0.9345  -10.3125   -2.6432 H   0  0  0  0  0  0  0  0  0  0  0  0
    0.3591   -9.5012   -0.8060 H   0  0  0  0  0  0  0  0  0  0  0  0
   -1.8501   -8.4909    0.7980 H   0  0  0  0  0  0  0  0  0  0  0  0
   -3.0250   -9.5339    2.9533 H   0  0  0  0  0  0  0  0  0  0  0  0
   -0.4510  -13.4510    3.3340 H   0  0  0  0  0  0  0  0  0  0  0  0
    0.7737  -15.3213    1.7594 H   0  0  0  0  0  0  0  0  0  0  0  0
    2.1462  -14.2960    2.3015 H   0  0  0  0  0  0  0  0  0  0  0  0
    0.4468  -13.6105    5.0059 H   0  0  0  0  0  0  0  0  0  0  0  0
    0.4321  -14.8361    7.1442 H   0  0  0  0  0  0  0  0  0  0  0  0
    1.7103  -18.3659    5.2659 H   0  0  0  0  0  0  0  0  0  0  0  0
    1.7631  -17.2574    3.0644 H   0  0  0  0  0  0  0  0  0  0  0  0
    3.6837  -12.4681   -0.0963 H   0  0  0  0  0  0  0  0  0  0  0  0
    7.7020  -13.7930   -2.1920 H   0  0  0  0  0  0  0  0  0  0  0  0
    8.8305  -12.4846    0.6096 H   0  0  0  0  0  0  0  0  0  0  0  0
   11.1990  -12.0713    1.2777 H   0  0  0  0  0  0  0  0  0  0  0  0
   10.0505  -12.7723   -3.5253 H   0  0  0  0  0  0  0  0  0  0  0  0
  1  2  2  0
  2  3  1  0
  3  4  1  0
  4  5  2  0
  5  6  1  0
  6  7  2  0
  7  8  1  0
  8  9  1  0
  9 10  2  0
 10 11  1  0
 11 12  1  0
 12 13  2  0
 13 14  1  0
 14 15  2  0
 15 16  1  0
 16 17  1  0
 17 18  1  0
 18 19  1  0
 19 20  2  0
 20 21  1  0
 21 22  2  0
 22 23  1  0
 23 24  2  0
 16 25  2  0
  8 26  2  0
  2 27  1  0
 27 28  1  0
 28 29  2  0
 29 30  1  0
 30 31  2  0
 31 32  1  0
 31 33  1  0
 33 34  1  0
 34 35  1  0
 34 36  1  0
 34 37  1  0
 33 38  2  0
 26  4  1  0
 38 28  1  0
 25  9  1  0
 15 11  1  0
 24 19  1  0
  3 39  1  0
  5 40  1  0
  6 41  1  0
  7 42  1  0
 10 43  1  0
 12 44  1  0
 13 45  1  0
 17 46  1  0
 18 47  1  0
 18 48  1  0
 20 49  1  0
 21 50  1  0
 23 51  1  0
 24 52  1  0
 26 53  1  0
 27 54  1  0
 29 55  1  0
 30 56  1  0
 38 57  1  0
M  END
>  <meeko>  (3) 
{"is_sidechain": [false], "free_energy": -9.292, "intermolecular_energy": -12.741, "internal_energy": -1.083}

$$$$
LIB_ZNDXPRCORYDEAP__M_PUB_ALL__e8__s20260927
     RDKit          3D

 57 61  0  0  0  0  0  0  0  0999 V2000
    7.0870  -10.8150   -1.6320 O   0  0  0  0  0  0  0  0  0  0  0  0
    6.9090  -11.9440   -1.1930 C   0  0  0  0  0  0  0  0  0  0  0  0
    5.6690  -12.5470   -1.0350 N   0  0  0  0  0  0  0  0  0  0  0  0
    4.4140  -12.0580   -1.4590 C   0  0  0  0  0  0  0  0  0  0  0  0
    4.3110  -11.6300   -2.7870 C   0  0  0  0  0  0  0  0  0  0  0  0
    3.1060  -11.1280   -3.2790 C   0  0  0  0  0  0  0  0  0  0  0  0
    1.9920  -11.0510   -2.4450 C   0  0  0  0  0  0  0  0  0  0  0  0
    2.0660  -11.4760   -1.1110 C   0  0  0  0  0  0  0  0  0  0  0  0
    0.8670  -11.3680   -0.2410 C   0  0  0  0  0  0  0  0  0  0  0  0
    0.7010  -10.2830    0.5460 C   0  0  0  0  0  0  0  0  0  0  0  0
   -0.4160  -10.2220    1.3500 N   0  0  0  0  0  0  0  0  0  0  0  0
   -0.8670   -9.2820    2.2350 C   0  0  0  0  0  0  0  0  0  0  0  0
   -2.0470   -9.7940    2.7310 C   0  0  0  0  0  0  0  0  0  0  0  0
   -2.3330  -11.0210    2.1770 N   0  0  0  0  0  0  0  0  0  0  0  0
   -1.3280  -11.2390    1.3530 C   0  0  0  0  0  0  0  0  0  0  0  0
   -1.1050  -12.3930    0.5000 C   0  0  0  0  0  0  0  0  0  0  0  0
   -2.0040  -13.4290    0.4860 N   0  0  0  0  0  0  0  0  0  0  0  0
   -1.8780  -14.5970   -0.3410 C   0  0  0  0  0  0  0  0  0  0  0  0
   -1.5950  -15.7990    0.5220 C   0  0  0  0  0  0  0  0  0  0  0  0
   -2.6110  -16.3940    1.2760 C   0  0  0  0  0  0  0  0  0  0  0  0
   -2.3060  -17.5140    2.0330 C   0  0  0  0  0  0  0  0  0  0  0  0
   -1.0790  -18.0740    2.0870 N   0  0  0  0  0  0  0  0  0  0  0  0
   -0.1160  -17.4950    1.3400 C   0  0  0  0  0  0  0  0  0  0  0  0
   -0.3210  -16.3740    0.5500 C   0  0  0  0  0  0  0  0  0  0  0  0
   -0.0320  -12.4320   -0.2580 N   0  0  0  0  0  0  0  0  0  0  0  0
    3.2940  -11.9630   -0.6280 C   0  0  0  0  0  0  0  0  0  0  0  0
    7.9190  -12.7990   -0.7760 N   0  0  0  0  0  0  0  0  0  0  0  0
    9.2990  -12.5230   -0.6820 C   0  0  0  0  0  0  0  0  0  0  0  0
    9.7950  -12.1840    0.5840 C   0  0  0  0  0  0  0  0  0  0  0  0
   11.1500  -11.8920    0.7610 C   0  0  0  0  0  0  0  0  0  0  0  0
   12.0100  -11.9350   -0.3290 C   0  0  0  0  0  0  0  0  0  0  0  0
   13.3050  -11.6520   -0.1380 F   0  0  0  0  0  0  0  0  0  0  0  0
   11.5460  -12.2620   -1.5980 C   0  0  0  0  0  0  0  0  0  0  0  0
   12.5140  -12.2910   -2.7420 C   0  0  0  0  0  0  0  0  0  0  0  0
   13.2290  -11.1370   -2.8760 F   0  0  0  0  0  0  0  0  0  0  0  0
   11.9060  -12.4840   -3.9450 F   0  0  0  0  0  0  0  0  0  0  0  0
   13.4430  -13.2800   -2.6230 F   0  0  0  0  0  0  0  0  0  0  0  0
   10.1810  -12.5550   -1.7680 C   0  0  0  0  0  0  0  0  0  0  0  0
    5.6460  -13.3930   -0.4880 H   0  0  0  0  0  0  0  0  0  0  0  0
    5.1876  -11.6898   -3.4488 H   0  0  0  0  0  0  0  0  0  0  0  0
    3.0351  -10.7932   -4.3244 H   0  0  0  0  0  0  0  0  0  0  0  0
    1.0448  -10.6526   -2.8375 H   0  0  0  0  0  0  0  0  0  0  0  0
    1.4397   -9.4679    0.5450 H   0  0  0  0  0  0  0  0  0  0  0  0
   -0.3913   -8.3248    2.4948 H   0  0  0  0  0  0  0  0  0  0  0  0
   -2.6792   -9.2867    3.4746 H   0  0  0  0  0  0  0  0  0  0  0  0
   -2.8160  -13.3390    1.0900 H   0  0  0  0  0  0  0  0  0  0  0  0
   -2.8150  -14.7563   -0.8947 H   0  0  0  0  0  0  0  0  0  0  0  0
   -1.0503  -14.4542   -1.0513 H   0  0  0  0  0  0  0  0  0  0  0  0
   -3.6308  -15.9818    1.2685 H   0  0  0  0  0  0  0  0  0  0  0  0
   -3.1113  -17.9738    2.6247 H   0  0  0  0  0  0  0  0  0  0  0  0
    0.8906  -17.9382    1.3588 H   0  0  0  0  0  0  0  0  0  0  0  0
    0.5014  -15.9462   -0.0421 H   0  0  0  0  0  0  0  0  0  0  0  0
    3.3745  -12.2751    0.4237 H   0  0  0  0  0  0  0  0  0  0  0  0
    7.6430  -13.7490   -0.5780 H   0  0  0  0  0  0  0  0  0  0  0  0
    9.1121  -12.1475    1.4455 H   0  0  0  0  0  0  0  0  0  0  0  0
   11.5335  -11.6295    1.7580 H   0  0  0  0  0  0  0  0  0  0  0  0
    9.8017  -12.8127   -2.7678 H   0  0  0  0  0  0  0  0  0  0  0  0
  1  2  2  0
  2  3  1  0
  3  4  1  0
  4  5  2  0
  5  6  1  0
  6  7  2  0
  7  8  1  0
  8  9  1  0
  9 10  2  0
 10 11  1  0
 11 12  1  0
 12 13  2  0
 13 14  1  0
 14 15  2  0
 15 16  1  0
 16 17  1  0
 17 18  1  0
 18 19  1  0
 19 20  2  0
 20 21  1  0
 21 22  2  0
 22 23  1  0
 23 24  2  0
 16 25  2  0
  8 26  2  0
  2 27  1  0
 27 28  1  0
 28 29  2  0
 29 30  1  0
 30 31  2  0
 31 32  1  0
 31 33  1  0
 33 34  1  0
 34 35  1  0
 34 36  1  0
 34 37  1  0
 33 38  2  0
 26  4  1  0
 38 28  1  0
 25  9  1  0
 15 11  1  0
 24 19  1  0
  3 39  1  0
  5 40  1  0
  6 41  1  0
  7 42  1  0
 10 43  1  0
 12 44  1  0
 13 45  1  0
 17 46  1  0
 18 47  1  0
 18 48  1  0
 20 49  1  0
 21 50  1  0
 23 51  1  0
 24 52  1  0
 26 53  1  0
 27 54  1  0
 29 55  1  0
 30 56  1  0
 38 57  1  0
M  END
>  <meeko>  (4) 
{"is_sidechain": [false], "free_energy": -9.213, "intermolecular_energy": -12.712, "internal_energy": -1.006}

$$$$
LIB_ZNDXPRCORYDEAP__M_PUB_ALL__e8__s20260927
     RDKit          3D

 57 61  0  0  0  0  0  0  0  0999 V2000
    4.0030  -13.2330   -6.3900 O   0  0  0  0  0  0  0  0  0  0  0  0
    5.0350  -12.8490   -5.8560 C   0  0  0  0  0  0  0  0  0  0  0  0
    5.0930  -12.0510   -4.7220 N   0  0  0  0  0  0  0  0  0  0  0  0
    4.0180  -11.6460   -3.9000 C   0  0  0  0  0  0  0  0  0  0  0  0
    3.3170  -10.4980   -4.2850 C   0  0  0  0  0  0  0  0  0  0  0  0
    2.2470  -10.0310   -3.5220 C   0  0  0  0  0  0  0  0  0  0  0  0
    1.8680  -10.7110   -2.3650 C   0  0  0  0  0  0  0  0  0  0  0  0
    2.5510  -11.8650   -1.9570 C   0  0  0  0  0  0  0  0  0  0  0  0
    2.1360  -12.5600   -0.7120 C   0  0  0  0  0  0  0  0  0  0  0  0
    1.0440  -12.1380   -0.0370 C   0  0  0  0  0  0  0  0  0  0  0  0
    0.6950  -12.7980    1.1200 N   0  0  0  0  0  0  0  0  0  0  0  0
   -0.3300  -12.6250    2.0100 C   0  0  0  0  0  0  0  0  0  0  0  0
   -0.1420  -13.5990    2.9670 C   0  0  0  0  0  0  0  0  0  0  0  0
    0.9690  -14.3630    2.6930 N   0  0  0  0  0  0  0  0  0  0  0  0
    1.4400  -13.8480    1.5750 C   0  0  0  0  0  0  0  0  0  0  0  0
    2.6130  -14.2620    0.8250 C   0  0  0  0  0  0  0  0  0  0  0  0
    3.3810  -15.3120    1.2620 N   0  0  0  0  0  0  0  0  0  0  0  0
    4.5410  -15.8050    0.5730 C   0  0  0  0  0  0  0  0  0  0  0  0
    5.6680  -14.8150    0.7120 C   0  0  0  0  0  0  0  0  0  0  0  0
    6.5230  -14.5490   -0.3620 C   0  0  0  0  0  0  0  0  0  0  0  0
    7.5290  -13.6110   -0.1940 C   0  0  0  0  0  0  0  0  0  0  0  0
    7.7350  -12.9270    0.9520 N   0  0  0  0  0  0  0  0  0  0  0  0
    6.8900  -13.1860    1.9720 C   0  0  0  0  0  0  0  0  0  0  0  0
    5.8540  -14.1050    1.9020 C   0  0  0  0  0  0  0  0  0  0  0  0
    2.9290  -13.6180   -0.2760 N   0  0  0  0  0  0  0  0  0  0  0  0
    3.6380  -12.3110   -2.7300 C   0  0  0  0  0  0  0  0  0  0  0  0
    6.3140  -13.1450   -6.3050 N   0  0  0  0  0  0  0  0  0  0  0  0
    6.6790  -13.8400   -7.4760 C   0  0  0  0  0  0  0  0  0  0  0  0
    7.0480  -15.1840   -7.3300 C   0  0  0  0  0  0  0  0  0  0  0  0
    7.4260  -15.9410   -8.4410 C   0  0  0  0  0  0  0  0  0  0  0  0
    7.4410  -15.3550   -9.7000 C   0  0  0  0  0  0  0  0  0  0  0  0
    7.8080  -16.0980  -10.7520 F   0  0  0  0  0  0  0  0  0  0  0  0
    7.0870  -14.0220   -9.8760 C   0  0  0  0  0  0  0  0  0  0  0  0
    7.1230  -13.4340  -11.2550 C   0  0  0  0  0  0  0  0  0  0  0  0
    8.3460  -13.5250  -11.8500 F   0  0  0  0  0  0  0  0  0  0  0  0
    6.8050  -12.1110  -11.2740 F   0  0  0  0  0  0  0  0  0  0  0  0
    6.2570  -14.0460  -12.1110 F   0  0  0  0  0  0  0  0  0  0  0  0
    6.7060  -13.2660   -8.7520 C   0  0  0  0  0  0  0  0  0  0  0  0
    5.9890  -11.6480   -4.5000 H   0  0  0  0  0  0  0  0  0  0  0  0
    3.6123   -9.9591   -5.1973 H   0  0  0  0  0  0  0  0  0  0  0  0
    1.7025   -9.1271   -3.8326 H   0  0  0  0  0  0  0  0  0  0  0  0
    1.0241  -10.3378   -1.7662 H   0  0  0  0  0  0  0  0  0  0  0  0
    0.4487  -11.2884   -0.4027 H   0  0  0  0  0  0  0  0  0  0  0  0
   -1.1306  -11.8717    1.9703 H   0  0  0  0  0  0  0  0  0  0  0  0
   -0.7966  -13.7467    3.8386 H   0  0  0  0  0  0  0  0  0  0  0  0
    3.0830  -15.7730    2.1160 H   0  0  0  0  0  0  0  0  0  0  0  0
    4.8439  -16.7686    1.0086 H   0  0  0  0  0  0  0  0  0  0  0  0
    4.3034  -15.9419   -0.4923 H   0  0  0  0  0  0  0  0  0  0  0  0
    6.3995  -15.0737   -1.3208 H   0  0  0  0  0  0  0  0  0  0  0  0
    8.1988  -13.4120   -1.0436 H   0  0  0  0  0  0  0  0  0  0  0  0
    7.0314  -12.6359    2.9140 H   0  0  0  0  0  0  0  0  0  0  0  0
    5.1923  -14.2719    2.7647 H   0  0  0  0  0  0  0  0  0  0  0  0
    4.2001  -13.2000   -2.4080 H   0  0  0  0  0  0  0  0  0  0  0  0
    7.0710  -12.8900   -5.6880 H   0  0  0  0  0  0  0  0  0  0  0  0
    7.0398  -15.6465   -6.3320 H   0  0  0  0  0  0  0  0  0  0  0  0
    7.7106  -16.9966   -8.3195 H   0  0  0  0  0  0  0  0  0  0  0  0
    6.4257  -12.2098   -8.8780 H   0  0  0  0  0  0  0  0  0  0  0  0
  1  2  2  0
  2  3  1  0
  3  4  1  0
  4  5  2  0
  5  6  1  0
  6  7  2  0
  7  8  1  0
  8  9  1  0
  9 10  2  0
 10 11  1  0
 11 12  1  0
 12 13  2  0
 13 14  1  0
 14 15  2  0
 15 16  1  0
 16 17  1  0
 17 18  1  0
 18 19  1  0
 19 20  2  0
 20 21  1  0
 21 22  2  0
 22 23  1  0
 23 24  2  0
 16 25  2  0
  8 26  2  0
  2 27  1  0
 27 28  1  0
 28 29  2  0
 29 30  1  0
 30 31  2  0
 31 32  1  0
 31 33  1  0
 33 34  1  0
 34 35  1  0
 34 36  1  0
 34 37  1  0
 33 38  2  0
 26  4  1  0
 38 28  1  0
 25  9  1  0
 15 11  1  0
 24 19  1  0
  3 39  1  0
  5 40  1  0
  6 41  1  0
  7 42  1  0
 10 43  1  0
 12 44  1  0
 13 45  1  0
 17 46  1  0
 18 47  1  0
 18 48  1  0
 20 49  1  0
 21 50  1  0
 23 51  1  0
 24 52  1  0
 26 53  1  0
 27 54  1  0
 29 55  1  0
 30 56  1  0
 38 57  1  0
M  END
>  <meeko>  (5) 
{"is_sidechain": [false], "free_energy": -9.071, "intermolecular_energy": -12.321, "internal_energy": -1.205}

$$$$
LIB_ZNDXPRCORYDEAP__M_PUB_ALL__e8__s20260927
     RDKit          3D

 57 61  0  0  0  0  0  0  0  0999 V2000
    7.1390  -11.4220   -0.5670 O   0  0  0  0  0  0  0  0  0  0  0  0
    7.2040  -12.6110   -0.8490 C   0  0  0  0  0  0  0  0  0  0  0  0
    6.1160  -13.4670   -0.9370 N   0  0  0  0  0  0  0  0  0  0  0  0
    4.7470  -13.1290   -0.8570 C   0  0  0  0  0  0  0  0  0  0  0  0
    4.2220  -12.3430   -1.8880 C   0  0  0  0  0  0  0  0  0  0  0  0
    2.8800  -11.9620   -1.8760 C   0  0  0  0  0  0  0  0  0  0  0  0
    2.0500  -12.3670   -0.8320 C   0  0  0  0  0  0  0  0  0  0  0  0
    2.5490  -13.1580    0.2130 C   0  0  0  0  0  0  0  0  0  0  0  0
    1.6460  -13.5620    1.3210 C   0  0  0  0  0  0  0  0  0  0  0  0
    1.8720  -14.7160    1.9870 C   0  0  0  0  0  0  0  0  0  0  0  0
    1.0070  -15.0650    3.0010 N   0  0  0  0  0  0  0  0  0  0  0  0
    0.9630  -16.1390    3.8480 C   0  0  0  0  0  0  0  0  0  0  0  0
   -0.1430  -15.9210    4.6430 C   0  0  0  0  0  0  0  0  0  0  0  0
   -0.7780  -14.7480    4.3070 N   0  0  0  0  0  0  0  0  0  0  0  0
   -0.0540  -14.2660    3.3180 C   0  0  0  0  0  0  0  0  0  0  0  0
   -0.2660  -13.0400    2.5690 C   0  0  0  0  0  0  0  0  0  0  0  0
   -1.3260  -12.2210    2.8650 N   0  0  0  0  0  0  0  0  0  0  0  0
   -1.6000  -10.9800    2.1950 C   0  0  0  0  0  0  0  0  0  0  0  0
   -2.7710  -11.1570    1.2630 C   0  0  0  0  0  0  0  0  0  0  0  0
   -2.9840  -10.2670    0.2060 C   0  0  0  0  0  0  0  0  0  0  0  0
   -4.0600  -10.4870   -0.6400 C   0  0  0  0  0  0  0  0  0  0  0  0
   -4.9200  -11.5200   -0.5090 N   0  0  0  0  0  0  0  0  0  0  0  0
   -4.6880  -12.3760    0.5070 C   0  0  0  0  0  0  0  0  0  0  0  0
   -3.6400  -12.2430    1.4060 C   0  0  0  0  0  0  0  0  0  0  0  0
    0.5690  -12.7260    1.6040 N   0  0  0  0  0  0  0  0  0  0  0  0
    3.9090  -13.5170    0.1930 C   0  0  0  0  0  0  0  0  0  0  0  0
    8.3810  -13.2960   -1.1210 N   0  0  0  0  0  0  0  0  0  0  0  0
    9.7020  -12.8090   -1.0370 C   0  0  0  0  0  0  0  0  0  0  0  0
   10.1210  -12.3210    0.2080 C   0  0  0  0  0  0  0  0  0  0  0  0
   11.4130  -11.8170    0.3740 C   0  0  0  0  0  0  0  0  0  0  0  0
   12.2870  -11.7970   -0.7050 C   0  0  0  0  0  0  0  0  0  0  0  0
   13.5220  -11.3090   -0.5250 F   0  0  0  0  0  0  0  0  0  0  0  0
   11.8980  -12.2680   -1.9540 C   0  0  0  0  0  0  0  0  0  0  0  0
   12.8770  -12.2210   -3.0880 C   0  0  0  0  0  0  0  0  0  0  0  0
   13.4440  -10.9930   -3.2640 F   0  0  0  0  0  0  0  0  0  0  0  0
   12.3140  -12.5380   -4.2870 F   0  0  0  0  0  0  0  0  0  0  0  0
   13.9210  -13.0810   -2.9200 F   0  0  0  0  0  0  0  0  0  0  0  0
   10.5950  -12.7740   -2.1130 C   0  0  0  0  0  0  0  0  0  0  0  0
    6.3200  -14.4530   -0.9850 H   0  0  0  0  0  0  0  0  0  0  0  0
    4.8726  -12.0226   -2.7151 H   0  0  0  0  0  0  0  0  0  0  0  0
    2.4769  -11.3420   -2.6904 H   0  0  0  0  0  0  0  0  0  0  0  0
    0.9928  -12.0631   -0.8277 H   0  0  0  0  0  0  0  0  0  0  0  0
    2.7247  -15.3601    1.7262 H   0  0  0  0  0  0  0  0  0  0  0  0
    1.6582  -16.9906    3.8865 H   0  0  0  0  0  0  0  0  0  0  0  0
   -0.4748  -16.5987    5.4434 H   0  0  0  0  0  0  0  0  0  0  0  0
   -1.9340  -12.5150    3.6230 H   0  0  0  0  0  0  0  0  0  0  0  0
   -1.8385  -10.2066    2.9399 H   0  0  0  0  0  0  0  0  0  0  0  0
   -0.7157  -10.6738    1.6168 H   0  0  0  0  0  0  0  0  0  0  0  0
   -2.3121   -9.4104    0.0490 H   0  0  0  0  0  0  0  0  0  0  0  0
   -4.2227   -9.7790   -1.4660 H   0  0  0  0  0  0  0  0  0  0  0  0
   -5.3701  -13.2301    0.6301 H   0  0  0  0  0  0  0  0  0  0  0  0
   -3.4958  -12.9758    2.2136 H   0  0  0  0  0  0  0  0  0  0  0  0
    4.3213  -14.1146    1.0194 H   0  0  0  0  0  0  0  0  0  0  0  0
    8.2760  -14.2310   -1.4840 H   0  0  0  0  0  0  0  0  0  0  0  0
    9.4269  -12.3350    1.0613 H   0  0  0  0  0  0  0  0  0  0  0  0
   11.7366  -11.4378    1.3545 H   0  0  0  0  0  0  0  0  0  0  0  0
   10.2741  -13.1471   -3.0968 H   0  0  0  0  0  0  0  0  0  0  0  0
  1  2  2  0
  2  3  1  0
  3  4  1  0
  4  5  2  0
  5  6  1  0
  6  7  2  0
  7  8  1  0
  8  9  1  0
  9 10  2  0
 10 11  1  0
 11 12  1  0
 12 13  2  0
 13 14  1  0
 14 15  2  0
 15 16  1  0
 16 17  1  0
 17 18  1  0
 18 19  1  0
 19 20  2  0
 20 21  1  0
 21 22  2  0
 22 23  1  0
 23 24  2  0
 16 25  2  0
  8 26  2  0
  2 27  1  0
 27 28  1  0
 28 29  2  0
 29 30  1  0
 30 31  2  0
 31 32  1  0
 31 33  1  0
 33 34  1  0
 34 35  1  0
 34 36  1  0
 34 37  1  0
 33 38  2  0
 26  4  1  0
 38 28  1  0
 25  9  1  0
 15 11  1  0
 24 19  1  0
  3 39  1  0
  5 40  1  0
  6 41  1  0
  7 42  1  0
 10 43  1  0
 12 44  1  0
 13 45  1  0
 17 46  1  0
 18 47  1  0
 18 48  1  0
 20 49  1  0
 21 50  1  0
 23 51  1  0
 24 52  1  0
 26 53  1  0
 27 54  1  0
 29 55  1  0
 30 56  1  0
 38 57  1  0
M  END
>  <meeko>  (6) 
{"is_sidechain": [false], "free_energy": -8.767, "intermolecular_energy": -12.108, "internal_energy": -1.007}

$$$$
LIB_ZNDXPRCORYDEAP__M_PUB_ALL__e8__s20260927
     RDKit          3D

 57 61  0  0  0  0  0  0  0  0999 V2000
    8.0190  -11.5140   -2.9380 O   0  0  0  0  0  0  0  0  0  0  0  0
    8.1820  -12.6360   -3.3970 C   0  0  0  0  0  0  0  0  0  0  0  0
    7.1620  -13.4800   -3.8120 N   0  0  0  0  0  0  0  0  0  0  0  0
    5.7860  -13.1790   -3.9170 C   0  0  0  0  0  0  0  0  0  0  0  0
    5.2180  -13.2220   -5.1950 C   0  0  0  0  0  0  0  0  0  0  0  0
    3.8670  -12.9310   -5.3810 C   0  0  0  0  0  0  0  0  0  0  0  0
    3.0700  -12.5960   -4.2870 C   0  0  0  0  0  0  0  0  0  0  0  0
    3.6120  -12.5480   -2.9950 C   0  0  0  0  0  0  0  0  0  0  0  0
    2.7430  -12.1720   -1.8500 C   0  0  0  0  0  0  0  0  0  0  0  0
    1.9190  -11.1070   -1.9510 C   0  0  0  0  0  0  0  0  0  0  0  0
    1.1360  -10.7800   -0.8660 N   0  0  0  0  0  0  0  0  0  0  0  0
    0.2180   -9.7880   -0.6540 C   0  0  0  0  0  0  0  0  0  0  0  0
   -0.2290   -9.9840    0.6360 C   0  0  0  0  0  0  0  0  0  0  0  0
    0.3890  -11.0650    1.2210 N   0  0  0  0  0  0  0  0  0  0  0  0
    1.2000  -11.5130    0.2850 C   0  0  0  0  0  0  0  0  0  0  0  0
    2.1080  -12.6440    0.3540 C   0  0  0  0  0  0  0  0  0  0  0  0
    2.1940  -13.3960    1.4990 N   0  0  0  0  0  0  0  0  0  0  0  0
    3.0440  -14.5430    1.6510 C   0  0  0  0  0  0  0  0  0  0  0  0
    2.2000  -15.7720    1.8650 C   0  0  0  0  0  0  0  0  0  0  0  0
    2.6420  -17.0280    1.4360 C   0  0  0  0  0  0  0  0  0  0  0  0
    1.8410  -18.1320    1.6800 C   0  0  0  0  0  0  0  0  0  0  0  0
    0.6520  -18.0730    2.3160 N   0  0  0  0  0  0  0  0  0  0  0  0
    0.2510  -16.8550    2.7370 C   0  0  0  0  0  0  0  0  0  0  0  0
    0.9790  -15.6920    2.5410 C   0  0  0  0  0  0  0  0  0  0  0  0
    2.8470  -12.9380   -0.6920 N   0  0  0  0  0  0  0  0  0  0  0  0
    4.9800  -12.8270   -2.8300 C   0  0  0  0  0  0  0  0  0  0  0  0
    9.4160  -13.2480   -3.5680 N   0  0  0  0  0  0  0  0  0  0  0  0
   10.6810  -12.7650   -3.1760 C   0  0  0  0  0  0  0  0  0  0  0  0
   11.6910  -12.7640   -4.1480 C   0  0  0  0  0  0  0  0  0  0  0  0
   12.9730  -12.3060   -3.8390 C   0  0  0  0  0  0  0  0  0  0  0  0
   13.2500  -11.8510   -2.5560 C   0  0  0  0  0  0  0  0  0  0  0  0
   14.4870  -11.4160   -2.2800 F   0  0  0  0  0  0  0  0  0  0  0  0
   12.2710  -11.8460   -1.5690 C   0  0  0  0  0  0  0  0  0  0  0  0
   12.6210  -11.3490   -0.1980 C   0  0  0  0  0  0  0  0  0  0  0  0
   11.5600  -11.3320    0.6590 F   0  0  0  0  0  0  0  0  0  0  0  0
   13.1050  -10.0760   -0.2050 F   0  0  0  0  0  0  0  0  0  0  0  0
   13.5690  -12.1120    0.4140 F   0  0  0  0  0  0  0  0  0  0  0  0
   10.9820  -12.3090   -1.8880 C   0  0  0  0  0  0  0  0  0  0  0  0
    7.4140  -14.4400   -3.9850 H   0  0  0  0  0  0  0  0  0  0  0  0
    5.8427  -13.4877   -6.0606 H   0  0  0  0  0  0  0  0  0  0  0  0
    3.4303  -12.9657   -6.3900 H   0  0  0  0  0  0  0  0  0  0  0  0
    2.0049  -12.3670   -4.4393 H   0  0  0  0  0  0  0  0  0  0  0  0
    1.8742  -10.5151   -2.8771 H   0  0  0  0  0  0  0  0  0  0  0  0
   -0.0955   -9.0042   -1.3593 H   0  0  0  0  0  0  0  0  0  0  0  0
   -0.9831   -9.3563    1.1334 H   0  0  0  0  0  0  0  0  0  0  0  0
    1.5940  -13.1220    2.2720 H   0  0  0  0  0  0  0  0  0  0  0  0
    3.6528  -14.6704    0.7438 H   0  0  0  0  0  0  0  0  0  0  0  0
    3.7034  -14.3968    2.5192 H   0  0  0  0  0  0  0  0  0  0  0  0
    3.6051  -17.1369    0.9159 H   0  0  0  0  0  0  0  0  0  0  0  0
    2.1951  -19.1146    1.3350 H   0  0  0  0  0  0  0  0  0  0  0  0
   -0.7101  -16.7810    3.2668 H   0  0  0  0  0  0  0  0  0  0  0  0
    0.6038  -14.7260    2.9098 H   0  0  0  0  0  0  0  0  0  0  0  0
    5.4251  -12.7672   -1.8259 H   0  0  0  0  0  0  0  0  0  0  0  0
    9.4140  -14.1100   -4.0930 H   0  0  0  0  0  0  0  0  0  0  0  0
   11.4715  -13.1272   -5.1629 H   0  0  0  0  0  0  0  0  0  0  0  0
   13.7599  -12.3054   -4.6076 H   0  0  0  0  0  0  0  0  0  0  0  0
   10.1999  -12.3127   -1.1145 H   0  0  0  0  0  0  0  0  0  0  0  0
  1  2  2  0
  2  3  1  0
  3  4  1  0
  4  5  2  0
  5  6  1  0
  6  7  2  0
  7  8  1  0
  8  9  1  0
  9 10  2  0
 10 11  1  0
 11 12  1  0
 12 13  2  0
 13 14  1  0
 14 15  2  0
 15 16  1  0
 16 17  1  0
 17 18  1  0
 18 19  1  0
 19 20  2  0
 20 21  1  0
 21 22  2  0
 22 23  1  0
 23 24  2  0
 16 25  2  0
  8 26  2  0
  2 27  1  0
 27 28  1  0
 28 29  2  0
 29 30  1  0
 30 31  2  0
 31 32  1  0
 31 33  1  0
 33 34  1  0
 34 35  1  0
 34 36  1  0
 34 37  1  0
 33 38  2  0
 26  4  1  0
 38 28  1  0
 25  9  1  0
 15 11  1  0
 24 19  1  0
  3 39  1  0
  5 40  1  0
  6 41  1  0
  7 42  1  0
 10 43  1  0
 12 44  1  0
 13 45  1  0
 17 46  1  0
 18 47  1  0
 18 48  1  0
 20 49  1  0
 21 50  1  0
 23 51  1  0
 24 52  1  0
 26 53  1  0
 27 54  1  0
 29 55  1  0
 30 56  1  0
 38 57  1  0
M  END
>  <meeko>  (7) 
{"is_sidechain": [false], "free_energy": -8.755, "intermolecular_energy": -12.057, "internal_energy": -1.043}

$$$$
LIB_ZNDXPRCORYDEAP__M_PUB_ALL__e8__s20260927
     RDKit          3D

 57 61  0  0  0  0  0  0  0  0999 V2000
  -12.4990  -10.4820   -6.9640 O   0  0  0  0  0  0  0  0  0  0  0  0
  -12.6700   -9.6510   -7.8460 C   0  0  0  0  0  0  0  0  0  0  0  0
  -12.1910   -9.7600   -9.1430 N   0  0  0  0  0  0  0  0  0  0  0  0
  -11.5470  -10.8710   -9.7320 C   0  0  0  0  0  0  0  0  0  0  0  0
  -10.2680  -10.6630  -10.2580 C   0  0  0  0  0  0  0  0  0  0  0  0
   -9.5700  -11.7100  -10.8610 C   0  0  0  0  0  0  0  0  0  0  0  0
  -10.1480  -12.9760  -10.9410 C   0  0  0  0  0  0  0  0  0  0  0  0
  -11.4280  -13.2140  -10.4200 C   0  0  0  0  0  0  0  0  0  0  0  0
  -12.0250  -14.5690  -10.5330 C   0  0  0  0  0  0  0  0  0  0  0  0
  -12.2750  -15.0950  -11.7510 C   0  0  0  0  0  0  0  0  0  0  0  0
  -12.8410  -16.3490  -11.8190 N   0  0  0  0  0  0  0  0  0  0  0  0
  -13.2050  -17.1430  -12.8720 C   0  0  0  0  0  0  0  0  0  0  0  0
  -13.7180  -18.2870  -12.2970 C   0  0  0  0  0  0  0  0  0  0  0  0
  -13.6800  -18.2170  -10.9240 N   0  0  0  0  0  0  0  0  0  0  0  0
  -13.1460  -17.0380  -10.6800 C   0  0  0  0  0  0  0  0  0  0  0  0
  -12.8710  -16.4300   -9.3890 C   0  0  0  0  0  0  0  0  0  0  0  0
  -13.1700  -17.0990   -8.2290 N   0  0  0  0  0  0  0  0  0  0  0  0
  -12.9120  -16.5880   -6.9130 C   0  0  0  0  0  0  0  0  0  0  0  0
  -14.1160  -16.8180   -6.0360 C   0  0  0  0  0  0  0  0  0  0  0  0
  -13.9670  -17.0640   -4.6670 C   0  0  0  0  0  0  0  0  0  0  0  0
  -15.1060  -17.2440   -3.8990 C   0  0  0  0  0  0  0  0  0  0  0  0
  -16.3620  -17.1920   -4.3910 N   0  0  0  0  0  0  0  0  0  0  0  0
  -16.4840  -16.9370   -5.7110 C   0  0  0  0  0  0  0  0  0  0  0  0
  -15.4090  -16.7430   -6.5630 C   0  0  0  0  0  0  0  0  0  0  0  0
  -12.3320  -15.2320   -9.3470 N   0  0  0  0  0  0  0  0  0  0  0  0
  -12.1230  -12.1420   -9.8310 C   0  0  0  0  0  0  0  0  0  0  0  0
  -13.3680   -8.4620   -7.6860 N   0  0  0  0  0  0  0  0  0  0  0  0
  -13.9190   -7.9370   -6.4990 C   0  0  0  0  0  0  0  0  0  0  0  0
  -15.2840   -8.1640   -6.2770 C   0  0  0  0  0  0  0  0  0  0  0  0
  -15.9070   -7.6730   -5.1280 C   0  0  0  0  0  0  0  0  0  0  0  0
  -15.1680   -6.9510   -4.2000 C   0  0  0  0  0  0  0  0  0  0  0  0
  -15.7840   -6.4880   -3.1040 F   0  0  0  0  0  0  0  0  0  0  0  0
  -13.8140   -6.7040   -4.3960 C   0  0  0  0  0  0  0  0  0  0  0  0
  -13.0600   -5.9160   -3.3660 C   0  0  0  0  0  0  0  0  0  0  0  0
  -13.4920   -4.6280   -3.2480 F   0  0  0  0  0  0  0  0  0  0  0  0
  -11.7290   -5.8310   -3.6360 F   0  0  0  0  0  0  0  0  0  0  0  0
  -13.1620   -6.4480   -2.1160 F   0  0  0  0  0  0  0  0  0  0  0  0
  -13.1930   -7.2020   -5.5560 C   0  0  0  0  0  0  0  0  0  0  0  0
  -12.2320   -8.9280   -9.7100 H   0  0  0  0  0  0  0  0  0  0  0  0
   -9.8084   -9.6656  -10.1958 H   0  0  0  0  0  0  0  0  0  0  0  0
   -8.5648  -11.5366  -11.2728 H   0  0  0  0  0  0  0  0  0  0  0  0
   -9.5938  -13.7976  -11.4182 H   0  0  0  0  0  0  0  0  0  0  0  0
  -12.0326  -14.5358  -12.6667 H   0  0  0  0  0  0  0  0  0  0  0  0
  -13.1093  -16.9179  -13.9445 H   0  0  0  0  0  0  0  0  0  0  0  0
  -14.1076  -19.1454  -12.8640 H   0  0  0  0  0  0  0  0  0  0  0  0
  -13.5800  -18.0230   -8.3270 H   0  0  0  0  0  0  0  0  0  0  0  0
  -12.0419  -17.1059   -6.4833 H   0  0  0  0  0  0  0  0  0  0  0  0
  -12.7054  -15.5093   -6.9741 H   0  0  0  0  0  0  0  0  0  0  0  0
  -12.9675  -17.1134   -4.2103 H   0  0  0  0  0  0  0  0  0  0  0  0
  -14.9793  -17.4410   -2.8242 H   0  0  0  0  0  0  0  0  0  0  0  0
  -17.4972  -16.8799   -6.1353 H   0  0  0  0  0  0  0  0  0  0  0  0
  -15.5691  -16.5344   -7.6311 H   0  0  0  0  0  0  0  0  0  0  0  0
  -13.1383  -12.3063   -9.4410 H   0  0  0  0  0  0  0  0  0  0  0  0
  -13.5600   -7.9440   -8.5310 H   0  0  0  0  0  0  0  0  0  0  0  0
  -15.8693   -8.7336   -7.0139 H   0  0  0  0  0  0  0  0  0  0  0  0
  -16.9782   -7.8572   -4.9586 H   0  0  0  0  0  0  0  0  0  0  0  0
  -12.1228   -7.0109   -5.7236 H   0  0  0  0  0  0  0  0  0  0  0  0
  1  2  2  0
  2  3  1  0
  3  4  1  0
  4  5  2  0
  5  6  1  0
  6  7  2  0
  7  8  1  0
  8  9  1  0
  9 10  2  0
 10 11  1  0
 11 12  1  0
 12 13  2  0
 13 14  1  0
 14 15  2  0
 15 16  1  0
 16 17  1  0
 17 18  1  0
 18 19  1  0
 19 20  2  0
 20 21  1  0
 21 22  2  0
 22 23  1  0
 23 24  2  0
 16 25  2  0
  8 26  2  0
  2 27  1  0
 27 28  1  0
 28 29  2  0
 29 30  1  0
 30 31  2  0
 31 32  1  0
 31 33  1  0
 33 34  1  0
 34 35  1  0
 34 36  1  0
 34 37  1  0
 33 38  2  0
 26  4  1  0
 38 28  1  0
 25  9  1  0
 15 11  1  0
 24 19  1  0
  3 39  1  0
  5 40  1  0
  6 41  1  0
  7 42  1  0
 10 43  1  0
 12 44  1  0
 13 45  1  0
 17 46  1  0
 18 47  1  0
 18 48  1  0
 20 49  1  0
 21 50  1  0
 23 51  1  0
 24 52  1  0
 26 53  1  0
 27 54  1  0
 29 55  1  0
 30 56  1  0
 38 57  1  0
M  END
>  <meeko>  (8) 
{"is_sidechain": [false], "free_energy": -8.719, "intermolecular_energy": -11.882, "internal_energy": -1.169}

$$$$
LIB_ZNDXPRCORYDEAP__M_PUB_ALL__e8__s20260927
     RDKit          3D

 57 61  0  0  0  0  0  0  0  0999 V2000
    7.9090  -15.0030   -0.1590 O   0  0  0  0  0  0  0  0  0  0  0  0
    7.3710  -13.9970   -0.6010 C   0  0  0  0  0  0  0  0  0  0  0  0
    6.0300  -13.8990   -0.9440 N   0  0  0  0  0  0  0  0  0  0  0  0
    5.0170  -14.8600   -0.7340 C   0  0  0  0  0  0  0  0  0  0  0  0
    5.0210  -15.9860   -1.5650 C   0  0  0  0  0  0  0  0  0  0  0  0
    4.0490  -16.9760   -1.4230 C   0  0  0  0  0  0  0  0  0  0  0  0
    3.0630  -16.8490   -0.4460 C   0  0  0  0  0  0  0  0  0  0  0  0
    3.0360  -15.7340    0.4030 C   0  0  0  0  0  0  0  0  0  0  0  0
    1.9650  -15.6170    1.4260 C   0  0  0  0  0  0  0  0  0  0  0  0
    2.0400  -16.3400    2.5640 C   0  0  0  0  0  0  0  0  0  0  0  0
    1.0230  -16.2170    3.4850 N   0  0  0  0  0  0  0  0  0  0  0  0
    0.8080  -16.7920    4.7080 C   0  0  0  0  0  0  0  0  0  0  0  0
   -0.3900  -16.2680    5.1440 C   0  0  0  0  0  0  0  0  0  0  0  0
   -0.9170  -15.3900    4.2260 N   0  0  0  0  0  0  0  0  0  0  0  0
   -0.0360  -15.3880    3.2460 C   0  0  0  0  0  0  0  0  0  0  0  0
   -0.0820  -14.6380    2.0030 C   0  0  0  0  0  0  0  0  0  0  0  0
   -1.1370  -13.8010    1.7370 N   0  0  0  0  0  0  0  0  0  0  0  0
   -1.2540  -13.0040    0.5480 C   0  0  0  0  0  0  0  0  0  0  0  0
   -0.9740  -11.5610    0.8790 C   0  0  0  0  0  0  0  0  0  0  0  0
   -1.8830  -10.8090    1.6300 C   0  0  0  0  0  0  0  0  0  0  0  0
   -1.5670   -9.4930    1.9300 C   0  0  0  0  0  0  0  0  0  0  0  0
   -0.4240   -8.8870    1.5430 N   0  0  0  0  0  0  0  0  0  0  0  0
    0.4470   -9.6340    0.8330 C   0  0  0  0  0  0  0  0  0  0  0  0
    0.2240  -10.9560    0.4830 C   0  0  0  0  0  0  0  0  0  0  0  0
    0.8970  -14.7710    1.1380 N   0  0  0  0  0  0  0  0  0  0  0  0
    4.0140  -14.7370    0.2340 C   0  0  0  0  0  0  0  0  0  0  0  0
    8.0190  -12.7920   -0.8360 N   0  0  0  0  0  0  0  0  0  0  0  0
    9.3960  -12.5140   -0.7140 C   0  0  0  0  0  0  0  0  0  0  0  0
    9.8660  -12.1800    0.5640 C   0  0  0  0  0  0  0  0  0  0  0  0
   11.2160  -11.8870    0.7690 C   0  0  0  0  0  0  0  0  0  0  0  0
   12.0980  -11.9230   -0.3030 C   0  0  0  0  0  0  0  0  0  0  0  0
   13.3890  -11.6370   -0.0860 F   0  0  0  0  0  0  0  0  0  0  0  0
   11.6600  -12.2440   -1.5830 C   0  0  0  0  0  0  0  0  0  0  0  0
   12.6510  -12.2660   -2.7080 C   0  0  0  0  0  0  0  0  0  0  0  0
   13.4640  -13.3600   -2.6930 F   0  0  0  0  0  0  0  0  0  0  0  0
   13.4860  -11.1900   -2.6990 F   0  0  0  0  0  0  0  0  0  0  0  0
   12.0570  -12.2740   -3.9350 F   0  0  0  0  0  0  0  0  0  0  0  0
   10.2990  -12.5390   -1.7820 C   0  0  0  0  0  0  0  0  0  0  0  0
    5.7580  -13.0860   -1.4730 H   0  0  0  0  0  0  0  0  0  0  0  0
    5.7976  -16.0911   -2.3369 H   0  0  0  0  0  0  0  0  0  0  0  0
    4.0605  -17.8568   -2.0818 H   0  0  0  0  0  0  0  0  0  0  0  0
    2.2979  -17.6322   -0.3401 H   0  0  0  0  0  0  0  0  0  0  0  0
    2.8918  -17.0104    2.7509 H   0  0  0  0  0  0  0  0  0  0  0  0
    1.4516  -17.5154    5.2299 H   0  0  0  0  0  0  0  0  0  0  0  0
   -0.8642  -16.5200    6.1040 H   0  0  0  0  0  0  0  0  0  0  0  0
   -1.8600  -13.7360    2.4460 H   0  0  0  0  0  0  0  0  0  0  0  0
   -0.5293  -13.3553   -0.2013 H   0  0  0  0  0  0  0  0  0  0  0  0
   -2.2733  -13.0958    0.1447 H   0  0  0  0  0  0  0  0  0  0  0  0
   -2.8286  -11.2523    1.9753 H   0  0  0  0  0  0  0  0  0  0  0  0
   -2.2898   -8.9081    2.5178 H   0  0  0  0  0  0  0  0  0  0  0  0
    1.3896   -9.1659    0.5132 H   0  0  0  0  0  0  0  0  0  0  0  0
    0.9730  -11.5181   -0.0941 H   0  0  0  0  0  0  0  0  0  0  0  0
    3.9898  -13.8435    0.8752 H   0  0  0  0  0  0  0  0  0  0  0  0
    7.4270  -12.0060   -1.0590 H   0  0  0  0  0  0  0  0  0  0  0  0
    9.1659  -12.1485    1.4119 H   0  0  0  0  0  0  0  0  0  0  0  0
   11.5789  -11.6289    1.7748 H   0  0  0  0  0  0  0  0  0  0  0  0
    9.9403  -12.7926   -2.7905 H   0  0  0  0  0  0  0  0  0  0  0  0
  1  2  2  0
  2  3  1  0
  3  4  1  0
  4  5  2  0
  5  6  1  0
  6  7  2  0
  7  8  1  0
  8  9  1  0
  9 10  2  0
 10 11  1  0
 11 12  1  0
 12 13  2  0
 13 14  1  0
 14 15  2  0
 15 16  1  0
 16 17  1  0
 17 18  1  0
 18 19  1  0
 19 20  2  0
 20 21  1  0
 21 22  2  0
 22 23  1  0
 23 24  2  0
 16 25  2  0
  8 26  2  0
  2 27  1  0
 27 28  1  0
 28 29  2  0
 29 30  1  0
 30 31  2  0
 31 32  1  0
 31 33  1  0
 33 34  1  0
 34 35  1  0
 34 36  1  0
 34 37  1  0
 33 38  2  0
 26  4  1  0
 38 28  1  0
 25  9  1  0
 15 11  1  0
 24 19  1  0
  3 39  1  0
  5 40  1  0
  6 41  1  0
  7 42  1  0
 10 43  1  0
 12 44  1  0
 13 45  1  0
 17 46  1  0
 18 47  1  0
 18 48  1  0
 20 49  1  0
 21 50  1  0
 23 51  1  0
 24 52  1  0
 26 53  1  0
 27 54  1  0
 29 55  1  0
 30 56  1  0
 38 57  1  0
M  END
>  <meeko>  (9) 
{"is_sidechain": [false], "free_energy": -8.477, "intermolecular_energy": -11.587, "internal_energy": -1.137}

$$$$
