LIB_ZNDXPRCORYDEAP__W_7USX_LOCAL_COMPLETE__e8__s20260927
     RDKit          3D

 57 61  0  0  0  0  0  0  0  0999 V2000
  126.4180  187.0000  162.1030 O   0  0  0  0  0  0  0  0  0  0  0  0
  126.7620  187.2580  163.2490 C   0  0  0  0  0  0  0  0  0  0  0  0
  128.0530  187.1280  163.7390 N   0  0  0  0  0  0  0  0  0  0  0  0
  129.2210  186.8140  163.0100 C   0  0  0  0  0  0  0  0  0  0  0  0
  129.4990  187.5920  161.8810 C   0  0  0  0  0  0  0  0  0  0  0  0
  130.6310  187.3390  161.1060 C   0  0  0  0  0  0  0  0  0  0  0  0
  131.4980  186.3050  161.4570 C   0  0  0  0  0  0  0  0  0  0  0  0
  131.2460  185.5110  162.5850 C   0  0  0  0  0  0  0  0  0  0  0  0
  132.1780  184.4060  162.9250 C   0  0  0  0  0  0  0  0  0  0  0  0
  133.3700  184.6820  163.4990 C   0  0  0  0  0  0  0  0  0  0  0  0
  134.2140  183.6340  163.7900 N   0  0  0  0  0  0  0  0  0  0  0  0
  135.4560  183.5790  164.3610 C   0  0  0  0  0  0  0  0  0  0  0  0
  135.7810  182.2390  164.3820 C   0  0  0  0  0  0  0  0  0  0  0  0
  134.7770  181.4720  163.8400 N   0  0  0  0  0  0  0  0  0  0  0  0
  133.8550  182.3490  163.4980 C   0  0  0  0  0  0  0  0  0  0  0  0
  132.5690  182.0970  162.8720 C   0  0  0  0  0  0  0  0  0  0  0  0
  132.1860  180.8160  162.5660 N   0  0  0  0  0  0  0  0  0  0  0  0
  130.9260  180.4710  161.9680 C   0  0  0  0  0  0  0  0  0  0  0  0
  130.7970  178.9720  161.8920 C   0  0  0  0  0  0  0  0  0  0  0  0
  131.3550  178.2590  160.8250 C   0  0  0  0  0  0  0  0  0  0  0  0
  131.2330  176.8790  160.8130 C   0  0  0  0  0  0  0  0  0  0  0  0
  130.6070  176.1710  161.7780 N   0  0  0  0  0  0  0  0  0  0  0  0
  130.0900  176.8750  162.8060 C   0  0  0  0  0  0  0  0  0  0  0  0
  130.1600  178.2560  162.9100 C   0  0  0  0  0  0  0  0  0  0  0  0
  131.7790  183.1120  162.6010 N   0  0  0  0  0  0  0  0  0  0  0  0
  130.0900  185.7700  163.3440 C   0  0  0  0  0  0  0  0  0  0  0  0
  125.9110  187.7170  164.2440 N   0  0  0  0  0  0  0  0  0  0  0  0
  124.5120  187.8830  164.1760 C   0  0  0  0  0  0  0  0  0  0  0  0
  124.0340  189.1870  163.9890 C   0  0  0  0  0  0  0  0  0  0  0  0
  122.6620  189.4370  163.9150 C   0  0  0  0  0  0  0  0  0  0  0  0
  121.7640  188.3830  164.0320 C   0  0  0  0  0  0  0  0  0  0  0  0
  120.4520  188.6440  163.9590 F   0  0  0  0  0  0  0  0  0  0  0  0
  122.2080  187.0790  164.2240 C   0  0  0  0  0  0  0  0  0  0  0  0
  121.1990  185.9770  164.3480 C   0  0  0  0  0  0  0  0  0  0  0  0
  120.3670  185.8820  163.2720 F   0  0  0  0  0  0  0  0  0  0  0  0
  120.3830  186.1260  165.4280 F   0  0  0  0  0  0  0  0  0  0  0  0
  121.7730  184.7480  164.4720 F   0  0  0  0  0  0  0  0  0  0  0  0
  123.5910  186.8360  164.2970 C   0  0  0  0  0  0  0  0  0  0  0  0
  128.1640  187.1850  164.7390 H   0  0  0  0  0  0  0  0  0  0  0  0
  128.8190  188.4104  161.6020 H   0  0  0  0  0  0  0  0  0  0  0  0
  130.8394  187.9548  160.2187 H   0  0  0  0  0  0  0  0  0  0  0  0
  132.3892  186.1100  160.8425 H   0  0  0  0  0  0  0  0  0  0  0  0
  133.6587  185.7184  163.7280 H   0  0  0  0  0  0  0  0  0  0  0  0
  136.0635  184.4209  164.7245 H   0  0  0  0  0  0  0  0  0  0  0  0
  136.7231  181.8354  164.7814 H   0  0  0  0  0  0  0  0  0  0  0  0
  132.8370  180.0740  162.8030 H   0  0  0  0  0  0  0  0  0  0  0  0
  130.1070  180.8785  162.5788 H   0  0  0  0  0  0  0  0  0  0  0  0
  130.8745  180.8942  160.9540 H   0  0  0  0  0  0  0  0  0  0  0  0
  131.8796  178.7833  160.0127 H   0  0  0  0  0  0  0  0  0  0  0  0
  131.6716  176.3277  159.9682 H   0  0  0  0  0  0  0  0  0  0  0  0
  129.5828  176.3207  163.6094 H   0  0  0  0  0  0  0  0  0  0  0  0
  129.7237  178.7770  163.7750 H   0  0  0  0  0  0  0  0  0  0  0  0
  129.8652  185.1394  164.2168 H   0  0  0  0  0  0  0  0  0  0  0  0
  126.3520  188.0310  165.0950 H   0  0  0  0  0  0  0  0  0  0  0  0
  124.7457  190.0210  163.8997 H   0  0  0  0  0  0  0  0  0  0  0  0
  122.2942  190.4627  163.7649 H   0  0  0  0  0  0  0  0  0  0  0  0
  123.9541  185.8092  164.4513 H   0  0  0  0  0  0  0  0  0  0  0  0
  1  2  2  0
  2  3  1  0
  3  4  1  0
  4  5  2  0
  5  6  1  0
  6  7  2  0
  7  8  1  0
  8  9  1  0
  9 10  2  0
 10 11  1  0
 11 12  1  0
 12 13  2  0
 13 14  1  0
 14 15  2  0
 15 16  1  0
 16 17  1  0
 17 18  1  0
 18 19  1  0
 19 20  2  0
 20 21  1  0
 21 22  2  0
 22 23  1  0
 23 24  2  0
 16 25  2  0
  8 26  2  0
  2 27  1  0
 27 28  1  0
 28 29  2  0
 29 30  1  0
 30 31  2  0
 31 32  1  0
 31 33  1  0
 33 34  1  0
 34 35  1  0
 34 36  1  0
 34 37  1  0
 33 38  2  0
 26  4  1  0
 38 28  1  0
 25  9  1  0
 15 11  1  0
 24 19  1  0
  3 39  1  0
  5 40  1  0
  6 41  1  0
  7 42  1  0
 10 43  1  0
 12 44  1  0
 13 45  1  0
 17 46  1  0
 18 47  1  0
 18 48  1  0
 20 49  1  0
 21 50  1  0
 23 51  1  0
 24 52  1  0
 26 53  1  0
 27 54  1  0
 29 55  1  0
 30 56  1  0
 38 57  1  0
M  END
>  <meeko>  (1) 
{"is_sidechain": [false], "free_energy": -9.336, "intermolecular_energy": -12.611, "internal_energy": -0.897}

$$$$
LIB_ZNDXPRCORYDEAP__W_7USX_LOCAL_COMPLETE__e8__s20260927
     RDKit          3D

 57 61  0  0  0  0  0  0  0  0999 V2000
  122.6480  169.6990  169.2180 O   0  0  0  0  0  0  0  0  0  0  0  0
  121.4670  169.6190  169.5290 C   0  0  0  0  0  0  0  0  0  0  0  0
  120.4120  169.5540  168.6310 N   0  0  0  0  0  0  0  0  0  0  0  0
  120.4850  169.4330  167.2250 C   0  0  0  0  0  0  0  0  0  0  0  0
  120.2260  170.5830  166.4710 C   0  0  0  0  0  0  0  0  0  0  0  0
  120.2730  170.5430  165.0780 C   0  0  0  0  0  0  0  0  0  0  0  0
  120.5820  169.3500  164.4260 C   0  0  0  0  0  0  0  0  0  0  0  0
  120.8490  168.1830  165.1560 C   0  0  0  0  0  0  0  0  0  0  0  0
  121.1590  166.9220  164.4350 C   0  0  0  0  0  0  0  0  0  0  0  0
  120.7210  166.7450  163.1690 C   0  0  0  0  0  0  0  0  0  0  0  0
  121.0180  165.5590  162.5350 N   0  0  0  0  0  0  0  0  0  0  0  0
  120.7310  165.0830  161.2850 C   0  0  0  0  0  0  0  0  0  0  0  0
  121.2990  163.8270  161.2410 C   0  0  0  0  0  0  0  0  0  0  0  0
  121.9240  163.5190  162.4270 N   0  0  0  0  0  0  0  0  0  0  0  0
  121.7310  164.5860  163.1750 C   0  0  0  0  0  0  0  0  0  0  0  0
  122.1730  164.8140  164.5400 C   0  0  0  0  0  0  0  0  0  0  0  0
  122.8880  163.8510  165.2070 N   0  0  0  0  0  0  0  0  0  0  0  0
  123.3860  163.9980  166.5460 C   0  0  0  0  0  0  0  0  0  0  0  0
  124.0780  162.7290  166.9700 C   0  0  0  0  0  0  0  0  0  0  0  0
  123.7870  161.5120  166.3440 C   0  0  0  0  0  0  0  0  0  0  0  0
  124.4700  160.3770  166.7510 C   0  0  0  0  0  0  0  0  0  0  0  0
  125.4100  160.3720  167.7190 N   0  0  0  0  0  0  0  0  0  0  0  0
  125.6880  161.5580  168.2990 C   0  0  0  0  0  0  0  0  0  0  0  0
  125.0620  162.7480  167.9630 C   0  0  0  0  0  0  0  0  0  0  0  0
  121.8780  165.9520  165.1270 N   0  0  0  0  0  0  0  0  0  0  0  0
  120.7790  168.2390  166.5600 C   0  0  0  0  0  0  0  0  0  0  0  0
  120.9940  169.5860  170.8340 N   0  0  0  0  0  0  0  0  0  0  0  0
  121.7350  169.7310  172.0240 C   0  0  0  0  0  0  0  0  0  0  0  0
  122.1710  168.5550  172.6490 C   0  0  0  0  0  0  0  0  0  0  0  0
  122.9070  168.6120  173.8350 C   0  0  0  0  0  0  0  0  0  0  0  0
  123.2050  169.8450  174.4010 C   0  0  0  0  0  0  0  0  0  0  0  0
  123.9120  169.8780  175.5380 F   0  0  0  0  0  0  0  0  0  0  0  0
  122.7810  171.0290  173.8070 C   0  0  0  0  0  0  0  0  0  0  0  0
  123.1250  172.3350  174.4590 C   0  0  0  0  0  0  0  0  0  0  0  0
  122.5000  173.4050  173.8900 F   0  0  0  0  0  0  0  0  0  0  0  0
  124.4550  172.6180  174.4070 F   0  0  0  0  0  0  0  0  0  0  0  0
  122.7800  172.3740  175.7770 F   0  0  0  0  0  0  0  0  0  0  0  0
  122.0410  170.9630  172.6130 C   0  0  0  0  0  0  0  0  0  0  0  0
  119.4880  169.6860  169.0100 H   0  0  0  0  0  0  0  0  0  0  0  0
  119.9832  171.5266  166.9815 H   0  0  0  0  0  0  0  0  0  0  0  0
  120.0665  171.4520  164.4940 H   0  0  0  0  0  0  0  0  0  0  0  0
  120.6167  169.3240  163.3269 H   0  0  0  0  0  0  0  0  0  0  0  0
  120.1420  167.5282  162.6578 H   0  0  0  0  0  0  0  0  0  0  0  0
  120.1691  165.5917  160.4879 H   0  0  0  0  0  0  0  0  0  0  0  0
  121.2575  163.1574  160.3693 H   0  0  0  0  0  0  0  0  0  0  0  0
  123.0890  162.9950  164.6990 H   0  0  0  0  0  0  0  0  0  0  0  0
  124.1003  164.8338  166.5812 H   0  0  0  0  0  0  0  0  0  0  0  0
  122.5469  164.2017  167.2275 H   0  0  0  0  0  0  0  0  0  0  0  0
  123.0321  161.4573  165.5458 H   0  0  0  0  0  0  0  0  0  0  0  0
  124.2318  159.4241  166.2558 H   0  0  0  0  0  0  0  0  0  0  0  0
  126.4571  161.5819  169.0851 H   0  0  0  0  0  0  0  0  0  0  0  0
  125.3335  163.6874  168.4668 H   0  0  0  0  0  0  0  0  0  0  0  0
  120.9591  167.3256  167.1458 H   0  0  0  0  0  0  0  0  0  0  0  0
  120.0150  169.3680  170.9450 H   0  0  0  0  0  0  0  0  0  0  0  0
  121.9317  167.5788  172.2020 H   0  0  0  0  0  0  0  0  0  0  0  0
  123.2489  167.6849  174.3183 H   0  0  0  0  0  0  0  0  0  0  0  0
  121.6979  171.8926  172.1354 H   0  0  0  0  0  0  0  0  0  0  0  0
  1  2  2  0
  2  3  1  0
  3  4  1  0
  4  5  2  0
  5  6  1  0
  6  7  2  0
  7  8  1  0
  8  9  1  0
  9 10  2  0
 10 11  1  0
 11 12  1  0
 12 13  2  0
 13 14  1  0
 14 15  2  0
 15 16  1  0
 16 17  1  0
 17 18  1  0
 18 19  1  0
 19 20  2  0
 20 21  1  0
 21 22  2  0
 22 23  1  0
 23 24  2  0
 16 25  2  0
  8 26  2  0
  2 27  1  0
 27 28  1  0
 28 29  2  0
 29 30  1  0
 30 31  2  0
 31 32  1  0
 31 33  1  0
 33 34  1  0
 34 35  1  0
 34 36  1  0
 34 37  1  0
 33 38  2  0
 26  4  1  0
 38 28  1  0
 25  9  1  0
 15 11  1  0
 24 19  1  0
  3 39  1  0
  5 40  1  0
  6 41  1  0
  7 42  1  0
 10 43  1  0
 12 44  1  0
 13 45  1  0
 17 46  1  0
 18 47  1  0
 18 48  1  0
 20 49  1  0
 21 50  1  0
 23 51  1  0
 24 52  1  0
 26 53  1  0
 27 54  1  0
 29 55  1  0
 30 56  1  0
 38 57  1  0
M  END
>  <meeko>  (2) 
{"is_sidechain": [false], "free_energy": -9.31, "intermolecular_energy": -12.308, "internal_energy": -1.165}

$$$$
LIB_ZNDXPRCORYDEAP__W_7USX_LOCAL_COMPLETE__e8__s20260927
     RDKit          3D

 57 61  0  0  0  0  0  0  0  0999 V2000
  126.1780  188.1650  165.0430 O   0  0  0  0  0  0  0  0  0  0  0  0
  126.1600  188.7790  163.9840 C   0  0  0  0  0  0  0  0  0  0  0  0
  127.2740  189.3220  163.3610 N   0  0  0  0  0  0  0  0  0  0  0  0
  128.6280  189.1680  163.7340 C   0  0  0  0  0  0  0  0  0  0  0  0
  129.0360  189.7740  164.9270 C   0  0  0  0  0  0  0  0  0  0  0  0
  130.3580  189.6720  165.3590 C   0  0  0  0  0  0  0  0  0  0  0  0
  131.2850  188.9590  164.6000 C   0  0  0  0  0  0  0  0  0  0  0  0
  130.9040  188.3390  163.4020 C   0  0  0  0  0  0  0  0  0  0  0  0
  131.9170  187.6000  162.6050 C   0  0  0  0  0  0  0  0  0  0  0  0
  132.5690  188.2230  161.6000 C   0  0  0  0  0  0  0  0  0  0  0  0
  133.4930  187.5040  160.8750 N   0  0  0  0  0  0  0  0  0  0  0  0
  134.3040  187.8360  159.8240 C   0  0  0  0  0  0  0  0  0  0  0  0
  135.0030  186.6830  159.5340 C   0  0  0  0  0  0  0  0  0  0  0  0
  134.6440  185.6540  160.3740 N   0  0  0  0  0  0  0  0  0  0  0  0
  133.7350  186.1910  161.1630 C   0  0  0  0  0  0  0  0  0  0  0  0
  133.0030  185.5560  162.2450 C   0  0  0  0  0  0  0  0  0  0  0  0
  133.2250  184.2380  162.5530 N   0  0  0  0  0  0  0  0  0  0  0  0
  132.5660  183.5350  163.6190 C   0  0  0  0  0  0  0  0  0  0  0  0
  133.1410  182.1480  163.7400 C   0  0  0  0  0  0  0  0  0  0  0  0
  134.5180  181.9550  163.8890 C   0  0  0  0  0  0  0  0  0  0  0  0
  134.9960  180.6610  164.0230 C   0  0  0  0  0  0  0  0  0  0  0  0
  134.2070  179.5640  164.0230 N   0  0  0  0  0  0  0  0  0  0  0  0
  132.8810  179.7730  163.8950 C   0  0  0  0  0  0  0  0  0  0  0  0
  132.3060  181.0270  163.7550 C   0  0  0  0  0  0  0  0  0  0  0  0
  132.1250  186.2600  162.9240 N   0  0  0  0  0  0  0  0  0  0  0  0
  129.5700  188.4680  162.9730 C   0  0  0  0  0  0  0  0  0  0  0  0
  125.0170  189.0360  163.2400 N   0  0  0  0  0  0  0  0  0  0  0  0
  123.6810  188.7420  163.5800 C   0  0  0  0  0  0  0  0  0  0  0  0
  122.7930  189.8240  163.6650 C   0  0  0  0  0  0  0  0  0  0  0  0
  121.4530  189.6180  164.0020 C   0  0  0  0  0  0  0  0  0  0  0  0
  120.9990  188.3300  164.2580 C   0  0  0  0  0  0  0  0  0  0  0  0
  119.7100  188.1540  164.5790 F   0  0  0  0  0  0  0  0  0  0  0  0
  121.8570  187.2380  164.1880 C   0  0  0  0  0  0  0  0  0  0  0  0
  121.3180  185.8690  164.4770 C   0  0  0  0  0  0  0  0  0  0  0  0
  122.2580  184.8860  164.3800 F   0  0  0  0  0  0  0  0  0  0  0  0
  120.3190  185.5030  163.6280 F   0  0  0  0  0  0  0  0  0  0  0  0
  120.8070  185.7580  165.7350 F   0  0  0  0  0  0  0  0  0  0  0  0
  123.2040  187.4540  163.8480 C   0  0  0  0  0  0  0  0  0  0  0  0
  127.1000  189.9640  162.6040 H   0  0  0  0  0  0  0  0  0  0  0  0
  128.3075  190.3360  165.5298 H   0  0  0  0  0  0  0  0  0  0  0  0
  130.6691  190.1536  166.2977 H   0  0  0  0  0  0  0  0  0  0  0  0
  132.3267  188.8822  164.9451 H   0  0  0  0  0  0  0  0  0  0  0  0
  132.3671  189.2787  161.3662 H   0  0  0  0  0  0  0  0  0  0  0  0
  134.3816  188.8107  159.3200 H   0  0  0  0  0  0  0  0  0  0  0  0
  135.7521  186.5970  158.7331 H   0  0  0  0  0  0  0  0  0  0  0  0
  133.9190  183.7480  161.9960 H   0  0  0  0  0  0  0  0  0  0  0  0
  132.7169  184.0777  164.5638 H   0  0  0  0  0  0  0  0  0  0  0  0
  131.4898  183.4670  163.4017 H   0  0  0  0  0  0  0  0  0  0  0  0
  135.2073  182.8122  163.8996 H   0  0  0  0  0  0  0  0  0  0  0  0
  136.0809  180.5187  164.1359 H   0  0  0  0  0  0  0  0  0  0  0  0
  132.2160  178.8968  163.9021 H   0  0  0  0  0  0  0  0  0  0  0  0
  131.2159  181.1373  163.6578 H   0  0  0  0  0  0  0  0  0  0  0  0
  129.2623  188.0098  162.0215 H   0  0  0  0  0  0  0  0  0  0  0  0
  125.1650  189.4200  162.3190 H   0  0  0  0  0  0  0  0  0  0  0  0
  123.1545  190.8434  163.4646 H   0  0  0  0  0  0  0  0  0  0  0  0
  120.7611  190.4708  164.0644 H   0  0  0  0  0  0  0  0  0  0  0  0
  123.8929  186.5982  163.7919 H   0  0  0  0  0  0  0  0  0  0  0  0
  1  2  2  0
  2  3  1  0
  3  4  1  0
  4  5  2  0
  5  6  1  0
  6  7  2  0
  7  8  1  0
  8  9  1  0
  9 10  2  0
 10 11  1  0
 11 12  1  0
 12 13  2  0
 13 14  1  0
 14 15  2  0
 15 16  1  0
 16 17  1  0
 17 18  1  0
 18 19  1  0
 19 20  2  0
 20 21  1  0
 21 22  2  0
 22 23  1  0
 23 24  2  0
 16 25  2  0
  8 26  2  0
  2 27  1  0
 27 28  1  0
 28 29  2  0
 29 30  1  0
 30 31  2  0
 31 32  1  0
 31 33  1  0
 33 34  1  0
 34 35  1  0
 34 36  1  0
 34 37  1  0
 33 38  2  0
 26  4  1  0
 38 28  1  0
 25  9  1  0
 15 11  1  0
 24 19  1  0
  3 39  1  0
  5 40  1  0
  6 41  1  0
  7 42  1  0
 10 43  1  0
 12 44  1  0
 13 45  1  0
 17 46  1  0
 18 47  1  0
 18 48  1  0
 20 49  1  0
 21 50  1  0
 23 51  1  0
 24 52  1  0
 26 53  1  0
 27 54  1  0
 29 55  1  0
 30 56  1  0
 38 57  1  0
M  END
>  <meeko>  (3) 
{"is_sidechain": [false], "free_energy": -9.093, "intermolecular_energy": -12.298, "internal_energy": -0.882}

$$$$
LIB_ZNDXPRCORYDEAP__W_7USX_LOCAL_COMPLETE__e8__s20260927
     RDKit          3D

 57 61  0  0  0  0  0  0  0  0999 V2000
  128.9860  187.5250  163.7040 O   0  0  0  0  0  0  0  0  0  0  0  0
  128.8320  187.1830  162.5390 C   0  0  0  0  0  0  0  0  0  0  0  0
  129.8440  186.7320  161.7040 N   0  0  0  0  0  0  0  0  0  0  0  0
  131.1850  186.4530  162.0500 C   0  0  0  0  0  0  0  0  0  0  0  0
  132.1300  187.4550  161.8010 C   0  0  0  0  0  0  0  0  0  0  0  0
  133.4750  187.2530  162.1100 C   0  0  0  0  0  0  0  0  0  0  0  0
  133.8860  186.0450  162.6720 C   0  0  0  0  0  0  0  0  0  0  0  0
  132.9610  185.0260  162.9340 C   0  0  0  0  0  0  0  0  0  0  0  0
  133.4300  183.7430  163.5190 C   0  0  0  0  0  0  0  0  0  0  0  0
  134.4790  183.7360  164.3700 C   0  0  0  0  0  0  0  0  0  0  0  0
  134.8950  182.5270  164.8850 N   0  0  0  0  0  0  0  0  0  0  0  0
  135.8970  182.1880  165.7520 C   0  0  0  0  0  0  0  0  0  0  0  0
  135.8120  180.8180  165.8790 C   0  0  0  0  0  0  0  0  0  0  0  0
  134.7890  180.3070  165.1140 N   0  0  0  0  0  0  0  0  0  0  0  0
  134.2650  181.3670  164.5350 C   0  0  0  0  0  0  0  0  0  0  0  0
  133.1480  181.4200  163.6080 C   0  0  0  0  0  0  0  0  0  0  0  0
  132.4990  180.2690  163.2370 N   0  0  0  0  0  0  0  0  0  0  0  0
  131.3730  180.2280  162.3470 C   0  0  0  0  0  0  0  0  0  0  0  0
  130.9530  178.7970  162.1300 C   0  0  0  0  0  0  0  0  0  0  0  0
  131.3480  178.1020  160.9830 C   0  0  0  0  0  0  0  0  0  0  0  0
  130.9580  176.7800  160.8410 C   0  0  0  0  0  0  0  0  0  0  0  0
  130.2180  176.1120  161.7520 N   0  0  0  0  0  0  0  0  0  0  0  0
  129.8610  176.7960  162.8590 C   0  0  0  0  0  0  0  0  0  0  0  0
  130.2000  178.1190  163.0940 C   0  0  0  0  0  0  0  0  0  0  0  0
  132.7680  182.5830  163.1280 N   0  0  0  0  0  0  0  0  0  0  0  0
  131.6120  185.2410  162.6000 C   0  0  0  0  0  0  0  0  0  0  0  0
  127.6190  187.1980  161.8650 N   0  0  0  0  0  0  0  0  0  0  0  0
  126.3790  187.6830  162.3300 C   0  0  0  0  0  0  0  0  0  0  0  0
  126.1340  189.0540  162.1760 C   0  0  0  0  0  0  0  0  0  0  0  0
  124.9320  189.6140  162.6140 C   0  0  0  0  0  0  0  0  0  0  0  0
  123.9740  188.8050  163.2110 C   0  0  0  0  0  0  0  0  0  0  0  0
  122.8280  189.3610  163.6250 F   0  0  0  0  0  0  0  0  0  0  0  0
  124.1910  187.4420  163.3840 C   0  0  0  0  0  0  0  0  0  0  0  0
  123.1270  186.6120  164.0380 C   0  0  0  0  0  0  0  0  0  0  0  0
  123.5240  185.3350  164.3040 F   0  0  0  0  0  0  0  0  0  0  0  0
  122.0060  186.4940  163.2760 F   0  0  0  0  0  0  0  0  0  0  0  0
  122.7210  187.1220  165.2340 F   0  0  0  0  0  0  0  0  0  0  0  0
  125.4040  186.8860  162.9390 C   0  0  0  0  0  0  0  0  0  0  0  0
  129.6240  186.6690  160.7220 H   0  0  0  0  0  0  0  0  0  0  0  0
  131.8093  188.4094  161.3580 H   0  0  0  0  0  0  0  0  0  0  0  0
  134.2108  188.0460  161.9105 H   0  0  0  0  0  0  0  0  0  0  0  0
  134.9482  185.8904  162.9123 H   0  0  0  0  0  0  0  0  0  0  0  0
  134.9883  184.6714  164.6450 H   0  0  0  0  0  0  0  0  0  0  0  0
  136.6150  182.8623  166.2417 H   0  0  0  0  0  0  0  0  0  0  0  0
  136.4769  180.2110  166.5110 H   0  0  0  0  0  0  0  0  0  0  0  0
  132.8350  179.4020  163.6450 H   0  0  0  0  0  0  0  0  0  0  0  0
  130.5375  180.7922  162.7871 H   0  0  0  0  0  0  0  0  0  0  0  0
  131.6526  180.6773  161.3826 H   0  0  0  0  0  0  0  0  0  0  0  0
  131.9557  178.5944  160.2095 H   0  0  0  0  0  0  0  0  0  0  0  0
  131.2694  176.2431  159.9329 H   0  0  0  0  0  0  0  0  0  0  0  0
  129.2650  176.2720  163.6207 H   0  0  0  0  0  0  0  0  0  0  0  0
  129.8838  178.6247  164.0183 H   0  0  0  0  0  0  0  0  0  0  0  0
  130.8787  184.4399  162.7749 H   0  0  0  0  0  0  0  0  0  0  0  0
  127.6090  186.7510  160.9610 H   0  0  0  0  0  0  0  0  0  0  0  0
  126.8949  189.6946  161.7061 H   0  0  0  0  0  0  0  0  0  0  0  0
  124.7450  190.6905  162.4868 H   0  0  0  0  0  0  0  0  0  0  0  0
  125.5884  185.8097  163.0717 H   0  0  0  0  0  0  0  0  0  0  0  0
  1  2  2  0
  2  3  1  0
  3  4  1  0
  4  5  2  0
  5  6  1  0
  6  7  2  0
  7  8  1  0
  8  9  1  0
  9 10  2  0
 10 11  1  0
 11 12  1  0
 12 13  2  0
 13 14  1  0
 14 15  2  0
 15 16  1  0
 16 17  1  0
 17 18  1  0
 18 19  1  0
 19 20  2  0
 20 21  1  0
 21 22  2  0
 22 23  1  0
 23 24  2  0
 16 25  2  0
  8 26  2  0
  2 27  1  0
 27 28  1  0
 28 29  2  0
 29 30  1  0
 30 31  2  0
 31 32  1  0
 31 33  1  0
 33 34  1  0
 34 35  1  0
 34 36  1  0
 34 37  1  0
 33 38  2  0
 26  4  1  0
 38 28  1  0
 25  9  1  0
 15 11  1  0
 24 19  1  0
  3 39  1  0
  5 40  1  0
  6 41  1  0
  7 42  1  0
 10 43  1  0
 12 44  1  0
 13 45  1  0
 17 46  1  0
 18 47  1  0
 18 48  1  0
 20 49  1  0
 21 50  1  0
 23 51  1  0
 24 52  1  0
 26 53  1  0
 27 54  1  0
 29 55  1  0
 30 56  1  0
 38 57  1  0
M  END
>  <meeko>  (4) 
{"is_sidechain": [false], "free_energy": -9.08, "intermolecular_energy": -12.04, "internal_energy": -1.122}

$$$$
LIB_ZNDXPRCORYDEAP__W_7USX_LOCAL_COMPLETE__e8__s20260927
     RDKit          3D

 57 61  0  0  0  0  0  0  0  0999 V2000
  125.4790  167.9760  174.3100 O   0  0  0  0  0  0  0  0  0  0  0  0
  124.6690  167.0840  174.5200 C   0  0  0  0  0  0  0  0  0  0  0  0
  123.4170  166.9910  173.9280 N   0  0  0  0  0  0  0  0  0  0  0  0
  122.8920  167.8010  172.8970 C   0  0  0  0  0  0  0  0  0  0  0  0
  122.4400  169.0770  173.2540 C   0  0  0  0  0  0  0  0  0  0  0  0
  121.9020  169.9330  172.2940 C   0  0  0  0  0  0  0  0  0  0  0  0
  121.8130  169.5210  170.9650 C   0  0  0  0  0  0  0  0  0  0  0  0
  122.2600  168.2490  170.5780 C   0  0  0  0  0  0  0  0  0  0  0  0
  122.1380  167.8300  169.1580 C   0  0  0  0  0  0  0  0  0  0  0  0
  121.2750  168.4700  168.3400 C   0  0  0  0  0  0  0  0  0  0  0  0
  121.1790  168.0470  167.0320 N   0  0  0  0  0  0  0  0  0  0  0  0
  120.4230  168.4760  165.9750 C   0  0  0  0  0  0  0  0  0  0  0  0
  120.7730  167.6510  164.9280 C   0  0  0  0  0  0  0  0  0  0  0  0
  121.7190  166.7290  165.3100 N   0  0  0  0  0  0  0  0  0  0  0  0
  121.9340  167.0030  166.5810 C   0  0  0  0  0  0  0  0  0  0  0  0
  122.8420  166.3360  167.4980 C   0  0  0  0  0  0  0  0  0  0  0  0
  123.6100  165.2820  167.0710 N   0  0  0  0  0  0  0  0  0  0  0  0
  124.5500  164.5800  167.8990 C   0  0  0  0  0  0  0  0  0  0  0  0
  124.5710  163.1230  167.5150 C   0  0  0  0  0  0  0  0  0  0  0  0
  125.4130  162.2220  168.1750 C   0  0  0  0  0  0  0  0  0  0  0  0
  125.3770  160.8870  167.8030 C   0  0  0  0  0  0  0  0  0  0  0  0
  124.5690  160.3960  166.8390 N   0  0  0  0  0  0  0  0  0  0  0  0
  123.7530  161.2790  166.2270 C   0  0  0  0  0  0  0  0  0  0  0  0
  123.7140  162.6320  166.5260 C   0  0  0  0  0  0  0  0  0  0  0  0
  122.9170  166.7540  168.7420 N   0  0  0  0  0  0  0  0  0  0  0  0
  122.7840  167.3930  171.5640 C   0  0  0  0  0  0  0  0  0  0  0  0
  124.8710  166.0220  175.3910 N   0  0  0  0  0  0  0  0  0  0  0  0
  125.9660  165.8100  176.2540 C   0  0  0  0  0  0  0  0  0  0  0  0
  125.9020  166.4060  177.5200 C   0  0  0  0  0  0  0  0  0  0  0  0
  126.9470  166.2490  178.4330 C   0  0  0  0  0  0  0  0  0  0  0  0
  128.0610  165.4970  178.0800 C   0  0  0  0  0  0  0  0  0  0  0  0
  129.0530  165.3590  178.9690 F   0  0  0  0  0  0  0  0  0  0  0  0
  128.1560  164.8990  176.8280 C   0  0  0  0  0  0  0  0  0  0  0  0
  129.3810  164.1020  176.4930 C   0  0  0  0  0  0  0  0  0  0  0  0
  130.5400  164.8070  176.6280 F   0  0  0  0  0  0  0  0  0  0  0  0
  129.3790  163.6430  175.2110 F   0  0  0  0  0  0  0  0  0  0  0  0
  129.5300  163.0050  177.2880 F   0  0  0  0  0  0  0  0  0  0  0  0
  127.0990  165.0620  175.9150 C   0  0  0  0  0  0  0  0  0  0  0  0
  122.7770  166.3240  174.3280 H   0  0  0  0  0  0  0  0  0  0  0  0
  122.5099  169.4071  174.3010 H   0  0  0  0  0  0  0  0  0  0  0  0
  121.5479  170.9330  172.5850 H   0  0  0  0  0  0  0  0  0  0  0  0
  121.3877  170.2007  170.2119 H   0  0  0  0  0  0  0  0  0  0  0  0
  120.6643  169.3075  168.7083 H   0  0  0  0  0  0  0  0  0  0  0  0
  119.6944  169.3001  165.9636 H   0  0  0  0  0  0  0  0  0  0  0  0
  120.3494  167.7212  163.9153 H   0  0  0  0  0  0  0  0  0  0  0  0
  123.5110  165.0090  166.0980 H   0  0  0  0  0  0  0  0  0  0  0  0
  125.5529  165.0099  167.7600 H   0  0  0  0  0  0  0  0  0  0  0  0
  124.2516  164.6760  168.9534 H   0  0  0  0  0  0  0  0  0  0  0  0
  126.0891  162.5652  168.9719 H   0  0  0  0  0  0  0  0  0  0  0  0
  126.0462  160.1864  168.3239 H   0  0  0  0  0  0  0  0  0  0  0  0
  123.0783  160.9028  165.4439 H   0  0  0  0  0  0  0  0  0  0  0  0
  123.0235  163.3048  165.9963 H   0  0  0  0  0  0  0  0  0  0  0  0
  123.1152  166.3830  171.2807 H   0  0  0  0  0  0  0  0  0  0  0  0
  124.1860  165.2820  175.3550 H   0  0  0  0  0  0  0  0  0  0  0  0
  125.0208  167.0030  177.7975 H   0  0  0  0  0  0  0  0  0  0  0  0
  126.8886  166.7181  179.4263 H   0  0  0  0  0  0  0  0  0  0  0  0
  127.1637  164.5953  174.9210 H   0  0  0  0  0  0  0  0  0  0  0  0
  1  2  2  0
  2  3  1  0
  3  4  1  0
  4  5  2  0
  5  6  1  0
  6  7  2  0
  7  8  1  0
  8  9  1  0
  9 10  2  0
 10 11  1  0
 11 12  1  0
 12 13  2  0
 13 14  1  0
 14 15  2  0
 15 16  1  0
 16 17  1  0
 17 18  1  0
 18 19  1  0
 19 20  2  0
 20 21  1  0
 21 22  2  0
 22 23  1  0
 23 24  2  0
 16 25  2  0
  8 26  2  0
  2 27  1  0
 27 28  1  0
 28 29  2  0
 29 30  1  0
 30 31  2  0
 31 32  1  0
 31 33  1  0
 33 34  1  0
 34 35  1  0
 34 36  1  0
 34 37  1  0
 33 38  2  0
 26  4  1  0
 38 28  1  0
 25  9  1  0
 15 11  1  0
 24 19  1  0
  3 39  1  0
  5 40  1  0
  6 41  1  0
  7 42  1  0
 10 43  1  0
 12 44  1  0
 13 45  1  0
 17 46  1  0
 18 47  1  0
 18 48  1  0
 20 49  1  0
 21 50  1  0
 23 51  1  0
 24 52  1  0
 26 53  1  0
 27 54  1  0
 29 55  1  0
 30 56  1  0
 38 57  1  0
M  END
>  <meeko>  (5) 
{"is_sidechain": [false], "free_energy": -9.068, "intermolecular_energy": -11.986, "internal_energy": -1.16}

$$$$
LIB_ZNDXPRCORYDEAP__W_7USX_LOCAL_COMPLETE__e8__s20260927
     RDKit          3D

 57 61  0  0  0  0  0  0  0  0999 V2000
  126.2830  187.9710  163.6480 O   0  0  0  0  0  0  0  0  0  0  0  0
  126.3940  187.7010  164.8370 C   0  0  0  0  0  0  0  0  0  0  0  0
  127.5700  187.8020  165.5670 N   0  0  0  0  0  0  0  0  0  0  0  0
  128.8020  188.3460  165.1430 C   0  0  0  0  0  0  0  0  0  0  0  0
  129.1360  189.6190  165.6190 C   0  0  0  0  0  0  0  0  0  0  0  0
  130.3330  190.2260  165.2400 C   0  0  0  0  0  0  0  0  0  0  0  0
  131.2080  189.5630  164.3810 C   0  0  0  0  0  0  0  0  0  0  0  0
  130.9010  188.2870  163.8910 C   0  0  0  0  0  0  0  0  0  0  0  0
  131.8450  187.6100  162.9640 C   0  0  0  0  0  0  0  0  0  0  0  0
  132.5250  188.3350  162.0500 C   0  0  0  0  0  0  0  0  0  0  0  0
  133.3830  187.6740  161.1990 N   0  0  0  0  0  0  0  0  0  0  0  0
  134.2010  188.1070  160.1910 C   0  0  0  0  0  0  0  0  0  0  0  0
  134.8090  186.9670  159.7100 C   0  0  0  0  0  0  0  0  0  0  0  0
  134.3890  185.8480  160.3910 N   0  0  0  0  0  0  0  0  0  0  0  0
  133.5340  186.3180  161.2760 C   0  0  0  0  0  0  0  0  0  0  0  0
  132.7740  185.5770  162.2670 C   0  0  0  0  0  0  0  0  0  0  0  0
  132.9040  184.2140  162.3640 N   0  0  0  0  0  0  0  0  0  0  0  0
  132.2120  183.4030  163.3260 C   0  0  0  0  0  0  0  0  0  0  0  0
  133.1700  182.4100  163.9310 C   0  0  0  0  0  0  0  0  0  0  0  0
  134.4920  182.3260  163.4820 C   0  0  0  0  0  0  0  0  0  0  0  0
  135.3420  181.4150  164.0880 C   0  0  0  0  0  0  0  0  0  0  0  0
  134.9730  180.5990  165.0980 N   0  0  0  0  0  0  0  0  0  0  0  0
  133.6980  180.7070  165.5280 C   0  0  0  0  0  0  0  0  0  0  0  0
  132.7720  181.5860  164.9880 C   0  0  0  0  0  0  0  0  0  0  0  0
  131.9590  186.2270  163.0680 N   0  0  0  0  0  0  0  0  0  0  0  0
  129.6810  187.6970  164.2700 C   0  0  0  0  0  0  0  0  0  0  0  0
  125.3620  187.2440  165.6440 N   0  0  0  0  0  0  0  0  0  0  0  0
  124.0460  186.9140  165.2580 C   0  0  0  0  0  0  0  0  0  0  0  0
  123.7480  185.5520  165.1120 C   0  0  0  0  0  0  0  0  0  0  0  0
  122.4700  185.1420  164.7290 C   0  0  0  0  0  0  0  0  0  0  0  0
  121.4870  186.0930  164.4850 C   0  0  0  0  0  0  0  0  0  0  0  0
  120.2670  185.6790  164.1180 F   0  0  0  0  0  0  0  0  0  0  0  0
  121.7540  187.4510  164.6140 C   0  0  0  0  0  0  0  0  0  0  0  0
  120.6600  188.4380  164.3370 C   0  0  0  0  0  0  0  0  0  0  0  0
  121.0790  189.5250  163.6270 F   0  0  0  0  0  0  0  0  0  0  0  0
  120.0980  188.9380  165.4710 F   0  0  0  0  0  0  0  0  0  0  0  0
  119.6390  187.9040  163.6110 F   0  0  0  0  0  0  0  0  0  0  0  0
  123.0440  187.8560  165.0020 C   0  0  0  0  0  0  0  0  0  0  0  0
  127.5740  187.3690  166.4770 H   0  0  0  0  0  0  0  0  0  0  0  0
  128.4486  190.1452  166.2977 H   0  0  0  0  0  0  0  0  0  0  0  0
  130.5865  191.2272  165.6186 H   0  0  0  0  0  0  0  0  0  0  0  0
  132.1501  190.0472  164.0845 H   0  0  0  0  0  0  0  0  0  0  0  0
  132.3970  189.4257  161.9867 H   0  0  0  0  0  0  0  0  0  0  0  0
  134.3426  189.1401  159.8407 H   0  0  0  0  0  0  0  0  0  0  0  0
  135.5377  186.9539  158.8861 H   0  0  0  0  0  0  0  0  0  0  0  0
  133.5510  183.7690  161.7200 H   0  0  0  0  0  0  0  0  0  0  0  0
  131.8012  184.0454  164.1188 H   0  0  0  0  0  0  0  0  0  0  0  0
  131.3926  182.8639  162.8280 H   0  0  0  0  0  0  0  0  0  0  0  0
  134.8494  182.9698  162.6648 H   0  0  0  0  0  0  0  0  0  0  0  0
  136.3784  181.3530  163.7247 H   0  0  0  0  0  0  0  0  0  0  0  0
  133.3746  180.0591  166.3560 H   0  0  0  0  0  0  0  0  0  0  0  0
  131.7463  181.6341  165.3826 H   0  0  0  0  0  0  0  0  0  0  0  0
  129.4137  186.7069  163.8722 H   0  0  0  0  0  0  0  0  0  0  0  0
  125.5560  187.2040  166.6330 H   0  0  0  0  0  0  0  0  0  0  0  0
  124.5281  184.7999  165.3009 H   0  0  0  0  0  0  0  0  0  0  0  0
  122.2422  184.0713  164.6209 H   0  0  0  0  0  0  0  0  0  0  0  0
  123.2679  188.9280  165.1055 H   0  0  0  0  0  0  0  0  0  0  0  0
  1  2  2  0
  2  3  1  0
  3  4  1  0
  4  5  2  0
  5  6  1  0
  6  7  2  0
  7  8  1  0
  8  9  1  0
  9 10  2  0
 10 11  1  0
 11 12  1  0
 12 13  2  0
 13 14  1  0
 14 15  2  0
 15 16  1  0
 16 17  1  0
 17 18  1  0
 18 19  1  0
 19 20  2  0
 20 21  1  0
 21 22  2  0
 22 23  1  0
 23 24  2  0
 16 25  2  0
  8 26  2  0
  2 27  1  0
 27 28  1  0
 28 29  2  0
 29 30  1  0
 30 31  2  0
 31 32  1  0
 31 33  1  0
 33 34  1  0
 34 35  1  0
 34 36  1  0
 34 37  1  0
 33 38  2  0
 26  4  1  0
 38 28  1  0
 25  9  1  0
 15 11  1  0
 24 19  1  0
  3 39  1  0
  5 40  1  0
  6 41  1  0
  7 42  1  0
 10 43  1  0
 12 44  1  0
 13 45  1  0
 17 46  1  0
 18 47  1  0
 18 48  1  0
 20 49  1  0
 21 50  1  0
 23 51  1  0
 24 52  1  0
 26 53  1  0
 27 54  1  0
 29 55  1  0
 30 56  1  0
 38 57  1  0
M  END
>  <meeko>  (6) 
{"is_sidechain": [false], "free_energy": -8.785, "intermolecular_energy": -11.931, "internal_energy": -0.832}

$$$$
LIB_ZNDXPRCORYDEAP__W_7USX_LOCAL_COMPLETE__e8__s20260927
     RDKit          3D

 57 61  0  0  0  0  0  0  0  0999 V2000
  132.3090  183.8730  163.6500 O   0  0  0  0  0  0  0  0  0  0  0  0
  133.4370  183.8310  163.1760 C   0  0  0  0  0  0  0  0  0  0  0  0
  134.0740  184.8900  162.5460 N   0  0  0  0  0  0  0  0  0  0  0  0
  133.6260  186.2260  162.4450 C   0  0  0  0  0  0  0  0  0  0  0  0
  134.1040  186.9810  161.3690 C   0  0  0  0  0  0  0  0  0  0  0  0
  133.7120  188.3090  161.2040 C   0  0  0  0  0  0  0  0  0  0  0  0
  132.8350  188.8940  162.1160 C   0  0  0  0  0  0  0  0  0  0  0  0
  132.3370  188.1610  163.2020 C   0  0  0  0  0  0  0  0  0  0  0  0
  131.4150  188.8140  164.1670 C   0  0  0  0  0  0  0  0  0  0  0  0
  131.8690  189.1890  165.3830 C   0  0  0  0  0  0  0  0  0  0  0  0
  130.9840  189.7810  166.2570 N   0  0  0  0  0  0  0  0  0  0  0  0
  131.1260  190.2660  167.5280 C   0  0  0  0  0  0  0  0  0  0  0  0
  129.8770  190.7360  167.8730 C   0  0  0  0  0  0  0  0  0  0  0  0
  128.9730  190.5520  166.8530 N   0  0  0  0  0  0  0  0  0  0  0  0
  129.6800  189.9760  165.9020 C   0  0  0  0  0  0  0  0  0  0  0  0
  129.2320  189.5480  164.5880 C   0  0  0  0  0  0  0  0  0  0  0  0
  127.9260  189.7300  164.2080 N   0  0  0  0  0  0  0  0  0  0  0  0
  127.4000  189.3600  162.9230 C   0  0  0  0  0  0  0  0  0  0  0  0
  126.2670  188.3840  163.1040 C   0  0  0  0  0  0  0  0  0  0  0  0
  124.9370  188.8000  162.9770 C   0  0  0  0  0  0  0  0  0  0  0  0
  123.9310  187.8600  163.1260 C   0  0  0  0  0  0  0  0  0  0  0  0
  124.1540  186.5530  163.3830 N   0  0  0  0  0  0  0  0  0  0  0  0
  125.4440  186.1690  163.4850 C   0  0  0  0  0  0  0  0  0  0  0  0
  126.5200  187.0320  163.3520 C   0  0  0  0  0  0  0  0  0  0  0  0
  130.0920  188.9840  163.7700 N   0  0  0  0  0  0  0  0  0  0  0  0
  132.7570  186.8280  163.3620 C   0  0  0  0  0  0  0  0  0  0  0  0
  134.2580  182.7120  163.1890 N   0  0  0  0  0  0  0  0  0  0  0  0
  133.9420  181.4150  163.6430 C   0  0  0  0  0  0  0  0  0  0  0  0
  134.8670  180.7960  164.4940 C   0  0  0  0  0  0  0  0  0  0  0  0
  134.6310  179.5100  164.9840 C   0  0  0  0  0  0  0  0  0  0  0  0
  133.4720  178.8370  164.6200 C   0  0  0  0  0  0  0  0  0  0  0  0
  133.2640  177.6040  165.1010 F   0  0  0  0  0  0  0  0  0  0  0  0
  132.5380  179.4220  163.7710 C   0  0  0  0  0  0  0  0  0  0  0  0
  131.3040  178.6540  163.4050 C   0  0  0  0  0  0  0  0  0  0  0  0
  130.5890  178.2310  164.4860 F   0  0  0  0  0  0  0  0  0  0  0  0
  131.5750  177.5310  162.6840 F   0  0  0  0  0  0  0  0  0  0  0  0
  130.4310  179.3840  162.6570 F   0  0  0  0  0  0  0  0  0  0  0  0
  132.7830  180.7180  163.2830 C   0  0  0  0  0  0  0  0  0  0  0  0
  134.9130  184.6710  162.0340 H   0  0  0  0  0  0  0  0  0  0  0  0
  134.7954  186.5230  160.6464 H   0  0  0  0  0  0  0  0  0  0  0  0
  134.0945  188.8944  160.3549 H   0  0  0  0  0  0  0  0  0  0  0  0
  132.5304  189.9424  161.9819 H   0  0  0  0  0  0  0  0  0  0  0  0
  132.9188  189.0257  165.6679 H   0  0  0  0  0  0  0  0  0  0  0  0
  132.0388  190.2783  168.1417 H   0  0  0  0  0  0  0  0  0  0  0  0
  129.6342  191.1992  168.8408 H   0  0  0  0  0  0  0  0  0  0  0  0
  127.3110  190.1750  164.8810 H   0  0  0  0  0  0  0  0  0  0  0  0
  127.0308  190.2580  162.4060 H   0  0  0  0  0  0  0  0  0  0  0  0
  128.1944  188.8912  162.3238 H   0  0  0  0  0  0  0  0  0  0  0  0
  124.6956  189.8517  162.7633 H   0  0  0  0  0  0  0  0  0  0  0  0
  122.8886  188.1979  163.0293 H   0  0  0  0  0  0  0  0  0  0  0  0
  125.6536  185.1080  163.6856 H   0  0  0  0  0  0  0  0  0  0  0  0
  127.5517  186.6607  163.4398 H   0  0  0  0  0  0  0  0  0  0  0  0
  132.3956  186.2480  164.2240 H   0  0  0  0  0  0  0  0  0  0  0  0
  135.2130  182.8590  162.8990 H   0  0  0  0  0  0  0  0  0  0  0  0
  135.7870  181.3277  164.7785 H   0  0  0  0  0  0  0  0  0  0  0  0
  135.3597  179.0321  165.6552 H   0  0  0  0  0  0  0  0  0  0  0  0
  132.0534  181.1905  162.6089 H   0  0  0  0  0  0  0  0  0  0  0  0
  1  2  2  0
  2  3  1  0
  3  4  1  0
  4  5  2  0
  5  6  1  0
  6  7  2  0
  7  8  1  0
  8  9  1  0
  9 10  2  0
 10 11  1  0
 11 12  1  0
 12 13  2  0
 13 14  1  0
 14 15  2  0
 15 16  1  0
 16 17  1  0
 17 18  1  0
 18 19  1  0
 19 20  2  0
 20 21  1  0
 21 22  2  0
 22 23  1  0
 23 24  2  0
 16 25  2  0
  8 26  2  0
  2 27  1  0
 27 28  1  0
 28 29  2  0
 29 30  1  0
 30 31  2  0
 31 32  1  0
 31 33  1  0
 33 34  1  0
 34 35  1  0
 34 36  1  0
 34 37  1  0
 33 38  2  0
 26  4  1  0
 38 28  1  0
 25  9  1  0
 15 11  1  0
 24 19  1  0
  3 39  1  0
  5 40  1  0
  6 41  1  0
  7 42  1  0
 10 43  1  0
 12 44  1  0
 13 45  1  0
 17 46  1  0
 18 47  1  0
 18 48  1  0
 20 49  1  0
 21 50  1  0
 23 51  1  0
 24 52  1  0
 26 53  1  0
 27 54  1  0
 29 55  1  0
 30 56  1  0
 38 57  1  0
M  END
>  <meeko>  (7) 
{"is_sidechain": [false], "free_energy": -8.74, "intermolecular_energy": -11.948, "internal_energy": -0.755}

$$$$
LIB_ZNDXPRCORYDEAP__W_7USX_LOCAL_COMPLETE__e8__s20260927
     RDKit          3D

 57 61  0  0  0  0  0  0  0  0999 V2000
  131.0450  184.3390  163.2980 O   0  0  0  0  0  0  0  0  0  0  0  0
  131.9680  185.0080  162.8510 C   0  0  0  0  0  0  0  0  0  0  0  0
  131.8210  186.1860  162.1350 N   0  0  0  0  0  0  0  0  0  0  0  0
  130.6280  186.9060  161.8980 C   0  0  0  0  0  0  0  0  0  0  0  0
  130.3190  187.2110  160.5680 C   0  0  0  0  0  0  0  0  0  0  0  0
  129.1620  187.9240  160.2550 C   0  0  0  0  0  0  0  0  0  0  0  0
  128.3020  188.3380  161.2710 C   0  0  0  0  0  0  0  0  0  0  0  0
  128.5850  188.0430  162.6120 C   0  0  0  0  0  0  0  0  0  0  0  0
  127.6590  188.5090  163.6760 C   0  0  0  0  0  0  0  0  0  0  0  0
  128.1190  189.3010  164.6690 C   0  0  0  0  0  0  0  0  0  0  0  0
  127.2350  189.7050  165.6460 N   0  0  0  0  0  0  0  0  0  0  0  0
  127.3800  190.4920  166.7550 C   0  0  0  0  0  0  0  0  0  0  0  0
  126.1300  190.5240  167.3360 C   0  0  0  0  0  0  0  0  0  0  0  0
  125.2240  189.7800  166.6180 N   0  0  0  0  0  0  0  0  0  0  0  0
  125.9290  189.3070  165.6110 C   0  0  0  0  0  0  0  0  0  0  0  0
  125.4790  188.4460  164.5300 C   0  0  0  0  0  0  0  0  0  0  0  0
  124.1730  188.0290  164.4740 N   0  0  0  0  0  0  0  0  0  0  0  0
  123.6360  187.1980  163.4320 C   0  0  0  0  0  0  0  0  0  0  0  0
  122.4290  186.4580  163.9490 C   0  0  0  0  0  0  0  0  0  0  0  0
  122.5750  185.3650  164.8090 C   0  0  0  0  0  0  0  0  0  0  0  0
  121.4340  184.7340  165.2790 C   0  0  0  0  0  0  0  0  0  0  0  0
  120.1790  185.1140  164.9590 N   0  0  0  0  0  0  0  0  0  0  0  0
  120.0590  186.1800  164.1420 C   0  0  0  0  0  0  0  0  0  0  0  0
  121.1370  186.8790  163.6200 C   0  0  0  0  0  0  0  0  0  0  0  0
  126.3390  188.0710  163.6100 N   0  0  0  0  0  0  0  0  0  0  0  0
  129.7650  187.3380  162.9110 C   0  0  0  0  0  0  0  0  0  0  0  0
  133.3120  184.6880  162.9850 N   0  0  0  0  0  0  0  0  0  0  0  0
  133.8700  183.5250  163.5550 C   0  0  0  0  0  0  0  0  0  0  0  0
  135.0510  183.6820  164.2930 C   0  0  0  0  0  0  0  0  0  0  0  0
  135.6690  182.5790  164.8860 C   0  0  0  0  0  0  0  0  0  0  0  0
  135.1110  181.3160  164.7390 C   0  0  0  0  0  0  0  0  0  0  0  0
  135.7200  180.2710  165.3140 F   0  0  0  0  0  0  0  0  0  0  0  0
  133.9440  181.1270  164.0060 C   0  0  0  0  0  0  0  0  0  0  0  0
  133.3830  179.7440  163.8730 C   0  0  0  0  0  0  0  0  0  0  0  0
  132.8270  179.2720  165.0260 F   0  0  0  0  0  0  0  0  0  0  0  0
  134.3210  178.8240  163.5170 F   0  0  0  0  0  0  0  0  0  0  0  0
  132.3970  179.6620  162.9360 F   0  0  0  0  0  0  0  0  0  0  0  0
  133.3260  182.2430  163.4130 C   0  0  0  0  0  0  0  0  0  0  0  0
  132.6400  186.5310  161.6610 H   0  0  0  0  0  0  0  0  0  0  0  0
  130.9941  186.8858  159.7627 H   0  0  0  0  0  0  0  0  0  0  0  0
  128.9280  188.1597  159.2063 H   0  0  0  0  0  0  0  0  0  0  0  0
  127.3921  188.9019  161.0179 H   0  0  0  0  0  0  0  0  0  0  0  0
  129.1727  189.6155  164.6971 H   0  0  0  0  0  0  0  0  0  0  0  0
  128.2949  190.9910  167.1070 H   0  0  0  0  0  0  0  0  0  0  0  0
  125.8884  191.0748  168.2570 H   0  0  0  0  0  0  0  0  0  0  0  0
  123.5560  188.3550  165.2100 H   0  0  0  0  0  0  0  0  0  0  0  0
  123.3427  187.8255  162.5775 H   0  0  0  0  0  0  0  0  0  0  0  0
  124.3995  186.4740  163.1113 H   0  0  0  0  0  0  0  0  0  0  0  0
  123.5741  185.0136  165.1061 H   0  0  0  0  0  0  0  0  0  0  0  0
  121.5585  183.8731  165.9523 H   0  0  0  0  0  0  0  0  0  0  0  0
  119.0462  186.5149  163.8737 H   0  0  0  0  0  0  0  0  0  0  0  0
  120.9790  187.7458  162.9614 H   0  0  0  0  0  0  0  0  0  0  0  0
  130.0138  187.1224  163.9606 H   0  0  0  0  0  0  0  0  0  0  0  0
  133.9670  185.4000  162.7000 H   0  0  0  0  0  0  0  0  0  0  0  0
  135.4948  184.6822  164.4061 H   0  0  0  0  0  0  0  0  0  0  0  0
  136.5938  182.7101  165.4670 H   0  0  0  0  0  0  0  0  0  0  0  0
  132.4032  182.1065  162.8301 H   0  0  0  0  0  0  0  0  0  0  0  0
  1  2  2  0
  2  3  1  0
  3  4  1  0
  4  5  2  0
  5  6  1  0
  6  7  2  0
  7  8  1  0
  8  9  1  0
  9 10  2  0
 10 11  1  0
 11 12  1  0
 12 13  2  0
 13 14  1  0
 14 15  2  0
 15 16  1  0
 16 17  1  0
 17 18  1  0
 18 19  1  0
 19 20  2  0
 20 21  1  0
 21 22  2  0
 22 23  1  0
 23 24  2  0
 16 25  2  0
  8 26  2  0
  2 27  1  0
 27 28  1  0
 28 29  2  0
 29 30  1  0
 30 31  2  0
 31 32  1  0
 31 33  1  0
 33 34  1  0
 34 35  1  0
 34 36  1  0
 34 37  1  0
 33 38  2  0
 26  4  1  0
 38 28  1  0
 25  9  1  0
 15 11  1  0
 24 19  1  0
  3 39  1  0
  5 40  1  0
  6 41  1  0
  7 42  1  0
 10 43  1  0
 12 44  1  0
 13 45  1  0
 17 46  1  0
 18 47  1  0
 18 48  1  0
 20 49  1  0
 21 50  1  0
 23 51  1  0
 24 52  1  0
 26 53  1  0
 27 54  1  0
 29 55  1  0
 30 56  1  0
 38 57  1  0
M  END
>  <meeko>  (8) 
{"is_sidechain": [false], "free_energy": -8.729, "intermolecular_energy": -11.952, "internal_energy": -0.735}

$$$$
LIB_ZNDXPRCORYDEAP__W_7USX_LOCAL_COMPLETE__e8__s20260927
     RDKit          3D

 57 61  0  0  0  0  0  0  0  0999 V2000
  131.3660  184.1810  162.9140 O   0  0  0  0  0  0  0  0  0  0  0  0
  132.3390  184.8150  162.5290 C   0  0  0  0  0  0  0  0  0  0  0  0
  132.2840  185.9510  161.7340 N   0  0  0  0  0  0  0  0  0  0  0  0
  131.1320  186.6630  161.3320 C   0  0  0  0  0  0  0  0  0  0  0  0
  131.0350  187.0110  159.9800 C   0  0  0  0  0  0  0  0  0  0  0  0
  129.9310  187.7200  159.5070 C   0  0  0  0  0  0  0  0  0  0  0  0
  128.9120  188.0870  160.3850 C   0  0  0  0  0  0  0  0  0  0  0  0
  128.9810  187.7500  161.7430 C   0  0  0  0  0  0  0  0  0  0  0  0
  127.8880  188.1680  162.6580 C   0  0  0  0  0  0  0  0  0  0  0  0
  126.7750  188.7460  162.1570 C   0  0  0  0  0  0  0  0  0  0  0  0
  125.7870  189.1320  163.0360 N   0  0  0  0  0  0  0  0  0  0  0  0
  124.5680  189.7250  162.8530 C   0  0  0  0  0  0  0  0  0  0  0  0
  124.0410  189.8580  164.1200 C   0  0  0  0  0  0  0  0  0  0  0  0
  124.9000  189.3660  165.0740 N   0  0  0  0  0  0  0  0  0  0  0  0
  125.9360  188.9390  164.3800 C   0  0  0  0  0  0  0  0  0  0  0  0
  127.1540  188.3240  164.8770 C   0  0  0  0  0  0  0  0  0  0  0  0
  127.3300  188.1220  166.2230 N   0  0  0  0  0  0  0  0  0  0  0  0
  128.4890  187.5010  166.8010 C   0  0  0  0  0  0  0  0  0  0  0  0
  129.4670  188.5620  167.2340 C   0  0  0  0  0  0  0  0  0  0  0  0
  129.4010  189.1160  168.5160 C   0  0  0  0  0  0  0  0  0  0  0  0
  130.3400  190.0700  168.8760 C   0  0  0  0  0  0  0  0  0  0  0  0
  131.3260  190.4990  168.0600 N   0  0  0  0  0  0  0  0  0  0  0  0
  131.3830  189.9410  166.8330 C   0  0  0  0  0  0  0  0  0  0  0  0
  130.4920  188.9800  166.3800 C   0  0  0  0  0  0  0  0  0  0  0  0
  128.0850  187.9650  164.0220 N   0  0  0  0  0  0  0  0  0  0  0  0
  130.1110  187.0500  162.2050 C   0  0  0  0  0  0  0  0  0  0  0  0
  133.6580  184.4950  162.8220 N   0  0  0  0  0  0  0  0  0  0  0  0
  134.1370  183.3640  163.5140 C   0  0  0  0  0  0  0  0  0  0  0  0
  135.2330  183.5570  164.3660 C   0  0  0  0  0  0  0  0  0  0  0  0
  135.7720  182.4870  165.0850 C   0  0  0  0  0  0  0  0  0  0  0  0
  135.2180  181.2200  164.9490 C   0  0  0  0  0  0  0  0  0  0  0  0
  135.7490  180.2070  165.6460 F   0  0  0  0  0  0  0  0  0  0  0  0
  134.1350  180.9960  164.1060 C   0  0  0  0  0  0  0  0  0  0  0  0
  133.5760  179.6100  163.9920 C   0  0  0  0  0  0  0  0  0  0  0  0
  133.1380  179.1030  165.1790 F   0  0  0  0  0  0  0  0  0  0  0  0
  134.4840  178.7100  163.5240 F   0  0  0  0  0  0  0  0  0  0  0  0
  132.5060  179.5400  163.1510 F   0  0  0  0  0  0  0  0  0  0  0  0
  133.5980  182.0790  163.3870 C   0  0  0  0  0  0  0  0  0  0  0  0
  133.1530  186.2610  161.3290 H   0  0  0  0  0  0  0  0  0  0  0  0
  131.8367  186.7228  159.2841 H   0  0  0  0  0  0  0  0  0  0  0  0
  129.8643  187.9893  158.4426 H   0  0  0  0  0  0  0  0  0  0  0  0
  128.0442  188.6474  160.0071 H   0  0  0  0  0  0  0  0  0  0  0  0
  126.6603  188.9045  161.0745 H   0  0  0  0  0  0  0  0  0  0  0  0
  124.1080  190.0297  161.9014 H   0  0  0  0  0  0  0  0  0  0  0  0
  123.0585  190.3013  164.3396 H   0  0  0  0  0  0  0  0  0  0  0  0
  126.5730  188.4160  166.8330 H   0  0  0  0  0  0  0  0  0  0  0  0
  128.1873  186.9030  167.6736 H   0  0  0  0  0  0  0  0  0  0  0  0
  128.9647  186.8482  166.0543 H   0  0  0  0  0  0  0  0  0  0  0  0
  128.6203  188.8014  169.2241 H   0  0  0  0  0  0  0  0  0  0  0  0
  130.2780  190.5027  169.8854 H   0  0  0  0  0  0  0  0  0  0  0  0
  132.1830  190.2675  166.1522 H   0  0  0  0  0  0  0  0  0  0  0  0
  130.5896  188.5554  165.3700 H   0  0  0  0  0  0  0  0  0  0  0  0
  130.1925  186.8026  163.2737 H   0  0  0  0  0  0  0  0  0  0  0  0
  134.3490  185.1840  162.5670 H   0  0  0  0  0  0  0  0  0  0  0  0
  135.6728  184.5599  164.4696 H   0  0  0  0  0  0  0  0  0  0  0  0
  136.6299  182.6467  165.7548 H   0  0  0  0  0  0  0  0  0  0  0  0
  132.7425  181.9135  162.7156 H   0  0  0  0  0  0  0  0  0  0  0  0
  1  2  2  0
  2  3  1  0
  3  4  1  0
  4  5  2  0
  5  6  1  0
  6  7  2  0
  7  8  1  0
  8  9  1  0
  9 10  2  0
 10 11  1  0
 11 12  1  0
 12 13  2  0
 13 14  1  0
 14 15  2  0
 15 16  1  0
 16 17  1  0
 17 18  1  0
 18 19  1  0
 19 20  2  0
 20 21  1  0
 21 22  2  0
 22 23  1  0
 23 24  2  0
 16 25  2  0
  8 26  2  0
  2 27  1  0
 27 28  1  0
 28 29  2  0
 29 30  1  0
 30 31  2  0
 31 32  1  0
 31 33  1  0
 33 34  1  0
 34 35  1  0
 34 36  1  0
 34 37  1  0
 33 38  2  0
 26  4  1  0
 38 28  1  0
 25  9  1  0
 15 11  1  0
 24 19  1  0
  3 39  1  0
  5 40  1  0
  6 41  1  0
  7 42  1  0
 10 43  1  0
 12 44  1  0
 13 45  1  0
 17 46  1  0
 18 47  1  0
 18 48  1  0
 20 49  1  0
 21 50  1  0
 23 51  1  0
 24 52  1  0
 26 53  1  0
 27 54  1  0
 29 55  1  0
 30 56  1  0
 38 57  1  0
M  END
>  <meeko>  (9) 
{"is_sidechain": [false], "free_energy": -8.593, "intermolecular_energy": -11.452, "internal_energy": -1.053}

$$$$
