
     RDKit          3D

 69 74  0  0  0  0  0  0  0  0999 V2000
   -9.6255   -1.5376    0.7516 C   0  0  0  0  0  0  0  0  0  0  0  0
   -8.9587   -1.3588   -0.5791 N   0  0  0  0  0  0  0  0  0  0  0  0
   -8.8647    0.0970   -1.0248 C   0  0  0  0  0  0  0  0  0  0  0  0
   -7.7931    0.8754   -0.2356 C   0  0  0  0  0  0  0  0  0  0  0  0
   -6.5023    0.1700   -0.2570 N   0  0  0  0  0  0  0  0  0  0  0  0
   -5.3333    0.8816    0.0258 C   0  0  0  0  0  0  0  0  0  0  0  0
   -5.3308    2.0507    0.7996 C   0  0  0  0  0  0  0  0  0  0  0  0
   -4.1455    2.7361    1.0808 C   0  0  0  0  0  0  0  0  0  0  0  0
   -2.9315    2.2691    0.5846 C   0  0  0  0  0  0  0  0  0  0  0  0
   -2.8924    1.1171   -0.2025 C   0  0  0  0  0  0  0  0  0  0  0  0
   -1.6414    0.6260   -0.7568 C   0  0  0  0  0  0  0  0  0  0  0  0
   -1.3733    0.0752   -2.0262 C   0  0  0  0  0  0  0  0  0  0  0  0
   -0.1036   -0.2916   -2.1870 N   0  0  0  0  0  0  0  0  0  0  0  0
    0.4935    0.0351   -1.0002 N   0  0  0  0  0  0  0  0  0  0  0  0
    1.8637   -0.1439   -0.6628 C   0  0  0  0  0  0  0  0  0  0  0  0
    2.6750   -0.6824   -1.6423 N   0  0  0  0  0  0  0  0  0  0  0  0
    2.2709    0.2326    0.5704 C   0  0  0  0  0  0  0  0  0  0  0  0
    3.6496    0.1136    1.0628 C   0  0  0  0  0  0  0  0  0  0  0  0
    4.3909    1.2613    1.3665 C   0  0  0  0  0  0  0  0  0  0  0  0
    5.6998    1.1525    1.8469 C   0  0  0  0  0  0  0  0  0  0  0  0
    6.2834   -0.1019    2.0177 C   0  0  0  0  0  0  0  0  0  0  0  0
    7.6132   -0.2534    2.5005 N   0  0  0  0  0  0  0  0  0  0  0  0
    8.9007    0.5242    1.7334 S   0  0  0  0  0  0  0  0  0  0  0  0
    8.6871    1.9541    1.8252 O   0  0  0  0  0  0  0  0  0  0  0  0
   10.1222   -0.0669    2.2317 O   0  0  0  0  0  0  0  0  0  0  0  0
    8.7334    0.0603    0.0264 C   0  0  0  0  0  0  0  0  0  0  0  0
    8.5583    1.0899   -0.9146 C   0  0  0  0  0  0  0  0  0  0  0  0
    8.4217    0.7895   -2.2670 C   0  0  0  0  0  0  0  0  0  0  0  0
    8.4586   -0.5375   -2.6843 C   0  0  0  0  0  0  0  0  0  0  0  0
    8.6351   -1.5663   -1.7511 C   0  0  0  0  0  0  0  0  0  0  0  0
    8.6468   -3.1839   -2.3700 Cl  0  0  0  0  0  0  0  0  0  0  0  0
    8.7806   -1.2793   -0.3822 C   0  0  0  0  0  0  0  0  0  0  0  0
    8.9821   -2.5830    0.7457 Cl  0  0  0  0  0  0  0  0  0  0  0  0
    5.5415   -1.2509    1.7386 C   0  0  0  0  0  0  0  0  0  0  0  0
    4.2332   -1.1445    1.2578 C   0  0  0  0  0  0  0  0  0  0  0  0
    1.2054    0.8069    1.4532 C   0  0  0  0  0  0  0  0  0  0  0  0
   -0.0472    0.9790    1.1587 N   0  0  0  0  0  0  0  0  0  0  0  0
   -0.4236    0.5932   -0.0992 C   0  0  0  0  0  0  0  0  0  0  0  0
   -4.0949    0.4417   -0.4765 C   0  0  0  0  0  0  0  0  0  0  0  0
   -6.5105   -1.2584    0.1113 C   0  0  0  0  0  0  0  0  0  0  0  0
   -7.5924   -2.0303   -0.6707 C   0  0  0  0  0  0  0  0  0  0  0  0
  -10.6203   -1.0883    0.6925 H   0  0  0  0  0  0  0  0  0  0  0  0
   -9.7148   -2.6104    0.9416 H   0  0  0  0  0  0  0  0  0  0  0  0
   -9.0280   -1.0553    1.5278 H   0  0  0  0  0  0  0  0  0  0  0  0
   -9.5560   -1.8308   -1.2695 H   0  0  0  0  0  0  0  0  0  0  0  0
   -8.6133    0.0685   -2.0912 H   0  0  0  0  0  0  0  0  0  0  0  0
   -9.8578    0.5434   -0.9108 H   0  0  0  0  0  0  0  0  0  0  0  0
   -8.1242    1.0173    0.8000 H   0  0  0  0  0  0  0  0  0  0  0  0
   -7.6997    1.8658   -0.6981 H   0  0  0  0  0  0  0  0  0  0  0  0
   -6.2465    2.4465    1.2283 H   0  0  0  0  0  0  0  0  0  0  0  0
   -4.1661    3.6344    1.6934 H   0  0  0  0  0  0  0  0  0  0  0  0
   -2.0196    2.8173    0.8135 H   0  0  0  0  0  0  0  0  0  0  0  0
   -2.0593   -0.0705   -2.8506 H   0  0  0  0  0  0  0  0  0  0  0  0
    3.6738   -0.7736   -1.5136 H   0  0  0  0  0  0  0  0  0  0  0  0
    2.2446   -0.8893   -2.5427 H   0  0  0  0  0  0  0  0  0  0  0  0
    3.9618    2.2530    1.2344 H   0  0  0  0  0  0  0  0  0  0  0  0
    6.2413    2.0609    2.1005 H   0  0  0  0  0  0  0  0  0  0  0  0
    7.8942   -1.1625    2.8704 H   0  0  0  0  0  0  0  0  0  0  0  0
    8.5326    2.1338   -0.6029 H   0  0  0  0  0  0  0  0  0  0  0  0
    8.2912    1.5885   -2.9943 H   0  0  0  0  0  0  0  0  0  0  0  0
    8.3526   -0.7673   -3.7428 H   0  0  0  0  0  0  0  0  0  0  0  0
    5.9687   -2.2397    1.8860 H   0  0  0  0  0  0  0  0  0  0  0  0
    3.6722   -2.0526    1.0423 H   0  0  0  0  0  0  0  0  0  0  0  0
    1.5415    1.1047    2.4617 H   0  0  0  0  0  0  0  0  0  0  0  0
   -4.0618   -0.4413   -1.1093 H   0  0  0  0  0  0  0  0  0  0  0  0
   -5.5512   -1.7459   -0.0928 H   0  0  0  0  0  0  0  0  0  0  0  0
   -6.6902   -1.3491    1.1895 H   0  0  0  0  0  0  0  0  0  0  0  0
   -7.3452   -2.0622   -1.7380 H   0  0  0  0  0  0  0  0  0  0  0  0
   -7.7026   -3.0566   -0.3061 H   0  0  0  0  0  0  0  0  0  0  0  0
  1  2  1  0
  2  3  1  0
  3  4  1  0
  4  5  1  0
  5  6  1  0
  6  7  2  0
  7  8  1  0
  8  9  2  0
  9 10  1  0
 10 11  1  0
 11 12  1  0
 12 13  2  0
 13 14  1  0
 14 15  1  0
 15 16  1  0
 15 17  2  0
 17 18  1  0
 18 19  2  0
 19 20  1  0
 20 21  2  0
 21 22  1  0
 22 23  1  0
 23 24  2  0
 23 25  2  0
 23 26  1  0
 26 27  2  0
 27 28  1  0
 28 29  2  0
 29 30  1  0
 30 31  1  0
 30 32  2  0
 32 33  1  0
 21 34  1  0
 34 35  2  0
 17 36  1  0
 36 37  2  0
 37 38  1  0
 10 39  2  0
  5 40  1  0
 40 41  1  0
 41  2  1  0
 39  6  1  0
 38 11  2  0
 38 14  1  0
 35 18  1  0
 32 26  1  0
  1 42  1  0
  1 43  1  0
  1 44  1  0
  2 45  1  0
  3 46  1  0
  3 47  1  0
  4 48  1  0
  4 49  1  0
  7 50  1  0
  8 51  1  0
  9 52  1  0
 12 53  1  0
 16 54  1  0
 16 55  1  0
 19 56  1  0
 20 57  1  0
 22 58  1  0
 27 59  1  0
 28 60  1  0
 29 61  1  0
 34 62  1  0
 35 63  1  0
 36 64  1  0
 39 65  1  0
 40 66  1  0
 40 67  1  0
 41 68  1  0
 41 69  1  0
M  CHG  1   2   1
M  END
$$$$
