
     RDKit          3D

 71 75  0  0  0  0  0  0  0  0999 V2000
   10.9897    3.4544   -0.4203 C   0  0  0  0  0  0  0  0  0  0  0  0
   10.0712    2.5010    0.3410 C   0  0  0  0  0  0  0  0  0  0  0  0
   10.7819    1.1706    0.5995 C   0  0  0  0  0  0  0  0  0  0  0  0
    8.7598    2.2934   -0.4271 C   0  0  0  0  0  0  0  0  0  0  0  0
    7.8718    1.4955    0.3702 O   0  0  0  0  0  0  0  0  0  0  0  0
    6.6773    1.2207   -0.2189 C   0  0  0  0  0  0  0  0  0  0  0  0
    6.3529    1.6179   -1.3269 O   0  0  0  0  0  0  0  0  0  0  0  0
    5.9507    0.4524    0.6459 N   0  0  0  0  0  0  0  0  0  0  0  0
    4.6649   -0.0826    0.4700 C   0  0  0  0  0  0  0  0  0  0  0  0
    3.9099    0.0789   -0.6927 C   0  0  0  0  0  0  0  0  0  0  0  0
    2.6331   -0.4865   -0.7964 C   0  0  0  0  0  0  0  0  0  0  0  0
    2.0922   -1.2217    0.2632 C   0  0  0  0  0  0  0  0  0  0  0  0
    0.7446   -1.7960    0.1529 C   0  0  0  0  0  0  0  0  0  0  0  0
   -0.4431   -0.8962    0.0056 C   0  0  0  0  0  0  0  0  0  0  0  0
   -1.6895   -1.2456   -0.1027 N   0  0  0  0  0  0  0  0  0  0  0  0
   -1.9297   -2.5959   -0.0810 C   0  0  0  0  0  0  0  0  0  0  0  0
   -3.0954   -3.3393   -0.1827 C   0  0  0  0  0  0  0  0  0  0  0  0
   -4.4353   -2.8014   -0.3588 C   0  0  0  0  0  0  0  0  0  0  0  0
   -5.3624   -3.4755   -1.1543 C   0  0  0  0  0  0  0  0  0  0  0  0
   -6.6476   -2.9646   -1.3072 C   0  0  0  0  0  0  0  0  0  0  0  0
   -7.0111   -1.7679   -0.6791 C   0  0  0  0  0  0  0  0  0  0  0  0
   -6.1071   -1.0452    0.1132 C   0  0  0  0  0  0  0  0  0  0  0  0
   -6.4347    0.1607    0.7244 N   0  0  0  0  0  0  0  0  0  0  0  0
   -5.4397    1.2504    0.7392 C   0  0  0  0  0  0  0  0  0  0  0  0
   -5.7498    2.2454   -0.4008 C   0  0  0  0  0  0  0  0  0  0  0  0
   -7.1926    2.7590   -0.2845 N   0  0  0  0  0  0  0  0  0  0  0  0
   -7.5206    3.7465   -1.3607 C   0  0  0  0  0  0  0  0  0  0  0  0
   -8.1945    1.5973   -0.2452 C   0  0  0  0  0  0  0  0  0  0  0  0
   -7.8263    0.6062    0.8802 C   0  0  0  0  0  0  0  0  0  0  0  0
   -4.8293   -1.6112    0.2766 C   0  0  0  0  0  0  0  0  0  0  0  0
   -2.6684   -4.6813   -0.1102 C   0  0  0  0  0  0  0  0  0  0  0  0
   -1.3512   -4.8095    0.0306 N   0  0  0  0  0  0  0  0  0  0  0  0
   -0.8862   -3.5255    0.0475 N   0  0  0  0  0  0  0  0  0  0  0  0
    0.4716   -3.1196    0.1643 C   0  0  0  0  0  0  0  0  0  0  0  0
    1.4102   -4.1273    0.2640 N   0  0  0  0  0  0  0  0  0  0  0  0
    2.8485   -1.3841    1.4291 C   0  0  0  0  0  0  0  0  0  0  0  0
    4.1253   -0.8211    1.5291 C   0  0  0  0  0  0  0  0  0  0  0  0
   10.5033    4.4235   -0.5734 H   0  0  0  0  0  0  0  0  0  0  0  0
   11.2568    3.0500   -1.4026 H   0  0  0  0  0  0  0  0  0  0  0  0
   11.9159    3.6304    0.1369 H   0  0  0  0  0  0  0  0  0  0  0  0
    9.8368    2.9430    1.3178 H   0  0  0  0  0  0  0  0  0  0  0  0
   11.0241    0.6615   -0.3396 H   0  0  0  0  0  0  0  0  0  0  0  0
   11.7164    1.3309    1.1478 H   0  0  0  0  0  0  0  0  0  0  0  0
   10.1588    0.4986    1.1985 H   0  0  0  0  0  0  0  0  0  0  0  0
    8.9528    1.7872   -1.3811 H   0  0  0  0  0  0  0  0  0  0  0  0
    8.2864    3.2633   -0.6222 H   0  0  0  0  0  0  0  0  0  0  0  0
    6.4341    0.2663    1.5137 H   0  0  0  0  0  0  0  0  0  0  0  0
    4.2893    0.6348   -1.5454 H   0  0  0  0  0  0  0  0  0  0  0  0
    2.0779   -0.3525   -1.7228 H   0  0  0  0  0  0  0  0  0  0  0  0
   -0.2125    0.1832   -0.0039 H   0  0  0  0  0  0  0  0  0  0  0  0
   -5.0978   -4.3986   -1.6651 H   0  0  0  0  0  0  0  0  0  0  0  0
   -7.3693   -3.4981   -1.9218 H   0  0  0  0  0  0  0  0  0  0  0  0
   -8.0244   -1.4209   -0.8497 H   0  0  0  0  0  0  0  0  0  0  0  0
   -4.4038    0.9142    0.6423 H   0  0  0  0  0  0  0  0  0  0  0  0
   -5.5071    1.7716    1.7024 H   0  0  0  0  0  0  0  0  0  0  0  0
   -5.0940    3.1197   -0.3416 H   0  0  0  0  0  0  0  0  0  0  0  0
   -5.6572    1.7718   -1.3844 H   0  0  0  0  0  0  0  0  0  0  0  0
   -7.2616    3.2434    0.6192 H   0  0  0  0  0  0  0  0  0  0  0  0
   -7.4476    3.2467   -2.3302 H   0  0  0  0  0  0  0  0  0  0  0  0
   -6.8078    4.5723   -1.2915 H   0  0  0  0  0  0  0  0  0  0  0  0
   -8.5349    4.1138   -1.1853 H   0  0  0  0  0  0  0  0  0  0  0  0
   -8.1665    1.1202   -1.2306 H   0  0  0  0  0  0  0  0  0  0  0  0
   -9.1827    2.0337   -0.0695 H   0  0  0  0  0  0  0  0  0  0  0  0
   -7.9161    1.1213    1.8453 H   0  0  0  0  0  0  0  0  0  0  0  0
   -8.5373   -0.2257    0.9218 H   0  0  0  0  0  0  0  0  0  0  0  0
   -4.1157   -1.1398    0.9485 H   0  0  0  0  0  0  0  0  0  0  0  0
   -3.2718   -5.5796   -0.1507 H   0  0  0  0  0  0  0  0  0  0  0  0
    2.4028   -3.9318    0.2523 H   0  0  0  0  0  0  0  0  0  0  0  0
    1.0705   -5.0876    0.2174 H   0  0  0  0  0  0  0  0  0  0  0  0
    2.4524   -1.9510    2.2700 H   0  0  0  0  0  0  0  0  0  0  0  0
    4.6885   -0.9679    2.4478 H   0  0  0  0  0  0  0  0  0  0  0  0
  1  2  1  0
  2  3  1  0
  2  4  1  0
  4  5  1  0
  5  6  1  0
  6  7  2  0
  6  8  1  0
  8  9  1  0
  9 10  2  0
 10 11  1  0
 11 12  2  0
 12 13  1  0
 13 14  1  0
 14 15  2  0
 15 16  1  0
 16 17  2  0
 17 18  1  0
 18 19  2  0
 19 20  1  0
 20 21  2  0
 21 22  1  0
 22 23  1  0
 23 24  1  0
 24 25  1  0
 25 26  1  0
 26 27  1  0
 26 28  1  0
 28 29  1  0
 22 30  2  0
 17 31  1  0
 31 32  2  0
 32 33  1  0
 33 34  1  0
 34 35  1  0
 12 36  1  0
 36 37  2  0
 37  9  1  0
 34 13  2  0
 33 16  1  0
 30 18  1  0
 29 23  1  0
  1 38  1  0
  1 39  1  0
  1 40  1  0
  2 41  1  0
  3 42  1  0
  3 43  1  0
  3 44  1  0
  4 45  1  0
  4 46  1  0
  8 47  1  0
 10 48  1  0
 11 49  1  0
 14 50  1  0
 19 51  1  0
 20 52  1  0
 21 53  1  0
 24 54  1  0
 24 55  1  0
 25 56  1  0
 25 57  1  0
 26 58  1  0
 27 59  1  0
 27 60  1  0
 27 61  1  0
 28 62  1  0
 28 63  1  0
 29 64  1  0
 29 65  1  0
 30 66  1  0
 31 67  1  0
 35 68  1  0
 35 69  1  0
 36 70  1  0
 37 71  1  0
M  CHG  1  26   1
M  END
$$$$
