
     RDKit          3D

 63 67  0  0  0  0  0  0  0  0999 V2000
    7.3859    0.8494    3.3837 C   0  0  0  0  0  0  0  0  0  0  0  0
    8.1294    1.3648    2.1820 N   0  0  0  0  0  0  0  0  0  0  0  0
    9.5107    1.8253    2.5411 C   0  0  0  0  0  0  0  0  0  0  0  0
    8.1493    0.3819    1.0309 C   0  0  0  0  0  0  0  0  0  0  0  0
    6.7877    0.1472    0.4371 C   0  0  0  0  0  0  0  0  0  0  0  0
    6.1856    1.1193   -0.3750 C   0  0  0  0  0  0  0  0  0  0  0  0
    4.8955    0.9230   -0.8788 C   0  0  0  0  0  0  0  0  0  0  0  0
    4.1803   -0.2425   -0.5775 C   0  0  0  0  0  0  0  0  0  0  0  0
    2.8346   -0.4256   -1.0933 C   0  0  0  0  0  0  0  0  0  0  0  0
    2.2879   -0.0656   -2.3393 C   0  0  0  0  0  0  0  0  0  0  0  0
    0.9983   -0.3685   -2.4559 N   0  0  0  0  0  0  0  0  0  0  0  0
    0.6627   -0.9327   -1.2619 N   0  0  0  0  0  0  0  0  0  0  0  0
   -0.5933   -1.4176   -0.8456 C   0  0  0  0  0  0  0  0  0  0  0  0
   -1.7853   -1.3809   -1.7201 C   0  0  0  0  0  0  0  0  0  0  0  0
   -1.7484   -1.9362   -3.0046 C   0  0  0  0  0  0  0  0  0  0  0  0
   -2.8797   -1.9058   -3.8193 C   0  0  0  0  0  0  0  0  0  0  0  0
   -4.0608   -1.3248   -3.3552 C   0  0  0  0  0  0  0  0  0  0  0  0
   -4.1240   -0.7675   -2.0736 C   0  0  0  0  0  0  0  0  0  0  0  0
   -5.3533   -0.2001   -1.6743 N   0  0  0  0  0  0  0  0  0  0  0  0
   -5.6730    0.3111   -0.4291 C   0  0  0  0  0  0  0  0  0  0  0  0
   -4.9773    0.2745    0.5792 O   0  0  0  0  0  0  0  0  0  0  0  0
   -7.0310    0.9174   -0.3252 C   0  0  0  0  0  0  0  0  0  0  0  0
   -7.6039    1.6314   -1.3848 C   0  0  0  0  0  0  0  0  0  0  0  0
   -8.8780    2.1839   -1.2442 C   0  0  0  0  0  0  0  0  0  0  0  0
   -9.5783    2.0366   -0.0452 C   0  0  0  0  0  0  0  0  0  0  0  0
   -9.0076    1.3483    1.0364 C   0  0  0  0  0  0  0  0  0  0  0  0
   -9.7622    1.1786    2.3329 C   0  0  0  0  0  0  0  0  0  0  0  0
   -8.9581    1.2550    3.4289 F   0  0  0  0  0  0  0  0  0  0  0  0
  -10.7323    2.1165    2.5165 F   0  0  0  0  0  0  0  0  0  0  0  0
  -10.3873   -0.0280    2.4085 F   0  0  0  0  0  0  0  0  0  0  0  0
   -7.7287    0.7881    0.8837 C   0  0  0  0  0  0  0  0  0  0  0  0
   -2.9808   -0.7909   -1.2699 C   0  0  0  0  0  0  0  0  0  0  0  0
   -0.7123   -1.9417    0.3891 C   0  0  0  0  0  0  0  0  0  0  0  0
    0.5161   -1.9462    1.2195 C   0  0  0  0  0  0  0  0  0  0  0  0
    1.6854   -1.5063    0.8684 N   0  0  0  0  0  0  0  0  0  0  0  0
    1.7760   -0.9872   -0.3991 C   0  0  0  0  0  0  0  0  0  0  0  0
    4.7912   -1.2192    0.2172 C   0  0  0  0  0  0  0  0  0  0  0  0
    6.0814   -1.0294    0.7198 C   0  0  0  0  0  0  0  0  0  0  0  0
    7.4364    1.6119    4.1659 H   0  0  0  0  0  0  0  0  0  0  0  0
    6.3416    0.6870    3.1080 H   0  0  0  0  0  0  0  0  0  0  0  0
    7.8587   -0.0787    3.7158 H   0  0  0  0  0  0  0  0  0  0  0  0
    7.6090    2.1864    1.8506 H   0  0  0  0  0  0  0  0  0  0  0  0
    9.9654    2.2682    1.6511 H   0  0  0  0  0  0  0  0  0  0  0  0
    9.4251    2.5818    3.3258 H   0  0  0  0  0  0  0  0  0  0  0  0
   10.0869    0.9637    2.8888 H   0  0  0  0  0  0  0  0  0  0  0  0
    8.8110    0.7955    0.2601 H   0  0  0  0  0  0  0  0  0  0  0  0
    8.6025   -0.5466    1.3983 H   0  0  0  0  0  0  0  0  0  0  0  0
    6.7055    2.0403   -0.6325 H   0  0  0  0  0  0  0  0  0  0  0  0
    4.4468    1.6996   -1.4965 H   0  0  0  0  0  0  0  0  0  0  0  0
    2.7825    0.4057   -3.1792 H   0  0  0  0  0  0  0  0  0  0  0  0
   -0.8364   -2.3910   -3.3864 H   0  0  0  0  0  0  0  0  0  0  0  0
   -2.8393   -2.3344   -4.8177 H   0  0  0  0  0  0  0  0  0  0  0  0
   -4.9276   -1.3189   -4.0110 H   0  0  0  0  0  0  0  0  0  0  0  0
   -6.0900   -0.2214   -2.3677 H   0  0  0  0  0  0  0  0  0  0  0  0
   -7.0629    1.7926   -2.3135 H   0  0  0  0  0  0  0  0  0  0  0  0
   -9.3243    2.7401   -2.0663 H   0  0  0  0  0  0  0  0  0  0  0  0
  -10.5725    2.4740    0.0477 H   0  0  0  0  0  0  0  0  0  0  0  0
   -7.2719    0.2468    1.7131 H   0  0  0  0  0  0  0  0  0  0  0  0
   -2.9943   -0.3363   -0.2841 H   0  0  0  0  0  0  0  0  0  0  0  0
   -1.6236   -2.3487    0.8071 H   0  0  0  0  0  0  0  0  0  0  0  0
    0.3927   -2.3720    2.2295 H   0  0  0  0  0  0  0  0  0  0  0  0
    4.2619   -2.1419    0.4534 H   0  0  0  0  0  0  0  0  0  0  0  0
    6.5140   -1.8154    1.3364 H   0  0  0  0  0  0  0  0  0  0  0  0
  1  2  1  0
  2  3  1  0
  2  4  1  0
  4  5  1  0
  5  6  2  0
  6  7  1  0
  7  8  2  0
  8  9  1  0
  9 10  1  0
 10 11  2  0
 11 12  1  0
 12 13  1  0
 13 14  1  0
 14 15  2  0
 15 16  1  0
 16 17  2  0
 17 18  1  0
 18 19  1  0
 19 20  1  0
 20 21  2  0
 20 22  1  0
 22 23  2  0
 23 24  1  0
 24 25  2  0
 25 26  1  0
 26 27  1  0
 27 28  1  0
 27 29  1  0
 27 30  1  0
 26 31  2  0
 18 32  2  0
 13 33  2  0
 33 34  1  0
 34 35  2  0
 35 36  1  0
  8 37  1  0
 37 38  2  0
 38  5  1  0
 36  9  2  0
 36 12  1  0
 32 14  1  0
 31 22  1  0
  1 39  1  0
  1 40  1  0
  1 41  1  0
  2 42  1  0
  3 43  1  0
  3 44  1  0
  3 45  1  0
  4 46  1  0
  4 47  1  0
  6 48  1  0
  7 49  1  0
 10 50  1  0
 15 51  1  0
 16 52  1  0
 17 53  1  0
 19 54  1  0
 23 55  1  0
 24 56  1  0
 25 57  1  0
 31 58  1  0
 32 59  1  0
 33 60  1  0
 34 61  1  0
 37 62  1  0
 38 63  1  0
M  CHG  1   2   1
M  END
$$$$
