
     RDKit          3D

 69 73  0  0  0  0  0  0  0  0999 V2000
   -0.8331   -2.0052   -4.4864 C   0  0  0  0  0  0  0  0  0  0  0  0
   -1.1658   -1.2960   -3.2006 C   0  0  0  0  0  0  0  0  0  0  0  0
   -1.5972    0.0378   -3.2491 C   0  0  0  0  0  0  0  0  0  0  0  0
   -1.8692    0.7444   -2.0762 C   0  0  0  0  0  0  0  0  0  0  0  0
   -1.7620    0.1135   -0.8389 C   0  0  0  0  0  0  0  0  0  0  0  0
   -2.0425    0.7614    0.3806 N   0  0  0  0  0  0  0  0  0  0  0  0
   -1.9851    2.1230    0.5940 C   0  0  0  0  0  0  0  0  0  0  0  0
   -1.4832    2.9345   -0.1848 O   0  0  0  0  0  0  0  0  0  0  0  0
   -2.4869    2.6027    1.9088 C   0  0  0  0  0  0  0  0  0  0  0  0
   -3.1560    3.8310    1.9501 C   0  0  0  0  0  0  0  0  0  0  0  0
   -3.6292    4.3298    3.1638 C   0  0  0  0  0  0  0  0  0  0  0  0
   -3.4273    3.6098    4.3422 C   0  0  0  0  0  0  0  0  0  0  0  0
   -2.7504    2.3811    4.3208 C   0  0  0  0  0  0  0  0  0  0  0  0
   -2.4938    1.6157    5.5994 C   0  0  0  0  0  0  0  0  0  0  0  0
   -1.2309    1.8189    6.0627 F   0  0  0  0  0  0  0  0  0  0  0  0
   -3.3346    1.9485    6.6128 F   0  0  0  0  0  0  0  0  0  0  0  0
   -2.6166    0.2710    5.4260 F   0  0  0  0  0  0  0  0  0  0  0  0
   -2.2721    1.8856    3.0936 C   0  0  0  0  0  0  0  0  0  0  0  0
   -1.3747   -1.2270   -0.7860 C   0  0  0  0  0  0  0  0  0  0  0  0
   -1.0103   -1.9275   -1.9493 C   0  0  0  0  0  0  0  0  0  0  0  0
   -0.3934   -3.1968   -1.8781 N   0  0  0  0  0  0  0  0  0  0  0  0
    0.3325   -3.7344   -0.8636 C   0  0  0  0  0  0  0  0  0  0  0  0
    0.2517   -5.0044   -0.5409 N   0  0  0  0  0  0  0  0  0  0  0  0
    0.9164   -5.1317    0.6451 C   0  0  0  0  0  0  0  0  0  0  0  0
    1.0517   -6.2685    1.4571 C   0  0  0  0  0  0  0  0  0  0  0  0
    1.7755   -6.1686    2.6489 C   0  0  0  0  0  0  0  0  0  0  0  0
    2.3618   -4.9612    3.0216 C   0  0  0  0  0  0  0  0  0  0  0  0
    2.2455   -3.8205    2.2184 C   0  0  0  0  0  0  0  0  0  0  0  0
    1.5026   -3.9285    1.0299 C   0  0  0  0  0  0  0  0  0  0  0  0
    1.2305   -3.0562   -0.0229 N   0  0  0  0  0  0  0  0  0  0  0  0
    1.7868   -1.7446   -0.1732 C   0  0  0  0  0  0  0  0  0  0  0  0
    1.9397   -1.1917   -1.4302 C   0  0  0  0  0  0  0  0  0  0  0  0
    2.3490    0.1267   -1.5101 C   0  0  0  0  0  0  0  0  0  0  0  0
    2.4014    0.7363   -2.7487 N   0  0  0  0  0  0  0  0  0  0  0  0
    2.9676    2.0518   -2.9798 C   0  0  0  0  0  0  0  0  0  0  0  0
    1.8701    3.1099   -3.1207 C   0  0  0  0  0  0  0  0  0  0  0  0
    1.6400    3.9270   -1.8583 C   0  0  0  0  0  0  0  0  0  0  0  0
    1.0218    3.1248   -0.8005 N   0  0  0  0  0  0  0  0  0  0  0  0
    2.5940    0.8580   -0.4063 N   0  0  0  0  0  0  0  0  0  0  0  0
    2.5529    0.1908    0.7627 C   0  0  0  0  0  0  0  0  0  0  0  0
    2.1396   -1.0658    0.9386 N   0  0  0  0  0  0  0  0  0  0  0  0
   -1.4159   -2.9278   -4.5741 H   0  0  0  0  0  0  0  0  0  0  0  0
    0.2350   -2.2417   -4.5236 H   0  0  0  0  0  0  0  0  0  0  0  0
   -1.0683   -1.3869   -5.3591 H   0  0  0  0  0  0  0  0  0  0  0  0
   -1.7252    0.5384   -4.2075 H   0  0  0  0  0  0  0  0  0  0  0  0
   -2.2275    1.7664   -2.1625 H   0  0  0  0  0  0  0  0  0  0  0  0
   -2.2839    0.1519    1.1547 H   0  0  0  0  0  0  0  0  0  0  0  0
   -3.3237    4.4011    1.0381 H   0  0  0  0  0  0  0  0  0  0  0  0
   -4.1585    5.2808    3.1935 H   0  0  0  0  0  0  0  0  0  0  0  0
   -3.8015    4.0146    5.2834 H   0  0  0  0  0  0  0  0  0  0  0  0
   -1.7155    0.9503    3.0917 H   0  0  0  0  0  0  0  0  0  0  0  0
   -1.3093   -1.7284    0.1772 H   0  0  0  0  0  0  0  0  0  0  0  0
   -0.7893   -3.8719   -2.5291 H   0  0  0  0  0  0  0  0  0  0  0  0
    0.5947   -7.2067    1.1598 H   0  0  0  0  0  0  0  0  0  0  0  0
    1.8837   -7.0437    3.2861 H   0  0  0  0  0  0  0  0  0  0  0  0
    2.9291   -4.9065    3.9491 H   0  0  0  0  0  0  0  0  0  0  0  0
    2.7286   -2.8959    2.5162 H   0  0  0  0  0  0  0  0  0  0  0  0
    1.7433   -1.7576   -2.3319 H   0  0  0  0  0  0  0  0  0  0  0  0
    2.4042    0.1104   -3.5503 H   0  0  0  0  0  0  0  0  0  0  0  0
    3.7204    2.3253   -2.2314 H   0  0  0  0  0  0  0  0  0  0  0  0
    3.5035    1.9995   -3.9358 H   0  0  0  0  0  0  0  0  0  0  0  0
    2.1876    3.8157   -3.8991 H   0  0  0  0  0  0  0  0  0  0  0  0
    0.9292    2.6652   -3.4680 H   0  0  0  0  0  0  0  0  0  0  0  0
    0.9629    4.7645   -2.0516 H   0  0  0  0  0  0  0  0  0  0  0  0
    2.5795    4.3200   -1.4574 H   0  0  0  0  0  0  0  0  0  0  0  0
    1.5220    2.2302   -0.6542 H   0  0  0  0  0  0  0  0  0  0  0  0
    0.0279    2.8843   -0.9897 H   0  0  0  0  0  0  0  0  0  0  0  0
    0.9898    3.6129    0.0987 H   0  0  0  0  0  0  0  0  0  0  0  0
    2.8605    0.7305    1.6531 H   0  0  0  0  0  0  0  0  0  0  0  0
  1  2  1  0
  2  3  2  0
  3  4  1  0
  4  5  2  0
  5  6  1  0
  6  7  1  0
  7  8  2  0
  7  9  1  0
  9 10  2  0
 10 11  1  0
 11 12  2  0
 12 13  1  0
 13 14  1  0
 14 15  1  0
 14 16  1  0
 14 17  1  0
 13 18  2  0
  5 19  1  0
 19 20  2  0
 20 21  1  0
 21 22  1  0
 22 23  2  0
 23 24  1  0
 24 25  2  0
 25 26  1  0
 26 27  2  0
 27 28  1  0
 28 29  2  0
 29 30  1  0
 30 31  1  0
 31 32  2  0
 32 33  1  0
 33 34  1  0
 34 35  1  0
 35 36  1  0
 36 37  1  0
 37 38  1  0
 33 39  2  0
 39 40  1  0
 40 41  2  0
 20  2  1  0
 30 22  1  0
 41 31  1  0
 18  9  1  0
 29 24  1  0
  1 42  1  0
  1 43  1  0
  1 44  1  0
  3 45  1  0
  4 46  1  0
  6 47  1  0
 10 48  1  0
 11 49  1  0
 12 50  1  0
 18 51  1  0
 19 52  1  0
 21 53  1  0
 25 54  1  0
 26 55  1  0
 27 56  1  0
 28 57  1  0
 32 58  1  0
 34 59  1  0
 35 60  1  0
 35 61  1  0
 36 62  1  0
 36 63  1  0
 37 64  1  0
 37 65  1  0
 38 66  1  0
 38 67  1  0
 38 68  1  0
 40 69  1  0
M  CHG  1  38   1
M  END
$$$$
