
     RDKit          3D

 72 76  0  0  0  0  0  0  0  0999 V2000
   -1.7954   -3.8128    2.5711 C   0  0  0  0  0  0  0  0  0  0  0  0
   -1.7633   -2.4043    2.0381 C   0  0  0  0  0  0  0  0  0  0  0  0
   -1.7184   -1.3370    2.9493 C   0  0  0  0  0  0  0  0  0  0  0  0
   -1.6335   -0.0178    2.5015 C   0  0  0  0  0  0  0  0  0  0  0  0
   -1.6542    0.2590    1.1381 C   0  0  0  0  0  0  0  0  0  0  0  0
   -1.5581    1.5617    0.6089 N   0  0  0  0  0  0  0  0  0  0  0  0
   -1.0476    2.6685    1.2601 C   0  0  0  0  0  0  0  0  0  0  0  0
   -0.4940    2.6692    2.3558 O   0  0  0  0  0  0  0  0  0  0  0  0
   -1.1235    3.9467    0.5033 C   0  0  0  0  0  0  0  0  0  0  0  0
   -1.4036    5.1210    1.2094 C   0  0  0  0  0  0  0  0  0  0  0  0
   -1.4666    6.3421    0.5379 C   0  0  0  0  0  0  0  0  0  0  0  0
   -1.2330    6.3979   -0.8374 C   0  0  0  0  0  0  0  0  0  0  0  0
   -0.9250    5.2333   -1.5563 C   0  0  0  0  0  0  0  0  0  0  0  0
   -0.6520    5.2797   -3.0417 C   0  0  0  0  0  0  0  0  0  0  0  0
    0.4895    4.6079   -3.3654 F   0  0  0  0  0  0  0  0  0  0  0  0
   -1.6449    4.6950   -3.7631 F   0  0  0  0  0  0  0  0  0  0  0  0
   -0.5029    6.5365   -3.5354 F   0  0  0  0  0  0  0  0  0  0  0  0
   -0.8760    4.0034   -0.8750 C   0  0  0  0  0  0  0  0  0  0  0  0
   -1.7765   -0.7971    0.2289 C   0  0  0  0  0  0  0  0  0  0  0  0
   -1.7734   -2.1377    0.6515 C   0  0  0  0  0  0  0  0  0  0  0  0
   -1.6896   -3.2129   -0.2643 N   0  0  0  0  0  0  0  0  0  0  0  0
   -1.3794   -3.2107   -1.5859 C   0  0  0  0  0  0  0  0  0  0  0  0
   -2.0249   -3.9602   -2.4496 N   0  0  0  0  0  0  0  0  0  0  0  0
   -1.6367   -3.5262   -3.6843 C   0  0  0  0  0  0  0  0  0  0  0  0
   -2.1003   -3.9348   -4.9444 C   0  0  0  0  0  0  0  0  0  0  0  0
   -1.5635   -3.3401   -6.0899 C   0  0  0  0  0  0  0  0  0  0  0  0
   -0.5763   -2.3630   -5.9834 C   0  0  0  0  0  0  0  0  0  0  0  0
   -0.0945   -1.9522   -4.7348 C   0  0  0  0  0  0  0  0  0  0  0  0
   -0.6525   -2.5458   -3.5891 C   0  0  0  0  0  0  0  0  0  0  0  0
   -0.3909   -2.4484   -2.2228 N   0  0  0  0  0  0  0  0  0  0  0  0
    0.6949   -1.7185   -1.6433 C   0  0  0  0  0  0  0  0  0  0  0  0
    1.2493   -2.1213   -0.4428 C   0  0  0  0  0  0  0  0  0  0  0  0
    2.2313   -1.3096    0.0905 C   0  0  0  0  0  0  0  0  0  0  0  0
    2.8831   -1.5954    1.2881 N   0  0  0  0  0  0  0  0  0  0  0  0
    2.0542   -1.9127    2.4549 C   0  0  0  0  0  0  0  0  0  0  0  0
    2.6632   -1.2517    3.6922 C   0  0  0  0  0  0  0  0  0  0  0  0
    2.2295    0.2056    3.9258 C   0  0  0  0  0  0  0  0  0  0  0  0
    2.2173    1.1430    2.7233 C   0  0  0  0  0  0  0  0  0  0  0  0
    3.4789    1.0550    1.9683 N   0  0  0  0  0  0  0  0  0  0  0  0
    2.6805   -0.2055   -0.5276 N   0  0  0  0  0  0  0  0  0  0  0  0
    2.1330    0.0601   -1.7227 C   0  0  0  0  0  0  0  0  0  0  0  0
    1.1534   -0.6340   -2.3066 N   0  0  0  0  0  0  0  0  0  0  0  0
   -0.9475   -4.3861    2.1822 H   0  0  0  0  0  0  0  0  0  0  0  0
   -1.7284   -3.8314    3.6641 H   0  0  0  0  0  0  0  0  0  0  0  0
   -2.7319   -4.3035    2.2876 H   0  0  0  0  0  0  0  0  0  0  0  0
   -1.7385   -1.5264    4.0215 H   0  0  0  0  0  0  0  0  0  0  0  0
   -1.6023    0.7785    3.2405 H   0  0  0  0  0  0  0  0  0  0  0  0
   -1.8759    1.6711   -0.3472 H   0  0  0  0  0  0  0  0  0  0  0  0
   -1.5833    5.0887    2.2827 H   0  0  0  0  0  0  0  0  0  0  0  0
   -1.6982    7.2532    1.0870 H   0  0  0  0  0  0  0  0  0  0  0  0
   -1.2861    7.3612   -1.3458 H   0  0  0  0  0  0  0  0  0  0  0  0
   -0.6154    3.1062   -1.4334 H   0  0  0  0  0  0  0  0  0  0  0  0
   -1.8464   -0.5711   -0.8320 H   0  0  0  0  0  0  0  0  0  0  0  0
   -2.2676   -4.0038    0.0158 H   0  0  0  0  0  0  0  0  0  0  0  0
   -2.8688   -4.6972   -5.0205 H   0  0  0  0  0  0  0  0  0  0  0  0
   -1.9194   -3.6469   -7.0711 H   0  0  0  0  0  0  0  0  0  0  0  0
   -0.1659   -1.9172   -6.8879 H   0  0  0  0  0  0  0  0  0  0  0  0
    0.6891   -1.2044   -4.6758 H   0  0  0  0  0  0  0  0  0  0  0  0
    0.9394   -3.0276    0.0611 H   0  0  0  0  0  0  0  0  0  0  0  0
    3.5892   -2.3201    1.1254 H   0  0  0  0  0  0  0  0  0  0  0  0
    2.0415   -3.0007    2.5865 H   0  0  0  0  0  0  0  0  0  0  0  0
    1.0226   -1.5791    2.3299 H   0  0  0  0  0  0  0  0  0  0  0  0
    3.7586   -1.3036    3.6497 H   0  0  0  0  0  0  0  0  0  0  0  0
    2.3636   -1.8262    4.5778 H   0  0  0  0  0  0  0  0  0  0  0  0
    1.2190    0.2024    4.3542 H   0  0  0  0  0  0  0  0  0  0  0  0
    2.8803    0.6289    4.7016 H   0  0  0  0  0  0  0  0  0  0  0  0
    2.1085    2.1836    3.0421 H   0  0  0  0  0  0  0  0  0  0  0  0
    1.4144    0.8969    2.0254 H   0  0  0  0  0  0  0  0  0  0  0  0
    3.4754    1.6995    1.1706 H   0  0  0  0  0  0  0  0  0  0  0  0
    4.3214    1.2043    2.5282 H   0  0  0  0  0  0  0  0  0  0  0  0
    3.5328    0.1148    1.5230 H   0  0  0  0  0  0  0  0  0  0  0  0
    2.5126    0.9203   -2.2650 H   0  0  0  0  0  0  0  0  0  0  0  0
  1  2  1  0
  2  3  2  0
  3  4  1  0
  4  5  2  0
  5  6  1  0
  6  7  1  0
  7  8  2  0
  7  9  1  0
  9 10  2  0
 10 11  1  0
 11 12  2  0
 12 13  1  0
 13 14  1  0
 14 15  1  0
 14 16  1  0
 14 17  1  0
 13 18  2  0
  5 19  1  0
 19 20  2  0
 20 21  1  0
 21 22  1  0
 22 23  2  0
 23 24  1  0
 24 25  2  0
 25 26  1  0
 26 27  2  0
 27 28  1  0
 28 29  2  0
 29 30  1  0
 30 31  1  0
 31 32  2  0
 32 33  1  0
 33 34  1  0
 34 35  1  0
 35 36  1  0
 36 37  1  0
 37 38  1  0
 38 39  1  0
 33 40  2  0
 40 41  1  0
 41 42  2  0
 20  2  1  0
 30 22  1  0
 42 31  1  0
 18  9  1  0
 29 24  1  0
  1 43  1  0
  1 44  1  0
  1 45  1  0
  3 46  1  0
  4 47  1  0
  6 48  1  0
 10 49  1  0
 11 50  1  0
 12 51  1  0
 18 52  1  0
 19 53  1  0
 21 54  1  0
 25 55  1  0
 26 56  1  0
 27 57  1  0
 28 58  1  0
 32 59  1  0
 34 60  1  0
 35 61  1  0
 35 62  1  0
 36 63  1  0
 36 64  1  0
 37 65  1  0
 37 66  1  0
 38 67  1  0
 38 68  1  0
 39 69  1  0
 39 70  1  0
 39 71  1  0
 41 72  1  0
M  CHG  1  39   1
M  END
$$$$
