LIB_FVTRWXQLJLCVKD__M_PUB_ALL__e8__s20260927
     RDKit          3D

 81 85  0  0  0  0  0  0  0  0999 V2000
   -1.6470   -9.3500    1.6990 C   0  0  0  0  0  0  0  0  0  0  0  0
   -1.8320  -10.3610    0.6100 C   0  0  0  0  0  0  0  0  0  0  0  0
   -2.7070  -10.3100   -0.2420 O   0  0  0  0  0  0  0  0  0  0  0  0
   -0.8840  -11.3280    0.7070 O   0  0  0  0  0  0  0  0  0  0  0  0
   -1.3140  -12.7000    0.5240 C   0  0  1  0  0  0  0  0  0  0  0  0
   -0.0810  -13.6250    0.3600 C   0  0  2  0  0  0  0  0  0  0  0  0
    0.6130  -13.2930   -0.8690 O   0  0  0  0  0  0  0  0  0  0  0  0
    1.6000  -12.3660   -0.7930 C   0  0  0  0  0  0  0  0  0  0  0  0
    2.0930  -11.9200    0.2310 O   0  0  0  0  0  0  0  0  0  0  0  0
    2.0600  -11.9860   -2.1510 C   0  0  0  0  0  0  0  0  0  0  0  0
    2.4970  -10.6910   -2.4530 C   0  0  0  0  0  0  0  0  0  0  0  0
    2.9160  -10.3810   -3.7490 C   0  0  0  0  0  0  0  0  0  0  0  0
    2.9020  -11.3610   -4.7420 C   0  0  0  0  0  0  0  0  0  0  0  0
    2.4760  -12.6550   -4.4430 C   0  0  0  0  0  0  0  0  0  0  0  0
    2.0590  -12.9690   -3.1490 C   0  0  0  0  0  0  0  0  0  0  0  0
   -0.4620  -15.1520    0.3070 C   0  0  1  0  0  0  0  0  0  0  0  0
   -1.1880  -15.4520   -1.0390 C   0  0  0  0  0  0  0  0  0  0  0  0
    0.8350  -16.0640    0.2730 C   0  0  1  0  0  0  0  0  0  0  0  0
    1.9720  -15.3350    0.7740 O   0  0  0  0  0  0  0  0  0  0  0  0
    3.1960  -15.8450    0.4790 C   0  0  0  0  0  0  0  0  0  0  0  0
    3.7690  -16.7440    1.0710 O   0  0  0  0  0  0  0  0  0  0  0  0
    3.7020  -15.1510   -0.7210 C   0  0  0  0  0  0  0  0  0  0  0  0
    4.6860  -14.2460   -0.5980 C   0  0  0  0  0  0  0  0  0  0  0  0
    5.3280  -13.5570   -1.7280 C   0  0  0  0  0  0  0  0  0  0  0  0
    5.7140  -12.2190   -1.5630 C   0  0  0  0  0  0  0  0  0  0  0  0
    6.3150  -11.5150   -2.6090 C   0  0  0  0  0  0  0  0  0  0  0  0
    6.5300  -12.1380   -3.8350 C   0  0  0  0  0  0  0  0  0  0  0  0
    6.1390  -13.4620   -4.0180 C   0  0  0  0  0  0  0  0  0  0  0  0
    5.5370  -14.1670   -2.9720 C   0  0  0  0  0  0  0  0  0  0  0  0
    0.7100  -17.4280    1.0040 C   0  0  0  0  0  0  0  0  0  0  0  0
   -0.2830  -17.4810    2.1870 C   0  0  2  0  0  0  0  0  0  0  0  0
   -1.6240  -17.0030    1.6540 C   0  0  1  0  0  0  0  0  0  0  0  0
   -2.6710  -17.4130    2.5240 O   0  0  0  0  0  0  0  0  0  0  0  0
   -1.3410  -15.4850    1.5750 C   0  0  1  0  0  0  0  0  0  0  0  0
   -0.4600  -15.2040    2.7430 O   0  0  0  0  0  0  0  0  0  0  0  0
    0.0050  -16.4570    3.3000 C   0  0  0  0  0  0  0  0  0  0  0  0
    1.4750  -16.3480    3.7240 C   0  0  0  0  0  0  0  0  0  0  0  0
   -0.7670  -16.7190    4.6110 C   0  0  0  0  0  0  0  0  0  0  0  0
   -2.5950  -14.5620    1.7510 C   0  0  1  0  0  0  0  0  0  0  0  0
   -3.7540  -14.8060    0.7780 C   0  0  0  0  0  0  0  0  0  0  0  0
   -3.1670  -14.8490    3.0550 O   0  0  0  0  0  0  0  0  0  0  0  0
   -2.1690  -13.0730    1.7520 C   0  0  1  0  0  0  0  0  0  0  0  0
   -1.4750  -12.7940    2.9880 O   0  0  0  0  0  0  0  0  0  0  0  0
   -1.7375   -9.8444    2.6775 H   0  0  0  0  0  0  0  0  0  0  0  0
   -0.6503   -8.8932    1.6097 H   0  0  0  0  0  0  0  0  0  0  0  0
   -2.4173   -8.5698    1.6097 H   0  0  0  0  0  0  0  0  0  0  0  0
   -1.9152  -12.8207   -0.3892 H   0  0  0  0  0  0  0  0  0  0  0  0
    0.5549  -13.4611    1.2425 H   0  0  0  0  0  0  0  0  0  0  0  0
    2.5105   -9.9181   -1.6704 H   0  0  0  0  0  0  0  0  0  0  0  0
    3.2575   -9.3628   -3.9870 H   0  0  0  0  0  0  0  0  0  0  0  0
    3.2276  -11.1126   -5.7629 H   0  0  0  0  0  0  0  0  0  0  0  0
    2.4688  -13.4271   -5.2264 H   0  0  0  0  0  0  0  0  0  0  0  0
    1.7286  -13.9911   -2.9119 H   0  0  0  0  0  0  0  0  0  0  0  0
   -2.1866  -15.8647   -0.8329 H   0  0  0  0  0  0  0  0  0  0  0  0
   -1.2879  -14.5215   -1.6171 H   0  0  0  0  0  0  0  0  0  0  0  0
   -0.6019  -16.1816   -1.6171 H   0  0  0  0  0  0  0  0  0  0  0  0
    0.9727  -16.3198   -0.7879 H   0  0  0  0  0  0  0  0  0  0  0  0
    3.2756  -15.3738   -1.7102 H   0  0  0  0  0  0  0  0  0  0  0  0
    5.0358  -14.0033    0.4163 H   0  0  0  0  0  0  0  0  0  0  0  0
    5.5415  -11.7182   -0.5989 H   0  0  0  0  0  0  0  0  0  0  0  0
    6.6185  -10.4677   -2.4638 H   0  0  0  0  0  0  0  0  0  0  0  0
    7.0078  -11.5857   -4.6576 H   0  0  0  0  0  0  0  0  0  0  0  0
    6.3043  -13.9540   -4.9878 H   0  0  0  0  0  0  0  0  0  0  0  0
    5.2244  -15.2102   -3.1268 H   0  0  0  0  0  0  0  0  0  0  0  0
    0.3907  -18.1769    0.2643 H   0  0  0  0  0  0  0  0  0  0  0  0
    1.7005  -17.6179    1.4431 H   0  0  0  0  0  0  0  0  0  0  0  0
   -0.2299  -18.5054    2.5843 H   0  0  0  0  0  0  0  0  0  0  0  0
   -1.9716  -17.4037    0.6903 H   0  0  0  0  0  0  0  0  0  0  0  0
   -3.5230  -17.3670    2.0360 H   0  0  0  0  0  0  0  0  0  0  0  0
    1.5405  -16.3431    4.8220 H   0  0  0  0  0  0  0  0  0  0  0  0
    2.0358  -17.2070    3.3270 H   0  0  0  0  0  0  0  0  0  0  0  0
    1.9030  -15.4157    3.3270 H   0  0  0  0  0  0  0  0  0  0  0  0
   -0.1164  -16.4982    5.4700 H   0  0  0  0  0  0  0  0  0  0  0  0
   -1.6560  -16.0722    4.6485 H   0  0  0  0  0  0  0  0  0  0  0  0
   -1.0787  -17.7732    4.6485 H   0  0  0  0  0  0  0  0  0  0  0  0
   -4.6754  -15.0000    1.3466 H   0  0  0  0  0  0  0  0  0  0  0  0
   -3.8942  -13.9177    0.1446 H   0  0  0  0  0  0  0  0  0  0  0  0
   -3.5241  -15.6754    0.1446 H   0  0  0  0  0  0  0  0  0  0  0  0
   -4.0270  -14.3730    3.0730 H   0  0  0  0  0  0  0  0  0  0  0  0
   -3.0713  -12.4478    1.6824 H   0  0  0  0  0  0  0  0  0  0  0  0
   -1.2920  -11.8310    3.0240 H   0  0  0  0  0  0  0  0  0  0  0  0
  1  2  1  0
  2  3  2  0
  2  4  1  0
  4  5  1  0
  5  6  1  0
  6  7  1  0
  7  8  1  0
  8  9  2  0
  8 10  1  0
 10 11  2  0
 11 12  1  0
 12 13  2  0
 13 14  1  0
 14 15  2  0
  6 16  1  0
 16 17  1  6
 16 18  1  0
 18 19  1  0
 19 20  1  0
 20 21  2  0
 20 22  1  0
 22 23  2  0
 23 24  1  0
 24 25  2  0
 25 26  1  0
 26 27  2  0
 27 28  1  0
 28 29  2  0
 18 30  1  0
 30 31  1  0
 31 32  1  0
 32 33  1  0
 32 34  1  0
 34 35  1  1
 35 36  1  0
 36 37  1  0
 36 38  1  0
 34 39  1  0
 39 40  1  0
 39 41  1  1
 39 42  1  0
 42 43  1  0
 42  5  1  0
 15 10  1  0
 34 16  1  0
 29 24  1  0
 36 31  1  0
  1 44  1  0
  1 45  1  0
  1 46  1  0
  5 47  1  6
  6 48  1  1
 11 49  1  0
 12 50  1  0
 13 51  1  0
 14 52  1  0
 15 53  1  0
 17 54  1  0
 17 55  1  0
 17 56  1  0
 18 57  1  6
 22 58  1  0
 23 59  1  0
 25 60  1  0
 26 61  1  0
 27 62  1  0
 28 63  1  0
 29 64  1  0
 30 65  1  0
 30 66  1  0
 31 67  1  1
 32 68  1  6
 33 69  1  0
 37 70  1  0
 37 71  1  0
 37 72  1  0
 38 73  1  0
 38 74  1  0
 38 75  1  0
 40 76  1  0
 40 77  1  0
 40 78  1  0
 41 79  1  0
 42 80  1  1
 43 81  1  0
M  END
>  <meeko>  (1) 
{"is_sidechain": [false], "free_energy": -7.588, "intermolecular_energy": -12.245, "internal_energy": -3.991}

$$$$
LIB_FVTRWXQLJLCVKD__M_PUB_ALL__e8__s20260927
     RDKit          3D

 81 85  0  0  0  0  0  0  0  0999 V2000
    8.7170  -11.9000    0.7310 C   0  0  0  0  0  0  0  0  0  0  0  0
   10.1140  -12.3410    0.4180 C   0  0  0  0  0  0  0  0  0  0  0  0
   10.9890  -12.5180    1.2540 O   0  0  0  0  0  0  0  0  0  0  0  0
   10.2560  -12.5210   -0.9210 O   0  0  0  0  0  0  0  0  0  0  0  0
   10.5030  -13.8700   -1.3870 C   0  0  1  0  0  0  0  0  0  0  0  0
    9.7160  -14.1310   -2.6960 C   0  0  2  0  0  0  0  0  0  0  0  0
    8.2930  -14.0940   -2.4210 O   0  0  0  0  0  0  0  0  0  0  0  0
    7.6600  -12.9060   -2.5850 C   0  0  0  0  0  0  0  0  0  0  0  0
    8.1080  -11.9230   -3.1520 O   0  0  0  0  0  0  0  0  0  0  0  0
    6.2910  -12.9660   -2.0180 C   0  0  0  0  0  0  0  0  0  0  0  0
    5.5520  -11.8120   -1.7350 C   0  0  0  0  0  0  0  0  0  0  0  0
    4.2670  -11.9210   -1.1970 C   0  0  0  0  0  0  0  0  0  0  0  0
    3.7190  -13.1780   -0.9440 C   0  0  0  0  0  0  0  0  0  0  0  0
    4.4480  -14.3310   -1.2330 C   0  0  0  0  0  0  0  0  0  0  0  0
    5.7300  -14.2270   -1.7730 C   0  0  0  0  0  0  0  0  0  0  0  0
   10.0500  -15.5260   -3.3460 C   0  0  1  0  0  0  0  0  0  0  0  0
    9.4550  -16.6600   -2.4580 C   0  0  0  0  0  0  0  0  0  0  0  0
    9.3260  -15.6930   -4.7470 C   0  0  1  0  0  0  0  0  0  0  0  0
    8.9650  -14.4040   -5.2800 O   0  0  0  0  0  0  0  0  0  0  0  0
    8.0010  -14.3930   -6.2380 C   0  0  0  0  0  0  0  0  0  0  0  0
    8.1740  -14.4940   -7.4400 O   0  0  0  0  0  0  0  0  0  0  0  0
    6.6920  -14.2830   -5.5660 C   0  0  0  0  0  0  0  0  0  0  0  0
    5.9110  -13.2190   -5.8050 C   0  0  0  0  0  0  0  0  0  0  0  0
    4.5550  -13.0440   -5.2640 C   0  0  0  0  0  0  0  0  0  0  0  0
    4.0790  -11.7400   -5.0600 C   0  0  0  0  0  0  0  0  0  0  0  0
    2.8030  -11.5190   -4.5360 C   0  0  0  0  0  0  0  0  0  0  0  0
    1.9910  -12.5990   -4.2000 C   0  0  0  0  0  0  0  0  0  0  0  0
    2.4550  -13.8990   -4.3830 C   0  0  0  0  0  0  0  0  0  0  0  0
    3.7320  -14.1210   -4.9080 C   0  0  0  0  0  0  0  0  0  0  0  0
   10.1100  -16.5090   -5.8100 C   0  0  0  0  0  0  0  0  0  0  0  0
   11.6510  -16.4760   -5.6970 C   0  0  2  0  0  0  0  0  0  0  0  0
   11.9960  -16.9160   -4.2830 C   0  0  1  0  0  0  0  0  0  0  0  0
   13.3560  -17.3240   -4.2140 O   0  0  0  0  0  0  0  0  0  0  0  0
   11.6160  -15.6280   -3.5160 C   0  0  1  0  0  0  0  0  0  0  0  0
   11.9800  -14.5180   -4.4410 O   0  0  0  0  0  0  0  0  0  0  0  0
   12.2590  -15.0630   -5.7530 C   0  0  0  0  0  0  0  0  0  0  0  0
   11.6940  -14.1510   -6.8490 C   0  0  0  0  0  0  0  0  0  0  0  0
   13.7870  -15.0440   -5.9690 C   0  0  0  0  0  0  0  0  0  0  0  0
   12.4260  -15.3730   -2.1990 C   0  0  1  0  0  0  0  0  0  0  0  0
   12.3820  -16.4910   -1.1520 C   0  0  0  0  0  0  0  0  0  0  0  0
   13.8310  -15.2880   -2.5600 O   0  0  0  0  0  0  0  0  0  0  0  0
   12.0270  -14.0100   -1.5800 C   0  0  1  0  0  0  0  0  0  0  0  0
   12.5570  -12.9540   -2.4110 O   0  0  0  0  0  0  0  0  0  0  0  0
    8.5817  -11.8573    1.8218 H   0  0  0  0  0  0  0  0  0  0  0  0
    8.5421  -10.9030    0.3005 H   0  0  0  0  0  0  0  0  0  0  0  0
    8.0014  -12.6159    0.3005 H   0  0  0  0  0  0  0  0  0  0  0  0
   10.1569  -14.6216   -0.6622 H   0  0  0  0  0  0  0  0  0  0  0  0
   10.0137  -13.3434   -3.4038 H   0  0  0  0  0  0  0  0  0  0  0  0
    5.9823  -10.8198   -1.9359 H   0  0  0  0  0  0  0  0  0  0  0  0
    3.6868  -11.0138   -0.9727 H   0  0  0  0  0  0  0  0  0  0  0  0
    2.7093  -13.2602   -0.5154 H   0  0  0  0  0  0  0  0  0  0  0  0
    4.0126  -15.3216   -1.0354 H   0  0  0  0  0  0  0  0  0  0  0  0
    6.3021  -15.1369   -2.0071 H   0  0  0  0  0  0  0  0  0  0  0  0
    9.5896  -16.4035   -1.3968 H   0  0  0  0  0  0  0  0  0  0  0  0
    8.3824  -16.7712   -2.6752 H   0  0  0  0  0  0  0  0  0  0  0  0
    9.9730  -17.6058   -2.6752 H   0  0  0  0  0  0  0  0  0  0  0  0
    8.4288  -16.2916   -4.5310 H   0  0  0  0  0  0  0  0  0  0  0  0
    6.3584  -15.0693   -4.8728 H   0  0  0  0  0  0  0  0  0  0  0  0
    6.3123  -12.4231   -6.4496 H   0  0  0  0  0  0  0  0  0  0  0  0
    4.7179  -10.8818   -5.3156 H   0  0  0  0  0  0  0  0  0  0  0  0
    2.4396  -10.4913   -4.3888 H   0  0  0  0  0  0  0  0  0  0  0  0
    0.9848  -12.4256   -3.7907 H   0  0  0  0  0  0  0  0  0  0  0  0
    1.8159  -14.7530   -4.1141 H   0  0  0  0  0  0  0  0  0  0  0  0
    4.0940  -15.1509   -5.0428 H   0  0  0  0  0  0  0  0  0  0  0  0
    9.7902  -17.5585   -5.7301 H   0  0  0  0  0  0  0  0  0  0  0  0
    9.8759  -16.0359   -6.7751 H   0  0  0  0  0  0  0  0  0  0  0  0
   12.0305  -17.0902   -6.5269 H   0  0  0  0  0  0  0  0  0  0  0  0
   11.4837  -17.7999   -3.8751 H   0  0  0  0  0  0  0  0  0  0  0  0
   13.5900  -17.4840   -3.2740 H   0  0  0  0  0  0  0  0  0  0  0  0
   11.1686  -13.3029   -6.3856 H   0  0  0  0  0  0  0  0  0  0  0  0
   12.5176  -13.7750   -7.4738 H   0  0  0  0  0  0  0  0  0  0  0  0
   10.9906  -14.7210   -7.4738 H   0  0  0  0  0  0  0  0  0  0  0  0
   14.2952  -15.0377   -4.9934 H   0  0  0  0  0  0  0  0  0  0  0  0
   14.0886  -15.9385   -6.5338 H   0  0  0  0  0  0  0  0  0  0  0  0
   14.0663  -14.1423   -6.5338 H   0  0  0  0  0  0  0  0  0  0  0  0
   12.3993  -16.0505   -0.1442 H   0  0  0  0  0  0  0  0  0  0  0  0
   11.4601  -17.0772   -1.2801 H   0  0  0  0  0  0  0  0  0  0  0  0
   13.2550  -17.1479   -1.2801 H   0  0  0  0  0  0  0  0  0  0  0  0
   13.9520  -14.3820   -2.9220 H   0  0  0  0  0  0  0  0  0  0  0  0
   12.4588  -13.9411   -0.5707 H   0  0  0  0  0  0  0  0  0  0  0  0
   12.5760  -13.2760   -3.3380 H   0  0  0  0  0  0  0  0  0  0  0  0
  1  2  1  0
  2  3  2  0
  2  4  1  0
  4  5  1  0
  5  6  1  0
  6  7  1  0
  7  8  1  0
  8  9  2  0
  8 10  1  0
 10 11  2  0
 11 12  1  0
 12 13  2  0
 13 14  1  0
 14 15  2  0
  6 16  1  0
 16 17  1  1
 16 18  1  0
 18 19  1  0
 19 20  1  0
 20 21  2  0
 20 22  1  0
 22 23  2  0
 23 24  1  0
 24 25  2  0
 25 26  1  0
 26 27  2  0
 27 28  1  0
 28 29  2  0
 18 30  1  0
 30 31  1  0
 31 32  1  0
 32 33  1  0
 32 34  1  0
 34 35  1  6
 35 36  1  0
 36 37  1  0
 36 38  1  0
 34 39  1  0
 39 40  1  0
 39 41  1  6
 39 42  1  0
 42 43  1  0
 42  5  1  0
 15 10  1  0
 34 16  1  0
 29 24  1  0
 36 31  1  0
  1 44  1  0
  1 45  1  0
  1 46  1  0
  5 47  1  1
  6 48  1  6
 11 49  1  0
 12 50  1  0
 13 51  1  0
 14 52  1  0
 15 53  1  0
 17 54  1  0
 17 55  1  0
 17 56  1  0
 18 57  1  1
 22 58  1  0
 23 59  1  0
 25 60  1  0
 26 61  1  0
 27 62  1  0
 28 63  1  0
 29 64  1  0
 30 65  1  0
 30 66  1  0
 31 67  1  6
 32 68  1  1
 33 69  1  0
 37 70  1  0
 37 71  1  0
 37 72  1  0
 38 73  1  0
 38 74  1  0
 38 75  1  0
 40 76  1  0
 40 77  1  0
 40 78  1  0
 41 79  1  0
 42 80  1  1
 43 81  1  0
M  END
>  <meeko>  (2) 
{"is_sidechain": [false], "free_energy": -7.571, "intermolecular_energy": -11.807, "internal_energy": -4.402}

$$$$
LIB_FVTRWXQLJLCVKD__M_PUB_ALL__e8__s20260927
     RDKit          3D

 81 85  0  0  0  0  0  0  0  0999 V2000
   11.9240  -12.7490   -0.4180 C   0  0  0  0  0  0  0  0  0  0  0  0
   12.3970  -11.6880   -1.3630 C   0  0  0  0  0  0  0  0  0  0  0  0
   13.0650  -10.7170   -1.0380 O   0  0  0  0  0  0  0  0  0  0  0  0
   11.9800  -11.9690   -2.6250 O   0  0  0  0  0  0  0  0  0  0  0  0
   12.0060  -13.3570   -3.0380 C   0  0  1  0  0  0  0  0  0  0  0  0
   10.7240  -13.6960   -3.8410 C   0  0  2  0  0  0  0  0  0  0  0  0
    9.5680  -13.5960   -2.9720 O   0  0  0  0  0  0  0  0  0  0  0  0
    8.8570  -12.4420   -3.0170 C   0  0  0  0  0  0  0  0  0  0  0  0
    9.1730  -11.4230   -3.6090 O   0  0  0  0  0  0  0  0  0  0  0  0
    7.5790  -12.5930   -2.2780 C   0  0  0  0  0  0  0  0  0  0  0  0
    7.1390  -13.8320   -1.7980 C   0  0  0  0  0  0  0  0  0  0  0  0
    5.9260  -13.9230   -1.1120 C   0  0  0  0  0  0  0  0  0  0  0  0
    5.1540  -12.7800   -0.9010 C   0  0  0  0  0  0  0  0  0  0  0  0
    5.5930  -11.5420   -1.3700 C   0  0  0  0  0  0  0  0  0  0  0  0
    6.8050  -11.4460   -2.0540 C   0  0  0  0  0  0  0  0  0  0  0  0
   10.7490  -15.1470   -4.4540 C   0  0  1  0  0  0  0  0  0  0  0  0
   10.6150  -16.1900   -3.3040 C   0  0  0  0  0  0  0  0  0  0  0  0
    9.4830  -15.4010   -5.3730 C   0  0  1  0  0  0  0  0  0  0  0  0
    8.9130  -14.1470   -5.7980 O   0  0  0  0  0  0  0  0  0  0  0  0
    7.7380  -14.2140   -6.4770 C   0  0  0  0  0  0  0  0  0  0  0  0
    7.5990  -14.4730   -7.6600 O   0  0  0  0  0  0  0  0  0  0  0  0
    6.6440  -13.9630   -5.5200 C   0  0  0  0  0  0  0  0  0  0  0  0
    5.7690  -12.9720   -5.7570 C   0  0  0  0  0  0  0  0  0  0  0  0
    4.5920  -12.6850   -4.9240 C   0  0  0  0  0  0  0  0  0  0  0  0
    3.9250  -13.7570   -4.3150 C   0  0  0  0  0  0  0  0  0  0  0  0
    2.7940  -13.5400   -3.5250 C   0  0  0  0  0  0  0  0  0  0  0  0
    2.3110  -12.2480   -3.3410 C   0  0  0  0  0  0  0  0  0  0  0  0
    2.9540  -11.1730   -3.9520 C   0  0  0  0  0  0  0  0  0  0  0  0
    4.0860  -11.3910   -4.7430 C   0  0  0  0  0  0  0  0  0  0  0  0
    9.7230  -16.3200   -6.6010 C   0  0  0  0  0  0  0  0  0  0  0  0
   11.1550  -16.3240   -7.1820 C   0  0  2  0  0  0  0  0  0  0  0  0
   12.0920  -16.6630   -6.0330 C   0  0  1  0  0  0  0  0  0  0  0  0
   13.3460  -17.1040   -6.5360 O   0  0  0  0  0  0  0  0  0  0  0  0
   12.0800  -15.3080   -5.2860 C   0  0  1  0  0  0  0  0  0  0  0  0
   11.9900  -14.2840   -6.3660 O   0  0  0  0  0  0  0  0  0  0  0  0
   11.6650  -14.9380   -7.6160 C   0  0  0  0  0  0  0  0  0  0  0  0
   10.6670  -14.0980   -8.4230 C   0  0  0  0  0  0  0  0  0  0  0  0
   12.9410  -14.9810   -8.4840 C   0  0  0  0  0  0  0  0  0  0  0  0
   13.3860  -14.9750   -4.4860 C   0  0  1  0  0  0  0  0  0  0  0  0
   13.8160  -16.0070   -3.4390 C   0  0  0  0  0  0  0  0  0  0  0  0
   14.4860  -14.9600   -5.4350 O   0  0  0  0  0  0  0  0  0  0  0  0
   13.2900  -13.5570   -3.8700 C   0  0  1  0  0  0  0  0  0  0  0  0
   13.3910  -12.5850   -4.9340 O   0  0  0  0  0  0  0  0  0  0  0  0
   12.0747  -12.4110    0.6179 H   0  0  0  0  0  0  0  0  0  0  0  0
   10.8546  -12.9420   -0.5889 H   0  0  0  0  0  0  0  0  0  0  0  0
   12.4953  -13.6734   -0.5889 H   0  0  0  0  0  0  0  0  0  0  0  0
   12.0203  -14.0389   -2.1750 H   0  0  0  0  0  0  0  0  0  0  0  0
   10.6723  -12.9750   -4.6701 H   0  0  0  0  0  0  0  0  0  0  0  0
    7.7482  -14.7333   -1.9610 H   0  0  0  0  0  0  0  0  0  0  0  0
    5.5786  -14.8972   -0.7374 H   0  0  0  0  0  0  0  0  0  0  0  0
    4.1972  -12.8555   -0.3636 H   0  0  0  0  0  0  0  0  0  0  0  0
    4.9839  -10.6418   -1.2006 H   0  0  0  0  0  0  0  0  0  0  0  0
    7.1539  -10.4685   -2.4182 H   0  0  0  0  0  0  0  0  0  0  0  0
   10.6810  -15.6763   -2.3336 H   0  0  0  0  0  0  0  0  0  0  0  0
    9.6439  -16.7005   -3.3833 H   0  0  0  0  0  0  0  0  0  0  0  0
   11.4255  -16.9294   -3.3833 H   0  0  0  0  0  0  0  0  0  0  0  0
    8.7787  -15.9541   -4.7343 H   0  0  0  0  0  0  0  0  0  0  0  0
    6.5453  -14.5839   -4.6174 H   0  0  0  0  0  0  0  0  0  0  0  0
    5.9449  -12.3316   -6.6339 H   0  0  0  0  0  0  0  0  0  0  0  0
    4.2970  -14.7818   -4.4612 H   0  0  0  0  0  0  0  0  0  0  0  0
    2.2849  -14.3905   -3.0481 H   0  0  0  0  0  0  0  0  0  0  0  0
    1.4234  -12.0755   -2.7145 H   0  0  0  0  0  0  0  0  0  0  0  0
    2.5703  -10.1517   -3.8117 H   0  0  0  0  0  0  0  0  0  0  0  0
    4.5842  -10.5385   -5.2279 H   0  0  0  0  0  0  0  0  0  0  0  0
    9.4796  -17.3501   -6.3017 H   0  0  0  0  0  0  0  0  0  0  0  0
    9.0830  -15.9166   -7.3995 H   0  0  0  0  0  0  0  0  0  0  0  0
   11.1340  -17.0113   -8.0406 H   0  0  0  0  0  0  0  0  0  0  0  0
   11.8185  -17.4971   -5.3700 H   0  0  0  0  0  0  0  0  0  0  0  0
   13.3620  -16.9650   -7.5090 H   0  0  0  0  0  0  0  0  0  0  0  0
   10.0110  -13.5459   -7.7339 H   0  0  0  0  0  0  0  0  0  0  0  0
   11.2155  -13.3857   -9.0569 H   0  0  0  0  0  0  0  0  0  0  0  0
   10.0588  -14.7600   -9.0569 H   0  0  0  0  0  0  0  0  0  0  0  0
   13.8268  -15.0109   -7.8325 H   0  0  0  0  0  0  0  0  0  0  0  0
   12.9224  -15.8790   -9.1190 H   0  0  0  0  0  0  0  0  0  0  0  0
   12.9829  -14.0838   -9.1190 H   0  0  0  0  0  0  0  0  0  0  0  0
   13.6463  -15.5997   -2.4314 H   0  0  0  0  0  0  0  0  0  0  0  0
   13.2262  -16.9267   -3.5669 H   0  0  0  0  0  0  0  0  0  0  0  0
   14.8843  -16.2358   -3.5669 H   0  0  0  0  0  0  0  0  0  0  0  0
   14.1220  -14.5470   -6.2490 H   0  0  0  0  0  0  0  0  0  0  0  0
   14.1220  -13.4227   -3.1631 H   0  0  0  0  0  0  0  0  0  0  0  0
   12.5750  -12.6400   -5.4770 H   0  0  0  0  0  0  0  0  0  0  0  0
  1  2  1  0
  2  3  2  0
  2  4  1  0
  4  5  1  0
  5  6  1  0
  6  7  1  0
  7  8  1  0
  8  9  2  0
  8 10  1  0
 10 11  2  0
 11 12  1  0
 12 13  2  0
 13 14  1  0
 14 15  2  0
  6 16  1  0
 16 17  1  1
 16 18  1  0
 18 19  1  0
 19 20  1  0
 20 21  2  0
 20 22  1  0
 22 23  2  0
 23 24  1  0
 24 25  2  0
 25 26  1  0
 26 27  2  0
 27 28  1  0
 28 29  2  0
 18 30  1  0
 30 31  1  0
 31 32  1  0
 32 33  1  0
 32 34  1  0
 34 35  1  6
 35 36  1  0
 36 37  1  0
 36 38  1  0
 34 39  1  0
 39 40  1  0
 39 41  1  6
 39 42  1  0
 42 43  1  0
 42  5  1  0
 15 10  1  0
 34 16  1  0
 29 24  1  0
 36 31  1  0
  1 44  1  0
  1 45  1  0
  1 46  1  0
  5 47  1  1
  6 48  1  6
 11 49  1  0
 12 50  1  0
 13 51  1  0
 14 52  1  0
 15 53  1  0
 17 54  1  0
 17 55  1  0
 17 56  1  0
 18 57  1  1
 22 58  1  0
 23 59  1  0
 25 60  1  0
 26 61  1  0
 27 62  1  0
 28 63  1  0
 29 64  1  0
 30 65  1  0
 30 66  1  0
 31 67  1  6
 32 68  1  1
 33 69  1  0
 37 70  1  0
 37 71  1  0
 37 72  1  0
 38 73  1  0
 38 74  1  0
 38 75  1  0
 40 76  1  0
 40 77  1  0
 40 78  1  0
 41 79  1  0
 42 80  1  1
 43 81  1  0
M  END
>  <meeko>  (3) 
{"is_sidechain": [false], "free_energy": -7.49, "intermolecular_energy": -12.31, "internal_energy": -3.769}

$$$$
LIB_FVTRWXQLJLCVKD__M_PUB_ALL__e8__s20260927
     RDKit          3D

 81 85  0  0  0  0  0  0  0  0999 V2000
   12.2480  -12.6470   -0.1600 C   0  0  0  0  0  0  0  0  0  0  0  0
   12.5840  -11.5560   -1.1290 C   0  0  0  0  0  0  0  0  0  0  0  0
   13.1840  -10.5310   -0.8380 O   0  0  0  0  0  0  0  0  0  0  0  0
   12.1320  -11.8780   -2.3690 O   0  0  0  0  0  0  0  0  0  0  0  0
   12.0980  -13.2830   -2.7180 C   0  0  1  0  0  0  0  0  0  0  0  0
   10.7430  -13.6310   -3.3870 C   0  0  2  0  0  0  0  0  0  0  0  0
    9.6710  -13.4670   -2.4240 O   0  0  0  0  0  0  0  0  0  0  0  0
    9.0140  -12.2810   -2.4240 C   0  0  0  0  0  0  0  0  0  0  0  0
    9.0320  -11.4470   -3.3140 O   0  0  0  0  0  0  0  0  0  0  0  0
    8.2010  -12.1410   -1.1910 C   0  0  0  0  0  0  0  0  0  0  0  0
    8.6520  -12.5940    0.0540 C   0  0  0  0  0  0  0  0  0  0  0  0
    7.8480  -12.4420    1.1850 C   0  0  0  0  0  0  0  0  0  0  0  0
    6.5950  -11.8390    1.0770 C   0  0  0  0  0  0  0  0  0  0  0  0
    6.1440  -11.3780   -0.1600 C   0  0  0  0  0  0  0  0  0  0  0  0
    6.9460  -11.5250   -1.2920 C   0  0  0  0  0  0  0  0  0  0  0  0
   10.6880  -15.1070   -3.9310 C   0  0  1  0  0  0  0  0  0  0  0  0
   10.6400  -16.0950   -2.7270 C   0  0  0  0  0  0  0  0  0  0  0  0
    9.3400  -15.3750   -4.7230 C   0  0  1  0  0  0  0  0  0  0  0  0
    8.7560  -14.1300   -5.1520 O   0  0  0  0  0  0  0  0  0  0  0  0
    7.4180  -14.1370   -5.3860 C   0  0  0  0  0  0  0  0  0  0  0  0
    6.8730  -14.2340   -6.4720 O   0  0  0  0  0  0  0  0  0  0  0  0
    6.7280  -14.0530   -4.0850 C   0  0  0  0  0  0  0  0  0  0  0  0
    6.6930  -15.1280   -3.2820 C   0  0  0  0  0  0  0  0  0  0  0  0
    6.1130  -15.1380   -1.9310 C   0  0  0  0  0  0  0  0  0  0  0  0
    4.8430  -14.5730   -1.7430 C   0  0  0  0  0  0  0  0  0  0  0  0
    4.2530  -14.5460   -0.4780 C   0  0  0  0  0  0  0  0  0  0  0  0
    4.9290  -15.0740    0.6180 C   0  0  0  0  0  0  0  0  0  0  0  0
    6.1970  -15.6260    0.4500 C   0  0  0  0  0  0  0  0  0  0  0  0
    6.7890  -15.6530   -0.8160 C   0  0  0  0  0  0  0  0  0  0  0  0
    9.4540  -16.3530   -5.9230 C   0  0  0  0  0  0  0  0  0  0  0  0
   10.8290  -16.4130   -6.6270 C   0  0  2  0  0  0  0  0  0  0  0  0
   11.8590  -16.7200   -5.5510 C   0  0  1  0  0  0  0  0  0  0  0  0
   13.0550  -17.2100   -6.1430 O   0  0  0  0  0  0  0  0  0  0  0  0
   11.9370  -15.3330   -4.8710 C   0  0  1  0  0  0  0  0  0  0  0  0
   11.7680  -14.3570   -5.9840 O   0  0  0  0  0  0  0  0  0  0  0  0
   11.3210  -15.0590   -7.1690 C   0  0  0  0  0  0  0  0  0  0  0  0
   10.2700  -14.2350   -7.9220 C   0  0  0  0  0  0  0  0  0  0  0  0
   12.5140  -15.1680   -8.1440 C   0  0  0  0  0  0  0  0  0  0  0  0
   13.3140  -14.9930   -4.2060 C   0  0  1  0  0  0  0  0  0  0  0  0
   13.8190  -15.9860   -3.1540 C   0  0  0  0  0  0  0  0  0  0  0  0
   14.3250  -15.0440   -5.2480 O   0  0  0  0  0  0  0  0  0  0  0  0
   13.2980  -13.5480   -3.6500 C   0  0  1  0  0  0  0  0  0  0  0  0
   13.3200  -12.6260   -4.7630 O   0  0  0  0  0  0  0  0  0  0  0  0
   12.3633  -12.2727    0.8679 H   0  0  0  0  0  0  0  0  0  0  0  0
   11.2086  -12.9705   -0.3180 H   0  0  0  0  0  0  0  0  0  0  0  0
   12.9253  -13.4992   -0.3180 H   0  0  0  0  0  0  0  0  0  0  0  0
   12.1789  -13.9253   -1.8287 H   0  0  0  0  0  0  0  0  0  0  0  0
   10.6294  -12.9472   -4.2411 H   0  0  0  0  0  0  0  0  0  0  0  0
    9.6399  -13.0698    0.1413 H   0  0  0  0  0  0  0  0  0  0  0  0
    8.2033  -12.7984    2.1631 H   0  0  0  0  0  0  0  0  0  0  0  0
    5.9612  -11.7267    1.9690 H   0  0  0  0  0  0  0  0  0  0  0  0
    5.1572  -10.8991   -0.2427 H   0  0  0  0  0  0  0  0  0  0  0  0
    6.5926  -11.1565   -2.2663 H   0  0  0  0  0  0  0  0  0  0  0  0
   10.6676  -15.5271   -1.7853 H   0  0  0  0  0  0  0  0  0  0  0  0
    9.7122  -16.6841   -2.7729 H   0  0  0  0  0  0  0  0  0  0  0  0
   11.5064  -16.7713   -2.7729 H   0  0  0  0  0  0  0  0  0  0  0  0
    8.6855  -15.8846   -4.0005 H   0  0  0  0  0  0  0  0  0  0  0  0
    6.2449  -13.1148   -3.7746 H   0  0  0  0  0  0  0  0  0  0  0  0
    7.1277  -16.0650   -3.6603 H   0  0  0  0  0  0  0  0  0  0  0  0
    4.3055  -14.1461   -2.6026 H   0  0  0  0  0  0  0  0  0  0  0  0
    3.2529  -14.1070   -0.3474 H   0  0  0  0  0  0  0  0  0  0  0  0
    4.4633  -15.0555    1.6144 H   0  0  0  0  0  0  0  0  0  0  0  0
    6.7336  -16.0416    1.3156 H   0  0  0  0  0  0  0  0  0  0  0  0
    7.7944  -16.0822   -0.9385 H   0  0  0  0  0  0  0  0  0  0  0  0
    9.2207  -17.3633   -5.5558 H   0  0  0  0  0  0  0  0  0  0  0  0
    8.7523  -15.9728   -6.6800 H   0  0  0  0  0  0  0  0  0  0  0  0
   10.7203  -17.1379   -7.4472 H   0  0  0  0  0  0  0  0  0  0  0  0
   11.6323  -17.5170   -4.8276 H   0  0  0  0  0  0  0  0  0  0  0  0
   13.7260  -17.3400   -5.4370 H   0  0  0  0  0  0  0  0  0  0  0  0
    9.6178  -13.7237   -7.1987 H   0  0  0  0  0  0  0  0  0  0  0  0
   10.7732  -13.4883   -8.5538 H   0  0  0  0  0  0  0  0  0  0  0  0
    9.6649  -14.9019   -8.5538 H   0  0  0  0  0  0  0  0  0  0  0  0
   13.4491  -15.2534   -7.5711 H   0  0  0  0  0  0  0  0  0  0  0  0
   12.3895  -16.0585   -8.7776 H   0  0  0  0  0  0  0  0  0  0  0  0
   12.5530  -14.2697   -8.7776 H   0  0  0  0  0  0  0  0  0  0  0  0
   13.6171  -15.5889   -2.1482 H   0  0  0  0  0  0  0  0  0  0  0  0
   13.3007  -16.9481   -3.2793 H   0  0  0  0  0  0  0  0  0  0  0  0
   14.9018  -16.1338   -3.2793 H   0  0  0  0  0  0  0  0  0  0  0  0
   14.8350  -15.8660   -5.0760 H   0  0  0  0  0  0  0  0  0  0  0  0
   14.1922  -13.4012   -3.0264 H   0  0  0  0  0  0  0  0  0  0  0  0
   14.1450  -12.0980   -4.7050 H   0  0  0  0  0  0  0  0  0  0  0  0
  1  2  1  0
  2  3  2  0
  2  4  1  0
  4  5  1  0
  5  6  1  0
  6  7  1  0
  7  8  1  0
  8  9  2  0
  8 10  1  0
 10 11  2  0
 11 12  1  0
 12 13  2  0
 13 14  1  0
 14 15  2  0
  6 16  1  0
 16 17  1  1
 16 18  1  0
 18 19  1  0
 19 20  1  0
 20 21  2  0
 20 22  1  0
 22 23  2  0
 23 24  1  0
 24 25  2  0
 25 26  1  0
 26 27  2  0
 27 28  1  0
 28 29  2  0
 18 30  1  0
 30 31  1  0
 31 32  1  0
 32 33  1  0
 32 34  1  0
 34 35  1  6
 35 36  1  0
 36 37  1  0
 36 38  1  0
 34 39  1  0
 39 40  1  0
 39 41  1  6
 39 42  1  0
 42 43  1  0
 42  5  1  0
 15 10  1  0
 34 16  1  0
 29 24  1  0
 36 31  1  0
  1 44  1  0
  1 45  1  0
  1 46  1  0
  5 47  1  1
  6 48  1  6
 11 49  1  0
 12 50  1  0
 13 51  1  0
 14 52  1  0
 15 53  1  0
 17 54  1  0
 17 55  1  0
 17 56  1  0
 18 57  1  1
 22 58  1  0
 23 59  1  0
 25 60  1  0
 26 61  1  0
 27 62  1  0
 28 63  1  0
 29 64  1  0
 30 65  1  0
 30 66  1  0
 31 67  1  6
 32 68  1  1
 33 69  1  0
 37 70  1  0
 37 71  1  0
 37 72  1  0
 38 73  1  0
 38 74  1  0
 38 75  1  0
 40 76  1  0
 40 77  1  0
 40 78  1  0
 41 79  1  0
 42 80  1  1
 43 81  1  0
M  END
>  <meeko>  (4) 
{"is_sidechain": [false], "free_energy": -7.351, "intermolecular_energy": -11.419, "internal_energy": -4.435}

$$$$
LIB_FVTRWXQLJLCVKD__M_PUB_ALL__e8__s20260927
     RDKit          3D

 81 85  0  0  0  0  0  0  0  0999 V2000
    1.1260  -10.4280   -1.5620 C   0  0  0  0  0  0  0  0  0  0  0  0
    2.1420  -10.6960   -2.6290 C   0  0  0  0  0  0  0  0  0  0  0  0
    2.5460   -9.8620   -3.4270 O   0  0  0  0  0  0  0  0  0  0  0  0
    2.5490  -11.9900   -2.5700 O   0  0  0  0  0  0  0  0  0  0  0  0
    3.5420  -12.3290   -1.5710 C   0  0  1  0  0  0  0  0  0  0  0  0
    3.2780  -13.7540   -1.0220 C   0  0  2  0  0  0  0  0  0  0  0  0
    2.0190  -13.7710   -0.3040 O   0  0  0  0  0  0  0  0  0  0  0  0
    0.9200  -14.1720   -0.9900 C   0  0  0  0  0  0  0  0  0  0  0  0
    0.9100  -14.7040   -2.0880 O   0  0  0  0  0  0  0  0  0  0  0  0
   -0.3070  -13.9260   -0.1920 C   0  0  0  0  0  0  0  0  0  0  0  0
   -0.3050  -13.1010    0.9390 C   0  0  0  0  0  0  0  0  0  0  0  0
   -1.4850  -12.9030    1.6590 C   0  0  0  0  0  0  0  0  0  0  0  0
   -2.6660  -13.5250    1.2530 C   0  0  0  0  0  0  0  0  0  0  0  0
   -2.6740  -14.3410    0.1210 C   0  0  0  0  0  0  0  0  0  0  0  0
   -1.4980  -14.5390   -0.6030 C   0  0  0  0  0  0  0  0  0  0  0  0
    4.4040  -14.2520   -0.0410 C   0  0  1  0  0  0  0  0  0  0  0  0
    4.3190  -13.4450    1.2900 C   0  0  0  0  0  0  0  0  0  0  0  0
    4.1620  -15.7590    0.3900 C   0  0  1  0  0  0  0  0  0  0  0  0
    3.3010  -16.4180   -0.5590 O   0  0  0  0  0  0  0  0  0  0  0  0
    2.6220  -17.5050   -0.1070 C   0  0  0  0  0  0  0  0  0  0  0  0
    2.7740  -18.6580   -0.4710 O   0  0  0  0  0  0  0  0  0  0  0  0
    1.6900  -17.0540    0.9450 C   0  0  0  0  0  0  0  0  0  0  0  0
    0.3860  -17.3610    0.8510 C   0  0  0  0  0  0  0  0  0  0  0  0
   -0.6180  -17.0440    1.8770 C   0  0  0  0  0  0  0  0  0  0  0  0
   -1.9150  -17.5560    1.7250 C   0  0  0  0  0  0  0  0  0  0  0  0
   -2.9100  -17.2740    2.6640 C   0  0  0  0  0  0  0  0  0  0  0  0
   -2.6230  -16.4680    3.7620 C   0  0  0  0  0  0  0  0  0  0  0  0
   -1.3430  -15.9390    3.9190 C   0  0  0  0  0  0  0  0  0  0  0  0
   -0.3470  -16.2210    2.9790 C   0  0  0  0  0  0  0  0  0  0  0  0
    5.4460  -16.6020    0.6200 C   0  0  0  0  0  0  0  0  0  0  0  0
    6.6920  -16.1860   -0.1940 C   0  0  2  0  0  0  0  0  0  0  0  0
    6.9280  -14.7110    0.0900 C   0  0  1  0  0  0  0  0  0  0  0  0
    8.2590  -14.3520   -0.2570 O   0  0  0  0  0  0  0  0  0  0  0  0
    5.7960  -14.1010   -0.7700 C   0  0  1  0  0  0  0  0  0  0  0  0
    5.7090  -14.9900   -1.9630 O   0  0  0  0  0  0  0  0  0  0  0  0
    6.4800  -16.1910   -1.7190 C   0  0  0  0  0  0  0  0  0  0  0  0
    5.7540  -17.4220   -2.2740 C   0  0  0  0  0  0  0  0  0  0  0  0
    7.7880  -16.0990   -2.5350 C   0  0  0  0  0  0  0  0  0  0  0  0
    6.0810  -12.6630   -1.3250 C   0  0  1  0  0  0  0  0  0  0  0  0
    6.4150  -11.5920   -0.2820 C   0  0  0  0  0  0  0  0  0  0  0  0
    7.2790  -12.7420   -2.1430 O   0  0  0  0  0  0  0  0  0  0  0  0
    4.9230  -12.2070   -2.2470 C   0  0  1  0  0  0  0  0  0  0  0  0
    4.9840  -12.9680   -3.4740 O   0  0  0  0  0  0  0  0  0  0  0  0
    1.5917  -10.5509   -0.5731 H   0  0  0  0  0  0  0  0  0  0  0  0
    0.7491   -9.3997   -1.6646 H   0  0  0  0  0  0  0  0  0  0  0  0
    0.2909  -11.1366   -1.6646 H   0  0  0  0  0  0  0  0  0  0  0  0
    3.4977  -11.6509   -0.7060 H   0  0  0  0  0  0  0  0  0  0  0  0
    3.2586  -14.4271   -1.8918 H   0  0  0  0  0  0  0  0  0  0  0  0
    0.6251  -12.6093    1.2602 H   0  0  0  0  0  0  0  0  0  0  0  0
   -1.4834  -12.2553    2.5481 H   0  0  0  0  0  0  0  0  0  0  0  0
   -3.5923  -13.3719    1.8261 H   0  0  0  0  0  0  0  0  0  0  0  0
   -3.6067  -14.8277   -0.2002 H   0  0  0  0  0  0  0  0  0  0  0  0
   -1.5058  -15.1778   -1.4985 H   0  0  0  0  0  0  0  0  0  0  0  0
    4.3918  -14.1358    2.1429 H   0  0  0  0  0  0  0  0  0  0  0  0
    5.1458  -12.7208    1.3331 H   0  0  0  0  0  0  0  0  0  0  0  0
    3.3594  -12.9089    1.3331 H   0  0  0  0  0  0  0  0  0  0  0  0
    3.6804  -15.6960    1.3769 H   0  0  0  0  0  0  0  0  0  0  0  0
    2.0611  -16.4703    1.8003 H   0  0  0  0  0  0  0  0  0  0  0  0
    0.0463  -17.8849   -0.0546 H   0  0  0  0  0  0  0  0  0  0  0  0
   -2.1515  -18.1873    0.8558 H   0  0  0  0  0  0  0  0  0  0  0  0
   -3.9206  -17.6890    2.5357 H   0  0  0  0  0  0  0  0  0  0  0  0
   -3.4047  -16.2490    4.5043 H   0  0  0  0  0  0  0  0  0  0  0  0
   -1.1160  -15.2985    4.7840 H   0  0  0  0  0  0  0  0  0  0  0  0
    0.6585  -15.7931    3.1054 H   0  0  0  0  0  0  0  0  0  0  0  0
    5.7047  -16.5346    1.6870 H   0  0  0  0  0  0  0  0  0  0  0  0
    5.1964  -17.6169    0.2769 H   0  0  0  0  0  0  0  0  0  0  0  0
    7.4889  -16.8908    0.0858 H   0  0  0  0  0  0  0  0  0  0  0  0
    6.8758  -14.3690    1.1342 H   0  0  0  0  0  0  0  0  0  0  0  0
    8.4960  -13.5240    0.2160 H   0  0  0  0  0  0  0  0  0  0  0  0
    5.3897  -18.0398   -1.4400 H   0  0  0  0  0  0  0  0  0  0  0  0
    4.9021  -17.0985   -2.8901 H   0  0  0  0  0  0  0  0  0  0  0  0
    6.4494  -18.0110   -2.8901 H   0  0  0  0  0  0  0  0  0  0  0  0
    8.6451  -16.0387   -1.8482 H   0  0  0  0  0  0  0  0  0  0  0  0
    7.8883  -16.9923   -3.1690 H   0  0  0  0  0  0  0  0  0  0  0  0
    7.7622  -15.2005   -3.1690 H   0  0  0  0  0  0  0  0  0  0  0  0
    6.2847  -12.0098    0.7272 H   0  0  0  0  0  0  0  0  0  0  0  0
    7.4575  -11.2660   -0.4121 H   0  0  0  0  0  0  0  0  0  0  0  0
    5.7426  -10.7312   -0.4121 H   0  0  0  0  0  0  0  0  0  0  0  0
    7.2260  -11.9760   -2.7570 H   0  0  0  0  0  0  0  0  0  0  0  0
    5.0485  -11.1364   -2.4664 H   0  0  0  0  0  0  0  0  0  0  0  0
    5.8430  -12.7770   -3.9090 H   0  0  0  0  0  0  0  0  0  0  0  0
  1  2  1  0
  2  3  2  0
  2  4  1  0
  4  5  1  0
  5  6  1  0
  6  7  1  0
  7  8  1  0
  8  9  2  0
  8 10  1  0
 10 11  2  0
 11 12  1  0
 12 13  2  0
 13 14  1  0
 14 15  2  0
  6 16  1  0
 16 17  1  1
 16 18  1  0
 18 19  1  0
 19 20  1  0
 20 21  2  0
 20 22  1  0
 22 23  2  0
 23 24  1  0
 24 25  2  0
 25 26  1  0
 26 27  2  0
 27 28  1  0
 28 29  2  0
 18 30  1  0
 30 31  1  0
 31 32  1  0
 32 33  1  0
 32 34  1  0
 34 35  1  6
 35 36  1  0
 36 37  1  0
 36 38  1  0
 34 39  1  0
 39 40  1  0
 39 41  1  6
 39 42  1  0
 42 43  1  0
 42  5  1  0
 15 10  1  0
 34 16  1  0
 29 24  1  0
 36 31  1  0
  1 44  1  0
  1 45  1  0
  1 46  1  0
  5 47  1  1
  6 48  1  6
 11 49  1  0
 12 50  1  0
 13 51  1  0
 14 52  1  0
 15 53  1  0
 17 54  1  0
 17 55  1  0
 17 56  1  0
 18 57  1  1
 22 58  1  0
 23 59  1  0
 25 60  1  0
 26 61  1  0
 27 62  1  0
 28 63  1  0
 29 64  1  0
 30 65  1  0
 30 66  1  0
 31 67  1  6
 32 68  1  1
 33 69  1  0
 37 70  1  0
 37 71  1  0
 37 72  1  0
 38 73  1  0
 38 74  1  0
 38 75  1  0
 40 76  1  0
 40 77  1  0
 40 78  1  0
 41 79  1  0
 42 80  1  6
 43 81  1  0
M  END
>  <meeko>  (5) 
{"is_sidechain": [false], "free_energy": -7.213, "intermolecular_energy": -11.006, "internal_energy": -4.625}

$$$$
LIB_FVTRWXQLJLCVKD__M_PUB_ALL__e8__s20260927
     RDKit          3D

 81 85  0  0  0  0  0  0  0  0999 V2000
    1.7220  -10.7220   -2.0510 C   0  0  0  0  0  0  0  0  0  0  0  0
    2.6960  -10.6110   -3.1830 C   0  0  0  0  0  0  0  0  0  0  0  0
    2.8020   -9.6370   -3.9130 O   0  0  0  0  0  0  0  0  0  0  0  0
    3.4420  -11.7440   -3.2680 O   0  0  0  0  0  0  0  0  0  0  0  0
    4.4230  -11.9720   -2.2270 C   0  0  1  0  0  0  0  0  0  0  0  0
    4.4690  -13.4790   -1.8640 C   0  0  2  0  0  0  0  0  0  0  0  0
    3.2070  -13.8730   -1.2690 O   0  0  0  0  0  0  0  0  0  0  0  0
    2.2760  -14.4140   -2.0930 C   0  0  0  0  0  0  0  0  0  0  0  0
    2.4600  -14.7970   -3.2360 O   0  0  0  0  0  0  0  0  0  0  0  0
    0.9740  -14.5370   -1.3920 C   0  0  0  0  0  0  0  0  0  0  0  0
    0.0250  -15.5010   -1.7500 C   0  0  0  0  0  0  0  0  0  0  0  0
   -1.1890  -15.5740   -1.0630 C   0  0  0  0  0  0  0  0  0  0  0  0
   -1.4560  -14.6880   -0.0190 C   0  0  0  0  0  0  0  0  0  0  0  0
   -0.5100  -13.7300    0.3460 C   0  0  0  0  0  0  0  0  0  0  0  0
    0.7050  -13.6560   -0.3360 C   0  0  0  0  0  0  0  0  0  0  0  0
    5.6180  -13.8290   -0.8450 C   0  0  1  0  0  0  0  0  0  0  0  0
    5.2610  -13.2400    0.5530 C   0  0  0  0  0  0  0  0  0  0  0  0
    5.7120  -15.3940   -0.6060 C   0  0  1  0  0  0  0  0  0  0  0  0
    5.0920  -16.1050   -1.6960 O   0  0  0  0  0  0  0  0  0  0  0  0
    4.7340  -17.3930   -1.4530 C   0  0  0  0  0  0  0  0  0  0  0  0
    5.3760  -18.3890   -1.7370 O   0  0  0  0  0  0  0  0  0  0  0  0
    3.4440  -17.3800   -0.7370 C   0  0  0  0  0  0  0  0  0  0  0  0
    3.3980  -16.9740    0.5410 C   0  0  0  0  0  0  0  0  0  0  0  0
    2.1630  -16.8360    1.3270 C   0  0  0  0  0  0  0  0  0  0  0  0
    2.1020  -15.8350    2.3070 C   0  0  0  0  0  0  0  0  0  0  0  0
    0.9560  -15.6700    3.0890 C   0  0  0  0  0  0  0  0  0  0  0  0
   -0.1380  -16.5100    2.9070 C   0  0  0  0  0  0  0  0  0  0  0  0
   -0.0870  -17.5180    1.9470 C   0  0  0  0  0  0  0  0  0  0  0  0
    1.0590  -17.6840    1.1640 C   0  0  0  0  0  0  0  0  0  0  0  0
    7.1420  -15.9460   -0.3550 C   0  0  0  0  0  0  0  0  0  0  0  0
    8.3020  -15.1570   -1.0030 C   0  0  2  0  0  0  0  0  0  0  0  0
    8.1650  -13.7160   -0.5380 C   0  0  1  0  0  0  0  0  0  0  0  0
    9.3920  -13.0220   -0.7220 O   0  0  0  0  0  0  0  0  0  0  0  0
    6.9770  -13.2740   -1.4250 C   0  0  1  0  0  0  0  0  0  0  0  0
    7.1770  -13.9990   -2.7110 O   0  0  0  0  0  0  0  0  0  0  0  0
    8.1940  -15.0140   -2.5320 C   0  0  0  0  0  0  0  0  0  0  0  0
    7.8160  -16.2970   -3.2820 C   0  0  0  0  0  0  0  0  0  0  0  0
    9.4900  -14.5240   -3.2120 C   0  0  0  0  0  0  0  0  0  0  0  0
    6.9480  -11.7500   -1.7910 C   0  0  1  0  0  0  0  0  0  0  0  0
    6.9540  -10.7730   -0.6100 C   0  0  0  0  0  0  0  0  0  0  0  0
    8.1790  -11.4490   -2.5000 O   0  0  0  0  0  0  0  0  0  0  0  0
    5.7750  -11.4540   -2.7580 C   0  0  1  0  0  0  0  0  0  0  0  0
    6.0910  -12.0180   -4.0500 O   0  0  0  0  0  0  0  0  0  0  0  0
    2.2624  -10.6604   -1.0949 H   0  0  0  0  0  0  0  0  0  0  0  0
    0.9923   -9.9012   -2.1133 H   0  0  0  0  0  0  0  0  0  0  0  0
    1.1957  -11.6859   -2.1133 H   0  0  0  0  0  0  0  0  0  0  0  0
    4.1669  -11.4372   -1.3005 H   0  0  0  0  0  0  0  0  0  0  0  0
    4.6631  -14.0225   -2.8004 H   0  0  0  0  0  0  0  0  0  0  0  0
    0.2349  -16.2010   -2.5721 H   0  0  0  0  0  0  0  0  0  0  0  0
   -1.9354  -16.3310   -1.3455 H   0  0  0  0  0  0  0  0  0  0  0  0
   -2.4146  -14.7450    0.5175 H   0  0  0  0  0  0  0  0  0  0  0  0
   -0.7217  -13.0336    1.1707 H   0  0  0  0  0  0  0  0  0  0  0  0
    1.4533  -12.9045   -0.0441 H   0  0  0  0  0  0  0  0  0  0  0  0
    5.6592  -13.8970    1.3402 H   0  0  0  0  0  0  0  0  0  0  0  0
    5.7040  -12.2381    0.6528 H   0  0  0  0  0  0  0  0  0  0  0  0
    4.1678  -13.1692    0.6528 H   0  0  0  0  0  0  0  0  0  0  0  0
    5.1680  -15.5683    0.3340 H   0  0  0  0  0  0  0  0  0  0  0  0
    2.5247  -17.7015   -1.2483 H   0  0  0  0  0  0  0  0  0  0  0  0
    4.3496  -16.7274    1.0347 H   0  0  0  0  0  0  0  0  0  0  0  0
    2.9661  -15.1722    2.4619 H   0  0  0  0  0  0  0  0  0  0  0  0
    0.9187  -14.8756    3.8489 H   0  0  0  0  0  0  0  0  0  0  0  0
   -1.0417  -16.3784    3.5202 H   0  0  0  0  0  0  0  0  0  0  0  0
   -0.9503  -18.1847    1.8048 H   0  0  0  0  0  0  0  0  0  0  0  0
    1.0947  -18.4872    0.4133 H   0  0  0  0  0  0  0  0  0  0  0  0
    7.3108  -15.9586    0.7319 H   0  0  0  0  0  0  0  0  0  0  0  0
    7.1612  -16.9389   -0.8281 H   0  0  0  0  0  0  0  0  0  0  0  0
    9.2234  -15.6932   -0.7319 H   0  0  0  0  0  0  0  0  0  0  0  0
    7.9690  -13.5321    0.5287 H   0  0  0  0  0  0  0  0  0  0  0  0
   10.0900  -13.6720   -0.9600 H   0  0  0  0  0  0  0  0  0  0  0  0
    7.5823  -17.0903   -2.5567 H   0  0  0  0  0  0  0  0  0  0  0  0
    6.9358  -16.1067   -3.9136 H   0  0  0  0  0  0  0  0  0  0  0  0
    8.6588  -16.6143   -3.9136 H   0  0  0  0  0  0  0  0  0  0  0  0
   10.2253  -14.2460   -2.4425 H   0  0  0  0  0  0  0  0  0  0  0  0
    9.9018  -15.3285   -3.8391 H   0  0  0  0  0  0  0  0  0  0  0  0
    9.2666  -13.6483   -3.8391 H   0  0  0  0  0  0  0  0  0  0  0  0
    6.9505  -11.3384    0.3336 H   0  0  0  0  0  0  0  0  0  0  0  0
    7.8560  -10.1453   -0.6580 H   0  0  0  0  0  0  0  0  0  0  0  0
    6.0598  -10.1342   -0.6580 H   0  0  0  0  0  0  0  0  0  0  0  0
    8.6790  -12.2950   -2.5260 H   0  0  0  0  0  0  0  0  0  0  0  0
    5.6569  -10.3639   -2.8464 H   0  0  0  0  0  0  0  0  0  0  0  0
    5.6290  -11.4880   -4.7350 H   0  0  0  0  0  0  0  0  0  0  0  0
  1  2  1  0
  2  3  2  0
  2  4  1  0
  4  5  1  0
  5  6  1  0
  6  7  1  0
  7  8  1  0
  8  9  2  0
  8 10  1  0
 10 11  2  0
 11 12  1  0
 12 13  2  0
 13 14  1  0
 14 15  2  0
  6 16  1  0
 16 17  1  1
 16 18  1  0
 18 19  1  0
 19 20  1  0
 20 21  2  0
 20 22  1  0
 22 23  2  0
 23 24  1  0
 24 25  2  0
 25 26  1  0
 26 27  2  0
 27 28  1  0
 28 29  2  0
 18 30  1  0
 30 31  1  0
 31 32  1  0
 32 33  1  0
 32 34  1  0
 34 35  1  6
 35 36  1  0
 36 37  1  0
 36 38  1  0
 34 39  1  0
 39 40  1  0
 39 41  1  6
 39 42  1  0
 42 43  1  0
 42  5  1  0
 15 10  1  0
 34 16  1  0
 29 24  1  0
 36 31  1  0
  1 44  1  0
  1 45  1  0
  1 46  1  0
  5 47  1  1
  6 48  1  6
 11 49  1  0
 12 50  1  0
 13 51  1  0
 14 52  1  0
 15 53  1  0
 17 54  1  0
 17 55  1  0
 17 56  1  0
 18 57  1  1
 22 58  1  0
 23 59  1  0
 25 60  1  0
 26 61  1  0
 27 62  1  0
 28 63  1  0
 29 64  1  0
 30 65  1  0
 30 66  1  0
 31 67  1  6
 32 68  1  1
 33 69  1  0
 37 70  1  0
 37 71  1  0
 37 72  1  0
 38 73  1  0
 38 74  1  0
 38 75  1  0
 40 76  1  0
 40 77  1  0
 40 78  1  0
 41 79  1  0
 42 80  1  6
 43 81  1  0
M  END
>  <meeko>  (6) 
{"is_sidechain": [false], "free_energy": -7.034, "intermolecular_energy": -10.934, "internal_energy": -4.409}

$$$$
LIB_FVTRWXQLJLCVKD__M_PUB_ALL__e8__s20260927
     RDKit          3D

 81 85  0  0  0  0  0  0  0  0999 V2000
    4.3160  -11.0580   -3.2360 C   0  0  0  0  0  0  0  0  0  0  0  0
    5.4980  -11.4910   -2.4250 C   0  0  0  0  0  0  0  0  0  0  0  0
    5.5370  -11.4940   -1.2030 O   0  0  0  0  0  0  0  0  0  0  0  0
    6.5070  -11.8850   -3.2450 O   0  0  0  0  0  0  0  0  0  0  0  0
    7.5120  -12.7640   -2.6850 C   0  0  1  0  0  0  0  0  0  0  0  0
    7.7680  -13.9550   -3.6430 C   0  0  2  0  0  0  0  0  0  0  0  0
    6.5740  -14.7740   -3.7280 O   0  0  0  0  0  0  0  0  0  0  0  0
    5.6360  -14.4100   -4.6370 C   0  0  0  0  0  0  0  0  0  0  0  0
    5.8430  -14.0880   -5.7960 O   0  0  0  0  0  0  0  0  0  0  0  0
    4.2790  -14.5050   -4.0480 C   0  0  0  0  0  0  0  0  0  0  0  0
    3.1360  -14.0860   -4.7390 C   0  0  0  0  0  0  0  0  0  0  0  0
    1.8800  -14.1930   -4.1390 C   0  0  0  0  0  0  0  0  0  0  0  0
    1.7610  -14.7180   -2.8520 C   0  0  0  0  0  0  0  0  0  0  0  0
    2.8960  -15.1440   -2.1620 C   0  0  0  0  0  0  0  0  0  0  0  0
    4.1530  -15.0420   -2.7590 C   0  0  0  0  0  0  0  0  0  0  0  0
    8.9570  -14.8760   -3.1750 C   0  0  1  0  0  0  0  0  0  0  0  0
    8.5250  -15.6610   -1.9000 C   0  0  0  0  0  0  0  0  0  0  0  0
    9.2680  -15.9990   -4.2500 C   0  0  1  0  0  0  0  0  0  0  0  0
    8.7490  -15.6160   -5.5390 O   0  0  0  0  0  0  0  0  0  0  0  0
    8.2100  -16.6090   -6.2940 C   0  0  0  0  0  0  0  0  0  0  0  0
    7.9570  -17.7430   -5.9260 O   0  0  0  0  0  0  0  0  0  0  0  0
    7.9370  -16.0620   -7.6370 C   0  0  0  0  0  0  0  0  0  0  0  0
    8.3350  -14.8170   -7.9390 C   0  0  0  0  0  0  0  0  0  0  0  0
    8.1980  -14.1990   -9.2670 C   0  0  0  0  0  0  0  0  0  0  0  0
    6.9960  -14.3780   -9.9670 C   0  0  0  0  0  0  0  0  0  0  0  0
    6.8190  -13.8230  -11.2360 C   0  0  0  0  0  0  0  0  0  0  0  0
    7.8450  -13.0900  -11.8250 C   0  0  0  0  0  0  0  0  0  0  0  0
    9.0500  -12.9150  -11.1480 C   0  0  0  0  0  0  0  0  0  0  0  0
    9.2280  -13.4710   -9.8780 C   0  0  0  0  0  0  0  0  0  0  0  0
   10.7610  -16.4080   -4.3760 C   0  0  0  0  0  0  0  0  0  0  0  0
   11.7990  -15.3180   -4.0240 C   0  0  2  0  0  0  0  0  0  0  0  0
   11.4650  -14.8310   -2.6230 C   0  0  1  0  0  0  0  0  0  0  0  0
   12.5830  -14.1620   -2.0570 O   0  0  0  0  0  0  0  0  0  0  0  0
   10.2250  -13.9640   -2.9440 C   0  0  1  0  0  0  0  0  0  0  0  0
   10.5200  -13.3630   -4.2750 O   0  0  0  0  0  0  0  0  0  0  0  0
   11.6680  -14.0280   -4.8540 C   0  0  0  0  0  0  0  0  0  0  0  0
   11.4690  -14.2380   -6.3600 C   0  0  0  0  0  0  0  0  0  0  0  0
   12.8820  -13.0820   -4.7410 C   0  0  0  0  0  0  0  0  0  0  0  0
    9.9840  -12.7590   -1.9720 C   0  0  1  0  0  0  0  0  0  0  0  0
    9.8570  -13.1070   -0.4850 C   0  0  0  0  0  0  0  0  0  0  0  0
   11.1600  -11.9080   -2.0330 O   0  0  0  0  0  0  0  0  0  0  0  0
    8.7790  -11.9140   -2.4540 C   0  0  1  0  0  0  0  0  0  0  0  0
    9.1660  -11.2010   -3.6500 O   0  0  0  0  0  0  0  0  0  0  0  0
    3.4992  -10.7588   -2.5628 H   0  0  0  0  0  0  0  0  0  0  0  0
    4.5992  -10.2052   -3.8705 H   0  0  0  0  0  0  0  0  0  0  0  0
    3.9813  -11.8919   -3.8705 H   0  0  0  0  0  0  0  0  0  0  0  0
    7.1855  -13.1993   -1.7290 H   0  0  0  0  0  0  0  0  0  0  0  0
    8.0339  -13.5214   -4.6183 H   0  0  0  0  0  0  0  0  0  0  0  0
    3.2274  -13.6726   -5.7543 H   0  0  0  0  0  0  0  0  0  0  0  0
    0.9823  -13.8627   -4.6822 H   0  0  0  0  0  0  0  0  0  0  0  0
    0.7703  -14.7962   -2.3804 H   0  0  0  0  0  0  0  0  0  0  0  0
    2.8002  -15.5600   -1.1482 H   0  0  0  0  0  0  0  0  0  0  0  0
    5.0472  -15.3837   -2.2171 H   0  0  0  0  0  0  0  0  0  0  0  0
    8.8325  -15.1023   -1.0037 H   0  0  0  0  0  0  0  0  0  0  0  0
    7.4319  -15.7844   -1.8982 H   0  0  0  0  0  0  0  0  0  0  0  0
    9.0057  -16.6504   -1.8982 H   0  0  0  0  0  0  0  0  0  0  0  0
    8.7561  -16.8972   -3.8742 H   0  0  0  0  0  0  0  0  0  0  0  0
    7.4103  -16.6715   -8.3861 H   0  0  0  0  0  0  0  0  0  0  0  0
    8.7949  -14.2176   -7.1395 H   0  0  0  0  0  0  0  0  0  0  0  0
    6.1832  -14.9624   -9.5111 H   0  0  0  0  0  0  0  0  0  0  0  0
    5.8681  -13.9652  -11.7704 H   0  0  0  0  0  0  0  0  0  0  0  0
    7.7048  -12.6496  -12.8232 H   0  0  0  0  0  0  0  0  0  0  0  0
    9.8627  -12.3383  -11.6137 H   0  0  0  0  0  0  0  0  0  0  0  0
   10.1853  -13.3359   -9.3533 H   0  0  0  0  0  0  0  0  0  0  0  0
   10.9323  -17.2635   -3.7061 H   0  0  0  0  0  0  0  0  0  0  0  0
   10.9167  -16.6296   -5.4421 H   0  0  0  0  0  0  0  0  0  0  0  0
   12.7866  -15.7764   -4.1804 H   0  0  0  0  0  0  0  0  0  0  0  0
   11.2481  -15.5832   -1.8503 H   0  0  0  0  0  0  0  0  0  0  0  0
   13.1780  -14.8300   -1.6500 H   0  0  0  0  0  0  0  0  0  0  0  0
   10.7209  -15.0275   -6.5244 H   0  0  0  0  0  0  0  0  0  0  0  0
   11.1198  -13.3008   -6.8179 H   0  0  0  0  0  0  0  0  0  0  0  0
   12.4236  -14.5364   -6.8179 H   0  0  0  0  0  0  0  0  0  0  0  0
   13.1105  -12.9039   -3.6798 H   0  0  0  0  0  0  0  0  0  0  0  0
   13.7525  -13.5423   -5.2313 H   0  0  0  0  0  0  0  0  0  0  0  0
   12.6483  -12.1254   -5.2313 H   0  0  0  0  0  0  0  0  0  0  0  0
   10.1716  -12.2449    0.1215 H   0  0  0  0  0  0  0  0  0  0  0  0
    8.8104  -13.3550   -0.2546 H   0  0  0  0  0  0  0  0  0  0  0  0
   10.4978  -13.9708   -0.2546 H   0  0  0  0  0  0  0  0  0  0  0  0
   11.7030  -12.2670   -2.7690 H   0  0  0  0  0  0  0  0  0  0  0  0
    8.5120  -11.1977   -1.6630 H   0  0  0  0  0  0  0  0  0  0  0  0
    8.3630  -10.7850   -4.0300 H   0  0  0  0  0  0  0  0  0  0  0  0
  1  2  1  0
  2  3  2  0
  2  4  1  0
  4  5  1  0
  5  6  1  0
  6  7  1  0
  7  8  1  0
  8  9  2  0
  8 10  1  0
 10 11  2  0
 11 12  1  0
 12 13  2  0
 13 14  1  0
 14 15  2  0
  6 16  1  0
 16 17  1  1
 16 18  1  0
 18 19  1  0
 19 20  1  0
 20 21  2  0
 20 22  1  0
 22 23  2  0
 23 24  1  0
 24 25  2  0
 25 26  1  0
 26 27  2  0
 27 28  1  0
 28 29  2  0
 18 30  1  0
 30 31  1  0
 31 32  1  0
 32 33  1  0
 32 34  1  0
 34 35  1  6
 35 36  1  0
 36 37  1  0
 36 38  1  0
 34 39  1  0
 39 40  1  0
 39 41  1  1
 39 42  1  0
 42 43  1  0
 42  5  1  0
 15 10  1  0
 34 16  1  0
 29 24  1  0
 36 31  1  0
  1 44  1  0
  1 45  1  0
  1 46  1  0
  5 47  1  1
  6 48  1  6
 11 49  1  0
 12 50  1  0
 13 51  1  0
 14 52  1  0
 15 53  1  0
 17 54  1  0
 17 55  1  0
 17 56  1  0
 18 57  1  1
 22 58  1  0
 23 59  1  0
 25 60  1  0
 26 61  1  0
 27 62  1  0
 28 63  1  0
 29 64  1  0
 30 65  1  0
 30 66  1  0
 31 67  1  1
 32 68  1  1
 33 69  1  0
 37 70  1  0
 37 71  1  0
 37 72  1  0
 38 73  1  0
 38 74  1  0
 38 75  1  0
 40 76  1  0
 40 77  1  0
 40 78  1  0
 41 79  1  0
 42 80  1  1
 43 81  1  0
M  END
>  <meeko>  (7) 
{"is_sidechain": [false], "free_energy": -6.993, "intermolecular_energy": -12.446, "internal_energy": -2.831}

$$$$
LIB_FVTRWXQLJLCVKD__M_PUB_ALL__e8__s20260927
     RDKit          3D

 81 85  0  0  0  0  0  0  0  0999 V2000
    7.2220   -9.5550    1.0800 C   0  0  0  0  0  0  0  0  0  0  0  0
    6.7370  -10.3860   -0.0670 C   0  0  0  0  0  0  0  0  0  0  0  0
    6.9600  -10.1410   -1.2440 O   0  0  0  0  0  0  0  0  0  0  0  0
    6.0260  -11.4470    0.3940 O   0  0  0  0  0  0  0  0  0  0  0  0
    5.2200  -12.1740   -0.5650 C   0  0  1  0  0  0  0  0  0  0  0  0
    5.8150  -13.5870   -0.7960 C   0  0  2  0  0  0  0  0  0  0  0  0
    7.1150  -13.4680   -1.4270 O   0  0  0  0  0  0  0  0  0  0  0  0
    8.2000  -13.4530   -0.6140 C   0  0  0  0  0  0  0  0  0  0  0  0
    8.2180  -13.7510    0.5700 O   0  0  0  0  0  0  0  0  0  0  0  0
    9.4130  -13.0690   -1.3760 C   0  0  0  0  0  0  0  0  0  0  0  0
    9.4040  -12.9340   -2.7690 C   0  0  0  0  0  0  0  0  0  0  0  0
   10.5740  -12.5750   -3.4420 C   0  0  0  0  0  0  0  0  0  0  0  0
   11.7510  -12.3490   -2.7280 C   0  0  0  0  0  0  0  0  0  0  0  0
   11.7620  -12.4750   -1.3390 C   0  0  0  0  0  0  0  0  0  0  0  0
   10.5950  -12.8300   -0.6620 C   0  0  0  0  0  0  0  0  0  0  0  0
    4.9100  -14.4920   -1.7130 C   0  0  1  0  0  0  0  0  0  0  0  0
    4.9580  -13.9520   -3.1740 C   0  0  0  0  0  0  0  0  0  0  0  0
    5.4880  -15.9650   -1.8120 C   0  0  1  0  0  0  0  0  0  0  0  0
    6.3700  -16.2320   -0.7040 O   0  0  0  0  0  0  0  0  0  0  0  0
    7.2530  -17.2510   -0.8650 C   0  0  0  0  0  0  0  0  0  0  0  0
    7.1460  -18.3800   -0.4180 O   0  0  0  0  0  0  0  0  0  0  0  0
    8.3550  -16.7690   -1.7190 C   0  0  0  0  0  0  0  0  0  0  0  0
    9.6140  -16.7910   -1.2540 C   0  0  0  0  0  0  0  0  0  0  0  0
   10.7980  -16.4190   -2.0420 C   0  0  0  0  0  0  0  0  0  0  0  0
   10.6710  -16.3230   -3.4360 C   0  0  0  0  0  0  0  0  0  0  0  0
   11.7690  -15.9860   -4.2310 C   0  0  0  0  0  0  0  0  0  0  0  0
   13.0090  -15.7500   -3.6440 C   0  0  0  0  0  0  0  0  0  0  0  0
   13.1530  -15.8560   -2.2630 C   0  0  0  0  0  0  0  0  0  0  0  0
   12.0560  -16.1940   -1.4660 C   0  0  0  0  0  0  0  0  0  0  0  0
    4.4270  -17.0920   -1.9320 C   0  0  0  0  0  0  0  0  0  0  0  0
    3.0510  -16.8070   -1.2880 C   0  0  2  0  0  0  0  0  0  0  0  0
    2.5520  -15.4990   -1.8810 C   0  0  1  0  0  0  0  0  0  0  0  0
    1.1500  -15.3750   -1.6860 O   0  0  0  0  0  0  0  0  0  0  0  0
    3.4530  -14.5080   -1.1050 C   0  0  1  0  0  0  0  0  0  0  0  0
    3.6020  -15.1150    0.2470 O   0  0  0  0  0  0  0  0  0  0  0  0
    3.1130  -16.4770    0.2150 C   0  0  0  0  0  0  0  0  0  0  0  0
    4.0150  -17.3970    1.0480 C   0  0  0  0  0  0  0  0  0  0  0  0
    1.7420  -16.5160    0.9240 C   0  0  0  0  0  0  0  0  0  0  0  0
    2.8350  -13.0870   -0.8720 C   0  0  1  0  0  0  0  0  0  0  0  0
    2.3940  -12.3290   -2.1290 C   0  0  0  0  0  0  0  0  0  0  0  0
    1.6040  -13.2650   -0.1210 O   0  0  0  0  0  0  0  0  0  0  0  0
    3.7850  -12.2260   -0.0030 C   0  0  1  0  0  0  0  0  0  0  0  0
    3.7610  -12.7360    1.3480 O   0  0  0  0  0  0  0  0  0  0  0  0
    6.9403  -10.0377    2.0274 H   0  0  0  0  0  0  0  0  0  0  0  0
    8.3167   -9.4611    1.0277 H   0  0  0  0  0  0  0  0  0  0  0  0
    6.7653   -8.5556    1.0277 H   0  0  0  0  0  0  0  0  0  0  0  0
    5.2092  -11.6782   -1.5469 H   0  0  0  0  0  0  0  0  0  0  0  0
    5.8855  -14.0636    0.1929 H   0  0  0  0  0  0  0  0  0  0  0  0
    8.4764  -13.1105   -3.3332 H   0  0  0  0  0  0  0  0  0  0  0  0
   10.5674  -12.4703   -4.5370 H   0  0  0  0  0  0  0  0  0  0  0  0
   12.6720  -12.0709   -3.2614 H   0  0  0  0  0  0  0  0  0  0  0  0
   12.6905  -12.2945   -0.7775 H   0  0  0  0  0  0  0  0  0  0  0  0
   10.6026  -12.9225    0.4341 H   0  0  0  0  0  0  0  0  0  0  0  0
    5.0554  -12.8565   -3.1570 H   0  0  0  0  0  0  0  0  0  0  0  0
    5.8209  -14.3887   -3.6982 H   0  0  0  0  0  0  0  0  0  0  0  0
    4.0316  -14.2297   -3.6982 H   0  0  0  0  0  0  0  0  0  0  0  0
    6.0385  -15.9876   -2.7641 H   0  0  0  0  0  0  0  0  0  0  0  0
    8.1461  -16.3935   -2.7316 H   0  0  0  0  0  0  0  0  0  0  0  0
    9.7704  -17.1090   -0.2126 H   0  0  0  0  0  0  0  0  0  0  0  0
    9.6962  -16.5152   -3.9080 H   0  0  0  0  0  0  0  0  0  0  0  0
   11.6537  -15.9070   -5.3221 H   0  0  0  0  0  0  0  0  0  0  0  0
   13.8728  -15.4805   -4.2694 H   0  0  0  0  0  0  0  0  0  0  0  0
   14.1330  -15.6732   -1.7981 H   0  0  0  0  0  0  0  0  0  0  0  0
   12.1808  -16.2843   -0.3768 H   0  0  0  0  0  0  0  0  0  0  0  0
    4.2627  -17.2854   -3.0023 H   0  0  0  0  0  0  0  0  0  0  0  0
    4.8408  -17.9456   -1.3752 H   0  0  0  0  0  0  0  0  0  0  0  0
    2.4421  -17.7070   -1.4591 H   0  0  0  0  0  0  0  0  0  0  0  0
    2.6328  -15.3585   -2.9690 H   0  0  0  0  0  0  0  0  0  0  0  0
    0.6940  -15.5790   -2.5320 H   0  0  0  0  0  0  0  0  0  0  0  0
    3.8364  -17.2148    2.1180 H   0  0  0  0  0  0  0  0  0  0  0  0
    3.7863  -18.4467    0.8116 H   0  0  0  0  0  0  0  0  0  0  0  0
    5.0690  -17.1891    0.8116 H   0  0  0  0  0  0  0  0  0  0  0  0
    1.8925  -16.5117    2.0137 H   0  0  0  0  0  0  0  0  0  0  0  0
    1.1528  -15.6343    0.6317 H   0  0  0  0  0  0  0  0  0  0  0  0
    1.2039  -17.4298    0.6317 H   0  0  0  0  0  0  0  0  0  0  0  0
    1.8608  -11.4125   -1.8363 H   0  0  0  0  0  0  0  0  0  0  0  0
    3.2787  -12.0636   -2.7264 H   0  0  0  0  0  0  0  0  0  0  0  0
    1.7260  -12.9669   -2.7264 H   0  0  0  0  0  0  0  0  0  0  0  0
    1.4570  -12.4110    0.3430 H   0  0  0  0  0  0  0  0  0  0  0  0
    3.4277  -11.1857   -0.0148 H   0  0  0  0  0  0  0  0  0  0  0  0
    4.5220  -13.3450    1.4580 H   0  0  0  0  0  0  0  0  0  0  0  0
  1  2  1  0
  2  3  2  0
  2  4  1  0
  4  5  1  0
  5  6  1  0
  6  7  1  0
  7  8  1  0
  8  9  2  0
  8 10  1  0
 10 11  2  0
 11 12  1  0
 12 13  2  0
 13 14  1  0
 14 15  2  0
  6 16  1  0
 16 17  1  6
 16 18  1  0
 18 19  1  0
 19 20  1  0
 20 21  2  0
 20 22  1  0
 22 23  2  0
 23 24  1  0
 24 25  2  0
 25 26  1  0
 26 27  2  0
 27 28  1  0
 28 29  2  0
 18 30  1  0
 30 31  1  0
 31 32  1  0
 32 33  1  0
 32 34  1  0
 34 35  1  1
 35 36  1  0
 36 37  1  0
 36 38  1  0
 34 39  1  0
 39 40  1  0
 39 41  1  1
 39 42  1  0
 42 43  1  0
 42  5  1  0
 15 10  1  0
 34 16  1  0
 29 24  1  0
 36 31  1  0
  1 44  1  0
  1 45  1  0
  1 46  1  0
  5 47  1  6
  6 48  1  1
 11 49  1  0
 12 50  1  0
 13 51  1  0
 14 52  1  0
 15 53  1  0
 17 54  1  0
 17 55  1  0
 17 56  1  0
 18 57  1  6
 22 58  1  0
 23 59  1  0
 25 60  1  0
 26 61  1  0
 27 62  1  0
 28 63  1  0
 29 64  1  0
 30 65  1  0
 30 66  1  0
 31 67  1  1
 32 68  1  6
 33 69  1  0
 37 70  1  0
 37 71  1  0
 37 72  1  0
 38 73  1  0
 38 74  1  0
 38 75  1  0
 40 76  1  0
 40 77  1  0
 40 78  1  0
 41 79  1  0
 42 80  1  1
 43 81  1  0
M  END
>  <meeko>  (8) 
{"is_sidechain": [false], "free_energy": -6.879, "intermolecular_energy": -10.682, "internal_energy": -4.411}

$$$$
LIB_FVTRWXQLJLCVKD__M_PUB_ALL__e8__s20260927
     RDKit          3D

 81 85  0  0  0  0  0  0  0  0999 V2000
   11.6290  -12.0690   -0.9070 C   0  0  0  0  0  0  0  0  0  0  0  0
   11.1170  -12.9500    0.1910 C   0  0  0  0  0  0  0  0  0  0  0  0
   11.5800  -12.9880    1.3210 O   0  0  0  0  0  0  0  0  0  0  0  0
   10.0660  -13.6850   -0.2550 O   0  0  0  0  0  0  0  0  0  0  0  0
    8.9980  -12.9770   -0.9300 C   0  0  1  0  0  0  0  0  0  0  0  0
    8.4850  -13.8090   -2.1320 C   0  0  2  0  0  0  0  0  0  0  0  0
    9.5340  -13.9210   -3.1270 O   0  0  0  0  0  0  0  0  0  0  0  0
   10.3160  -15.0290   -3.0820 C   0  0  0  0  0  0  0  0  0  0  0  0
   10.0610  -16.0670   -2.4940 O   0  0  0  0  0  0  0  0  0  0  0  0
   11.5340  -14.8370   -3.9060 C   0  0  0  0  0  0  0  0  0  0  0  0
   12.2720  -15.9160   -4.4060 C   0  0  0  0  0  0  0  0  0  0  0  0
   13.4150  -15.6840   -5.1740 C   0  0  0  0  0  0  0  0  0  0  0  0
   13.8210  -14.3770   -5.4460 C   0  0  0  0  0  0  0  0  0  0  0  0
   13.0850  -13.2980   -4.9570 C   0  0  0  0  0  0  0  0  0  0  0  0
   11.9400  -13.5260   -4.1910 C   0  0  0  0  0  0  0  0  0  0  0  0
    7.2230  -13.1740   -2.8260 C   0  0  1  0  0  0  0  0  0  0  0  0
    7.6500  -11.8760   -3.5770 C   0  0  0  0  0  0  0  0  0  0  0  0
    6.6550  -14.1230   -3.9610 C   0  0  1  0  0  0  0  0  0  0  0  0
    7.1040  -15.4770   -3.7530 O   0  0  0  0  0  0  0  0  0  0  0  0
    7.3860  -16.2000   -4.8680 C   0  0  0  0  0  0  0  0  0  0  0  0
    7.2440  -17.4020   -5.0070 O   0  0  0  0  0  0  0  0  0  0  0  0
    7.8560  -15.2660   -5.9090 C   0  0  0  0  0  0  0  0  0  0  0  0
    9.0040  -15.5190   -6.5580 C   0  0  0  0  0  0  0  0  0  0  0  0
    9.5260  -14.7110   -7.6700 C   0  0  0  0  0  0  0  0  0  0  0  0
   10.9040  -14.4570   -7.7230 C   0  0  0  0  0  0  0  0  0  0  0  0
   11.4490  -13.6840   -8.7510 C   0  0  0  0  0  0  0  0  0  0  0  0
   10.6220  -13.1480   -9.7330 C   0  0  0  0  0  0  0  0  0  0  0  0
    9.2490  -13.3800   -9.6860 C   0  0  0  0  0  0  0  0  0  0  0  0
    8.7030  -14.1530   -8.6570 C   0  0  0  0  0  0  0  0  0  0  0  0
    5.1130  -14.0960   -4.1450 C   0  0  0  0  0  0  0  0  0  0  0  0
    4.2810  -13.7540   -2.8890 C   0  0  2  0  0  0  0  0  0  0  0  0
    4.8090  -12.4290   -2.3610 C   0  0  1  0  0  0  0  0  0  0  0  0
    3.8560  -11.8320   -1.4920 O   0  0  0  0  0  0  0  0  0  0  0  0
    6.1280  -12.9180   -1.7180 C   0  0  1  0  0  0  0  0  0  0  0  0
    5.8030  -14.2660   -1.1730 O   0  0  0  0  0  0  0  0  0  0  0  0
    4.5230  -14.6950   -1.6950 C   0  0  0  0  0  0  0  0  0  0  0  0
    4.5510  -16.1900   -2.0370 C   0  0  0  0  0  0  0  0  0  0  0  0
    3.4740  -14.5650   -0.5690 C   0  0  0  0  0  0  0  0  0  0  0  0
    6.6290  -12.0710   -0.4980 C   0  0  1  0  0  0  0  0  0  0  0  0
    6.8390  -10.5750   -0.7570 C   0  0  0  0  0  0  0  0  0  0  0  0
    5.5890  -12.1090    0.5150 O   0  0  0  0  0  0  0  0  0  0  0  0
    7.8950  -12.7160    0.1170 C   0  0  1  0  0  0  0  0  0  0  0  0
    7.5090  -13.9320    0.7960 O   0  0  0  0  0  0  0  0  0  0  0  0
   12.1363  -11.1961   -0.4703 H   0  0  0  0  0  0  0  0  0  0  0  0
   12.3399  -12.6333   -1.5285 H   0  0  0  0  0  0  0  0  0  0  0  0
   10.7868  -11.7307   -1.5285 H   0  0  0  0  0  0  0  0  0  0  0  0
    9.3435  -12.0177   -1.3429 H   0  0  0  0  0  0  0  0  0  0  0  0
    8.1971  -14.7924   -1.7319 H   0  0  0  0  0  0  0  0  0  0  0  0
   11.9517  -16.9468   -4.1940 H   0  0  0  0  0  0  0  0  0  0  0  0
   13.9959  -16.5324   -5.5649 H   0  0  0  0  0  0  0  0  0  0  0  0
   14.7241  -14.1972   -6.0478 H   0  0  0  0  0  0  0  0  0  0  0  0
   13.4061  -12.2686   -5.1745 H   0  0  0  0  0  0  0  0  0  0  0  0
   11.3556  -12.6753   -3.8105 H   0  0  0  0  0  0  0  0  0  0  0  0
    7.9065  -11.0963   -2.8447 H   0  0  0  0  0  0  0  0  0  0  0  0
    8.5255  -12.0887   -4.2080 H   0  0  0  0  0  0  0  0  0  0  0  0
    6.8192  -11.5273   -4.2080 H   0  0  0  0  0  0  0  0  0  0  0  0
    7.0627  -13.7152   -4.8977 H   0  0  0  0  0  0  0  0  0  0  0  0
    7.2694  -14.3677   -6.1520 H   0  0  0  0  0  0  0  0  0  0  0  0
    9.5939  -16.3898   -6.2359 H   0  0  0  0  0  0  0  0  0  0  0  0
   11.5634  -14.8712   -6.9461 H   0  0  0  0  0  0  0  0  0  0  0  0
   12.5328  -13.4990   -8.7841 H   0  0  0  0  0  0  0  0  0  0  0  0
   11.0512  -12.5424  -10.5448 H   0  0  0  0  0  0  0  0  0  0  0  0
    8.5934  -12.9542  -10.4599 H   0  0  0  0  0  0  0  0  0  0  0  0
    7.6171  -14.3247   -8.6220 H   0  0  0  0  0  0  0  0  0  0  0  0
    4.8803  -13.3465   -4.9158 H   0  0  0  0  0  0  0  0  0  0  0  0
    4.8310  -15.1249   -4.4132 H   0  0  0  0  0  0  0  0  0  0  0  0
    3.2272  -13.7929   -3.2020 H   0  0  0  0  0  0  0  0  0  0  0  0
    4.9837  -11.6162   -3.0813 H   0  0  0  0  0  0  0  0  0  0  0  0
    3.1420  -11.4310   -2.0340 H   0  0  0  0  0  0  0  0  0  0  0  0
    4.5620  -16.7786   -1.1078 H   0  0  0  0  0  0  0  0  0  0  0  0
    3.6575  -16.4486   -2.6242 H   0  0  0  0  0  0  0  0  0  0  0  0
    5.4535  -16.4150   -2.6242 H   0  0  0  0  0  0  0  0  0  0  0  0
    3.9753  -14.6271    0.4081 H   0  0  0  0  0  0  0  0  0  0  0  0
    2.9602  -13.5963   -0.6566 H   0  0  0  0  0  0  0  0  0  0  0  0
    2.7393  -15.3790   -0.6566 H   0  0  0  0  0  0  0  0  0  0  0  0
    6.9136  -10.0436    0.2032 H   0  0  0  0  0  0  0  0  0  0  0  0
    7.7665  -10.4287   -1.3300 H   0  0  0  0  0  0  0  0  0  0  0  0
    5.9876  -10.1790   -1.3300 H   0  0  0  0  0  0  0  0  0  0  0  0
    6.0480  -12.3500    1.3510 H   0  0  0  0  0  0  0  0  0  0  0  0
    8.3347  -12.0102    0.8371 H   0  0  0  0  0  0  0  0  0  0  0  0
    6.5310  -13.9350    0.8820 H   0  0  0  0  0  0  0  0  0  0  0  0
  1  2  1  0
  2  3  2  0
  2  4  1  0
  4  5  1  0
  5  6  1  0
  6  7  1  0
  7  8  1  0
  8  9  2  0
  8 10  1  0
 10 11  2  0
 11 12  1  0
 12 13  2  0
 13 14  1  0
 14 15  2  0
  6 16  1  0
 16 17  1  6
 16 18  1  0
 18 19  1  0
 19 20  1  0
 20 21  2  0
 20 22  1  0
 22 23  2  0
 23 24  1  0
 24 25  2  0
 25 26  1  0
 26 27  2  0
 27 28  1  0
 28 29  2  0
 18 30  1  0
 30 31  1  0
 31 32  1  0
 32 33  1  0
 32 34  1  0
 34 35  1  1
 35 36  1  0
 36 37  1  0
 36 38  1  0
 34 39  1  0
 39 40  1  0
 39 41  1  1
 39 42  1  0
 42 43  1  0
 42  5  1  0
 15 10  1  0
 34 16  1  0
 29 24  1  0
 36 31  1  0
  1 44  1  0
  1 45  1  0
  1 46  1  0
  5 47  1  6
  6 48  1  1
 11 49  1  0
 12 50  1  0
 13 51  1  0
 14 52  1  0
 15 53  1  0
 17 54  1  0
 17 55  1  0
 17 56  1  0
 18 57  1  6
 22 58  1  0
 23 59  1  0
 25 60  1  0
 26 61  1  0
 27 62  1  0
 28 63  1  0
 29 64  1  0
 30 65  1  0
 30 66  1  0
 31 67  1  6
 32 68  1  6
 33 69  1  0
 37 70  1  0
 37 71  1  0
 37 72  1  0
 38 73  1  0
 38 74  1  0
 38 75  1  0
 40 76  1  0
 40 77  1  0
 40 78  1  0
 41 79  1  0
 42 80  1  1
 43 81  1  0
M  END
>  <meeko>  (9) 
{"is_sidechain": [false], "free_energy": -6.758, "intermolecular_energy": -11.102, "internal_energy": -3.796}

$$$$
