LIB_HHZIURLSWUIHRB__M_PUB_ALL__e8__s20260927
     RDKit          3D

 61 65  0  0  0  0  0  0  0  0999 V2000
    2.8160  -10.4610   -3.6420 C   0  0  0  0  0  0  0  0  0  0  0  0
    2.5510  -11.1250   -2.3480 C   0  0  0  0  0  0  0  0  0  0  0  0
    1.4800  -10.9730   -1.4940 C   0  0  0  0  0  0  0  0  0  0  0  0
    1.7070  -11.8140   -0.4230 N   0  0  0  0  0  0  0  0  0  0  0  0
    0.8730  -12.0020    0.7210 C   0  0  0  0  0  0  0  0  0  0  0  0
    0.8860  -13.2230    1.4180 C   0  0  0  0  0  0  0  0  0  0  0  0
    0.0750  -13.4210    2.5410 C   0  0  0  0  0  0  0  0  0  0  0  0
    0.0430  -14.6150    3.2910 N   0  0  0  0  0  0  0  0  0  0  0  0
    0.9400  -15.0270    4.2610 C   0  0  0  0  0  0  0  0  0  0  0  0
    1.9750  -14.4590    4.5870 O   0  0  0  0  0  0  0  0  0  0  0  0
    0.6020  -16.3200    4.9220 C   0  0  0  0  0  0  0  0  0  0  0  0
    1.3180  -17.4620    4.5640 C   0  0  0  0  0  0  0  0  0  0  0  0
    1.0080  -18.6840    5.1540 C   0  0  0  0  0  0  0  0  0  0  0  0
   -0.0170  -18.7800    6.1130 C   0  0  0  0  0  0  0  0  0  0  0  0
   -0.3190  -20.1360    6.7010 C   0  0  0  0  0  0  0  0  0  0  0  0
   -0.7310  -17.6240    6.5080 C   0  0  0  0  0  0  0  0  0  0  0  0
   -1.7670  -17.7250    7.4470 N   0  0  0  0  0  0  0  0  0  0  0  0
   -2.7390  -16.8440    7.9140 C   0  0  0  0  0  0  0  0  0  0  0  0
   -2.5170  -16.0240    8.9520 N   0  0  0  0  0  0  0  0  0  0  0  0
   -3.5190  -15.2040    9.3100 C   0  0  0  0  0  0  0  0  0  0  0  0
   -4.7310  -15.1600    8.6670 C   0  0  0  0  0  0  0  0  0  0  0  0
   -4.8840  -16.0220    7.6010 C   0  0  0  0  0  0  0  0  0  0  0  0
   -6.1200  -16.1040    6.8040 C   0  0  0  0  0  0  0  0  0  0  0  0
   -6.2950  -15.3490    5.6340 C   0  0  0  0  0  0  0  0  0  0  0  0
   -7.4690  -15.4450    4.8890 C   0  0  0  0  0  0  0  0  0  0  0  0
   -8.4590  -16.3020    5.3350 C   0  0  0  0  0  0  0  0  0  0  0  0
   -8.3500  -17.0460    6.4540 N   0  0  0  0  0  0  0  0  0  0  0  0
   -7.1950  -16.9230    7.1560 C   0  0  0  0  0  0  0  0  0  0  0  0
   -3.8930  -16.8640    7.2290 N   0  0  0  0  0  0  0  0  0  0  0  0
   -0.3970  -16.4040    5.9010 C   0  0  0  0  0  0  0  0  0  0  0  0
   -0.7570  -12.3820    2.9710 C   0  0  0  0  0  0  0  0  0  0  0  0
   -0.7930  -11.1560    2.2890 C   0  0  0  0  0  0  0  0  0  0  0  0
   -1.6790  -10.0390    2.7840 C   0  0  0  0  0  0  0  0  0  0  0  0
   -3.0040  -10.3530    2.7390 F   0  0  0  0  0  0  0  0  0  0  0  0
   -1.4170   -9.7110    4.0790 F   0  0  0  0  0  0  0  0  0  0  0  0
   -1.5440   -8.8890    2.0680 F   0  0  0  0  0  0  0  0  0  0  0  0
    0.0320  -10.9730    1.1670 C   0  0  0  0  0  0  0  0  0  0  0  0
    2.9110  -12.4280   -0.6990 C   0  0  0  0  0  0  0  0  0  0  0  0
    3.4350  -12.0340   -1.8390 N   0  0  0  0  0  0  0  0  0  0  0  0
    3.2182   -9.4532   -3.4614 H   0  0  0  0  0  0  0  0  0  0  0  0
    3.5477  -11.0508   -4.2137 H   0  0  0  0  0  0  0  0  0  0  0  0
    1.8793  -10.3849   -4.2137 H   0  0  0  0  0  0  0  0  0  0  0  0
    0.6135  -10.3108   -1.6377 H   0  0  0  0  0  0  0  0  0  0  0  0
    1.5439  -14.0352    1.0752 H   0  0  0  0  0  0  0  0  0  0  0  0
   -0.7070  -15.2580    3.0650 H   0  0  0  0  0  0  0  0  0  0  0  0
    2.1243  -17.3973    3.8185 H   0  0  0  0  0  0  0  0  0  0  0  0
    1.5707  -19.5847    4.8673 H   0  0  0  0  0  0  0  0  0  0  0  0
   -0.3045  -20.0710    7.7990 H   0  0  0  0  0  0  0  0  0  0  0  0
   -1.3130  -20.4676    6.3664 H   0  0  0  0  0  0  0  0  0  0  0  0
    0.4403  -20.8581    6.3664 H   0  0  0  0  0  0  0  0  0  0  0  0
   -1.8640  -18.6000    7.9410 H   0  0  0  0  0  0  0  0  0  0  0  0
   -3.3595  -14.5309   10.1653 H   0  0  0  0  0  0  0  0  0  0  0  0
   -5.5333  -14.4772    8.9833 H   0  0  0  0  0  0  0  0  0  0  0  0
   -5.4946  -14.6722    5.3004 H   0  0  0  0  0  0  0  0  0  0  0  0
   -7.6047  -14.8549    3.9707 H   0  0  0  0  0  0  0  0  0  0  0  0
   -9.3843  -16.3806    4.7454 H   0  0  0  0  0  0  0  0  0  0  0  0
   -7.0977  -17.5166    8.0770 H   0  0  0  0  0  0  0  0  0  0  0  0
   -0.9324  -15.4911    6.2009 H   0  0  0  0  0  0  0  0  0  0  0  0
   -1.3925  -12.5281    3.8569 H   0  0  0  0  0  0  0  0  0  0  0  0
    0.0180  -10.0117    0.6325 H   0  0  0  0  0  0  0  0  0  0  0  0
    3.3826  -13.1684   -0.0361 H   0  0  0  0  0  0  0  0  0  0  0  0
  1  2  1  0
  2  3  2  0
  3  4  1  0
  4  5  1  0
  5  6  2  0
  6  7  1  0
  7  8  1  0
  8  9  1  0
  9 10  2  0
  9 11  1  0
 11 12  2  0
 12 13  1  0
 13 14  2  0
 14 15  1  0
 14 16  1  0
 16 17  1  0
 17 18  1  0
 18 19  2  0
 19 20  1  0
 20 21  2  0
 21 22  1  0
 22 23  1  0
 23 24  2  0
 24 25  1  0
 25 26  2  0
 26 27  1  0
 27 28  2  0
 22 29  2  0
 16 30  2  0
  7 31  2  0
 31 32  1  0
 32 33  1  0
 33 34  1  0
 33 35  1  0
 33 36  1  0
 32 37  2  0
  4 38  1  0
 38 39  2  0
 39  2  1  0
 37  5  1  0
 30 11  1  0
 29 18  1  0
 28 23  1  0
  1 40  1  0
  1 41  1  0
  1 42  1  0
  3 43  1  0
  6 44  1  0
  8 45  1  0
 12 46  1  0
 13 47  1  0
 15 48  1  0
 15 49  1  0
 15 50  1  0
 17 51  1  0
 20 52  1  0
 21 53  1  0
 24 54  1  0
 25 55  1  0
 26 56  1  0
 28 57  1  0
 30 58  1  0
 31 59  1  0
 37 60  1  0
 38 61  1  0
M  END
>  <meeko>  (1) 
{"is_sidechain": [false], "free_energy": -9.058, "intermolecular_energy": -12.765, "internal_energy": -1.378}

$$$$
LIB_HHZIURLSWUIHRB__M_PUB_ALL__e8__s20260927
     RDKit          3D

 61 65  0  0  0  0  0  0  0  0999 V2000
    8.1870  -13.2140  -11.8860 C   0  0  0  0  0  0  0  0  0  0  0  0
    8.8970  -13.8920  -10.7800 C   0  0  0  0  0  0  0  0  0  0  0  0
   10.0040  -13.4770  -10.0720 C   0  0  0  0  0  0  0  0  0  0  0  0
   10.2740  -14.4660   -9.1470 N   0  0  0  0  0  0  0  0  0  0  0  0
   11.3300  -14.4870   -8.1870 C   0  0  0  0  0  0  0  0  0  0  0  0
   11.1020  -14.0630   -6.8660 C   0  0  0  0  0  0  0  0  0  0  0  0
   12.1270  -14.0790   -5.9150 C   0  0  0  0  0  0  0  0  0  0  0  0
   11.9670  -13.6750   -4.5730 N   0  0  0  0  0  0  0  0  0  0  0  0
   12.5990  -12.6280   -3.9240 C   0  0  0  0  0  0  0  0  0  0  0  0
   13.4790  -11.9100   -4.3830 O   0  0  0  0  0  0  0  0  0  0  0  0
   12.1720  -12.4140   -2.5130 C   0  0  0  0  0  0  0  0  0  0  0  0
   12.9890  -11.6580   -1.6740 C   0  0  0  0  0  0  0  0  0  0  0  0
   12.6210  -11.4590   -0.3460 C   0  0  0  0  0  0  0  0  0  0  0  0
   11.4280  -12.0090    0.1590 C   0  0  0  0  0  0  0  0  0  0  0  0
   11.0930  -11.7750    1.6110 C   0  0  0  0  0  0  0  0  0  0  0  0
   10.5740  -12.7530   -0.6890 C   0  0  0  0  0  0  0  0  0  0  0  0
    9.3970  -13.3190   -0.1800 N   0  0  0  0  0  0  0  0  0  0  0  0
    8.0860  -12.8680   -0.0440 C   0  0  0  0  0  0  0  0  0  0  0  0
    7.5400  -12.6210    1.1560 N   0  0  0  0  0  0  0  0  0  0  0  0
    6.2730  -12.1750    1.1710 C   0  0  0  0  0  0  0  0  0  0  0  0
    5.5310  -11.9530    0.0380 C   0  0  0  0  0  0  0  0  0  0  0  0
    6.1620  -12.2160   -1.1600 C   0  0  0  0  0  0  0  0  0  0  0  0
    5.5110  -12.0340   -2.4690 C   0  0  0  0  0  0  0  0  0  0  0  0
    4.2740  -11.3830   -2.5930 C   0  0  0  0  0  0  0  0  0  0  0  0
    3.6760  -11.2150   -3.8410 C   0  0  0  0  0  0  0  0  0  0  0  0
    4.3320  -11.7090   -4.9540 C   0  0  0  0  0  0  0  0  0  0  0  0
    5.5170  -12.3480   -4.8940 N   0  0  0  0  0  0  0  0  0  0  0  0
    6.0670  -12.4990   -3.6630 C   0  0  0  0  0  0  0  0  0  0  0  0
    7.4330  -12.6760   -1.2010 N   0  0  0  0  0  0  0  0  0  0  0  0
   10.9670  -12.9350   -2.0230 C   0  0  0  0  0  0  0  0  0  0  0  0
   13.3970  -14.5300   -6.2920 C   0  0  0  0  0  0  0  0  0  0  0  0
   13.6530  -14.9530   -7.6050 C   0  0  0  0  0  0  0  0  0  0  0  0
   15.0240  -15.4600   -7.9850 C   0  0  0  0  0  0  0  0  0  0  0  0
   15.8680  -15.5540   -6.9190 F   0  0  0  0  0  0  0  0  0  0  0  0
   14.9770  -16.7040   -8.5350 F   0  0  0  0  0  0  0  0  0  0  0  0
   15.6560  -14.6680   -8.8930 F   0  0  0  0  0  0  0  0  0  0  0  0
   12.6100  -14.9350   -8.5450 C   0  0  0  0  0  0  0  0  0  0  0  0
    9.3040  -15.4250   -9.3550 C   0  0  0  0  0  0  0  0  0  0  0  0
    8.4720  -15.1080  -10.3230 N   0  0  0  0  0  0  0  0  0  0  0  0
    7.4500  -12.5102  -11.4718 H   0  0  0  0  0  0  0  0  0  0  0  0
    8.9117  -12.6642  -12.5045 H   0  0  0  0  0  0  0  0  0  0  0  0
    7.6712  -13.9633  -12.5045 H   0  0  0  0  0  0  0  0  0  0  0  0
   10.5633  -12.5408  -10.2157 H   0  0  0  0  0  0  0  0  0  0  0  0
   10.1005  -13.7128   -6.5757 H   0  0  0  0  0  0  0  0  0  0  0  0
   11.3390  -14.2410   -4.0140 H   0  0  0  0  0  0  0  0  0  0  0  0
   13.9214  -11.2201   -2.0598 H   0  0  0  0  0  0  0  0  0  0  0  0
   13.2695  -10.8657    0.3154 H   0  0  0  0  0  0  0  0  0  0  0  0
   11.8300  -12.2898    2.2449 H   0  0  0  0  0  0  0  0  0  0  0  0
   11.1167  -10.6960    1.8235 H   0  0  0  0  0  0  0  0  0  0  0  0
   10.0880  -12.1686    1.8235 H   0  0  0  0  0  0  0  0  0  0  0  0
    9.4570  -14.2490    0.2050 H   0  0  0  0  0  0  0  0  0  0  0  0
    5.8039  -11.9766    2.1460 H   0  0  0  0  0  0  0  0  0  0  0  0
    4.4946  -11.5871    0.0826 H   0  0  0  0  0  0  0  0  0  0  0  0
    3.7696  -11.0002   -1.6935 H   0  0  0  0  0  0  0  0  0  0  0  0
    2.7074  -10.7028   -3.9381 H   0  0  0  0  0  0  0  0  0  0  0  0
    3.8621  -11.5732   -5.9393 H   0  0  0  0  0  0  0  0  0  0  0  0
    7.0281  -13.0304   -3.6002 H   0  0  0  0  0  0  0  0  0  0  0  0
   10.3125  -13.5012   -2.7020 H   0  0  0  0  0  0  0  0  0  0  0  0
   14.2067  -14.5532   -5.5478 H   0  0  0  0  0  0  0  0  0  0  0  0
   12.7989  -15.2760   -9.5736 H   0  0  0  0  0  0  0  0  0  0  0  0
    9.2340  -16.3558   -8.7730 H   0  0  0  0  0  0  0  0  0  0  0  0
  1  2  1  0
  2  3  2  0
  3  4  1  0
  4  5  1  0
  5  6  2  0
  6  7  1  0
  7  8  1  0
  8  9  1  0
  9 10  2  0
  9 11  1  0
 11 12  2  0
 12 13  1  0
 13 14  2  0
 14 15  1  0
 14 16  1  0
 16 17  1  0
 17 18  1  0
 18 19  2  0
 19 20  1  0
 20 21  2  0
 21 22  1  0
 22 23  1  0
 23 24  2  0
 24 25  1  0
 25 26  2  0
 26 27  1  0
 27 28  2  0
 22 29  2  0
 16 30  2  0
  7 31  2  0
 31 32  1  0
 32 33  1  0
 33 34  1  0
 33 35  1  0
 33 36  1  0
 32 37  2  0
  4 38  1  0
 38 39  2  0
 39  2  1  0
 37  5  1  0
 30 11  1  0
 29 18  1  0
 28 23  1  0
  1 40  1  0
  1 41  1  0
  1 42  1  0
  3 43  1  0
  6 44  1  0
  8 45  1  0
 12 46  1  0
 13 47  1  0
 15 48  1  0
 15 49  1  0
 15 50  1  0
 17 51  1  0
 20 52  1  0
 21 53  1  0
 24 54  1  0
 25 55  1  0
 26 56  1  0
 28 57  1  0
 30 58  1  0
 31 59  1  0
 37 60  1  0
 38 61  1  0
M  END
>  <meeko>  (2) 
{"is_sidechain": [false], "free_energy": -8.99, "intermolecular_energy": -12.732, "internal_energy": -1.315}

$$$$
LIB_HHZIURLSWUIHRB__M_PUB_ALL__e8__s20260927
     RDKit          3D

 61 65  0  0  0  0  0  0  0  0999 V2000
   -2.6140  -18.5960    4.2970 C   0  0  0  0  0  0  0  0  0  0  0  0
   -2.0460  -17.6750    3.2890 C   0  0  0  0  0  0  0  0  0  0  0  0
   -1.8250  -16.3170    3.3760 C   0  0  0  0  0  0  0  0  0  0  0  0
   -1.2800  -15.9280    2.1690 N   0  0  0  0  0  0  0  0  0  0  0  0
   -0.8830  -14.6120    1.7830 C   0  0  0  0  0  0  0  0  0  0  0  0
   -0.0450  -14.4180    0.6720 C   0  0  0  0  0  0  0  0  0  0  0  0
    0.3510  -13.1340    0.2820 C   0  0  0  0  0  0  0  0  0  0  0  0
    1.1830  -12.8660   -0.8250 N   0  0  0  0  0  0  0  0  0  0  0  0
    2.5130  -12.4810   -0.8090 C   0  0  0  0  0  0  0  0  0  0  0  0
    3.1870  -12.2260    0.1820 O   0  0  0  0  0  0  0  0  0  0  0  0
    3.1400  -12.3300   -2.1520 C   0  0  0  0  0  0  0  0  0  0  0  0
    2.3170  -12.3210   -3.2780 C   0  0  0  0  0  0  0  0  0  0  0  0
    2.8810  -12.1990   -4.5450 C   0  0  0  0  0  0  0  0  0  0  0  0
    4.2740  -12.0790   -4.7040 C   0  0  0  0  0  0  0  0  0  0  0  0
    4.8260  -11.9700   -6.1030 C   0  0  0  0  0  0  0  0  0  0  0  0
    5.1180  -12.0550   -3.5690 C   0  0  0  0  0  0  0  0  0  0  0  0
    6.5080  -11.9570   -3.7280 N   0  0  0  0  0  0  0  0  0  0  0  0
    7.5660  -12.8460   -3.5640 C   0  0  0  0  0  0  0  0  0  0  0  0
    7.5340  -14.0900   -4.0630 N   0  0  0  0  0  0  0  0  0  0  0  0
    8.6160  -14.8600   -3.8590 C   0  0  0  0  0  0  0  0  0  0  0  0
    9.7340  -14.4360   -3.1850 C   0  0  0  0  0  0  0  0  0  0  0  0
    9.7010  -13.1410   -2.7100 C   0  0  0  0  0  0  0  0  0  0  0  0
   10.8150  -12.5290   -1.9650 C   0  0  0  0  0  0  0  0  0  0  0  0
   10.7840  -12.4010   -0.5680 C   0  0  0  0  0  0  0  0  0  0  0  0
   11.8510  -11.8240    0.1210 C   0  0  0  0  0  0  0  0  0  0  0  0
   12.9380  -11.3790   -0.6090 C   0  0  0  0  0  0  0  0  0  0  0  0
   13.0190  -11.4700   -1.9510 N   0  0  0  0  0  0  0  0  0  0  0  0
   11.9610  -12.0310   -2.5890 C   0  0  0  0  0  0  0  0  0  0  0  0
    8.6190  -12.3510   -2.8940 N   0  0  0  0  0  0  0  0  0  0  0  0
    4.5250  -12.1760   -2.3030 C   0  0  0  0  0  0  0  0  0  0  0  0
   -0.1030  -12.0310    1.0130 C   0  0  0  0  0  0  0  0  0  0  0  0
   -0.9360  -12.1980    2.1300 C   0  0  0  0  0  0  0  0  0  0  0  0
   -1.4350  -10.9930    2.8910 C   0  0  0  0  0  0  0  0  0  0  0  0
   -0.8820   -9.8260    2.4570 F   0  0  0  0  0  0  0  0  0  0  0  0
   -2.7810  -10.8340    2.7750 F   0  0  0  0  0  0  0  0  0  0  0  0
   -1.1750  -11.0550    4.2260 F   0  0  0  0  0  0  0  0  0  0  0  0
   -1.3270  -13.4940    2.5040 C   0  0  0  0  0  0  0  0  0  0  0  0
   -1.2030  -17.0850    1.4220 C   0  0  0  0  0  0  0  0  0  0  0  0
   -1.6540  -18.1390    2.0650 N   0  0  0  0  0  0  0  0  0  0  0  0
   -2.3838  -18.2227    5.3058 H   0  0  0  0  0  0  0  0  0  0  0  0
   -3.7048  -18.6537    4.1675 H   0  0  0  0  0  0  0  0  0  0  0  0
   -2.1759  -19.5967    4.1675 H   0  0  0  0  0  0  0  0  0  0  0  0
   -2.0409  -15.6698    4.2389 H   0  0  0  0  0  0  0  0  0  0  0  0
    0.3053  -15.2896    0.0996 H   0  0  0  0  0  0  0  0  0  0  0  0
    0.7420  -12.9310   -1.7350 H   0  0  0  0  0  0  0  0  0  0  0  0
    1.2264  -12.4100   -3.1654 H   0  0  0  0  0  0  0  0  0  0  0  0
    2.2303  -12.1964   -5.4319 H   0  0  0  0  0  0  0  0  0  0  0  0
    5.9042  -11.7571   -6.0562 H   0  0  0  0  0  0  0  0  0  0  0  0
    4.6622  -12.9178   -6.6367 H   0  0  0  0  0  0  0  0  0  0  0  0
    4.3143  -11.1556   -6.6367 H   0  0  0  0  0  0  0  0  0  0  0  0
    6.8820  -11.0610   -4.0020 H   0  0  0  0  0  0  0  0  0  0  0  0
    8.6053  -15.8866   -4.2538 H   0  0  0  0  0  0  0  0  0  0  0  0
   10.6051  -15.0902   -3.0325 H   0  0  0  0  0  0  0  0  0  0  0  0
    9.9073  -12.7602   -0.0091 H   0  0  0  0  0  0  0  0  0  0  0  0
   11.8283  -11.7256    1.2164 H   0  0  0  0  0  0  0  0  0  0  0  0
   13.7808  -10.9270   -0.0656 H   0  0  0  0  0  0  0  0  0  0  0  0
   12.0098  -12.0990   -3.6858 H   0  0  0  0  0  0  0  0  0  0  0  0
    5.1627  -12.1493   -1.4071 H   0  0  0  0  0  0  0  0  0  0  0  0
    0.1974  -11.0178    0.7077 H   0  0  0  0  0  0  0  0  0  0  0  0
   -1.9885  -13.6337    3.3717 H   0  0  0  0  0  0  0  0  0  0  0  0
   -0.8062  -17.1217    0.3967 H   0  0  0  0  0  0  0  0  0  0  0  0
  1  2  1  0
  2  3  2  0
  3  4  1  0
  4  5  1  0
  5  6  2  0
  6  7  1  0
  7  8  1  0
  8  9  1  0
  9 10  2  0
  9 11  1  0
 11 12  2  0
 12 13  1  0
 13 14  2  0
 14 15  1  0
 14 16  1  0
 16 17  1  0
 17 18  1  0
 18 19  2  0
 19 20  1  0
 20 21  2  0
 21 22  1  0
 22 23  1  0
 23 24  2  0
 24 25  1  0
 25 26  2  0
 26 27  1  0
 27 28  2  0
 22 29  2  0
 16 30  2  0
  7 31  2  0
 31 32  1  0
 32 33  1  0
 33 34  1  0
 33 35  1  0
 33 36  1  0
 32 37  2  0
  4 38  1  0
 38 39  2  0
 39  2  1  0
 37  5  1  0
 30 11  1  0
 29 18  1  0
 28 23  1  0
  1 40  1  0
  1 41  1  0
  1 42  1  0
  3 43  1  0
  6 44  1  0
  8 45  1  0
 12 46  1  0
 13 47  1  0
 15 48  1  0
 15 49  1  0
 15 50  1  0
 17 51  1  0
 20 52  1  0
 21 53  1  0
 24 54  1  0
 25 55  1  0
 26 56  1  0
 28 57  1  0
 30 58  1  0
 31 59  1  0
 37 60  1  0
 38 61  1  0
M  END
>  <meeko>  (3) 
{"is_sidechain": [false], "free_energy": -8.88, "intermolecular_energy": -12.664, "internal_energy": -1.228}

$$$$
LIB_HHZIURLSWUIHRB__M_PUB_ALL__e8__s20260927
     RDKit          3D

 61 65  0  0  0  0  0  0  0  0999 V2000
   12.7110  -10.2010    0.1770 C   0  0  0  0  0  0  0  0  0  0  0  0
   12.5180  -11.5770   -0.3280 C   0  0  0  0  0  0  0  0  0  0  0  0
   12.8660  -12.1140   -1.5490 C   0  0  0  0  0  0  0  0  0  0  0  0
   12.4690  -13.4360   -1.5250 N   0  0  0  0  0  0  0  0  0  0  0  0
   12.6160  -14.4020   -2.5670 C   0  0  0  0  0  0  0  0  0  0  0  0
   12.8530  -13.9920   -3.8910 C   0  0  0  0  0  0  0  0  0  0  0  0
   12.9990  -14.9270   -4.9200 C   0  0  0  0  0  0  0  0  0  0  0  0
   13.2460  -14.5880   -6.2670 N   0  0  0  0  0  0  0  0  0  0  0  0
   14.3260  -14.9610   -7.0480 C   0  0  0  0  0  0  0  0  0  0  0  0
   15.3090  -15.5940   -6.6800 O   0  0  0  0  0  0  0  0  0  0  0  0
   14.2740  -14.4890   -8.4600 C   0  0  0  0  0  0  0  0  0  0  0  0
   15.2800  -14.8890   -9.3380 C   0  0  0  0  0  0  0  0  0  0  0  0
   15.2620  -14.4460  -10.6580 C   0  0  0  0  0  0  0  0  0  0  0  0
   14.2360  -13.6010  -11.1190 C   0  0  0  0  0  0  0  0  0  0  0  0
   14.2820  -13.1390  -12.5530 C   0  0  0  0  0  0  0  0  0  0  0  0
   13.1920  -13.2120  -10.2470 C   0  0  0  0  0  0  0  0  0  0  0  0
   12.1810  -12.3530  -10.7010 N   0  0  0  0  0  0  0  0  0  0  0  0
   10.8440  -12.5300  -11.0500 C   0  0  0  0  0  0  0  0  0  0  0  0
   10.4180  -12.4100  -12.3160 N   0  0  0  0  0  0  0  0  0  0  0  0
    9.1100  -12.6170  -12.5430 C   0  0  0  0  0  0  0  0  0  0  0  0
    8.2110  -12.9490  -11.5600 C   0  0  0  0  0  0  0  0  0  0  0  0
    8.7230  -13.0660  -10.2850 C   0  0  0  0  0  0  0  0  0  0  0  0
    7.8970  -13.4130   -9.1150 C   0  0  0  0  0  0  0  0  0  0  0  0
    6.6950  -12.7450   -8.8370 C   0  0  0  0  0  0  0  0  0  0  0  0
    5.9230  -13.0920   -7.7280 C   0  0  0  0  0  0  0  0  0  0  0  0
    6.3760  -14.1090   -6.9080 C   0  0  0  0  0  0  0  0  0  0  0  0
    7.5260  -14.7800   -7.1210 N   0  0  0  0  0  0  0  0  0  0  0  0
    8.2530  -14.4120   -8.2060 C   0  0  0  0  0  0  0  0  0  0  0  0
   10.0340  -12.8520  -10.0290 N   0  0  0  0  0  0  0  0  0  0  0  0
   13.2310  -13.6750   -8.9240 C   0  0  0  0  0  0  0  0  0  0  0  0
   12.9080  -16.2900   -4.6190 C   0  0  0  0  0  0  0  0  0  0  0  0
   12.6650  -16.7260   -3.3070 C   0  0  0  0  0  0  0  0  0  0  0  0
   12.5960  -18.2020   -2.9980 C   0  0  0  0  0  0  0  0  0  0  0  0
   11.9810  -18.4670   -1.8110 F   0  0  0  0  0  0  0  0  0  0  0  0
   11.9000  -18.8920   -3.9420 F   0  0  0  0  0  0  0  0  0  0  0  0
   13.8200  -18.7930   -2.9230 F   0  0  0  0  0  0  0  0  0  0  0  0
   12.5270  -15.7720   -2.2850 C   0  0  0  0  0  0  0  0  0  0  0  0
   11.9020  -13.6180   -0.2810 C   0  0  0  0  0  0  0  0  0  0  0  0
   11.9170  -12.5260    0.4510 N   0  0  0  0  0  0  0  0  0  0  0  0
   12.7097  -10.2106    1.2770 H   0  0  0  0  0  0  0  0  0  0  0  0
   13.6729   -9.8091   -0.1851 H   0  0  0  0  0  0  0  0  0  0  0  0
   11.8940   -9.5596   -0.1851 H   0  0  0  0  0  0  0  0  0  0  0  0
   13.3628  -11.5915   -2.3798 H   0  0  0  0  0  0  0  0  0  0  0  0
   12.9247  -12.9186   -4.1207 H   0  0  0  0  0  0  0  0  0  0  0  0
   12.5680  -13.9700   -6.6970 H   0  0  0  0  0  0  0  0  0  0  0  0
   16.0853  -15.5523   -8.9894 H   0  0  0  0  0  0  0  0  0  0  0  0
   16.0589  -14.7603  -11.3480 H   0  0  0  0  0  0  0  0  0  0  0  0
   14.3909  -12.0448  -12.5824 H   0  0  0  0  0  0  0  0  0  0  0  0
   15.1380  -13.6065  -13.0616 H   0  0  0  0  0  0  0  0  0  0  0  0
   13.3506  -13.4285  -13.0616 H   0  0  0  0  0  0  0  0  0  0  0  0
   12.4240  -11.3840  -10.8450 H   0  0  0  0  0  0  0  0  0  0  0  0
    8.7389  -12.5148  -13.5735 H   0  0  0  0  0  0  0  0  0  0  0  0
    7.1450  -13.1121  -11.7767 H   0  0  0  0  0  0  0  0  0  0  0  0
    6.3568  -11.9369   -9.5023 H   0  0  0  0  0  0  0  0  0  0  0  0
    4.9790  -12.5704   -7.5117 H   0  0  0  0  0  0  0  0  0  0  0  0
    5.7658  -14.3854   -6.0355 H   0  0  0  0  0  0  0  0  0  0  0  0
    9.1994  -14.9435   -8.3842 H   0  0  0  0  0  0  0  0  0  0  0  0
   12.4231  -13.3925   -8.2329 H   0  0  0  0  0  0  0  0  0  0  0  0
   13.0287  -17.0314   -5.4226 H   0  0  0  0  0  0  0  0  0  0  0  0
   12.3471  -16.1040   -1.2518 H   0  0  0  0  0  0  0  0  0  0  0  0
   11.4819  -14.5750    0.0622 H   0  0  0  0  0  0  0  0  0  0  0  0
  1  2  1  0
  2  3  2  0
  3  4  1  0
  4  5  1  0
  5  6  2  0
  6  7  1  0
  7  8  1  0
  8  9  1  0
  9 10  2  0
  9 11  1  0
 11 12  2  0
 12 13  1  0
 13 14  2  0
 14 15  1  0
 14 16  1  0
 16 17  1  0
 17 18  1  0
 18 19  2  0
 19 20  1  0
 20 21  2  0
 21 22  1  0
 22 23  1  0
 23 24  2  0
 24 25  1  0
 25 26  2  0
 26 27  1  0
 27 28  2  0
 22 29  2  0
 16 30  2  0
  7 31  2  0
 31 32  1  0
 32 33  1  0
 33 34  1  0
 33 35  1  0
 33 36  1  0
 32 37  2  0
  4 38  1  0
 38 39  2  0
 39  2  1  0
 37  5  1  0
 30 11  1  0
 29 18  1  0
 28 23  1  0
  1 40  1  0
  1 41  1  0
  1 42  1  0
  3 43  1  0
  6 44  1  0
  8 45  1  0
 12 46  1  0
 13 47  1  0
 15 48  1  0
 15 49  1  0
 15 50  1  0
 17 51  1  0
 20 52  1  0
 21 53  1  0
 24 54  1  0
 25 55  1  0
 26 56  1  0
 28 57  1  0
 30 58  1  0
 31 59  1  0
 37 60  1  0
 38 61  1  0
M  END
>  <meeko>  (4) 
{"is_sidechain": [false], "free_energy": -8.845, "intermolecular_energy": -12.467, "internal_energy": -1.376}

$$$$
LIB_HHZIURLSWUIHRB__M_PUB_ALL__e8__s20260927
     RDKit          3D

 61 65  0  0  0  0  0  0  0  0999 V2000
    9.3330  -11.8650    0.8610 C   0  0  0  0  0  0  0  0  0  0  0  0
    7.9290  -12.2790    0.6500 C   0  0  0  0  0  0  0  0  0  0  0  0
    6.9560  -11.6930   -0.1310 C   0  0  0  0  0  0  0  0  0  0  0  0
    5.8190  -12.4620    0.0130 N   0  0  0  0  0  0  0  0  0  0  0  0
    4.5480  -12.2510   -0.6020 C   0  0  0  0  0  0  0  0  0  0  0  0
    3.3610  -12.5020    0.1090 C   0  0  0  0  0  0  0  0  0  0  0  0
    2.1100  -12.2990   -0.4800 C   0  0  0  0  0  0  0  0  0  0  0  0
    0.8820  -12.5240    0.1760 N   0  0  0  0  0  0  0  0  0  0  0  0
    0.1320  -11.6130    0.9010 C   0  0  0  0  0  0  0  0  0  0  0  0
    0.4460  -10.4600    1.1710 O   0  0  0  0  0  0  0  0  0  0  0  0
   -1.1580  -12.1400    1.4290 C   0  0  0  0  0  0  0  0  0  0  0  0
   -2.2120  -11.2500    1.6320 C   0  0  0  0  0  0  0  0  0  0  0  0
   -3.4220  -11.7150    2.1400 C   0  0  0  0  0  0  0  0  0  0  0  0
   -3.5960  -13.0770    2.4480 C   0  0  0  0  0  0  0  0  0  0  0  0
   -4.9220  -13.5160    3.0140 C   0  0  0  0  0  0  0  0  0  0  0  0
   -2.5460  -13.9970    2.2180 C   0  0  0  0  0  0  0  0  0  0  0  0
   -2.7130  -15.3500    2.5440 N   0  0  0  0  0  0  0  0  0  0  0  0
   -2.2760  -16.1530    3.5950 C   0  0  0  0  0  0  0  0  0  0  0  0
   -1.2280  -16.9800    3.4700 N   0  0  0  0  0  0  0  0  0  0  0  0
   -0.8830  -17.6980    4.5510 C   0  0  0  0  0  0  0  0  0  0  0  0
   -1.5340  -17.6180    5.7570 C   0  0  0  0  0  0  0  0  0  0  0  0
   -2.5950  -16.7370    5.8150 C   0  0  0  0  0  0  0  0  0  0  0  0
   -3.4020  -16.5300    7.0300 C   0  0  0  0  0  0  0  0  0  0  0  0
   -4.7790  -16.2690    6.9640 C   0  0  0  0  0  0  0  0  0  0  0  0
   -5.5280  -16.0810    8.1250 C   0  0  0  0  0  0  0  0  0  0  0  0
   -4.8770  -16.1560    9.3430 C   0  0  0  0  0  0  0  0  0  0  0  0
   -3.5570  -16.3960    9.4670 N   0  0  0  0  0  0  0  0  0  0  0  0
   -2.8590  -16.5680    8.3160 C   0  0  0  0  0  0  0  0  0  0  0  0
   -2.9680  -16.0110    4.7370 N   0  0  0  0  0  0  0  0  0  0  0  0
   -1.3380  -13.5030    1.7010 C   0  0  0  0  0  0  0  0  0  0  0  0
    2.0460  -11.8350   -1.7980 C   0  0  0  0  0  0  0  0  0  0  0  0
    3.2150  -11.5820   -2.5320 C   0  0  0  0  0  0  0  0  0  0  0  0
    3.1250  -11.0570   -3.9450 C   0  0  0  0  0  0  0  0  0  0  0  0
    2.7570   -9.7460   -4.0010 F   0  0  0  0  0  0  0  0  0  0  0  0
    4.3160  -11.1390   -4.6000 F   0  0  0  0  0  0  0  0  0  0  0  0
    2.2240  -11.7300   -4.7120 F   0  0  0  0  0  0  0  0  0  0  0  0
    4.4630  -11.7860   -1.9220 C   0  0  0  0  0  0  0  0  0  0  0  0
    6.1790  -13.4740    0.8790 C   0  0  0  0  0  0  0  0  0  0  0  0
    7.4300  -13.3870    1.2740 N   0  0  0  0  0  0  0  0  0  0  0  0
    9.5392  -11.8042    1.9398 H   0  0  0  0  0  0  0  0  0  0  0  0
   10.0061  -12.6029    0.4001 H   0  0  0  0  0  0  0  0  0  0  0  0
    9.4980  -10.8800    0.4001 H   0  0  0  0  0  0  0  0  0  0  0  0
    7.0645  -10.7891   -0.7484 H   0  0  0  0  0  0  0  0  0  0  0  0
    3.4181  -12.8642    1.1461 H   0  0  0  0  0  0  0  0  0  0  0  0
    0.5280  -13.4730    0.1380 H   0  0  0  0  0  0  0  0  0  0  0  0
   -2.0879  -10.1838    1.3915 H   0  0  0  0  0  0  0  0  0  0  0  0
   -4.2508  -11.0102    2.3023 H   0  0  0  0  0  0  0  0  0  0  0  0
   -4.8749  -13.5004    4.1129 H   0  0  0  0  0  0  0  0  0  0  0  0
   -5.7118  -12.8314    2.6711 H   0  0  0  0  0  0  0  0  0  0  0  0
   -5.1472  -14.5366    2.6711 H   0  0  0  0  0  0  0  0  0  0  0  0
   -3.2400  -15.9220    1.9020 H   0  0  0  0  0  0  0  0  0  0  0  0
   -0.0313  -18.3888    4.4654 H   0  0  0  0  0  0  0  0  0  0  0  0
   -1.2283  -18.2201    6.6253 H   0  0  0  0  0  0  0  0  0  0  0  0
   -5.2742  -16.2119    5.9834 H   0  0  0  0  0  0  0  0  0  0  0  0
   -6.6080  -15.8784    8.0736 H   0  0  0  0  0  0  0  0  0  0  0  0
   -5.4684  -16.0120   10.2593 H   0  0  0  0  0  0  0  0  0  0  0  0
   -1.7780  -16.7523    8.4031 H   0  0  0  0  0  0  0  0  0  0  0  0
   -0.5124  -14.2029    1.5045 H   0  0  0  0  0  0  0  0  0  0  0  0
    1.0650  -11.6659   -2.2660 H   0  0  0  0  0  0  0  0  0  0  0  0
    5.3844  -11.5787   -2.4860 H   0  0  0  0  0  0  0  0  0  0  0  0
    5.4922  -14.2692    1.2044 H   0  0  0  0  0  0  0  0  0  0  0  0
  1  2  1  0
  2  3  2  0
  3  4  1  0
  4  5  1  0
  5  6  2  0
  6  7  1  0
  7  8  1  0
  8  9  1  0
  9 10  2  0
  9 11  1  0
 11 12  2  0
 12 13  1  0
 13 14  2  0
 14 15  1  0
 14 16  1  0
 16 17  1  0
 17 18  1  0
 18 19  2  0
 19 20  1  0
 20 21  2  0
 21 22  1  0
 22 23  1  0
 23 24  2  0
 24 25  1  0
 25 26  2  0
 26 27  1  0
 27 28  2  0
 22 29  2  0
 16 30  2  0
  7 31  2  0
 31 32  1  0
 32 33  1  0
 33 34  1  0
 33 35  1  0
 33 36  1  0
 32 37  2  0
  4 38  1  0
 38 39  2  0
 39  2  1  0
 37  5  1  0
 30 11  1  0
 29 18  1  0
 28 23  1  0
  1 40  1  0
  1 41  1  0
  1 42  1  0
  3 43  1  0
  6 44  1  0
  8 45  1  0
 12 46  1  0
 13 47  1  0
 15 48  1  0
 15 49  1  0
 15 50  1  0
 17 51  1  0
 20 52  1  0
 21 53  1  0
 24 54  1  0
 25 55  1  0
 26 56  1  0
 28 57  1  0
 30 58  1  0
 31 59  1  0
 37 60  1  0
 38 61  1  0
M  END
>  <meeko>  (5) 
{"is_sidechain": [false], "free_energy": -8.771, "intermolecular_energy": -12.357, "internal_energy": -1.383}

$$$$
LIB_HHZIURLSWUIHRB__M_PUB_ALL__e8__s20260927
     RDKit          3D

 61 65  0  0  0  0  0  0  0  0999 V2000
   17.1580  -18.4460  -11.6820 C   0  0  0  0  0  0  0  0  0  0  0  0
   16.5750  -17.4170  -10.7950 C   0  0  0  0  0  0  0  0  0  0  0  0
   15.2590  -17.0370  -10.6480 C   0  0  0  0  0  0  0  0  0  0  0  0
   15.2400  -16.0370   -9.6970 N   0  0  0  0  0  0  0  0  0  0  0  0
   14.1010  -15.3280   -9.2090 C   0  0  0  0  0  0  0  0  0  0  0  0
   14.0890  -14.8110   -7.9020 C   0  0  0  0  0  0  0  0  0  0  0  0
   12.9800  -14.1140   -7.4120 C   0  0  0  0  0  0  0  0  0  0  0  0
   12.9030  -13.5630   -6.1150 N   0  0  0  0  0  0  0  0  0  0  0  0
   13.0880  -14.2150   -4.9080 C   0  0  0  0  0  0  0  0  0  0  0  0
   13.2740  -15.4160   -4.7480 O   0  0  0  0  0  0  0  0  0  0  0  0
   13.0000  -13.3430   -3.7030 C   0  0  0  0  0  0  0  0  0  0  0  0
   13.8770  -12.2660   -3.5900 C   0  0  0  0  0  0  0  0  0  0  0  0
   13.8260  -11.4470   -2.4650 C   0  0  0  0  0  0  0  0  0  0  0  0
   12.8930  -11.6920   -1.4400 C   0  0  0  0  0  0  0  0  0  0  0  0
   12.8990  -10.7830   -0.2370 C   0  0  0  0  0  0  0  0  0  0  0  0
   11.9760  -12.7640   -1.5560 C   0  0  0  0  0  0  0  0  0  0  0  0
   11.0620  -13.0200   -0.5240 N   0  0  0  0  0  0  0  0  0  0  0  0
    9.7660  -12.5880   -0.2490 C   0  0  0  0  0  0  0  0  0  0  0  0
    9.3920  -12.1970    0.9770 N   0  0  0  0  0  0  0  0  0  0  0  0
    8.1220  -11.7850    1.1280 C   0  0  0  0  0  0  0  0  0  0  0  0
    7.2130  -11.7370    0.1010 C   0  0  0  0  0  0  0  0  0  0  0  0
    7.6710  -12.1430   -1.1350 C   0  0  0  0  0  0  0  0  0  0  0  0
    6.8260  -12.1550   -2.3420 C   0  0  0  0  0  0  0  0  0  0  0  0
    5.5270  -11.6250   -2.3380 C   0  0  0  0  0  0  0  0  0  0  0  0
    4.7440  -11.6400   -3.4920 C   0  0  0  0  0  0  0  0  0  0  0  0
    5.2810  -12.1950   -4.6390 C   0  0  0  0  0  0  0  0  0  0  0  0
    6.5190  -12.7260   -4.7000 N   0  0  0  0  0  0  0  0  0  0  0  0
    7.2500  -12.6980   -3.5570 C   0  0  0  0  0  0  0  0  0  0  0  0
    8.9420  -12.5720   -1.3090 N   0  0  0  0  0  0  0  0  0  0  0  0
   12.0460  -13.5710   -2.7010 C   0  0  0  0  0  0  0  0  0  0  0  0
   11.8710  -13.9290   -8.2430 C   0  0  0  0  0  0  0  0  0  0  0  0
   11.8540  -14.4400   -9.5500 C   0  0  0  0  0  0  0  0  0  0  0  0
   10.6570  -14.2080  -10.4410 C   0  0  0  0  0  0  0  0  0  0  0  0
    9.7260  -15.1990  -10.3460 F   0  0  0  0  0  0  0  0  0  0  0  0
   10.0060  -13.0530  -10.1350 F   0  0  0  0  0  0  0  0  0  0  0  0
   10.9780  -14.1230  -11.7610 F   0  0  0  0  0  0  0  0  0  0  0  0
   12.9790  -15.1330  -10.0270 C   0  0  0  0  0  0  0  0  0  0  0  0
   16.5580  -15.8730   -9.3240 C   0  0  0  0  0  0  0  0  0  0  0  0
   17.3740  -16.6820   -9.9640 N   0  0  0  0  0  0  0  0  0  0  0  0
   17.6093  -19.2426  -11.0723 H   0  0  0  0  0  0  0  0  0  0  0  0
   16.3678  -18.8733  -12.3168 H   0  0  0  0  0  0  0  0  0  0  0  0
   17.9307  -17.9878  -12.3168 H   0  0  0  0  0  0  0  0  0  0  0  0
   14.3920  -17.4502  -11.1843 H   0  0  0  0  0  0  0  0  0  0  0  0
   14.9659  -14.9570   -7.2542 H   0  0  0  0  0  0  0  0  0  0  0  0
   12.6500  -12.5830   -6.0660 H   0  0  0  0  0  0  0  0  0  0  0  0
   14.6074  -12.0634   -4.3871 H   0  0  0  0  0  0  0  0  0  0  0  0
   14.5220  -10.5998   -2.3764 H   0  0  0  0  0  0  0  0  0  0  0  0
   12.8950  -11.3894    0.6808 H   0  0  0  0  0  0  0  0  0  0  0  0
   13.8013  -10.1542   -0.2571 H   0  0  0  0  0  0  0  0  0  0  0  0
   12.0051  -10.1423   -0.2571 H   0  0  0  0  0  0  0  0  0  0  0  0
   11.3610  -13.6290    0.2230 H   0  0  0  0  0  0  0  0  0  0  0  0
    7.7931  -11.4691    2.1290 H   0  0  0  0  0  0  0  0  0  0  0  0
    6.1790  -11.3946    0.2547 H   0  0  0  0  0  0  0  0  0  0  0  0
    5.1206  -11.1918   -1.4122 H   0  0  0  0  0  0  0  0  0  0  0  0
    3.7267  -11.2216   -3.4898 H   0  0  0  0  0  0  0  0  0  0  0  0
    4.6653  -12.2038   -5.5505 H   0  0  0  0  0  0  0  0  0  0  0  0
    8.2575  -13.1384   -3.5900 H   0  0  0  0  0  0  0  0  0  0  0  0
   11.3354  -14.4028   -2.8157 H   0  0  0  0  0  0  0  0  0  0  0  0
   10.9986  -13.3746   -7.8667 H   0  0  0  0  0  0  0  0  0  0  0  0
   12.9797  -15.5272  -11.0540 H   0  0  0  0  0  0  0  0  0  0  0  0
   16.8911  -15.1432   -8.5713 H   0  0  0  0  0  0  0  0  0  0  0  0
  1  2  1  0
  2  3  2  0
  3  4  1  0
  4  5  1  0
  5  6  2  0
  6  7  1  0
  7  8  1  0
  8  9  1  0
  9 10  2  0
  9 11  1  0
 11 12  2  0
 12 13  1  0
 13 14  2  0
 14 15  1  0
 14 16  1  0
 16 17  1  0
 17 18  1  0
 18 19  2  0
 19 20  1  0
 20 21  2  0
 21 22  1  0
 22 23  1  0
 23 24  2  0
 24 25  1  0
 25 26  2  0
 26 27  1  0
 27 28  2  0
 22 29  2  0
 16 30  2  0
  7 31  2  0
 31 32  1  0
 32 33  1  0
 33 34  1  0
 33 35  1  0
 33 36  1  0
 32 37  2  0
  4 38  1  0
 38 39  2  0
 39  2  1  0
 37  5  1  0
 30 11  1  0
 29 18  1  0
 28 23  1  0
  1 40  1  0
  1 41  1  0
  1 42  1  0
  3 43  1  0
  6 44  1  0
  8 45  1  0
 12 46  1  0
 13 47  1  0
 15 48  1  0
 15 49  1  0
 15 50  1  0
 17 51  1  0
 20 52  1  0
 21 53  1  0
 24 54  1  0
 25 55  1  0
 26 56  1  0
 28 57  1  0
 30 58  1  0
 31 59  1  0
 37 60  1  0
 38 61  1  0
M  END
>  <meeko>  (6) 
{"is_sidechain": [false], "free_energy": -8.703, "intermolecular_energy": -12.334, "internal_energy": -1.309}

$$$$
LIB_HHZIURLSWUIHRB__M_PUB_ALL__e8__s20260927
     RDKit          3D

 61 65  0  0  0  0  0  0  0  0999 V2000
   11.3810  -12.6400   -1.9400 C   0  0  0  0  0  0  0  0  0  0  0  0
    9.9250  -12.8870   -2.0140 C   0  0  0  0  0  0  0  0  0  0  0  0
    8.9660  -12.2270   -2.7520 C   0  0  0  0  0  0  0  0  0  0  0  0
    7.7610  -12.8380   -2.4710 N   0  0  0  0  0  0  0  0  0  0  0  0
    6.4770  -12.5030   -2.9970 C   0  0  0  0  0  0  0  0  0  0  0  0
    5.4250  -12.1450   -2.1350 C   0  0  0  0  0  0  0  0  0  0  0  0
    4.1620  -11.8140   -2.6370 C   0  0  0  0  0  0  0  0  0  0  0  0
    3.0660  -11.4390   -1.8320 N   0  0  0  0  0  0  0  0  0  0  0  0
    2.0980  -12.2640   -1.2850 C   0  0  0  0  0  0  0  0  0  0  0  0
    1.9760  -13.4690   -1.4710 O   0  0  0  0  0  0  0  0  0  0  0  0
    1.0960  -11.5730   -0.4260 C   0  0  0  0  0  0  0  0  0  0  0  0
    1.0840  -10.1790   -0.4000 C   0  0  0  0  0  0  0  0  0  0  0  0
    0.1680   -9.5100    0.4080 C   0  0  0  0  0  0  0  0  0  0  0  0
   -0.7500  -10.2260    1.1980 C   0  0  0  0  0  0  0  0  0  0  0  0
   -1.7030   -9.4470    2.0680 C   0  0  0  0  0  0  0  0  0  0  0  0
   -0.7700  -11.6410    1.1580 C   0  0  0  0  0  0  0  0  0  0  0  0
   -1.6710  -12.3540    1.9610 N   0  0  0  0  0  0  0  0  0  0  0  0
   -3.0350  -12.6250    1.8790 C   0  0  0  0  0  0  0  0  0  0  0  0
   -3.7840  -12.2010    0.8510 N   0  0  0  0  0  0  0  0  0  0  0  0
   -5.0860  -12.5320    0.8660 C   0  0  0  0  0  0  0  0  0  0  0  0
   -5.6700  -13.2790    1.8580 C   0  0  0  0  0  0  0  0  0  0  0  0
   -4.8360  -13.6900    2.8770 C   0  0  0  0  0  0  0  0  0  0  0  0
   -5.2990  -14.4960    4.0200 C   0  0  0  0  0  0  0  0  0  0  0  0
   -6.3620  -14.0770    4.8350 C   0  0  0  0  0  0  0  0  0  0  0  0
   -6.7910  -14.8560    5.9090 C   0  0  0  0  0  0  0  0  0  0  0  0
   -6.1390  -16.0500    6.1530 C   0  0  0  0  0  0  0  0  0  0  0  0
   -5.1070  -16.5000    5.4090 N   0  0  0  0  0  0  0  0  0  0  0  0
   -4.7140  -15.7130    4.3760 C   0  0  0  0  0  0  0  0  0  0  0  0
   -3.5240  -13.3610    2.8910 N   0  0  0  0  0  0  0  0  0  0  0  0
    0.1600  -12.2900    0.3320 C   0  0  0  0  0  0  0  0  0  0  0  0
    3.9520  -11.8380   -4.0200 C   0  0  0  0  0  0  0  0  0  0  0  0
    4.9830  -12.1980   -4.9010 C   0  0  0  0  0  0  0  0  0  0  0  0
    4.7430  -12.1940   -6.3910 C   0  0  0  0  0  0  0  0  0  0  0  0
    4.0550  -11.0970   -6.8150 F   0  0  0  0  0  0  0  0  0  0  0  0
    5.9050  -12.2020   -7.0990 F   0  0  0  0  0  0  0  0  0  0  0  0
    4.0300  -13.2700   -6.8230 F   0  0  0  0  0  0  0  0  0  0  0  0
    6.2460  -12.5230   -4.3800 C   0  0  0  0  0  0  0  0  0  0  0  0
    8.0690  -13.8400   -1.5730 C   0  0  0  0  0  0  0  0  0  0  0  0
    9.3510  -13.8890   -1.2830 N   0  0  0  0  0  0  0  0  0  0  0  0
   11.6909  -12.5874   -0.8859 H   0  0  0  0  0  0  0  0  0  0  0  0
   11.9179  -13.4599   -2.4395 H   0  0  0  0  0  0  0  0  0  0  0  0
   11.6174  -11.6889   -2.4395 H   0  0  0  0  0  0  0  0  0  0  0  0
    9.1294  -11.3784   -3.4325 H   0  0  0  0  0  0  0  0  0  0  0  0
    5.5981  -12.1250   -1.0489 H   0  0  0  0  0  0  0  0  0  0  0  0
    2.9600  -10.4450   -1.6660 H   0  0  0  0  0  0  0  0  0  0  0  0
    1.7957   -9.6095   -1.0157 H   0  0  0  0  0  0  0  0  0  0  0  0
    0.1622   -8.4102    0.4288 H   0  0  0  0  0  0  0  0  0  0  0  0
   -1.4714   -9.6363    3.1265 H   0  0  0  0  0  0  0  0  0  0  0  0
   -1.5981   -8.3727    1.8562 H   0  0  0  0  0  0  0  0  0  0  0  0
   -2.7350   -9.7635    1.8562 H   0  0  0  0  0  0  0  0  0  0  0  0
   -1.3130  -12.7660    2.8090 H   0  0  0  0  0  0  0  0  0  0  0  0
   -5.7195  -12.1847    0.0365 H   0  0  0  0  0  0  0  0  0  0  0  0
   -6.7397  -13.5349    1.8416 H   0  0  0  0  0  0  0  0  0  0  0  0
   -6.8635  -13.1211    4.6237 H   0  0  0  0  0  0  0  0  0  0  0  0
   -7.6264  -14.5288    6.5454 H   0  0  0  0  0  0  0  0  0  0  0  0
   -6.4793  -16.6661    6.9984 H   0  0  0  0  0  0  0  0  0  0  0  0
   -3.8653  -16.0621    3.7695 H   0  0  0  0  0  0  0  0  0  0  0  0
    0.1545  -13.3887    0.2779 H   0  0  0  0  0  0  0  0  0  0  0  0
    2.9639  -11.5707   -4.4227 H   0  0  0  0  0  0  0  0  0  0  0  0
    7.0629  -12.7962   -5.0642 H   0  0  0  0  0  0  0  0  0  0  0  0
    7.3218  -14.5247   -1.1454 H   0  0  0  0  0  0  0  0  0  0  0  0
  1  2  1  0
  2  3  2  0
  3  4  1  0
  4  5  1  0
  5  6  2  0
  6  7  1  0
  7  8  1  0
  8  9  1  0
  9 10  2  0
  9 11  1  0
 11 12  2  0
 12 13  1  0
 13 14  2  0
 14 15  1  0
 14 16  1  0
 16 17  1  0
 17 18  1  0
 18 19  2  0
 19 20  1  0
 20 21  2  0
 21 22  1  0
 22 23  1  0
 23 24  2  0
 24 25  1  0
 25 26  2  0
 26 27  1  0
 27 28  2  0
 22 29  2  0
 16 30  2  0
  7 31  2  0
 31 32  1  0
 32 33  1  0
 33 34  1  0
 33 35  1  0
 33 36  1  0
 32 37  2  0
  4 38  1  0
 38 39  2  0
 39  2  1  0
 37  5  1  0
 30 11  1  0
 29 18  1  0
 28 23  1  0
  1 40  1  0
  1 41  1  0
  1 42  1  0
  3 43  1  0
  6 44  1  0
  8 45  1  0
 12 46  1  0
 13 47  1  0
 15 48  1  0
 15 49  1  0
 15 50  1  0
 17 51  1  0
 20 52  1  0
 21 53  1  0
 24 54  1  0
 25 55  1  0
 26 56  1  0
 28 57  1  0
 30 58  1  0
 31 59  1  0
 37 60  1  0
 38 61  1  0
M  END
>  <meeko>  (7) 
{"is_sidechain": [false], "free_energy": -8.64, "intermolecular_energy": -12.431, "internal_energy": -1.123}

$$$$
LIB_HHZIURLSWUIHRB__M_PUB_ALL__e8__s20260927
     RDKit          3D

 61 65  0  0  0  0  0  0  0  0999 V2000
    7.9590  -11.9370    1.2140 C   0  0  0  0  0  0  0  0  0  0  0  0
    7.3480  -12.6750    0.0870 C   0  0  0  0  0  0  0  0  0  0  0  0
    6.7050  -12.1840   -1.0290 C   0  0  0  0  0  0  0  0  0  0  0  0
    6.3190  -13.2800   -1.7740 N   0  0  0  0  0  0  0  0  0  0  0  0
    5.6160  -13.2760   -3.0180 C   0  0  0  0  0  0  0  0  0  0  0  0
    6.3180  -13.1810   -4.2320 C   0  0  0  0  0  0  0  0  0  0  0  0
    5.6430  -13.1770   -5.4570 C   0  0  0  0  0  0  0  0  0  0  0  0
    6.2830  -13.0920   -6.7110 N   0  0  0  0  0  0  0  0  0  0  0  0
    6.8920  -14.1140   -7.4200 C   0  0  0  0  0  0  0  0  0  0  0  0
    7.0550  -15.2680   -7.0420 O   0  0  0  0  0  0  0  0  0  0  0  0
    7.4320  -13.7200   -8.7520 C   0  0  0  0  0  0  0  0  0  0  0  0
    6.5950  -13.0470   -9.6410 C   0  0  0  0  0  0  0  0  0  0  0  0
    7.0710  -12.6840  -10.8980 C   0  0  0  0  0  0  0  0  0  0  0  0
    8.3910  -12.9850  -11.2810 C   0  0  0  0  0  0  0  0  0  0  0  0
    8.8430  -12.5850  -12.6630 C   0  0  0  0  0  0  0  0  0  0  0  0
    9.2610  -13.6410  -10.3770 C   0  0  0  0  0  0  0  0  0  0  0  0
   10.5700  -13.9590  -10.7670 N   0  0  0  0  0  0  0  0  0  0  0  0
   11.7990  -13.3150  -10.6490 C   0  0  0  0  0  0  0  0  0  0  0  0
   11.9050  -11.9780  -10.6550 N   0  0  0  0  0  0  0  0  0  0  0  0
   13.1380  -11.4620  -10.5200 C   0  0  0  0  0  0  0  0  0  0  0  0
   14.2690  -12.2240  -10.3670 C   0  0  0  0  0  0  0  0  0  0  0  0
   14.0820  -13.5910  -10.3570 C   0  0  0  0  0  0  0  0  0  0  0  0
   15.1870  -14.5520  -10.2050 C   0  0  0  0  0  0  0  0  0  0  0  0
   15.7940  -15.1610  -11.3150 C   0  0  0  0  0  0  0  0  0  0  0  0
   16.8430  -16.0650  -11.1510 C   0  0  0  0  0  0  0  0  0  0  0  0
   17.2680  -16.3480   -9.8660 C   0  0  0  0  0  0  0  0  0  0  0  0
   16.7190  -15.8000   -8.7630 N   0  0  0  0  0  0  0  0  0  0  0  0
   15.6970  -14.9290   -8.9610 C   0  0  0  0  0  0  0  0  0  0  0  0
   12.8520  -14.1350  -10.5030 N   0  0  0  0  0  0  0  0  0  0  0  0
    8.7580  -13.9920   -9.1160 C   0  0  0  0  0  0  0  0  0  0  0  0
    4.2480  -13.2720   -5.4650 C   0  0  0  0  0  0  0  0  0  0  0  0
    3.5220  -13.3620   -4.2670 C   0  0  0  0  0  0  0  0  0  0  0  0
    2.0190  -13.4890   -4.2970 C   0  0  0  0  0  0  0  0  0  0  0  0
    1.4850  -13.7710   -3.0750 F   0  0  0  0  0  0  0  0  0  0  0  0
    1.4140  -12.3430   -4.7140 F   0  0  0  0  0  0  0  0  0  0  0  0
    1.5800  -14.4720   -5.1310 F   0  0  0  0  0  0  0  0  0  0  0  0
    4.2180  -13.3700   -3.0470 C   0  0  0  0  0  0  0  0  0  0  0  0
    6.7570  -14.3740   -1.0570 C   0  0  0  0  0  0  0  0  0  0  0  0
    7.3720  -14.0410    0.0560 N   0  0  0  0  0  0  0  0  0  0  0  0
    7.6066  -12.3627    2.1651 H   0  0  0  0  0  0  0  0  0  0  0  0
    9.0542  -12.0225    1.1575 H   0  0  0  0  0  0  0  0  0  0  0  0
    7.6706  -10.8770    1.1575 H   0  0  0  0  0  0  0  0  0  0  0  0
    6.5332  -11.1262   -1.2772 H   0  0  0  0  0  0  0  0  0  0  0  0
    7.4155  -13.1087   -4.2184 H   0  0  0  0  0  0  0  0  0  0  0  0
    6.3290  -12.1670   -7.1220 H   0  0  0  0  0  0  0  0  0  0  0  0
    5.5624  -12.8037   -9.3503 H   0  0  0  0  0  0  0  0  0  0  0  0
    6.4080  -12.1562  -11.5993 H   0  0  0  0  0  0  0  0  0  0  0  0
    9.6646  -11.8579  -12.5839 H   0  0  0  0  0  0  0  0  0  0  0  0
    9.1923  -13.4753  -13.2066 H   0  0  0  0  0  0  0  0  0  0  0  0
    8.0018  -12.1301  -13.2066 H   0  0  0  0  0  0  0  0  0  0  0  0
   10.7090  -14.8250  -11.2660 H   0  0  0  0  0  0  0  0  0  0  0  0
   13.2471  -10.3675  -10.5328 H   0  0  0  0  0  0  0  0  0  0  0  0
   15.2658  -11.7717  -10.2587 H   0  0  0  0  0  0  0  0  0  0  0  0
   15.4372  -14.9218  -12.3277 H   0  0  0  0  0  0  0  0  0  0  0  0
   17.3198  -16.5404  -12.0209 H   0  0  0  0  0  0  0  0  0  0  0  0
   18.0982  -17.0580   -9.7366 H   0  0  0  0  0  0  0  0  0  0  0  0
   15.2326  -14.4838   -8.0687 H   0  0  0  0  0  0  0  0  0  0  0  0
    9.4203  -14.4931   -8.3947 H   0  0  0  0  0  0  0  0  0  0  0  0
    3.7111  -13.2763   -6.4251 H   0  0  0  0  0  0  0  0  0  0  0  0
    3.6591  -13.4510   -2.1030 H   0  0  0  0  0  0  0  0  0  0  0  0
    6.6076  -15.4142   -1.3820 H   0  0  0  0  0  0  0  0  0  0  0  0
  1  2  1  0
  2  3  2  0
  3  4  1  0
  4  5  1  0
  5  6  2  0
  6  7  1  0
  7  8  1  0
  8  9  1  0
  9 10  2  0
  9 11  1  0
 11 12  2  0
 12 13  1  0
 13 14  2  0
 14 15  1  0
 14 16  1  0
 16 17  1  0
 17 18  1  0
 18 19  2  0
 19 20  1  0
 20 21  2  0
 21 22  1  0
 22 23  1  0
 23 24  2  0
 24 25  1  0
 25 26  2  0
 26 27  1  0
 27 28  2  0
 22 29  2  0
 16 30  2  0
  7 31  2  0
 31 32  1  0
 32 33  1  0
 33 34  1  0
 33 35  1  0
 33 36  1  0
 32 37  2  0
  4 38  1  0
 38 39  2  0
 39  2  1  0
 37  5  1  0
 30 11  1  0
 29 18  1  0
 28 23  1  0
  1 40  1  0
  1 41  1  0
  1 42  1  0
  3 43  1  0
  6 44  1  0
  8 45  1  0
 12 46  1  0
 13 47  1  0
 15 48  1  0
 15 49  1  0
 15 50  1  0
 17 51  1  0
 20 52  1  0
 21 53  1  0
 24 54  1  0
 25 55  1  0
 26 56  1  0
 28 57  1  0
 30 58  1  0
 31 59  1  0
 37 60  1  0
 38 61  1  0
M  END
>  <meeko>  (8) 
{"is_sidechain": [false], "free_energy": -8.63, "intermolecular_energy": -12.343, "internal_energy": -1.198}

$$$$
LIB_HHZIURLSWUIHRB__M_PUB_ALL__e8__s20260927
     RDKit          3D

 61 65  0  0  0  0  0  0  0  0999 V2000
    0.7560  -16.1370    6.7670 C   0  0  0  0  0  0  0  0  0  0  0  0
    0.2570  -15.5550    5.5030 C   0  0  0  0  0  0  0  0  0  0  0  0
    0.7220  -14.4620    4.8030 C   0  0  0  0  0  0  0  0  0  0  0  0
   -0.0860  -14.3320    3.6920 N   0  0  0  0  0  0  0  0  0  0  0  0
    0.0040  -13.3420    2.6670 C   0  0  0  0  0  0  0  0  0  0  0  0
    0.8750  -13.5200    1.5780 C   0  0  0  0  0  0  0  0  0  0  0  0
    0.9730  -12.5580    0.5680 C   0  0  0  0  0  0  0  0  0  0  0  0
    1.8180  -12.6750   -0.5550 N   0  0  0  0  0  0  0  0  0  0  0  0
    1.6410  -13.4830   -1.6660 C   0  0  0  0  0  0  0  0  0  0  0  0
    0.7490  -14.3050   -1.8360 O   0  0  0  0  0  0  0  0  0  0  0  0
    2.6850  -13.3400   -2.7190 C   0  0  0  0  0  0  0  0  0  0  0  0
    2.3090  -13.4650   -4.0560 C   0  0  0  0  0  0  0  0  0  0  0  0
    3.2700  -13.3540   -5.0580 C   0  0  0  0  0  0  0  0  0  0  0  0
    4.6180  -13.1110   -4.7360 C   0  0  0  0  0  0  0  0  0  0  0  0
    5.6150  -13.0210   -5.8640 C   0  0  0  0  0  0  0  0  0  0  0  0
    5.0090  -12.9510   -3.3860 C   0  0  0  0  0  0  0  0  0  0  0  0
    6.3560  -12.7300   -3.0660 N   0  0  0  0  0  0  0  0  0  0  0  0
    7.3100  -13.4470   -2.3480 C   0  0  0  0  0  0  0  0  0  0  0  0
    7.0840  -14.6950   -1.9120 N   0  0  0  0  0  0  0  0  0  0  0  0
    8.0790  -15.2990   -1.2430 C   0  0  0  0  0  0  0  0  0  0  0  0
    9.2960  -14.7140   -0.9980 C   0  0  0  0  0  0  0  0  0  0  0  0
    9.4620  -13.4340   -1.4860 C   0  0  0  0  0  0  0  0  0  0  0  0
   10.7030  -12.6610   -1.3100 C   0  0  0  0  0  0  0  0  0  0  0  0
   11.1620  -12.2810   -0.0400 C   0  0  0  0  0  0  0  0  0  0  0  0
   12.3430  -11.5540    0.1080 C   0  0  0  0  0  0  0  0  0  0  0  0
   13.0490  -11.2160   -1.0320 C   0  0  0  0  0  0  0  0  0  0  0  0
   12.6540  -11.5470   -2.2780 N   0  0  0  0  0  0  0  0  0  0  0  0
   11.4970  -12.2490   -2.3830 C   0  0  0  0  0  0  0  0  0  0  0  0
    8.4710  -12.8010   -2.1540 N   0  0  0  0  0  0  0  0  0  0  0  0
    4.0210  -13.0640   -2.3960 C   0  0  0  0  0  0  0  0  0  0  0  0
    0.1850  -11.4050    0.6480 C   0  0  0  0  0  0  0  0  0  0  0  0
   -0.6880  -11.1990    1.7270 C   0  0  0  0  0  0  0  0  0  0  0  0
   -1.5480   -9.9600    1.7820 C   0  0  0  0  0  0  0  0  0  0  0  0
   -2.4600   -9.9920    2.7940 F   0  0  0  0  0  0  0  0  0  0  0  0
   -0.8110   -8.8320    1.9800 F   0  0  0  0  0  0  0  0  0  0  0  0
   -2.2620   -9.7500    0.6430 F   0  0  0  0  0  0  0  0  0  0  0  0
   -0.7770  -12.1780    2.7300 C   0  0  0  0  0  0  0  0  0  0  0  0
   -0.9970  -15.3640    3.7890 C   0  0  0  0  0  0  0  0  0  0  0  0
   -0.8150  -16.1060    4.8590 N   0  0  0  0  0  0  0  0  0  0  0  0
    0.3026  -15.6082    7.6183 H   0  0  0  0  0  0  0  0  0  0  0  0
    0.4865  -17.2025    6.8116 H   0  0  0  0  0  0  0  0  0  0  0  0
    1.8502  -16.0333    6.8116 H   0  0  0  0  0  0  0  0  0  0  0  0
    1.5715  -13.8190    5.0768 H   0  0  0  0  0  0  0  0  0  0  0  0
    1.4893  -14.4306    1.5195 H   0  0  0  0  0  0  0  0  0  0  0  0
    2.6710  -12.1280   -0.5240 H   0  0  0  0  0  0  0  0  0  0  0  0
    1.2570  -13.6506   -4.3184 H   0  0  0  0  0  0  0  0  0  0  0  0
    2.9721  -13.4574   -6.1118 H   0  0  0  0  0  0  0  0  0  0  0  0
    6.6299  -12.9294   -5.4499 H   0  0  0  0  0  0  0  0  0  0  0  0
    5.5519  -13.9285   -6.4824 H   0  0  0  0  0  0  0  0  0  0  0  0
    5.3904  -12.1395   -6.4824 H   0  0  0  0  0  0  0  0  0  0  0  0
    6.7740  -11.8680   -3.3810 H   0  0  0  0  0  0  0  0  0  0  0  0
    7.9093  -16.3200   -0.8704 H   0  0  0  0  0  0  0  0  0  0  0  0
   10.0920  -15.2346   -0.4454 H   0  0  0  0  0  0  0  0  0  0  0  0
   10.5821  -12.5604    0.8520 H   0  0  0  0  0  0  0  0  0  0  0  0
   12.7030  -11.2576    1.1043 H   0  0  0  0  0  0  0  0  0  0  0  0
   13.9830  -10.6465   -0.9161 H   0  0  0  0  0  0  0  0  0  0  0  0
   11.1571  -12.5150   -3.3948 H   0  0  0  0  0  0  0  0  0  0  0  0
    4.3017  -12.9328   -1.3405 H   0  0  0  0  0  0  0  0  0  0  0  0
    0.2508  -10.6480   -0.1474 H   0  0  0  0  0  0  0  0  0  0  0  0
   -1.4666  -12.0307    3.5743 H   0  0  0  0  0  0  0  0  0  0  0  0
   -1.7909  -15.5464    3.0498 H   0  0  0  0  0  0  0  0  0  0  0  0
  1  2  1  0
  2  3  2  0
  3  4  1  0
  4  5  1  0
  5  6  2  0
  6  7  1  0
  7  8  1  0
  8  9  1  0
  9 10  2  0
  9 11  1  0
 11 12  2  0
 12 13  1  0
 13 14  2  0
 14 15  1  0
 14 16  1  0
 16 17  1  0
 17 18  1  0
 18 19  2  0
 19 20  1  0
 20 21  2  0
 21 22  1  0
 22 23  1  0
 23 24  2  0
 24 25  1  0
 25 26  2  0
 26 27  1  0
 27 28  2  0
 22 29  2  0
 16 30  2  0
  7 31  2  0
 31 32  1  0
 32 33  1  0
 33 34  1  0
 33 35  1  0
 33 36  1  0
 32 37  2  0
  4 38  1  0
 38 39  2  0
 39  2  1  0
 37  5  1  0
 30 11  1  0
 29 18  1  0
 28 23  1  0
  1 40  1  0
  1 41  1  0
  1 42  1  0
  3 43  1  0
  6 44  1  0
  8 45  1  0
 12 46  1  0
 13 47  1  0
 15 48  1  0
 15 49  1  0
 15 50  1  0
 17 51  1  0
 20 52  1  0
 21 53  1  0
 24 54  1  0
 25 55  1  0
 26 56  1  0
 28 57  1  0
 30 58  1  0
 31 59  1  0
 37 60  1  0
 38 61  1  0
M  END
>  <meeko>  (9) 
{"is_sidechain": [false], "free_energy": -8.598, "intermolecular_energy": -12.304, "internal_energy": -1.191}

$$$$
