LIB_DFNMEZDDQABOQT__M_PUB_ALL__e8__s20260927
     RDKit          3D

 84 88  0  0  0  0  0  0  0  0999 V2000
   -6.1550  -16.1560    5.5390 C   0  0  0  0  0  0  0  0  0  0  0  0
   -4.7930  -16.6600    5.9090 C   0  0  0  0  0  0  0  0  0  0  0  0
   -4.3750  -16.7150    7.0590 O   0  0  0  0  0  0  0  0  0  0  0  0
   -4.1160  -16.9880    4.7840 O   0  0  0  0  0  0  0  0  0  0  0  0
   -2.9740  -16.1900    4.4020 C   0  0  2  0  0  0  0  0  0  0  0  0
   -3.3620  -15.3790    3.1650 C   0  0  0  0  0  0  0  0  0  0  0  0
   -2.2820  -14.3850    2.7160 C   0  0  0  0  0  0  0  0  0  0  0  0
   -0.8030  -14.8090    3.0210 C   0  0  1  0  0  0  0  0  0  0  0  0
   -0.4220  -14.1750    4.3850 C   0  0  0  0  0  0  0  0  0  0  0  0
   -0.7630  -16.3800    3.0710 C   0  0  1  0  0  0  0  0  0  0  0  0
    0.6800  -16.9200    3.0620 C   0  0  0  0  0  0  0  0  0  0  0  0
    1.4570  -16.4490    1.8250 C   0  0  0  0  0  0  0  0  0  0  0  0
    1.5690  -14.9050    1.6930 C   0  0  2  0  0  0  0  0  0  0  0  0
    2.4890  -14.3990    2.8460 C   0  0  0  0  0  0  0  0  0  0  0  0
    0.1270  -14.2860    1.8240 C   0  0  2  0  0  0  0  0  0  0  0  0
    0.1830  -12.7460    1.7020 C   0  0  0  0  0  0  0  0  0  0  0  0
    1.1210  -12.2200    0.6590 C   0  0  0  0  0  0  0  0  0  0  0  0
    2.0290  -12.9530   -0.0150 C   0  0  0  0  0  0  0  0  0  0  0  0
    2.8780  -12.2770   -1.0990 C   0  0  2  0  0  0  0  0  0  0  0  0
    2.2990  -12.5270   -2.5110 C   0  0  0  0  0  0  0  0  0  0  0  0
    3.1050  -11.8740   -3.6540 C   0  0  0  0  0  0  0  0  0  0  0  0
    2.9920  -10.3390   -3.6040 C   0  0  0  0  0  0  0  0  0  0  0  0
    2.5300  -12.3450   -5.0030 C   0  0  0  0  0  0  0  0  0  0  0  0
    4.5740  -12.3270   -3.5550 C   0  0  0  0  0  0  0  0  0  0  0  0
    5.1910  -12.0650   -2.1820 C   0  0  0  0  0  0  0  0  0  0  0  0
    4.3830  -12.6390   -0.9880 C   0  0  1  0  0  0  0  0  0  0  0  0
    4.9890  -12.0010    0.2900 C   0  0  0  0  0  0  0  0  0  0  0  0
    4.5360  -14.1760   -0.9330 C   0  0  0  0  0  0  0  0  0  0  0  0
    3.7540  -14.8070    0.2300 C   0  0  0  0  0  0  0  0  0  0  0  0
    2.2250  -14.4730    0.2620 C   0  0  1  0  0  0  0  0  0  0  0  0
    1.5360  -15.2740   -0.9420 C   0  0  0  0  0  0  0  0  0  0  0  0
    0.3560  -14.9180   -1.2440 O   0  0  0  0  0  0  0  0  0  0  0  0
    2.2080  -16.2160   -1.4570 O   0  0  0  0  0  0  0  0  0  0  0  0
   -1.6860  -17.0380    4.1800 C   0  0  1  0  0  0  0  0  0  0  0  0
   -0.9670  -17.2380    5.5330 C   0  0  0  0  0  0  0  0  0  0  0  0
   -2.1810  -18.4530    3.7050 C   0  0  0  0  0  0  0  0  0  0  0  0
   -2.2910  -19.3390    4.5980 O   0  0  0  0  0  0  0  0  0  0  0  0
   -2.3810  -18.5890    2.4590 O   0  0  0  0  0  0  0  0  0  0  0  0
   -6.7284  -15.9438    6.4535 H   0  0  0  0  0  0  0  0  0  0  0  0
   -6.0565  -15.2348    4.9460 H   0  0  0  0  0  0  0  0  0  0  0  0
   -6.6799  -16.9194    4.9460 H   0  0  0  0  0  0  0  0  0  0  0  0
   -2.7129  -15.5103    5.2265 H   0  0  0  0  0  0  0  0  0  0  0  0
   -3.5562  -16.0780    2.3381 H   0  0  0  0  0  0  0  0  0  0  0  0
   -4.2509  -14.7890    3.4329 H   0  0  0  0  0  0  0  0  0  0  0  0
   -2.3779  -14.2491    1.6286 H   0  0  0  0  0  0  0  0  0  0  0  0
   -2.4578  -13.4668    3.2957 H   0  0  0  0  0  0  0  0  0  0  0  0
   -0.8016  -14.8066    5.2017 H   0  0  0  0  0  0  0  0  0  0  0  0
    0.6727  -14.0971    4.4601 H   0  0  0  0  0  0  0  0  0  0  0  0
   -0.8670  -13.1718    4.4601 H   0  0  0  0  0  0  0  0  0  0  0  0
   -1.2300  -16.7118    2.1319 H   0  0  0  0  0  0  0  0  0  0  0  0
    1.1987  -16.5650    3.9648 H   0  0  0  0  0  0  0  0  0  0  0  0
    0.6338  -18.0188    3.0389 H   0  0  0  0  0  0  0  0  0  0  0  0
    2.4738  -16.8654    1.8771 H   0  0  0  0  0  0  0  0  0  0  0  0
    0.8966  -16.8015    0.9466 H   0  0  0  0  0  0  0  0  0  0  0  0
    2.0334  -14.6496    3.8154 H   0  0  0  0  0  0  0  0  0  0  0  0
    3.4741  -14.8822    2.7680 H   0  0  0  0  0  0  0  0  0  0  0  0
    2.6084  -13.3083    2.7680 H   0  0  0  0  0  0  0  0  0  0  0  0
   -0.4215  -14.6944    0.9624 H   0  0  0  0  0  0  0  0  0  0  0  0
   -0.8286  -12.3872    1.4613 H   0  0  0  0  0  0  0  0  0  0  0  0
    0.5633  -12.3782    2.6664 H   0  0  0  0  0  0  0  0  0  0  0  0
    1.0638  -11.1469    0.4239 H   0  0  0  0  0  0  0  0  0  0  0  0
    2.8236  -11.1924   -0.9240 H   0  0  0  0  0  0  0  0  0  0  0  0
    2.2726  -13.6128   -2.6850 H   0  0  0  0  0  0  0  0  0  0  0  0
    1.3002  -12.0664   -2.5274 H   0  0  0  0  0  0  0  0  0  0  0  0
    2.9676  -10.0071   -2.5556 H   0  0  0  0  0  0  0  0  0  0  0  0
    3.8596   -9.8908   -4.1104 H   0  0  0  0  0  0  0  0  0  0  0  0
    2.0681  -10.0227   -4.1104 H   0  0  0  0  0  0  0  0  0  0  0  0
    1.6904  -13.0327   -4.8237 H   0  0  0  0  0  0  0  0  0  0  0  0
    2.1753  -11.4745   -5.5744 H   0  0  0  0  0  0  0  0  0  0  0  0
    3.3136  -12.8641   -5.5744 H   0  0  0  0  0  0  0  0  0  0  0  0
    4.6219  -13.4067   -3.7601 H   0  0  0  0  0  0  0  0  0  0  0  0
    5.1476  -11.7423   -4.2892 H   0  0  0  0  0  0  0  0  0  0  0  0
    6.1941  -12.5161   -2.1654 H   0  0  0  0  0  0  0  0  0  0  0  0
    5.2055  -10.9729   -2.0511 H   0  0  0  0  0  0  0  0  0  0  0  0
    4.5439  -12.4696    1.1801 H   0  0  0  0  0  0  0  0  0  0  0  0
    6.0775  -12.1591    0.2979 H   0  0  0  0  0  0  0  0  0  0  0  0
    4.7751  -10.9220    0.2979 H   0  0  0  0  0  0  0  0  0  0  0  0
    4.1660  -14.6008   -1.8778 H   0  0  0  0  0  0  0  0  0  0  0  0
    5.6018  -14.3992   -0.7775 H   0  0  0  0  0  0  0  0  0  0  0  0
    3.8626  -15.8994    0.1604 H   0  0  0  0  0  0  0  0  0  0  0  0
    4.1793  -14.3817    1.1510 H   0  0  0  0  0  0  0  0  0  0  0  0
   -1.6713  -17.0421    6.3550 H   0  0  0  0  0  0  0  0  0  0  0  0
   -0.5996  -18.2724    5.6036 H   0  0  0  0  0  0  0  0  0  0  0  0
   -0.1182  -16.5419    5.6036 H   0  0  0  0  0  0  0  0  0  0  0  0
  1  2  1  0
  2  3  2  0
  2  4  1  0
  4  5  1  0
  5  6  1  0
  6  7  1  0
  7  8  1  0
  8  9  1  1
  8 10  1  0
 10 11  1  0
 11 12  1  0
 12 13  1  0
 13 14  1  1
 13 15  1  0
 15 16  1  0
 16 17  1  0
 17 18  2  0
 18 19  1  0
 19 20  1  0
 20 21  1  0
 21 22  1  0
 21 23  1  0
 21 24  1  0
 24 25  1  0
 25 26  1  0
 26 27  1  1
 26 28  1  0
 28 29  1  0
 29 30  1  0
 30 31  1  6
 31 32  2  0
 31 33  1  0
 10 34  1  0
 34 35  1  1
 34 36  1  0
 36 37  2  0
 36 38  1  0
 34  5  1  0
 15  8  1  0
 30 18  1  0
 30 13  1  0
 26 19  1  0
  1 39  1  0
  1 40  1  0
  1 41  1  0
  5 42  1  1
  6 43  1  0
  6 44  1  0
  7 45  1  0
  7 46  1  0
  9 47  1  0
  9 48  1  0
  9 49  1  0
 10 50  1  6
 11 51  1  0
 11 52  1  0
 12 53  1  0
 12 54  1  0
 14 55  1  0
 14 56  1  0
 14 57  1  0
 15 58  1  6
 16 59  1  0
 16 60  1  0
 17 61  1  0
 19 62  1  1
 20 63  1  0
 20 64  1  0
 22 65  1  0
 22 66  1  0
 22 67  1  0
 23 68  1  0
 23 69  1  0
 23 70  1  0
 24 71  1  0
 24 72  1  0
 25 73  1  0
 25 74  1  0
 27 75  1  0
 27 76  1  0
 27 77  1  0
 28 78  1  0
 28 79  1  0
 29 80  1  0
 29 81  1  0
 35 82  1  0
 35 83  1  0
 35 84  1  0
M  CHG  2  33  -1  38  -1
M  END
>  <meeko>  (1) 
{"is_sidechain": [false], "free_energy": -8.744, "intermolecular_energy": -10.789, "internal_energy": -0.391}

$$$$
LIB_DFNMEZDDQABOQT__M_PUB_ALL__e8__s20260927
     RDKit          3D

 84 88  0  0  0  0  0  0  0  0999 V2000
   13.1170  -10.3750    0.3500 C   0  0  0  0  0  0  0  0  0  0  0  0
   12.3740  -11.6500    0.0900 C   0  0  0  0  0  0  0  0  0  0  0  0
   12.2870  -12.5660    0.8990 O   0  0  0  0  0  0  0  0  0  0  0  0
   11.8740  -11.6290   -1.1680 O   0  0  0  0  0  0  0  0  0  0  0  0
   12.3140  -12.6330   -2.1080 C   0  0  2  0  0  0  0  0  0  0  0  0
   13.2140  -11.9490   -3.1380 C   0  0  0  0  0  0  0  0  0  0  0  0
   13.8600  -12.9210   -4.1350 C   0  0  0  0  0  0  0  0  0  0  0  0
   13.0260  -14.2100   -4.4610 C   0  0  1  0  0  0  0  0  0  0  0  0
   13.5110  -15.3210   -3.4930 C   0  0  0  0  0  0  0  0  0  0  0  0
   11.5090  -13.8580   -4.2400 C   0  0  1  0  0  0  0  0  0  0  0  0
   10.5770  -14.9420   -4.8160 C   0  0  0  0  0  0  0  0  0  0  0  0
   10.8170  -15.1600   -6.3160 C   0  0  0  0  0  0  0  0  0  0  0  0
   12.2650  -15.5970   -6.6740 C   0  0  2  0  0  0  0  0  0  0  0  0
   12.4740  -17.0370   -6.1150 C   0  0  0  0  0  0  0  0  0  0  0  0
   13.2700  -14.5900   -5.9990 C   0  0  2  0  0  0  0  0  0  0  0  0
   14.7300  -14.9820   -6.3230 C   0  0  0  0  0  0  0  0  0  0  0  0
   14.9740  -15.4420   -7.7270 C   0  0  0  0  0  0  0  0  0  0  0  0
   14.0170  -15.7160   -8.6360 C   0  0  0  0  0  0  0  0  0  0  0  0
   14.4310  -16.1190  -10.0570 C   0  0  2  0  0  0  0  0  0  0  0  0
   14.3710  -14.9180  -11.0280 C   0  0  0  0  0  0  0  0  0  0  0  0
   14.7760  -15.2520  -12.4790 C   0  0  0  0  0  0  0  0  0  0  0  0
   16.2780  -15.5760  -12.5750 C   0  0  0  0  0  0  0  0  0  0  0  0
   14.5020  -14.0230  -13.3690 C   0  0  0  0  0  0  0  0  0  0  0  0
   13.9190  -16.4280  -12.9810 C   0  0  0  0  0  0  0  0  0  0  0  0
   13.9800  -17.6480  -12.0640 C   0  0  0  0  0  0  0  0  0  0  0  0
   13.6510  -17.3570  -10.5750 C   0  0  1  0  0  0  0  0  0  0  0  0
   14.0750  -18.6220   -9.7830 C   0  0  0  0  0  0  0  0  0  0  0  0
   12.1340  -17.1120  -10.4040 C   0  0  0  0  0  0  0  0  0  0  0  0
   11.7440  -16.8140   -8.9480 C   0  0  0  0  0  0  0  0  0  0  0  0
   12.5030  -15.6150   -8.2880 C   0  0  1  0  0  0  0  0  0  0  0  0
   11.9450  -14.2700   -8.9570 C   0  0  0  0  0  0  0  0  0  0  0  0
   12.6630  -13.2340   -8.8080 O   0  0  0  0  0  0  0  0  0  0  0  0
   10.8220  -14.3470   -9.5390 O   0  0  0  0  0  0  0  0  0  0  0  0
   11.1340  -13.4080   -2.7670 C   0  0  1  0  0  0  0  0  0  0  0  0
   10.7240  -14.5860   -1.8550 C   0  0  0  0  0  0  0  0  0  0  0  0
    9.9250  -12.4030   -2.7980 C   0  0  0  0  0  0  0  0  0  0  0  0
    9.0110  -12.5970   -1.9490 O   0  0  0  0  0  0  0  0  0  0  0  0
    9.9570  -11.5130   -3.7030 O   0  0  0  0  0  0  0  0  0  0  0  0
   13.2082  -10.2185    1.4350 H   0  0  0  0  0  0  0  0  0  0  0  0
   14.1201  -10.4375   -0.0971 H   0  0  0  0  0  0  0  0  0  0  0  0
   12.5681   -9.5331   -0.0971 H   0  0  0  0  0  0  0  0  0  0  0  0
   12.8828  -13.4077   -1.5729 H   0  0  0  0  0  0  0  0  0  0  0  0
   12.6081  -11.2247   -3.7021 H   0  0  0  0  0  0  0  0  0  0  0  0
   14.0321  -11.4685   -2.5814 H   0  0  0  0  0  0  0  0  0  0  0  0
   14.0270  -12.3784   -5.0772 H   0  0  0  0  0  0  0  0  0  0  0  0
   14.7851  -13.2738   -3.6557 H   0  0  0  0  0  0  0  0  0  0  0  0
   13.3667  -14.9905   -2.4538 H   0  0  0  0  0  0  0  0  0  0  0  0
   12.9320  -16.2395   -3.6694 H   0  0  0  0  0  0  0  0  0  0  0  0
   14.5782  -15.5208   -3.6694 H   0  0  0  0  0  0  0  0  0  0  0  0
   11.3342  -12.9454   -4.8288 H   0  0  0  0  0  0  0  0  0  0  0  0
   10.7596  -15.8878   -4.2848 H   0  0  0  0  0  0  0  0  0  0  0  0
    9.5379  -14.6074   -4.6806 H   0  0  0  0  0  0  0  0  0  0  0  0
   10.1250  -15.9401   -6.6660 H   0  0  0  0  0  0  0  0  0  0  0  0
   10.6499  -14.1897   -6.8066 H   0  0  0  0  0  0  0  0  0  0  0  0
   12.4697  -17.0077   -5.0154 H   0  0  0  0  0  0  0  0  0  0  0  0
   11.6610  -17.6888   -6.4676 H   0  0  0  0  0  0  0  0  0  0  0  0
   13.4387  -17.4308   -6.4676 H   0  0  0  0  0  0  0  0  0  0  0  0
   13.0432  -13.6233   -6.4724 H   0  0  0  0  0  0  0  0  0  0  0  0
   15.3664  -14.1041   -6.1379 H   0  0  0  0  0  0  0  0  0  0  0  0
   14.9641  -15.8411   -5.6771 H   0  0  0  0  0  0  0  0  0  0  0  0
   16.0204  -15.5666   -8.0426 H   0  0  0  0  0  0  0  0  0  0  0  0
   15.4841  -16.4334  -10.0108 H   0  0  0  0  0  0  0  0  0  0  0  0
   13.3401  -14.5345  -11.0379 H   0  0  0  0  0  0  0  0  0  0  0  0
   15.0989  -14.1798  -10.6604 H   0  0  0  0  0  0  0  0  0  0  0  0
   16.6989  -15.6668  -11.5628 H   0  0  0  0  0  0  0  0  0  0  0  0
   16.4147  -16.5243  -13.1154 H   0  0  0  0  0  0  0  0  0  0  0  0
   16.7935  -14.7684  -13.1154 H   0  0  0  0  0  0  0  0  0  0  0  0
   14.3066  -13.1465  -12.7337 H   0  0  0  0  0  0  0  0  0  0  0  0
   15.3786  -13.8274  -14.0041 H   0  0  0  0  0  0  0  0  0  0  0  0
   13.6253  -14.2183  -14.0041 H   0  0  0  0  0  0  0  0  0  0  0  0
   12.8731  -16.0944  -13.0507 H   0  0  0  0  0  0  0  0  0  0  0  0
   14.3202  -16.7323  -13.9590 H   0  0  0  0  0  0  0  0  0  0  0  0
   13.2597  -18.3920  -12.4351 H   0  0  0  0  0  0  0  0  0  0  0  0
   15.0206  -18.0036  -12.0886 H   0  0  0  0  0  0  0  0  0  0  0  0
   14.0070  -18.4190   -8.7040 H   0  0  0  0  0  0  0  0  0  0  0  0
   13.4077  -19.4574  -10.0417 H   0  0  0  0  0  0  0  0  0  0  0  0
   15.1109  -18.8865  -10.0417 H   0  0  0  0  0  0  0  0  0  0  0  0
   11.8429  -16.2550  -11.0292 H   0  0  0  0  0  0  0  0  0  0  0  0
   11.6118  -18.0314  -10.7073 H   0  0  0  0  0  0  0  0  0  0  0  0
   10.6672  -16.5907   -8.9228 H   0  0  0  0  0  0  0  0  0  0  0  0
   12.0206  -17.7071   -8.3685 H   0  0  0  0  0  0  0  0  0  0  0  0
   10.8279  -14.2874   -0.8014 H   0  0  0  0  0  0  0  0  0  0  0  0
    9.6779  -14.8594   -2.0572 H   0  0  0  0  0  0  0  0  0  0  0  0
   11.3743  -15.4498   -2.0572 H   0  0  0  0  0  0  0  0  0  0  0  0
  1  2  1  0
  2  3  2  0
  2  4  1  0
  4  5  1  0
  5  6  1  0
  6  7  1  0
  7  8  1  0
  8  9  1  1
  8 10  1  0
 10 11  1  0
 11 12  1  0
 12 13  1  0
 13 14  1  1
 13 15  1  0
 15 16  1  0
 16 17  1  0
 17 18  2  0
 18 19  1  0
 19 20  1  0
 20 21  1  0
 21 22  1  0
 21 23  1  0
 21 24  1  0
 24 25  1  0
 25 26  1  0
 26 27  1  1
 26 28  1  0
 28 29  1  0
 29 30  1  0
 30 31  1  6
 31 32  2  0
 31 33  1  0
 10 34  1  0
 34 35  1  1
 34 36  1  0
 36 37  2  0
 36 38  1  0
 34  5  1  0
 15  8  1  0
 30 18  1  0
 30 13  1  0
 26 19  1  0
  1 39  1  0
  1 40  1  0
  1 41  1  0
  5 42  1  1
  6 43  1  0
  6 44  1  0
  7 45  1  0
  7 46  1  0
  9 47  1  0
  9 48  1  0
  9 49  1  0
 10 50  1  6
 11 51  1  0
 11 52  1  0
 12 53  1  0
 12 54  1  0
 14 55  1  0
 14 56  1  0
 14 57  1  0
 15 58  1  6
 16 59  1  0
 16 60  1  0
 17 61  1  0
 19 62  1  1
 20 63  1  0
 20 64  1  0
 22 65  1  0
 22 66  1  0
 22 67  1  0
 23 68  1  0
 23 69  1  0
 23 70  1  0
 24 71  1  0
 24 72  1  0
 25 73  1  0
 25 74  1  0
 27 75  1  0
 27 76  1  0
 27 77  1  0
 28 78  1  0
 28 79  1  0
 29 80  1  0
 29 81  1  0
 35 82  1  0
 35 83  1  0
 35 84  1  0
M  CHG  2  33  -1  38  -1
M  END
>  <meeko>  (2) 
{"is_sidechain": [false], "free_energy": -8.388, "intermolecular_energy": -10.347, "internal_energy": -0.394}

$$$$
LIB_DFNMEZDDQABOQT__M_PUB_ALL__e8__s20260927
     RDKit          3D

 84 88  0  0  0  0  0  0  0  0999 V2000
   -0.8770  -20.0660    6.1310 C   0  0  0  0  0  0  0  0  0  0  0  0
   -0.9690  -18.6380    6.5750 C   0  0  0  0  0  0  0  0  0  0  0  0
   -1.8920  -18.1910    7.2460 O   0  0  0  0  0  0  0  0  0  0  0  0
    0.0850  -17.9470    6.0830 O   0  0  0  0  0  0  0  0  0  0  0  0
    0.0990  -17.6070    4.6780 C   0  0  2  0  0  0  0  0  0  0  0  0
    1.4580  -18.0170    4.1110 C   0  0  0  0  0  0  0  0  0  0  0  0
    1.5740  -17.8300    2.5920 C   0  0  0  0  0  0  0  0  0  0  0  0
    0.7220  -16.6590    1.9880 C   0  0  1  0  0  0  0  0  0  0  0  0
   -0.6270  -17.2720    1.5270 C   0  0  0  0  0  0  0  0  0  0  0  0
    0.5240  -15.5860    3.1200 C   0  0  1  0  0  0  0  0  0  0  0  0
   -0.0340  -14.2600    2.5650 C   0  0  0  0  0  0  0  0  0  0  0  0
    0.8780  -13.6680    1.4820 C   0  0  0  0  0  0  0  0  0  0  0  0
    1.0940  -14.5960    0.2540 C   0  0  2  0  0  0  0  0  0  0  0  0
   -0.2630  -14.6970   -0.5060 C   0  0  0  0  0  0  0  0  0  0  0  0
    1.5450  -16.0130    0.7730 C   0  0  2  0  0  0  0  0  0  0  0  0
    1.7730  -16.9780   -0.4120 C   0  0  0  0  0  0  0  0  0  0  0  0
    2.4500  -16.3780   -1.6060 C   0  0  0  0  0  0  0  0  0  0  0  0
    2.6860  -15.0640   -1.7910 C   0  0  0  0  0  0  0  0  0  0  0  0
    3.4470  -14.6110   -3.0440 C   0  0  2  0  0  0  0  0  0  0  0  0
    4.9450  -14.3740   -2.7420 C   0  0  0  0  0  0  0  0  0  0  0  0
    5.7740  -13.9160   -3.9610 C   0  0  0  0  0  0  0  0  0  0  0  0
    5.9030  -15.0440   -5.0000 C   0  0  0  0  0  0  0  0  0  0  0  0
    7.1930  -13.5460   -3.4890 C   0  0  0  0  0  0  0  0  0  0  0  0
    5.1150  -12.6670   -4.5750 C   0  0  0  0  0  0  0  0  0  0  0  0
    3.6410  -12.8740   -4.9180 C   0  0  0  0  0  0  0  0  0  0  0  0
    2.7710  -13.4040   -3.7470 C   0  0  1  0  0  0  0  0  0  0  0  0
    1.4220  -13.8430   -4.3740 C   0  0  0  0  0  0  0  0  0  0  0  0
    2.5310  -12.2810   -2.7120 C   0  0  0  0  0  0  0  0  0  0  0  0
    1.6770  -12.7450   -1.5230 C   0  0  0  0  0  0  0  0  0  0  0  0
    2.2250  -13.9950   -0.7570 C   0  0  1  0  0  0  0  0  0  0  0  0
    3.5220  -13.5250    0.0580 C   0  0  0  0  0  0  0  0  0  0  0  0
    4.2570  -14.4510    0.5180 O   0  0  0  0  0  0  0  0  0  0  0  0
    3.6780  -12.2770    0.2090 O   0  0  0  0  0  0  0  0  0  0  0  0
   -0.2320  -16.1080    4.4120 C   0  0  1  0  0  0  0  0  0  0  0  0
   -1.7650  -15.9290    4.3360 C   0  0  0  0  0  0  0  0  0  0  0  0
    0.2630  -15.3270    5.6840 C   0  0  0  0  0  0  0  0  0  0  0  0
   -0.6180  -15.0230    6.5350 O   0  0  0  0  0  0  0  0  0  0  0  0
    1.4980  -15.0330    5.7170 O   0  0  0  0  0  0  0  0  0  0  0  0
   -0.8347  -20.7222    7.0128 H   0  0  0  0  0  0  0  0  0  0  0  0
   -1.7607  -20.3199    5.5271 H   0  0  0  0  0  0  0  0  0  0  0  0
    0.0319  -20.2044    5.5271 H   0  0  0  0  0  0  0  0  0  0  0  0
   -0.7013  -18.1574    4.1617 H   0  0  0  0  0  0  0  0  0  0  0  0
    2.2349  -17.4080    4.5963 H   0  0  0  0  0  0  0  0  0  0  0  0
    1.5800  -19.0914    4.3131 H   0  0  0  0  0  0  0  0  0  0  0  0
    2.6306  -17.6379    2.3540 H   0  0  0  0  0  0  0  0  0  0  0  0
    1.1788  -18.7533    2.1433 H   0  0  0  0  0  0  0  0  0  0  0  0
   -1.2262  -17.5443    2.4083 H   0  0  0  0  0  0  0  0  0  0  0  0
   -1.1771  -16.5354    0.9229 H   0  0  0  0  0  0  0  0  0  0  0  0
   -0.4339  -18.1708    0.9229 H   0  0  0  0  0  0  0  0  0  0  0  0
    1.5351  -15.3707    3.4958 H   0  0  0  0  0  0  0  0  0  0  0  0
   -1.0279  -14.4454    2.1315 H   0  0  0  0  0  0  0  0  0  0  0  0
   -0.0930  -13.5396    3.3942 H   0  0  0  0  0  0  0  0  0  0  0  0
    0.4292  -12.7277    1.1292 H   0  0  0  0  0  0  0  0  0  0  0  0
    1.8650  -13.5216    1.9451 H   0  0  0  0  0  0  0  0  0  0  0  0
   -1.0865  -14.7583    0.2207 H   0  0  0  0  0  0  0  0  0  0  0  0
   -0.3968  -13.8063   -1.1375 H   0  0  0  0  0  0  0  0  0  0  0  0
   -0.2634  -15.5977   -1.1375 H   0  0  0  0  0  0  0  0  0  0  0  0
    2.5068  -15.8246    1.2725 H   0  0  0  0  0  0  0  0  0  0  0  0
    2.3922  -17.8141   -0.0549 H   0  0  0  0  0  0  0  0  0  0  0  0
    0.7724  -17.2837   -0.7517 H   0  0  0  0  0  0  0  0  0  0  0  0
    2.7819  -17.0666   -2.3970 H   0  0  0  0  0  0  0  0  0  0  0  0
    3.3988  -15.4364   -3.7695 H   0  0  0  0  0  0  0  0  0  0  0  0
    5.0213  -13.6008   -1.9633 H   0  0  0  0  0  0  0  0  0  0  0  0
    5.3595  -15.3423   -2.4250 H   0  0  0  0  0  0  0  0  0  0  0  0
    6.0133  -16.0084   -4.4825 H   0  0  0  0  0  0  0  0  0  0  0  0
    5.0016  -15.0670   -5.6301 H   0  0  0  0  0  0  0  0  0  0  0  0
    6.7863  -14.8629   -5.6301 H   0  0  0  0  0  0  0  0  0  0  0  0
    7.2233  -13.5381   -2.3894 H   0  0  0  0  0  0  0  0  0  0  0  0
    7.9111  -14.2869   -3.8703 H   0  0  0  0  0  0  0  0  0  0  0  0
    7.4579  -12.5488   -3.8703 H   0  0  0  0  0  0  0  0  0  0  0  0
    5.1938  -11.8397   -3.8544 H   0  0  0  0  0  0  0  0  0  0  0  0
    5.6424  -12.4466   -5.5148 H   0  0  0  0  0  0  0  0  0  0  0  0
    3.2261  -11.9087   -5.2435 H   0  0  0  0  0  0  0  0  0  0  0  0
    3.6097  -13.6449   -5.7020 H   0  0  0  0  0  0  0  0  0  0  0  0
    0.7044  -14.0765   -3.5737 H   0  0  0  0  0  0  0  0  0  0  0  0
    1.0245  -13.0279   -4.9965 H   0  0  0  0  0  0  0  0  0  0  0  0
    1.5804  -14.7360   -4.9965 H   0  0  0  0  0  0  0  0  0  0  0  0
    3.5048  -11.9373   -2.3332 H   0  0  0  0  0  0  0  0  0  0  0  0
    1.9840  -11.4725   -3.2191 H   0  0  0  0  0  0  0  0  0  0  0  0
    1.6070  -11.9116   -0.8084 H   0  0  0  0  0  0  0  0  0  0  0  0
    0.7060  -13.0459   -1.9433 H   0  0  0  0  0  0  0  0  0  0  0  0
   -2.1794  -15.8806    5.3538 H   0  0  0  0  0  0  0  0  0  0  0  0
   -1.9993  -14.9974    3.8000 H   0  0  0  0  0  0  0  0  0  0  0  0
   -2.2076  -16.7816    3.8000 H   0  0  0  0  0  0  0  0  0  0  0  0
  1  2  1  0
  2  3  2  0
  2  4  1  0
  4  5  1  0
  5  6  1  0
  6  7  1  0
  7  8  1  0
  8  9  1  6
  8 10  1  0
 10 11  1  0
 11 12  1  0
 12 13  1  0
 13 14  1  6
 13 15  1  0
 15 16  1  0
 16 17  1  0
 17 18  2  0
 18 19  1  0
 19 20  1  0
 20 21  1  0
 21 22  1  0
 21 23  1  0
 21 24  1  0
 24 25  1  0
 25 26  1  0
 26 27  1  6
 26 28  1  0
 28 29  1  0
 29 30  1  0
 30 31  1  1
 31 32  2  0
 31 33  1  0
 10 34  1  0
 34 35  1  6
 34 36  1  0
 36 37  2  0
 36 38  1  0
 34  5  1  0
 15  8  1  0
 30 18  1  0
 30 13  1  0
 26 19  1  0
  1 39  1  0
  1 40  1  0
  1 41  1  0
  5 42  1  6
  6 43  1  0
  6 44  1  0
  7 45  1  0
  7 46  1  0
  9 47  1  0
  9 48  1  0
  9 49  1  0
 10 50  1  1
 11 51  1  0
 11 52  1  0
 12 53  1  0
 12 54  1  0
 14 55  1  0
 14 56  1  0
 14 57  1  0
 15 58  1  1
 16 59  1  0
 16 60  1  0
 17 61  1  0
 19 62  1  6
 20 63  1  0
 20 64  1  0
 22 65  1  0
 22 66  1  0
 22 67  1  0
 23 68  1  0
 23 69  1  0
 23 70  1  0
 24 71  1  0
 24 72  1  0
 25 73  1  0
 25 74  1  0
 27 75  1  0
 27 76  1  0
 27 77  1  0
 28 78  1  0
 28 79  1  0
 29 80  1  0
 29 81  1  0
 35 82  1  0
 35 83  1  0
 35 84  1  0
M  CHG  2  33  -1  38  -1
M  END
>  <meeko>  (3) 
{"is_sidechain": [false], "free_energy": -8.163, "intermolecular_energy": -9.999, "internal_energy": -0.464}

$$$$
LIB_DFNMEZDDQABOQT__M_PUB_ALL__e8__s20260927
     RDKit          3D

 84 88  0  0  0  0  0  0  0  0999 V2000
   13.0750  -10.0230    0.2150 C   0  0  0  0  0  0  0  0  0  0  0  0
   12.9710  -11.1160   -0.8050 C   0  0  0  0  0  0  0  0  0  0  0  0
   13.4600  -11.0510   -1.9260 O   0  0  0  0  0  0  0  0  0  0  0  0
   12.2300  -12.1300   -0.3020 O   0  0  0  0  0  0  0  0  0  0  0  0
   10.8110  -12.1550   -0.5720 C   0  0  2  0  0  0  0  0  0  0  0  0
   10.0790  -12.2240    0.7680 C   0  0  0  0  0  0  0  0  0  0  0  0
    8.5520  -12.1310    0.6430 C   0  0  0  0  0  0  0  0  0  0  0  0
    7.9450  -12.7080   -0.6840 C   0  0  1  0  0  0  0  0  0  0  0  0
    7.8190  -11.5230   -1.6770 C   0  0  0  0  0  0  0  0  0  0  0  0
    8.9310  -13.8140   -1.2110 C   0  0  1  0  0  0  0  0  0  0  0  0
    8.3000  -14.6600   -2.3350 C   0  0  0  0  0  0  0  0  0  0  0  0
    7.0010  -15.3370   -1.8770 C   0  0  0  0  0  0  0  0  0  0  0  0
    5.8990  -14.3490   -1.4040 C   0  0  2  0  0  0  0  0  0  0  0  0
    5.4090  -13.5560   -2.6540 C   0  0  0  0  0  0  0  0  0  0  0  0
    6.5270  -13.3720   -0.3410 C   0  0  2  0  0  0  0  0  0  0  0  0
    5.4690  -12.3630    0.1620 C   0  0  0  0  0  0  0  0  0  0  0  0
    4.1030  -12.9310    0.3950 C   0  0  0  0  0  0  0  0  0  0  0  0
    3.6950  -14.1610    0.0250 C   0  0  0  0  0  0  0  0  0  0  0  0
    2.2780  -14.6190    0.3910 C   0  0  2  0  0  0  0  0  0  0  0  0
    2.2770  -15.4980    1.6640 C   0  0  0  0  0  0  0  0  0  0  0  0
    0.8790  -15.9950    2.0920 C   0  0  0  0  0  0  0  0  0  0  0  0
    0.0050  -14.8300    2.5900 C   0  0  0  0  0  0  0  0  0  0  0  0
    1.0400  -16.9930    3.2550 C   0  0  0  0  0  0  0  0  0  0  0  0
    0.2190  -16.7190    0.9040 C   0  0  0  0  0  0  0  0  0  0  0  0
    0.1710  -15.8690   -0.3640 C   0  0  0  0  0  0  0  0  0  0  0  0
    1.5390  -15.2810   -0.8030 C   0  0  1  0  0  0  0  0  0  0  0  0
    1.2260  -14.2180   -1.8880 C   0  0  0  0  0  0  0  0  0  0  0  0
    2.4300  -16.3950   -1.3990 C   0  0  0  0  0  0  0  0  0  0  0  0
    3.8030  -15.8770   -1.8500 C   0  0  0  0  0  0  0  0  0  0  0  0
    4.6310  -15.1380   -0.7460 C   0  0  1  0  0  0  0  0  0  0  0  0
    5.1330  -16.2460    0.2960 C   0  0  0  0  0  0  0  0  0  0  0  0
    5.6750  -15.8080    1.3570 O   0  0  0  0  0  0  0  0  0  0  0  0
    4.9840  -17.4570   -0.0440 O   0  0  0  0  0  0  0  0  0  0  0  0
   10.3960  -13.3040   -1.5390 C   0  0  1  0  0  0  0  0  0  0  0  0
   10.5640  -12.8290   -3.0000 C   0  0  0  0  0  0  0  0  0  0  0  0
   11.4380  -14.4590   -1.3050 C   0  0  0  0  0  0  0  0  0  0  0  0
   12.3430  -14.5850   -2.1760 O   0  0  0  0  0  0  0  0  0  0  0  0
   11.2480  -15.1880   -0.2830 O   0  0  0  0  0  0  0  0  0  0  0  0
   13.0336  -10.4583    1.2244 H   0  0  0  0  0  0  0  0  0  0  0  0
   14.0280   -9.4893    0.0847 H   0  0  0  0  0  0  0  0  0  0  0  0
   12.2398   -9.3192    0.0847 H   0  0  0  0  0  0  0  0  0  0  0  0
   10.5263  -11.2354   -1.1042 H   0  0  0  0  0  0  0  0  0  0  0  0
   10.3302  -13.1793    1.2520 H   0  0  0  0  0  0  0  0  0  0  0  0
   10.4065  -11.3553    1.3581 H   0  0  0  0  0  0  0  0  0  0  0  0
    8.1091  -12.6821    1.4857 H   0  0  0  0  0  0  0  0  0  0  0  0
    8.3147  -11.0569    0.6409 H   0  0  0  0  0  0  0  0  0  0  0  0
    7.7190  -10.5827   -1.1150 H   0  0  0  0  0  0  0  0  0  0  0  0
    8.7174  -11.4780   -2.3101 H   0  0  0  0  0  0  0  0  0  0  0  0
    6.9312  -11.6679   -2.3101 H   0  0  0  0  0  0  0  0  0  0  0  0
    9.0904  -14.4901   -0.3581 H   0  0  0  0  0  0  0  0  0  0  0  0
    8.0781  -14.0061   -3.1912 H   0  0  0  0  0  0  0  0  0  0  0  0
    9.0161  -15.4470   -2.6141 H   0  0  0  0  0  0  0  0  0  0  0  0
    6.6016  -15.9217   -2.7188 H   0  0  0  0  0  0  0  0  0  0  0  0
    7.2594  -15.9608   -1.0086 H   0  0  0  0  0  0  0  0  0  0  0  0
    4.8568  -12.6623   -2.3279 H   0  0  0  0  0  0  0  0  0  0  0  0
    6.2763  -13.2510   -3.2579 H   0  0  0  0  0  0  0  0  0  0  0  0
    4.7482  -14.1953   -3.2579 H   0  0  0  0  0  0  0  0  0  0  0  0
    6.8197  -14.0301    0.4904 H   0  0  0  0  0  0  0  0  0  0  0  0
    5.8276  -11.9397    1.1119 H   0  0  0  0  0  0  0  0  0  0  0  0
    5.3557  -11.6167   -0.6381 H   0  0  0  0  0  0  0  0  0  0  0  0
    3.3720  -12.2911    0.9110 H   0  0  0  0  0  0  0  0  0  0  0  0
    1.6975  -13.7159    0.6309 H   0  0  0  0  0  0  0  0  0  0  0  0
    2.9124  -16.3762    1.4768 H   0  0  0  0  0  0  0  0  0  0  0  0
    2.6512  -14.8664    2.4832 H   0  0  0  0  0  0  0  0  0  0  0  0
   -0.0018  -14.8209    3.6899 H   0  0  0  0  0  0  0  0  0  0  0  0
    0.4146  -13.8793    2.2180 H   0  0  0  0  0  0  0  0  0  0  0  0
   -1.0223  -14.9573    2.2180 H   0  0  0  0  0  0  0  0  0  0  0  0
    0.9536  -16.4577    4.2121 H   0  0  0  0  0  0  0  0  0  0  0  0
    0.2540  -17.7599    3.1916 H   0  0  0  0  0  0  0  0  0  0  0  0
    2.0273  -17.4738    3.1916 H   0  0  0  0  0  0  0  0  0  0  0  0
    0.7906  -17.6343    0.6905 H   0  0  0  0  0  0  0  0  0  0  0  0
   -0.8199  -16.9396    1.1905 H   0  0  0  0  0  0  0  0  0  0  0  0
   -0.2109  -16.4964   -1.1828 H   0  0  0  0  0  0  0  0  0  0  0  0
   -0.4781  -15.0102   -0.1379 H   0  0  0  0  0  0  0  0  0  0  0  0
    0.9471  -13.2707   -1.4035 H   0  0  0  0  0  0  0  0  0  0  0  0
    2.1160  -14.0610   -2.5150 H   0  0  0  0  0  0  0  0  0  0  0  0
    0.3929  -14.5684   -2.5150 H   0  0  0  0  0  0  0  0  0  0  0  0
    2.5805  -17.1719   -0.6350 H   0  0  0  0  0  0  0  0  0  0  0  0
    1.9164  -16.7922   -2.2870 H   0  0  0  0  0  0  0  0  0  0  0  0
    4.3932  -16.7368   -2.1999 H   0  0  0  0  0  0  0  0  0  0  0  0
    3.6059  -15.1316   -2.6345 H   0  0  0  0  0  0  0  0  0  0  0  0
   10.9308  -11.7920   -3.0085 H   0  0  0  0  0  0  0  0  0  0  0  0
   11.2871  -13.4779   -3.5157 H   0  0  0  0  0  0  0  0  0  0  0  0
    9.5937  -12.8790   -3.5157 H   0  0  0  0  0  0  0  0  0  0  0  0
  1  2  1  0
  2  3  2  0
  2  4  1  0
  4  5  1  0
  5  6  1  0
  6  7  1  0
  7  8  1  0
  8  9  1  6
  8 10  1  0
 10 11  1  0
 11 12  1  0
 12 13  1  0
 13 14  1  6
 13 15  1  0
 15 16  1  0
 16 17  1  0
 17 18  2  0
 18 19  1  0
 19 20  1  0
 20 21  1  0
 21 22  1  0
 21 23  1  0
 21 24  1  0
 24 25  1  0
 25 26  1  0
 26 27  1  6
 26 28  1  0
 28 29  1  0
 29 30  1  0
 30 31  1  1
 31 32  2  0
 31 33  1  0
 10 34  1  0
 34 35  1  6
 34 36  1  0
 36 37  2  0
 36 38  1  0
 34  5  1  0
 15  8  1  0
 30 18  1  0
 30 13  1  0
 26 19  1  0
  1 39  1  0
  1 40  1  0
  1 41  1  0
  5 42  1  6
  6 43  1  0
  6 44  1  0
  7 45  1  0
  7 46  1  0
  9 47  1  0
  9 48  1  0
  9 49  1  0
 10 50  1  1
 11 51  1  0
 11 52  1  0
 12 53  1  0
 12 54  1  0
 14 55  1  0
 14 56  1  0
 14 57  1  0
 15 58  1  1
 16 59  1  0
 16 60  1  0
 17 61  1  0
 19 62  1  1
 20 63  1  0
 20 64  1  0
 22 65  1  0
 22 66  1  0
 22 67  1  0
 23 68  1  0
 23 69  1  0
 23 70  1  0
 24 71  1  0
 24 72  1  0
 25 73  1  0
 25 74  1  0
 27 75  1  0
 27 76  1  0
 27 77  1  0
 28 78  1  0
 28 79  1  0
 29 80  1  0
 29 81  1  0
 35 82  1  0
 35 83  1  0
 35 84  1  0
M  CHG  2  33  -1  38  -1
M  END
>  <meeko>  (4) 
{"is_sidechain": [false], "free_energy": -8.031, "intermolecular_energy": -9.848, "internal_energy": -0.451}

$$$$
LIB_DFNMEZDDQABOQT__M_PUB_ALL__e8__s20260927
     RDKit          3D

 84 88  0  0  0  0  0  0  0  0999 V2000
    4.7640  -12.1180   -6.7540 C   0  0  0  0  0  0  0  0  0  0  0  0
    4.5280  -13.2410   -5.7910 C   0  0  0  0  0  0  0  0  0  0  0  0
    5.1030  -14.3210   -5.8480 O   0  0  0  0  0  0  0  0  0  0  0  0
    3.5680  -12.8790   -4.9070 O   0  0  0  0  0  0  0  0  0  0  0  0
    3.2730  -13.7610   -3.8010 C   0  0  2  0  0  0  0  0  0  0  0  0
    1.7650  -14.0080   -3.7890 C   0  0  0  0  0  0  0  0  0  0  0  0
    1.3160  -15.0320   -2.7370 C   0  0  0  0  0  0  0  0  0  0  0  0
    2.1970  -15.1000   -1.4400 C   0  0  1  0  0  0  0  0  0  0  0  0
    3.2530  -16.2140   -1.6670 C   0  0  0  0  0  0  0  0  0  0  0  0
    2.8630  -13.6890   -1.2480 C   0  0  1  0  0  0  0  0  0  0  0  0
    3.5050  -13.5400    0.1460 C   0  0  0  0  0  0  0  0  0  0  0  0
    2.4820  -13.7570    1.2700 C   0  0  0  0  0  0  0  0  0  0  0  0
    1.8020  -15.1540    1.2510 C   0  0  2  0  0  0  0  0  0  0  0  0
    2.8880  -16.2120    1.6130 C   0  0  0  0  0  0  0  0  0  0  0  0
    1.2360  -15.4140   -0.1950 C   0  0  2  0  0  0  0  0  0  0  0  0
    0.5480  -16.7970   -0.2690 C   0  0  0  0  0  0  0  0  0  0  0  0
   -0.2770  -17.1660    0.9250 C   0  0  0  0  0  0  0  0  0  0  0  0
   -0.3020  -16.4960    2.0940 C   0  0  0  0  0  0  0  0  0  0  0  0
   -1.2480  -16.9680    3.2050 C   0  0  2  0  0  0  0  0  0  0  0  0
   -2.5550  -16.1420    3.2250 C   0  0  0  0  0  0  0  0  0  0  0  0
   -3.5580  -16.5640    4.3200 C   0  0  0  0  0  0  0  0  0  0  0  0
   -4.1460  -17.9560    4.0270 C   0  0  0  0  0  0  0  0  0  0  0  0
   -4.7230  -15.5560    4.3440 C   0  0  0  0  0  0  0  0  0  0  0  0
   -2.8490  -16.5350    5.6870 C   0  0  0  0  0  0  0  0  0  0  0  0
   -1.5690  -17.3680    5.7160 C   0  0  0  0  0  0  0  0  0  0  0  0
   -0.5530  -17.0360    4.5900 C   0  0  1  0  0  0  0  0  0  0  0  0
    0.4950  -18.1800    4.6020 C   0  0  0  0  0  0  0  0  0  0  0  0
    0.1390  -15.6840    4.8810 C   0  0  0  0  0  0  0  0  0  0  0  0
    1.1570  -15.2960    3.7980 C   0  0  0  0  0  0  0  0  0  0  0  0
    0.5900  -15.2430    2.3400 C   0  0  1  0  0  0  0  0  0  0  0  0
   -0.3560  -13.9540    2.2420 C   0  0  0  0  0  0  0  0  0  0  0  0
   -1.0900  -13.8790    1.2090 O   0  0  0  0  0  0  0  0  0  0  0  0
   -0.2600  -13.1050    3.1770 O   0  0  0  0  0  0  0  0  0  0  0  0
    3.8020  -13.2240   -2.4380 C   0  0  1  0  0  0  0  0  0  0  0  0
    5.2750  -13.6530   -2.2560 C   0  0  0  0  0  0  0  0  0  0  0  0
    3.7880  -11.6560   -2.5600 C   0  0  0  0  0  0  0  0  0  0  0  0
    4.9040  -11.0970   -2.7530 O   0  0  0  0  0  0  0  0  0  0  0  0
    2.6620  -11.0910   -2.4080 O   0  0  0  0  0  0  0  0  0  0  0  0
    4.9589  -11.1907   -6.1953 H   0  0  0  0  0  0  0  0  0  0  0  0
    5.6322  -12.3541   -7.3869 H   0  0  0  0  0  0  0  0  0  0  0  0
    3.8743  -11.9846   -7.3869 H   0  0  0  0  0  0  0  0  0  0  0  0
    3.8048  -14.7135   -3.9421 H   0  0  0  0  0  0  0  0  0  0  0  0
    1.2583  -13.0536   -3.5831 H   0  0  0  0  0  0  0  0  0  0  0  0
    1.4988  -14.4205   -4.7734 H   0  0  0  0  0  0  0  0  0  0  0  0
    0.2885  -14.7798   -2.4357 H   0  0  0  0  0  0  0  0  0  0  0  0
    1.4087  -16.0176   -3.2166 H   0  0  0  0  0  0  0  0  0  0  0  0
    3.6069  -16.5874   -0.6947 H   0  0  0  0  0  0  0  0  0  0  0  0
    2.7985  -17.0401   -2.2336 H   0  0  0  0  0  0  0  0  0  0  0  0
    4.1022  -15.8043   -2.2336 H   0  0  0  0  0  0  0  0  0  0  0  0
    2.0329  -12.9686   -1.2926 H   0  0  0  0  0  0  0  0  0  0  0  0
    4.3099  -14.2826    0.2487 H   0  0  0  0  0  0  0  0  0  0  0  0
    3.8983  -12.5165    0.2341 H   0  0  0  0  0  0  0  0  0  0  0  0
    2.9981  -13.6376    2.2340 H   0  0  0  0  0  0  0  0  0  0  0  0
    1.6842  -13.0149    1.1191 H   0  0  0  0  0  0  0  0  0  0  0  0
    2.9709  -16.2928    2.7069 H   0  0  0  0  0  0  0  0  0  0  0  0
    2.6030  -17.1882    1.1938 H   0  0  0  0  0  0  0  0  0  0  0  0
    3.8565  -15.9016    1.1938 H   0  0  0  0  0  0  0  0  0  0  0  0
    0.4790  -14.6281   -0.3339 H   0  0  0  0  0  0  0  0  0  0  0  0
   -0.1092  -16.8029   -1.1511 H   0  0  0  0  0  0  0  0  0  0  0  0
    1.3594  -17.5381   -0.3189 H   0  0  0  0  0  0  0  0  0  0  0  0
   -0.9155  -18.0578    0.8409 H   0  0  0  0  0  0  0  0  0  0  0  0
   -1.5331  -18.0040    2.9695 H   0  0  0  0  0  0  0  0  0  0  0  0
   -2.2925  -15.0861    3.3870 H   0  0  0  0  0  0  0  0  0  0  0  0
   -3.0520  -16.3164    2.2593 H   0  0  0  0  0  0  0  0  0  0  0  0
   -4.3629  -18.4694    4.9753 H   0  0  0  0  0  0  0  0  0  0  0  0
   -5.0750  -17.8472    3.4481 H   0  0  0  0  0  0  0  0  0  0  0  0
   -3.4203  -18.5462    3.4481 H   0  0  0  0  0  0  0  0  0  0  0  0
   -4.9880  -15.3267    5.3867 H   0  0  0  0  0  0  0  0  0  0  0  0
   -4.4187  -14.6316    3.8312 H   0  0  0  0  0  0  0  0  0  0  0  0
   -5.5940  -15.9900    3.8312 H   0  0  0  0  0  0  0  0  0  0  0  0
   -2.5936  -15.4923    5.9268 H   0  0  0  0  0  0  0  0  0  0  0  0
   -3.5400  -16.9698    6.4241 H   0  0  0  0  0  0  0  0  0  0  0  0
   -1.0739  -17.2017    6.6841 H   0  0  0  0  0  0  0  0  0  0  0  0
   -1.8749  -18.4130    5.5601 H   0  0  0  0  0  0  0  0  0  0  0  0
    0.7373  -18.4444    5.6419 H   0  0  0  0  0  0  0  0  0  0  0  0
    0.0831  -19.0600    4.0863 H   0  0  0  0  0  0  0  0  0  0  0  0
    1.4076  -17.8466    4.0863 H   0  0  0  0  0  0  0  0  0  0  0  0
   -0.6302  -14.8998    4.9386 H   0  0  0  0  0  0  0  0  0  0  0  0
    0.6854  -15.7870    5.8301 H   0  0  0  0  0  0  0  0  0  0  0  0
    1.5543  -14.3005    4.0452 H   0  0  0  0  0  0  0  0  0  0  0  0
    1.9217  -16.0867    3.8000 H   0  0  0  0  0  0  0  0  0  0  0  0
    5.5073  -13.7207   -1.1829 H   0  0  0  0  0  0  0  0  0  0  0  0
    5.4321  -14.6342   -2.7277 H   0  0  0  0  0  0  0  0  0  0  0  0
    5.9344  -12.9096   -2.7277 H   0  0  0  0  0  0  0  0  0  0  0  0
  1  2  1  0
  2  3  2  0
  2  4  1  0
  4  5  1  0
  5  6  1  0
  6  7  1  0
  7  8  1  0
  8  9  1  6
  8 10  1  0
 10 11  1  0
 11 12  1  0
 12 13  1  0
 13 14  1  1
 13 15  1  0
 15 16  1  0
 16 17  1  0
 17 18  2  0
 18 19  1  0
 19 20  1  0
 20 21  1  0
 21 22  1  0
 21 23  1  0
 21 24  1  0
 24 25  1  0
 25 26  1  0
 26 27  1  6
 26 28  1  0
 28 29  1  0
 29 30  1  0
 30 31  1  1
 31 32  2  0
 31 33  1  0
 10 34  1  0
 34 35  1  1
 34 36  1  0
 36 37  2  0
 36 38  1  0
 34  5  1  0
 15  8  1  0
 30 18  1  0
 30 13  1  0
 26 19  1  0
  1 39  1  0
  1 40  1  0
  1 41  1  0
  5 42  1  6
  6 43  1  0
  6 44  1  0
  7 45  1  0
  7 46  1  0
  9 47  1  0
  9 48  1  0
  9 49  1  0
 10 50  1  1
 11 51  1  0
 11 52  1  0
 12 53  1  0
 12 54  1  0
 14 55  1  0
 14 56  1  0
 14 57  1  0
 15 58  1  6
 16 59  1  0
 16 60  1  0
 17 61  1  0
 19 62  1  6
 20 63  1  0
 20 64  1  0
 22 65  1  0
 22 66  1  0
 22 67  1  0
 23 68  1  0
 23 69  1  0
 23 70  1  0
 24 71  1  0
 24 72  1  0
 25 73  1  0
 25 74  1  0
 27 75  1  0
 27 76  1  0
 27 77  1  0
 28 78  1  0
 28 79  1  0
 29 80  1  0
 29 81  1  0
 35 82  1  0
 35 83  1  0
 35 84  1  0
M  CHG  2  33  -1  38  -1
M  END
>  <meeko>  (5) 
{"is_sidechain": [false], "free_energy": -7.964, "intermolecular_energy": -9.814, "internal_energy": -0.403}

$$$$
LIB_DFNMEZDDQABOQT__M_PUB_ALL__e8__s20260927
     RDKit          3D

 84 88  0  0  0  0  0  0  0  0999 V2000
   -2.1910  -17.1480    4.1140 C   0  0  0  0  0  0  0  0  0  0  0  0
   -1.2300  -17.5260    3.0290 C   0  0  0  0  0  0  0  0  0  0  0  0
   -1.5200  -18.2480    2.0830 O   0  0  0  0  0  0  0  0  0  0  0  0
   -0.0180  -16.9860    3.2940 O   0  0  0  0  0  0  0  0  0  0  0  0
    0.8180  -16.5750    2.1900 C   0  0  2  0  0  0  0  0  0  0  0  0
    2.1810  -17.2470    2.3580 C   0  0  0  0  0  0  0  0  0  0  0  0
    3.1390  -17.0000    1.1850 C   0  0  0  0  0  0  0  0  0  0  0  0
    2.9550  -15.6330    0.4360 C   0  0  1  0  0  0  0  0  0  0  0  0
    2.0040  -15.8970   -0.7610 C   0  0  0  0  0  0  0  0  0  0  0  0
    2.3390  -14.6130    1.4620 C   0  0  1  0  0  0  0  0  0  0  0  0
    2.3940  -13.1650    0.9370 C   0  0  0  0  0  0  0  0  0  0  0  0
    3.8300  -12.7300    0.6140 C   0  0  0  0  0  0  0  0  0  0  0  0
    4.5360  -13.6080   -0.4570 C   0  0  2  0  0  0  0  0  0  0  0  0
    3.8230  -13.3550   -1.8190 C   0  0  0  0  0  0  0  0  0  0  0  0
    4.3990  -15.1190   -0.0330 C   0  0  2  0  0  0  0  0  0  0  0  0
    5.0850  -16.0380   -1.0690 C   0  0  0  0  0  0  0  0  0  0  0  0
    6.3910  -15.5360   -1.6060 C   0  0  0  0  0  0  0  0  0  0  0  0
    6.8920  -14.3010   -1.4080 C   0  0  0  0  0  0  0  0  0  0  0  0
    8.2750  -13.9580   -1.9760 C   0  0  2  0  0  0  0  0  0  0  0  0
    9.3770  -14.0830   -0.8980 C   0  0  0  0  0  0  0  0  0  0  0  0
   10.7990  -13.7520   -1.4010 C   0  0  0  0  0  0  0  0  0  0  0  0
   11.2980  -14.8170   -2.3940 C   0  0  0  0  0  0  0  0  0  0  0  0
   11.7630  -13.7420   -0.1990 C   0  0  0  0  0  0  0  0  0  0  0  0
   10.7910  -12.3530   -2.0420 C   0  0  0  0  0  0  0  0  0  0  0  0
    9.7360  -12.2010   -3.1360 C   0  0  0  0  0  0  0  0  0  0  0  0
    8.2960  -12.5900   -2.7080 C   0  0  1  0  0  0  0  0  0  0  0  0
    7.4630  -12.6740   -4.0140 C   0  0  0  0  0  0  0  0  0  0  0  0
    7.7070  -11.5040   -1.7760 C   0  0  0  0  0  0  0  0  0  0  0  0
    6.2800  -11.8340   -1.3130 C   0  0  0  0  0  0  0  0  0  0  0  0
    6.1140  -13.2190   -0.6030 C   0  0  1  0  0  0  0  0  0  0  0  0
    6.8050  -13.1030    0.8380 C   0  0  0  0  0  0  0  0  0  0  0  0
    7.0710  -11.9280    1.2350 O   0  0  0  0  0  0  0  0  0  0  0  0
    7.0620  -14.1900    1.4350 O   0  0  0  0  0  0  0  0  0  0  0  0
    0.9280  -15.0270    2.0530 C   0  0  1  0  0  0  0  0  0  0  0  0
   -0.2610  -14.5020    1.2170 C   0  0  0  0  0  0  0  0  0  0  0  0
    0.7590  -14.4550    3.5080 C   0  0  0  0  0  0  0  0  0  0  0  0
   -0.3510  -13.9160    3.7760 O   0  0  0  0  0  0  0  0  0  0  0  0
    1.7720  -14.5470    4.2690 O   0  0  0  0  0  0  0  0  0  0  0  0
   -1.7272  -17.3305    5.0946 H   0  0  0  0  0  0  0  0  0  0  0  0
   -2.4470  -16.0822    4.0221 H   0  0  0  0  0  0  0  0  0  0  0  0
   -3.1045  -17.7538    4.0221 H   0  0  0  0  0  0  0  0  0  0  0  0
    0.3573  -16.8990    1.2451 H   0  0  0  0  0  0  0  0  0  0  0  0
    2.6483  -16.8600    3.2755 H   0  0  0  0  0  0  0  0  0  0  0  0
    2.0015  -18.3313    2.4038 H   0  0  0  0  0  0  0  0  0  0  0  0
    4.1672  -17.0371    1.5741 H   0  0  0  0  0  0  0  0  0  0  0  0
    2.9157  -17.7818    0.4441 H   0  0  0  0  0  0  0  0  0  0  0  0
    1.0082  -16.1734   -0.3841 H   0  0  0  0  0  0  0  0  0  0  0  0
    1.9245  -14.9870   -1.3738 H   0  0  0  0  0  0  0  0  0  0  0  0
    2.4050  -16.7178   -1.3738 H   0  0  0  0  0  0  0  0  0  0  0  0
    2.9965  -14.6551    2.3429 H   0  0  0  0  0  0  0  0  0  0  0  0
    1.7864  -13.0944    0.0227 H   0  0  0  0  0  0  0  0  0  0  0  0
    2.0043  -12.5013    1.7229 H   0  0  0  0  0  0  0  0  0  0  0  0
    3.8021  -11.6935    0.2466 H   0  0  0  0  0  0  0  0  0  0  0  0
    4.4094  -12.8375    1.5429 H   0  0  0  0  0  0  0  0  0  0  0  0
    2.8008  -12.9923   -1.6359 H   0  0  0  0  0  0  0  0  0  0  0  0
    4.3828  -12.6006   -2.3913 H   0  0  0  0  0  0  0  0  0  0  0  0
    3.7821  -14.2935   -2.3913 H   0  0  0  0  0  0  0  0  0  0  0  0
    4.9442  -15.1836    0.9202 H   0  0  0  0  0  0  0  0  0  0  0  0
    5.2660  -17.0123   -0.5916 H   0  0  0  0  0  0  0  0  0  0  0  0
    4.4019  -16.0886   -1.9297 H   0  0  0  0  0  0  0  0  0  0  0  0
    6.9895  -16.2327   -2.2113 H   0  0  0  0  0  0  0  0  0  0  0  0
    8.5028  -14.7070   -2.7488 H   0  0  0  0  0  0  0  0  0  0  0  0
    9.1337  -13.3945   -0.0753 H   0  0  0  0  0  0  0  0  0  0  0  0
    9.3917  -15.1370   -0.5835 H   0  0  0  0  0  0  0  0  0  0  0  0
   11.7007  -15.6765   -1.8381 H   0  0  0  0  0  0  0  0  0  0  0  0
   10.4616  -15.1488   -3.0268 H   0  0  0  0  0  0  0  0  0  0  0  0
   12.0882  -14.3867   -3.0268 H   0  0  0  0  0  0  0  0  0  0  0  0
   11.1834  -13.7480    0.7359 H   0  0  0  0  0  0  0  0  0  0  0  0
   12.4062  -14.6335   -0.2374 H   0  0  0  0  0  0  0  0  0  0  0  0
   12.3876  -12.8373   -0.2374 H   0  0  0  0  0  0  0  0  0  0  0  0
   10.5906  -11.6093   -1.2567 H   0  0  0  0  0  0  0  0  0  0  0  0
   11.7743  -12.2017   -2.5114 H   0  0  0  0  0  0  0  0  0  0  0  0
    9.7253  -11.1491   -3.4577 H   0  0  0  0  0  0  0  0  0  0  0  0
   10.0196  -12.8969   -3.9393 H   0  0  0  0  0  0  0  0  0  0  0  0
    6.3974  -12.7815   -3.7630 H   0  0  0  0  0  0  0  0  0  0  0  0
    7.6103  -11.7564   -4.6025 H   0  0  0  0  0  0  0  0  0  0  0  0
    7.7906  -13.5437   -4.6025 H   0  0  0  0  0  0  0  0  0  0  0  0
    8.3525  -11.4121   -0.8901 H   0  0  0  0  0  0  0  0  0  0  0  0
    7.6636  -10.5639   -2.3454 H   0  0  0  0  0  0  0  0  0  0  0  0
    5.9605  -11.0506   -0.6100 H   0  0  0  0  0  0  0  0  0  0  0  0
    5.6665  -11.8826   -2.2247 H   0  0  0  0  0  0  0  0  0  0  0  0
   -1.0563  -14.1508    1.8909 H   0  0  0  0  0  0  0  0  0  0  0  0
    0.0763  -13.6691    0.5825 H   0  0  0  0  0  0  0  0  0  0  0  0
   -0.6493  -15.3124    0.5825 H   0  0  0  0  0  0  0  0  0  0  0  0
  1  2  1  0
  2  3  2  0
  2  4  1  0
  4  5  1  0
  5  6  1  0
  6  7  1  0
  7  8  1  0
  8  9  1  6
  8 10  1  0
 10 11  1  0
 11 12  1  0
 12 13  1  0
 13 14  1  6
 13 15  1  0
 15 16  1  0
 16 17  1  0
 17 18  2  0
 18 19  1  0
 19 20  1  0
 20 21  1  0
 21 22  1  0
 21 23  1  0
 21 24  1  0
 24 25  1  0
 25 26  1  0
 26 27  1  6
 26 28  1  0
 28 29  1  0
 29 30  1  0
 30 31  1  1
 31 32  2  0
 31 33  1  0
 10 34  1  0
 34 35  1  6
 34 36  1  0
 36 37  2  0
 36 38  1  0
 34  5  1  0
 15  8  1  0
 30 18  1  0
 30 13  1  0
 26 19  1  0
  1 39  1  0
  1 40  1  0
  1 41  1  0
  5 42  1  6
  6 43  1  0
  6 44  1  0
  7 45  1  0
  7 46  1  0
  9 47  1  0
  9 48  1  0
  9 49  1  0
 10 50  1  1
 11 51  1  0
 11 52  1  0
 12 53  1  0
 12 54  1  0
 14 55  1  0
 14 56  1  0
 14 57  1  0
 15 58  1  1
 16 59  1  0
 16 60  1  0
 17 61  1  0
 19 62  1  6
 20 63  1  0
 20 64  1  0
 22 65  1  0
 22 66  1  0
 22 67  1  0
 23 68  1  0
 23 69  1  0
 23 70  1  0
 24 71  1  0
 24 72  1  0
 25 73  1  0
 25 74  1  0
 27 75  1  0
 27 76  1  0
 27 77  1  0
 28 78  1  0
 28 79  1  0
 29 80  1  0
 29 81  1  0
 35 82  1  0
 35 83  1  0
 35 84  1  0
M  CHG  2  33  -1  38  -1
M  END
>  <meeko>  (6) 
{"is_sidechain": [false], "free_energy": -7.921, "intermolecular_energy": -9.722, "internal_energy": -0.442}

$$$$
LIB_DFNMEZDDQABOQT__M_PUB_ALL__e8__s20260927
     RDKit          3D

 84 88  0  0  0  0  0  0  0  0999 V2000
    1.1270  -20.0650   12.7870 C   0  0  0  0  0  0  0  0  0  0  0  0
   -0.3500  -20.2890   12.6690 C   0  0  0  0  0  0  0  0  0  0  0  0
   -1.1510  -20.0450   13.5640 O   0  0  0  0  0  0  0  0  0  0  0  0
   -0.6260  -20.8320   11.4610 O   0  0  0  0  0  0  0  0  0  0  0  0
   -0.3360  -20.0650   10.2710 C   0  0  2  0  0  0  0  0  0  0  0  0
   -1.1900  -18.7980   10.3110 C   0  0  0  0  0  0  0  0  0  0  0  0
   -0.8960  -17.8190    9.1650 C   0  0  0  0  0  0  0  0  0  0  0  0
   -0.4130  -18.4740    7.8230 C   0  0  1  0  0  0  0  0  0  0  0  0
    1.1380  -18.4710    7.8510 C   0  0  0  0  0  0  0  0  0  0  0  0
   -0.9980  -19.9330    7.7730 C   0  0  1  0  0  0  0  0  0  0  0  0
   -0.8470  -20.5660    6.3760 C   0  0  0  0  0  0  0  0  0  0  0  0
   -1.5340  -19.7240    5.2920 C   0  0  0  0  0  0  0  0  0  0  0  0
   -0.9920  -18.2720    5.1730 C   0  0  2  0  0  0  0  0  0  0  0  0
    0.4640  -18.3560    4.6210 C   0  0  0  0  0  0  0  0  0  0  0  0
   -1.0040  -17.6160    6.6050 C   0  0  2  0  0  0  0  0  0  0  0  0
   -0.4700  -16.1670    6.5430 C   0  0  0  0  0  0  0  0  0  0  0  0
   -0.9220  -15.3680    5.3590 C   0  0  0  0  0  0  0  0  0  0  0  0
   -1.5720  -15.8610    4.2870 C   0  0  0  0  0  0  0  0  0  0  0  0
   -2.0230  -14.9000    3.1790 C   0  0  2  0  0  0  0  0  0  0  0  0
   -3.5120  -14.5140    3.3350 C   0  0  0  0  0  0  0  0  0  0  0  0
   -4.0350  -13.5450    2.2530 C   0  0  0  0  0  0  0  0  0  0  0  0
   -3.3980  -12.1520    2.4010 C   0  0  0  0  0  0  0  0  0  0  0  0
   -5.5580  -13.3860    2.4200 C   0  0  0  0  0  0  0  0  0  0  0  0
   -3.7480  -14.1430    0.8640 C   0  0  0  0  0  0  0  0  0  0  0  0
   -2.2780  -14.5070    0.6600 C   0  0  0  0  0  0  0  0  0  0  0  0
   -1.6780  -15.4230    1.7600 C   0  0  1  0  0  0  0  0  0  0  0  0
   -0.1410  -15.4050    1.5470 C   0  0  0  0  0  0  0  0  0  0  0  0
   -2.2150  -16.8640    1.6030 C   0  0  0  0  0  0  0  0  0  0  0  0
   -1.6590  -17.8220    2.6680 C   0  0  0  0  0  0  0  0  0  0  0  0
   -1.8960  -17.3780    4.1500 C   0  0  1  0  0  0  0  0  0  0  0  0
   -3.4570  -17.5660    4.4620 C   0  0  0  0  0  0  0  0  0  0  0  0
   -3.8680  -17.0810    5.5600 O   0  0  0  0  0  0  0  0  0  0  0  0
   -4.1330  -18.2150    3.6100 O   0  0  0  0  0  0  0  0  0  0  0  0
   -0.5370  -20.8800    8.9580 C   0  0  1  0  0  0  0  0  0  0  0  0
    0.7540  -21.6670    8.6430 C   0  0  0  0  0  0  0  0  0  0  0  0
   -1.6580  -21.9360    9.2760 C   0  0  0  0  0  0  0  0  0  0  0  0
   -1.2710  -23.1150    9.5070 O   0  0  0  0  0  0  0  0  0  0  0  0
   -2.8550  -21.5160    9.2280 O   0  0  0  0  0  0  0  0  0  0  0  0
    1.4077  -20.0224   13.8497 H   0  0  0  0  0  0  0  0  0  0  0  0
    1.6634  -20.8921   12.2989 H   0  0  0  0  0  0  0  0  0  0  0  0
    1.3941  -19.1161   12.2989 H   0  0  0  0  0  0  0  0  0  0  0  0
    0.7304  -19.7952   10.2625 H   0  0  0  0  0  0  0  0  0  0  0  0
   -2.2488  -19.0909   10.2545 H   0  0  0  0  0  0  0  0  0  0  0  0
   -0.9482  -18.2768   11.2490 H   0  0  0  0  0  0  0  0  0  0  0  0
   -1.8178  -17.2567    8.9550 H   0  0  0  0  0  0  0  0  0  0  0  0
   -0.0621  -17.1908    9.5113 H   0  0  0  0  0  0  0  0  0  0  0  0
    1.4859  -18.4703    8.8945 H   0  0  0  0  0  0  0  0  0  0  0  0
    1.5157  -19.3684    7.3392 H   0  0  0  0  0  0  0  0  0  0  0  0
    1.5122  -17.5721    7.3392 H   0  0  0  0  0  0  0  0  0  0  0  0
   -2.0771  -19.8190    7.9535 H   0  0  0  0  0  0  0  0  0  0  0  0
    0.2234  -20.6499    6.1368 H   0  0  0  0  0  0  0  0  0  0  0  0
   -1.3263  -21.5559    6.3953 H   0  0  0  0  0  0  0  0  0  0  0  0
   -1.3913  -20.2258    4.3236 H   0  0  0  0  0  0  0  0  0  0  0  0
   -2.5929  -19.6433    5.5787 H   0  0  0  0  0  0  0  0  0  0  0  0
    1.1729  -18.3969    5.4611 H   0  0  0  0  0  0  0  0  0  0  0  0
    0.5714  -19.2618    4.0062 H   0  0  0  0  0  0  0  0  0  0  0  0
    0.6748  -17.4685    4.0062 H   0  0  0  0  0  0  0  0  0  0  0  0
   -2.0678  -17.5950    6.8840 H   0  0  0  0  0  0  0  0  0  0  0  0
   -0.8007  -15.6438    7.4523 H   0  0  0  0  0  0  0  0  0  0  0  0
    0.6234  -16.2494    6.4548 H   0  0  0  0  0  0  0  0  0  0  0  0
   -0.7052  -14.2896    5.3656 H   0  0  0  0  0  0  0  0  0  0  0  0
   -1.4429  -13.9731    3.2982 H   0  0  0  0  0  0  0  0  0  0  0  0
   -4.1126  -15.4346    3.2921 H   0  0  0  0  0  0  0  0  0  0  0  0
   -3.6016  -13.9888    4.2974 H   0  0  0  0  0  0  0  0  0  0  0  0
   -3.2877  -11.9108    3.4685 H   0  0  0  0  0  0  0  0  0  0  0  0
   -2.4087  -12.1482    1.9201 H   0  0  0  0  0  0  0  0  0  0  0  0
   -4.0423  -11.4012    1.9201 H   0  0  0  0  0  0  0  0  0  0  0  0
   -5.8087  -13.3598    3.4907 H   0  0  0  0  0  0  0  0  0  0  0  0
   -5.8832  -12.4490    1.9443 H   0  0  0  0  0  0  0  0  0  0  0  0
   -6.0697  -14.2356    1.9443 H   0  0  0  0  0  0  0  0  0  0  0  0
   -4.3540  -15.0529    0.7426 H   0  0  0  0  0  0  0  0  0  0  0  0
   -4.0025  -13.3759    0.1178 H   0  0  0  0  0  0  0  0  0  0  0  0
   -2.1841  -15.0249   -0.3059 H   0  0  0  0  0  0  0  0  0  0  0  0
   -1.7155  -13.5626    0.7012 H   0  0  0  0  0  0  0  0  0  0  0  0
    0.3645  -15.3991    2.5239 H   0  0  0  0  0  0  0  0  0  0  0  0
    0.1615  -16.2997    0.9830 H   0  0  0  0  0  0  0  0  0  0  0  0
    0.1405  -14.5035    0.9830 H   0  0  0  0  0  0  0  0  0  0  0  0
   -3.3116  -16.8423    1.6870 H   0  0  0  0  0  0  0  0  0  0  0  0
   -1.8902  -17.2349    0.6197 H   0  0  0  0  0  0  0  0  0  0  0  0
   -2.1358  -18.8031    2.5259 H   0  0  0  0  0  0  0  0  0  0  0  0
   -0.5685  -17.8396    2.5244 H   0  0  0  0  0  0  0  0  0  0  0  0
    1.2411  -21.9639    9.5835 H   0  0  0  0  0  0  0  0  0  0  0  0
    0.5027  -22.5657    8.0606 H   0  0  0  0  0  0  0  0  0  0  0  0
    1.4377  -21.0319    8.0606 H   0  0  0  0  0  0  0  0  0  0  0  0
  1  2  1  0
  2  3  2  0
  2  4  1  0
  4  5  1  0
  5  6  1  0
  6  7  1  0
  7  8  1  0
  8  9  1  1
  8 10  1  0
 10 11  1  0
 11 12  1  0
 12 13  1  0
 13 14  1  6
 13 15  1  0
 15 16  1  0
 16 17  1  0
 17 18  2  0
 18 19  1  0
 19 20  1  0
 20 21  1  0
 21 22  1  0
 21 23  1  0
 21 24  1  0
 24 25  1  0
 25 26  1  0
 26 27  1  1
 26 28  1  0
 28 29  1  0
 29 30  1  0
 30 31  1  1
 31 32  2  0
 31 33  1  0
 10 34  1  0
 34 35  1  6
 34 36  1  0
 36 37  2  0
 36 38  1  0
 34  5  1  0
 15  8  1  0
 30 18  1  0
 30 13  1  0
 26 19  1  0
  1 39  1  0
  1 40  1  0
  1 41  1  0
  5 42  1  1
  6 43  1  0
  6 44  1  0
  7 45  1  0
  7 46  1  0
  9 47  1  0
  9 48  1  0
  9 49  1  0
 10 50  1  1
 11 51  1  0
 11 52  1  0
 12 53  1  0
 12 54  1  0
 14 55  1  0
 14 56  1  0
 14 57  1  0
 15 58  1  1
 16 59  1  0
 16 60  1  0
 17 61  1  0
 19 62  1  1
 20 63  1  0
 20 64  1  0
 22 65  1  0
 22 66  1  0
 22 67  1  0
 23 68  1  0
 23 69  1  0
 23 70  1  0
 24 71  1  0
 24 72  1  0
 25 73  1  0
 25 74  1  0
 27 75  1  0
 27 76  1  0
 27 77  1  0
 28 78  1  0
 28 79  1  0
 29 80  1  0
 29 81  1  0
 35 82  1  0
 35 83  1  0
 35 84  1  0
M  CHG  2  33  -1  38  -1
M  END
>  <meeko>  (7) 
{"is_sidechain": [false], "free_energy": -7.878, "intermolecular_energy": -9.732, "internal_energy": -0.379}

$$$$
LIB_DFNMEZDDQABOQT__M_PUB_ALL__e8__s20260927
     RDKit          3D

 84 88  0  0  0  0  0  0  0  0999 V2000
   -3.8040  -18.1790    3.6890 C   0  0  0  0  0  0  0  0  0  0  0  0
   -2.6440  -18.0980    4.6350 C   0  0  0  0  0  0  0  0  0  0  0  0
   -2.7600  -17.9140    5.8410 O   0  0  0  0  0  0  0  0  0  0  0  0
   -1.4890  -18.2130    3.9400 O   0  0  0  0  0  0  0  0  0  0  0  0
   -1.1330  -17.1710    3.0040 C   0  0  2  0  0  0  0  0  0  0  0  0
   -0.7630  -17.8380    1.6790 C   0  0  0  0  0  0  0  0  0  0  0  0
   -0.4800  -16.8420    0.5450 C   0  0  0  0  0  0  0  0  0  0  0  0
    0.1090  -15.4580    0.9910 C   0  0  1  0  0  0  0  0  0  0  0  0
   -1.0910  -14.4900    1.1650 C   0  0  0  0  0  0  0  0  0  0  0  0
    0.8800  -15.6870    2.3430 C   0  0  1  0  0  0  0  0  0  0  0  0
    1.7520  -14.4730    2.7210 C   0  0  0  0  0  0  0  0  0  0  0  0
    2.7720  -14.1410    1.6230 C   0  0  0  0  0  0  0  0  0  0  0  0
    2.1390  -13.8090    0.2440 C   0  0  2  0  0  0  0  0  0  0  0  0
    1.3860  -12.4520    0.3850 C   0  0  0  0  0  0  0  0  0  0  0  0
    1.1360  -14.9620   -0.1360 C   0  0  2  0  0  0  0  0  0  0  0  0
    0.4740  -14.6790   -1.5040 C   0  0  0  0  0  0  0  0  0  0  0  0
    1.3860  -14.1160   -2.5520 C   0  0  0  0  0  0  0  0  0  0  0  0
    2.6400  -13.6730   -2.3380 C   0  0  0  0  0  0  0  0  0  0  0  0
    3.4700  -13.1810   -3.5310 C   0  0  2  0  0  0  0  0  0  0  0  0
    4.4320  -14.2780   -4.0440 C   0  0  0  0  0  0  0  0  0  0  0  0
    5.3000  -13.8510   -5.2460 C   0  0  0  0  0  0  0  0  0  0  0  0
    4.4420  -13.6590   -6.5100 C   0  0  0  0  0  0  0  0  0  0  0  0
    6.3270  -14.9620   -5.5390 C   0  0  0  0  0  0  0  0  0  0  0  0
    6.0570  -12.5590   -4.8850 C   0  0  0  0  0  0  0  0  0  0  0  0
    5.1350  -11.4400   -4.4050 C   0  0  0  0  0  0  0  0  0  0  0  0
    4.1860  -11.8340   -3.2420 C   0  0  1  0  0  0  0  0  0  0  0  0
    3.1420  -10.6920   -3.1290 C   0  0  0  0  0  0  0  0  0  0  0  0
    4.9830  -11.9530   -1.9230 C   0  0  0  0  0  0  0  0  0  0  0  0
    4.0970  -12.3460   -0.7300 C   0  0  0  0  0  0  0  0  0  0  0  0
    3.2770  -13.6660   -0.9180 C   0  0  1  0  0  0  0  0  0  0  0  0
    4.3130  -14.8860   -0.8490 C   0  0  0  0  0  0  0  0  0  0  0  0
    5.4550  -14.6200   -0.3640 O   0  0  0  0  0  0  0  0  0  0  0  0
    3.9200  -15.9940   -1.3190 O   0  0  0  0  0  0  0  0  0  0  0  0
   -0.0080  -16.2340    3.5360 C   0  0  1  0  0  0  0  0  0  0  0  0
   -0.6400  -15.1120    4.3900 C   0  0  0  0  0  0  0  0  0  0  0  0
    0.8640  -17.1160    4.5020 C   0  0  0  0  0  0  0  0  0  0  0  0
    1.6700  -17.9200    3.9560 O   0  0  0  0  0  0  0  0  0  0  0  0
    0.6460  -16.9730    5.7450 O   0  0  0  0  0  0  0  0  0  0  0  0
   -4.7406  -18.2444    4.2621 H   0  0  0  0  0  0  0  0  0  0  0  0
   -3.8239  -17.2801    3.0554 H   0  0  0  0  0  0  0  0  0  0  0  0
   -3.6987  -19.0720    3.0554 H   0  0  0  0  0  0  0  0  0  0  0  0
   -1.9950  -16.5037    2.8569 H   0  0  0  0  0  0  0  0  0  0  0  0
    0.1378  -18.4492    1.8374 H   0  0  0  0  0  0  0  0  0  0  0  0
   -1.6296  -18.4405    1.3691 H   0  0  0  0  0  0  0  0  0  0  0  0
    0.2383  -17.3093   -0.1447 H   0  0  0  0  0  0  0  0  0  0  0  0
   -1.4557  -16.6210    0.0876 H   0  0  0  0  0  0  0  0  0  0  0  0
   -1.2841  -14.3343    2.2367 H   0  0  0  0  0  0  0  0  0  0  0  0
   -0.8559  -13.5257    0.6908 H   0  0  0  0  0  0  0  0  0  0  0  0
   -1.9838  -14.9238    0.6908 H   0  0  0  0  0  0  0  0  0  0  0  0
    1.5687  -16.5218    2.1461 H   0  0  0  0  0  0  0  0  0  0  0  0
    1.1000  -13.6009    2.8771 H   0  0  0  0  0  0  0  0  0  0  0  0
    2.3055  -14.7215    3.6386 H   0  0  0  0  0  0  0  0  0  0  0  0
    3.3605  -13.2713    1.9506 H   0  0  0  0  0  0  0  0  0  0  0  0
    3.3862  -15.0423    1.4797 H   0  0  0  0  0  0  0  0  0  0  0  0
    1.2544  -12.2148    1.4510 H   0  0  0  0  0  0  0  0  0  0  0  0
    1.9714  -11.6559   -0.0982 H   0  0  0  0  0  0  0  0  0  0  0  0
    0.4007  -12.5275   -0.0982 H   0  0  0  0  0  0  0  0  0  0  0  0
    1.7724  -15.8550   -0.2233 H   0  0  0  0  0  0  0  0  0  0  0  0
    0.0621  -15.6253   -1.8846 H   0  0  0  0  0  0  0  0  0  0  0  0
   -0.2895  -13.9090   -1.3193 H   0  0  0  0  0  0  0  0  0  0  0  0
    0.9995  -14.0600   -3.5803 H   0  0  0  0  0  0  0  0  0  0  0  0
    2.7670  -12.9705   -4.3504 H   0  0  0  0  0  0  0  0  0  0  0  0
    5.1020  -14.5618   -3.2190 H   0  0  0  0  0  0  0  0  0  0  0  0
    3.8030  -15.1113   -4.3904 H   0  0  0  0  0  0  0  0  0  0  0  0
    3.4068  -13.4274   -6.2188 H   0  0  0  0  0  0  0  0  0  0  0  0
    4.8492  -12.8298   -7.1071 H   0  0  0  0  0  0  0  0  0  0  0  0
    4.4570  -14.5827   -7.1071 H   0  0  0  0  0  0  0  0  0  0  0  0
    6.7052  -15.3711   -4.5905 H   0  0  0  0  0  0  0  0  0  0  0  0
    5.8449  -15.7636   -6.1178 H   0  0  0  0  0  0  0  0  0  0  0  0
    7.1640  -14.5443   -6.1178 H   0  0  0  0  0  0  0  0  0  0  0  0
    6.7772  -12.7868   -4.0853 H   0  0  0  0  0  0  0  0  0  0  0  0
    6.5559  -12.2043   -5.7990 H   0  0  0  0  0  0  0  0  0  0  0  0
    5.7615  -10.6016   -4.0666 H   0  0  0  0  0  0  0  0  0  0  0  0
    4.4899  -11.1824   -5.2579 H   0  0  0  0  0  0  0  0  0  0  0  0
    2.9462  -10.4779   -2.0680 H   0  0  0  0  0  0  0  0  0  0  0  0
    3.5327   -9.7882   -3.6195 H   0  0  0  0  0  0  0  0  0  0  0  0
    2.2069  -11.0002   -3.6195 H   0  0  0  0  0  0  0  0  0  0  0  0
    5.7624  -12.7187   -2.0503 H   0  0  0  0  0  0  0  0  0  0  0  0
    5.4159  -10.9655   -1.7052 H   0  0  0  0  0  0  0  0  0  0  0  0
    4.7456  -12.4702    0.1498 H   0  0  0  0  0  0  0  0  0  0  0  0
    3.3575  -11.5393   -0.6189 H   0  0  0  0  0  0  0  0  0  0  0  0
   -0.5087  -15.3452    5.4570 H   0  0  0  0  0  0  0  0  0  0  0  0
   -0.1481  -14.1553    4.1605 H   0  0  0  0  0  0  0  0  0  0  0  0
   -1.7132  -15.0368    4.1605 H   0  0  0  0  0  0  0  0  0  0  0  0
  1  2  1  0
  2  3  2  0
  2  4  1  0
  4  5  1  0
  5  6  1  0
  6  7  1  0
  7  8  1  0
  8  9  1  1
  8 10  1  0
 10 11  1  0
 11 12  1  0
 12 13  1  0
 13 14  1  1
 13 15  1  0
 15 16  1  0
 16 17  1  0
 17 18  2  0
 18 19  1  0
 19 20  1  0
 20 21  1  0
 21 22  1  0
 21 23  1  0
 21 24  1  0
 24 25  1  0
 25 26  1  0
 26 27  1  1
 26 28  1  0
 28 29  1  0
 29 30  1  0
 30 31  1  6
 31 32  2  0
 31 33  1  0
 10 34  1  0
 34 35  1  1
 34 36  1  0
 36 37  2  0
 36 38  1  0
 34  5  1  0
 15  8  1  0
 30 18  1  0
 30 13  1  0
 26 19  1  0
  1 39  1  0
  1 40  1  0
  1 41  1  0
  5 42  1  6
  6 43  1  0
  6 44  1  0
  7 45  1  0
  7 46  1  0
  9 47  1  0
  9 48  1  0
  9 49  1  0
 10 50  1  6
 11 51  1  0
 11 52  1  0
 12 53  1  0
 12 54  1  0
 14 55  1  0
 14 56  1  0
 14 57  1  0
 15 58  1  6
 16 59  1  0
 16 60  1  0
 17 61  1  0
 19 62  1  6
 20 63  1  0
 20 64  1  0
 22 65  1  0
 22 66  1  0
 22 67  1  0
 23 68  1  0
 23 69  1  0
 23 70  1  0
 24 71  1  0
 24 72  1  0
 25 73  1  0
 25 74  1  0
 27 75  1  0
 27 76  1  0
 27 77  1  0
 28 78  1  0
 28 79  1  0
 29 80  1  0
 29 81  1  0
 35 82  1  0
 35 83  1  0
 35 84  1  0
M  CHG  2  33  -1  38  -1
M  END
>  <meeko>  (8) 
{"is_sidechain": [false], "free_energy": -7.555, "intermolecular_energy": -9.3, "internal_energy": -0.413}

$$$$
LIB_DFNMEZDDQABOQT__M_PUB_ALL__e8__s20260927
     RDKit          3D

 84 88  0  0  0  0  0  0  0  0999 V2000
   10.2890  -12.5490   -3.2270 C   0  0  0  0  0  0  0  0  0  0  0  0
    9.9530  -13.5090   -2.1270 C   0  0  0  0  0  0  0  0  0  0  0  0
   10.6990  -13.7600   -1.1890 O   0  0  0  0  0  0  0  0  0  0  0  0
    8.7430  -14.0640   -2.3710 O   0  0  0  0  0  0  0  0  0  0  0  0
    7.6310  -13.7110   -1.5190 C   0  0  2  0  0  0  0  0  0  0  0  0
    7.2020  -14.9690   -0.7640 C   0  0  0  0  0  0  0  0  0  0  0  0
    6.1030  -14.7180    0.2790 C   0  0  0  0  0  0  0  0  0  0  0  0
    5.1110  -13.5480   -0.0510 C   0  0  1  0  0  0  0  0  0  0  0  0
    5.6680  -12.2740    0.6380 C   0  0  0  0  0  0  0  0  0  0  0  0
    5.0640  -13.3970   -1.6160 C   0  0  1  0  0  0  0  0  0  0  0  0
    3.9040  -12.4910   -2.0720 C   0  0  0  0  0  0  0  0  0  0  0  0
    2.5460  -13.0170   -1.5890 C   0  0  0  0  0  0  0  0  0  0  0  0
    2.4220  -13.1390   -0.0440 C   0  0  2  0  0  0  0  0  0  0  0  0
    2.4200  -11.6950    0.5430 C   0  0  0  0  0  0  0  0  0  0  0  0
    3.6580  -13.9530    0.4930 C   0  0  2  0  0  0  0  0  0  0  0  0
    3.5850  -14.1010    2.0300 C   0  0  0  0  0  0  0  0  0  0  0  0
    2.2200  -14.3780    2.5820 C   0  0  0  0  0  0  0  0  0  0  0  0
    1.0690  -14.3130    1.8850 C   0  0  0  0  0  0  0  0  0  0  0  0
   -0.2470  -14.6860    2.5810 C   0  0  2  0  0  0  0  0  0  0  0  0
   -0.6650  -16.1400    2.2610 C   0  0  0  0  0  0  0  0  0  0  0  0
   -1.9830  -16.5850    2.9310 C   0  0  0  0  0  0  0  0  0  0  0  0
   -1.8180  -16.7010    4.4570 C   0  0  0  0  0  0  0  0  0  0  0  0
   -2.3710  -17.9750    2.3920 C   0  0  0  0  0  0  0  0  0  0  0  0
   -3.0940  -15.5830    2.5650 C   0  0  0  0  0  0  0  0  0  0  0  0
   -2.7300  -14.1370    2.8980 C   0  0  0  0  0  0  0  0  0  0  0  0
   -1.3760  -13.6570    2.3100 C   0  0  1  0  0  0  0  0  0  0  0  0
   -1.0500  -12.3130    3.0140 C   0  0  0  0  0  0  0  0  0  0  0  0
   -1.5080  -13.4350    0.7850 C   0  0  0  0  0  0  0  0  0  0  0  0
   -0.1970  -12.9610    0.1410 C   0  0  0  0  0  0  0  0  0  0  0  0
    1.0390  -13.8900    0.3870 C   0  0  1  0  0  0  0  0  0  0  0  0
    0.8200  -15.2170   -0.4830 C   0  0  0  0  0  0  0  0  0  0  0  0
    1.5930  -16.1880   -0.2220 O   0  0  0  0  0  0  0  0  0  0  0  0
   -0.0740  -15.1680   -1.3800 O   0  0  0  0  0  0  0  0  0  0  0  0
    6.4540  -13.0510   -2.2970 C   0  0  1  0  0  0  0  0  0  0  0  0
    6.7110  -11.5320   -2.4190 C   0  0  0  0  0  0  0  0  0  0  0  0
    6.5100  -13.6490   -3.7500 C   0  0  0  0  0  0  0  0  0  0  0  0
    6.9810  -12.8980   -4.6490 O   0  0  0  0  0  0  0  0  0  0  0  0
    6.0360  -14.8180   -3.8950 O   0  0  0  0  0  0  0  0  0  0  0  0
   10.6228  -11.5953   -2.7921 H   0  0  0  0  0  0  0  0  0  0  0  0
   11.0932  -12.9701   -3.8483 H   0  0  0  0  0  0  0  0  0  0  0  0
    9.3977  -12.3767   -3.8483 H   0  0  0  0  0  0  0  0  0  0  0  0
    7.9510  -12.9384   -0.8044 H   0  0  0  0  0  0  0  0  0  0  0  0
    6.8272  -15.7014   -1.4941 H   0  0  0  0  0  0  0  0  0  0  0  0
    8.0851  -15.3340   -0.2192 H   0  0  0  0  0  0  0  0  0  0  0  0
    5.5150  -15.6421    0.3804 H   0  0  0  0  0  0  0  0  0  0  0  0
    6.6245  -14.4200    1.2005 H   0  0  0  0  0  0  0  0  0  0  0  0
    5.6151  -12.3949    1.7301 H   0  0  0  0  0  0  0  0  0  0  0  0
    6.7148  -12.1218    0.3362 H   0  0  0  0  0  0  0  0  0  0  0  0
    5.0689  -11.4022    0.3362 H   0  0  0  0  0  0  0  0  0  0  0  0
    4.8462  -14.4050   -1.9987 H   0  0  0  0  0  0  0  0  0  0  0  0
    4.0598  -11.4811   -1.6649 H   0  0  0  0  0  0  0  0  0  0  0  0
    3.8935  -12.4768   -3.1719 H   0  0  0  0  0  0  0  0  0  0  0  0
    1.7639  -12.3301   -1.9446 H   0  0  0  0  0  0  0  0  0  0  0  0
    2.4382  -14.0333   -1.9957 H   0  0  0  0  0  0  0  0  0  0  0  0
    2.4201  -11.7459    1.6418 H   0  0  0  0  0  0  0  0  0  0  0  0
    3.3174  -11.1588    0.2007 H   0  0  0  0  0  0  0  0  0  0  0  0
    1.5211  -11.1613    0.2007 H   0  0  0  0  0  0  0  0  0  0  0  0
    3.5493  -14.9452    0.0307 H   0  0  0  0  0  0  0  0  0  0  0  0
    4.2451  -14.9306    2.3233 H   0  0  0  0  0  0  0  0  0  0  0  0
    3.8892  -13.1284    2.4442 H   0  0  0  0  0  0  0  0  0  0  0  0
    2.1521  -14.6574    3.6437 H   0  0  0  0  0  0  0  0  0  0  0  0
   -0.0646  -14.6419    3.6649 H   0  0  0  0  0  0  0  0  0  0  0  0
   -0.7844  -16.2321    1.1714 H   0  0  0  0  0  0  0  0  0  0  0  0
    0.1267  -16.7904    2.6612 H   0  0  0  0  0  0  0  0  0  0  0  0
   -2.6198  -16.1373    4.9564 H   0  0  0  0  0  0  0  0  0  0  0  0
   -1.8747  -17.7590    4.7526 H   0  0  0  0  0  0  0  0  0  0  0  0
   -0.8416  -16.2896    4.7526 H   0  0  0  0  0  0  0  0  0  0  0  0
   -2.5609  -18.6553    3.2353 H   0  0  0  0  0  0  0  0  0  0  0  0
   -3.2796  -17.8896    1.7779 H   0  0  0  0  0  0  0  0  0  0  0  0
   -1.5495  -18.3726    1.7779 H   0  0  0  0  0  0  0  0  0  0  0  0
   -3.2887  -15.6552    1.4848 H   0  0  0  0  0  0  0  0  0  0  0  0
   -3.9807  -15.8439    3.1615 H   0  0  0  0  0  0  0  0  0  0  0  0
   -3.5243  -13.4848    2.5059 H   0  0  0  0  0  0  0  0  0  0  0  0
   -2.6290  -14.0862    3.9922 H   0  0  0  0  0  0  0  0  0  0  0  0
   -1.0839  -12.4527    4.1046 H   0  0  0  0  0  0  0  0  0  0  0  0
   -0.0447  -11.9785    2.7182 H   0  0  0  0  0  0  0  0  0  0  0  0
   -1.7904  -11.5551    2.7182 H   0  0  0  0  0  0  0  0  0  0  0  0
   -1.8081  -14.3835    0.3157 H   0  0  0  0  0  0  0  0  0  0  0  0
   -2.2601  -12.6480    0.6270 H   0  0  0  0  0  0  0  0  0  0  0  0
   -0.3577  -12.8884   -0.9448 H   0  0  0  0  0  0  0  0  0  0  0  0
    0.0454  -11.9979    0.6140 H   0  0  0  0  0  0  0  0  0  0  0  0
    6.7856  -11.0909   -1.4141 H   0  0  0  0  0  0  0  0  0  0  0  0
    7.6507  -11.3618   -2.9649 H   0  0  0  0  0  0  0  0  0  0  0  0
    5.8796  -11.0621   -2.9649 H   0  0  0  0  0  0  0  0  0  0  0  0
  1  2  1  0
  2  3  2  0
  2  4  1  0
  4  5  1  0
  5  6  1  0
  6  7  1  0
  7  8  1  0
  8  9  1  1
  8 10  1  0
 10 11  1  0
 11 12  1  0
 12 13  1  0
 13 14  1  1
 13 15  1  0
 15 16  1  0
 16 17  1  0
 17 18  2  0
 18 19  1  0
 19 20  1  0
 20 21  1  0
 21 22  1  0
 21 23  1  0
 21 24  1  0
 24 25  1  0
 25 26  1  0
 26 27  1  1
 26 28  1  0
 28 29  1  0
 29 30  1  0
 30 31  1  6
 31 32  2  0
 31 33  1  0
 10 34  1  0
 34 35  1  6
 34 36  1  0
 36 37  2  0
 36 38  1  0
 34  5  1  0
 15  8  1  0
 30 18  1  0
 30 13  1  0
 26 19  1  0
  1 39  1  0
  1 40  1  0
  1 41  1  0
  5 42  1  1
  6 43  1  0
  6 44  1  0
  7 45  1  0
  7 46  1  0
  9 47  1  0
  9 48  1  0
  9 49  1  0
 10 50  1  6
 11 51  1  0
 11 52  1  0
 12 53  1  0
 12 54  1  0
 14 55  1  0
 14 56  1  0
 14 57  1  0
 15 58  1  6
 16 59  1  0
 16 60  1  0
 17 61  1  0
 19 62  1  1
 20 63  1  0
 20 64  1  0
 22 65  1  0
 22 66  1  0
 22 67  1  0
 23 68  1  0
 23 69  1  0
 23 70  1  0
 24 71  1  0
 24 72  1  0
 25 73  1  0
 25 74  1  0
 27 75  1  0
 27 76  1  0
 27 77  1  0
 28 78  1  0
 28 79  1  0
 29 80  1  0
 29 81  1  0
 35 82  1  0
 35 83  1  0
 35 84  1  0
M  CHG  2  33  -1  38  -1
M  END
>  <meeko>  (9) 
{"is_sidechain": [false], "free_energy": -7.477, "intermolecular_energy": -9.102, "internal_energy": -0.515}

$$$$
