LIB_DNDVGFIEWOHGAH__M_PUB_ALL__e8__s20260927
     RDKit          3D

 68 73  0  0  0  0  0  0  0  0999 V2000
   -4.6060  -13.0290    1.1750 C   0  0  0  0  0  0  0  0  0  0  0  0
   -3.6290  -12.0000    1.6530 N   0  0  0  0  0  0  0  0  0  0  0  0
   -2.4300  -12.6490    2.3630 C   0  0  0  0  0  0  0  0  0  0  0  0
   -1.4440  -11.5630    2.8490 C   0  0  0  0  0  0  0  0  0  0  0  0
   -1.0690  -10.6480    1.7600 N   0  0  0  0  0  0  0  0  0  0  0  0
   -0.0210  -11.0810    0.9500 C   0  0  0  0  0  0  0  0  0  0  0  0
    0.3360  -10.3590   -0.1850 C   0  0  0  0  0  0  0  0  0  0  0  0
    1.3850  -10.8070   -0.9920 C   0  0  0  0  0  0  0  0  0  0  0  0
    2.0740  -11.9730   -0.6580 C   0  0  0  0  0  0  0  0  0  0  0  0
    3.1680  -12.4590   -1.4840 C   0  0  0  0  0  0  0  0  0  0  0  0
    4.5110  -12.7120   -1.1420 C   0  0  0  0  0  0  0  0  0  0  0  0
    5.2400  -13.1670   -2.1550 N   0  0  0  0  0  0  0  0  0  0  0  0
    4.3700  -13.2560   -3.1980 N   0  0  0  0  0  0  0  0  0  0  0  0
    4.6160  -13.7220   -4.5060 C   0  0  0  0  0  0  0  0  0  0  0  0
    5.9460  -14.2080   -4.9370 C   0  0  0  0  0  0  0  0  0  0  0  0
    6.0630  -15.2770   -5.8320 C   0  0  0  0  0  0  0  0  0  0  0  0
    7.3210  -15.7310   -6.2290 C   0  0  0  0  0  0  0  0  0  0  0  0
    8.4740  -15.1240   -5.7310 C   0  0  0  0  0  0  0  0  0  0  0  0
    8.3830  -14.0580   -4.8300 C   0  0  0  0  0  0  0  0  0  0  0  0
    9.5930  -13.4970   -4.3650 N   0  0  0  0  0  0  0  0  0  0  0  0
   10.2250  -13.7570   -3.1630 C   0  0  0  0  0  0  0  0  0  0  0  0
    9.9030  -14.5970   -2.3310 O   0  0  0  0  0  0  0  0  0  0  0  0
   11.4530  -12.9500   -2.9090 C   0  0  0  0  0  0  0  0  0  0  0  0
   12.4550  -12.8080   -3.8760 C   0  0  0  0  0  0  0  0  0  0  0  0
   13.5890  -12.0420   -3.5980 C   0  0  0  0  0  0  0  0  0  0  0  0
   13.7200  -11.4070   -2.3620 C   0  0  0  0  0  0  0  0  0  0  0  0
   12.7130  -11.5160   -1.3910 C   0  0  0  0  0  0  0  0  0  0  0  0
   12.8520  -10.8400   -0.0490 C   0  0  0  0  0  0  0  0  0  0  0  0
   14.0810  -11.0090    0.5120 F   0  0  0  0  0  0  0  0  0  0  0  0
   11.9570  -11.3140    0.8600 F   0  0  0  0  0  0  0  0  0  0  0  0
   12.6520   -9.4950   -0.1080 F   0  0  0  0  0  0  0  0  0  0  0  0
   11.5790  -12.2950   -1.6760 C   0  0  0  0  0  0  0  0  0  0  0  0
    7.1180  -13.6000   -4.4490 C   0  0  0  0  0  0  0  0  0  0  0  0
    3.6070  -13.7190   -5.3980 C   0  0  0  0  0  0  0  0  0  0  0  0
    2.3010  -13.2200   -4.9070 C   0  0  0  0  0  0  0  0  0  0  0  0
    2.0430  -12.7830   -3.7130 N   0  0  0  0  0  0  0  0  0  0  0  0
    3.0880  -12.8020   -2.8240 C   0  0  0  0  0  0  0  0  0  0  0  0
    1.6440  -12.6310    0.4890 C   0  0  0  0  0  0  0  0  0  0  0  0
    0.6170  -12.2180    1.2840 N   0  0  0  0  0  0  0  0  0  0  0  0
   -2.1880  -10.0100    1.0560 C   0  0  0  0  0  0  0  0  0  0  0  0
   -3.1640  -11.0820    0.5180 C   0  0  0  0  0  0  0  0  0  0  0  0
   -5.0732  -13.5211    2.0408 H   0  0  0  0  0  0  0  0  0  0  0  0
   -5.3826  -12.5425    0.5665 H   0  0  0  0  0  0  0  0  0  0  0  0
   -4.0799  -13.7794    0.5665 H   0  0  0  0  0  0  0  0  0  0  0  0
   -4.1020  -11.4110    2.3490 H   0  0  0  0  0  0  0  0  0  0  0  0
   -2.7891  -13.2265    3.2276 H   0  0  0  0  0  0  0  0  0  0  0  0
   -1.9115  -13.3132    1.6560 H   0  0  0  0  0  0  0  0  0  0  0  0
   -1.9190  -10.9839    3.6546 H   0  0  0  0  0  0  0  0  0  0  0  0
   -0.5323  -12.0616    3.2097 H   0  0  0  0  0  0  0  0  0  0  0  0
   -0.2062   -9.4382   -0.4460 H   0  0  0  0  0  0  0  0  0  0  0  0
    1.6677  -10.2399   -1.8912 H   0  0  0  0  0  0  0  0  0  0  0  0
    4.9171  -12.5485   -0.1329 H   0  0  0  0  0  0  0  0  0  0  0  0
    5.1576  -15.7625   -6.2250 H   0  0  0  0  0  0  0  0  0  0  0  0
    7.4039  -16.5694   -6.9362 H   0  0  0  0  0  0  0  0  0  0  0  0
    9.4625  -15.4865   -6.0494 H   0  0  0  0  0  0  0  0  0  0  0  0
   10.0660  -12.8820   -5.0140 H   0  0  0  0  0  0  0  0  0  0  0  0
   12.3492  -13.2995   -4.8544 H   0  0  0  0  0  0  0  0  0  0  0  0
   14.3807  -11.9388   -4.3547 H   0  0  0  0  0  0  0  0  0  0  0  0
   14.6219  -10.8151   -2.1469 H   0  0  0  0  0  0  0  0  0  0  0  0
   10.7820  -12.3919   -0.9241 H   0  0  0  0  0  0  0  0  0  0  0  0
    7.0373  -12.7497   -3.7558 H   0  0  0  0  0  0  0  0  0  0  0  0
    3.7446  -14.0672   -6.4323 H   0  0  0  0  0  0  0  0  0  0  0  0
    1.4682  -13.2201   -5.6257 H   0  0  0  0  0  0  0  0  0  0  0  0
    2.1716  -13.5526    0.7758 H   0  0  0  0  0  0  0  0  0  0  0  0
   -2.7240   -9.3475    1.7515 H   0  0  0  0  0  0  0  0  0  0  0  0
   -1.7936   -9.4280    0.2100 H   0  0  0  0  0  0  0  0  0  0  0  0
   -4.0385  -10.5850    0.0727 H   0  0  0  0  0  0  0  0  0  0  0  0
   -2.6458  -11.6873   -0.2404 H   0  0  0  0  0  0  0  0  0  0  0  0
  1  2  1  0
  2  3  1  0
  3  4  1  0
  4  5  1  0
  5  6  1  0
  6  7  2  0
  7  8  1  0
  8  9  2  0
  9 10  1  0
 10 11  1  0
 11 12  2  0
 12 13  1  0
 13 14  1  0
 14 15  1  0
 15 16  2  0
 16 17  1  0
 17 18  2  0
 18 19  1  0
 19 20  1  0
 20 21  1  0
 21 22  2  0
 21 23  1  0
 23 24  2  0
 24 25  1  0
 25 26  2  0
 26 27  1  0
 27 28  1  0
 28 29  1  0
 28 30  1  0
 28 31  1  0
 27 32  2  0
 19 33  2  0
 14 34  2  0
 34 35  1  0
 35 36  2  0
 36 37  1  0
  9 38  1  0
 38 39  2  0
  5 40  1  0
 40 41  1  0
 41  2  1  0
 39  6  1  0
 37 10  2  0
 37 13  1  0
 33 15  1  0
 32 23  1  0
  1 42  1  0
  1 43  1  0
  1 44  1  0
  2 45  1  0
  3 46  1  0
  3 47  1  0
  4 48  1  0
  4 49  1  0
  7 50  1  0
  8 51  1  0
 11 52  1  0
 16 53  1  0
 17 54  1  0
 18 55  1  0
 20 56  1  0
 24 57  1  0
 25 58  1  0
 26 59  1  0
 32 60  1  0
 33 61  1  0
 34 62  1  0
 35 63  1  0
 38 64  1  0
 40 65  1  0
 40 66  1  0
 41 67  1  0
 41 68  1  0
M  CHG  1   2   1
M  END
>  <meeko>  (1) 
{"is_sidechain": [false], "free_energy": -9.934, "intermolecular_energy": -13.418, "internal_energy": -0.741}

$$$$
LIB_DNDVGFIEWOHGAH__M_PUB_ALL__e8__s20260927
     RDKit          3D

 68 73  0  0  0  0  0  0  0  0999 V2000
   -2.8330  -16.2850    7.3030 C   0  0  0  0  0  0  0  0  0  0  0  0
   -2.9970  -17.2850    6.2020 N   0  0  0  0  0  0  0  0  0  0  0  0
   -3.8480  -16.7230    5.0510 C   0  0  0  0  0  0  0  0  0  0  0  0
   -4.0030  -17.7790    3.9350 C   0  0  0  0  0  0  0  0  0  0  0  0
   -2.7000  -18.3090    3.5080 N   0  0  0  0  0  0  0  0  0  0  0  0
   -2.0320  -17.5520    2.5470 C   0  0  0  0  0  0  0  0  0  0  0  0
   -2.6590  -16.4640    1.9480 C   0  0  0  0  0  0  0  0  0  0  0  0
   -1.9800  -15.7170    0.9810 C   0  0  0  0  0  0  0  0  0  0  0  0
   -0.6780  -16.0600    0.6210 C   0  0  0  0  0  0  0  0  0  0  0  0
    0.0470  -15.2980   -0.3830 C   0  0  0  0  0  0  0  0  0  0  0  0
   -0.1760  -15.1950   -1.7710 C   0  0  0  0  0  0  0  0  0  0  0  0
    0.6810  -14.3880   -2.3870 N   0  0  0  0  0  0  0  0  0  0  0  0
    1.4820  -13.9080   -1.3960 N   0  0  0  0  0  0  0  0  0  0  0  0
    2.5380  -12.9790   -1.4980 C   0  0  0  0  0  0  0  0  0  0  0  0
    2.9340  -12.3660   -2.7860 C   0  0  0  0  0  0  0  0  0  0  0  0
    2.5980  -11.0410   -3.0830 C   0  0  0  0  0  0  0  0  0  0  0  0
    2.9710  -10.4740   -4.3020 C   0  0  0  0  0  0  0  0  0  0  0  0
    3.6790  -11.2280   -5.2370 C   0  0  0  0  0  0  0  0  0  0  0  0
    4.0210  -12.5570   -4.9670 C   0  0  0  0  0  0  0  0  0  0  0  0
    4.7350  -13.2580   -5.9630 N   0  0  0  0  0  0  0  0  0  0  0  0
    6.0840  -13.5620   -5.9650 C   0  0  0  0  0  0  0  0  0  0  0  0
    6.8810  -13.3670   -5.0540 O   0  0  0  0  0  0  0  0  0  0  0  0
    6.5760  -14.2440   -7.1960 C   0  0  0  0  0  0  0  0  0  0  0  0
    7.0350  -15.5660   -7.1740 C   0  0  0  0  0  0  0  0  0  0  0  0
    7.4860  -16.1670   -8.3500 C   0  0  0  0  0  0  0  0  0  0  0  0
    7.4680  -15.4580   -9.5520 C   0  0  0  0  0  0  0  0  0  0  0  0
    6.9850  -14.1410   -9.5980 C   0  0  0  0  0  0  0  0  0  0  0  0
    6.9710  -13.3650  -10.8930 C   0  0  0  0  0  0  0  0  0  0  0  0
    8.1430  -13.4450  -11.5790 F   0  0  0  0  0  0  0  0  0  0  0  0
    6.7440  -12.0370  -10.6930 F   0  0  0  0  0  0  0  0  0  0  0  0
    6.0050  -13.7860  -11.7550 F   0  0  0  0  0  0  0  0  0  0  0  0
    6.5400  -13.5400   -8.4090 C   0  0  0  0  0  0  0  0  0  0  0  0
    3.6560  -13.1130   -3.7370 C   0  0  0  0  0  0  0  0  0  0  0  0
    3.2170  -12.6420   -0.3850 C   0  0  0  0  0  0  0  0  0  0  0  0
    2.7740  -13.2890    0.8730 C   0  0  0  0  0  0  0  0  0  0  0  0
    1.8100  -14.1480    0.9990 N   0  0  0  0  0  0  0  0  0  0  0  0
    1.1340  -14.4690   -0.1510 C   0  0  0  0  0  0  0  0  0  0  0  0
   -0.1350  -17.1650    1.2670 C   0  0  0  0  0  0  0  0  0  0  0  0
   -0.7820  -17.9150    2.2040 N   0  0  0  0  0  0  0  0  0  0  0  0
   -1.8570  -18.8540    4.5790 C   0  0  0  0  0  0  0  0  0  0  0  0
   -1.6470  -17.7950    5.6860 C   0  0  0  0  0  0  0  0  0  0  0  0
   -2.9163  -16.7930    8.2751 H   0  0  0  0  0  0  0  0  0  0  0  0
   -1.8448  -15.8088    7.2216 H   0  0  0  0  0  0  0  0  0  0  0  0
   -3.6174  -15.5181    7.2216 H   0  0  0  0  0  0  0  0  0  0  0  0
   -3.5060  -18.0940    6.5790 H   0  0  0  0  0  0  0  0  0  0  0  0
   -4.8426  -16.4511    5.4341 H   0  0  0  0  0  0  0  0  0  0  0  0
   -3.3484  -15.8348    4.6368 H   0  0  0  0  0  0  0  0  0  0  0  0
   -4.6200  -18.6083    4.3112 H   0  0  0  0  0  0  0  0  0  0  0  0
   -4.4795  -17.2971    3.0686 H   0  0  0  0  0  0  0  0  0  0  0  0
   -3.6858  -16.1925    2.2344 H   0  0  0  0  0  0  0  0  0  0  0  0
   -2.4738  -14.8577    0.5038 H   0  0  0  0  0  0  0  0  0  0  0  0
   -0.9818  -15.7311   -2.2937 H   0  0  0  0  0  0  0  0  0  0  0  0
    2.0362  -10.4423   -2.3509 H   0  0  0  0  0  0  0  0  0  0  0  0
    2.7060   -9.4301   -4.5258 H   0  0  0  0  0  0  0  0  0  0  0  0
    3.9711  -10.7737   -6.1953 H   0  0  0  0  0  0  0  0  0  0  0  0
    4.1780  -13.6190   -6.7270 H   0  0  0  0  0  0  0  0  0  0  0  0
    7.0403  -16.1310   -6.2302 H   0  0  0  0  0  0  0  0  0  0  0  0
    7.8567  -17.2024   -8.3295 H   0  0  0  0  0  0  0  0  0  0  0  0
    7.8358  -15.9359  -10.4720 H   0  0  0  0  0  0  0  0  0  0  0  0
    6.1598  -12.5080   -8.4291 H   0  0  0  0  0  0  0  0  0  0  0  0
    3.9375  -14.1515   -3.5082 H   0  0  0  0  0  0  0  0  0  0  0  0
    4.0528  -11.9273   -0.4080 H   0  0  0  0  0  0  0  0  0  0  0  0
    3.3159  -13.0137    1.7898 H   0  0  0  0  0  0  0  0  0  0  0  0
    0.8924  -17.4556    1.0026 H   0  0  0  0  0  0  0  0  0  0  0  0
   -2.3463  -19.7392    5.0114 H   0  0  0  0  0  0  0  0  0  0  0  0
   -0.8792  -19.1323    4.1590 H   0  0  0  0  0  0  0  0  0  0  0  0
   -1.0883  -18.2473    6.5187 H   0  0  0  0  0  0  0  0  0  0  0  0
   -1.0828  -16.9487    5.2671 H   0  0  0  0  0  0  0  0  0  0  0  0
  1  2  1  0
  2  3  1  0
  3  4  1  0
  4  5  1  0
  5  6  1  0
  6  7  2  0
  7  8  1  0
  8  9  2  0
  9 10  1  0
 10 11  1  0
 11 12  2  0
 12 13  1  0
 13 14  1  0
 14 15  1  0
 15 16  2  0
 16 17  1  0
 17 18  2  0
 18 19  1  0
 19 20  1  0
 20 21  1  0
 21 22  2  0
 21 23  1  0
 23 24  2  0
 24 25  1  0
 25 26  2  0
 26 27  1  0
 27 28  1  0
 28 29  1  0
 28 30  1  0
 28 31  1  0
 27 32  2  0
 19 33  2  0
 14 34  2  0
 34 35  1  0
 35 36  2  0
 36 37  1  0
  9 38  1  0
 38 39  2  0
  5 40  1  0
 40 41  1  0
 41  2  1  0
 39  6  1  0
 37 10  2  0
 37 13  1  0
 33 15  1  0
 32 23  1  0
  1 42  1  0
  1 43  1  0
  1 44  1  0
  2 45  1  0
  3 46  1  0
  3 47  1  0
  4 48  1  0
  4 49  1  0
  7 50  1  0
  8 51  1  0
 11 52  1  0
 16 53  1  0
 17 54  1  0
 18 55  1  0
 20 56  1  0
 24 57  1  0
 25 58  1  0
 26 59  1  0
 32 60  1  0
 33 61  1  0
 34 62  1  0
 35 63  1  0
 38 64  1  0
 40 65  1  0
 40 66  1  0
 41 67  1  0
 41 68  1  0
M  CHG  1   2   1
M  END
>  <meeko>  (2) 
{"is_sidechain": [false], "free_energy": -9.858, "intermolecular_energy": -12.906, "internal_energy": -1.151}

$$$$
LIB_DNDVGFIEWOHGAH__M_PUB_ALL__e8__s20260927
     RDKit          3D

 68 73  0  0  0  0  0  0  0  0999 V2000
   13.5040  -11.0500   -0.1890 C   0  0  0  0  0  0  0  0  0  0  0  0
   12.9360  -12.2940   -0.7980 N   0  0  0  0  0  0  0  0  0  0  0  0
   12.2810  -13.1940    0.2620 C   0  0  0  0  0  0  0  0  0  0  0  0
   11.7110  -14.4690   -0.3970 C   0  0  0  0  0  0  0  0  0  0  0  0
   10.8290  -14.1440   -1.5280 N   0  0  0  0  0  0  0  0  0  0  0  0
    9.5070  -13.8580   -1.1930 C   0  0  0  0  0  0  0  0  0  0  0  0
    8.6060  -14.8890   -0.9430 C   0  0  0  0  0  0  0  0  0  0  0  0
    7.2810  -14.5880   -0.6140 C   0  0  0  0  0  0  0  0  0  0  0  0
    6.8660  -13.2590   -0.5340 C   0  0  0  0  0  0  0  0  0  0  0  0
    5.4920  -12.9240   -0.1950 C   0  0  0  0  0  0  0  0  0  0  0  0
    4.8860  -12.7810    1.0700 C   0  0  0  0  0  0  0  0  0  0  0  0
    3.6010  -12.4500    1.0070 N   0  0  0  0  0  0  0  0  0  0  0  0
    3.3340  -12.3350   -0.3230 N   0  0  0  0  0  0  0  0  0  0  0  0
    2.1240  -11.9640   -0.9440 C   0  0  0  0  0  0  0  0  0  0  0  0
    0.9070  -11.6300   -0.1720 C   0  0  0  0  0  0  0  0  0  0  0  0
    0.4180  -10.3190   -0.1360 C   0  0  0  0  0  0  0  0  0  0  0  0
   -0.7280  -10.0120    0.5980 C   0  0  0  0  0  0  0  0  0  0  0  0
   -1.3920  -11.0120    1.3090 C   0  0  0  0  0  0  0  0  0  0  0  0
   -0.9200  -12.3290    1.2940 C   0  0  0  0  0  0  0  0  0  0  0  0
   -1.6430  -13.2850    2.0400 N   0  0  0  0  0  0  0  0  0  0  0  0
   -2.8790  -13.8230    1.7300 C   0  0  0  0  0  0  0  0  0  0  0  0
   -3.5200  -13.6430    0.7010 O   0  0  0  0  0  0  0  0  0  0  0  0
   -3.4350  -14.7550    2.7520 C   0  0  0  0  0  0  0  0  0  0  0  0
   -2.7830  -15.9440    3.0990 C   0  0  0  0  0  0  0  0  0  0  0  0
   -3.3370  -16.7880    4.0620 C   0  0  0  0  0  0  0  0  0  0  0  0
   -4.5350  -16.4440    4.6900 C   0  0  0  0  0  0  0  0  0  0  0  0
   -5.1880  -15.2420    4.3760 C   0  0  0  0  0  0  0  0  0  0  0  0
   -6.4880  -14.8670    5.0450 C   0  0  0  0  0  0  0  0  0  0  0  0
   -7.5670  -14.9770    4.2210 F   0  0  0  0  0  0  0  0  0  0  0  0
   -6.4850  -13.5800    5.4880 F   0  0  0  0  0  0  0  0  0  0  0  0
   -6.7690  -15.6380    6.1310 F   0  0  0  0  0  0  0  0  0  0  0  0
   -4.6280  -14.4020    3.3990 C   0  0  0  0  0  0  0  0  0  0  0  0
    0.2200  -12.6290    0.5430 C   0  0  0  0  0  0  0  0  0  0  0  0
    2.0710  -11.9200   -2.2890 C   0  0  0  0  0  0  0  0  0  0  0  0
    3.3210  -12.2660   -3.0060 C   0  0  0  0  0  0  0  0  0  0  0  0
    4.4480  -12.6130   -2.4650 N   0  0  0  0  0  0  0  0  0  0  0  0
    4.4740  -12.6460   -1.0930 C   0  0  0  0  0  0  0  0  0  0  0  0
    7.8330  -12.2980   -0.8060 C   0  0  0  0  0  0  0  0  0  0  0  0
    9.1260  -12.5690   -1.1400 N   0  0  0  0  0  0  0  0  0  0  0  0
   11.4180  -13.2850   -2.5620 C   0  0  0  0  0  0  0  0  0  0  0  0
   11.9530  -11.9780   -1.9320 C   0  0  0  0  0  0  0  0  0  0  0  0
   13.4679  -11.1291    0.9076 H   0  0  0  0  0  0  0  0  0  0  0  0
   14.5477  -10.9264   -0.5135 H   0  0  0  0  0  0  0  0  0  0  0  0
   12.9137  -10.1804   -0.5135 H   0  0  0  0  0  0  0  0  0  0  0  0
   13.7100  -12.8310   -1.2070 H   0  0  0  0  0  0  0  0  0  0  0  0
   13.0337  -13.4784    1.0120 H   0  0  0  0  0  0  0  0  0  0  0  0
   11.4602  -12.6418    0.7431 H   0  0  0  0  0  0  0  0  0  0  0  0
   12.5453  -15.0868   -0.7606 H   0  0  0  0  0  0  0  0  0  0  0  0
   11.1204  -15.0116    0.3559 H   0  0  0  0  0  0  0  0  0  0  0  0
    8.9353  -15.9368   -1.0041 H   0  0  0  0  0  0  0  0  0  0  0  0
    6.5653  -15.4000   -0.4181 H   0  0  0  0  0  0  0  0  0  0  0  0
    5.4250  -12.9292    2.0174 H   0  0  0  0  0  0  0  0  0  0  0  0
    0.9408   -9.5255   -0.6901 H   0  0  0  0  0  0  0  0  0  0  0  0
   -1.1086   -8.9801    0.6162 H   0  0  0  0  0  0  0  0  0  0  0  0
   -2.2945  -10.7628    1.8864 H   0  0  0  0  0  0  0  0  0  0  0  0
   -1.1720  -13.6480    2.8580 H   0  0  0  0  0  0  0  0  0  0  0  0
   -1.8338  -16.2130    2.6125 H   0  0  0  0  0  0  0  0  0  0  0  0
   -2.8284  -17.7267    4.3269 H   0  0  0  0  0  0  0  0  0  0  0  0
   -4.9717  -17.1216    5.4384 H   0  0  0  0  0  0  0  0  0  0  0  0
   -5.1301  -13.4584    3.1391 H   0  0  0  0  0  0  0  0  0  0  0  0
    0.5872  -13.6654    0.5101 H   0  0  0  0  0  0  0  0  0  0  0  0
    1.1515  -11.6428   -2.8253 H   0  0  0  0  0  0  0  0  0  0  0  0
    3.2903  -12.2245   -4.1048 H   0  0  0  0  0  0  0  0  0  0  0  0
    7.5324  -11.2415   -0.7473 H   0  0  0  0  0  0  0  0  0  0  0  0
   12.2472  -13.8193   -3.0488 H   0  0  0  0  0  0  0  0  0  0  0  0
   10.6446  -13.0349   -3.3032 H   0  0  0  0  0  0  0  0  0  0  0  0
   12.4682  -11.3879   -2.7042 H   0  0  0  0  0  0  0  0  0  0  0  0
   11.1068  -11.4073   -1.5218 H   0  0  0  0  0  0  0  0  0  0  0  0
  1  2  1  0
  2  3  1  0
  3  4  1  0
  4  5  1  0
  5  6  1  0
  6  7  2  0
  7  8  1  0
  8  9  2  0
  9 10  1  0
 10 11  1  0
 11 12  2  0
 12 13  1  0
 13 14  1  0
 14 15  1  0
 15 16  2  0
 16 17  1  0
 17 18  2  0
 18 19  1  0
 19 20  1  0
 20 21  1  0
 21 22  2  0
 21 23  1  0
 23 24  2  0
 24 25  1  0
 25 26  2  0
 26 27  1  0
 27 28  1  0
 28 29  1  0
 28 30  1  0
 28 31  1  0
 27 32  2  0
 19 33  2  0
 14 34  2  0
 34 35  1  0
 35 36  2  0
 36 37  1  0
  9 38  1  0
 38 39  2  0
  5 40  1  0
 40 41  1  0
 41  2  1  0
 39  6  1  0
 37 10  2  0
 37 13  1  0
 33 15  1  0
 32 23  1  0
  1 42  1  0
  1 43  1  0
  1 44  1  0
  2 45  1  0
  3 46  1  0
  3 47  1  0
  4 48  1  0
  4 49  1  0
  7 50  1  0
  8 51  1  0
 11 52  1  0
 16 53  1  0
 17 54  1  0
 18 55  1  0
 20 56  1  0
 24 57  1  0
 25 58  1  0
 26 59  1  0
 32 60  1  0
 33 61  1  0
 34 62  1  0
 35 63  1  0
 38 64  1  0
 40 65  1  0
 40 66  1  0
 41 67  1  0
 41 68  1  0
M  CHG  1   2   1
M  END
>  <meeko>  (3) 
{"is_sidechain": [false], "free_energy": -9.775, "intermolecular_energy": -13.13, "internal_energy": -0.815}

$$$$
LIB_DNDVGFIEWOHGAH__M_PUB_ALL__e8__s20260927
     RDKit          3D

 68 73  0  0  0  0  0  0  0  0999 V2000
    0.4200  -13.6920    1.8300 C   0  0  0  0  0  0  0  0  0  0  0  0
   -0.9550  -13.2050    1.4940 N   0  0  0  0  0  0  0  0  0  0  0  0
   -1.8590  -14.3520    1.0160 C   0  0  0  0  0  0  0  0  0  0  0  0
   -3.2670  -13.8170    0.6720 C   0  0  0  0  0  0  0  0  0  0  0  0
   -3.8330  -13.0360    1.7820 N   0  0  0  0  0  0  0  0  0  0  0  0
   -4.4770  -13.7790    2.7690 C   0  0  0  0  0  0  0  0  0  0  0  0
   -5.6860  -13.3430    3.3020 C   0  0  0  0  0  0  0  0  0  0  0  0
   -6.3190  -14.0950    4.2960 C   0  0  0  0  0  0  0  0  0  0  0  0
   -5.7400  -15.2800    4.7490 C   0  0  0  0  0  0  0  0  0  0  0  0
   -6.3800  -16.0780    5.7830 C   0  0  0  0  0  0  0  0  0  0  0  0
   -5.8480  -16.5930    6.9820 C   0  0  0  0  0  0  0  0  0  0  0  0
   -6.7310  -17.2730    7.7050 N   0  0  0  0  0  0  0  0  0  0  0  0
   -7.8940  -17.1940    7.0000 N   0  0  0  0  0  0  0  0  0  0  0  0
   -9.1600  -17.7140    7.3400 C   0  0  0  0  0  0  0  0  0  0  0  0
   -9.3990  -18.4630    8.5940 C   0  0  0  0  0  0  0  0  0  0  0  0
   -9.1330  -17.8810    9.8390 C   0  0  0  0  0  0  0  0  0  0  0  0
   -9.3570  -18.5970   11.0150 C   0  0  0  0  0  0  0  0  0  0  0  0
   -9.8440  -19.9040   10.9570 C   0  0  0  0  0  0  0  0  0  0  0  0
  -10.1110  -20.5090    9.7250 C   0  0  0  0  0  0  0  0  0  0  0  0
  -10.5980  -21.8340    9.7460 N   0  0  0  0  0  0  0  0  0  0  0  0
  -11.7640  -22.3040    9.1670 C   0  0  0  0  0  0  0  0  0  0  0  0
  -12.5290  -21.6750    8.4450 O   0  0  0  0  0  0  0  0  0  0  0  0
  -12.0620  -23.7410    9.4260 C   0  0  0  0  0  0  0  0  0  0  0  0
  -12.0900  -24.6860    8.3940 C   0  0  0  0  0  0  0  0  0  0  0  0
  -12.3720  -26.0230    8.6790 C   0  0  0  0  0  0  0  0  0  0  0  0
  -12.6140  -26.4230    9.9950 C   0  0  0  0  0  0  0  0  0  0  0  0
  -12.5620  -25.4940   11.0460 C   0  0  0  0  0  0  0  0  0  0  0  0
  -12.8320  -25.9180   12.4690 C   0  0  0  0  0  0  0  0  0  0  0  0
  -13.1220  -27.2430   12.5890 F   0  0  0  0  0  0  0  0  0  0  0  0
  -13.8880  -25.2530   13.0120 F   0  0  0  0  0  0  0  0  0  0  0  0
  -11.7780  -25.6920   13.3000 F   0  0  0  0  0  0  0  0  0  0  0  0
  -12.2860  -24.1500   10.7490 C   0  0  0  0  0  0  0  0  0  0  0  0
   -9.8980  -19.7790    8.5520 C   0  0  0  0  0  0  0  0  0  0  0  0
  -10.1880  -17.5290    6.4900 C   0  0  0  0  0  0  0  0  0  0  0  0
   -9.8850  -16.7720    5.2520 C   0  0  0  0  0  0  0  0  0  0  0  0
   -8.7330  -16.2840    4.9090 N   0  0  0  0  0  0  0  0  0  0  0  0
   -7.7050  -16.4840    5.7960 C   0  0  0  0  0  0  0  0  0  0  0  0
   -4.5300  -15.6340    4.1630 C   0  0  0  0  0  0  0  0  0  0  0  0
   -3.8900  -14.9100    3.2010 N   0  0  0  0  0  0  0  0  0  0  0  0
   -2.9990  -11.9310    2.2680 C   0  0  0  0  0  0  0  0  0  0  0  0
   -1.5980  -12.4520    2.6650 C   0  0  0  0  0  0  0  0  0  0  0  0
    0.5374  -13.7336    2.9229 H   0  0  0  0  0  0  0  0  0  0  0  0
    0.5667  -14.6968    1.4070 H   0  0  0  0  0  0  0  0  0  0  0  0
    1.1664  -13.0035    1.4070 H   0  0  0  0  0  0  0  0  0  0  0  0
   -0.8770  -12.5430    0.7120 H   0  0  0  0  0  0  0  0  0  0  0  0
   -1.4172  -14.8132    0.1204 H   0  0  0  0  0  0  0  0  0  0  0  0
   -1.9461  -15.0979    1.8198 H   0  0  0  0  0  0  0  0  0  0  0  0
   -3.1976  -13.1745   -0.2181 H   0  0  0  0  0  0  0  0  0  0  0  0
   -3.9264  -14.6771    0.4838 H   0  0  0  0  0  0  0  0  0  0  0  0
   -6.1425  -12.4091    2.9422 H   0  0  0  0  0  0  0  0  0  0  0  0
   -7.2739  -13.7520    4.7209 H   0  0  0  0  0  0  0  0  0  0  0  0
   -4.8022  -16.4461    7.2897 H   0  0  0  0  0  0  0  0  0  0  0  0
   -8.7450  -16.8530    9.8903 H   0  0  0  0  0  0  0  0  0  0  0  0
   -9.1496  -18.1310   11.9896 H   0  0  0  0  0  0  0  0  0  0  0  0
  -10.0192  -20.4626   11.8883 H   0  0  0  0  0  0  0  0  0  0  0  0
   -9.9950  -22.5140   10.1890 H   0  0  0  0  0  0  0  0  0  0  0  0
  -11.8897  -24.3750    7.3581 H   0  0  0  0  0  0  0  0  0  0  0  0
  -12.4037  -26.7629    7.8656 H   0  0  0  0  0  0  0  0  0  0  0  0
  -12.8476  -27.4762   10.2100 H   0  0  0  0  0  0  0  0  0  0  0  0
  -12.2450  -23.4101   11.5619 H   0  0  0  0  0  0  0  0  0  0  0  0
  -10.1241  -20.2406    7.5795 H   0  0  0  0  0  0  0  0  0  0  0  0
  -11.1950  -17.9174    6.7022 H   0  0  0  0  0  0  0  0  0  0  0  0
  -10.7199  -16.6077    4.5549 H   0  0  0  0  0  0  0  0  0  0  0  0
   -4.0540  -16.5666    4.5002 H   0  0  0  0  0  0  0  0  0  0  0  0
   -2.8945  -11.1780    1.4729 H   0  0  0  0  0  0  0  0  0  0  0  0
   -3.4778  -11.4821    3.1507 H   0  0  0  0  0  0  0  0  0  0  0  0
   -0.9598  -11.6000    2.9420 H   0  0  0  0  0  0  0  0  0  0  0  0
   -1.7018  -13.1399    3.5171 H   0  0  0  0  0  0  0  0  0  0  0  0
  1  2  1  0
  2  3  1  0
  3  4  1  0
  4  5  1  0
  5  6  1  0
  6  7  2  0
  7  8  1  0
  8  9  2  0
  9 10  1  0
 10 11  1  0
 11 12  2  0
 12 13  1  0
 13 14  1  0
 14 15  1  0
 15 16  2  0
 16 17  1  0
 17 18  2  0
 18 19  1  0
 19 20  1  0
 20 21  1  0
 21 22  2  0
 21 23  1  0
 23 24  2  0
 24 25  1  0
 25 26  2  0
 26 27  1  0
 27 28  1  0
 28 29  1  0
 28 30  1  0
 28 31  1  0
 27 32  2  0
 19 33  2  0
 14 34  2  0
 34 35  1  0
 35 36  2  0
 36 37  1  0
  9 38  1  0
 38 39  2  0
  5 40  1  0
 40 41  1  0
 41  2  1  0
 39  6  1  0
 37 10  2  0
 37 13  1  0
 33 15  1  0
 32 23  1  0
  1 42  1  0
  1 43  1  0
  1 44  1  0
  2 45  1  0
  3 46  1  0
  3 47  1  0
  4 48  1  0
  4 49  1  0
  7 50  1  0
  8 51  1  0
 11 52  1  0
 16 53  1  0
 17 54  1  0
 18 55  1  0
 20 56  1  0
 24 57  1  0
 25 58  1  0
 26 59  1  0
 32 60  1  0
 33 61  1  0
 34 62  1  0
 35 63  1  0
 38 64  1  0
 40 65  1  0
 40 66  1  0
 41 67  1  0
 41 68  1  0
M  CHG  1   2   1
M  END
>  <meeko>  (4) 
{"is_sidechain": [false], "free_energy": -9.677, "intermolecular_energy": -13.345, "internal_energy": -0.467}

$$$$
LIB_DNDVGFIEWOHGAH__M_PUB_ALL__e8__s20260927
     RDKit          3D

 68 73  0  0  0  0  0  0  0  0999 V2000
   13.3130  -12.2880   -3.9000 C   0  0  0  0  0  0  0  0  0  0  0  0
   13.2010  -12.6730   -2.4580 N   0  0  0  0  0  0  0  0  0  0  0  0
   12.6930  -11.5050   -1.5990 C   0  0  0  0  0  0  0  0  0  0  0  0
   12.5940  -11.9320   -0.1180 C   0  0  0  0  0  0  0  0  0  0  0  0
   11.8130  -13.1690    0.0370 N   0  0  0  0  0  0  0  0  0  0  0  0
   10.4320  -12.9990    0.1080 C   0  0  0  0  0  0  0  0  0  0  0  0
    9.8900  -11.9310    0.8160 C   0  0  0  0  0  0  0  0  0  0  0  0
    8.5030  -11.7750    0.8850 C   0  0  0  0  0  0  0  0  0  0  0  0
    7.6660  -12.6870    0.2430 C   0  0  0  0  0  0  0  0  0  0  0  0
    6.2190  -12.5450    0.3020 C   0  0  0  0  0  0  0  0  0  0  0  0
    5.3480  -12.6560    1.4040 C   0  0  0  0  0  0  0  0  0  0  0  0
    4.0730  -12.4500    1.0940 N   0  0  0  0  0  0  0  0  0  0  0  0
    4.0790  -12.1620   -0.2370 N   0  0  0  0  0  0  0  0  0  0  0  0
    2.9890  -11.8240   -1.0640 C   0  0  0  0  0  0  0  0  0  0  0  0
    1.6030  -11.7330   -0.5520 C   0  0  0  0  0  0  0  0  0  0  0  0
    0.9140  -10.5150   -0.5600 C   0  0  0  0  0  0  0  0  0  0  0  0
   -0.3900  -10.4380   -0.0710 C   0  0  0  0  0  0  0  0  0  0  0  0
   -1.0160  -11.5770    0.4360 C   0  0  0  0  0  0  0  0  0  0  0  0
   -0.3460  -12.8050    0.4610 C   0  0  0  0  0  0  0  0  0  0  0  0
   -1.0420  -13.9120    0.9920 N   0  0  0  0  0  0  0  0  0  0  0  0
   -1.4950  -14.0680    2.2900 C   0  0  0  0  0  0  0  0  0  0  0  0
   -1.4630  -13.2300    3.1840 O   0  0  0  0  0  0  0  0  0  0  0  0
   -2.1290  -15.3860    2.5830 C   0  0  0  0  0  0  0  0  0  0  0  0
   -1.6840  -16.5680    1.9790 C   0  0  0  0  0  0  0  0  0  0  0  0
   -2.3050  -17.7810    2.2810 C   0  0  0  0  0  0  0  0  0  0  0  0
   -3.3600  -17.8210    3.1950 C   0  0  0  0  0  0  0  0  0  0  0  0
   -3.8000  -16.6500    3.8300 C   0  0  0  0  0  0  0  0  0  0  0  0
   -4.9450  -16.6840    4.8120 C   0  0  0  0  0  0  0  0  0  0  0  0
   -5.7190  -17.7980    4.6950 F   0  0  0  0  0  0  0  0  0  0  0  0
   -5.7870  -15.6250    4.6560 F   0  0  0  0  0  0  0  0  0  0  0  0
   -4.5350  -16.6500    6.1100 F   0  0  0  0  0  0  0  0  0  0  0  0
   -3.1750  -15.4320    3.5140 C   0  0  0  0  0  0  0  0  0  0  0  0
    0.9550  -12.8750   -0.0450 C   0  0  0  0  0  0  0  0  0  0  0  0
    3.2140  -11.5820   -2.3700 C   0  0  0  0  0  0  0  0  0  0  0  0
    4.6210  -11.6900   -2.8220 C   0  0  0  0  0  0  0  0  0  0  0  0
    5.6450  -12.0010   -2.0880 N   0  0  0  0  0  0  0  0  0  0  0  0
    5.3860  -12.2380   -0.7610 C   0  0  0  0  0  0  0  0  0  0  0  0
    8.2950  -13.7250   -0.4340 C   0  0  0  0  0  0  0  0  0  0  0  0
    9.6450  -13.9020   -0.5050 N   0  0  0  0  0  0  0  0  0  0  0  0
   12.2680  -14.3090   -0.7690 C   0  0  0  0  0  0  0  0  0  0  0  0
   12.3270  -13.9180   -2.2640 C   0  0  0  0  0  0  0  0  0  0  0  0
   13.6195  -11.2343   -3.9754 H   0  0  0  0  0  0  0  0  0  0  0  0
   14.0633  -12.9243   -4.3922 H   0  0  0  0  0  0  0  0  0  0  0  0
   12.3385  -12.4225   -4.3922 H   0  0  0  0  0  0  0  0  0  0  0  0
   14.1420  -12.9050   -2.1160 H   0  0  0  0  0  0  0  0  0  0  0  0
   13.3911  -10.6594   -1.6870 H   0  0  0  0  0  0  0  0  0  0  0  0
   11.6948  -11.2081   -1.9532 H   0  0  0  0  0  0  0  0  0  0  0  0
   13.6081  -12.0984    0.2743 H   0  0  0  0  0  0  0  0  0  0  0  0
   12.0847  -11.1311    0.4381 H   0  0  0  0  0  0  0  0  0  0  0  0
   10.5516  -11.2112    1.3202 H   0  0  0  0  0  0  0  0  0  0  0  0
    8.0715  -10.9328    1.4458 H   0  0  0  0  0  0  0  0  0  0  0  0
    5.6908  -12.8906    2.4226 H   0  0  0  0  0  0  0  0  0  0  0  0
    1.4039   -9.6126   -0.9544 H   0  0  0  0  0  0  0  0  0  0  0  0
   -0.9258   -9.4774   -0.0851 H   0  0  0  0  0  0  0  0  0  0  0  0
   -2.0448  -11.5091    0.8193 H   0  0  0  0  0  0  0  0  0  0  0  0
   -1.2770  -14.6390    0.3300 H   0  0  0  0  0  0  0  0  0  0  0  0
   -0.8458  -16.5408    1.2672 H   0  0  0  0  0  0  0  0  0  0  0  0
   -1.9625  -18.7079    1.7977 H   0  0  0  0  0  0  0  0  0  0  0  0
   -3.8506  -18.7797    3.4192 H   0  0  0  0  0  0  0  0  0  0  0  0
   -3.5103  -14.5052    4.0025 H   0  0  0  0  0  0  0  0  0  0  0  0
    1.4822  -13.8404   -0.0470 H   0  0  0  0  0  0  0  0  0  0  0  0
    2.3998  -11.3192   -3.0613 H   0  0  0  0  0  0  0  0  0  0  0  0
    4.8169  -11.4864   -3.8851 H   0  0  0  0  0  0  0  0  0  0  0  0
    7.6570  -14.4574   -0.9503 H   0  0  0  0  0  0  0  0  0  0  0  0
   13.2703  -14.6139   -0.4336 H   0  0  0  0  0  0  0  0  0  0  0  0
   11.5601  -15.1416   -0.6440 H   0  0  0  0  0  0  0  0  0  0  0  0
   12.7526  -14.7528   -2.8402 H   0  0  0  0  0  0  0  0  0  0  0  0
   11.3083  -13.6964   -2.6148 H   0  0  0  0  0  0  0  0  0  0  0  0
  1  2  1  0
  2  3  1  0
  3  4  1  0
  4  5  1  0
  5  6  1  0
  6  7  2  0
  7  8  1  0
  8  9  2  0
  9 10  1  0
 10 11  1  0
 11 12  2  0
 12 13  1  0
 13 14  1  0
 14 15  1  0
 15 16  2  0
 16 17  1  0
 17 18  2  0
 18 19  1  0
 19 20  1  0
 20 21  1  0
 21 22  2  0
 21 23  1  0
 23 24  2  0
 24 25  1  0
 25 26  2  0
 26 27  1  0
 27 28  1  0
 28 29  1  0
 28 30  1  0
 28 31  1  0
 27 32  2  0
 19 33  2  0
 14 34  2  0
 34 35  1  0
 35 36  2  0
 36 37  1  0
  9 38  1  0
 38 39  2  0
  5 40  1  0
 40 41  1  0
 41  2  1  0
 39  6  1  0
 37 10  2  0
 37 13  1  0
 33 15  1  0
 32 23  1  0
  1 42  1  0
  1 43  1  0
  1 44  1  0
  2 45  1  0
  3 46  1  0
  3 47  1  0
  4 48  1  0
  4 49  1  0
  7 50  1  0
  8 51  1  0
 11 52  1  0
 16 53  1  0
 17 54  1  0
 18 55  1  0
 20 56  1  0
 24 57  1  0
 25 58  1  0
 26 59  1  0
 32 60  1  0
 33 61  1  0
 34 62  1  0
 35 63  1  0
 38 64  1  0
 40 65  1  0
 40 66  1  0
 41 67  1  0
 41 68  1  0
M  CHG  1   2   1
M  END
>  <meeko>  (5) 
{"is_sidechain": [false], "free_energy": -9.564, "intermolecular_energy": -12.749, "internal_energy": -0.91}

$$$$
LIB_DNDVGFIEWOHGAH__M_PUB_ALL__e8__s20260927
     RDKit          3D

 68 73  0  0  0  0  0  0  0  0999 V2000
   10.4210  -10.7710  -11.1760 C   0  0  0  0  0  0  0  0  0  0  0  0
    9.5140  -11.9460  -11.3710 N   0  0  0  0  0  0  0  0  0  0  0  0
    9.9520  -13.1450  -10.5150 C   0  0  0  0  0  0  0  0  0  0  0  0
    9.0010  -14.3410  -10.7430 C   0  0  0  0  0  0  0  0  0  0  0  0
    7.5940  -13.9560  -10.5550 N   0  0  0  0  0  0  0  0  0  0  0  0
    7.1370  -13.9860   -9.2390 C   0  0  0  0  0  0  0  0  0  0  0  0
    6.2040  -13.0530   -8.7970 C   0  0  0  0  0  0  0  0  0  0  0  0
    5.7570  -13.0900   -7.4730 C   0  0  0  0  0  0  0  0  0  0  0  0
    6.2460  -14.0610   -6.5990 C   0  0  0  0  0  0  0  0  0  0  0  0
    5.7970  -14.1180   -5.2170 C   0  0  0  0  0  0  0  0  0  0  0  0
    4.9450  -15.0450   -4.5840 C   0  0  0  0  0  0  0  0  0  0  0  0
    4.7590  -14.7970   -3.2920 N   0  0  0  0  0  0  0  0  0  0  0  0
    5.5220  -13.7000   -3.0330 N   0  0  0  0  0  0  0  0  0  0  0  0
    5.7180  -13.0400   -1.8020 C   0  0  0  0  0  0  0  0  0  0  0  0
    5.0720  -13.4920   -0.5490 C   0  0  0  0  0  0  0  0  0  0  0  0
    5.7130  -14.4000    0.3010 C   0  0  0  0  0  0  0  0  0  0  0  0
    5.0940  -14.8230    1.4770 C   0  0  0  0  0  0  0  0  0  0  0  0
    3.8260  -14.3470    1.8120 C   0  0  0  0  0  0  0  0  0  0  0  0
    3.1620  -13.4440    0.9750 C   0  0  0  0  0  0  0  0  0  0  0  0
    1.8800  -13.0100    1.3780 N   0  0  0  0  0  0  0  0  0  0  0  0
    0.6870  -13.6970    1.2460 C   0  0  0  0  0  0  0  0  0  0  0  0
    0.5430  -14.8480    0.8500 O   0  0  0  0  0  0  0  0  0  0  0  0
   -0.5240  -12.9490    1.6900 C   0  0  0  0  0  0  0  0  0  0  0  0
   -1.7170  -13.6050    2.0170 C   0  0  0  0  0  0  0  0  0  0  0  0
   -2.8280  -12.8670    2.4290 C   0  0  0  0  0  0  0  0  0  0  0  0
   -2.7480  -11.4760    2.5280 C   0  0  0  0  0  0  0  0  0  0  0  0
   -1.5520  -10.8050    2.2310 C   0  0  0  0  0  0  0  0  0  0  0  0
   -1.4620   -9.3020    2.3280 C   0  0  0  0  0  0  0  0  0  0  0  0
   -0.3250   -8.7960    1.7750 F   0  0  0  0  0  0  0  0  0  0  0  0
   -1.4750   -8.8690    3.6190 F   0  0  0  0  0  0  0  0  0  0  0  0
   -2.4930   -8.6650    1.7080 F   0  0  0  0  0  0  0  0  0  0  0  0
   -0.4410  -11.5550    1.8100 C   0  0  0  0  0  0  0  0  0  0  0  0
    3.7960  -13.0140   -0.1940 C   0  0  0  0  0  0  0  0  0  0  0  0
    6.5150  -11.9560   -1.7660 C   0  0  0  0  0  0  0  0  0  0  0  0
    7.1320  -11.5520   -3.0510 C   0  0  0  0  0  0  0  0  0  0  0  0
    6.9700  -12.1360   -4.1990 N   0  0  0  0  0  0  0  0  0  0  0  0
    6.1560  -13.2400   -4.2060 C   0  0  0  0  0  0  0  0  0  0  0  0
    7.1790  -14.9460   -7.1260 C   0  0  0  0  0  0  0  0  0  0  0  0
    7.6360  -14.9210   -8.4100 N   0  0  0  0  0  0  0  0  0  0  0  0
    7.1380  -12.8130  -11.3550 C   0  0  0  0  0  0  0  0  0  0  0  0
    8.0480  -11.5870  -11.1050 C   0  0  0  0  0  0  0  0  0  0  0  0
   10.5606  -10.5902  -10.1000 H   0  0  0  0  0  0  0  0  0  0  0  0
   11.3954  -10.9786  -11.6424 H   0  0  0  0  0  0  0  0  0  0  0  0
    9.9734   -9.8809  -11.6424 H   0  0  0  0  0  0  0  0  0  0  0  0
    9.5830  -12.2420  -12.3530 H   0  0  0  0  0  0  0  0  0  0  0  0
   10.9752  -13.4363  -10.7946 H   0  0  0  0  0  0  0  0  0  0  0  0
    9.9192  -12.8584   -9.4535 H   0  0  0  0  0  0  0  0  0  0  0  0
    9.1353  -14.7136  -11.7692 H   0  0  0  0  0  0  0  0  0  0  0  0
    9.2460  -15.1212  -10.0072 H   0  0  0  0  0  0  0  0  0  0  0  0
    5.8192  -12.2883   -9.4877 H   0  0  0  0  0  0  0  0  0  0  0  0
    5.0198  -12.3536   -7.1205 H   0  0  0  0  0  0  0  0  0  0  0  0
    4.4790  -15.8920   -5.1088 H   0  0  0  0  0  0  0  0  0  0  0  0
    6.7109  -14.7824    0.0402 H   0  0  0  0  0  0  0  0  0  0  0  0
    5.6067  -15.5336    2.1420 H   0  0  0  0  0  0  0  0  0  0  0  0
    3.3446  -14.6845    2.7417 H   0  0  0  0  0  0  0  0  0  0  0  0
    1.8520  -12.1230    1.8620 H   0  0  0  0  0  0  0  0  0  0  0  0
   -1.7787  -14.7012    1.9493 H   0  0  0  0  0  0  0  0  0  0  0  0
   -3.7682  -13.3818    2.6761 H   0  0  0  0  0  0  0  0  0  0  0  0
   -3.6315  -10.9008    2.8420 H   0  0  0  0  0  0  0  0  0  0  0  0
    0.5032  -11.0432    1.5722 H   0  0  0  0  0  0  0  0  0  0  0  0
    3.2892  -12.2894   -0.8483 H   0  0  0  0  0  0  0  0  0  0  0  0
    6.6981  -11.4008   -0.8342 H   0  0  0  0  0  0  0  0  0  0  0  0
    7.7914  -10.6718   -3.0303 H   0  0  0  0  0  0  0  0  0  0  0  0
    7.5779  -15.7236   -6.4580 H   0  0  0  0  0  0  0  0  0  0  0  0
    7.1727  -13.0795  -12.4217 H   0  0  0  0  0  0  0  0  0  0  0  0
    6.1079  -12.5600  -11.0637 H   0  0  0  0  0  0  0  0  0  0  0  0
    7.7474  -10.7696  -11.7770 H   0  0  0  0  0  0  0  0  0  0  0  0
    7.9425  -11.2726  -10.0562 H   0  0  0  0  0  0  0  0  0  0  0  0
  1  2  1  0
  2  3  1  0
  3  4  1  0
  4  5  1  0
  5  6  1  0
  6  7  2  0
  7  8  1  0
  8  9  2  0
  9 10  1  0
 10 11  1  0
 11 12  2  0
 12 13  1  0
 13 14  1  0
 14 15  1  0
 15 16  2  0
 16 17  1  0
 17 18  2  0
 18 19  1  0
 19 20  1  0
 20 21  1  0
 21 22  2  0
 21 23  1  0
 23 24  2  0
 24 25  1  0
 25 26  2  0
 26 27  1  0
 27 28  1  0
 28 29  1  0
 28 30  1  0
 28 31  1  0
 27 32  2  0
 19 33  2  0
 14 34  2  0
 34 35  1  0
 35 36  2  0
 36 37  1  0
  9 38  1  0
 38 39  2  0
  5 40  1  0
 40 41  1  0
 41  2  1  0
 39  6  1  0
 37 10  2  0
 37 13  1  0
 33 15  1  0
 32 23  1  0
  1 42  1  0
  1 43  1  0
  1 44  1  0
  2 45  1  0
  3 46  1  0
  3 47  1  0
  4 48  1  0
  4 49  1  0
  7 50  1  0
  8 51  1  0
 11 52  1  0
 16 53  1  0
 17 54  1  0
 18 55  1  0
 20 56  1  0
 24 57  1  0
 25 58  1  0
 26 59  1  0
 32 60  1  0
 33 61  1  0
 34 62  1  0
 35 63  1  0
 38 64  1  0
 40 65  1  0
 40 66  1  0
 41 67  1  0
 41 68  1  0
M  CHG  1   2   1
M  END
>  <meeko>  (6) 
{"is_sidechain": [false], "free_energy": -9.525, "intermolecular_energy": -12.406, "internal_energy": -1.2}

$$$$
LIB_DNDVGFIEWOHGAH__M_PUB_ALL__e8__s20260927
     RDKit          3D

 68 73  0  0  0  0  0  0  0  0999 V2000
   -3.1520  -16.8370    6.4590 C   0  0  0  0  0  0  0  0  0  0  0  0
   -1.7010  -17.2040    6.4870 N   0  0  0  0  0  0  0  0  0  0  0  0
   -1.3100  -18.0570    5.2700 C   0  0  0  0  0  0  0  0  0  0  0  0
    0.1890  -18.4230    5.3320 C   0  0  0  0  0  0  0  0  0  0  0  0
    1.0290  -17.2300    5.5170 N   0  0  0  0  0  0  0  0  0  0  0  0
    1.3580  -16.5430    4.3500 C   0  0  0  0  0  0  0  0  0  0  0  0
    1.1970  -15.1630    4.2770 C   0  0  0  0  0  0  0  0  0  0  0  0
    1.5250  -14.4870    3.0980 C   0  0  0  0  0  0  0  0  0  0  0  0
    2.0150  -15.1940    2.0010 C   0  0  0  0  0  0  0  0  0  0  0  0
    2.3610  -14.5120    0.7640 C   0  0  0  0  0  0  0  0  0  0  0  0
    3.4490  -13.6620    0.4790 C   0  0  0  0  0  0  0  0  0  0  0  0
    3.4620  -13.2200   -0.7740 N   0  0  0  0  0  0  0  0  0  0  0  0
    2.3820  -13.8050   -1.3620 N   0  0  0  0  0  0  0  0  0  0  0  0
    1.9540  -13.7060   -2.7010 C   0  0  0  0  0  0  0  0  0  0  0  0
    2.6760  -12.8960   -3.7070 C   0  0  0  0  0  0  0  0  0  0  0  0
    2.6050  -11.4980   -3.6880 C   0  0  0  0  0  0  0  0  0  0  0  0
    3.2850  -10.7430   -4.6430 C   0  0  0  0  0  0  0  0  0  0  0  0
    4.0390  -11.3780   -5.6310 C   0  0  0  0  0  0  0  0  0  0  0  0
    4.1210  -12.7740   -5.6750 C   0  0  0  0  0  0  0  0  0  0  0  0
    4.8990  -13.3450   -6.7050 N   0  0  0  0  0  0  0  0  0  0  0  0
    6.2190  -13.7510   -6.6250 C   0  0  0  0  0  0  0  0  0  0  0  0
    6.9170  -13.7820   -5.6190 O   0  0  0  0  0  0  0  0  0  0  0  0
    6.8060  -14.2440   -7.9040 C   0  0  0  0  0  0  0  0  0  0  0  0
    7.2030  -15.5760   -8.0680 C   0  0  0  0  0  0  0  0  0  0  0  0
    7.7480  -15.9970   -9.2820 C   0  0  0  0  0  0  0  0  0  0  0  0
    7.8850  -15.0950  -10.3400 C   0  0  0  0  0  0  0  0  0  0  0  0
    7.4660  -13.7630  -10.2020 C   0  0  0  0  0  0  0  0  0  0  0  0
    7.6190  -12.7810  -11.3380 C   0  0  0  0  0  0  0  0  0  0  0  0
    7.5780  -13.3690  -12.5650 F   0  0  0  0  0  0  0  0  0  0  0  0
    8.8040  -12.1130  -11.2820 F   0  0  0  0  0  0  0  0  0  0  0  0
    6.6500  -11.8260  -11.3500 F   0  0  0  0  0  0  0  0  0  0  0  0
    6.9270  -13.3450   -8.9740 C   0  0  0  0  0  0  0  0  0  0  0  0
    3.4480  -13.5220   -4.7050 C   0  0  0  0  0  0  0  0  0  0  0  0
    0.8420  -14.3650   -3.0790 C   0  0  0  0  0  0  0  0  0  0  0  0
    0.1620  -15.1580   -2.0280 C   0  0  0  0  0  0  0  0  0  0  0  0
    0.5290  -15.2680   -0.7880 N   0  0  0  0  0  0  0  0  0  0  0  0
    1.6670  -14.5890   -0.4320 C   0  0  0  0  0  0  0  0  0  0  0  0
    2.1360  -16.5700    2.1640 C   0  0  0  0  0  0  0  0  0  0  0  0
    1.8120  -17.2500    3.2990 N   0  0  0  0  0  0  0  0  0  0  0  0
    0.6860  -16.3870    6.6690 C   0  0  0  0  0  0  0  0  0  0  0  0
   -0.8010  -15.9680    6.6020 C   0  0  0  0  0  0  0  0  0  0  0  0
   -3.5262  -16.7424    7.4891 H   0  0  0  0  0  0  0  0  0  0  0  0
   -3.2778  -15.8788    5.9337 H   0  0  0  0  0  0  0  0  0  0  0  0
   -3.7182  -17.6202    5.9337 H   0  0  0  0  0  0  0  0  0  0  0  0
   -1.5350  -17.7810    7.3200 H   0  0  0  0  0  0  0  0  0  0  0  0
   -1.9090  -18.9796    5.2659 H   0  0  0  0  0  0  0  0  0  0  0  0
   -1.5001  -17.4804    4.3527 H   0  0  0  0  0  0  0  0  0  0  0  0
    0.3543  -19.1105    6.1746 H   0  0  0  0  0  0  0  0  0  0  0  0
    0.4679  -18.8965    4.3791 H   0  0  0  0  0  0  0  0  0  0  0  0
    0.8129  -14.6056    5.1441 H   0  0  0  0  0  0  0  0  0  0  0  0
    1.3963  -13.3963    3.0359 H   0  0  0  0  0  0  0  0  0  0  0  0
    4.2133  -13.3909    1.2221 H   0  0  0  0  0  0  0  0  0  0  0  0
    2.0088  -10.9917   -2.9145 H   0  0  0  0  0  0  0  0  0  0  0  0
    3.2270   -9.6448   -4.6176 H   0  0  0  0  0  0  0  0  0  0  0  0
    4.5730  -10.7761   -6.3810 H   0  0  0  0  0  0  0  0  0  0  0  0
    4.4130  -13.5210   -7.5740 H   0  0  0  0  0  0  0  0  0  0  0  0
    7.0855  -16.2909   -7.2403 H   0  0  0  0  0  0  0  0  0  0  0  0
    8.0704  -17.0414   -9.4060 H   0  0  0  0  0  0  0  0  0  0  0  0
    8.3254  -15.4321  -11.2900 H   0  0  0  0  0  0  0  0  0  0  0  0
    6.5967  -12.3031   -8.8503 H   0  0  0  0  0  0  0  0  0  0  0  0
    3.5226  -14.6193   -4.7213 H   0  0  0  0  0  0  0  0  0  0  0  0
    0.4602  -14.3173   -4.1095 H   0  0  0  0  0  0  0  0  0  0  0  0
   -0.7425  -15.7073   -2.3282 H   0  0  0  0  0  0  0  0  0  0  0  0
    2.5217  -17.1519    1.3139 H   0  0  0  0  0  0  0  0  0  0  0  0
    0.8630  -16.9506    7.5969 H   0  0  0  0  0  0  0  0  0  0  0  0
    1.3139  -15.4840    6.6518 H   0  0  0  0  0  0  0  0  0  0  0  0
   -1.0625  -15.4131    7.5151 H   0  0  0  0  0  0  0  0  0  0  0  0
   -0.9528  -15.3330    5.7167 H   0  0  0  0  0  0  0  0  0  0  0  0
  1  2  1  0
  2  3  1  0
  3  4  1  0
  4  5  1  0
  5  6  1  0
  6  7  2  0
  7  8  1  0
  8  9  2  0
  9 10  1  0
 10 11  1  0
 11 12  2  0
 12 13  1  0
 13 14  1  0
 14 15  1  0
 15 16  2  0
 16 17  1  0
 17 18  2  0
 18 19  1  0
 19 20  1  0
 20 21  1  0
 21 22  2  0
 21 23  1  0
 23 24  2  0
 24 25  1  0
 25 26  2  0
 26 27  1  0
 27 28  1  0
 28 29  1  0
 28 30  1  0
 28 31  1  0
 27 32  2  0
 19 33  2  0
 14 34  2  0
 34 35  1  0
 35 36  2  0
 36 37  1  0
  9 38  1  0
 38 39  2  0
  5 40  1  0
 40 41  1  0
 41  2  1  0
 39  6  1  0
 37 10  2  0
 37 13  1  0
 33 15  1  0
 32 23  1  0
  1 42  1  0
  1 43  1  0
  1 44  1  0
  2 45  1  0
  3 46  1  0
  3 47  1  0
  4 48  1  0
  4 49  1  0
  7 50  1  0
  8 51  1  0
 11 52  1  0
 16 53  1  0
 17 54  1  0
 18 55  1  0
 20 56  1  0
 24 57  1  0
 25 58  1  0
 26 59  1  0
 32 60  1  0
 33 61  1  0
 34 62  1  0
 35 63  1  0
 38 64  1  0
 40 65  1  0
 40 66  1  0
 41 67  1  0
 41 68  1  0
M  CHG  1   2   1
M  END
>  <meeko>  (7) 
{"is_sidechain": [false], "free_energy": -9.362, "intermolecular_energy": -12.366, "internal_energy": -1.02}

$$$$
LIB_DNDVGFIEWOHGAH__M_PUB_ALL__e8__s20260927
     RDKit          3D

 68 73  0  0  0  0  0  0  0  0999 V2000
   -3.1250  -16.8410    6.8540 C   0  0  0  0  0  0  0  0  0  0  0  0
   -1.7010  -17.3000    6.7910 N   0  0  0  0  0  0  0  0  0  0  0  0
   -1.4490  -18.1930    5.5660 C   0  0  0  0  0  0  0  0  0  0  0  0
    0.0250  -18.6530    5.5330 C   0  0  0  0  0  0  0  0  0  0  0  0
    0.9490  -17.5150    5.6400 N   0  0  0  0  0  0  0  0  0  0  0  0
    1.2400  -16.8660    4.4410 C   0  0  0  0  0  0  0  0  0  0  0  0
    1.1850  -17.5580    3.2360 C   0  0  0  0  0  0  0  0  0  0  0  0
    1.4850  -16.8970    2.0410 C   0  0  0  0  0  0  0  0  0  0  0  0
    1.8360  -15.5470    2.0590 C   0  0  0  0  0  0  0  0  0  0  0  0
    2.1530  -14.8400    0.8290 C   0  0  0  0  0  0  0  0  0  0  0  0
    1.4510  -14.7980   -0.3930 C   0  0  0  0  0  0  0  0  0  0  0  0
    2.0290  -14.0310   -1.3100 N   0  0  0  0  0  0  0  0  0  0  0  0
    3.1270  -13.5150   -0.6920 N   0  0  0  0  0  0  0  0  0  0  0  0
    4.0730  -12.6030   -1.2050 C   0  0  0  0  0  0  0  0  0  0  0  0
    3.9830  -12.0550   -2.5770 C   0  0  0  0  0  0  0  0  0  0  0  0
    3.0370  -11.0750   -2.8970 C   0  0  0  0  0  0  0  0  0  0  0  0
    2.9560  -10.5680   -4.1940 C   0  0  0  0  0  0  0  0  0  0  0  0
    3.8160  -11.0410   -5.1860 C   0  0  0  0  0  0  0  0  0  0  0  0
    4.7660  -12.0260   -4.8920 C   0  0  0  0  0  0  0  0  0  0  0  0
    5.5990  -12.4570   -5.9470 N   0  0  0  0  0  0  0  0  0  0  0  0
    5.8330  -13.7610   -6.3450 C   0  0  0  0  0  0  0  0  0  0  0  0
    5.2800  -14.7680   -5.9200 O   0  0  0  0  0  0  0  0  0  0  0  0
    6.8300  -13.9160   -7.4440 C   0  0  0  0  0  0  0  0  0  0  0  0
    8.0710  -14.5290   -7.2320 C   0  0  0  0  0  0  0  0  0  0  0  0
    8.9750  -14.6550   -8.2880 C   0  0  0  0  0  0  0  0  0  0  0  0
    8.6400  -14.1820   -9.5590 C   0  0  0  0  0  0  0  0  0  0  0  0
    7.3890  -13.5900   -9.7950 C   0  0  0  0  0  0  0  0  0  0  0  0
    7.0240  -13.0700  -11.1630 C   0  0  0  0  0  0  0  0  0  0  0  0
    7.9960  -13.2780  -12.0940 F   0  0  0  0  0  0  0  0  0  0  0  0
    6.7920  -11.7280  -11.1570 F   0  0  0  0  0  0  0  0  0  0  0  0
    5.8970  -13.6430  -11.6670 F   0  0  0  0  0  0  0  0  0  0  0  0
    6.4880  -13.4600   -8.7250 C   0  0  0  0  0  0  0  0  0  0  0  0
    4.8490  -12.5170   -3.5860 C   0  0  0  0  0  0  0  0  0  0  0  0
    5.1000  -12.2230   -0.4220 C   0  0  0  0  0  0  0  0  0  0  0  0
    5.1370  -12.8060    0.9400 C   0  0  0  0  0  0  0  0  0  0  0  0
    4.2840  -13.6480    1.4400 N   0  0  0  0  0  0  0  0  0  0  0  0
    3.2460  -14.0140    0.6210 C   0  0  0  0  0  0  0  0  0  0  0  0
    1.8700  -14.9400    3.3100 C   0  0  0  0  0  0  0  0  0  0  0  0
    1.5930  -15.5680    4.4870 N   0  0  0  0  0  0  0  0  0  0  0  0
    0.7400  -16.6360    6.7980 C   0  0  0  0  0  0  0  0  0  0  0  0
   -0.7190  -16.1230    6.8240 C   0  0  0  0  0  0  0  0  0  0  0  0
   -3.4321  -16.7420    7.9056 H   0  0  0  0  0  0  0  0  0  0  0  0
   -3.2189  -15.8671    6.3513 H   0  0  0  0  0  0  0  0  0  0  0  0
   -3.7700  -17.5768    6.3513 H   0  0  0  0  0  0  0  0  0  0  0  0
   -1.5150  -17.8750    7.6210 H   0  0  0  0  0  0  0  0  0  0  0  0
   -2.1036  -19.0755    5.6193 H   0  0  0  0  0  0  0  0  0  0  0  0
   -1.6653  -17.6183    4.6533 H   0  0  0  0  0  0  0  0  0  0  0  0
    0.2040  -19.3386    6.3744 H   0  0  0  0  0  0  0  0  0  0  0  0
    0.2074  -19.1553    4.5715 H   0  0  0  0  0  0  0  0  0  0  0  0
    0.9064  -18.6220    3.2230 H   0  0  0  0  0  0  0  0  0  0  0  0
    1.4442  -17.4417    1.0862 H   0  0  0  0  0  0  0  0  0  0  0  0
    0.5147  -15.3477   -0.5697 H   0  0  0  0  0  0  0  0  0  0  0  0
    2.3527  -10.7019   -2.1208 H   0  0  0  0  0  0  0  0  0  0  0  0
    2.2128   -9.7938   -4.4353 H   0  0  0  0  0  0  0  0  0  0  0  0
    3.7468  -10.6367   -6.2067 H   0  0  0  0  0  0  0  0  0  0  0  0
    6.0220  -11.7220   -6.4990 H   0  0  0  0  0  0  0  0  0  0  0  0
    8.3332  -14.9109   -6.2343 H   0  0  0  0  0  0  0  0  0  0  0  0
    9.9537  -15.1279   -8.1190 H   0  0  0  0  0  0  0  0  0  0  0  0
    9.3632  -14.2742  -10.3827 H   0  0  0  0  0  0  0  0  0  0  0  0
    5.5050  -12.9961   -8.8938 H   0  0  0  0  0  0  0  0  0  0  0  0
    5.6047  -13.2782   -3.3422 H   0  0  0  0  0  0  0  0  0  0  0  0
    5.8688  -11.5191   -0.7735 H   0  0  0  0  0  0  0  0  0  0  0  0
    5.9677  -12.4953    1.5907 H   0  0  0  0  0  0  0  0  0  0  0  0
    2.1404  -13.8746    3.3522 H   0  0  0  0  0  0  0  0  0  0  0  0
    0.9441  -17.1974    7.7217 H   0  0  0  0  0  0  0  0  0  0  0  0
    1.4213  -15.7757    6.7226 H   0  0  0  0  0  0  0  0  0  0  0  0
   -0.8820  -15.5408    7.7430 H   0  0  0  0  0  0  0  0  0  0  0  0
   -0.8904  -15.4909    5.9402 H   0  0  0  0  0  0  0  0  0  0  0  0
  1  2  1  0
  2  3  1  0
  3  4  1  0
  4  5  1  0
  5  6  1  0
  6  7  2  0
  7  8  1  0
  8  9  2  0
  9 10  1  0
 10 11  1  0
 11 12  2  0
 12 13  1  0
 13 14  1  0
 14 15  1  0
 15 16  2  0
 16 17  1  0
 17 18  2  0
 18 19  1  0
 19 20  1  0
 20 21  1  0
 21 22  2  0
 21 23  1  0
 23 24  2  0
 24 25  1  0
 25 26  2  0
 26 27  1  0
 27 28  1  0
 28 29  1  0
 28 30  1  0
 28 31  1  0
 27 32  2  0
 19 33  2  0
 14 34  2  0
 34 35  1  0
 35 36  2  0
 36 37  1  0
  9 38  1  0
 38 39  2  0
  5 40  1  0
 40 41  1  0
 41  2  1  0
 39  6  1  0
 37 10  2  0
 37 13  1  0
 33 15  1  0
 32 23  1  0
  1 42  1  0
  1 43  1  0
  1 44  1  0
  2 45  1  0
  3 46  1  0
  3 47  1  0
  4 48  1  0
  4 49  1  0
  7 50  1  0
  8 51  1  0
 11 52  1  0
 16 53  1  0
 17 54  1  0
 18 55  1  0
 20 56  1  0
 24 57  1  0
 25 58  1  0
 26 59  1  0
 32 60  1  0
 33 61  1  0
 34 62  1  0
 35 63  1  0
 38 64  1  0
 40 65  1  0
 40 66  1  0
 41 67  1  0
 41 68  1  0
M  CHG  1   2   1
M  END
>  <meeko>  (8) 
{"is_sidechain": [false], "free_energy": -9.17, "intermolecular_energy": -12.192, "internal_energy": -0.935}

$$$$
LIB_DNDVGFIEWOHGAH__M_PUB_ALL__e8__s20260927
     RDKit          3D

 68 73  0  0  0  0  0  0  0  0999 V2000
   -0.4760  -20.5900    6.7860 C   0  0  0  0  0  0  0  0  0  0  0  0
   -1.1210  -19.2410    6.7200 N   0  0  0  0  0  0  0  0  0  0  0  0
   -0.1540  -18.1310    7.1620 C   0  0  0  0  0  0  0  0  0  0  0  0
   -0.8510  -16.7540    7.0870 C   0  0  0  0  0  0  0  0  0  0  0  0
   -1.4560  -16.5250    5.7670 N   0  0  0  0  0  0  0  0  0  0  0  0
   -0.5960  -16.0200    4.7940 C   0  0  0  0  0  0  0  0  0  0  0  0
    0.5190  -15.2730    5.1600 C   0  0  0  0  0  0  0  0  0  0  0  0
    1.3700  -14.7670    4.1740 C   0  0  0  0  0  0  0  0  0  0  0  0
    1.1030  -15.0120    2.8270 C   0  0  0  0  0  0  0  0  0  0  0  0
    1.9740  -14.4940    1.7850 C   0  0  0  0  0  0  0  0  0  0  0  0
    3.2160  -14.9770    1.3270 C   0  0  0  0  0  0  0  0  0  0  0  0
    3.7340  -14.2560    0.3380 N   0  0  0  0  0  0  0  0  0  0  0  0
    2.8120  -13.2830    0.0970 N   0  0  0  0  0  0  0  0  0  0  0  0
    2.8460  -12.2700   -0.8830 C   0  0  0  0  0  0  0  0  0  0  0  0
    3.9670  -12.1270   -1.8390 C   0  0  0  0  0  0  0  0  0  0  0  0
    3.7300  -12.0610   -3.2160 C   0  0  0  0  0  0  0  0  0  0  0  0
    4.7940  -11.9320   -4.1100 C   0  0  0  0  0  0  0  0  0  0  0  0
    6.1040  -11.8750   -3.6350 C   0  0  0  0  0  0  0  0  0  0  0  0
    6.3670  -11.9470   -2.2630 C   0  0  0  0  0  0  0  0  0  0  0  0
    7.7180  -11.8860   -1.8580 N   0  0  0  0  0  0  0  0  0  0  0  0
    8.4210  -12.8440   -1.1490 C   0  0  0  0  0  0  0  0  0  0  0  0
    8.0250  -13.9610   -0.8360 O   0  0  0  0  0  0  0  0  0  0  0  0
    9.8180  -12.4660   -0.7920 C   0  0  0  0  0  0  0  0  0  0  0  0
   10.1830  -12.1530    0.5230 C   0  0  0  0  0  0  0  0  0  0  0  0
   11.5030  -11.8050    0.8150 C   0  0  0  0  0  0  0  0  0  0  0  0
   12.4630  -11.7810   -0.1980 C   0  0  0  0  0  0  0  0  0  0  0  0
   12.1200  -12.1210   -1.5160 C   0  0  0  0  0  0  0  0  0  0  0  0
   13.1510  -12.0890   -2.6180 C   0  0  0  0  0  0  0  0  0  0  0  0
   13.6560  -13.3180   -2.9160 F   0  0  0  0  0  0  0  0  0  0  0  0
   14.2220  -11.3120   -2.2960 F   0  0  0  0  0  0  0  0  0  0  0  0
   12.6650  -11.5920   -3.7880 F   0  0  0  0  0  0  0  0  0  0  0  0
   10.7880  -12.4610   -1.8030 C   0  0  0  0  0  0  0  0  0  0  0  0
    5.2940  -12.0610   -1.3740 C   0  0  0  0  0  0  0  0  0  0  0  0
    1.8250  -11.3930   -0.9470 C   0  0  0  0  0  0  0  0  0  0  0  0
    0.7340  -11.5860    0.0370 C   0  0  0  0  0  0  0  0  0  0  0  0
    0.6750  -12.5060    0.9510 N   0  0  0  0  0  0  0  0  0  0  0  0
    1.7260  -13.3870    0.9900 C   0  0  0  0  0  0  0  0  0  0  0  0
   -0.0360  -15.7620    2.5560 C   0  0  0  0  0  0  0  0  0  0  0  0
   -0.8860  -16.2560    3.5010 N   0  0  0  0  0  0  0  0  0  0  0  0
   -2.3850  -17.5660    5.3080 C   0  0  0  0  0  0  0  0  0  0  0  0
   -1.6930  -18.9480    5.3280 C   0  0  0  0  0  0  0  0  0  0  0  0
   -0.3377  -20.8792    7.8383 H   0  0  0  0  0  0  0  0  0  0  0  0
   -1.1184  -21.3285    6.2841 H   0  0  0  0  0  0  0  0  0  0  0  0
    0.5022  -20.5537    6.2841 H   0  0  0  0  0  0  0  0  0  0  0  0
   -1.9070  -19.2310    7.3810 H   0  0  0  0  0  0  0  0  0  0  0  0
    0.1669  -18.3198    8.1971 H   0  0  0  0  0  0  0  0  0  0  0  0
    0.7188  -18.1281    6.4925 H   0  0  0  0  0  0  0  0  0  0  0  0
   -1.6390  -16.7105    7.8533 H   0  0  0  0  0  0  0  0  0  0  0  0
   -0.0934  -15.9751    7.2581 H   0  0  0  0  0  0  0  0  0  0  0  0
    0.7301  -15.0812    6.2224 H   0  0  0  0  0  0  0  0  0  0  0  0
    2.2516  -14.1747    4.4604 H   0  0  0  0  0  0  0  0  0  0  0  0
    3.7095  -15.8656    1.7477 H   0  0  0  0  0  0  0  0  0  0  0  0
    2.6991  -12.1111   -3.5965 H   0  0  0  0  0  0  0  0  0  0  0  0
    4.5990  -11.8752   -5.1911 H   0  0  0  0  0  0  0  0  0  0  0  0
    6.9376  -11.7725   -4.3454 H   0  0  0  0  0  0  0  0  0  0  0  0
    8.2330  -11.0740   -2.1730 H   0  0  0  0  0  0  0  0  0  0  0  0
    9.4306  -12.1813    1.3250 H   0  0  0  0  0  0  0  0  0  0  0  0
   11.7874  -11.5490    1.8463 H   0  0  0  0  0  0  0  0  0  0  0  0
   13.4979  -11.4930    0.0387 H   0  0  0  0  0  0  0  0  0  0  0  0
   10.5033  -12.7261   -2.8319 H   0  0  0  0  0  0  0  0  0  0  0  0
    5.4902  -12.0998   -0.2923 H   0  0  0  0  0  0  0  0  0  0  0  0
    1.8027  -10.5800   -1.6876 H   0  0  0  0  0  0  0  0  0  0  0  0
   -0.1086  -10.8805   -0.0118 H   0  0  0  0  0  0  0  0  0  0  0  0
   -0.2686  -15.9724    1.5016 H   0  0  0  0  0  0  0  0  0  0  0  0
   -3.2613  -17.5891    5.9725 H   0  0  0  0  0  0  0  0  0  0  0  0
   -2.6989  -17.3375    4.2788 H   0  0  0  0  0  0  0  0  0  0  0  0
   -2.4273  -19.7245    5.0674 H   0  0  0  0  0  0  0  0  0  0  0  0
   -0.8700  -18.9448    4.5982 H   0  0  0  0  0  0  0  0  0  0  0  0
  1  2  1  0
  2  3  1  0
  3  4  1  0
  4  5  1  0
  5  6  1  0
  6  7  2  0
  7  8  1  0
  8  9  2  0
  9 10  1  0
 10 11  1  0
 11 12  2  0
 12 13  1  0
 13 14  1  0
 14 15  1  0
 15 16  2  0
 16 17  1  0
 17 18  2  0
 18 19  1  0
 19 20  1  0
 20 21  1  0
 21 22  2  0
 21 23  1  0
 23 24  2  0
 24 25  1  0
 25 26  2  0
 26 27  1  0
 27 28  1  0
 28 29  1  0
 28 30  1  0
 28 31  1  0
 27 32  2  0
 19 33  2  0
 14 34  2  0
 34 35  1  0
 35 36  2  0
 36 37  1  0
  9 38  1  0
 38 39  2  0
  5 40  1  0
 40 41  1  0
 41  2  1  0
 39  6  1  0
 37 10  2  0
 37 13  1  0
 33 15  1  0
 32 23  1  0
  1 42  1  0
  1 43  1  0
  1 44  1  0
  2 45  1  0
  3 46  1  0
  3 47  1  0
  4 48  1  0
  4 49  1  0
  7 50  1  0
  8 51  1  0
 11 52  1  0
 16 53  1  0
 17 54  1  0
 18 55  1  0
 20 56  1  0
 24 57  1  0
 25 58  1  0
 26 59  1  0
 32 60  1  0
 33 61  1  0
 34 62  1  0
 35 63  1  0
 38 64  1  0
 40 65  1  0
 40 66  1  0
 41 67  1  0
 41 68  1  0
M  CHG  1   2   1
M  END
>  <meeko>  (9) 
{"is_sidechain": [false], "free_energy": -8.941, "intermolecular_energy": -11.846, "internal_energy": -0.973}

$$$$
