LIB_BOCXRPAGFDSAFB__M_PUB_ALL__e8__s20260927
     RDKit          3D

 94 98  0  0  0  0  0  0  0  0999 V2000
   -2.1860   -8.8420    2.9930 C   0  0  0  0  0  0  0  0  0  0  0  0
   -1.4970   -9.6260    1.8700 C   0  0  0  0  0  0  0  0  0  0  0  0
   -2.4510   -9.8080    0.6840 C   0  0  0  0  0  0  0  0  0  0  0  0
   -0.3870   -8.8270    1.4350 O   0  0  0  0  0  0  0  0  0  0  0  0
   -0.9490  -10.9850    2.3070 C   0  0  0  0  0  0  0  0  0  0  0  0
   -1.2820  -11.5030    3.5710 C   0  0  0  0  0  0  0  0  0  0  0  0
   -0.8000  -12.7400    4.0030 C   0  0  0  0  0  0  0  0  0  0  0  0
    0.0270  -13.5080    3.1720 C   0  0  0  0  0  0  0  0  0  0  0  0
    0.5070  -14.8660    3.6090 C   0  0  0  0  0  0  0  0  0  0  0  0
    0.3370  -15.9240    2.5440 N   0  0  0  0  0  0  0  0  0  0  0  0
    1.5970  -16.2990    1.9840 C   0  0  0  0  0  0  0  0  0  0  0  0
    2.1060  -17.2940    2.4530 O   0  0  0  0  0  0  0  0  0  0  0  0
    2.2260  -15.6850    0.8400 N   0  0  0  0  0  0  0  0  0  0  0  0
    3.7260  -15.8360    0.9150 C   0  0  0  0  0  0  0  0  0  0  0  0
    4.3990  -14.5450    0.5320 C   0  0  0  0  0  0  0  0  0  0  0  0
    4.4010  -13.4570    1.4170 C   0  0  0  0  0  0  0  0  0  0  0  0
    5.1920  -12.3350    1.1600 C   0  0  0  0  0  0  0  0  0  0  0  0
    6.0030  -12.2690    0.0180 C   0  0  0  0  0  0  0  0  0  0  0  0
    6.9760  -11.1200   -0.2470 C   0  0  0  0  0  0  0  0  0  0  0  0
    6.6920  -10.4340   -1.5910 C   0  0  0  0  0  0  0  0  0  0  0  0
    7.0470  -10.0530    0.8550 C   0  0  0  0  0  0  0  0  0  0  0  0
    8.2670  -11.7460   -0.2960 O   0  0  0  0  0  0  0  0  0  0  0  0
    5.9360  -13.3390   -0.8940 C   0  0  0  0  0  0  0  0  0  0  0  0
    5.1380  -14.4580   -0.6510 C   0  0  0  0  0  0  0  0  0  0  0  0
    1.5050  -16.1910   -0.4160 C   0  0  2  0  0  0  0  0  0  0  0  0
    0.6290  -15.0810   -1.0490 C   0  0  0  0  0  0  0  0  0  0  0  0
    1.4390  -14.0580   -1.8050 C   0  0  0  0  0  0  0  0  0  0  0  0
    1.7500  -12.8200   -1.2230 C   0  0  0  0  0  0  0  0  0  0  0  0
    2.5260  -11.8900   -1.9180 C   0  0  0  0  0  0  0  0  0  0  0  0
    2.9900  -12.1850   -3.1970 C   0  0  0  0  0  0  0  0  0  0  0  0
    2.6720  -13.4040   -3.7900 C   0  0  0  0  0  0  0  0  0  0  0  0
    1.8970  -14.3370   -3.1000 C   0  0  0  0  0  0  0  0  0  0  0  0
    0.6340  -17.3940    0.0690 C   0  0  2  0  0  0  0  0  0  0  0  0
    0.4700  -18.2600   -1.0630 O   0  0  0  0  0  0  0  0  0  0  0  0
   -0.7960  -17.0390    0.6010 C   0  0  1  0  0  0  0  0  0  0  0  0
   -1.3300  -18.1580    1.3140 O   0  0  0  0  0  0  0  0  0  0  0  0
   -0.8260  -15.8020    1.5710 C   0  0  1  0  0  0  0  0  0  0  0  0
   -2.1670  -15.7480    2.3470 C   0  0  0  0  0  0  0  0  0  0  0  0
   -3.0660  -14.6230    1.8950 C   0  0  0  0  0  0  0  0  0  0  0  0
   -3.9630  -14.0330    2.7980 C   0  0  0  0  0  0  0  0  0  0  0  0
   -4.8140  -13.0100    2.3800 C   0  0  0  0  0  0  0  0  0  0  0  0
   -4.7730  -12.5610    1.0630 C   0  0  0  0  0  0  0  0  0  0  0  0
   -3.8720  -13.1240    0.1630 C   0  0  0  0  0  0  0  0  0  0  0  0
   -3.0180  -14.1490    0.5760 C   0  0  0  0  0  0  0  0  0  0  0  0
    0.4150  -12.9740    1.9370 C   0  0  0  0  0  0  0  0  0  0  0  0
   -0.0690  -11.7320    1.5110 C   0  0  0  0  0  0  0  0  0  0  0  0
   -1.8493   -9.2251    3.9676 H   0  0  0  0  0  0  0  0  0  0  0  0
   -1.9269   -7.7763    2.9086 H   0  0  0  0  0  0  0  0  0  0  0  0
   -3.2762   -8.9621    2.9086 H   0  0  0  0  0  0  0  0  0  0  0  0
   -3.4674  -10.0019    1.0574 H   0  0  0  0  0  0  0  0  0  0  0  0
   -2.4534   -8.8941    0.0718 H   0  0  0  0  0  0  0  0  0  0  0  0
   -2.1168  -10.6586    0.0718 H   0  0  0  0  0  0  0  0  0  0  0  0
   -0.1300   -8.2510    2.1780 H   0  0  0  0  0  0  0  0  0  0  0  0
   -1.9374  -10.9202    4.2348 H   0  0  0  0  0  0  0  0  0  0  0  0
   -1.0709  -13.1140    5.0014 H   0  0  0  0  0  0  0  0  0  0  0  0
    1.5745  -14.7947    3.8648 H   0  0  0  0  0  0  0  0  0  0  0  0
   -0.1034  -15.1681    4.4728 H   0  0  0  0  0  0  0  0  0  0  0  0
    0.1400  -16.8000    3.0550 H   0  0  0  0  0  0  0  0  0  0  0  0
    2.0540  -14.6740    0.8650 H   0  0  0  0  0  0  0  0  0  0  0  0
    4.0131  -16.1044    1.9424 H   0  0  0  0  0  0  0  0  0  0  0  0
    4.0422  -16.6259    0.2178 H   0  0  0  0  0  0  0  0  0  0  0  0
    3.7746  -13.4876    2.3207 H   0  0  0  0  0  0  0  0  0  0  0  0
    5.1786  -11.4901    1.8643 H   0  0  0  0  0  0  0  0  0  0  0  0
    6.2769   -9.4314   -1.4105 H   0  0  0  0  0  0  0  0  0  0  0  0
    7.6276  -10.3460   -2.1627 H   0  0  0  0  0  0  0  0  0  0  0  0
    5.9680  -11.0331   -2.1627 H   0  0  0  0  0  0  0  0  0  0  0  0
    7.0145  -10.5409    1.8404 H   0  0  0  0  0  0  0  0  0  0  0  0
    7.9848   -9.4865    0.7570 H   0  0  0  0  0  0  0  0  0  0  0  0
    6.1925   -9.3673    0.7570 H   0  0  0  0  0  0  0  0  0  0  0  0
    8.6340  -11.5760   -1.1840 H   0  0  0  0  0  0  0  0  0  0  0  0
    6.5269  -13.2922   -1.8207 H   0  0  0  0  0  0  0  0  0  0  0  0
    5.0907  -15.2711   -1.3903 H   0  0  0  0  0  0  0  0  0  0  0  0
    2.2155  -16.4917   -1.2001 H   0  0  0  0  0  0  0  0  0  0  0  0
   -0.0834  -15.5490   -1.7443 H   0  0  0  0  0  0  0  0  0  0  0  0
    0.1148  -14.5570   -0.2298 H   0  0  0  0  0  0  0  0  0  0  0  0
    1.3810  -12.5808   -0.2147 H   0  0  0  0  0  0  0  0  0  0  0  0
    2.7710  -10.9231   -1.4543 H   0  0  0  0  0  0  0  0  0  0  0  0
    3.6083  -11.4546   -3.7395 H   0  0  0  0  0  0  0  0  0  0  0  0
    3.0323  -13.6319   -4.8040 H   0  0  0  0  0  0  0  0  0  0  0  0
    1.6442  -15.2965   -3.5749 H   0  0  0  0  0  0  0  0  0  0  0  0
    1.1634  -17.8369    0.9255 H   0  0  0  0  0  0  0  0  0  0  0  0
    1.1150  -17.9750   -1.7520 H   0  0  0  0  0  0  0  0  0  0  0  0
   -1.3921  -16.7845   -0.2877 H   0  0  0  0  0  0  0  0  0  0  0  0
   -1.9430  -18.6420    0.7150 H   0  0  0  0  0  0  0  0  0  0  0  0
   -0.7352  -14.8740    0.9875 H   0  0  0  0  0  0  0  0  0  0  0  0
   -2.6964  -16.7007    2.1985 H   0  0  0  0  0  0  0  0  0  0  0  0
   -1.9271  -15.5718    3.4060 H   0  0  0  0  0  0  0  0  0  0  0  0
   -3.9954  -14.3791    3.8416 H   0  0  0  0  0  0  0  0  0  0  0  0
   -5.5190  -12.5571    3.0926 H   0  0  0  0  0  0  0  0  0  0  0  0
   -5.4525  -11.7613    0.7332 H   0  0  0  0  0  0  0  0  0  0  0  0
   -3.8328  -12.7610   -0.8746 H   0  0  0  0  0  0  0  0  0  0  0  0
   -2.3040  -14.5868   -0.1371 H   0  0  0  0  0  0  0  0  0  0  0  0
    1.1080  -13.5371    1.2946 H   0  0  0  0  0  0  0  0  0  0  0  0
    0.2464  -11.3349    0.5348 H   0  0  0  0  0  0  0  0  0  0  0  0
  1  2  1  0
  2  3  1  0
  2  4  1  0
  2  5  1  0
  5  6  2  0
  6  7  1  0
  7  8  2  0
  8  9  1  0
  9 10  1  0
 10 11  1  0
 11 12  2  0
 11 13  1  0
 13 14  1  0
 14 15  1  0
 15 16  2  0
 16 17  1  0
 17 18  2  0
 18 19  1  0
 19 20  1  0
 19 21  1  0
 19 22  1  0
 18 23  1  0
 23 24  2  0
 13 25  1  0
 25 26  1  0
 26 27  1  0
 27 28  2  0
 28 29  1  0
 29 30  2  0
 30 31  1  0
 31 32  2  0
 25 33  1  0
 33 34  1  0
 33 35  1  0
 35 36  1  0
 35 37  1  0
 37 38  1  0
 38 39  1  0
 39 40  2  0
 40 41  1  0
 41 42  2  0
 42 43  1  0
 43 44  2  0
  8 45  1  0
 45 46  2  0
 46  5  1  0
 37 10  1  0
 44 39  1  0
 24 15  1  0
 32 27  1  0
  1 47  1  0
  1 48  1  0
  1 49  1  0
  3 50  1  0
  3 51  1  0
  3 52  1  0
  4 53  1  0
  6 54  1  0
  7 55  1  0
  9 56  1  0
  9 57  1  0
 10 58  1  0
 13 59  1  0
 14 60  1  0
 14 61  1  0
 16 62  1  0
 17 63  1  0
 20 64  1  0
 20 65  1  0
 20 66  1  0
 21 67  1  0
 21 68  1  0
 21 69  1  0
 22 70  1  0
 23 71  1  0
 24 72  1  0
 25 73  1  6
 26 74  1  0
 26 75  1  0
 28 76  1  0
 29 77  1  0
 30 78  1  0
 31 79  1  0
 32 80  1  0
 33 81  1  1
 34 82  1  0
 35 83  1  6
 36 84  1  0
 37 85  1  6
 38 86  1  0
 38 87  1  0
 40 88  1  0
 41 89  1  0
 42 90  1  0
 43 91  1  0
 44 92  1  0
 45 93  1  0
 46 94  1  0
M  CHG  2  10   1  13   1
M  END
>  <meeko>  (1) 
{"is_sidechain": [false], "free_energy": -7.167, "intermolecular_energy": -14.708, "internal_energy": -3.972}

$$$$
LIB_BOCXRPAGFDSAFB__M_PUB_ALL__e8__s20260927
     RDKit          3D

 94 98  0  0  0  0  0  0  0  0999 V2000
    5.3430  -11.1280   -2.4310 C   0  0  0  0  0  0  0  0  0  0  0  0
    6.1290  -12.3400   -1.9150 C   0  0  0  0  0  0  0  0  0  0  0  0
    6.5450  -13.2420   -3.0820 C   0  0  0  0  0  0  0  0  0  0  0  0
    7.3170  -11.8240   -1.2990 O   0  0  0  0  0  0  0  0  0  0  0  0
    5.3800  -13.1620   -0.8650 C   0  0  0  0  0  0  0  0  0  0  0  0
    4.4550  -12.5380   -0.0110 C   0  0  0  0  0  0  0  0  0  0  0  0
    3.7550  -13.2580    0.9590 C   0  0  0  0  0  0  0  0  0  0  0  0
    3.9510  -14.6390    1.0960 C   0  0  0  0  0  0  0  0  0  0  0  0
    3.1610  -15.4310    2.1020 C   0  0  0  0  0  0  0  0  0  0  0  0
    1.7110  -15.6050    1.7120 N   0  0  0  0  0  0  0  0  0  0  0  0
    0.9660  -16.2280    2.7590 C   0  0  0  0  0  0  0  0  0  0  0  0
    1.5960  -16.9670    3.4850 O   0  0  0  0  0  0  0  0  0  0  0  0
   -0.4080  -15.9480    3.0970 N   0  0  0  0  0  0  0  0  0  0  0  0
   -0.4850  -14.8690    4.1510 C   0  0  0  0  0  0  0  0  0  0  0  0
   -0.4510  -13.5080    3.5060 C   0  0  0  0  0  0  0  0  0  0  0  0
    0.3780  -13.2700    2.4000 C   0  0  0  0  0  0  0  0  0  0  0  0
    0.2650  -12.0820    1.6730 C   0  0  0  0  0  0  0  0  0  0  0  0
   -0.6770  -11.1060    2.0260 C   0  0  0  0  0  0  0  0  0  0  0  0
   -0.9230   -9.8470    1.1940 C   0  0  0  0  0  0  0  0  0  0  0  0
   -0.5820  -10.0690   -0.2870 C   0  0  0  0  0  0  0  0  0  0  0  0
   -2.3360   -9.2560    1.2990 C   0  0  0  0  0  0  0  0  0  0  0  0
   -0.0280   -8.8710    1.7460 O   0  0  0  0  0  0  0  0  0  0  0  0
   -1.4520  -11.3320    3.1790 C   0  0  0  0  0  0  0  0  0  0  0  0
   -1.3360  -12.5100    3.9190 C   0  0  0  0  0  0  0  0  0  0  0  0
   -1.1780  -15.7430    1.7870 C   0  0  2  0  0  0  0  0  0  0  0  0
   -2.6790  -15.4640    2.0520 C   0  0  0  0  0  0  0  0  0  0  0  0
   -3.1920  -14.2650    1.2950 C   0  0  0  0  0  0  0  0  0  0  0  0
   -4.2820  -13.5270    1.7800 C   0  0  0  0  0  0  0  0  0  0  0  0
   -4.7330  -12.4010    1.0890 C   0  0  0  0  0  0  0  0  0  0  0  0
   -4.1060  -12.0070   -0.0900 C   0  0  0  0  0  0  0  0  0  0  0  0
   -3.0350  -12.7430   -0.5890 C   0  0  0  0  0  0  0  0  0  0  0  0
   -2.5800  -13.8700    0.0970 C   0  0  0  0  0  0  0  0  0  0  0  0
   -0.9790  -17.0680    0.9840 C   0  0  2  0  0  0  0  0  0  0  0  0
   -1.2660  -18.1410    1.8930 O   0  0  0  0  0  0  0  0  0  0  0  0
    0.4570  -17.3140    0.3680 C   0  0  1  0  0  0  0  0  0  0  0  0
    0.3270  -17.8310   -0.9600 O   0  0  0  0  0  0  0  0  0  0  0  0
    1.3840  -16.0470    0.2930 C   0  0  1  0  0  0  0  0  0  0  0  0
    0.6810  -14.8990   -0.4750 C   0  0  0  0  0  0  0  0  0  0  0  0
    1.5010  -14.3700   -1.6270 C   0  0  0  0  0  0  0  0  0  0  0  0
    1.4200  -13.0160   -1.9860 C   0  0  0  0  0  0  0  0  0  0  0  0
    2.1550  -12.5280   -3.0650 C   0  0  0  0  0  0  0  0  0  0  0  0
    2.9840  -13.3790   -3.7900 C   0  0  0  0  0  0  0  0  0  0  0  0
    3.0890  -14.7210   -3.4300 C   0  0  0  0  0  0  0  0  0  0  0  0
    2.3550  -15.2160   -2.3510 C   0  0  0  0  0  0  0  0  0  0  0  0
    4.9150  -15.2600    0.2920 C   0  0  0  0  0  0  0  0  0  0  0  0
    5.6160  -14.5320   -0.6760 C   0  0  0  0  0  0  0  0  0  0  0  0
    4.9653  -10.5456   -1.5777 H   0  0  0  0  0  0  0  0  0  0  0  0
    6.0036  -10.4959   -3.0427 H   0  0  0  0  0  0  0  0  0  0  0  0
    4.4965  -11.4733   -3.0427 H   0  0  0  0  0  0  0  0  0  0  0  0
    6.9753  -14.1750   -2.6890 H   0  0  0  0  0  0  0  0  0  0  0  0
    5.6636  -13.4754   -3.6973 H   0  0  0  0  0  0  0  0  0  0  0  0
    7.2947  -12.7231   -3.6973 H   0  0  0  0  0  0  0  0  0  0  0  0
    7.1110  -11.6450   -0.3640 H   0  0  0  0  0  0  0  0  0  0  0  0
    4.2782  -11.4567   -0.1090 H   0  0  0  0  0  0  0  0  0  0  0  0
    3.0454  -12.7383    1.6196 H   0  0  0  0  0  0  0  0  0  0  0  0
    3.6187  -16.4263    2.2017 H   0  0  0  0  0  0  0  0  0  0  0  0
    3.1814  -14.8720    3.0491 H   0  0  0  0  0  0  0  0  0  0  0  0
    1.2930  -14.6620    1.7780 H   0  0  0  0  0  0  0  0  0  0  0  0
   -0.8230  -16.7800    3.5310 H   0  0  0  0  0  0  0  0  0  0  0  0
   -1.4220  -14.9797    4.7165 H   0  0  0  0  0  0  0  0  0  0  0  0
    0.3763  -14.9668    4.8282 H   0  0  0  0  0  0  0  0  0  0  0  0
    1.1222  -14.0236    2.1029 H   0  0  0  0  0  0  0  0  0  0  0  0
    0.9255  -11.9101    0.8104 H   0  0  0  0  0  0  0  0  0  0  0  0
    0.3375  -10.6676   -0.3658 H   0  0  0  0  0  0  0  0  0  0  0  0
   -1.4097  -10.6019   -0.7779 H   0  0  0  0  0  0  0  0  0  0  0  0
   -0.4296   -9.0965   -0.7779 H   0  0  0  0  0  0  0  0  0  0  0  0
   -2.6080   -9.1422    2.3587 H   0  0  0  0  0  0  0  0  0  0  0  0
   -2.3596   -8.2726    0.8067 H   0  0  0  0  0  0  0  0  0  0  0  0
   -3.0528   -9.9297    0.8067 H   0  0  0  0  0  0  0  0  0  0  0  0
    0.6670   -8.7090    1.0810 H   0  0  0  0  0  0  0  0  0  0  0  0
   -2.1664  -10.5617    3.5049 H   0  0  0  0  0  0  0  0  0  0  0  0
   -1.9412  -12.6519    4.8265 H   0  0  0  0  0  0  0  0  0  0  0  0
   -0.8086  -14.8694    1.2299 H   0  0  0  0  0  0  0  0  0  0  0  0
   -3.2599  -16.3471    1.7475 H   0  0  0  0  0  0  0  0  0  0  0  0
   -2.7924  -15.2519    3.1254 H   0  0  0  0  0  0  0  0  0  0  0  0
   -4.7834  -13.8369    2.7087 H   0  0  0  0  0  0  0  0  0  0  0  0
   -5.5854  -11.8239    1.4768 H   0  0  0  0  0  0  0  0  0  0  0  0
   -4.4571  -11.1137   -0.6274 H   0  0  0  0  0  0  0  0  0  0  0  0
   -2.5465  -12.4358   -1.5255 H   0  0  0  0  0  0  0  0  0  0  0  0
   -1.7368  -14.4514   -0.3043 H   0  0  0  0  0  0  0  0  0  0  0  0
   -1.6467  -17.0049    0.1121 H   0  0  0  0  0  0  0  0  0  0  0  0
   -1.9150  -18.7390    1.4530 H   0  0  0  0  0  0  0  0  0  0  0  0
    0.9388  -18.0215    1.0589 H   0  0  0  0  0  0  0  0  0  0  0  0
    0.5320  -17.1070   -1.5940 H   0  0  0  0  0  0  0  0  0  0  0  0
    2.3084  -16.2981   -0.2477 H   0  0  0  0  0  0  0  0  0  0  0  0
   -0.2749  -15.2748   -0.8688 H   0  0  0  0  0  0  0  0  0  0  0  0
    0.5363  -14.0700    0.2334 H   0  0  0  0  0  0  0  0  0  0  0  0
    0.7728  -12.3359   -1.4127 H   0  0  0  0  0  0  0  0  0  0  0  0
    2.0796  -11.4668   -3.3445 H   0  0  0  0  0  0  0  0  0  0  0  0
    3.5558  -12.9925   -4.6465 H   0  0  0  0  0  0  0  0  0  0  0  0
    3.7515  -15.3914   -3.9971 H   0  0  0  0  0  0  0  0  0  0  0  0
    2.4464  -16.2747   -2.0667 H   0  0  0  0  0  0  0  0  0  0  0  0
    5.1235  -16.3321    0.4229 H   0  0  0  0  0  0  0  0  0  0  0  0
    6.3648  -15.0426   -1.2993 H   0  0  0  0  0  0  0  0  0  0  0  0
  1  2  1  0
  2  3  1  0
  2  4  1  0
  2  5  1  0
  5  6  2  0
  6  7  1  0
  7  8  2  0
  8  9  1  0
  9 10  1  0
 10 11  1  0
 11 12  2  0
 11 13  1  0
 13 14  1  0
 14 15  1  0
 15 16  2  0
 16 17  1  0
 17 18  2  0
 18 19  1  0
 19 20  1  0
 19 21  1  0
 19 22  1  0
 18 23  1  0
 23 24  2  0
 13 25  1  0
 25 26  1  0
 26 27  1  0
 27 28  2  0
 28 29  1  0
 29 30  2  0
 30 31  1  0
 31 32  2  0
 25 33  1  0
 33 34  1  0
 33 35  1  0
 35 36  1  0
 35 37  1  0
 37 38  1  0
 38 39  1  0
 39 40  2  0
 40 41  1  0
 41 42  2  0
 42 43  1  0
 43 44  2  0
  8 45  1  0
 45 46  2  0
 46  5  1  0
 37 10  1  0
 44 39  1  0
 24 15  1  0
 32 27  1  0
  1 47  1  0
  1 48  1  0
  1 49  1  0
  3 50  1  0
  3 51  1  0
  3 52  1  0
  4 53  1  0
  6 54  1  0
  7 55  1  0
  9 56  1  0
  9 57  1  0
 10 58  1  0
 13 59  1  0
 14 60  1  0
 14 61  1  0
 16 62  1  0
 17 63  1  0
 20 64  1  0
 20 65  1  0
 20 66  1  0
 21 67  1  0
 21 68  1  0
 21 69  1  0
 22 70  1  0
 23 71  1  0
 24 72  1  0
 25 73  1  6
 26 74  1  0
 26 75  1  0
 28 76  1  0
 29 77  1  0
 30 78  1  0
 31 79  1  0
 32 80  1  0
 33 81  1  6
 34 82  1  0
 35 83  1  1
 36 84  1  0
 37 85  1  6
 38 86  1  0
 38 87  1  0
 40 88  1  0
 41 89  1  0
 42 90  1  0
 43 91  1  0
 44 92  1  0
 45 93  1  0
 46 94  1  0
M  CHG  2  10   1  13   1
M  END
>  <meeko>  (2) 
{"is_sidechain": [false], "free_energy": -6.872, "intermolecular_energy": -13.218, "internal_energy": -4.857}

$$$$
LIB_BOCXRPAGFDSAFB__M_PUB_ALL__e8__s20260927
     RDKit          3D

 94 98  0  0  0  0  0  0  0  0999 V2000
   13.8330  -15.0330   -4.1280 C   0  0  0  0  0  0  0  0  0  0  0  0
   13.2570  -13.6250   -4.3210 C   0  0  0  0  0  0  0  0  0  0  0  0
   14.1810  -12.5800   -3.6860 C   0  0  0  0  0  0  0  0  0  0  0  0
   13.2180  -13.3900   -5.7350 O   0  0  0  0  0  0  0  0  0  0  0  0
   11.8360  -13.4570   -3.7810 C   0  0  0  0  0  0  0  0  0  0  0  0
   11.0990  -14.5830   -3.3770 C   0  0  0  0  0  0  0  0  0  0  0  0
    9.8000  -14.4670   -2.8800 C   0  0  0  0  0  0  0  0  0  0  0  0
    9.1970  -13.2070   -2.7610 C   0  0  0  0  0  0  0  0  0  0  0  0
    7.8170  -13.0680   -2.1770 C   0  0  0  0  0  0  0  0  0  0  0  0
    7.8030  -13.1470   -0.6680 N   0  0  0  0  0  0  0  0  0  0  0  0
    6.7880  -14.0420   -0.2080 C   0  0  0  0  0  0  0  0  0  0  0  0
    7.1410  -14.8560    0.6180 O   0  0  0  0  0  0  0  0  0  0  0  0
    5.3850  -13.9630   -0.5340 N   0  0  0  0  0  0  0  0  0  0  0  0
    4.8700  -15.3080   -0.9880 C   0  0  0  0  0  0  0  0  0  0  0  0
    5.4890  -15.6840   -2.3080 C   0  0  0  0  0  0  0  0  0  0  0  0
    5.0850  -15.0420   -3.4870 C   0  0  0  0  0  0  0  0  0  0  0  0
    5.7930  -15.2340   -4.6770 C   0  0  0  0  0  0  0  0  0  0  0  0
    6.9190  -16.0670   -4.7210 C   0  0  0  0  0  0  0  0  0  0  0  0
    7.7960  -16.2160   -5.9640 C   0  0  0  0  0  0  0  0  0  0  0  0
    6.9630  -16.5470   -7.2110 C   0  0  0  0  0  0  0  0  0  0  0  0
    8.7050  -15.0180   -6.2740 C   0  0  0  0  0  0  0  0  0  0  0  0
    8.6620  -17.3210   -5.6640 O   0  0  0  0  0  0  0  0  0  0  0  0
    7.2680  -16.7570   -3.5450 C   0  0  0  0  0  0  0  0  0  0  0  0
    6.5600  -16.5810   -2.3550 C   0  0  0  0  0  0  0  0  0  0  0  0
    4.6740  -13.2660    0.6320 C   0  0  2  0  0  0  0  0  0  0  0  0
    3.6600  -12.2100    0.1230 C   0  0  0  0  0  0  0  0  0  0  0  0
    3.4710  -12.2550   -1.3720 C   0  0  0  0  0  0  0  0  0  0  0  0
    2.3900  -12.9470   -1.9360 C   0  0  0  0  0  0  0  0  0  0  0  0
    2.2050  -12.9590   -3.3200 C   0  0  0  0  0  0  0  0  0  0  0  0
    3.0990  -12.2880   -4.1490 C   0  0  0  0  0  0  0  0  0  0  0  0
    4.1860  -11.6110   -3.6010 C   0  0  0  0  0  0  0  0  0  0  0  0
    4.3750  -11.5960   -2.2180 C   0  0  0  0  0  0  0  0  0  0  0  0
    5.8140  -12.6020    1.4680 C   0  0  2  0  0  0  0  0  0  0  0  0
    5.1900  -12.0400    2.6320 O   0  0  0  0  0  0  0  0  0  0  0  0
    6.6010  -11.4540    0.7430 C   0  0  1  0  0  0  0  0  0  0  0  0
    6.8370  -10.3850    1.6650 O   0  0  0  0  0  0  0  0  0  0  0  0
    7.9900  -11.8670    0.1330 C   0  0  1  0  0  0  0  0  0  0  0  0
    9.0360  -12.0880    1.2560 C   0  0  0  0  0  0  0  0  0  0  0  0
   10.4570  -11.8880    0.7860 C   0  0  0  0  0  0  0  0  0  0  0  0
   11.0810  -10.6410    0.9400 C   0  0  0  0  0  0  0  0  0  0  0  0
   12.3840  -10.4430    0.4850 C   0  0  0  0  0  0  0  0  0  0  0  0
   13.0800  -11.4860   -0.1180 C   0  0  0  0  0  0  0  0  0  0  0  0
   12.4790  -12.7360   -0.2580 C   0  0  0  0  0  0  0  0  0  0  0  0
   11.1740  -12.9400    0.1960 C   0  0  0  0  0  0  0  0  0  0  0  0
    9.8980  -12.0840   -3.2180 C   0  0  0  0  0  0  0  0  0  0  0  0
   11.2000  -12.2090   -3.7180 C   0  0  0  0  0  0  0  0  0  0  0  0
   13.9213  -15.2489   -3.0530 H   0  0  0  0  0  0  0  0  0  0  0  0
   13.1642  -15.7701   -4.5963 H   0  0  0  0  0  0  0  0  0  0  0  0
   14.8267  -15.0900   -4.5963 H   0  0  0  0  0  0  0  0  0  0  0  0
   14.1174  -12.6519   -2.5902 H   0  0  0  0  0  0  0  0  0  0  0  0
   15.2172  -12.7640   -4.0060 H   0  0  0  0  0  0  0  0  0  0  0  0
   13.8715  -11.5741   -4.0060 H   0  0  0  0  0  0  0  0  0  0  0  0
   12.9310  -12.4690   -5.8730 H   0  0  0  0  0  0  0  0  0  0  0  0
   11.5570  -15.5801   -3.4543 H   0  0  0  0  0  0  0  0  0  0  0  0
    9.2464  -15.3690   -2.5801 H   0  0  0  0  0  0  0  0  0  0  0  0
    7.4044  -12.0946   -2.4808 H   0  0  0  0  0  0  0  0  0  0  0  0
    7.2138  -13.9063   -2.5557 H   0  0  0  0  0  0  0  0  0  0  0  0
    8.6250  -13.7190   -0.4130 H   0  0  0  0  0  0  0  0  0  0  0  0
    5.2630  -13.3410   -1.3400 H   0  0  0  0  0  0  0  0  0  0  0  0
    5.1280  -16.0684   -0.2361 H   0  0  0  0  0  0  0  0  0  0  0  0
    3.7779  -15.2523   -1.1069 H   0  0  0  0  0  0  0  0  0  0  0  0
    4.2047  -14.3825   -3.4756 H   0  0  0  0  0  0  0  0  0  0  0  0
    5.4611  -14.7233   -5.5930 H   0  0  0  0  0  0  0  0  0  0  0  0
    5.9815  -16.9370   -6.9034 H   0  0  0  0  0  0  0  0  0  0  0  0
    6.8237  -15.6359   -7.8114 H   0  0  0  0  0  0  0  0  0  0  0  0
    7.4871  -17.3052   -7.8114 H   0  0  0  0  0  0  0  0  0  0  0  0
    9.0486  -14.5651   -5.3323 H   0  0  0  0  0  0  0  0  0  0  0  0
    9.5743  -15.3582   -6.8559 H   0  0  0  0  0  0  0  0  0  0  0  0
    8.1433  -14.2724   -6.8559 H   0  0  0  0  0  0  0  0  0  0  0  0
    9.0490  -17.6200   -6.5070 H   0  0  0  0  0  0  0  0  0  0  0  0
    8.1201  -17.4524   -3.5642 H   0  0  0  0  0  0  0  0  0  0  0  0
    6.8444  -17.1472   -1.4558 H   0  0  0  0  0  0  0  0  0  0  0  0
    4.0872  -13.9752    1.2343 H   0  0  0  0  0  0  0  0  0  0  0  0
    2.6889  -12.3939    0.6058 H   0  0  0  0  0  0  0  0  0  0  0  0
    4.0601  -11.2172    0.3766 H   0  0  0  0  0  0  0  0  0  0  0  0
    1.6839  -13.4833   -1.2849 H   0  0  0  0  0  0  0  0  0  0  0  0
    1.3516  -13.4995   -3.7555 H   0  0  0  0  0  0  0  0  0  0  0  0
    2.9470  -12.2923   -5.2384 H   0  0  0  0  0  0  0  0  0  0  0  0
    4.8960  -11.0878   -4.2585 H   0  0  0  0  0  0  0  0  0  0  0  0
    5.2375  -11.0645   -1.7894 H   0  0  0  0  0  0  0  0  0  0  0  0
    6.5579  -13.3849    1.6769 H   0  0  0  0  0  0  0  0  0  0  0  0
    4.2340  -12.2770    2.6010 H   0  0  0  0  0  0  0  0  0  0  0  0
    5.9583  -11.1634   -0.1011 H   0  0  0  0  0  0  0  0  0  0  0  0
    7.0140   -9.5660    1.1480 H   0  0  0  0  0  0  0  0  0  0  0  0
    8.3599  -11.0629   -0.5202 H   0  0  0  0  0  0  0  0  0  0  0  0
    8.8324  -11.3764    2.0697 H   0  0  0  0  0  0  0  0  0  0  0  0
    8.9439  -13.1317    1.5909 H   0  0  0  0  0  0  0  0  0  0  0  0
   10.5390   -9.8144    1.4227 H   0  0  0  0  0  0  0  0  0  0  0  0
   12.8629   -9.4598    0.6031 H   0  0  0  0  0  0  0  0  0  0  0  0
   14.1045  -11.3242   -0.4843 H   0  0  0  0  0  0  0  0  0  0  0  0
   13.0332  -13.5626   -0.7266 H   0  0  0  0  0  0  0  0  0  0  0  0
   10.7061  -13.9299    0.0905 H   0  0  0  0  0  0  0  0  0  0  0  0
    9.4208  -11.0935   -3.1838 H   0  0  0  0  0  0  0  0  0  0  0  0
   11.7331  -11.3125   -4.0674 H   0  0  0  0  0  0  0  0  0  0  0  0
  1  2  1  0
  2  3  1  0
  2  4  1  0
  2  5  1  0
  5  6  2  0
  6  7  1  0
  7  8  2  0
  8  9  1  0
  9 10  1  0
 10 11  1  0
 11 12  2  0
 11 13  1  0
 13 14  1  0
 14 15  1  0
 15 16  2  0
 16 17  1  0
 17 18  2  0
 18 19  1  0
 19 20  1  0
 19 21  1  0
 19 22  1  0
 18 23  1  0
 23 24  2  0
 13 25  1  0
 25 26  1  0
 26 27  1  0
 27 28  2  0
 28 29  1  0
 29 30  2  0
 30 31  1  0
 31 32  2  0
 25 33  1  0
 33 34  1  0
 33 35  1  0
 35 36  1  0
 35 37  1  0
 37 38  1  0
 38 39  1  0
 39 40  2  0
 40 41  1  0
 41 42  2  0
 42 43  1  0
 43 44  2  0
  8 45  1  0
 45 46  2  0
 46  5  1  0
 37 10  1  0
 44 39  1  0
 24 15  1  0
 32 27  1  0
  1 47  1  0
  1 48  1  0
  1 49  1  0
  3 50  1  0
  3 51  1  0
  3 52  1  0
  4 53  1  0
  6 54  1  0
  7 55  1  0
  9 56  1  0
  9 57  1  0
 10 58  1  0
 13 59  1  0
 14 60  1  0
 14 61  1  0
 16 62  1  0
 17 63  1  0
 20 64  1  0
 20 65  1  0
 20 66  1  0
 21 67  1  0
 21 68  1  0
 21 69  1  0
 22 70  1  0
 23 71  1  0
 24 72  1  0
 25 73  1  1
 26 74  1  0
 26 75  1  0
 28 76  1  0
 29 77  1  0
 30 78  1  0
 31 79  1  0
 32 80  1  0
 33 81  1  1
 34 82  1  0
 35 83  1  6
 36 84  1  0
 37 85  1  6
 38 86  1  0
 38 87  1  0
 40 88  1  0
 41 89  1  0
 42 90  1  0
 43 91  1  0
 44 92  1  0
 45 93  1  0
 46 94  1  0
M  CHG  2  10   1  13   1
M  END
>  <meeko>  (3) 
{"is_sidechain": [false], "free_energy": -6.531, "intermolecular_energy": -13.716, "internal_energy": -3.659}

$$$$
LIB_BOCXRPAGFDSAFB__M_PUB_ALL__e8__s20260927
     RDKit          3D

 94 98  0  0  0  0  0  0  0  0999 V2000
    7.3770  -19.0440   -4.5830 C   0  0  0  0  0  0  0  0  0  0  0  0
    7.5920  -17.9360   -5.6220 C   0  0  0  0  0  0  0  0  0  0  0  0
    9.0360  -17.9580   -6.1340 C   0  0  0  0  0  0  0  0  0  0  0  0
    6.7210  -18.2330   -6.7220 O   0  0  0  0  0  0  0  0  0  0  0  0
    7.2420  -16.5350   -5.1170 C   0  0  0  0  0  0  0  0  0  0  0  0
    6.3040  -16.3750   -4.0820 C   0  0  0  0  0  0  0  0  0  0  0  0
    5.9620  -15.1120   -3.5960 C   0  0  0  0  0  0  0  0  0  0  0  0
    6.5610  -13.9620   -4.1270 C   0  0  0  0  0  0  0  0  0  0  0  0
    6.2370  -12.6010   -3.5730 C   0  0  0  0  0  0  0  0  0  0  0  0
    6.1280  -12.5860   -2.0660 N   0  0  0  0  0  0  0  0  0  0  0  0
    4.8880  -12.0160   -1.6440 C   0  0  0  0  0  0  0  0  0  0  0  0
    4.4110  -11.1850   -2.3870 O   0  0  0  0  0  0  0  0  0  0  0  0
    4.1100  -12.4400   -0.5060 N   0  0  0  0  0  0  0  0  0  0  0  0
    2.8210  -13.0860   -0.9550 C   0  0  0  0  0  0  0  0  0  0  0  0
    1.6420  -12.3720   -0.3490 C   0  0  0  0  0  0  0  0  0  0  0  0
    0.9610  -12.9310    0.7430 C   0  0  0  0  0  0  0  0  0  0  0  0
    0.0050  -12.1860    1.4380 C   0  0  0  0  0  0  0  0  0  0  0  0
   -0.2940  -10.8670    1.0660 C   0  0  0  0  0  0  0  0  0  0  0  0
   -1.2400   -9.9720    1.8650 C   0  0  0  0  0  0  0  0  0  0  0  0
   -2.4360   -9.5110    1.0190 C   0  0  0  0  0  0  0  0  0  0  0  0
   -1.7580  -10.5720    3.1800 C   0  0  0  0  0  0  0  0  0  0  0  0
   -0.4430   -8.8330    2.2210 O   0  0  0  0  0  0  0  0  0  0  0  0
    0.3490  -10.3480   -0.0730 C   0  0  0  0  0  0  0  0  0  0  0  0
    1.2960  -11.0900   -0.7810 C   0  0  0  0  0  0  0  0  0  0  0  0
    5.0370  -13.2340    0.4230 C   0  0  2  0  0  0  0  0  0  0  0  0
    4.2350  -13.9760    1.5220 C   0  0  0  0  0  0  0  0  0  0  0  0
    4.1280  -15.4580    1.2660 C   0  0  0  0  0  0  0  0  0  0  0  0
    2.9710  -16.1640    1.6260 C   0  0  0  0  0  0  0  0  0  0  0  0
    2.8670  -17.5300    1.3590 C   0  0  0  0  0  0  0  0  0  0  0  0
    3.9180  -18.2020    0.7390 C   0  0  0  0  0  0  0  0  0  0  0  0
    5.0780  -17.5140    0.3940 C   0  0  0  0  0  0  0  0  0  0  0  0
    5.1870  -16.1480    0.6580 C   0  0  0  0  0  0  0  0  0  0  0  0
    6.0020  -12.1720    1.0420 C   0  0  2  0  0  0  0  0  0  0  0  0
    5.1750  -11.2330    1.7450 O   0  0  0  0  0  0  0  0  0  0  0  0
    6.8890  -11.3920    0.0070 C   0  0  1  0  0  0  0  0  0  0  0  0
    8.0630  -10.8960    0.6570 O   0  0  0  0  0  0  0  0  0  0  0  0
    7.3560  -12.2150   -1.2480 C   0  0  1  0  0  0  0  0  0  0  0  0
    8.1130  -13.4970   -0.8110 C   0  0  0  0  0  0  0  0  0  0  0  0
    9.1300  -13.9570   -1.8260 C   0  0  0  0  0  0  0  0  0  0  0  0
    9.8560  -13.0160   -2.5710 C   0  0  0  0  0  0  0  0  0  0  0  0
   10.7790  -13.4350   -3.5290 C   0  0  0  0  0  0  0  0  0  0  0  0
   10.9940  -14.7930   -3.7470 C   0  0  0  0  0  0  0  0  0  0  0  0
   10.2950  -15.7370   -2.9980 C   0  0  0  0  0  0  0  0  0  0  0  0
    9.3690  -15.3230   -2.0380 C   0  0  0  0  0  0  0  0  0  0  0  0
    7.4500  -14.1050   -5.2000 C   0  0  0  0  0  0  0  0  0  0  0  0
    7.7870  -15.3750   -5.6840 C   0  0  0  0  0  0  0  0  0  0  0  0
    7.4594  -18.6193   -3.5717 H   0  0  0  0  0  0  0  0  0  0  0  0
    6.3770  -19.4825   -4.7162 H   0  0  0  0  0  0  0  0  0  0  0  0
    8.1404  -19.8247   -4.7162 H   0  0  0  0  0  0  0  0  0  0  0  0
    9.7281  -17.9685   -5.2790 H   0  0  0  0  0  0  0  0  0  0  0  0
    9.1946  -18.8587   -6.7453 H   0  0  0  0  0  0  0  0  0  0  0  0
    9.2220  -17.0626   -6.7453 H   0  0  0  0  0  0  0  0  0  0  0  0
    5.8040  -18.1640   -6.3990 H   0  0  0  0  0  0  0  0  0  0  0  0
    5.8287  -17.2656   -3.6452 H   0  0  0  0  0  0  0  0  0  0  0  0
    5.2178  -15.0189   -2.7913 H   0  0  0  0  0  0  0  0  0  0  0  0
    7.0316  -11.9022   -3.8737 H   0  0  0  0  0  0  0  0  0  0  0  0
    5.2566  -12.3073   -3.9761 H   0  0  0  0  0  0  0  0  0  0  0  0
    5.9370  -13.5640   -1.7940 H   0  0  0  0  0  0  0  0  0  0  0  0
    3.8260  -11.6150    0.0330 H   0  0  0  0  0  0  0  0  0  0  0  0
    2.7520  -13.0351   -2.0517 H   0  0  0  0  0  0  0  0  0  0  0  0
    2.8124  -14.1356   -0.6261 H   0  0  0  0  0  0  0  0  0  0  0  0
    1.1813  -13.9629    1.0540 H   0  0  0  0  0  0  0  0  0  0  0  0
   -0.5213  -12.6408    2.2901 H   0  0  0  0  0  0  0  0  0  0  0  0
   -3.2546   -9.1955    1.6826 H   0  0  0  0  0  0  0  0  0  0  0  0
   -2.1320   -8.6656    0.3842 H   0  0  0  0  0  0  0  0  0  0  0  0
   -2.7780  -10.3417    0.3842 H   0  0  0  0  0  0  0  0  0  0  0  0
   -1.3013  -10.0430    4.0294 H   0  0  0  0  0  0  0  0  0  0  0  0
   -2.8518  -10.4645    3.2263 H   0  0  0  0  0  0  0  0  0  0  0  0
   -1.4921  -11.6384    3.2263 H   0  0  0  0  0  0  0  0  0  0  0  0
    0.3850   -9.1720    2.6090 H   0  0  0  0  0  0  0  0  0  0  0  0
    0.0992   -9.3324   -0.4139 H   0  0  0  0  0  0  0  0  0  0  0  0
    1.7693  -10.6651   -1.6785 H   0  0  0  0  0  0  0  0  0  0  0  0
    5.5863  -14.0164   -0.1211 H   0  0  0  0  0  0  0  0  0  0  0  0
    4.7370  -13.8215    2.4885 H   0  0  0  0  0  0  0  0  0  0  0  0
    3.2146  -13.5651    1.5224 H   0  0  0  0  0  0  0  0  0  0  0  0
    2.1412  -15.6385    2.1213 H   0  0  0  0  0  0  0  0  0  0  0  0
    1.9542  -18.0765    1.6384 H   0  0  0  0  0  0  0  0  0  0  0  0
    3.8313  -19.2769    0.5219 H   0  0  0  0  0  0  0  0  0  0  0  0
    5.9103  -18.0481   -0.0876 H   0  0  0  0  0  0  0  0  0  0  0  0
    6.1077  -15.6100    0.3880 H   0  0  0  0  0  0  0  0  0  0  0  0
    6.7166  -12.7076    1.6843 H   0  0  0  0  0  0  0  0  0  0  0  0
    4.3890  -11.7230    2.0830 H   0  0  0  0  0  0  0  0  0  0  0  0
    6.2326  -10.5924   -0.3668 H   0  0  0  0  0  0  0  0  0  0  0  0
    8.8470  -11.3280    0.2500 H   0  0  0  0  0  0  0  0  0  0  0  0
    8.0434  -11.6055   -1.8530 H   0  0  0  0  0  0  0  0  0  0  0  0
    8.6321  -13.2914    0.1368 H   0  0  0  0  0  0  0  0  0  0  0  0
    7.3676  -14.2991   -0.7059 H   0  0  0  0  0  0  0  0  0  0  0  0
    9.6964  -11.9414   -2.3987 H   0  0  0  0  0  0  0  0  0  0  0  0
   11.3387  -12.6903   -4.1140 H   0  0  0  0  0  0  0  0  0  0  0  0
   11.7153  -15.1205   -4.5102 H   0  0  0  0  0  0  0  0  0  0  0  0
   10.4727  -16.8100   -3.1629 H   0  0  0  0  0  0  0  0  0  0  0  0
    8.8241  -16.0721   -1.4448 H   0  0  0  0  0  0  0  0  0  0  0  0
    7.8878  -13.2105   -5.6672 H   0  0  0  0  0  0  0  0  0  0  0  0
    8.4918  -15.4637   -6.5239 H   0  0  0  0  0  0  0  0  0  0  0  0
  1  2  1  0
  2  3  1  0
  2  4  1  0
  2  5  1  0
  5  6  2  0
  6  7  1  0
  7  8  2  0
  8  9  1  0
  9 10  1  0
 10 11  1  0
 11 12  2  0
 11 13  1  0
 13 14  1  0
 14 15  1  0
 15 16  2  0
 16 17  1  0
 17 18  2  0
 18 19  1  0
 19 20  1  0
 19 21  1  0
 19 22  1  0
 18 23  1  0
 23 24  2  0
 13 25  1  0
 25 26  1  0
 26 27  1  0
 27 28  2  0
 28 29  1  0
 29 30  2  0
 30 31  1  0
 31 32  2  0
 25 33  1  0
 33 34  1  0
 33 35  1  0
 35 36  1  0
 35 37  1  0
 37 38  1  0
 38 39  1  0
 39 40  2  0
 40 41  1  0
 41 42  2  0
 42 43  1  0
 43 44  2  0
  8 45  1  0
 45 46  2  0
 46  5  1  0
 37 10  1  0
 44 39  1  0
 24 15  1  0
 32 27  1  0
  1 47  1  0
  1 48  1  0
  1 49  1  0
  3 50  1  0
  3 51  1  0
  3 52  1  0
  4 53  1  0
  6 54  1  0
  7 55  1  0
  9 56  1  0
  9 57  1  0
 10 58  1  0
 13 59  1  0
 14 60  1  0
 14 61  1  0
 16 62  1  0
 17 63  1  0
 20 64  1  0
 20 65  1  0
 20 66  1  0
 21 67  1  0
 21 68  1  0
 21 69  1  0
 22 70  1  0
 23 71  1  0
 24 72  1  0
 25 73  1  6
 26 74  1  0
 26 75  1  0
 28 76  1  0
 29 77  1  0
 30 78  1  0
 31 79  1  0
 32 80  1  0
 33 81  1  1
 34 82  1  0
 35 83  1  6
 36 84  1  0
 37 85  1  6
 38 86  1  0
 38 87  1  0
 40 88  1  0
 41 89  1  0
 42 90  1  0
 43 91  1  0
 44 92  1  0
 45 93  1  0
 46 94  1  0
M  CHG  2  10   1  13   1
M  END
>  <meeko>  (4) 
{"is_sidechain": [false], "free_energy": -6.415, "intermolecular_energy": -13.098, "internal_energy": -4.039}

$$$$
LIB_BOCXRPAGFDSAFB__M_PUB_ALL__e8__s20260927
     RDKit          3D

 94 98  0  0  0  0  0  0  0  0999 V2000
    8.6770  -13.7010  -11.0860 C   0  0  0  0  0  0  0  0  0  0  0  0
    7.2670  -13.2670  -10.6650 C   0  0  0  0  0  0  0  0  0  0  0  0
    7.0830  -11.7630  -10.8910 C   0  0  0  0  0  0  0  0  0  0  0  0
    6.3530  -13.9660  -11.5220 O   0  0  0  0  0  0  0  0  0  0  0  0
    6.9140  -13.6220   -9.2200 C   0  0  0  0  0  0  0  0  0  0  0  0
    6.1760  -12.7200   -8.4350 C   0  0  0  0  0  0  0  0  0  0  0  0
    5.8360  -13.0120   -7.1120 C   0  0  0  0  0  0  0  0  0  0  0  0
    6.2180  -14.2300   -6.5350 C   0  0  0  0  0  0  0  0  0  0  0  0
    5.8100  -14.5740   -5.1270 C   0  0  0  0  0  0  0  0  0  0  0  0
    6.7210  -13.9710   -4.0830 N   0  0  0  0  0  0  0  0  0  0  0  0
    7.4830  -14.9790   -3.4180 C   0  0  0  0  0  0  0  0  0  0  0  0
    7.8320  -15.9140   -4.1060 O   0  0  0  0  0  0  0  0  0  0  0  0
    7.9750  -14.9070   -2.0640 N   0  0  0  0  0  0  0  0  0  0  0  0
    8.3200  -16.2840   -1.5500 C   0  0  0  0  0  0  0  0  0  0  0  0
    7.2370  -16.7830   -0.6300 C   0  0  0  0  0  0  0  0  0  0  0  0
    6.3070  -15.8880   -0.0810 C   0  0  0  0  0  0  0  0  0  0  0  0
    5.1840  -16.3640    0.6020 C   0  0  0  0  0  0  0  0  0  0  0  0
    4.9580  -17.7390    0.7500 C   0  0  0  0  0  0  0  0  0  0  0  0
    3.6880  -18.3100    1.3810 C   0  0  0  0  0  0  0  0  0  0  0  0
    2.7140  -17.1990    1.8010 C   0  0  0  0  0  0  0  0  0  0  0  0
    2.9350  -19.3380    0.5250 C   0  0  0  0  0  0  0  0  0  0  0  0
    4.1470  -19.0060    2.5490 O   0  0  0  0  0  0  0  0  0  0  0  0
    5.9360  -18.6200    0.2520 C   0  0  0  0  0  0  0  0  0  0  0  0
    7.0670  -18.1540   -0.4190 C   0  0  0  0  0  0  0  0  0  0  0  0
    9.0560  -13.8200   -2.0180 C   0  0  2  0  0  0  0  0  0  0  0  0
   10.1420  -14.1490   -0.9630 C   0  0  0  0  0  0  0  0  0  0  0  0
   11.1830  -13.0640   -0.8390 C   0  0  0  0  0  0  0  0  0  0  0  0
   12.0500  -12.7790   -1.9040 C   0  0  0  0  0  0  0  0  0  0  0  0
   12.9900  -11.7540   -1.7920 C   0  0  0  0  0  0  0  0  0  0  0  0
   13.0770  -11.0110   -0.6180 C   0  0  0  0  0  0  0  0  0  0  0  0
   12.2330  -11.2970    0.4520 C   0  0  0  0  0  0  0  0  0  0  0  0
   11.2910  -12.3210    0.3450 C   0  0  0  0  0  0  0  0  0  0  0  0
    8.2970  -12.5030   -1.6610 C   0  0  2  0  0  0  0  0  0  0  0  0
    7.4710  -12.8040   -0.5270 O   0  0  0  0  0  0  0  0  0  0  0  0
    7.3940  -11.9250   -2.7930 C   0  0  1  0  0  0  0  0  0  0  0  0
    8.1770  -11.6800   -3.9650 O   0  0  0  0  0  0  0  0  0  0  0  0
    6.1880  -12.8420   -3.2140 C   0  0  1  0  0  0  0  0  0  0  0  0
    5.1260  -12.0240   -3.9920 C   0  0  0  0  0  0  0  0  0  0  0  0
    3.9160  -11.6820   -3.1580 C   0  0  0  0  0  0  0  0  0  0  0  0
    3.6690  -12.3680   -1.9600 C   0  0  0  0  0  0  0  0  0  0  0  0
    2.5390  -12.0750   -1.1980 C   0  0  0  0  0  0  0  0  0  0  0  0
    1.6500  -11.0890   -1.6160 C   0  0  0  0  0  0  0  0  0  0  0  0
    1.8950  -10.3850   -2.7930 C   0  0  0  0  0  0  0  0  0  0  0  0
    3.0240  -10.6750   -3.5610 C   0  0  0  0  0  0  0  0  0  0  0  0
    7.0070  -15.1090   -7.2870 C   0  0  0  0  0  0  0  0  0  0  0  0
    7.3460  -14.8100   -8.6120 C   0  0  0  0  0  0  0  0  0  0  0  0
    9.2860  -13.8884  -10.1893 H   0  0  0  0  0  0  0  0  0  0  0  0
    8.6138  -14.6213  -11.6853 H   0  0  0  0  0  0  0  0  0  0  0  0
    9.1422  -12.9045  -11.6853 H   0  0  0  0  0  0  0  0  0  0  0  0
    7.0204  -11.2512   -9.9193 H   0  0  0  0  0  0  0  0  0  0  0  0
    7.9397  -11.3699  -11.4580 H   0  0  0  0  0  0  0  0  0  0  0  0
    6.1568  -11.5880  -11.4580 H   0  0  0  0  0  0  0  0  0  0  0  0
    6.7990  -14.7740  -11.8330 H   0  0  0  0  0  0  0  0  0  0  0  0
    5.8587  -11.7619   -8.8724 H   0  0  0  0  0  0  0  0  0  0  0  0
    5.2651  -12.2815   -6.5200 H   0  0  0  0  0  0  0  0  0  0  0  0
    4.7887  -14.2023   -4.9575 H   0  0  0  0  0  0  0  0  0  0  0  0
    5.8719  -15.6675   -5.0249 H   0  0  0  0  0  0  0  0  0  0  0  0
    7.4930  -13.5310   -4.6110 H   0  0  0  0  0  0  0  0  0  0  0  0
    7.2230  -14.5700   -1.4520 H   0  0  0  0  0  0  0  0  0  0  0  0
    8.4208  -16.9744   -2.4004 H   0  0  0  0  0  0  0  0  0  0  0  0
    9.2675  -16.2321   -0.9936 H   0  0  0  0  0  0  0  0  0  0  0  0
    6.4623  -14.8044   -0.1886 H   0  0  0  0  0  0  0  0  0  0  0  0
    4.4667  -15.6482    1.0298 H   0  0  0  0  0  0  0  0  0  0  0  0
    2.6684  -17.1470    2.8988 H   0  0  0  0  0  0  0  0  0  0  0  0
    3.0634  -16.2351    1.4025 H   0  0  0  0  0  0  0  0  0  0  0  0
    1.7127  -17.4193    1.4025 H   0  0  0  0  0  0  0  0  0  0  0  0
    2.4134  -20.0501    1.1814 H   0  0  0  0  0  0  0  0  0  0  0  0
    2.2014  -18.8195   -0.1099 H   0  0  0  0  0  0  0  0  0  0  0  0
    3.6506  -19.8810   -0.1099 H   0  0  0  0  0  0  0  0  0  0  0  0
    5.1070  -19.1400    2.4430 H   0  0  0  0  0  0  0  0  0  0  0  0
    5.8055  -19.7028    0.3953 H   0  0  0  0  0  0  0  0  0  0  0  0
    7.8241  -18.8649   -0.7815 H   0  0  0  0  0  0  0  0  0  0  0  0
    9.5898  -13.7355   -2.9761 H   0  0  0  0  0  0  0  0  0  0  0  0
    9.6543  -14.2817    0.0140 H   0  0  0  0  0  0  0  0  0  0  0  0
   10.6553  -15.0652   -1.2901 H   0  0  0  0  0  0  0  0  0  0  0  0
   11.9886  -13.3664   -2.8320 H   0  0  0  0  0  0  0  0  0  0  0  0
   13.6636  -11.5326   -2.6330 H   0  0  0  0  0  0  0  0  0  0  0  0
   13.8129  -10.1975   -0.5355 H   0  0  0  0  0  0  0  0  0  0  0  0
   12.3089  -10.7152    1.3825 H   0  0  0  0  0  0  0  0  0  0  0  0
   10.6295  -12.5465    1.1944 H   0  0  0  0  0  0  0  0  0  0  0  0
    9.0557  -11.7287   -1.4745 H   0  0  0  0  0  0  0  0  0  0  0  0
    7.3410  -11.9670   -0.0220 H   0  0  0  0  0  0  0  0  0  0  0  0
    6.9705  -11.0031   -2.3679 H   0  0  0  0  0  0  0  0  0  0  0  0
    7.6310  -11.9010   -4.7530 H   0  0  0  0  0  0  0  0  0  0  0  0
    5.7057  -13.2535   -2.3151 H   0  0  0  0  0  0  0  0  0  0  0  0
    5.5890  -11.0880   -4.3377 H   0  0  0  0  0  0  0  0  0  0  0  0
    4.7814  -12.6468   -4.8307 H   0  0  0  0  0  0  0  0  0  0  0  0
    4.3718  -13.1426   -1.6193 H   0  0  0  0  0  0  0  0  0  0  0  0
    2.3495  -12.6244   -0.2641 H   0  0  0  0  0  0  0  0  0  0  0  0
    0.7545  -10.8657   -1.0174 H   0  0  0  0  0  0  0  0  0  0  0  0
    1.1973   -9.5990   -3.1178 H   0  0  0  0  0  0  0  0  0  0  0  0
    3.2159  -10.1120   -4.4863 H   0  0  0  0  0  0  0  0  0  0  0  0
    7.3643  -16.0445   -6.8318 H   0  0  0  0  0  0  0  0  0  0  0  0
    7.9614  -15.5185   -9.1859 H   0  0  0  0  0  0  0  0  0  0  0  0
  1  2  1  0
  2  3  1  0
  2  4  1  0
  2  5  1  0
  5  6  2  0
  6  7  1  0
  7  8  2  0
  8  9  1  0
  9 10  1  0
 10 11  1  0
 11 12  2  0
 11 13  1  0
 13 14  1  0
 14 15  1  0
 15 16  2  0
 16 17  1  0
 17 18  2  0
 18 19  1  0
 19 20  1  0
 19 21  1  0
 19 22  1  0
 18 23  1  0
 23 24  2  0
 13 25  1  0
 25 26  1  0
 26 27  1  0
 27 28  2  0
 28 29  1  0
 29 30  2  0
 30 31  1  0
 31 32  2  0
 25 33  1  0
 33 34  1  0
 33 35  1  0
 35 36  1  0
 35 37  1  0
 37 38  1  0
 38 39  1  0
 39 40  2  0
 40 41  1  0
 41 42  2  0
 42 43  1  0
 43 44  2  0
  8 45  1  0
 45 46  2  0
 46  5  1  0
 37 10  1  0
 44 39  1  0
 24 15  1  0
 32 27  1  0
  1 47  1  0
  1 48  1  0
  1 49  1  0
  3 50  1  0
  3 51  1  0
  3 52  1  0
  4 53  1  0
  6 54  1  0
  7 55  1  0
  9 56  1  0
  9 57  1  0
 10 58  1  0
 13 59  1  0
 14 60  1  0
 14 61  1  0
 16 62  1  0
 17 63  1  0
 20 64  1  0
 20 65  1  0
 20 66  1  0
 21 67  1  0
 21 68  1  0
 21 69  1  0
 22 70  1  0
 23 71  1  0
 24 72  1  0
 25 73  1  6
 26 74  1  0
 26 75  1  0
 28 76  1  0
 29 77  1  0
 30 78  1  0
 31 79  1  0
 32 80  1  0
 33 81  1  1
 34 82  1  0
 35 83  1  1
 36 84  1  0
 37 85  1  1
 38 86  1  0
 38 87  1  0
 40 88  1  0
 41 89  1  0
 42 90  1  0
 43 91  1  0
 44 92  1  0
 45 93  1  0
 46 94  1  0
M  CHG  2  10   1  13   1
M  END
>  <meeko>  (5) 
{"is_sidechain": [false], "free_energy": -6.364, "intermolecular_energy": -14.689, "internal_energy": -2.343}

$$$$
LIB_BOCXRPAGFDSAFB__M_PUB_ALL__e8__s20260927
     RDKit          3D

 94 98  0  0  0  0  0  0  0  0999 V2000
    5.7710  -13.2220   -2.0640 C   0  0  0  0  0  0  0  0  0  0  0  0
    5.9900  -12.7800   -3.5160 C   0  0  0  0  0  0  0  0  0  0  0  0
    4.8760  -11.8230   -3.9560 C   0  0  0  0  0  0  0  0  0  0  0  0
    7.2330  -12.0640   -3.5420 O   0  0  0  0  0  0  0  0  0  0  0  0
    6.0990  -13.9390   -4.5080 C   0  0  0  0  0  0  0  0  0  0  0  0
    5.5940  -15.2050   -4.1670 C   0  0  0  0  0  0  0  0  0  0  0  0
    5.6760  -16.2860   -5.0480 C   0  0  0  0  0  0  0  0  0  0  0  0
    6.2610  -16.1270   -6.3110 C   0  0  0  0  0  0  0  0  0  0  0  0
    6.3050  -17.2720   -7.2860 C   0  0  0  0  0  0  0  0  0  0  0  0
    7.7100  -17.7490   -7.5750 N   0  0  0  0  0  0  0  0  0  0  0  0
    8.3060  -18.3300   -6.4140 C   0  0  0  0  0  0  0  0  0  0  0  0
    8.0270  -19.4910   -6.2040 O   0  0  0  0  0  0  0  0  0  0  0  0
    9.2980  -17.7040   -5.5740 N   0  0  0  0  0  0  0  0  0  0  0  0
    9.1000  -18.1040   -4.1310 C   0  0  0  0  0  0  0  0  0  0  0  0
    9.3710  -16.9330   -3.2250 C   0  0  0  0  0  0  0  0  0  0  0  0
   10.0700  -17.1150   -2.0230 C   0  0  0  0  0  0  0  0  0  0  0  0
   10.5040  -16.0130   -1.2810 C   0  0  0  0  0  0  0  0  0  0  0  0
   10.2550  -14.7040   -1.7190 C   0  0  0  0  0  0  0  0  0  0  0  0
   10.8110  -13.4700   -1.0100 C   0  0  0  0  0  0  0  0  0  0  0  0
   12.0420  -13.8110   -0.1570 C   0  0  0  0  0  0  0  0  0  0  0  0
   11.1480  -12.2840   -1.9240 C   0  0  0  0  0  0  0  0  0  0  0  0
    9.7440  -13.0370   -0.1530 O   0  0  0  0  0  0  0  0  0  0  0  0
    9.4920  -14.5420   -2.8910 C   0  0  0  0  0  0  0  0  0  0  0  0
    9.0440  -15.6370   -3.6310 C   0  0  0  0  0  0  0  0  0  0  0  0
   10.6700  -17.9450   -6.2150 C   0  0  2  0  0  0  0  0  0  0  0  0
   11.4430  -16.6160   -6.4080 C   0  0  0  0  0  0  0  0  0  0  0  0
   12.2940  -16.2570   -5.2160 C   0  0  0  0  0  0  0  0  0  0  0  0
   12.5960  -14.9170   -4.9300 C   0  0  0  0  0  0  0  0  0  0  0  0
   13.3590  -14.5910   -3.8080 C   0  0  0  0  0  0  0  0  0  0  0  0
   13.8320  -15.5960   -2.9690 C   0  0  0  0  0  0  0  0  0  0  0  0
   13.5530  -16.9300   -3.2530 C   0  0  0  0  0  0  0  0  0  0  0  0
   12.7900  -17.2620   -4.3740 C   0  0  0  0  0  0  0  0  0  0  0  0
   10.3670  -18.6300   -7.5850 C   0  0  2  0  0  0  0  0  0  0  0  0
   11.5790  -19.2830   -7.9910 O   0  0  0  0  0  0  0  0  0  0  0  0
    9.9280  -17.6850   -8.7490 C   0  0  1  0  0  0  0  0  0  0  0  0
    9.7010  -18.4300   -9.9490 O   0  0  0  0  0  0  0  0  0  0  0  0
    8.6140  -16.8810   -8.4370 C   0  0  1  0  0  0  0  0  0  0  0  0
    7.8870  -16.4910   -9.7490 C   0  0  0  0  0  0  0  0  0  0  0  0
    7.9540  -15.0120  -10.0450 C   0  0  0  0  0  0  0  0  0  0  0  0
    9.1970  -14.3660  -10.1250 C   0  0  0  0  0  0  0  0  0  0  0  0
    9.2650  -12.9960  -10.3730 C   0  0  0  0  0  0  0  0  0  0  0  0
    8.0980  -12.2580  -10.5520 C   0  0  0  0  0  0  0  0  0  0  0  0
    6.8580  -12.8930  -10.4970 C   0  0  0  0  0  0  0  0  0  0  0  0
    6.7840  -14.2650  -10.2490 C   0  0  0  0  0  0  0  0  0  0  0  0
    6.8220  -14.8860   -6.6370 C   0  0  0  0  0  0  0  0  0  0  0  0
    6.7390  -13.8080   -5.7480 C   0  0  0  0  0  0  0  0  0  0  0  0
    6.1546  -12.4478   -1.3832 H   0  0  0  0  0  0  0  0  0  0  0  0
    4.6959  -13.3689   -1.8836 H   0  0  0  0  0  0  0  0  0  0  0  0
    6.3054  -14.1664   -1.8836 H   0  0  0  0  0  0  0  0  0  0  0  0
    4.3838  -11.4002   -3.0678 H   0  0  0  0  0  0  0  0  0  0  0  0
    5.3077  -11.0098   -4.5580 H   0  0  0  0  0  0  0  0  0  0  0  0
    4.1372  -12.3724   -4.5580 H   0  0  0  0  0  0  0  0  0  0  0  0
    7.5680  -12.0220   -2.6290 H   0  0  0  0  0  0  0  0  0  0  0  0
    5.1230  -15.3483   -3.1833 H   0  0  0  0  0  0  0  0  0  0  0  0
    5.2792  -17.2672   -4.7485 H   0  0  0  0  0  0  0  0  0  0  0  0
    5.7293  -18.1108   -6.8676 H   0  0  0  0  0  0  0  0  0  0  0  0
    5.8782  -16.9130   -8.2341 H   0  0  0  0  0  0  0  0  0  0  0  0
    7.5990  -18.6140   -8.1290 H   0  0  0  0  0  0  0  0  0  0  0  0
    9.1610  -16.6880   -5.5940 H   0  0  0  0  0  0  0  0  0  0  0  0
    8.0634  -18.4427   -3.9868 H   0  0  0  0  0  0  0  0  0  0  0  0
    9.7986  -18.9173   -3.8850 H   0  0  0  0  0  0  0  0  0  0  0  0
   10.2783  -18.1328   -1.6614 H   0  0  0  0  0  0  0  0  0  0  0  0
   11.0491  -16.1747   -0.3393 H   0  0  0  0  0  0  0  0  0  0  0  0
   11.7808  -13.7386    0.9091 H   0  0  0  0  0  0  0  0  0  0  0  0
   12.3736  -14.8348   -0.3846 H   0  0  0  0  0  0  0  0  0  0  0  0
   12.8531  -13.1037   -0.3846 H   0  0  0  0  0  0  0  0  0  0  0  0
   11.3973  -11.4066   -1.3092 H   0  0  0  0  0  0  0  0  0  0  0  0
   12.0080  -12.5432   -2.5589 H   0  0  0  0  0  0  0  0  0  0  0  0
   10.2802  -12.0522   -2.5589 H   0  0  0  0  0  0  0  0  0  0  0  0
    9.1150  -12.5390   -0.7070 H   0  0  0  0  0  0  0  0  0  0  0  0
    9.2426  -13.5264   -3.2321 H   0  0  0  0  0  0  0  0  0  0  0  0
    8.4341  -15.4798   -4.5329 H   0  0  0  0  0  0  0  0  0  0  0  0
   11.3122  -18.5722   -5.5793 H   0  0  0  0  0  0  0  0  0  0  0  0
   12.0948  -16.7132   -7.2888 H   0  0  0  0  0  0  0  0  0  0  0  0
   10.6993  -15.8159   -6.5372 H   0  0  0  0  0  0  0  0  0  0  0  0
   12.2296  -14.1197   -5.5933 H   0  0  0  0  0  0  0  0  0  0  0  0
   13.5871  -13.5380   -3.5862 H   0  0  0  0  0  0  0  0  0  0  0  0
   14.4267  -15.3359   -2.0809 H   0  0  0  0  0  0  0  0  0  0  0  0
   13.9342  -17.7234   -2.5933 H   0  0  0  0  0  0  0  0  0  0  0  0
   12.5769  -18.3177   -4.5977 H   0  0  0  0  0  0  0  0  0  0  0  0
    9.5089  -19.2968   -7.4145 H   0  0  0  0  0  0  0  0  0  0  0  0
   11.3280  -20.0970   -8.4870 H   0  0  0  0  0  0  0  0  0  0  0  0
   10.7567  -16.9719   -8.8706 H   0  0  0  0  0  0  0  0  0  0  0  0
   10.5620  -18.8010  -10.2500 H   0  0  0  0  0  0  0  0  0  0  0  0
    8.8679  -15.9535   -7.9028 H   0  0  0  0  0  0  0  0  0  0  0  0
    8.3527  -17.0366  -10.5830 H   0  0  0  0  0  0  0  0  0  0  0  0
    6.8258  -16.7538   -9.6270 H   0  0  0  0  0  0  0  0  0  0  0  0
   10.1232  -14.9441   -9.9912 H   0  0  0  0  0  0  0  0  0  0  0  0
   10.2435  -12.4965  -10.4274 H   0  0  0  0  0  0  0  0  0  0  0  0
    8.1543  -11.1751  -10.7366 H   0  0  0  0  0  0  0  0  0  0  0  0
    5.9364  -12.3121  -10.6493 H   0  0  0  0  0  0  0  0  0  0  0  0
    5.8037  -14.7627  -10.2134 H   0  0  0  0  0  0  0  0  0  0  0  0
    7.3335  -14.7569   -7.6023 H   0  0  0  0  0  0  0  0  0  0  0  0
    7.1837  -12.8415   -6.0274 H   0  0  0  0  0  0  0  0  0  0  0  0
  1  2  1  0
  2  3  1  0
  2  4  1  0
  2  5  1  0
  5  6  2  0
  6  7  1  0
  7  8  2  0
  8  9  1  0
  9 10  1  0
 10 11  1  0
 11 12  2  0
 11 13  1  0
 13 14  1  0
 14 15  1  0
 15 16  2  0
 16 17  1  0
 17 18  2  0
 18 19  1  0
 19 20  1  0
 19 21  1  0
 19 22  1  0
 18 23  1  0
 23 24  2  0
 13 25  1  0
 25 26  1  0
 26 27  1  0
 27 28  2  0
 28 29  1  0
 29 30  2  0
 30 31  1  0
 31 32  2  0
 25 33  1  0
 33 34  1  0
 33 35  1  0
 35 36  1  0
 35 37  1  0
 37 38  1  0
 38 39  1  0
 39 40  2  0
 40 41  1  0
 41 42  2  0
 42 43  1  0
 43 44  2  0
  8 45  1  0
 45 46  2  0
 46  5  1  0
 37 10  1  0
 44 39  1  0
 24 15  1  0
 32 27  1  0
  1 47  1  0
  1 48  1  0
  1 49  1  0
  3 50  1  0
  3 51  1  0
  3 52  1  0
  4 53  1  0
  6 54  1  0
  7 55  1  0
  9 56  1  0
  9 57  1  0
 10 58  1  0
 13 59  1  0
 14 60  1  0
 14 61  1  0
 16 62  1  0
 17 63  1  0
 20 64  1  0
 20 65  1  0
 20 66  1  0
 21 67  1  0
 21 68  1  0
 21 69  1  0
 22 70  1  0
 23 71  1  0
 24 72  1  0
 25 73  1  1
 26 74  1  0
 26 75  1  0
 28 76  1  0
 29 77  1  0
 30 78  1  0
 31 79  1  0
 32 80  1  0
 33 81  1  1
 34 82  1  0
 35 83  1  6
 36 84  1  0
 37 85  1  1
 38 86  1  0
 38 87  1  0
 40 88  1  0
 41 89  1  0
 42 90  1  0
 43 91  1  0
 44 92  1  0
 45 93  1  0
 46 94  1  0
M  CHG  2  10   1  13   1
M  END
>  <meeko>  (6) 
{"is_sidechain": [false], "free_energy": -6.333, "intermolecular_energy": -12.058, "internal_energy": -4.911}

$$$$
LIB_BOCXRPAGFDSAFB__M_PUB_ALL__e8__s20260927
     RDKit          3D

 94 98  0  0  0  0  0  0  0  0999 V2000
    5.8870  -12.5830   -6.1810 C   0  0  0  0  0  0  0  0  0  0  0  0
    6.6760  -13.6300   -5.3860 C   0  0  0  0  0  0  0  0  0  0  0  0
    7.2780  -14.6750   -6.3320 C   0  0  0  0  0  0  0  0  0  0  0  0
    7.7520  -12.9310   -4.7450 O   0  0  0  0  0  0  0  0  0  0  0  0
    5.8590  -14.3270   -4.2960 C   0  0  0  0  0  0  0  0  0  0  0  0
    5.3270  -15.6070   -4.5260 C   0  0  0  0  0  0  0  0  0  0  0  0
    4.5770  -16.2710   -3.5540 C   0  0  0  0  0  0  0  0  0  0  0  0
    4.3450  -15.6750   -2.3080 C   0  0  0  0  0  0  0  0  0  0  0  0
    3.5830  -16.4070   -1.2360 C   0  0  0  0  0  0  0  0  0  0  0  0
    2.5250  -15.5530   -0.5740 N   0  0  0  0  0  0  0  0  0  0  0  0
    2.1340  -16.1020    0.6860 C   0  0  0  0  0  0  0  0  0  0  0  0
    2.3770  -17.2790    0.8450 O   0  0  0  0  0  0  0  0  0  0  0  0
    1.6140  -15.3540    1.8040 N   0  0  0  0  0  0  0  0  0  0  0  0
    2.7410  -14.8430    2.6700 C   0  0  0  0  0  0  0  0  0  0  0  0
    3.7510  -14.1090    1.8290 C   0  0  0  0  0  0  0  0  0  0  0  0
    3.4490  -12.8440    1.3030 C   0  0  0  0  0  0  0  0  0  0  0  0
    4.4450  -12.0710    0.7000 C   0  0  0  0  0  0  0  0  0  0  0  0
    5.7650  -12.5360    0.6090 C   0  0  0  0  0  0  0  0  0  0  0  0
    6.9130  -11.6820    0.0700 C   0  0  0  0  0  0  0  0  0  0  0  0
    8.1870  -12.5120   -0.1420 C   0  0  0  0  0  0  0  0  0  0  0  0
    6.6030  -10.9020   -1.2150 C   0  0  0  0  0  0  0  0  0  0  0  0
    7.1470  -10.7060    1.0960 O   0  0  0  0  0  0  0  0  0  0  0  0
    6.0340  -13.8350    1.0810 C   0  0  0  0  0  0  0  0  0  0  0  0
    5.0430  -14.6190    1.6720 C   0  0  0  0  0  0  0  0  0  0  0  0
    0.5990  -14.3430    1.2580 C   0  0  2  0  0  0  0  0  0  0  0  0
   -0.0960  -13.5650    2.4040 C   0  0  0  0  0  0  0  0  0  0  0  0
   -0.3850  -12.1300    2.0440 C   0  0  0  0  0  0  0  0  0  0  0  0
   -1.2920  -11.3710    2.7990 C   0  0  0  0  0  0  0  0  0  0  0  0
   -1.5320  -10.0350    2.4780 C   0  0  0  0  0  0  0  0  0  0  0  0
   -0.8750   -9.4470    1.3990 C   0  0  0  0  0  0  0  0  0  0  0  0
    0.0140  -10.1950    0.6330 C   0  0  0  0  0  0  0  0  0  0  0  0
    0.2570  -11.5320    0.9500 C   0  0  0  0  0  0  0  0  0  0  0  0
   -0.4280  -15.1930    0.4450 C   0  0  2  0  0  0  0  0  0  0  0  0
   -0.6720  -16.3810    1.2130 O   0  0  0  0  0  0  0  0  0  0  0  0
    0.0480  -15.6030   -0.9770 C   0  0  1  0  0  0  0  0  0  0  0  0
   -0.9410  -15.2350   -1.9430 O   0  0  0  0  0  0  0  0  0  0  0  0
    1.4130  -14.9710   -1.4330 C   0  0  1  0  0  0  0  0  0  0  0  0
    1.3780  -13.4280   -1.2860 C   0  0  0  0  0  0  0  0  0  0  0  0
    1.9210  -12.7070   -2.4960 C   0  0  0  0  0  0  0  0  0  0  0  0
    1.8950  -13.3240   -3.7550 C   0  0  0  0  0  0  0  0  0  0  0  0
    2.4190  -12.6740   -4.8710 C   0  0  0  0  0  0  0  0  0  0  0  0
    2.9650  -11.4000   -4.7460 C   0  0  0  0  0  0  0  0  0  0  0  0
    2.9770  -10.7670   -3.5040 C   0  0  0  0  0  0  0  0  0  0  0  0
    2.4540  -11.4130   -2.3830 C   0  0  0  0  0  0  0  0  0  0  0  0
    4.8170  -14.3750   -2.0900 C   0  0  0  0  0  0  0  0  0  0  0  0
    5.5660  -13.7130   -3.0700 C   0  0  0  0  0  0  0  0  0  0  0  0
    5.3747  -11.9032   -5.4843 H   0  0  0  0  0  0  0  0  0  0  0  0
    6.5774  -12.0068   -6.8145 H   0  0  0  0  0  0  0  0  0  0  0  0
    5.1428  -13.0879   -6.8145 H   0  0  0  0  0  0  0  0  0  0  0  0
    7.7415  -15.4796   -5.7423 H   0  0  0  0  0  0  0  0  0  0  0  0
    6.4840  -15.0960   -6.9663 H   0  0  0  0  0  0  0  0  0  0  0  0
    8.0405  -14.1993   -6.9663 H   0  0  0  0  0  0  0  0  0  0  0  0
    7.6090  -11.9780   -4.8850 H   0  0  0  0  0  0  0  0  0  0  0  0
    5.5057  -16.0971   -5.4944 H   0  0  0  0  0  0  0  0  0  0  0  0
    4.1656  -17.2685   -3.7679 H   0  0  0  0  0  0  0  0  0  0  0  0
    3.0940  -17.2820   -1.6891 H   0  0  0  0  0  0  0  0  0  0  0  0
    4.3055  -16.6965   -0.4587 H   0  0  0  0  0  0  0  0  0  0  0  0
    3.0240  -14.7210   -0.2200 H   0  0  0  0  0  0  0  0  0  0  0  0
    1.0740  -15.9840    2.4070 H   0  0  0  0  0  0  0  0  0  0  0  0
    2.3343  -14.1587    3.4292 H   0  0  0  0  0  0  0  0  0  0  0  0
    3.2334  -15.6965    3.1589 H   0  0  0  0  0  0  0  0  0  0  0  0
    2.4209  -12.4578    1.3656 H   0  0  0  0  0  0  0  0  0  0  0  0
    4.1897  -11.0825    0.2904 H   0  0  0  0  0  0  0  0  0  0  0  0
    8.6113  -12.7884    0.8345 H   0  0  0  0  0  0  0  0  0  0  0  0
    7.9410  -13.4237   -0.7062 H   0  0  0  0  0  0  0  0  0  0  0  0
    8.9215  -11.9186   -0.7062 H   0  0  0  0  0  0  0  0  0  0  0  0
    6.2083   -9.9088   -0.9548 H   0  0  0  0  0  0  0  0  0  0  0  0
    7.5239  -10.7874   -1.8056 H   0  0  0  0  0  0  0  0  0  0  0  0
    5.8546  -11.4508   -1.8056 H   0  0  0  0  0  0  0  0  0  0  0  0
    7.6820  -11.1390    1.7870 H   0  0  0  0  0  0  0  0  0  0  0  0
    7.0511  -14.2418    0.9812 H   0  0  0  0  0  0  0  0  0  0  0  0
    5.2781  -15.6377    2.0142 H   0  0  0  0  0  0  0  0  0  0  0  0
    1.0827  -13.5788    0.6319 H   0  0  0  0  0  0  0  0  0  0  0  0
   -1.0459  -14.0656    2.6431 H   0  0  0  0  0  0  0  0  0  0  0  0
    0.5898  -13.5592    3.2640 H   0  0  0  0  0  0  0  0  0  0  0  0
   -1.8167  -11.8321    3.6487 H   0  0  0  0  0  0  0  0  0  0  0  0
   -2.2408   -9.4448    3.0774 H   0  0  0  0  0  0  0  0  0  0  0  0
   -1.0592   -8.3909    1.1525 H   0  0  0  0  0  0  0  0  0  0  0  0
    0.5258   -9.7317   -0.2234 H   0  0  0  0  0  0  0  0  0  0  0  0
    0.9564  -12.1205    0.3380 H   0  0  0  0  0  0  0  0  0  0  0  0
   -1.3243  -14.5755    0.2859 H   0  0  0  0  0  0  0  0  0  0  0  0
   -0.6250  -16.1340    2.1660 H   0  0  0  0  0  0  0  0  0  0  0  0
    0.2001  -16.6908   -0.9173 H   0  0  0  0  0  0  0  0  0  0  0  0
   -0.5390  -14.5840   -2.5630 H   0  0  0  0  0  0  0  0  0  0  0  0
    1.5914  -15.2059   -2.4927 H   0  0  0  0  0  0  0  0  0  0  0  0
    0.3352  -13.1145   -1.1300 H   0  0  0  0  0  0  0  0  0  0  0  0
    2.0186  -13.1646   -0.4315 H   0  0  0  0  0  0  0  0  0  0  0  0
    1.4581  -14.3278   -3.8625 H   0  0  0  0  0  0  0  0  0  0  0  0
    2.4010  -13.1692   -5.8531 H   0  0  0  0  0  0  0  0  0  0  0  0
    3.3867  -10.8930   -5.6264 H   0  0  0  0  0  0  0  0  0  0  0  0
    3.3997   -9.7561   -3.4074 H   0  0  0  0  0  0  0  0  0  0  0  0
    2.4594  -10.9062   -1.4067 H   0  0  0  0  0  0  0  0  0  0  0  0
    4.5970  -13.8685   -1.1387 H   0  0  0  0  0  0  0  0  0  0  0  0
    5.9309  -12.6938   -2.8749 H   0  0  0  0  0  0  0  0  0  0  0  0
  1  2  1  0
  2  3  1  0
  2  4  1  0
  2  5  1  0
  5  6  2  0
  6  7  1  0
  7  8  2  0
  8  9  1  0
  9 10  1  0
 10 11  1  0
 11 12  2  0
 11 13  1  0
 13 14  1  0
 14 15  1  0
 15 16  2  0
 16 17  1  0
 17 18  2  0
 18 19  1  0
 19 20  1  0
 19 21  1  0
 19 22  1  0
 18 23  1  0
 23 24  2  0
 13 25  1  0
 25 26  1  0
 26 27  1  0
 27 28  2  0
 28 29  1  0
 29 30  2  0
 30 31  1  0
 31 32  2  0
 25 33  1  0
 33 34  1  0
 33 35  1  0
 35 36  1  0
 35 37  1  0
 37 38  1  0
 38 39  1  0
 39 40  2  0
 40 41  1  0
 41 42  2  0
 42 43  1  0
 43 44  2  0
  8 45  1  0
 45 46  2  0
 46  5  1  0
 37 10  1  0
 44 39  1  0
 24 15  1  0
 32 27  1  0
  1 47  1  0
  1 48  1  0
  1 49  1  0
  3 50  1  0
  3 51  1  0
  3 52  1  0
  4 53  1  0
  6 54  1  0
  7 55  1  0
  9 56  1  0
  9 57  1  0
 10 58  1  0
 13 59  1  0
 14 60  1  0
 14 61  1  0
 16 62  1  0
 17 63  1  0
 20 64  1  0
 20 65  1  0
 20 66  1  0
 21 67  1  0
 21 68  1  0
 21 69  1  0
 22 70  1  0
 23 71  1  0
 24 72  1  0
 25 73  1  6
 26 74  1  0
 26 75  1  0
 28 76  1  0
 29 77  1  0
 30 78  1  0
 31 79  1  0
 32 80  1  0
 33 81  1  6
 34 82  1  0
 35 83  1  1
 36 84  1  0
 37 85  1  6
 38 86  1  0
 38 87  1  0
 40 88  1  0
 41 89  1  0
 42 90  1  0
 43 91  1  0
 44 92  1  0
 45 93  1  0
 46 94  1  0
M  CHG  2  10   1  13   1
M  END
>  <meeko>  (7) 
{"is_sidechain": [false], "free_energy": -6.241, "intermolecular_energy": -12.922, "internal_energy": -3.859}

$$$$
LIB_BOCXRPAGFDSAFB__M_PUB_ALL__e8__s20260927
     RDKit          3D

 94 98  0  0  0  0  0  0  0  0999 V2000
    7.1980  -18.5040   -5.4090 C   0  0  0  0  0  0  0  0  0  0  0  0
    7.0020  -17.3920   -6.4470 C   0  0  0  0  0  0  0  0  0  0  0  0
    8.2820  -17.1980   -7.2680 C   0  0  0  0  0  0  0  0  0  0  0  0
    5.9650  -17.8380   -7.3320 O   0  0  0  0  0  0  0  0  0  0  0  0
    6.5620  -16.0560   -5.8490 C   0  0  0  0  0  0  0  0  0  0  0  0
    5.6310  -16.0290   -4.7960 C   0  0  0  0  0  0  0  0  0  0  0  0
    5.2070  -14.8270   -4.2270 C   0  0  0  0  0  0  0  0  0  0  0  0
    5.7150  -13.6050   -4.6890 C   0  0  0  0  0  0  0  0  0  0  0  0
    5.3030  -12.3090   -4.0450 C   0  0  0  0  0  0  0  0  0  0  0  0
    6.0040  -12.0520   -2.7310 N   0  0  0  0  0  0  0  0  0  0  0  0
    7.4180  -11.9550   -2.9110 C   0  0  0  0  0  0  0  0  0  0  0  0
    7.8240  -10.8880   -3.3190 O   0  0  0  0  0  0  0  0  0  0  0  0
    8.3870  -12.9510   -2.5240 N   0  0  0  0  0  0  0  0  0  0  0  0
    9.4030  -13.1580   -3.6210 C   0  0  0  0  0  0  0  0  0  0  0  0
    9.9300  -14.5680   -3.5840 C   0  0  0  0  0  0  0  0  0  0  0  0
    9.0670  -15.6390   -3.3050 C   0  0  0  0  0  0  0  0  0  0  0  0
    9.4990  -16.9580   -3.4700 C   0  0  0  0  0  0  0  0  0  0  0  0
   10.7960  -17.2430   -3.9190 C   0  0  0  0  0  0  0  0  0  0  0  0
   11.2760  -18.6600   -4.2310 C   0  0  0  0  0  0  0  0  0  0  0  0
   11.1470  -18.9880   -5.7250 C   0  0  0  0  0  0  0  0  0  0  0  0
   12.7030  -18.9870   -3.7680 C   0  0  0  0  0  0  0  0  0  0  0  0
   10.3960  -19.5110   -3.4800 O   0  0  0  0  0  0  0  0  0  0  0  0
   11.6680  -16.1580   -4.1270 C   0  0  0  0  0  0  0  0  0  0  0  0
   11.2500  -14.8380   -3.9520 C   0  0  0  0  0  0  0  0  0  0  0  0
    8.8920  -12.5890   -1.1220 C   0  0  2  0  0  0  0  0  0  0  0  0
   10.2560  -13.2610   -0.8230 C   0  0  0  0  0  0  0  0  0  0  0  0
   11.3620  -12.2610   -0.5950 C   0  0  0  0  0  0  0  0  0  0  0  0
   12.4270  -12.1540   -1.5020 C   0  0  0  0  0  0  0  0  0  0  0  0
   13.4310  -11.2060   -1.3000 C   0  0  0  0  0  0  0  0  0  0  0  0
   13.3840  -10.3630   -0.1920 C   0  0  0  0  0  0  0  0  0  0  0  0
   12.3400  -10.4720    0.7220 C   0  0  0  0  0  0  0  0  0  0  0  0
   11.3330  -11.4190    0.5260 C   0  0  0  0  0  0  0  0  0  0  0  0
    7.7830  -13.0950   -0.1440 C   0  0  2  0  0  0  0  0  0  0  0  0
    7.5840  -14.4850   -0.4400 O   0  0  0  0  0  0  0  0  0  0  0  0
    6.4140  -12.3470   -0.2720 C   0  0  1  0  0  0  0  0  0  0  0  0
    6.6470  -10.9420   -0.4050 O   0  0  0  0  0  0  0  0  0  0  0  0
    5.5300  -12.7970   -1.4920 C   0  0  1  0  0  0  0  0  0  0  0  0
    4.0340  -12.4900   -1.2250 C   0  0  0  0  0  0  0  0  0  0  0  0
    3.1550  -13.7140   -1.3160 C   0  0  0  0  0  0  0  0  0  0  0  0
    1.9110  -13.6420   -1.9590 C   0  0  0  0  0  0  0  0  0  0  0  0
    1.0830  -14.7620   -2.0230 C   0  0  0  0  0  0  0  0  0  0  0  0
    1.4910  -15.9660   -1.4560 C   0  0  0  0  0  0  0  0  0  0  0  0
    2.7340  -16.0560   -0.8330 C   0  0  0  0  0  0  0  0  0  0  0  0
    3.5660  -14.9380   -0.7660 C   0  0  0  0  0  0  0  0  0  0  0  0
    6.5950  -13.6160   -5.7790 C   0  0  0  0  0  0  0  0  0  0  0  0
    7.0140  -14.8250   -6.3470 C   0  0  0  0  0  0  0  0  0  0  0  0
    7.1230  -18.0786   -4.3974 H   0  0  0  0  0  0  0  0  0  0  0  0
    6.4213  -19.2714   -5.5426 H   0  0  0  0  0  0  0  0  0  0  0  0
    8.1903  -18.9595   -5.5426 H   0  0  0  0  0  0  0  0  0  0  0  0
    9.1373  -17.0684   -6.5885 H   0  0  0  0  0  0  0  0  0  0  0  0
    8.4482  -18.0812   -7.9023 H   0  0  0  0  0  0  0  0  0  0  0  0
    8.1790  -16.3052   -7.9023 H   0  0  0  0  0  0  0  0  0  0  0  0
    6.3430  -17.8870   -8.2280 H   0  0  0  0  0  0  0  0  0  0  0  0
    5.2272  -16.9772   -4.4115 H   0  0  0  0  0  0  0  0  0  0  0  0
    4.4696  -14.8388   -3.4109 H   0  0  0  0  0  0  0  0  0  0  0  0
    5.5382  -11.4849   -4.7346 H   0  0  0  0  0  0  0  0  0  0  0  0
    4.2252  -12.3746   -3.8350 H   0  0  0  0  0  0  0  0  0  0  0  0
    5.8190  -11.0610   -2.5090 H   0  0  0  0  0  0  0  0  0  0  0  0
    7.9140  -13.8550   -2.4180 H   0  0  0  0  0  0  0  0  0  0  0  0
    8.9277  -12.9734   -4.5957 H   0  0  0  0  0  0  0  0  0  0  0  0
   10.2390  -12.4589   -3.4718 H   0  0  0  0  0  0  0  0  0  0  0  0
    8.0438  -15.4391   -2.9541 H   0  0  0  0  0  0  0  0  0  0  0  0
    8.8104  -17.7855   -3.2440 H   0  0  0  0  0  0  0  0  0  0  0  0
   10.7468  -20.0057   -5.8437 H   0  0  0  0  0  0  0  0  0  0  0  0
   10.4651  -18.2680   -6.2009 H   0  0  0  0  0  0  0  0  0  0  0  0
   12.1367  -18.9254   -6.2009 H   0  0  0  0  0  0  0  0  0  0  0  0
   12.7389  -18.9952   -2.6686 H   0  0  0  0  0  0  0  0  0  0  0  0
   12.9956  -19.9755   -4.1518 H   0  0  0  0  0  0  0  0  0  0  0  0
   13.3968  -18.2246   -4.1518 H   0  0  0  0  0  0  0  0  0  0  0  0
    9.5450  -19.0420   -3.3990 H   0  0  0  0  0  0  0  0  0  0  0  0
   12.7053  -16.3554   -4.4353 H   0  0  0  0  0  0  0  0  0  0  0  0
   11.9594  -14.0111   -4.1037 H   0  0  0  0  0  0  0  0  0  0  0  0
    9.0648  -11.5076   -1.0180 H   0  0  0  0  0  0  0  0  0  0  0  0
   10.1518  -13.8818    0.0791 H   0  0  0  0  0  0  0  0  0  0  0  0
   10.5291  -13.8625   -1.7026 H   0  0  0  0  0  0  0  0  0  0  0  0
   12.4708  -12.8203   -2.3762 H   0  0  0  0  0  0  0  0  0  0  0  0
   14.2611  -11.1243   -2.0171 H   0  0  0  0  0  0  0  0  0  0  0  0
   14.1722   -9.6110   -0.0394 H   0  0  0  0  0  0  0  0  0  0  0  0
   12.3082   -9.8107    1.6005 H   0  0  0  0  0  0  0  0  0  0  0  0
   10.5131  -11.5050    1.2543 H   0  0  0  0  0  0  0  0  0  0  0  0
    8.1248  -12.9071    0.8845 H   0  0  0  0  0  0  0  0  0  0  0  0
    7.6870  -14.6000   -1.4140 H   0  0  0  0  0  0  0  0  0  0  0  0
    5.8607  -12.6010    0.6442 H   0  0  0  0  0  0  0  0  0  0  0  0
    5.9020  -10.4630    0.0250 H   0  0  0  0  0  0  0  0  0  0  0  0
    5.6316  -13.8821   -1.6410 H   0  0  0  0  0  0  0  0  0  0  0  0
    3.9384  -12.0641   -0.2153 H   0  0  0  0  0  0  0  0  0  0  0  0
    3.6991  -11.7861   -2.0011 H   0  0  0  0  0  0  0  0  0  0  0  0
    1.5862  -12.6956   -2.4160 H   0  0  0  0  0  0  0  0  0  0  0  0
    0.1054  -14.6940   -2.5226 H   0  0  0  0  0  0  0  0  0  0  0  0
    0.8324  -16.8460   -1.4998 H   0  0  0  0  0  0  0  0  0  0  0  0
    3.0599  -17.0101   -0.3932 H   0  0  0  0  0  0  0  0  0  0  0  0
    4.5494  -15.0164   -0.2794 H   0  0  0  0  0  0  0  0  0  0  0  0
    6.9606  -12.6647   -6.1929 H   0  0  0  0  0  0  0  0  0  0  0  0
    7.7099  -14.8094   -7.1988 H   0  0  0  0  0  0  0  0  0  0  0  0
  1  2  1  0
  2  3  1  0
  2  4  1  0
  2  5  1  0
  5  6  2  0
  6  7  1  0
  7  8  2  0
  8  9  1  0
  9 10  1  0
 10 11  1  0
 11 12  2  0
 11 13  1  0
 13 14  1  0
 14 15  1  0
 15 16  2  0
 16 17  1  0
 17 18  2  0
 18 19  1  0
 19 20  1  0
 19 21  1  0
 19 22  1  0
 18 23  1  0
 23 24  2  0
 13 25  1  0
 25 26  1  0
 26 27  1  0
 27 28  2  0
 28 29  1  0
 29 30  2  0
 30 31  1  0
 31 32  2  0
 25 33  1  0
 33 34  1  0
 33 35  1  0
 35 36  1  0
 35 37  1  0
 37 38  1  0
 38 39  1  0
 39 40  2  0
 40 41  1  0
 41 42  2  0
 42 43  1  0
 43 44  2  0
  8 45  1  0
 45 46  2  0
 46  5  1  0
 37 10  1  0
 44 39  1  0
 24 15  1  0
 32 27  1  0
  1 47  1  0
  1 48  1  0
  1 49  1  0
  3 50  1  0
  3 51  1  0
  3 52  1  0
  4 53  1  0
  6 54  1  0
  7 55  1  0
  9 56  1  0
  9 57  1  0
 10 58  1  0
 13 59  1  0
 14 60  1  0
 14 61  1  0
 16 62  1  0
 17 63  1  0
 20 64  1  0
 20 65  1  0
 20 66  1  0
 21 67  1  0
 21 68  1  0
 21 69  1  0
 22 70  1  0
 23 71  1  0
 24 72  1  0
 25 73  1  6
 26 74  1  0
 26 75  1  0
 28 76  1  0
 29 77  1  0
 30 78  1  0
 31 79  1  0
 32 80  1  0
 33 81  1  1
 34 82  1  0
 35 83  1  1
 36 84  1  0
 37 85  1  6
 38 86  1  0
 38 87  1  0
 40 88  1  0
 41 89  1  0
 42 90  1  0
 43 91  1  0
 44 92  1  0
 45 93  1  0
 46 94  1  0
M  CHG  2  10   1  13   1
M  END
>  <meeko>  (8) 
{"is_sidechain": [false], "free_energy": -6.111, "intermolecular_energy": -12.261, "internal_energy": -4.254}

$$$$
LIB_BOCXRPAGFDSAFB__M_PUB_ALL__e8__s20260927
     RDKit          3D

 94 98  0  0  0  0  0  0  0  0999 V2000
   -3.2840  -18.2190    4.0900 C   0  0  0  0  0  0  0  0  0  0  0  0
   -2.8950  -16.7490    3.8920 C   0  0  0  0  0  0  0  0  0  0  0  0
   -4.1330  -15.8510    3.9910 C   0  0  0  0  0  0  0  0  0  0  0  0
   -2.0090  -16.4120    4.9690 O   0  0  0  0  0  0  0  0  0  0  0  0
   -2.1580  -16.4730    2.5800 C   0  0  0  0  0  0  0  0  0  0  0  0
   -1.3470  -17.4680    2.0070 C   0  0  0  0  0  0  0  0  0  0  0  0
   -0.6610  -17.2510    0.8110 C   0  0  0  0  0  0  0  0  0  0  0  0
   -0.7760  -16.0260    0.1400 C   0  0  0  0  0  0  0  0  0  0  0  0
   -0.0820  -15.8030   -1.1760 C   0  0  0  0  0  0  0  0  0  0  0  0
    1.3290  -15.2850   -1.0210 N   0  0  0  0  0  0  0  0  0  0  0  0
    1.6580  -14.3630   -2.0620 C   0  0  0  0  0  0  0  0  0  0  0  0
    0.9000  -14.3470   -3.0090 O   0  0  0  0  0  0  0  0  0  0  0  0
    2.7120  -13.3800   -2.0150 N   0  0  0  0  0  0  0  0  0  0  0  0
    2.9170  -12.8910   -0.6010 C   0  0  0  0  0  0  0  0  0  0  0  0
    1.6620  -12.2360   -0.0890 C   0  0  0  0  0  0  0  0  0  0  0  0
    1.0380  -12.7120    1.0740 C   0  0  0  0  0  0  0  0  0  0  0  0
    0.0000  -11.9890    1.6680 C   0  0  0  0  0  0  0  0  0  0  0  0
   -0.4400  -10.7750    1.1220 C   0  0  0  0  0  0  0  0  0  0  0  0
   -1.4860   -9.8890    1.7980 C   0  0  0  0  0  0  0  0  0  0  0  0
   -2.4950   -9.3280    0.7860 C   0  0  0  0  0  0  0  0  0  0  0  0
   -2.2500  -10.5440    2.9570 C   0  0  0  0  0  0  0  0  0  0  0  0
   -0.7290   -8.8080    2.3640 O   0  0  0  0  0  0  0  0  0  0  0  0
    0.1510  -10.3480   -0.0820 C   0  0  0  0  0  0  0  0  0  0  0  0
    1.1790  -11.0700   -0.6900 C   0  0  0  0  0  0  0  0  0  0  0  0
    3.9180  -13.9510   -2.7710 C   0  0  2  0  0  0  0  0  0  0  0  0
    3.5170  -14.4370   -4.1860 C   0  0  0  0  0  0  0  0  0  0  0  0
    4.3650  -13.8260   -5.2740 C   0  0  0  0  0  0  0  0  0  0  0  0
    4.0170  -12.5930   -5.8450 C   0  0  0  0  0  0  0  0  0  0  0  0
    4.8220  -12.0210   -6.8300 C   0  0  0  0  0  0  0  0  0  0  0  0
    5.9750  -12.6750   -7.2580 C   0  0  0  0  0  0  0  0  0  0  0  0
    6.3200  -13.9070   -6.7100 C   0  0  0  0  0  0  0  0  0  0  0  0
    5.5180  -14.4850   -5.7240 C   0  0  0  0  0  0  0  0  0  0  0  0
    4.4300  -15.1340   -1.8880 C   0  0  2  0  0  0  0  0  0  0  0  0
    5.6560  -15.5840   -2.4830 O   0  0  0  0  0  0  0  0  0  0  0  0
    3.4690  -16.3560   -1.7790 C   0  0  1  0  0  0  0  0  0  0  0  0
    4.2160  -17.5620   -1.5870 O   0  0  0  0  0  0  0  0  0  0  0  0
    2.4240  -16.2570   -0.6090 C   0  0  1  0  0  0  0  0  0  0  0  0
    3.1070  -15.7700    0.6950 C   0  0  0  0  0  0  0  0  0  0  0  0
    2.5600  -16.4380    1.9330 C   0  0  0  0  0  0  0  0  0  0  0  0
    2.6590  -17.8280    2.0860 C   0  0  0  0  0  0  0  0  0  0  0  0
    2.1320  -18.4540    3.2160 C   0  0  0  0  0  0  0  0  0  0  0  0
    1.5100  -17.6990    4.2070 C   0  0  0  0  0  0  0  0  0  0  0  0
    1.4240  -16.3150    4.0770 C   0  0  0  0  0  0  0  0  0  0  0  0
    1.9500  -15.6840    2.9480 C   0  0  0  0  0  0  0  0  0  0  0  0
   -1.5310  -15.0070    0.7340 C   0  0  0  0  0  0  0  0  0  0  0  0
   -2.2140  -15.2300    1.9350 C   0  0  0  0  0  0  0  0  0  0  0  0
   -3.3428  -18.4410    5.1658 H   0  0  0  0  0  0  0  0  0  0  0  0
   -4.2624  -18.4055    3.6231 H   0  0  0  0  0  0  0  0  0  0  0  0
   -2.5259  -18.8650    3.6231 H   0  0  0  0  0  0  0  0  0  0  0  0
   -4.3750  -15.6755    5.0496 H   0  0  0  0  0  0  0  0  0  0  0  0
   -3.9289  -14.8895    3.4972 H   0  0  0  0  0  0  0  0  0  0  0  0
   -4.9837  -16.3435    3.4972 H   0  0  0  0  0  0  0  0  0  0  0  0
   -1.1450  -16.8190    4.7780 H   0  0  0  0  0  0  0  0  0  0  0  0
   -1.2508  -18.4400    2.5129 H   0  0  0  0  0  0  0  0  0  0  0  0
   -0.0264  -18.0461    0.3926 H   0  0  0  0  0  0  0  0  0  0  0  0
   -0.0465  -16.7587   -1.7196 H   0  0  0  0  0  0  0  0  0  0  0  0
   -0.6538  -15.0392   -1.7234 H   0  0  0  0  0  0  0  0  0  0  0  0
    1.2910  -14.6110   -0.2390 H   0  0  0  0  0  0  0  0  0  0  0  0
    2.4220  -12.5520   -2.5480 H   0  0  0  0  0  0  0  0  0  0  0  0
    3.1708  -13.7443    0.0451 H   0  0  0  0  0  0  0  0  0  0  0  0
    3.7348  -12.1554   -0.5912 H   0  0  0  0  0  0  0  0  0  0  0  0
    1.3682  -13.6611    1.5215 H   0  0  0  0  0  0  0  0  0  0  0  0
   -0.4793  -12.3785    2.5782 H   0  0  0  0  0  0  0  0  0  0  0  0
   -3.3335   -8.8618    1.3242 H   0  0  0  0  0  0  0  0  0  0  0  0
   -2.0008   -8.5751    0.1544 H   0  0  0  0  0  0  0  0  0  0  0  0
   -2.8737  -10.1451    0.1544 H   0  0  0  0  0  0  0  0  0  0  0  0
   -1.8380  -10.1908    3.9138 H   0  0  0  0  0  0  0  0  0  0  0  0
   -3.3143  -10.2735    2.8939 H   0  0  0  0  0  0  0  0  0  0  0  0
   -2.1452  -11.6372    2.8939 H   0  0  0  0  0  0  0  0  0  0  0  0
   -0.5910   -8.1530    1.6550 H   0  0  0  0  0  0  0  0  0  0  0  0
   -0.2064   -9.4218   -0.5557 H   0  0  0  0  0  0  0  0  0  0  0  0
    1.6086  -10.7220   -1.6409 H   0  0  0  0  0  0  0  0  0  0  0  0
    4.6981  -13.1916   -2.9281 H   0  0  0  0  0  0  0  0  0  0  0  0
    3.6270  -15.5307   -4.2266 H   0  0  0  0  0  0  0  0  0  0  0  0
    2.4767  -14.1257   -4.3616 H   0  0  0  0  0  0  0  0  0  0  0  0
    3.1048  -12.0747   -5.5144 H   0  0  0  0  0  0  0  0  0  0  0  0
    4.5457  -11.0513   -7.2698 H   0  0  0  0  0  0  0  0  0  0  0  0
    6.6127  -12.2179   -8.0289 H   0  0  0  0  0  0  0  0  0  0  0  0
    7.2264  -14.4264   -7.0544 H   0  0  0  0  0  0  0  0  0  0  0  0
    5.7919  -15.4616   -5.2983 H   0  0  0  0  0  0  0  0  0  0  0  0
    4.5315  -14.7500   -0.8622 H   0  0  0  0  0  0  0  0  0  0  0  0
    6.3980  -15.1480   -2.0020 H   0  0  0  0  0  0  0  0  0  0  0  0
    2.9130  -16.3615   -2.7281 H   0  0  0  0  0  0  0  0  0  0  0  0
    3.9130  -18.2210   -2.2530 H   0  0  0  0  0  0  0  0  0  0  0  0
    1.9938  -17.2505   -0.4146 H   0  0  0  0  0  0  0  0  0  0  0  0
    4.1838  -15.9846    0.6278 H   0  0  0  0  0  0  0  0  0  0  0  0
    2.9077  -14.6922    0.7877 H   0  0  0  0  0  0  0  0  0  0  0  0
    3.1555  -18.4291    1.3100 H   0  0  0  0  0  0  0  0  0  0  0  0
    2.2080  -19.5460    3.3243 H   0  0  0  0  0  0  0  0  0  0  0  0
    1.0866  -18.1956    5.0925 H   0  0  0  0  0  0  0  0  0  0  0  0
    0.9410  -15.7183    4.8648 H   0  0  0  0  0  0  0  0  0  0  0  0
    1.8861  -14.5899    2.8533 H   0  0  0  0  0  0  0  0  0  0  0  0
   -1.5878  -14.0203    0.2512 H   0  0  0  0  0  0  0  0  0  0  0  0
   -2.8048  -14.4159    2.3803 H   0  0  0  0  0  0  0  0  0  0  0  0
  1  2  1  0
  2  3  1  0
  2  4  1  0
  2  5  1  0
  5  6  2  0
  6  7  1  0
  7  8  2  0
  8  9  1  0
  9 10  1  0
 10 11  1  0
 11 12  2  0
 11 13  1  0
 13 14  1  0
 14 15  1  0
 15 16  2  0
 16 17  1  0
 17 18  2  0
 18 19  1  0
 19 20  1  0
 19 21  1  0
 19 22  1  0
 18 23  1  0
 23 24  2  0
 13 25  1  0
 25 26  1  0
 26 27  1  0
 27 28  2  0
 28 29  1  0
 29 30  2  0
 30 31  1  0
 31 32  2  0
 25 33  1  0
 33 34  1  0
 33 35  1  0
 35 36  1  0
 35 37  1  0
 37 38  1  0
 38 39  1  0
 39 40  2  0
 40 41  1  0
 41 42  2  0
 42 43  1  0
 43 44  2  0
  8 45  1  0
 45 46  2  0
 46  5  1  0
 37 10  1  0
 44 39  1  0
 24 15  1  0
 32 27  1  0
  1 47  1  0
  1 48  1  0
  1 49  1  0
  3 50  1  0
  3 51  1  0
  3 52  1  0
  4 53  1  0
  6 54  1  0
  7 55  1  0
  9 56  1  0
  9 57  1  0
 10 58  1  0
 13 59  1  0
 14 60  1  0
 14 61  1  0
 16 62  1  0
 17 63  1  0
 20 64  1  0
 20 65  1  0
 20 66  1  0
 21 67  1  0
 21 68  1  0
 21 69  1  0
 22 70  1  0
 23 71  1  0
 24 72  1  0
 25 73  1  6
 26 74  1  0
 26 75  1  0
 28 76  1  0
 29 77  1  0
 30 78  1  0
 31 79  1  0
 32 80  1  0
 33 81  1  1
 34 82  1  0
 35 83  1  6
 36 84  1  0
 37 85  1  1
 38 86  1  0
 38 87  1  0
 40 88  1  0
 41 89  1  0
 42 90  1  0
 43 91  1  0
 44 92  1  0
 45 93  1  0
 46 94  1  0
M  CHG  2  10   1  13   1
M  END
>  <meeko>  (9) 
{"is_sidechain": [false], "free_energy": -6.084, "intermolecular_energy": -13.898, "internal_energy": -2.561}

$$$$
