LIB_ZZWXYBPRSDQAJH__M_PUB_ALL__e8__s20260927
     RDKit          3D

 79 83  0  0  0  0  0  0  0  0999 V2000
    1.2150  -13.8910   -4.7940 C   0  0  0  0  0  0  0  0  0  0  0  0
    2.2670  -13.6440   -3.6980 C   0  0  1  0  0  0  0  0  0  0  0  0
    3.5550  -14.3700   -4.1980 C   0  0  0  0  0  0  0  0  0  0  0  0
    3.9530  -14.0470   -5.3550 O   0  0  0  0  0  0  0  0  0  0  0  0
    4.0760  -15.1970   -3.3950 O   0  0  0  0  0  0  0  0  0  0  0  0
    2.4450  -12.1180   -3.5210 C   0  0  0  0  0  0  0  0  0  0  0  0
    2.9460  -11.7730   -2.1190 C   0  0  0  0  0  0  0  0  0  0  0  0
    1.9170  -12.1600   -1.0160 C   0  0  2  0  0  0  0  0  0  0  0  0
    0.9950  -10.9410   -0.7660 C   0  0  0  0  0  0  0  0  0  0  0  0
    2.7030  -12.4950    0.2690 C   0  0  0  0  0  0  0  0  0  0  0  0
    1.8010  -12.9580    1.4100 C   0  0  0  0  0  0  0  0  0  0  0  0
    0.9120  -14.1940    1.0770 C   0  0  2  0  0  0  0  0  0  0  0  0
    1.8610  -15.4300    1.0340 C   0  0  0  0  0  0  0  0  0  0  0  0
    0.2950  -14.0870   -0.3300 C   0  0  0  0  0  0  0  0  0  0  0  0
   -0.9090  -14.6290   -0.6030 C   0  0  0  0  0  0  0  0  0  0  0  0
   -1.7910  -15.3620    0.3640 C   0  0  0  0  0  0  0  0  0  0  0  0
   -1.1940  -15.5760    1.7730 C   0  0  2  0  0  0  0  0  0  0  0  0
   -2.2400  -16.0980    2.8580 C   0  0  1  0  0  0  0  0  0  0  0  0
   -3.4230  -15.1130    3.0550 C   0  0  0  0  0  0  0  0  0  0  0  0
   -2.8470  -17.4510    2.3670 C   0  0  0  0  0  0  0  0  0  0  0  0
   -3.6190  -18.2310    3.4450 C   0  0  0  0  0  0  0  0  0  0  0  0
   -2.7750  -18.4670    4.7010 C   0  0  1  0  0  0  0  0  0  0  0  0
   -1.7450  -19.3710    4.2780 O   0  0  0  0  0  0  0  0  0  0  0  0
   -2.2280  -17.1390    5.2970 C   0  0  1  0  0  0  0  0  0  0  0  0
   -3.3780  -16.3380    5.9390 C   0  0  0  0  0  0  0  0  0  0  0  0
   -1.2610  -17.5010    6.4800 C   0  0  0  0  0  0  0  0  0  0  0  0
   -0.2380  -18.1860    6.1960 O   0  0  0  0  0  0  0  0  0  0  0  0
   -1.6120  -17.0640    7.6180 O   0  0  0  0  0  0  0  0  0  0  0  0
   -1.4330  -16.3750    4.1870 C   0  0  2  0  0  0  0  0  0  0  0  0
   -0.7010  -15.1030    4.6580 C   0  0  0  0  0  0  0  0  0  0  0  0
    0.3200  -14.6430    3.6090 C   0  0  0  0  0  0  0  0  0  0  0  0
   -0.2700  -14.3680    2.1970 C   0  0  1  0  0  0  0  0  0  0  0  0
   -1.0930  -13.0460    2.2960 C   0  0  0  0  0  0  0  0  0  0  0  0
    1.0440  -13.3720   -1.4620 C   0  0  2  0  0  0  0  0  0  0  0  0
    1.8500  -14.3300   -2.3680 C   0  0  0  0  0  0  0  0  0  0  0  0
    0.2454  -14.1186   -4.3270 H   0  0  0  0  0  0  0  0  0  0  0  0
    1.1186  -12.9911   -5.4192 H   0  0  0  0  0  0  0  0  0  0  0  0
    1.5292  -14.7398   -5.4192 H   0  0  0  0  0  0  0  0  0  0  0  0
    3.1736  -11.7547   -4.2607 H   0  0  0  0  0  0  0  0  0  0  0  0
    1.4668  -11.6365   -3.6668 H   0  0  0  0  0  0  0  0  0  0  0  0
    3.8846  -12.3161   -1.9344 H   0  0  0  0  0  0  0  0  0  0  0  0
    3.0982  -10.6846   -2.0726 H   0  0  0  0  0  0  0  0  0  0  0  0
    0.8777  -10.7859    0.3167 H   0  0  0  0  0  0  0  0  0  0  0  0
    1.4425  -10.0438   -1.2186 H   0  0  0  0  0  0  0  0  0  0  0  0
    0.0099  -11.1274   -1.2186 H   0  0  0  0  0  0  0  0  0  0  0  0
    3.4222  -13.2958    0.0424 H   0  0  0  0  0  0  0  0  0  0  0  0
    3.2076  -11.5746    0.5982 H   0  0  0  0  0  0  0  0  0  0  0  0
    2.4391  -13.2161    2.2680 H   0  0  0  0  0  0  0  0  0  0  0  0
    1.1116  -12.1265    1.6179 H   0  0  0  0  0  0  0  0  0  0  0  0
    2.1016  -15.7434    2.0606 H   0  0  0  0  0  0  0  0  0  0  0  0
    1.3631  -16.2563    0.5055 H   0  0  0  0  0  0  0  0  0  0  0  0
    2.7879  -15.1624    0.5055 H   0  0  0  0  0  0  0  0  0  0  0  0
   -1.2799  -14.5236   -1.6332 H   0  0  0  0  0  0  0  0  0  0  0  0
   -2.7238  -14.7895    0.4738 H   0  0  0  0  0  0  0  0  0  0  0  0
   -1.9367  -16.3666   -0.0597 H   0  0  0  0  0  0  0  0  0  0  0  0
   -0.5114  -16.4368    1.7178 H   0  0  0  0  0  0  0  0  0  0  0  0
   -3.6013  -14.9645    4.1302 H   0  0  0  0  0  0  0  0  0  0  0  0
   -3.1784  -14.1479    2.5872 H   0  0  0  0  0  0  0  0  0  0  0  0
   -4.3278  -15.5284    2.5872 H   0  0  0  0  0  0  0  0  0  0  0  0
   -3.5366  -17.2374    1.5371 H   0  0  0  0  0  0  0  0  0  0  0  0
   -1.9990  -18.0849    2.0684 H   0  0  0  0  0  0  0  0  0  0  0  0
   -4.5161  -17.6584    3.7230 H   0  0  0  0  0  0  0  0  0  0  0  0
   -3.8858  -19.2128    3.0268 H   0  0  0  0  0  0  0  0  0  0  0  0
   -3.3614  -18.8940    5.5280 H   0  0  0  0  0  0  0  0  0  0  0  0
   -2.1380  -19.8460    3.4980 H   0  0  0  0  0  0  0  0  0  0  0  0
   -3.2971  -16.3943    7.0346 H   0  0  0  0  0  0  0  0  0  0  0  0
   -3.3154  -15.2870    5.6203 H   0  0  0  0  0  0  0  0  0  0  0  0
   -4.3421  -16.7610    5.6203 H   0  0  0  0  0  0  0  0  0  0  0  0
   -0.6529  -17.1095    3.9382 H   0  0  0  0  0  0  0  0  0  0  0  0
   -1.4374  -14.3021    4.8202 H   0  0  0  0  0  0  0  0  0  0  0  0
   -0.1685  -15.3282    5.5938 H   0  0  0  0  0  0  0  0  0  0  0  0
    0.7870  -13.7151    3.9708 H   0  0  0  0  0  0  0  0  0  0  0  0
    1.0333  -15.4717    3.4890 H   0  0  0  0  0  0  0  0  0  0  0  0
   -1.2516  -12.7912    3.3543 H   0  0  0  0  0  0  0  0  0  0  0  0
   -0.5413  -12.2328    1.8018 H   0  0  0  0  0  0  0  0  0  0  0  0
   -2.0662  -13.1821    1.8018 H   0  0  0  0  0  0  0  0  0  0  0  0
    0.2274  -12.9475   -2.0644 H   0  0  0  0  0  0  0  0  0  0  0  0
    2.7558  -14.6504   -1.8323 H   0  0  0  0  0  0  0  0  0  0  0  0
    1.2116  -15.1922   -2.6110 H   0  0  0  0  0  0  0  0  0  0  0  0
  2  1  1  6
  2  3  1  0
  3  4  2  0
  3  5  1  0
  2  6  1  0
  6  7  1  0
  7  8  1  0
  8  9  1  1
  8 10  1  0
 10 11  1  0
 11 12  1  0
 12 13  1  6
 12 14  1  0
 14 15  2  0
 15 16  1  0
 16 17  1  0
 17 18  1  0
 18 19  1  1
 18 20  1  0
 20 21  1  0
 21 22  1  0
 22 23  1  0
 22 24  1  0
 24 25  1  1
 24 26  1  0
 26 27  2  0
 26 28  1  0
 24 29  1  0
 29 30  1  0
 30 31  1  0
 31 32  1  0
 32 33  1  1
 14 34  1  0
 34 35  1  0
 35  2  1  0
 34  8  1  0
 32 12  1  0
 32 17  1  0
 29 18  1  0
  1 36  1  0
  1 37  1  0
  1 38  1  0
  6 39  1  0
  6 40  1  0
  7 41  1  0
  7 42  1  0
  9 43  1  0
  9 44  1  0
  9 45  1  0
 10 46  1  0
 10 47  1  0
 11 48  1  0
 11 49  1  0
 13 50  1  0
 13 51  1  0
 13 52  1  0
 15 53  1  0
 16 54  1  0
 16 55  1  0
 17 56  1  6
 19 57  1  0
 19 58  1  0
 19 59  1  0
 20 60  1  0
 20 61  1  0
 21 62  1  0
 21 63  1  0
 22 64  1  1
 23 65  1  0
 25 66  1  0
 25 67  1  0
 25 68  1  0
 29 69  1  6
 30 70  1  0
 30 71  1  0
 31 72  1  0
 31 73  1  0
 33 74  1  0
 33 75  1  0
 33 76  1  0
 34 77  1  6
 35 78  1  0
 35 79  1  0
M  CHG  2   5  -1  28  -1
M  END
>  <meeko>  (1) 
{"is_sidechain": [false], "free_energy": -8.639, "intermolecular_energy": -9.902, "internal_energy": -0.502}

$$$$
LIB_ZZWXYBPRSDQAJH__M_PUB_ALL__e8__s20260927
     RDKit          3D

 79 83  0  0  0  0  0  0  0  0999 V2000
   11.7480  -14.2150   -0.5530 C   0  0  0  0  0  0  0  0  0  0  0  0
   11.0800  -12.9340   -1.0850 C   0  0  1  0  0  0  0  0  0  0  0  0
   11.8080  -11.7610   -0.3580 C   0  0  0  0  0  0  0  0  0  0  0  0
   11.5110  -11.6030    0.8620 O   0  0  0  0  0  0  0  0  0  0  0  0
   12.6260  -11.0950   -1.0560 O   0  0  0  0  0  0  0  0  0  0  0  0
   11.2360  -12.9000   -2.6230 C   0  0  0  0  0  0  0  0  0  0  0  0
   10.1330  -12.0700   -3.2790 C   0  0  0  0  0  0  0  0  0  0  0  0
    8.7220  -12.6900   -3.0600 C   0  0  2  0  0  0  0  0  0  0  0  0
    8.4250  -13.6450   -4.2430 C   0  0  0  0  0  0  0  0  0  0  0  0
    7.6950  -11.5380   -3.0450 C   0  0  0  0  0  0  0  0  0  0  0  0
    6.2720  -12.0180   -2.7680 C   0  0  0  0  0  0  0  0  0  0  0  0
    6.1000  -12.8070   -1.4350 C   0  0  2  0  0  0  0  0  0  0  0  0
    6.2090  -11.7660   -0.2810 C   0  0  0  0  0  0  0  0  0  0  0  0
    7.2520  -13.8050   -1.2140 C   0  0  0  0  0  0  0  0  0  0  0  0
    7.0500  -14.9610   -0.5510 C   0  0  0  0  0  0  0  0  0  0  0  0
    5.7500  -15.4380    0.0250 C   0  0  0  0  0  0  0  0  0  0  0  0
    4.5710  -14.4460   -0.0920 C   0  0  2  0  0  0  0  0  0  0  0  0
    3.1470  -15.0710    0.2640 C   0  0  1  0  0  0  0  0  0  0  0  0
    2.7800  -16.2620   -0.6620 C   0  0  0  0  0  0  0  0  0  0  0  0
    3.1870  -15.6230    1.7250 C   0  0  0  0  0  0  0  0  0  0  0  0
    1.8070  -15.9590    2.3170 C   0  0  0  0  0  0  0  0  0  0  0  0
    0.8420  -14.7710    2.2370 C   0  0  1  0  0  0  0  0  0  0  0  0
    1.3900  -13.8010    3.1400 O   0  0  0  0  0  0  0  0  0  0  0  0
    0.6820  -14.2450    0.7820 C   0  0  1  0  0  0  0  0  0  0  0  0
   -0.1250  -15.2550   -0.0570 C   0  0  0  0  0  0  0  0  0  0  0  0
   -0.2000  -12.9460    0.8330 C   0  0  0  0  0  0  0  0  0  0  0  0
    0.3050  -11.9310    1.3890 O   0  0  0  0  0  0  0  0  0  0  0  0
   -1.3480  -13.0510    0.3020 O   0  0  0  0  0  0  0  0  0  0  0  0
    2.0960  -13.8950    0.2120 C   0  0  2  0  0  0  0  0  0  0  0  0
    2.0980  -13.2190   -1.1740 C   0  0  0  0  0  0  0  0  0  0  0  0
    3.4700  -12.6010   -1.4760 C   0  0  0  0  0  0  0  0  0  0  0  0
    4.6640  -13.5950   -1.4180 C   0  0  1  0  0  0  0  0  0  0  0  0
    4.5560  -14.5100   -2.6770 C   0  0  0  0  0  0  0  0  0  0  0  0
    8.6640  -13.4990   -1.7290 C   0  0  2  0  0  0  0  0  0  0  0  0
    9.5870  -12.8720   -0.6600 C   0  0  0  0  0  0  0  0  0  0  0  0
   11.7414  -14.2023    0.5469 H   0  0  0  0  0  0  0  0  0  0  0  0
   11.1936  -15.0943   -0.9129 H   0  0  0  0  0  0  0  0  0  0  0  0
   12.7863  -14.2637   -0.9129 H   0  0  0  0  0  0  0  0  0  0  0  0
   12.2122  -12.4593   -2.8737 H   0  0  0  0  0  0  0  0  0  0  0  0
   11.1635  -13.9307   -3.0004 H   0  0  0  0  0  0  0  0  0  0  0  0
   10.1464  -11.0584   -2.8472 H   0  0  0  0  0  0  0  0  0  0  0  0
   10.3270  -12.0456   -4.3615 H   0  0  0  0  0  0  0  0  0  0  0  0
    8.1195  -14.6273   -3.8535 H   0  0  0  0  0  0  0  0  0  0  0  0
    7.6147  -13.2262   -4.8578 H   0  0  0  0  0  0  0  0  0  0  0  0
    9.3299  -13.7596   -4.8578 H   0  0  0  0  0  0  0  0  0  0  0  0
    7.9827  -10.8207   -2.2622 H   0  0  0  0  0  0  0  0  0  0  0  0
    7.7005  -11.0761   -4.0433 H   0  0  0  0  0  0  0  0  0  0  0  0
    5.6139  -11.1373   -2.7325 H   0  0  0  0  0  0  0  0  0  0  0  0
    6.0159  -12.7165   -3.5783 H   0  0  0  0  0  0  0  0  0  0  0  0
    6.1547  -12.2850    0.6873 H   0  0  0  0  0  0  0  0  0  0  0  0
    7.1679  -11.2325   -0.3578 H   0  0  0  0  0  0  0  0  0  0  0  0
    5.3814  -11.0455   -0.3578 H   0  0  0  0  0  0  0  0  0  0  0  0
    7.9226  -15.6178   -0.4198 H   0  0  0  0  0  0  0  0  0  0  0  0
    5.4673  -16.3645   -0.4962 H   0  0  0  0  0  0  0  0  0  0  0  0
    5.9268  -15.5738    1.1022 H   0  0  0  0  0  0  0  0  0  0  0  0
    4.6766  -13.7074    0.7163 H   0  0  0  0  0  0  0  0  0  0  0  0
    2.5112  -17.1344   -0.0482 H   0  0  0  0  0  0  0  0  0  0  0  0
    1.9261  -15.9832   -1.2969 H   0  0  0  0  0  0  0  0  0  0  0  0
    3.6427  -16.5122   -1.2969 H   0  0  0  0  0  0  0  0  0  0  0  0
    3.7955  -16.5394    1.7297 H   0  0  0  0  0  0  0  0  0  0  0  0
    3.6100  -14.8232    2.3506 H   0  0  0  0  0  0  0  0  0  0  0  0
    1.3773  -16.8036    1.7584 H   0  0  0  0  0  0  0  0  0  0  0  0
    1.9457  -16.2126    3.3784 H   0  0  0  0  0  0  0  0  0  0  0  0
   -0.1850  -15.0415    2.5235 H   0  0  0  0  0  0  0  0  0  0  0  0
    1.0390  -12.9310    2.8110 H   0  0  0  0  0  0  0  0  0  0  0  0
   -0.6694  -15.9364    0.6133 H   0  0  0  0  0  0  0  0  0  0  0  0
   -0.8425  -14.7141   -0.6916 H   0  0  0  0  0  0  0  0  0  0  0  0
    0.5609  -15.8354   -0.6916 H   0  0  0  0  0  0  0  0  0  0  0  0
    2.4352  -13.1345    0.9307 H   0  0  0  0  0  0  0  0  0  0  0  0
    1.8638  -13.9706   -1.9423 H   0  0  0  0  0  0  0  0  0  0  0  0
    1.3423  -12.4197   -1.1779 H   0  0  0  0  0  0  0  0  0  0  0  0
    3.4346  -12.1683   -2.4867 H   0  0  0  0  0  0  0  0  0  0  0  0
    3.6518  -11.8549   -0.6884 H   0  0  0  0  0  0  0  0  0  0  0  0
    4.4325  -15.5562   -2.3604 H   0  0  0  0  0  0  0  0  0  0  0  0
    3.6877  -14.2042   -3.2791 H   0  0  0  0  0  0  0  0  0  0  0  0
    5.4716  -14.4148   -3.2791 H   0  0  0  0  0  0  0  0  0  0  0  0
    9.0579  -14.4978   -1.9681 H   0  0  0  0  0  0  0  0  0  0  0  0
    9.3009  -11.8199   -0.5142 H   0  0  0  0  0  0  0  0  0  0  0  0
    9.4710  -13.4439    0.2725 H   0  0  0  0  0  0  0  0  0  0  0  0
  2  1  1  1
  2  3  1  0
  3  4  2  0
  3  5  1  0
  2  6  1  0
  6  7  1  0
  7  8  1  0
  8  9  1  6
  8 10  1  0
 10 11  1  0
 11 12  1  0
 12 13  1  1
 12 14  1  0
 14 15  2  0
 15 16  1  0
 16 17  1  0
 17 18  1  0
 18 19  1  6
 18 20  1  0
 20 21  1  0
 21 22  1  0
 22 23  1  0
 22 24  1  0
 24 25  1  6
 24 26  1  0
 26 27  2  0
 26 28  1  0
 24 29  1  0
 29 30  1  0
 30 31  1  0
 31 32  1  0
 32 33  1  6
 14 34  1  0
 34 35  1  0
 35  2  1  0
 34  8  1  0
 32 12  1  0
 32 17  1  0
 29 18  1  0
  1 36  1  0
  1 37  1  0
  1 38  1  0
  6 39  1  0
  6 40  1  0
  7 41  1  0
  7 42  1  0
  9 43  1  0
  9 44  1  0
  9 45  1  0
 10 46  1  0
 10 47  1  0
 11 48  1  0
 11 49  1  0
 13 50  1  0
 13 51  1  0
 13 52  1  0
 15 53  1  0
 16 54  1  0
 16 55  1  0
 17 56  1  1
 19 57  1  0
 19 58  1  0
 19 59  1  0
 20 60  1  0
 20 61  1  0
 21 62  1  0
 21 63  1  0
 22 64  1  1
 23 65  1  0
 25 66  1  0
 25 67  1  0
 25 68  1  0
 29 69  1  1
 30 70  1  0
 30 71  1  0
 31 72  1  0
 31 73  1  0
 33 74  1  0
 33 75  1  0
 33 76  1  0
 34 77  1  6
 35 78  1  0
 35 79  1  0
M  CHG  2   5  -1  28  -1
M  END
>  <meeko>  (2) 
{"is_sidechain": [false], "free_energy": -8.278, "intermolecular_energy": -9.532, "internal_energy": -0.457}

$$$$
LIB_ZZWXYBPRSDQAJH__M_PUB_ALL__e8__s20260927
     RDKit          3D

 79 83  0  0  0  0  0  0  0  0999 V2000
   -1.8630  -10.1970    0.5420 C   0  0  0  0  0  0  0  0  0  0  0  0
   -1.4060  -11.4150    1.3620 C   0  0  1  0  0  0  0  0  0  0  0  0
   -1.4980  -10.9630    2.8530 C   0  0  0  0  0  0  0  0  0  0  0  0
   -1.1040  -11.8080    3.7080 O   0  0  0  0  0  0  0  0  0  0  0  0
   -1.9480   -9.7980    3.0550 O   0  0  0  0  0  0  0  0  0  0  0  0
   -2.3250  -12.6120    1.0200 C   0  0  0  0  0  0  0  0  0  0  0  0
   -1.6190  -13.9450    1.2640 C   0  0  0  0  0  0  0  0  0  0  0  0
   -0.3890  -14.1390    0.3280 C   0  0  2  0  0  0  0  0  0  0  0  0
   -0.8690  -14.8600   -0.9560 C   0  0  0  0  0  0  0  0  0  0  0  0
    0.6370  -15.0200    1.0720 C   0  0  0  0  0  0  0  0  0  0  0  0
    1.9250  -15.2250    0.2770 C   0  0  0  0  0  0  0  0  0  0  0  0
    2.6540  -13.9110   -0.1320 C   0  0  2  0  0  0  0  0  0  0  0  0
    3.2890  -13.3280    1.1660 C   0  0  0  0  0  0  0  0  0  0  0  0
    1.6630  -12.8440   -0.6310 C   0  0  0  0  0  0  0  0  0  0  0  0
    2.0260  -11.9440   -1.5680 C   0  0  0  0  0  0  0  0  0  0  0  0
    3.3630  -11.8550   -2.2410 C   0  0  0  0  0  0  0  0  0  0  0  0
    4.4300  -12.8470   -1.7260 C   0  0  2  0  0  0  0  0  0  0  0  0
    5.7400  -12.9320   -2.6320 C   0  0  1  0  0  0  0  0  0  0  0  0
    5.4220  -13.3830   -4.0830 C   0  0  0  0  0  0  0  0  0  0  0  0
    6.3860  -11.5130   -2.7250 C   0  0  0  0  0  0  0  0  0  0  0  0
    7.8170  -11.5000   -3.2890 C   0  0  0  0  0  0  0  0  0  0  0  0
    8.7480  -12.4450   -2.5210 C   0  0  1  0  0  0  0  0  0  0  0  0
    8.8720  -11.8490   -1.2220 O   0  0  0  0  0  0  0  0  0  0  0  0
    8.2030  -13.9010   -2.4860 C   0  0  1  0  0  0  0  0  0  0  0  0
    8.3270  -14.5420   -3.8830 C   0  0  0  0  0  0  0  0  0  0  0  0
    9.1450  -14.7470   -1.5550 C   0  0  0  0  0  0  0  0  0  0  0  0
    9.2440  -14.3770   -0.3520 O   0  0  0  0  0  0  0  0  0  0  0  0
    9.7190  -15.7290   -2.1160 O   0  0  0  0  0  0  0  0  0  0  0  0
    6.7560  -13.8880   -1.8930 C   0  0  2  0  0  0  0  0  0  0  0  0
    6.1290  -15.2750   -1.6540 C   0  0  0  0  0  0  0  0  0  0  0  0
    4.8910  -15.1650   -0.7550 C   0  0  0  0  0  0  0  0  0  0  0  0
    3.7790  -14.2140   -1.2830 C   0  0  1  0  0  0  0  0  0  0  0  0
    3.1050  -14.9300   -2.4950 C   0  0  0  0  0  0  0  0  0  0  0  0
    0.2390  -12.7680   -0.0640 C   0  0  2  0  0  0  0  0  0  0  0  0
    0.0870  -11.7420    1.0810 C   0  0  0  0  0  0  0  0  0  0  0  0
   -2.1662   -9.3888    1.2238 H   0  0  0  0  0  0  0  0  0  0  0  0
   -1.0339   -9.8500   -0.0922 H   0  0  0  0  0  0  0  0  0  0  0  0
   -2.7157  -10.4810   -0.0922 H   0  0  0  0  0  0  0  0  0  0  0  0
   -3.2253  -12.5633    1.6501 H   0  0  0  0  0  0  0  0  0  0  0  0
   -2.5904  -12.5510   -0.0458 H   0  0  0  0  0  0  0  0  0  0  0  0
   -1.2778  -13.9791    2.3092 H   0  0  0  0  0  0  0  0  0  0  0  0
   -2.3363  -14.7512    1.0507 H   0  0  0  0  0  0  0  0  0  0  0  0
   -1.4591  -15.7464   -0.6800 H   0  0  0  0  0  0  0  0  0  0  0  0
   -1.4920  -14.1751   -1.5500 H   0  0  0  0  0  0  0  0  0  0  0  0
    0.0032  -15.1706   -1.5500 H   0  0  0  0  0  0  0  0  0  0  0  0
    0.8869  -14.5376    2.0285 H   0  0  0  0  0  0  0  0  0  0  0  0
    0.1786  -16.0086    1.2223 H   0  0  0  0  0  0  0  0  0  0  0  0
    2.6149  -15.8227    0.8908 H   0  0  0  0  0  0  0  0  0  0  0  0
    1.6356  -15.7239   -0.6596 H   0  0  0  0  0  0  0  0  0  0  0  0
    2.8020  -13.7751    2.0452 H   0  0  0  0  0  0  0  0  0  0  0  0
    4.3640  -13.5603    1.1846 H   0  0  0  0  0  0  0  0  0  0  0  0
    3.1492  -12.2371    1.1846 H   0  0  0  0  0  0  0  0  0  0  0  0
    1.2686  -11.2045   -1.8670 H   0  0  0  0  0  0  0  0  0  0  0  0
    3.2158  -12.0419   -3.3150 H   0  0  0  0  0  0  0  0  0  0  0  0
    3.7495  -10.8498   -2.0169 H   0  0  0  0  0  0  0  0  0  0  0  0
    4.8513  -12.4317   -0.7986 H   0  0  0  0  0  0  0  0  0  0  0  0
    4.7883  -14.2817   -4.0571 H   0  0  0  0  0  0  0  0  0  0  0  0
    4.8922  -12.5759   -4.6101 H   0  0  0  0  0  0  0  0  0  0  0  0
    6.3602  -13.6110   -4.6101 H   0  0  0  0  0  0  0  0  0  0  0  0
    5.7546  -10.8899   -3.3754 H   0  0  0  0  0  0  0  0  0  0  0  0
    6.4517  -11.1308   -1.6956 H   0  0  0  0  0  0  0  0  0  0  0  0
    7.7856  -11.8124   -4.3432 H   0  0  0  0  0  0  0  0  0  0  0  0
    8.2120  -10.4785   -3.1870 H   0  0  0  0  0  0  0  0  0  0  0  0
    9.7310  -12.5529   -3.0027 H   0  0  0  0  0  0  0  0  0  0  0  0
    9.6610  -11.2490   -1.3000 H   0  0  0  0  0  0  0  0  0  0  0  0
    8.5349  -15.6169   -3.7761 H   0  0  0  0  0  0  0  0  0  0  0  0
    7.3855  -14.4038   -4.4347 H   0  0  0  0  0  0  0  0  0  0  0  0
    9.1491  -14.0626   -4.4347 H   0  0  0  0  0  0  0  0  0  0  0  0
    6.9358  -13.4529   -0.8988 H   0  0  0  0  0  0  0  0  0  0  0  0
    5.8352  -15.7095   -2.6209 H   0  0  0  0  0  0  0  0  0  0  0  0
    6.8709  -15.9164   -1.1558 H   0  0  0  0  0  0  0  0  0  0  0  0
    4.4575  -16.1701   -0.6464 H   0  0  0  0  0  0  0  0  0  0  0  0
    5.2382  -14.7347    0.1959 H   0  0  0  0  0  0  0  0  0  0  0  0
    2.3946  -15.6846   -2.1263 H   0  0  0  0  0  0  0  0  0  0  0  0
    2.5687  -14.1894   -3.1064 H   0  0  0  0  0  0  0  0  0  0  0  0
    3.8766  -15.4206   -3.1064 H   0  0  0  0  0  0  0  0  0  0  0  0
   -0.3471  -12.4034   -0.9205 H   0  0  0  0  0  0  0  0  0  0  0  0
    0.5396  -12.1563    1.9940 H   0  0  0  0  0  0  0  0  0  0  0  0
    0.5918  -10.8124    0.7791 H   0  0  0  0  0  0  0  0  0  0  0  0
  2  1  1  6
  2  3  1  0
  3  4  2  0
  3  5  1  0
  2  6  1  0
  6  7  1  0
  7  8  1  0
  8  9  1  6
  8 10  1  0
 10 11  1  0
 11 12  1  0
 12 13  1  1
 12 14  1  0
 14 15  2  0
 15 16  1  0
 16 17  1  0
 17 18  1  0
 18 19  1  6
 18 20  1  0
 20 21  1  0
 21 22  1  0
 22 23  1  0
 22 24  1  0
 24 25  1  6
 24 26  1  0
 26 27  2  0
 26 28  1  0
 24 29  1  0
 29 30  1  0
 30 31  1  0
 31 32  1  0
 32 33  1  6
 14 34  1  0
 34 35  1  0
 35  2  1  0
 34  8  1  0
 32 12  1  0
 32 17  1  0
 29 18  1  0
  1 36  1  0
  1 37  1  0
  1 38  1  0
  6 39  1  0
  6 40  1  0
  7 41  1  0
  7 42  1  0
  9 43  1  0
  9 44  1  0
  9 45  1  0
 10 46  1  0
 10 47  1  0
 11 48  1  0
 11 49  1  0
 13 50  1  0
 13 51  1  0
 13 52  1  0
 15 53  1  0
 16 54  1  0
 16 55  1  0
 17 56  1  1
 19 57  1  0
 19 58  1  0
 19 59  1  0
 20 60  1  0
 20 61  1  0
 21 62  1  0
 21 63  1  0
 22 64  1  6
 23 65  1  0
 25 66  1  0
 25 67  1  0
 25 68  1  0
 29 69  1  1
 30 70  1  0
 30 71  1  0
 31 72  1  0
 31 73  1  0
 33 74  1  0
 33 75  1  0
 33 76  1  0
 34 77  1  6
 35 78  1  0
 35 79  1  0
M  CHG  2   5  -1  28  -1
M  END
>  <meeko>  (3) 
{"is_sidechain": [false], "free_energy": -8.156, "intermolecular_energy": -9.449, "internal_energy": -0.401}

$$$$
LIB_ZZWXYBPRSDQAJH__M_PUB_ALL__e8__s20260927
     RDKit          3D

 79 83  0  0  0  0  0  0  0  0999 V2000
   12.5690  -16.7010   -5.3690 C   0  0  0  0  0  0  0  0  0  0  0  0
   12.4710  -16.3860   -3.8660 C   0  0  1  0  0  0  0  0  0  0  0  0
   12.8700  -17.7110   -3.1440 C   0  0  0  0  0  0  0  0  0  0  0  0
   12.1070  -18.0730   -2.2010 O   0  0  0  0  0  0  0  0  0  0  0  0
   13.9060  -18.2920   -3.5780 O   0  0  0  0  0  0  0  0  0  0  0  0
   13.4140  -15.2010   -3.5490 C   0  0  0  0  0  0  0  0  0  0  0  0
   12.9510  -14.4350   -2.3110 C   0  0  0  0  0  0  0  0  0  0  0  0
   11.5620  -13.7620   -2.5200 C   0  0  2  0  0  0  0  0  0  0  0  0
   11.7960  -12.3320   -3.0680 C   0  0  0  0  0  0  0  0  0  0  0  0
   10.8590  -13.6900   -1.1490 C   0  0  0  0  0  0  0  0  0  0  0  0
    9.4500  -13.1070   -1.2370 C   0  0  0  0  0  0  0  0  0  0  0  0
    8.4930  -13.8620   -2.2080 C   0  0  2  0  0  0  0  0  0  0  0  0
    8.1290  -15.2110   -1.5190 C   0  0  0  0  0  0  0  0  0  0  0  0
    9.2010  -14.2370   -3.5230 C   0  0  0  0  0  0  0  0  0  0  0  0
    8.5170  -14.3040   -4.6840 C   0  0  0  0  0  0  0  0  0  0  0  0
    7.0560  -14.0240   -4.8700 C   0  0  0  0  0  0  0  0  0  0  0  0
    6.2700  -13.7200   -3.5740 C   0  0  2  0  0  0  0  0  0  0  0  0
    4.7990  -13.1540   -3.8140 C   0  0  1  0  0  0  0  0  0  0  0  0
    4.8050  -11.8240   -4.6160 C   0  0  0  0  0  0  0  0  0  0  0  0
    3.9870  -14.1910   -4.6540 C   0  0  0  0  0  0  0  0  0  0  0  0
    2.4700  -13.9340   -4.6890 C   0  0  0  0  0  0  0  0  0  0  0  0
    1.8730  -13.8240   -3.2820 C   0  0  1  0  0  0  0  0  0  0  0  0
    1.9990  -15.1440   -2.7330 O   0  0  0  0  0  0  0  0  0  0  0  0
    2.5770  -12.7290   -2.4310 C   0  0  1  0  0  0  0  0  0  0  0  0
    2.1940  -11.3310   -2.9540 C   0  0  0  0  0  0  0  0  0  0  0  0
    1.9970  -12.8020   -0.9740 C   0  0  0  0  0  0  0  0  0  0  0  0
    2.1920  -13.8720   -0.3310 O   0  0  0  0  0  0  0  0  0  0  0  0
    1.3810  -11.7640   -0.5840 O   0  0  0  0  0  0  0  0  0  0  0  0
    4.1130  -13.0230   -2.3980 C   0  0  2  0  0  0  0  0  0  0  0  0
    4.9390  -12.1090   -1.4720 C   0  0  0  0  0  0  0  0  0  0  0  0
    6.3370  -12.6950   -1.2340 C   0  0  0  0  0  0  0  0  0  0  0  0
    7.1660  -12.9560   -2.5230 C   0  0  1  0  0  0  0  0  0  0  0  0
    7.6040  -11.5630   -3.0730 C   0  0  0  0  0  0  0  0  0  0  0  0
   10.7000  -14.5610   -3.5440 C   0  0  2  0  0  0  0  0  0  0  0  0
   11.0040  -16.0740   -3.4610 C   0  0  0  0  0  0  0  0  0  0  0  0
   12.8933  -17.7433   -5.5048 H   0  0  0  0  0  0  0  0  0  0  0  0
   11.5843  -16.5592   -5.8383 H   0  0  0  0  0  0  0  0  0  0  0  0
   13.2995  -16.0256   -5.8383 H   0  0  0  0  0  0  0  0  0  0  0  0
   14.4281  -15.5884   -3.3715 H   0  0  0  0  0  0  0  0  0  0  0  0
   13.4035  -14.5117   -4.4062 H   0  0  0  0  0  0  0  0  0  0  0  0
   12.8813  -15.1361   -1.4663 H   0  0  0  0  0  0  0  0  0  0  0  0
   13.6847  -13.6399   -2.1123 H   0  0  0  0  0  0  0  0  0  0  0  0
   11.9106  -11.6315   -2.2277 H   0  0  0  0  0  0  0  0  0  0  0  0
   12.7081  -12.3196   -3.6827 H   0  0  0  0  0  0  0  0  0  0  0  0
   10.9354  -12.0295   -3.6827 H   0  0  0  0  0  0  0  0  0  0  0  0
   10.7936  -14.7065   -0.7336 H   0  0  0  0  0  0  0  0  0  0  0  0
   11.4536  -13.0243   -0.5061 H   0  0  0  0  0  0  0  0  0  0  0  0
    9.0059  -13.1305   -0.2309 H   0  0  0  0  0  0  0  0  0  0  0  0
    9.5594  -12.0884   -1.6377 H   0  0  0  0  0  0  0  0  0  0  0  0
    8.1628  -15.0857   -0.4267 H   0  0  0  0  0  0  0  0  0  0  0  0
    7.1165  -15.5159   -1.8219 H   0  0  0  0  0  0  0  0  0  0  0  0
    8.8507  -15.9839   -1.8219 H   0  0  0  0  0  0  0  0  0  0  0  0
    9.0861  -14.5917   -5.5803 H   0  0  0  0  0  0  0  0  0  0  0  0
    6.9591  -13.1552   -5.5376 H   0  0  0  0  0  0  0  0  0  0  0  0
    6.6199  -14.9468   -5.2802 H   0  0  0  0  0  0  0  0  0  0  0  0
    6.0404  -14.6811   -3.0908 H   0  0  0  0  0  0  0  0  0  0  0  0
    4.8088  -10.9745   -3.9172 H   0  0  0  0  0  0  0  0  0  0  0  0
    5.7033  -11.7818   -5.2494 H   0  0  0  0  0  0  0  0  0  0  0  0
    3.9071  -11.7737   -5.2494 H   0  0  0  0  0  0  0  0  0  0  0  0
    4.3637  -14.1670   -5.6872 H   0  0  0  0  0  0  0  0  0  0  0  0
    4.1284  -15.1676   -4.1680 H   0  0  0  0  0  0  0  0  0  0  0  0
    2.2815  -12.9944   -5.2291 H   0  0  0  0  0  0  0  0  0  0  0  0
    1.9929  -14.7866   -5.1945 H   0  0  0  0  0  0  0  0  0  0  0  0
    0.8221  -13.4992   -3.2950 H   0  0  0  0  0  0  0  0  0  0  0  0
    2.1310  -14.9950   -1.7590 H   0  0  0  0  0  0  0  0  0  0  0  0
    2.0099  -10.6589   -2.1029 H   0  0  0  0  0  0  0  0  0  0  0  0
    3.0156  -10.9308   -3.5662 H   0  0  0  0  0  0  0  0  0  0  0  0
    1.2831  -11.4054   -3.5662 H   0  0  0  0  0  0  0  0  0  0  0  0
    4.1295  -14.0244   -1.9431 H   0  0  0  0  0  0  0  0  0  0  0  0
    5.0381  -11.1178   -1.9385 H   0  0  0  0  0  0  0  0  0  0  0  0
    4.4217  -12.0269   -0.5047 H   0  0  0  0  0  0  0  0  0  0  0  0
    6.8994  -11.9913   -0.6028 H   0  0  0  0  0  0  0  0  0  0  0  0
    6.1835  -13.6767   -0.7621 H   0  0  0  0  0  0  0  0  0  0  0  0
    7.8166  -10.8869   -2.2317 H   0  0  0  0  0  0  0  0  0  0  0  0
    8.5089  -11.6794   -3.6875 H   0  0  0  0  0  0  0  0  0  0  0  0
    6.7953  -11.1406   -3.6875 H   0  0  0  0  0  0  0  0  0  0  0  0
   11.0127  -14.2105   -4.5387 H   0  0  0  0  0  0  0  0  0  0  0  0
   10.8386  -16.4152   -2.4284 H   0  0  0  0  0  0  0  0  0  0  0  0
   10.3354  -16.5979   -4.1599 H   0  0  0  0  0  0  0  0  0  0  0  0
  2  1  1  6
  2  3  1  0
  3  4  2  0
  3  5  1  0
  2  6  1  0
  6  7  1  0
  7  8  1  0
  8  9  1  6
  8 10  1  0
 10 11  1  0
 11 12  1  0
 12 13  1  1
 12 14  1  0
 14 15  2  0
 15 16  1  0
 16 17  1  0
 17 18  1  0
 18 19  1  6
 18 20  1  0
 20 21  1  0
 21 22  1  0
 22 23  1  0
 22 24  1  0
 24 25  1  6
 24 26  1  0
 26 27  2  0
 26 28  1  0
 24 29  1  0
 29 30  1  0
 30 31  1  0
 31 32  1  0
 32 33  1  6
 14 34  1  0
 34 35  1  0
 35  2  1  0
 34  8  1  0
 32 12  1  0
 32 17  1  0
 29 18  1  0
  1 36  1  0
  1 37  1  0
  1 38  1  0
  6 39  1  0
  6 40  1  0
  7 41  1  0
  7 42  1  0
  9 43  1  0
  9 44  1  0
  9 45  1  0
 10 46  1  0
 10 47  1  0
 11 48  1  0
 11 49  1  0
 13 50  1  0
 13 51  1  0
 13 52  1  0
 15 53  1  0
 16 54  1  0
 16 55  1  0
 17 56  1  1
 19 57  1  0
 19 58  1  0
 19 59  1  0
 20 60  1  0
 20 61  1  0
 21 62  1  0
 21 63  1  0
 22 64  1  6
 23 65  1  0
 25 66  1  0
 25 67  1  0
 25 68  1  0
 29 69  1  1
 30 70  1  0
 30 71  1  0
 31 72  1  0
 31 73  1  0
 33 74  1  0
 33 75  1  0
 33 76  1  0
 34 77  1  6
 35 78  1  0
 35 79  1  0
M  CHG  2   5  -1  28  -1
M  END
>  <meeko>  (4) 
{"is_sidechain": [false], "free_energy": -8.076, "intermolecular_energy": -9.255, "internal_energy": -0.503}

$$$$
LIB_ZZWXYBPRSDQAJH__M_PUB_ALL__e8__s20260927
     RDKit          3D

 79 83  0  0  0  0  0  0  0  0999 V2000
   -0.7590  -17.1190    5.2890 C   0  0  0  0  0  0  0  0  0  0  0  0
   -1.5810  -16.9010    4.0080 C   0  0  1  0  0  0  0  0  0  0  0  0
   -2.2520  -18.2790    3.7120 C   0  0  0  0  0  0  0  0  0  0  0  0
   -2.2520  -18.6400    2.4990 O   0  0  0  0  0  0  0  0  0  0  0  0
   -2.7170  -18.8980    4.7120 O   0  0  0  0  0  0  0  0  0  0  0  0
   -2.5960  -15.7620    4.2620 C   0  0  0  0  0  0  0  0  0  0  0  0
   -2.9940  -15.0670    2.9610 C   0  0  0  0  0  0  0  0  0  0  0  0
   -1.7880  -14.3500    2.2840 C   0  0  2  0  0  0  0  0  0  0  0  0
   -1.7370  -12.8930    2.8080 C   0  0  0  0  0  0  0  0  0  0  0  0
   -2.0300  -14.3510    0.7600 C   0  0  0  0  0  0  0  0  0  0  0  0
   -0.8750  -13.7320   -0.0230 C   0  0  0  0  0  0  0  0  0  0  0  0
    0.5110  -14.3990    0.2250 C   0  0  2  0  0  0  0  0  0  0  0  0
    0.4770  -15.7820   -0.4920 C   0  0  0  0  0  0  0  0  0  0  0  0
    0.7350  -14.7050    1.7180 C   0  0  0  0  0  0  0  0  0  0  0  0
    1.9720  -14.6800    2.2530 C   0  0  0  0  0  0  0  0  0  0  0  0
    3.2450  -14.3550    1.5300 C   0  0  0  0  0  0  0  0  0  0  0  0
    3.1000  -14.1170    0.0100 C   0  0  2  0  0  0  0  0  0  0  0  0
    4.3960  -13.5030   -0.6870 C   0  0  1  0  0  0  0  0  0  0  0  0
    4.7860  -12.1240   -0.0890 C   0  0  0  0  0  0  0  0  0  0  0  0
    5.6040  -14.4640   -0.4480 C   0  0  0  0  0  0  0  0  0  0  0  0
    6.8340  -14.1710   -1.3250 C   0  0  0  0  0  0  0  0  0  0  0  0
    6.4830  -14.1390   -2.8170 C   0  0  1  0  0  0  0  0  0  0  0  0
    6.1350  -15.4940   -3.1330 O   0  0  0  0  0  0  0  0  0  0  0  0
    5.3530  -13.1190   -3.1290 C   0  0  1  0  0  0  0  0  0  0  0  0
    5.8890  -11.6800   -2.9880 C   0  0  0  0  0  0  0  0  0  0  0  0
    4.9680  -13.2730   -4.6450 C   0  0  0  0  0  0  0  0  0  0  0  0
    4.4400  -14.3660   -4.9940 O   0  0  0  0  0  0  0  0  0  0  0  0
    5.2320  -12.2690   -5.3750 O   0  0  0  0  0  0  0  0  0  0  0  0
    4.1100  -13.4490   -2.2390 C   0  0  2  0  0  0  0  0  0  0  0  0
    2.8470  -12.6160   -2.5340 C   0  0  0  0  0  0  0  0  0  0  0  0
    1.6130  -13.2480   -1.8780 C   0  0  0  0  0  0  0  0  0  0  0  0
    1.7160  -13.4440   -0.3390 C   0  0  1  0  0  0  0  0  0  0  0  0
    1.6060  -12.0290    0.3090 C   0  0  0  0  0  0  0  0  0  0  0  0
   -0.4460  -15.0610    2.6320 C   0  0  2  0  0  0  0  0  0  0  0  0
   -0.6530  -16.5820    2.8030 C   0  0  0  0  0  0  0  0  0  0  0  0
   -1.3981  -16.9495    6.1681 H   0  0  0  0  0  0  0  0  0  0  0  0
   -0.3756  -18.1499    5.3077 H   0  0  0  0  0  0  0  0  0  0  0  0
    0.0848  -16.4136    5.3077 H   0  0  0  0  0  0  0  0  0  0  0  0
   -3.4966  -16.1839    4.7320 H   0  0  0  0  0  0  0  0  0  0  0  0
   -2.1230  -15.0183    4.9201 H   0  0  0  0  0  0  0  0  0  0  0  0
   -3.3946  -15.8193    2.2657 H   0  0  0  0  0  0  0  0  0  0  0  0
   -3.7482  -14.3037    3.2030 H   0  0  0  0  0  0  0  0  0  0  0  0
   -1.7372  -12.8987    3.9080 H   0  0  0  0  0  0  0  0  0  0  0  0
   -0.8212  -12.4043    2.4440 H   0  0  0  0  0  0  0  0  0  0  0  0
   -2.6164  -12.3414    2.4440 H   0  0  0  0  0  0  0  0  0  0  0  0
   -2.1637  -15.3905    0.4261 H   0  0  0  0  0  0  0  0  0  0  0  0
   -2.9252  -13.7418    0.5665 H   0  0  0  0  0  0  0  0  0  0  0  0
   -1.1065  -13.8115   -1.0954 H   0  0  0  0  0  0  0  0  0  0  0  0
   -0.7860  -12.6922    0.3246 H   0  0  0  0  0  0  0  0  0  0  0  0
    0.4573  -16.5845    0.2601 H   0  0  0  0  0  0  0  0  0  0  0  0
   -0.4230  -15.8468   -1.1211 H   0  0  0  0  0  0  0  0  0  0  0  0
    1.3727  -15.8910   -1.1211 H   0  0  0  0  0  0  0  0  0  0  0  0
    2.0557  -14.9212    3.3230 H   0  0  0  0  0  0  0  0  0  0  0  0
    3.6667  -13.4431    1.9779 H   0  0  0  0  0  0  0  0  0  0  0  0
    3.8904  -15.2391    1.6388 H   0  0  0  0  0  0  0  0  0  0  0  0
    3.0557  -15.1021   -0.4774 H   0  0  0  0  0  0  0  0  0  0  0  0
    4.7694  -12.1827    1.0093 H   0  0  0  0  0  0  0  0  0  0  0  0
    5.7967  -11.8506   -0.4263 H   0  0  0  0  0  0  0  0  0  0  0  0
    4.0682  -11.3618   -0.4263 H   0  0  0  0  0  0  0  0  0  0  0  0
    5.9060  -14.3810    0.6065 H   0  0  0  0  0  0  0  0  0  0  0  0
    5.2598  -15.4733   -0.7180 H   0  0  0  0  0  0  0  0  0  0  0  0
    7.2503  -13.1943   -1.0374 H   0  0  0  0  0  0  0  0  0  0  0  0
    7.5641  -14.9782   -1.1657 H   0  0  0  0  0  0  0  0  0  0  0  0
    7.3194  -13.7899   -3.4403 H   0  0  0  0  0  0  0  0  0  0  0  0
    5.6040  -15.4240   -3.9710 H   0  0  0  0  0  0  0  0  0  0  0  0
    5.9833  -11.4267   -1.9217 H   0  0  0  0  0  0  0  0  0  0  0  0
    6.8747  -11.6069   -3.4708 H   0  0  0  0  0  0  0  0  0  0  0  0
    5.1913  -10.9799   -3.4708 H   0  0  0  0  0  0  0  0  0  0  0  0
    3.8855  -14.4775   -2.5580 H   0  0  0  0  0  0  0  0  0  0  0  0
    2.9850  -11.5990   -2.1381 H   0  0  0  0  0  0  0  0  0  0  0  0
    2.6911  -12.5850   -3.6224 H   0  0  0  0  0  0  0  0  0  0  0  0
    0.7480  -12.5999   -2.0825 H   0  0  0  0  0  0  0  0  0  0  0  0
    1.5159  -14.2546   -2.3107 H   0  0  0  0  0  0  0  0  0  0  0  0
    1.6135  -12.1259    1.4047 H   0  0  0  0  0  0  0  0  0  0  0  0
    2.4589  -11.4121   -0.0104 H   0  0  0  0  0  0  0  0  0  0  0  0
    0.6680  -11.5513   -0.0104 H   0  0  0  0  0  0  0  0  0  0  0  0
   -0.1352  -14.6533    3.6053 H   0  0  0  0  0  0  0  0  0  0  0  0
   -1.1070  -16.9858    1.8860 H   0  0  0  0  0  0  0  0  0  0  0  0
    0.3274  -17.0436    2.9921 H   0  0  0  0  0  0  0  0  0  0  0  0
  2  1  1  1
  2  3  1  0
  3  4  2  0
  3  5  1  0
  2  6  1  0
  6  7  1  0
  7  8  1  0
  8  9  1  1
  8 10  1  0
 10 11  1  0
 11 12  1  0
 12 13  1  6
 12 14  1  0
 14 15  2  0
 15 16  1  0
 16 17  1  0
 17 18  1  0
 18 19  1  1
 18 20  1  0
 20 21  1  0
 21 22  1  0
 22 23  1  0
 22 24  1  0
 24 25  1  6
 24 26  1  0
 26 27  2  0
 26 28  1  0
 24 29  1  0
 29 30  1  0
 30 31  1  0
 31 32  1  0
 32 33  1  1
 14 34  1  0
 34 35  1  0
 35  2  1  0
 34  8  1  0
 32 12  1  0
 32 17  1  0
 29 18  1  0
  1 36  1  0
  1 37  1  0
  1 38  1  0
  6 39  1  0
  6 40  1  0
  7 41  1  0
  7 42  1  0
  9 43  1  0
  9 44  1  0
  9 45  1  0
 10 46  1  0
 10 47  1  0
 11 48  1  0
 11 49  1  0
 13 50  1  0
 13 51  1  0
 13 52  1  0
 15 53  1  0
 16 54  1  0
 16 55  1  0
 17 56  1  6
 19 57  1  0
 19 58  1  0
 19 59  1  0
 20 60  1  0
 20 61  1  0
 21 62  1  0
 21 63  1  0
 22 64  1  6
 23 65  1  0
 25 66  1  0
 25 67  1  0
 25 68  1  0
 29 69  1  6
 30 70  1  0
 30 71  1  0
 31 72  1  0
 31 73  1  0
 33 74  1  0
 33 75  1  0
 33 76  1  0
 34 77  1  1
 35 78  1  0
 35 79  1  0
M  CHG  2   5  -1  28  -1
M  END
>  <meeko>  (5) 
{"is_sidechain": [false], "free_energy": -7.998, "intermolecular_energy": -9.169, "internal_energy": -0.5}

$$$$
LIB_ZZWXYBPRSDQAJH__M_PUB_ALL__e8__s20260927
     RDKit          3D

 79 83  0  0  0  0  0  0  0  0999 V2000
    0.2520  -16.2080    0.4380 C   0  0  0  0  0  0  0  0  0  0  0  0
    0.0490  -14.9790   -0.4660 C   0  0  1  0  0  0  0  0  0  0  0  0
   -1.4010  -15.1200   -1.0280 C   0  0  0  0  0  0  0  0  0  0  0  0
   -1.5330  -15.9010   -2.0150 O   0  0  0  0  0  0  0  0  0  0  0  0
   -2.2950  -14.4490   -0.4370 O   0  0  0  0  0  0  0  0  0  0  0  0
    0.2620  -13.7040    0.3820 C   0  0  0  0  0  0  0  0  0  0  0  0
    0.6950  -12.5220   -0.4860 C   0  0  0  0  0  0  0  0  0  0  0  0
    2.0790  -12.7610   -1.1570 C   0  0  2  0  0  0  0  0  0  0  0  0
    3.1760  -12.2070   -0.2140 C   0  0  0  0  0  0  0  0  0  0  0  0
    2.0980  -11.9890   -2.4930 C   0  0  0  0  0  0  0  0  0  0  0  0
    3.3880  -12.2020   -3.2820 C   0  0  0  0  0  0  0  0  0  0  0  0
    3.7140  -13.6920   -3.6040 C   0  0  2  0  0  0  0  0  0  0  0  0
    2.7080  -14.1430   -4.7050 C   0  0  0  0  0  0  0  0  0  0  0  0
    3.4510  -14.6050   -2.3930 C   0  0  0  0  0  0  0  0  0  0  0  0
    4.1860  -15.7170   -2.1910 C   0  0  0  0  0  0  0  0  0  0  0  0
    5.3160  -16.2020   -3.0490 C   0  0  0  0  0  0  0  0  0  0  0  0
    5.5790  -15.3730   -4.3270 C   0  0  2  0  0  0  0  0  0  0  0  0
    6.9440  -15.7280   -5.0720 C   0  0  1  0  0  0  0  0  0  0  0  0
    8.1840  -15.4970   -4.1670 C   0  0  0  0  0  0  0  0  0  0  0  0
    6.9340  -17.2420   -5.4570 C   0  0  0  0  0  0  0  0  0  0  0  0
    8.0290  -17.6520   -6.4560 C   0  0  0  0  0  0  0  0  0  0  0  0
    8.0020  -16.7940   -7.7250 C   0  0  1  0  0  0  0  0  0  0  0  0
    6.7740  -17.1530   -8.3750 O   0  0  0  0  0  0  0  0  0  0  0  0
    8.1150  -15.2760   -7.4070 C   0  0  1  0  0  0  0  0  0  0  0  0
    9.5440  -14.9430   -6.9350 C   0  0  0  0  0  0  0  0  0  0  0  0
    7.9250  -14.4850   -8.7510 C   0  0  0  0  0  0  0  0  0  0  0  0
    8.9040  -13.7950   -9.1530 O   0  0  0  0  0  0  0  0  0  0  0  0
    6.7910  -14.6210   -9.3040 O   0  0  0  0  0  0  0  0  0  0  0  0
    6.9810  -14.8820   -6.4040 C   0  0  2  0  0  0  0  0  0  0  0  0
    6.8640  -13.3760   -6.1000 C   0  0  0  0  0  0  0  0  0  0  0  0
    5.5290  -13.0610   -5.4130 C   0  0  0  0  0  0  0  0  0  0  0  0
    5.2690  -13.8430   -4.0950 C   0  0  1  0  0  0  0  0  0  0  0  0
    6.2190  -13.2410   -3.0130 C   0  0  0  0  0  0  0  0  0  0  0  0
    2.3340  -14.2800   -1.3930 C   0  0  2  0  0  0  0  0  0  0  0  0
    1.0120  -15.0240   -1.6850 C   0  0  0  0  0  0  0  0  0  0  0  0
    0.2011  -15.8998    1.4927 H   0  0  0  0  0  0  0  0  0  0  0  0
   -0.5361  -16.9477    0.2337 H   0  0  0  0  0  0  0  0  0  0  0  0
    1.2361  -16.6549    0.2337 H   0  0  0  0  0  0  0  0  0  0  0  0
   -0.6807  -13.4496    0.8885 H   0  0  0  0  0  0  0  0  0  0  0  0
    1.0574  -13.9048    1.1149 H   0  0  0  0  0  0  0  0  0  0  0  0
   -0.0578  -12.3657   -1.2727 H   0  0  0  0  0  0  0  0  0  0  0  0
    0.7832  -11.6396    0.1648 H   0  0  0  0  0  0  0  0  0  0  0  0
    2.8721  -12.3605    0.8320 H   0  0  0  0  0  0  0  0  0  0  0  0
    4.1223  -12.7353   -0.4022 H   0  0  0  0  0  0  0  0  0  0  0  0
    3.3126  -11.1319   -0.4022 H   0  0  0  0  0  0  0  0  0  0  0  0
    1.2506  -12.3283   -3.1069 H   0  0  0  0  0  0  0  0  0  0  0  0
    2.0278  -10.9170   -2.2567 H   0  0  0  0  0  0  0  0  0  0  0  0
    3.3023  -11.6563   -4.2333 H   0  0  0  0  0  0  0  0  0  0  0  0
    4.2066  -11.8346   -2.6457 H   0  0  0  0  0  0  0  0  0  0  0  0
    1.8025  -14.5489   -4.2303 H   0  0  0  0  0  0  0  0  0  0  0  0
    2.4382  -13.2797   -5.3310 H   0  0  0  0  0  0  0  0  0  0  0  0
    3.1730  -14.9188   -5.3310 H   0  0  0  0  0  0  0  0  0  0  0  0
    3.9322  -16.3275   -1.3118 H   0  0  0  0  0  0  0  0  0  0  0  0
    6.2330  -16.1900   -2.4416 H   0  0  0  0  0  0  0  0  0  0  0  0
    5.0274  -17.2064   -3.3924 H   0  0  0  0  0  0  0  0  0  0  0  0
    4.8470  -15.6882   -5.0852 H   0  0  0  0  0  0  0  0  0  0  0  0
    7.8825  -15.5532   -3.1106 H   0  0  0  0  0  0  0  0  0  0  0  0
    8.9385  -16.2700   -4.3746 H   0  0  0  0  0  0  0  0  0  0  0  0
    8.6096  -14.5041   -4.3746 H   0  0  0  0  0  0  0  0  0  0  0  0
    7.0689  -17.8313   -4.5380 H   0  0  0  0  0  0  0  0  0  0  0  0
    5.9705  -17.4331   -5.9522 H   0  0  0  0  0  0  0  0  0  0  0  0
    9.0105  -17.5392   -5.9724 H   0  0  0  0  0  0  0  0  0  0  0  0
    7.8462  -18.6963   -6.7493 H   0  0  0  0  0  0  0  0  0  0  0  0
    8.8660  -16.9814   -8.3795 H   0  0  0  0  0  0  0  0  0  0  0  0
    6.7820  -16.6330   -9.2220 H   0  0  0  0  0  0  0  0  0  0  0  0
    9.5746  -14.9359   -5.8354 H   0  0  0  0  0  0  0  0  0  0  0  0
   10.2424  -15.7025   -7.3163 H   0  0  0  0  0  0  0  0  0  0  0  0
    9.8348  -13.9530   -7.3163 H   0  0  0  0  0  0  0  0  0  0  0  0
    6.0831  -15.1541   -6.9782 H   0  0  0  0  0  0  0  0  0  0  0  0
    7.6898  -13.0765   -5.4379 H   0  0  0  0  0  0  0  0  0  0  0  0
    6.9125  -12.8202   -7.0480 H   0  0  0  0  0  0  0  0  0  0  0  0
    5.5094  -11.9858   -5.1816 H   0  0  0  0  0  0  0  0  0  0  0  0
    4.7409  -13.3705   -6.1152 H   0  0  0  0  0  0  0  0  0  0  0  0
    5.8349  -13.4844   -2.0114 H   0  0  0  0  0  0  0  0  0  0  0  0
    7.2266  -13.6658   -3.1325 H   0  0  0  0  0  0  0  0  0  0  0  0
    6.2651  -12.1485   -3.1325 H   0  0  0  0  0  0  0  0  0  0  0  0
    2.7347  -14.6671   -0.4445 H   0  0  0  0  0  0  0  0  0  0  0  0
    0.5190  -14.5509   -2.5471 H   0  0  0  0  0  0  0  0  0  0  0  0
    1.2494  -16.0769   -1.8973 H   0  0  0  0  0  0  0  0  0  0  0  0
  2  1  1  1
  2  3  1  0
  3  4  2  0
  3  5  1  0
  2  6  1  0
  6  7  1  0
  7  8  1  0
  8  9  1  1
  8 10  1  0
 10 11  1  0
 11 12  1  0
 12 13  1  6
 12 14  1  0
 14 15  2  0
 15 16  1  0
 16 17  1  0
 17 18  1  0
 18 19  1  1
 18 20  1  0
 20 21  1  0
 21 22  1  0
 22 23  1  0
 22 24  1  0
 24 25  1  1
 24 26  1  0
 26 27  2  0
 26 28  1  0
 24 29  1  0
 29 30  1  0
 30 31  1  0
 31 32  1  0
 32 33  1  1
 14 34  1  0
 34 35  1  0
 35  2  1  0
 34  8  1  0
 32 12  1  0
 32 17  1  0
 29 18  1  0
  1 36  1  0
  1 37  1  0
  1 38  1  0
  6 39  1  0
  6 40  1  0
  7 41  1  0
  7 42  1  0
  9 43  1  0
  9 44  1  0
  9 45  1  0
 10 46  1  0
 10 47  1  0
 11 48  1  0
 11 49  1  0
 13 50  1  0
 13 51  1  0
 13 52  1  0
 15 53  1  0
 16 54  1  0
 16 55  1  0
 17 56  1  6
 19 57  1  0
 19 58  1  0
 19 59  1  0
 20 60  1  0
 20 61  1  0
 21 62  1  0
 21 63  1  0
 22 64  1  6
 23 65  1  0
 25 66  1  0
 25 67  1  0
 25 68  1  0
 29 69  1  6
 30 70  1  0
 30 71  1  0
 31 72  1  0
 31 73  1  0
 33 74  1  0
 33 75  1  0
 33 76  1  0
 34 77  1  1
 35 78  1  0
 35 79  1  0
M  CHG  2   5  -1  28  -1
M  END
>  <meeko>  (6) 
{"is_sidechain": [false], "free_energy": -7.788, "intermolecular_energy": -8.965, "internal_energy": -0.463}

$$$$
LIB_ZZWXYBPRSDQAJH__M_PUB_ALL__e8__s20260927
     RDKit          3D

 79 83  0  0  0  0  0  0  0  0999 V2000
    1.3700  -14.9450    0.7190 C   0  0  0  0  0  0  0  0  0  0  0  0
    0.0690  -14.5610    1.4450 C   0  0  1  0  0  0  0  0  0  0  0  0
    0.0060  -13.0030    1.3740 C   0  0  0  0  0  0  0  0  0  0  0  0
    0.2390  -12.4950    0.2380 O   0  0  0  0  0  0  0  0  0  0  0  0
   -0.2790  -12.4070    2.4520 O   0  0  0  0  0  0  0  0  0  0  0  0
   -1.1150  -15.2610    0.7370 C   0  0  0  0  0  0  0  0  0  0  0  0
   -2.2940  -15.4610    1.6880 C   0  0  0  0  0  0  0  0  0  0  0  0
   -1.9440  -16.4180    2.8660 C   0  0  2  0  0  0  0  0  0  0  0  0
   -2.3050  -17.8630    2.4390 C   0  0  0  0  0  0  0  0  0  0  0  0
   -2.7960  -16.0030    4.0840 C   0  0  0  0  0  0  0  0  0  0  0  0
   -2.4890  -16.8300    5.3300 C   0  0  0  0  0  0  0  0  0  0  0  0
   -0.9970  -16.8020    5.7790 C   0  0  2  0  0  0  0  0  0  0  0  0
   -0.7380  -15.3900    6.3850 C   0  0  0  0  0  0  0  0  0  0  0  0
   -0.0410  -16.9270    4.5780 C   0  0  0  0  0  0  0  0  0  0  0  0
    1.1590  -17.5280    4.7070 C   0  0  0  0  0  0  0  0  0  0  0  0
    1.7120  -18.1470    5.9560 C   0  0  0  0  0  0  0  0  0  0  0  0
    0.8350  -17.9840    7.2190 C   0  0  2  0  0  0  0  0  0  0  0  0
    1.2930  -18.8780    8.4570 C   0  0  1  0  0  0  0  0  0  0  0  0
    1.2660  -20.3950    8.1280 C   0  0  0  0  0  0  0  0  0  0  0  0
    2.7670  -18.5160    8.8270 C   0  0  0  0  0  0  0  0  0  0  0  0
    3.2330  -19.0570   10.1900 C   0  0  0  0  0  0  0  0  0  0  0  0
    2.2950  -18.6370   11.3270 C   0  0  1  0  0  0  0  0  0  0  0  0
    2.4670  -17.2170   11.4300 O   0  0  0  0  0  0  0  0  0  0  0  0
    0.8240  -19.0660   11.0600 C   0  0  1  0  0  0  0  0  0  0  0  0
    0.6890  -20.5950   11.2020 C   0  0  0  0  0  0  0  0  0  0  0  0
   -0.0700  -18.4610   12.2010 C   0  0  0  0  0  0  0  0  0  0  0  0
   -0.8100  -19.2640   12.8360 O   0  0  0  0  0  0  0  0  0  0  0  0
    0.0420  -17.2090   12.3690 O   0  0  0  0  0  0  0  0  0  0  0  0
    0.3710  -18.4900    9.6790 C   0  0  2  0  0  0  0  0  0  0  0  0
   -1.1160  -18.7030    9.3310 C   0  0  0  0  0  0  0  0  0  0  0  0
   -1.5350  -17.8080    8.1580 C   0  0  0  0  0  0  0  0  0  0  0  0
   -0.7010  -17.9970    6.8590 C   0  0  1  0  0  0  0  0  0  0  0  0
   -1.1180  -19.3690    6.2450 C   0  0  0  0  0  0  0  0  0  0  0  0
   -0.4240  -16.3560    3.2070 C   0  0  2  0  0  0  0  0  0  0  0  0
    0.1430  -14.9420    2.9490 C   0  0  0  0  0  0  0  0  0  0  0  0
    2.1494  -15.1750    1.4604 H   0  0  0  0  0  0  0  0  0  0  0  0
    1.1911  -15.8287    0.0888 H   0  0  0  0  0  0  0  0  0  0  0  0
    1.6996  -14.1058    0.0888 H   0  0  0  0  0  0  0  0  0  0  0  0
   -1.4410  -14.6420   -0.1119 H   0  0  0  0  0  0  0  0  0  0  0  0
   -0.7768  -16.2493    0.3923 H   0  0  0  0  0  0  0  0  0  0  0  0
   -2.5863  -14.4839    2.1002 H   0  0  0  0  0  0  0  0  0  0  0  0
   -3.1158  -15.9162    1.1159 H   0  0  0  0  0  0  0  0  0  0  0  0
   -2.4597  -18.4822    3.3349 H   0  0  0  0  0  0  0  0  0  0  0  0
   -3.2272  -17.8486    1.8395 H   0  0  0  0  0  0  0  0  0  0  0  0
   -1.4844  -18.2840    1.8395 H   0  0  0  0  0  0  0  0  0  0  0  0
   -2.5978  -14.9443    4.3072 H   0  0  0  0  0  0  0  0  0  0  0  0
   -3.8510  -16.1747    3.8242 H   0  0  0  0  0  0  0  0  0  0  0  0
   -3.1030  -16.4442    6.1571 H   0  0  0  0  0  0  0  0  0  0  0  0
   -2.7165  -17.8751    5.0730 H   0  0  0  0  0  0  0  0  0  0  0  0
   -0.7498  -15.4545    7.4830 H   0  0  0  0  0  0  0  0  0  0  0  0
    0.2427  -15.0214    6.0499 H   0  0  0  0  0  0  0  0  0  0  0  0
   -1.5241  -14.6973    6.0499 H   0  0  0  0  0  0  0  0  0  0  0  0
    1.7937  -17.5682    3.8095 H   0  0  0  0  0  0  0  0  0  0  0  0
    1.8453  -19.2232    5.7715 H   0  0  0  0  0  0  0  0  0  0  0  0
    2.6518  -17.6162    6.1679 H   0  0  0  0  0  0  0  0  0  0  0  0
    1.0131  -16.9755    7.6205 H   0  0  0  0  0  0  0  0  0  0  0  0
    1.2557  -20.9730    9.0638 H   0  0  0  0  0  0  0  0  0  0  0  0
    0.3636  -20.6274    7.5435 H   0  0  0  0  0  0  0  0  0  0  0  0
    2.1596  -20.6594    7.5435 H   0  0  0  0  0  0  0  0  0  0  0  0
    3.4275  -18.9277    8.0497 H   0  0  0  0  0  0  0  0  0  0  0  0
    2.8130  -17.4190    8.8931 H   0  0  0  0  0  0  0  0  0  0  0  0
    3.2649  -20.1556   10.1437 H   0  0  0  0  0  0  0  0  0  0  0  0
    4.2283  -18.6379   10.3990 H   0  0  0  0  0  0  0  0  0  0  0  0
    2.5365  -19.1345   12.2779 H   0  0  0  0  0  0  0  0  0  0  0  0
    2.1420  -16.8650   10.5590 H   0  0  0  0  0  0  0  0  0  0  0  0
    0.6653  -20.8635   12.2685 H   0  0  0  0  0  0  0  0  0  0  0  0
   -0.2420  -20.9273   10.7194 H   0  0  0  0  0  0  0  0  0  0  0  0
    1.5474  -21.0853   10.7194 H   0  0  0  0  0  0  0  0  0  0  0  0
    0.5012  -17.4105    9.8457 H   0  0  0  0  0  0  0  0  0  0  0  0
   -1.2746  -19.7561    9.0556 H   0  0  0  0  0  0  0  0  0  0  0  0
   -1.7244  -18.4408   10.2091 H   0  0  0  0  0  0  0  0  0  0  0  0
   -2.5876  -18.0239    7.9226 H   0  0  0  0  0  0  0  0  0  0  0  0
   -1.3654  -16.7716    8.4851 H   0  0  0  0  0  0  0  0  0  0  0  0
   -1.3347  -20.0821    7.0540 H   0  0  0  0  0  0  0  0  0  0  0  0
   -2.0160  -19.2350    5.6240 H   0  0  0  0  0  0  0  0  0  0  0  0
   -0.2973  -19.7574    5.6240 H   0  0  0  0  0  0  0  0  0  0  0  0
    0.0688  -17.0479    2.5081 H   0  0  0  0  0  0  0  0  0  0  0  0
   -0.4393  -14.2124    3.5310 H   0  0  0  0  0  0  0  0  0  0  0  0
    1.1999  -14.9346    3.2538 H   0  0  0  0  0  0  0  0  0  0  0  0
  2  1  1  6
  2  3  1  0
  3  4  2  0
  3  5  1  0
  2  6  1  0
  6  7  1  0
  7  8  1  0
  8  9  1  6
  8 10  1  0
 10 11  1  0
 11 12  1  0
 12 13  1  1
 12 14  1  0
 14 15  2  0
 15 16  1  0
 16 17  1  0
 17 18  1  0
 18 19  1  6
 18 20  1  0
 20 21  1  0
 21 22  1  0
 22 23  1  0
 22 24  1  0
 24 25  1  6
 24 26  1  0
 26 27  2  0
 26 28  1  0
 24 29  1  0
 29 30  1  0
 30 31  1  0
 31 32  1  0
 32 33  1  6
 14 34  1  0
 34 35  1  0
 35  2  1  0
 34  8  1  0
 32 12  1  0
 32 17  1  0
 29 18  1  0
  1 36  1  0
  1 37  1  0
  1 38  1  0
  6 39  1  0
  6 40  1  0
  7 41  1  0
  7 42  1  0
  9 43  1  0
  9 44  1  0
  9 45  1  0
 10 46  1  0
 10 47  1  0
 11 48  1  0
 11 49  1  0
 13 50  1  0
 13 51  1  0
 13 52  1  0
 15 53  1  0
 16 54  1  0
 16 55  1  0
 17 56  1  1
 19 57  1  0
 19 58  1  0
 19 59  1  0
 20 60  1  0
 20 61  1  0
 21 62  1  0
 21 63  1  0
 22 64  1  1
 23 65  1  0
 25 66  1  0
 25 67  1  0
 25 68  1  0
 29 69  1  1
 30 70  1  0
 30 71  1  0
 31 72  1  0
 31 73  1  0
 33 74  1  0
 33 75  1  0
 33 76  1  0
 34 77  1  6
 35 78  1  0
 35 79  1  0
M  CHG  2   5  -1  28  -1
M  END
>  <meeko>  (7) 
{"is_sidechain": [false], "free_energy": -7.772, "intermolecular_energy": -9.024, "internal_energy": -0.385}

$$$$
LIB_ZZWXYBPRSDQAJH__M_PUB_ALL__e8__s20260927
     RDKit          3D

 79 83  0  0  0  0  0  0  0  0999 V2000
    8.9990  -15.2920   -1.2750 C   0  0  0  0  0  0  0  0  0  0  0  0
    8.5440  -13.8340   -1.4560 C   0  0  1  0  0  0  0  0  0  0  0  0
    9.6400  -12.9730   -0.7540 C   0  0  0  0  0  0  0  0  0  0  0  0
   10.6310  -12.6530   -1.4730 O   0  0  0  0  0  0  0  0  0  0  0  0
    9.4240  -12.6760    0.4560 O   0  0  0  0  0  0  0  0  0  0  0  0
    8.4060  -13.5450   -2.9700 C   0  0  0  0  0  0  0  0  0  0  0  0
    7.4110  -12.4160   -3.2350 C   0  0  0  0  0  0  0  0  0  0  0  0
    5.9650  -12.7910   -2.7930 C   0  0  2  0  0  0  0  0  0  0  0  0
    5.2430  -13.4380   -4.0010 C   0  0  0  0  0  0  0  0  0  0  0  0
    5.2420  -11.4900   -2.3840 C   0  0  0  0  0  0  0  0  0  0  0  0
    3.8290  -11.7380   -1.8630 C   0  0  0  0  0  0  0  0  0  0  0  0
    3.7440  -12.7140   -0.6520 C   0  0  2  0  0  0  0  0  0  0  0  0
    4.3000  -11.9440    0.5840 C   0  0  0  0  0  0  0  0  0  0  0  0
    4.6660  -13.9330   -0.8390 C   0  0  0  0  0  0  0  0  0  0  0  0
    4.3420  -15.1340   -0.3180 C   0  0  0  0  0  0  0  0  0  0  0  0
    3.1040  -15.4570    0.4630 C   0  0  0  0  0  0  0  0  0  0  0  0
    2.1740  -14.2570    0.7560 C   0  0  2  0  0  0  0  0  0  0  0  0
    0.7430  -14.6600    1.3330 C   0  0  1  0  0  0  0  0  0  0  0  0
   -0.0500  -15.5680    0.3550 C   0  0  0  0  0  0  0  0  0  0  0  0
    0.9380  -15.4700    2.6550 C   0  0  0  0  0  0  0  0  0  0  0  0
   -0.3430  -15.6450    3.4890 C   0  0  0  0  0  0  0  0  0  0  0  0
   -1.0170  -14.3040    3.7970 C   0  0  1  0  0  0  0  0  0  0  0  0
   -0.1050  -13.6380    4.6810 O   0  0  0  0  0  0  0  0  0  0  0  0
   -1.3310  -13.4970    2.5060 C   0  0  1  0  0  0  0  0  0  0  0  0
   -2.4880  -14.1650    1.7370 C   0  0  0  0  0  0  0  0  0  0  0  0
   -1.8760  -12.0880    2.9370 C   0  0  0  0  0  0  0  0  0  0  0  0
   -1.1090  -11.3650    3.6320 O   0  0  0  0  0  0  0  0  0  0  0  0
   -3.0500  -11.8170    2.5380 O   0  0  0  0  0  0  0  0  0  0  0  0
   -0.0110  -13.3180    1.6860 C   0  0  2  0  0  0  0  0  0  0  0  0
   -0.1240  -12.4110    0.4450 C   0  0  0  0  0  0  0  0  0  0  0  0
    1.2670  -12.0150   -0.0680 C   0  0  0  0  0  0  0  0  0  0  0  0
    2.1990  -13.2080   -0.4220 C   0  0  1  0  0  0  0  0  0  0  0  0
    1.6520  -13.8380   -1.7410 C   0  0  0  0  0  0  0  0  0  0  0  0
    5.9850  -13.8070   -1.6110 C   0  0  2  0  0  0  0  0  0  0  0  0
    7.2110  -13.5730   -0.7010 C   0  0  0  0  0  0  0  0  0  0  0  0
    9.0711  -15.5231   -0.2020 H   0  0  0  0  0  0  0  0  0  0  0  0
    8.2683  -15.9654   -1.7468 H   0  0  0  0  0  0  0  0  0  0  0  0
    9.9830  -15.4303   -1.7468 H   0  0  0  0  0  0  0  0  0  0  0  0
    9.3892  -13.2565   -3.3701 H   0  0  0  0  0  0  0  0  0  0  0  0
    8.0350  -14.4555   -3.4633 H   0  0  0  0  0  0  0  0  0  0  0  0
    7.7315  -11.5232   -2.6780 H   0  0  0  0  0  0  0  0  0  0  0  0
    7.3949  -12.2271   -4.3185 H   0  0  0  0  0  0  0  0  0  0  0  0
    4.4697  -14.1309   -3.6378 H   0  0  0  0  0  0  0  0  0  0  0  0
    4.7739  -12.6524   -4.6115 H   0  0  0  0  0  0  0  0  0  0  0  0
    5.9727  -13.9901   -4.6115 H   0  0  0  0  0  0  0  0  0  0  0  0
    5.8266  -10.9965   -1.5936 H   0  0  0  0  0  0  0  0  0  0  0  0
    5.1583  -10.8608   -3.2824 H   0  0  0  0  0  0  0  0  0  0  0  0
    3.4028  -10.7718   -1.5550 H   0  0  0  0  0  0  0  0  0  0  0  0
    3.2737  -12.2135   -2.6849 H   0  0  0  0  0  0  0  0  0  0  0  0
    3.9494  -12.4296    1.5066 H   0  0  0  0  0  0  0  0  0  0  0  0
    5.3997  -11.9553    0.5588 H   0  0  0  0  0  0  0  0  0  0  0  0
    3.9433  -10.9037    0.5588 H   0  0  0  0  0  0  0  0  0  0  0  0
    5.0548  -15.9556   -0.4820 H   0  0  0  0  0  0  0  0  0  0  0  0
    2.5282  -16.2018   -0.1060 H   0  0  0  0  0  0  0  0  0  0  0  0
    3.4490  -15.8199    1.4424 H   0  0  0  0  0  0  0  0  0  0  0  0
    2.5929  -13.7127    1.6152 H   0  0  0  0  0  0  0  0  0  0  0  0
   -0.6671  -16.2746    0.9294 H   0  0  0  0  0  0  0  0  0  0  0  0
   -0.6989  -14.9456   -0.2787 H   0  0  0  0  0  0  0  0  0  0  0  0
    0.6541  -16.1272   -0.2787 H   0  0  0  0  0  0  0  0  0  0  0  0
    1.3172  -16.4689    2.3935 H   0  0  0  0  0  0  0  0  0  0  0  0
    1.6397  -14.8933    3.2755 H   0  0  0  0  0  0  0  0  0  0  0  0
   -1.0481  -16.2760    2.9281 H   0  0  0  0  0  0  0  0  0  0  0  0
   -0.0639  -16.1117    4.4452 H   0  0  0  0  0  0  0  0  0  0  0  0
   -2.0044  -14.4263    4.2661 H   0  0  0  0  0  0  0  0  0  0  0  0
    0.3610  -12.9760    4.1030 H   0  0  0  0  0  0  0  0  0  0  0  0
   -3.2113  -14.5826    2.4529 H   0  0  0  0  0  0  0  0  0  0  0  0
   -2.9883  -13.4167    1.1047 H   0  0  0  0  0  0  0  0  0  0  0  0
   -2.0901  -14.9724    1.1047 H   0  0  0  0  0  0  0  0  0  0  0  0
    0.6193  -12.7795    2.4091 H   0  0  0  0  0  0  0  0  0  0  0  0
   -0.6610  -12.9509   -0.3488 H   0  0  0  0  0  0  0  0  0  0  0  0
   -0.6705  -11.4980    0.7238 H   0  0  0  0  0  0  0  0  0  0  0  0
    1.1360  -11.4037   -0.9730 H   0  0  0  0  0  0  0  0  0  0  0  0
    1.7570  -11.4749    0.7556 H   0  0  0  0  0  0  0  0  0  0  0  0
    0.9489  -14.6478   -1.4965 H   0  0  0  0  0  0  0  0  0  0  0  0
    1.1326  -13.0663   -2.3281 H   0  0  0  0  0  0  0  0  0  0  0  0
    2.4890  -14.2439   -2.3281 H   0  0  0  0  0  0  0  0  0  0  0  0
    6.0941  -14.8001   -2.0713 H   0  0  0  0  0  0  0  0  0  0  0  0
    7.1993  -12.5314   -0.3476 H   0  0  0  0  0  0  0  0  0  0  0  0
    7.1512  -14.2758    0.1431 H   0  0  0  0  0  0  0  0  0  0  0  0
  2  1  1  6
  2  3  1  0
  3  4  2  0
  3  5  1  0
  2  6  1  0
  6  7  1  0
  7  8  1  0
  8  9  1  6
  8 10  1  0
 10 11  1  0
 11 12  1  0
 12 13  1  1
 12 14  1  0
 14 15  2  0
 15 16  1  0
 16 17  1  0
 17 18  1  0
 18 19  1  6
 18 20  1  0
 20 21  1  0
 21 22  1  0
 22 23  1  0
 22 24  1  0
 24 25  1  6
 24 26  1  0
 26 27  2  0
 26 28  1  0
 24 29  1  0
 29 30  1  0
 30 31  1  0
 31 32  1  0
 32 33  1  6
 14 34  1  0
 34 35  1  0
 35  2  1  0
 34  8  1  0
 32 12  1  0
 32 17  1  0
 29 18  1  0
  1 36  1  0
  1 37  1  0
  1 38  1  0
  6 39  1  0
  6 40  1  0
  7 41  1  0
  7 42  1  0
  9 43  1  0
  9 44  1  0
  9 45  1  0
 10 46  1  0
 10 47  1  0
 11 48  1  0
 11 49  1  0
 13 50  1  0
 13 51  1  0
 13 52  1  0
 15 53  1  0
 16 54  1  0
 16 55  1  0
 17 56  1  1
 19 57  1  0
 19 58  1  0
 19 59  1  0
 20 60  1  0
 20 61  1  0
 21 62  1  0
 21 63  1  0
 22 64  1  1
 23 65  1  0
 25 66  1  0
 25 67  1  0
 25 68  1  0
 29 69  1  1
 30 70  1  0
 30 71  1  0
 31 72  1  0
 31 73  1  0
 33 74  1  0
 33 75  1  0
 33 76  1  0
 34 77  1  6
 35 78  1  0
 35 79  1  0
M  CHG  2   5  -1  28  -1
M  END
>  <meeko>  (8) 
{"is_sidechain": [false], "free_energy": -7.761, "intermolecular_energy": -8.915, "internal_energy": -0.483}

$$$$
LIB_ZZWXYBPRSDQAJH__M_PUB_ALL__e8__s20260927
     RDKit          3D

 79 83  0  0  0  0  0  0  0  0999 V2000
    9.0030  -13.8970   -1.1120 C   0  0  0  0  0  0  0  0  0  0  0  0
   10.5400  -13.9170   -1.1880 C   0  0  1  0  0  0  0  0  0  0  0  0
   11.0070  -12.7030   -0.3260 C   0  0  0  0  0  0  0  0  0  0  0  0
   11.7820  -11.8850   -0.9040 O   0  0  0  0  0  0  0  0  0  0  0  0
   10.5600  -12.6540    0.8560 O   0  0  0  0  0  0  0  0  0  0  0  0
   11.0420  -15.2800   -0.6600 C   0  0  0  0  0  0  0  0  0  0  0  0
   12.4060  -15.6400   -1.2490 C   0  0  0  0  0  0  0  0  0  0  0  0
   12.3470  -15.8350   -2.7930 C   0  0  2  0  0  0  0  0  0  0  0  0
   12.0570  -17.3290   -3.0800 C   0  0  0  0  0  0  0  0  0  0  0  0
   13.7240  -15.4470   -3.3720 C   0  0  0  0  0  0  0  0  0  0  0  0
   13.7690  -15.5330   -4.8960 C   0  0  0  0  0  0  0  0  0  0  0  0
   12.6990  -14.6680   -5.6290 C   0  0  2  0  0  0  0  0  0  0  0  0
   13.1450  -13.1830   -5.4800 C   0  0  0  0  0  0  0  0  0  0  0  0
   11.3240  -14.7660   -4.9430 C   0  0  0  0  0  0  0  0  0  0  0  0
   10.1840  -14.6630   -5.6560 C   0  0  0  0  0  0  0  0  0  0  0  0
   10.0810  -14.4650   -7.1380 C   0  0  0  0  0  0  0  0  0  0  0  0
   11.4260  -14.2780   -7.8770 C   0  0  2  0  0  0  0  0  0  0  0  0
   11.3200  -14.3520   -9.4660 C   0  0  1  0  0  0  0  0  0  0  0  0
   10.7660  -15.7180   -9.9550 C   0  0  0  0  0  0  0  0  0  0  0  0
   10.3260  -13.2520   -9.9600 C   0  0  0  0  0  0  0  0  0  0  0  0
   10.3680  -12.9900  -11.4760 C   0  0  0  0  0  0  0  0  0  0  0  0
   11.7840  -12.6670  -11.9650 C   0  0  1  0  0  0  0  0  0  0  0  0
   12.0870  -11.3950  -11.3740 O   0  0  0  0  0  0  0  0  0  0  0  0
   12.8010  -13.7830  -11.5900 C   0  0  1  0  0  0  0  0  0  0  0  0
   12.5420  -15.0380  -12.4460 C   0  0  0  0  0  0  0  0  0  0  0  0
   14.2340  -13.2880  -12.0000 C   0  0  0  0  0  0  0  0  0  0  0  0
   14.8360  -13.9490  -12.8920 O   0  0  0  0  0  0  0  0  0  0  0  0
   14.6480  -12.2600  -11.3820 O   0  0  0  0  0  0  0  0  0  0  0  0
   12.7500  -14.0170  -10.0450 C   0  0  2  0  0  0  0  0  0  0  0  0
   13.8070  -14.9930   -9.4910 C   0  0  0  0  0  0  0  0  0  0  0  0
   13.9080  -14.8770   -7.9650 C   0  0  0  0  0  0  0  0  0  0  0  0
   12.5770  -15.1180   -7.1980 C   0  0  1  0  0  0  0  0  0  0  0  0
   12.2740  -16.6460   -7.2810 C   0  0  0  0  0  0  0  0  0  0  0  0
   11.2160  -14.9690   -3.4250 C   0  0  2  0  0  0  0  0  0  0  0  0
   11.0240  -13.6520   -2.6410 C   0  0  0  0  0  0  0  0  0  0  0  0
    8.6880  -13.8929   -0.0581 H   0  0  0  0  0  0  0  0  0  0  0  0
    8.6229  -12.9938   -1.6118 H   0  0  0  0  0  0  0  0  0  0  0  0
    8.5995  -14.7900   -1.6118 H   0  0  0  0  0  0  0  0  0  0  0  0
   11.1276  -15.2296    0.4355 H   0  0  0  0  0  0  0  0  0  0  0  0
   10.3206  -16.0540   -0.9608 H   0  0  0  0  0  0  0  0  0  0  0  0
   13.1151  -14.8306   -1.0210 H   0  0  0  0  0  0  0  0  0  0  0  0
   12.7271  -16.5917   -0.8004 H   0  0  0  0  0  0  0  0  0  0  0  0
   11.9517  -17.8714   -2.1288 H   0  0  0  0  0  0  0  0  0  0  0  0
   11.1250  -17.4172   -3.6575 H   0  0  0  0  0  0  0  0  0  0  0  0
   12.8883  -17.7595   -3.6575 H   0  0  0  0  0  0  0  0  0  0  0  0
   13.9538  -14.4142   -3.0711 H   0  0  0  0  0  0  0  0  0  0  0  0
   14.4628  -16.1601   -2.9774 H   0  0  0  0  0  0  0  0  0  0  0  0
   14.7638  -15.2019   -5.2287 H   0  0  0  0  0  0  0  0  0  0  0  0
   13.5525  -16.5800   -5.1547 H   0  0  0  0  0  0  0  0  0  0  0  0
   13.2214  -12.9285   -4.4126 H   0  0  0  0  0  0  0  0  0  0  0  0
   14.1244  -13.0443   -5.9611 H   0  0  0  0  0  0  0  0  0  0  0  0
   12.4041  -12.5276   -5.9611 H   0  0  0  0  0  0  0  0  0  0  0  0
    9.2394  -14.7308   -5.0964 H   0  0  0  0  0  0  0  0  0  0  0  0
    9.5793  -15.3463   -7.5641 H   0  0  0  0  0  0  0  0  0  0  0  0
    9.5239  -13.5273   -7.2805 H   0  0  0  0  0  0  0  0  0  0  0  0
   11.7362  -13.2310   -7.7445 H   0  0  0  0  0  0  0  0  0  0  0  0
   10.5125  -16.3431   -9.0861 H   0  0  0  0  0  0  0  0  0  0  0  0
    9.8643  -15.5517  -10.5626 H   0  0  0  0  0  0  0  0  0  0  0  0
   11.5289  -16.2268  -10.5626 H   0  0  0  0  0  0  0  0  0  0  0  0
    9.3059  -13.5656   -9.6934 H   0  0  0  0  0  0  0  0  0  0  0  0
   10.6284  -12.3140   -9.4713 H   0  0  0  0  0  0  0  0  0  0  0  0
   10.0070  -13.8866  -12.0012 H   0  0  0  0  0  0  0  0  0  0  0  0
    9.7293  -12.1198  -11.6877 H   0  0  0  0  0  0  0  0  0  0  0  0
   11.8507  -12.6200  -13.0620 H   0  0  0  0  0  0  0  0  0  0  0  0
   13.0240  -11.2120  -11.6510 H   0  0  0  0  0  0  0  0  0  0  0  0
   12.3639  -15.9008  -11.7873 H   0  0  0  0  0  0  0  0  0  0  0  0
   11.6590  -14.8730  -13.0809 H   0  0  0  0  0  0  0  0  0  0  0  0
   13.4182  -15.2360  -13.0809 H   0  0  0  0  0  0  0  0  0  0  0  0
   13.0191  -13.0189   -9.6689 H   0  0  0  0  0  0  0  0  0  0  0  0
   13.5223  -16.0218   -9.7565 H   0  0  0  0  0  0  0  0  0  0  0  0
   14.7839  -14.7411   -9.9294 H   0  0  0  0  0  0  0  0  0  0  0  0
   14.6426  -15.6169   -7.6144 H   0  0  0  0  0  0  0  0  0  0  0  0
   14.2003  -13.8377   -7.7544 H   0  0  0  0  0  0  0  0  0  0  0  0
   12.1920  -17.0593   -6.2649 H   0  0  0  0  0  0  0  0  0  0  0  0
   11.3272  -16.8034   -7.8183 H   0  0  0  0  0  0  0  0  0  0  0  0
   13.0891  -17.1528   -7.8183 H   0  0  0  0  0  0  0  0  0  0  0  0
   10.2931  -15.5585   -3.3211 H   0  0  0  0  0  0  0  0  0  0  0  0
   11.9831  -13.1146   -2.6054 H   0  0  0  0  0  0  0  0  0  0  0  0
   10.2575  -13.0537   -3.1554 H   0  0  0  0  0  0  0  0  0  0  0  0
  2  1  1  6
  2  3  1  0
  3  4  2  0
  3  5  1  0
  2  6  1  0
  6  7  1  0
  7  8  1  0
  8  9  1  1
  8 10  1  0
 10 11  1  0
 11 12  1  0
 12 13  1  6
 12 14  1  0
 14 15  2  0
 15 16  1  0
 16 17  1  0
 17 18  1  0
 18 19  1  1
 18 20  1  0
 20 21  1  0
 21 22  1  0
 22 23  1  0
 22 24  1  0
 24 25  1  6
 24 26  1  0
 26 27  2  0
 26 28  1  0
 24 29  1  0
 29 30  1  0
 30 31  1  0
 31 32  1  0
 32 33  1  1
 14 34  1  0
 34 35  1  0
 35  2  1  0
 34  8  1  0
 32 12  1  0
 32 17  1  0
 29 18  1  0
  1 36  1  0
  1 37  1  0
  1 38  1  0
  6 39  1  0
  6 40  1  0
  7 41  1  0
  7 42  1  0
  9 43  1  0
  9 44  1  0
  9 45  1  0
 10 46  1  0
 10 47  1  0
 11 48  1  0
 11 49  1  0
 13 50  1  0
 13 51  1  0
 13 52  1  0
 15 53  1  0
 16 54  1  0
 16 55  1  0
 17 56  1  6
 19 57  1  0
 19 58  1  0
 19 59  1  0
 20 60  1  0
 20 61  1  0
 21 62  1  0
 21 63  1  0
 22 64  1  6
 23 65  1  0
 25 66  1  0
 25 67  1  0
 25 68  1  0
 29 69  1  1
 30 70  1  0
 30 71  1  0
 31 72  1  0
 31 73  1  0
 33 74  1  0
 33 75  1  0
 33 76  1  0
 34 77  1  6
 35 78  1  0
 35 79  1  0
M  CHG  2   5  -1  28  -1
M  END
>  <meeko>  (9) 
{"is_sidechain": [false], "free_energy": -7.726, "intermolecular_energy": -8.871, "internal_energy": -0.486}

$$$$
