LIB_CBXHPCHIRCAADU__M_PUB_ALL__e8__s20260927
     RDKit          3D

 60 65  0  0  0  0  0  0  0  0999 V2000
   -1.6290   -9.4980    1.3480 C   0  0  0  0  0  0  0  0  0  0  0  0
   -2.5000  -10.5070    0.6910 C   0  0  0  0  0  0  0  0  0  0  0  0
   -3.5270  -10.3090   -0.2130 C   0  0  0  0  0  0  0  0  0  0  0  0
   -4.1270  -11.5620   -0.4670 C   0  0  0  0  0  0  0  0  0  0  0  0
   -3.4510  -12.5070    0.2790 C   0  0  0  0  0  0  0  0  0  0  0  0
   -3.6910  -13.9690    0.4070 C   0  0  0  0  0  0  0  0  0  0  0  0
   -2.4150  -11.8690    0.9450 N   0  0  0  0  0  0  0  0  0  0  0  0
   -1.4030  -12.5550    1.8440 C   0  0  0  0  0  0  0  0  0  0  0  0
   -1.6080  -12.7650    3.1640 N   0  0  0  0  0  0  0  0  0  0  0  0
   -0.5210  -13.3980    3.6360 N   0  0  0  0  0  0  0  0  0  0  0  0
    0.3580  -13.5290    2.6270 C   0  0  0  0  0  0  0  0  0  0  0  0
    1.5840  -14.0930    2.9660 N   0  0  0  0  0  0  0  0  0  0  0  0
    2.5750  -14.7340    2.2060 C   0  0  0  0  0  0  0  0  0  0  0  0
    2.3470  -16.0450    1.7650 C   0  0  0  0  0  0  0  0  0  0  0  0
    3.2660  -16.7000    0.9400 C   0  0  0  0  0  0  0  0  0  0  0  0
    4.4310  -16.0490    0.5460 C   0  0  0  0  0  0  0  0  0  0  0  0
    4.6770  -14.7490    0.9780 C   0  0  0  0  0  0  0  0  0  0  0  0
    3.7530  -14.0980    1.8010 C   0  0  0  0  0  0  0  0  0  0  0  0
   -0.2220  -13.1440    1.4250 C   0  0  0  0  0  0  0  0  0  0  0  0
    0.2290  -13.3310    0.0810 C   0  0  0  0  0  0  0  0  0  0  0  0
   -0.1130  -14.2010   -0.7200 O   0  0  0  0  0  0  0  0  0  0  0  0
    1.1920  -12.3720   -0.2280 N   0  0  0  0  0  0  0  0  0  0  0  0
    1.8630  -12.1540   -1.4460 C   0  0  0  0  0  0  0  0  0  0  0  0
    1.8230  -10.9580   -2.1640 C   0  0  0  0  0  0  0  0  0  0  0  0
    2.5410  -10.8200   -3.3570 C   0  0  0  0  0  0  0  0  0  0  0  0
    3.3100  -11.8810   -3.8410 C   0  0  0  0  0  0  0  0  0  0  0  0
    3.3550  -13.0790   -3.1320 C   0  0  0  0  0  0  0  0  0  0  0  0
    2.6290  -13.2170   -1.9410 C   0  0  0  0  0  0  0  0  0  0  0  0
    4.1680  -14.2090   -3.6260 C   0  0  0  0  0  0  0  0  0  0  0  0
    4.2180  -15.2670   -3.0080 O   0  0  0  0  0  0  0  0  0  0  0  0
    4.9300  -14.0510   -4.8830 C   0  0  0  0  0  0  0  0  0  0  0  0
    5.7030  -15.1160   -5.3620 C   0  0  0  0  0  0  0  0  0  0  0  0
    6.4260  -14.9780   -6.5480 C   0  0  0  0  0  0  0  0  0  0  0  0
    6.3790  -13.7780   -7.2580 C   0  0  0  0  0  0  0  0  0  0  0  0
    5.6090  -12.7160   -6.7810 C   0  0  0  0  0  0  0  0  0  0  0  0
    4.8830  -12.8530   -5.5910 C   0  0  0  0  0  0  0  0  0  0  0  0
    4.0720  -11.7220   -5.0960 C   0  0  0  0  0  0  0  0  0  0  0  0
    4.0360  -10.6700   -5.7230 O   0  0  0  0  0  0  0  0  0  0  0  0
   -1.7137   -9.5961    2.4403 H   0  0  0  0  0  0  0  0  0  0  0  0
   -0.5844   -9.6624    1.0450 H   0  0  0  0  0  0  0  0  0  0  0  0
   -1.9442   -8.4886    1.0450 H   0  0  0  0  0  0  0  0  0  0  0  0
   -3.8240   -9.3468   -0.6557 H   0  0  0  0  0  0  0  0  0  0  0  0
   -4.9784  -11.7508   -1.1375 H   0  0  0  0  0  0  0  0  0  0  0  0
   -3.7357  -14.2414    1.4718 H   0  0  0  0  0  0  0  0  0  0  0  0
   -4.6437  -14.2280   -0.0781 H   0  0  0  0  0  0  0  0  0  0  0  0
   -2.8711  -14.5190   -0.0781 H   0  0  0  0  0  0  0  0  0  0  0  0
    1.9100  -13.7810    3.8770 H   0  0  0  0  0  0  0  0  0  0  0  0
    1.4293  -16.5672    2.0734 H   0  0  0  0  0  0  0  0  0  0  0  0
    3.0685  -17.7283    0.6029 H   0  0  0  0  0  0  0  0  0  0  0  0
    5.1554  -16.5603   -0.1050 H   0  0  0  0  0  0  0  0  0  0  0  0
    5.5991  -14.2333    0.6717 H   0  0  0  0  0  0  0  0  0  0  0  0
    3.9557  -13.0698    2.1351 H   0  0  0  0  0  0  0  0  0  0  0  0
    1.3850  -11.7050    0.5150 H   0  0  0  0  0  0  0  0  0  0  0  0
    1.2219  -10.1166   -1.7889 H   0  0  0  0  0  0  0  0  0  0  0  0
    2.4998   -9.8732   -3.9154 H   0  0  0  0  0  0  0  0  0  0  0  0
    2.6611  -14.1686   -1.3902 H   0  0  0  0  0  0  0  0  0  0  0  0
    5.7405  -16.0626   -4.8029 H   0  0  0  0  0  0  0  0  0  0  0  0
    7.0328  -15.8154   -6.9228 H   0  0  0  0  0  0  0  0  0  0  0  0
    6.9483  -13.6689   -8.1929 H   0  0  0  0  0  0  0  0  0  0  0  0
    5.5723  -11.7697   -7.3407 H   0  0  0  0  0  0  0  0  0  0  0  0
  1  2  1  0
  2  3  2  0
  3  4  1  0
  4  5  2  0
  5  6  1  0
  5  7  1  0
  7  8  1  0
  8  9  1  0
  9 10  1  0
 10 11  2  0
 11 12  1  0
 12 13  1  0
 13 14  2  0
 14 15  1  0
 15 16  2  0
 16 17  1  0
 17 18  2  0
 11 19  1  0
 19 20  1  0
 20 21  2  0
 20 22  1  0
 22 23  1  0
 23 24  2  0
 24 25  1  0
 25 26  2  0
 26 27  1  0
 27 28  2  0
 27 29  1  0
 29 30  2  0
 29 31  1  0
 31 32  2  0
 32 33  1  0
 33 34  2  0
 34 35  1  0
 35 36  2  0
 36 37  1  0
 37 38  2  0
  7  2  1  0
 19  8  2  0
 28 23  1  0
 36 31  1  0
 18 13  1  0
 37 26  1  0
  1 39  1  0
  1 40  1  0
  1 41  1  0
  3 42  1  0
  4 43  1  0
  6 44  1  0
  6 45  1  0
  6 46  1  0
 12 47  1  0
 14 48  1  0
 15 49  1  0
 16 50  1  0
 17 51  1  0
 18 52  1  0
 22 53  1  0
 24 54  1  0
 25 55  1  0
 28 56  1  0
 32 57  1  0
 33 58  1  0
 34 59  1  0
 35 60  1  0
M  CHG  1   9  -1
M  END
>  <meeko>  (1) 
{"is_sidechain": [false], "free_energy": -9.379, "intermolecular_energy": -12.121, "internal_energy": -2.158}

$$$$
LIB_CBXHPCHIRCAADU__M_PUB_ALL__e8__s20260927
     RDKit          3D

 60 65  0  0  0  0  0  0  0  0999 V2000
    3.4420  -14.7950    2.0800 C   0  0  0  0  0  0  0  0  0  0  0  0
    2.5680  -15.9960    2.0220 C   0  0  0  0  0  0  0  0  0  0  0  0
    2.9090  -17.3040    1.7310 C   0  0  0  0  0  0  0  0  0  0  0  0
    1.7190  -18.0630    1.6940 C   0  0  0  0  0  0  0  0  0  0  0  0
    0.6700  -17.2090    1.9730 C   0  0  0  0  0  0  0  0  0  0  0  0
   -0.7910  -17.4810    2.0280 C   0  0  0  0  0  0  0  0  0  0  0  0
    1.1970  -15.9520    2.2320 N   0  0  0  0  0  0  0  0  0  0  0  0
    0.3850  -14.7300    2.6210 C   0  0  0  0  0  0  0  0  0  0  0  0
    0.1560  -14.3710    3.9040 N   0  0  0  0  0  0  0  0  0  0  0  0
   -0.5820  -13.2490    3.8750 N   0  0  0  0  0  0  0  0  0  0  0  0
   -0.8420  -12.9530    2.5890 C   0  0  0  0  0  0  0  0  0  0  0  0
   -1.6730  -11.8570    2.3800 N   0  0  0  0  0  0  0  0  0  0  0  0
   -2.5570  -11.5220    1.3410 C   0  0  0  0  0  0  0  0  0  0  0  0
   -3.5770  -12.4230    1.0060 C   0  0  0  0  0  0  0  0  0  0  0  0
   -4.5300  -12.1040    0.0340 C   0  0  0  0  0  0  0  0  0  0  0  0
   -4.4730  -10.8760   -0.6180 C   0  0  0  0  0  0  0  0  0  0  0  0
   -3.4630   -9.9720   -0.3020 C   0  0  0  0  0  0  0  0  0  0  0  0
   -2.5140  -10.2940    0.6730 C   0  0  0  0  0  0  0  0  0  0  0  0
   -0.1160  -13.7830    1.7440 C   0  0  0  0  0  0  0  0  0  0  0  0
    0.1170  -13.6910    0.3360 C   0  0  0  0  0  0  0  0  0  0  0  0
   -0.5250  -14.2130   -0.5750 O   0  0  0  0  0  0  0  0  0  0  0  0
    1.2520  -12.9180    0.0980 N   0  0  0  0  0  0  0  0  0  0  0  0
    1.8130  -12.5290   -1.1320 C   0  0  0  0  0  0  0  0  0  0  0  0
    1.6380  -11.2730   -1.7160 C   0  0  0  0  0  0  0  0  0  0  0  0
    2.2540  -10.9610   -2.9330 C   0  0  0  0  0  0  0  0  0  0  0  0
    3.0550  -11.9070   -3.5770 C   0  0  0  0  0  0  0  0  0  0  0  0
    3.2350  -13.1640   -3.0040 C   0  0  0  0  0  0  0  0  0  0  0  0
    2.6110  -13.4750   -1.7880 C   0  0  0  0  0  0  0  0  0  0  0  0
    4.0850  -14.1730   -3.6690 C   0  0  0  0  0  0  0  0  0  0  0  0
    4.2520  -15.2800   -3.1710 O   0  0  0  0  0  0  0  0  0  0  0  0
    4.7370  -13.8320   -4.9500 C   0  0  0  0  0  0  0  0  0  0  0  0
    5.5430  -14.7810   -5.5900 C   0  0  0  0  0  0  0  0  0  0  0  0
    6.1640  -14.4700   -6.8010 C   0  0  0  0  0  0  0  0  0  0  0  0
    5.9830  -13.2120   -7.3750 C   0  0  0  0  0  0  0  0  0  0  0  0
    5.1790  -12.2640   -6.7380 C   0  0  0  0  0  0  0  0  0  0  0  0
    4.5550  -12.5750   -5.5220 C   0  0  0  0  0  0  0  0  0  0  0  0
    3.7080  -11.5650   -4.8570 C   0  0  0  0  0  0  0  0  0  0  0  0
    3.5530  -10.4600   -5.3650 O   0  0  0  0  0  0  0  0  0  0  0  0
    3.6338  -14.5315    3.1306 H   0  0  0  0  0  0  0  0  0  0  0  0
    4.3957  -15.0109    1.5762 H   0  0  0  0  0  0  0  0  0  0  0  0
    2.9433  -13.9539    1.5762 H   0  0  0  0  0  0  0  0  0  0  0  0
    3.9263  -17.6854    1.5589 H   0  0  0  0  0  0  0  0  0  0  0  0
    1.6414  -19.1395    1.4815 H   0  0  0  0  0  0  0  0  0  0  0  0
   -1.1135  -17.5410    3.0779 H   0  0  0  0  0  0  0  0  0  0  0  0
   -1.3345  -16.6686    1.5234 H   0  0  0  0  0  0  0  0  0  0  0  0
   -1.0057  -18.4345    1.5234 H   0  0  0  0  0  0  0  0  0  0  0  0
   -1.8310  -11.3290    3.2330 H   0  0  0  0  0  0  0  0  0  0  0  0
   -3.6285  -13.3964    1.5158 H   0  0  0  0  0  0  0  0  0  0  0  0
   -5.3242  -12.8232   -0.2151 H   0  0  0  0  0  0  0  0  0  0  0  0
   -5.2236  -10.6206   -1.3805 H   0  0  0  0  0  0  0  0  0  0  0  0
   -3.4113   -9.0030   -0.8200 H   0  0  0  0  0  0  0  0  0  0  0  0
   -1.7221   -9.5710    0.9182 H   0  0  0  0  0  0  0  0  0  0  0  0
    1.6930  -12.5380    0.9320 H   0  0  0  0  0  0  0  0  0  0  0  0
    1.0100  -10.5217   -1.2147 H   0  0  0  0  0  0  0  0  0  0  0  0
    2.1071   -9.9684   -3.3837 H   0  0  0  0  0  0  0  0  0  0  0  0
    2.7494  -14.4720   -1.3444 H   0  0  0  0  0  0  0  0  0  0  0  0
    5.6872  -15.7734   -5.1379 H   0  0  0  0  0  0  0  0  0  0  0  0
    6.7963  -15.2174   -7.3026 H   0  0  0  0  0  0  0  0  0  0  0  0
    6.4731  -12.9665   -8.3287 H   0  0  0  0  0  0  0  0  0  0  0  0
    5.0353  -11.2720   -7.1912 H   0  0  0  0  0  0  0  0  0  0  0  0
  1  2  1  0
  2  3  2  0
  3  4  1  0
  4  5  2  0
  5  6  1  0
  5  7  1  0
  7  8  1  0
  8  9  1  0
  9 10  1  0
 10 11  2  0
 11 12  1  0
 12 13  1  0
 13 14  2  0
 14 15  1  0
 15 16  2  0
 16 17  1  0
 17 18  2  0
 11 19  1  0
 19 20  1  0
 20 21  2  0
 20 22  1  0
 22 23  1  0
 23 24  2  0
 24 25  1  0
 25 26  2  0
 26 27  1  0
 27 28  2  0
 27 29  1  0
 29 30  2  0
 29 31  1  0
 31 32  2  0
 32 33  1  0
 33 34  2  0
 34 35  1  0
 35 36  2  0
 36 37  1  0
 37 38  2  0
  7  2  1  0
 19  8  2  0
 28 23  1  0
 36 31  1  0
 18 13  1  0
 37 26  1  0
  1 39  1  0
  1 40  1  0
  1 41  1  0
  3 42  1  0
  4 43  1  0
  6 44  1  0
  6 45  1  0
  6 46  1  0
 12 47  1  0
 14 48  1  0
 15 49  1  0
 16 50  1  0
 17 51  1  0
 18 52  1  0
 22 53  1  0
 24 54  1  0
 25 55  1  0
 28 56  1  0
 32 57  1  0
 33 58  1  0
 34 59  1  0
 35 60  1  0
M  CHG  1   9  -1
M  END
>  <meeko>  (2) 
{"is_sidechain": [false], "free_energy": -9.189, "intermolecular_energy": -12.101, "internal_energy": -1.932}

$$$$
LIB_CBXHPCHIRCAADU__M_PUB_ALL__e8__s20260927
     RDKit          3D

 60 65  0  0  0  0  0  0  0  0999 V2000
   10.8210  -13.8430   -8.8910 C   0  0  0  0  0  0  0  0  0  0  0  0
    9.7510  -13.3450   -9.7960 C   0  0  0  0  0  0  0  0  0  0  0  0
    9.7280  -12.1920  -10.5590 C   0  0  0  0  0  0  0  0  0  0  0  0
    8.4570  -12.1000  -11.1650 C   0  0  0  0  0  0  0  0  0  0  0  0
    7.7250  -13.2030  -10.7690 C   0  0  0  0  0  0  0  0  0  0  0  0
    6.3220  -13.5790  -11.0870 C   0  0  0  0  0  0  0  0  0  0  0  0
    8.5400  -13.9970   -9.9760 N   0  0  0  0  0  0  0  0  0  0  0  0
    8.1350  -15.3270   -9.3670 C   0  0  0  0  0  0  0  0  0  0  0  0
    8.4490  -16.5210   -9.9190 N   0  0  0  0  0  0  0  0  0  0  0  0
    7.9430  -17.4720   -9.1170 N   0  0  0  0  0  0  0  0  0  0  0  0
    7.2860  -16.8660   -8.1120 C   0  0  0  0  0  0  0  0  0  0  0  0
    6.6250  -17.7130   -7.2280 N   0  0  0  0  0  0  0  0  0  0  0  0
    6.7680  -17.9430   -5.8500 C   0  0  0  0  0  0  0  0  0  0  0  0
    5.9160  -17.2720   -4.9610 C   0  0  0  0  0  0  0  0  0  0  0  0
    5.9630  -17.5240   -3.5870 C   0  0  0  0  0  0  0  0  0  0  0  0
    6.8700  -18.4520   -3.0820 C   0  0  0  0  0  0  0  0  0  0  0  0
    7.7270  -19.1220   -3.9500 C   0  0  0  0  0  0  0  0  0  0  0  0
    7.6730  -18.8690   -5.3230 C   0  0  0  0  0  0  0  0  0  0  0  0
    7.5110  -15.4960   -8.1430 C   0  0  0  0  0  0  0  0  0  0  0  0
    7.2280  -14.4920   -7.1640 C   0  0  0  0  0  0  0  0  0  0  0  0
    8.0260  -13.8520   -6.4810 O   0  0  0  0  0  0  0  0  0  0  0  0
    5.8480  -14.3380   -7.0370 N   0  0  0  0  0  0  0  0  0  0  0  0
    5.1320  -13.4320   -6.2320 C   0  0  0  0  0  0  0  0  0  0  0  0
    4.9550  -12.0810   -6.5330 C   0  0  0  0  0  0  0  0  0  0  0  0
    4.2050  -11.2550   -5.6870 C   0  0  0  0  0  0  0  0  0  0  0  0
    3.6230  -11.7790   -4.5300 C   0  0  0  0  0  0  0  0  0  0  0  0
    3.7960  -13.1260   -4.2200 C   0  0  0  0  0  0  0  0  0  0  0  0
    4.5520  -13.9490   -5.0660 C   0  0  0  0  0  0  0  0  0  0  0  0
    3.1810  -13.6970   -3.0040 C   0  0  0  0  0  0  0  0  0  0  0  0
    3.3230  -14.8820   -2.7250 O   0  0  0  0  0  0  0  0  0  0  0  0
    2.3840  -12.8200   -2.1220 C   0  0  0  0  0  0  0  0  0  0  0  0
    1.7990  -13.3500   -0.9650 C   0  0  0  0  0  0  0  0  0  0  0  0
    1.0450  -12.5300   -0.1230 C   0  0  0  0  0  0  0  0  0  0  0  0
    0.8740  -11.1810   -0.4340 C   0  0  0  0  0  0  0  0  0  0  0  0
    1.4570  -10.6510   -1.5870 C   0  0  0  0  0  0  0  0  0  0  0  0
    2.2140  -11.4730   -2.4330 C   0  0  0  0  0  0  0  0  0  0  0  0
    2.8260  -10.9020   -3.6490 C   0  0  0  0  0  0  0  0  0  0  0  0
    2.6710   -9.7160   -3.9180 O   0  0  0  0  0  0  0  0  0  0  0  0
   10.5127  -13.6995   -7.8449 H   0  0  0  0  0  0  0  0  0  0  0  0
   10.9919  -14.9132   -9.0794 H   0  0  0  0  0  0  0  0  0  0  0  0
   11.7498  -13.2846   -9.0794 H   0  0  0  0  0  0  0  0  0  0  0  0
   10.5536  -11.4742  -10.6732 H   0  0  0  0  0  0  0  0  0  0  0  0
    8.1116  -11.2961  -11.8317 H   0  0  0  0  0  0  0  0  0  0  0  0
    5.7618  -13.7291  -10.1523 H   0  0  0  0  0  0  0  0  0  0  0  0
    5.8506  -12.7755  -11.6720 H   0  0  0  0  0  0  0  0  0  0  0  0
    6.3156  -14.5105  -11.6720 H   0  0  0  0  0  0  0  0  0  0  0  0
    5.7440  -18.0490   -7.6060 H   0  0  0  0  0  0  0  0  0  0  0  0
    5.1988  -16.5351   -5.3515 H   0  0  0  0  0  0  0  0  0  0  0  0
    5.2844  -16.9900   -2.9056 H   0  0  0  0  0  0  0  0  0  0  0  0
    6.9090  -18.6547   -2.0015 H   0  0  0  0  0  0  0  0  0  0  0  0
    8.4483  -19.8522   -3.5543 H   0  0  0  0  0  0  0  0  0  0  0  0
    8.3532  -19.4068   -5.9998 H   0  0  0  0  0  0  0  0  0  0  0  0
    5.2940  -14.9200   -7.6580 H   0  0  0  0  0  0  0  0  0  0  0  0
    5.4087  -11.6612   -7.4429 H   0  0  0  0  0  0  0  0  0  0  0  0
    4.0737  -10.1911   -5.9339 H   0  0  0  0  0  0  0  0  0  0  0  0
    4.6912  -15.0102   -4.8123 H   0  0  0  0  0  0  0  0  0  0  0  0
    1.9337  -14.4137   -0.7193 H   0  0  0  0  0  0  0  0  0  0  0  0
    0.5860  -12.9477    0.7852 H   0  0  0  0  0  0  0  0  0  0  0  0
    0.2800  -10.5347    0.2289 H   0  0  0  0  0  0  0  0  0  0  0  0
    1.3219   -9.5871   -1.8315 H   0  0  0  0  0  0  0  0  0  0  0  0
  1  2  1  0
  2  3  2  0
  3  4  1  0
  4  5  2  0
  5  6  1  0
  5  7  1  0
  7  8  1  0
  8  9  1  0
  9 10  1  0
 10 11  2  0
 11 12  1  0
 12 13  1  0
 13 14  2  0
 14 15  1  0
 15 16  2  0
 16 17  1  0
 17 18  2  0
 11 19  1  0
 19 20  1  0
 20 21  2  0
 20 22  1  0
 22 23  1  0
 23 24  2  0
 24 25  1  0
 25 26  2  0
 26 27  1  0
 27 28  2  0
 27 29  1  0
 29 30  2  0
 29 31  1  0
 31 32  2  0
 32 33  1  0
 33 34  2  0
 34 35  1  0
 35 36  2  0
 36 37  1  0
 37 38  2  0
  7  2  1  0
 19  8  2  0
 28 23  1  0
 36 31  1  0
 18 13  1  0
 37 26  1  0
  1 39  1  0
  1 40  1  0
  1 41  1  0
  3 42  1  0
  4 43  1  0
  6 44  1  0
  6 45  1  0
  6 46  1  0
 12 47  1  0
 14 48  1  0
 15 49  1  0
 16 50  1  0
 17 51  1  0
 18 52  1  0
 22 53  1  0
 24 54  1  0
 25 55  1  0
 28 56  1  0
 32 57  1  0
 33 58  1  0
 34 59  1  0
 35 60  1  0
M  CHG  1   9  -1
M  END
>  <meeko>  (3) 
{"is_sidechain": [false], "free_energy": -8.9, "intermolecular_energy": -11.571, "internal_energy": -2.087}

$$$$
LIB_CBXHPCHIRCAADU__M_PUB_ALL__e8__s20260927
     RDKit          3D

 60 65  0  0  0  0  0  0  0  0999 V2000
    7.8360  -16.5560   -4.6690 C   0  0  0  0  0  0  0  0  0  0  0  0
    7.0560  -15.2960   -4.7950 C   0  0  0  0  0  0  0  0  0  0  0  0
    6.2160  -14.8940   -5.8170 C   0  0  0  0  0  0  0  0  0  0  0  0
    5.7920  -13.5780   -5.5350 C   0  0  0  0  0  0  0  0  0  0  0  0
    6.3730  -13.1980   -4.3410 C   0  0  0  0  0  0  0  0  0  0  0  0
    6.2880  -11.9070   -3.6090 C   0  0  0  0  0  0  0  0  0  0  0  0
    7.1020  -14.2740   -3.8570 N   0  0  0  0  0  0  0  0  0  0  0  0
    7.8660  -14.2910   -2.5450 C   0  0  0  0  0  0  0  0  0  0  0  0
    7.3470  -14.7720   -1.3930 N   0  0  0  0  0  0  0  0  0  0  0  0
    8.2920  -14.6380   -0.4480 N   0  0  0  0  0  0  0  0  0  0  0  0
    9.3580  -14.0370   -1.0060 C   0  0  0  0  0  0  0  0  0  0  0  0
   10.4060  -13.7440   -0.1380 N   0  0  0  0  0  0  0  0  0  0  0  0
   11.2000  -12.5990    0.0370 C   0  0  0  0  0  0  0  0  0  0  0  0
   12.2910  -12.3960   -0.8200 C   0  0  0  0  0  0  0  0  0  0  0  0
   13.0650  -11.2360   -0.7390 C   0  0  0  0  0  0  0  0  0  0  0  0
   12.7580  -10.2600    0.2040 C   0  0  0  0  0  0  0  0  0  0  0  0
   11.6810  -10.4470    1.0660 C   0  0  0  0  0  0  0  0  0  0  0  0
   10.9080  -11.6080    0.9800 C   0  0  0  0  0  0  0  0  0  0  0  0
    9.1930  -13.9350   -2.3810 C   0  0  0  0  0  0  0  0  0  0  0  0
   10.1370  -13.5970   -3.4010 C   0  0  0  0  0  0  0  0  0  0  0  0
   10.3290  -12.5000   -3.9240 O   0  0  0  0  0  0  0  0  0  0  0  0
   10.8380  -14.7390   -3.7870 N   0  0  0  0  0  0  0  0  0  0  0  0
   11.8870  -14.8580   -4.7170 C   0  0  0  0  0  0  0  0  0  0  0  0
   13.1470  -15.3810   -4.4200 C   0  0  0  0  0  0  0  0  0  0  0  0
   14.1260  -15.4860   -5.4140 C   0  0  0  0  0  0  0  0  0  0  0  0
   13.8500  -15.0690   -6.7190 C   0  0  0  0  0  0  0  0  0  0  0  0
   12.5970  -14.5440   -7.0250 C   0  0  0  0  0  0  0  0  0  0  0  0
   11.6200  -14.4340   -6.0260 C   0  0  0  0  0  0  0  0  0  0  0  0
   12.2860  -14.1050   -8.4010 C   0  0  0  0  0  0  0  0  0  0  0  0
   11.1850  -13.6460   -8.6810 O   0  0  0  0  0  0  0  0  0  0  0  0
   13.3240  -14.2270   -9.4450 C   0  0  0  0  0  0  0  0  0  0  0  0
   13.0420  -13.8120  -10.7530 C   0  0  0  0  0  0  0  0  0  0  0  0
   14.0160  -13.9220  -11.7480 C   0  0  0  0  0  0  0  0  0  0  0  0
   15.2710  -14.4470  -11.4400 C   0  0  0  0  0  0  0  0  0  0  0  0
   15.5540  -14.8610  -10.1370 C   0  0  0  0  0  0  0  0  0  0  0  0
   14.5780  -14.7510   -9.1370 C   0  0  0  0  0  0  0  0  0  0  0  0
   14.8870  -15.1920   -7.7630 C   0  0  0  0  0  0  0  0  0  0  0  0
   15.9920  -15.6540   -7.4980 O   0  0  0  0  0  0  0  0  0  0  0  0
    7.9821  -16.7919   -3.6046 H   0  0  0  0  0  0  0  0  0  0  0  0
    7.2878  -17.3767   -5.1546 H   0  0  0  0  0  0  0  0  0  0  0  0
    8.8151  -16.4313   -5.1546 H   0  0  0  0  0  0  0  0  0  0  0  0
    5.9293  -15.4933   -6.6937 H   0  0  0  0  0  0  0  0  0  0  0  0
    5.1202  -12.9655   -6.1542 H   0  0  0  0  0  0  0  0  0  0  0  0
    6.3006  -12.0982   -2.5258 H   0  0  0  0  0  0  0  0  0  0  0  0
    7.1465  -11.2748   -3.8798 H   0  0  0  0  0  0  0  0  0  0  0  0
    5.3541  -11.3928   -3.8798 H   0  0  0  0  0  0  0  0  0  0  0  0
   10.4420  -14.3870    0.6480 H   0  0  0  0  0  0  0  0  0  0  0  0
   12.5414  -13.1625   -1.5681 H   0  0  0  0  0  0  0  0  0  0  0  0
   13.9168  -11.0942   -1.4204 H   0  0  0  0  0  0  0  0  0  0  0  0
   13.3640   -9.3442    0.2681 H   0  0  0  0  0  0  0  0  0  0  0  0
   11.4381   -9.6798    1.8159 H   0  0  0  0  0  0  0  0  0  0  0  0
   10.0574  -11.7446    1.6640 H   0  0  0  0  0  0  0  0  0  0  0  0
   10.5920  -15.5840   -3.2780 H   0  0  0  0  0  0  0  0  0  0  0  0
   13.3719  -15.7133   -3.3958 H   0  0  0  0  0  0  0  0  0  0  0  0
   15.1158  -15.8979   -5.1676 H   0  0  0  0  0  0  0  0  0  0  0  0
   10.6347  -14.0110   -6.2716 H   0  0  0  0  0  0  0  0  0  0  0  0
   12.0521  -13.3989  -10.9968 H   0  0  0  0  0  0  0  0  0  0  0  0
   13.7934  -13.5947  -12.7743 H   0  0  0  0  0  0  0  0  0  0  0  0
   16.0378  -14.5349  -12.2237 H   0  0  0  0  0  0  0  0  0  0  0  0
   16.5443  -15.2741   -9.8948 H   0  0  0  0  0  0  0  0  0  0  0  0
  1  2  1  0
  2  3  2  0
  3  4  1  0
  4  5  2  0
  5  6  1  0
  5  7  1  0
  7  8  1  0
  8  9  1  0
  9 10  1  0
 10 11  2  0
 11 12  1  0
 12 13  1  0
 13 14  2  0
 14 15  1  0
 15 16  2  0
 16 17  1  0
 17 18  2  0
 11 19  1  0
 19 20  1  0
 20 21  2  0
 20 22  1  0
 22 23  1  0
 23 24  2  0
 24 25  1  0
 25 26  2  0
 26 27  1  0
 27 28  2  0
 27 29  1  0
 29 30  2  0
 29 31  1  0
 31 32  2  0
 32 33  1  0
 33 34  2  0
 34 35  1  0
 35 36  2  0
 36 37  1  0
 37 38  2  0
  7  2  1  0
 19  8  2  0
 28 23  1  0
 36 31  1  0
 18 13  1  0
 37 26  1  0
  1 39  1  0
  1 40  1  0
  1 41  1  0
  3 42  1  0
  4 43  1  0
  6 44  1  0
  6 45  1  0
  6 46  1  0
 12 47  1  0
 14 48  1  0
 15 49  1  0
 16 50  1  0
 17 51  1  0
 18 52  1  0
 22 53  1  0
 24 54  1  0
 25 55  1  0
 28 56  1  0
 32 57  1  0
 33 58  1  0
 34 59  1  0
 35 60  1  0
M  CHG  1   9  -1
M  END
>  <meeko>  (4) 
{"is_sidechain": [false], "free_energy": -8.819, "intermolecular_energy": -11.806, "internal_energy": -1.749}

$$$$
LIB_CBXHPCHIRCAADU__M_PUB_ALL__e8__s20260927
     RDKit          3D

 60 65  0  0  0  0  0  0  0  0999 V2000
   12.3080  -17.0960   -6.9850 C   0  0  0  0  0  0  0  0  0  0  0  0
   11.2410  -17.6190   -6.0900 C   0  0  0  0  0  0  0  0  0  0  0  0
   11.3290  -17.9910   -4.7610 C   0  0  0  0  0  0  0  0  0  0  0  0
   10.0800  -18.5250   -4.3780 C   0  0  0  0  0  0  0  0  0  0  0  0
    9.2450  -18.4630   -5.4770 C   0  0  0  0  0  0  0  0  0  0  0  0
    7.8380  -18.9200   -5.6310 C   0  0  0  0  0  0  0  0  0  0  0  0
    9.9400  -17.8530   -6.5110 N   0  0  0  0  0  0  0  0  0  0  0  0
    9.3710  -17.5540   -7.8860 C   0  0  0  0  0  0  0  0  0  0  0  0
    9.3620  -18.4540   -8.8950 N   0  0  0  0  0  0  0  0  0  0  0  0
    8.7820  -17.8580   -9.9500 N   0  0  0  0  0  0  0  0  0  0  0  0
    8.4850  -16.5930   -9.6050 C   0  0  0  0  0  0  0  0  0  0  0  0
    7.9500  -15.8020  -10.6170 N   0  0  0  0  0  0  0  0  0  0  0  0
    7.9540  -14.4160  -10.8390 C   0  0  0  0  0  0  0  0  0  0  0  0
    6.7340  -13.7260  -10.8280 C   0  0  0  0  0  0  0  0  0  0  0  0
    6.6900  -12.3360  -10.9650 C   0  0  0  0  0  0  0  0  0  0  0  0
    7.8720  -11.6150  -11.1190 C   0  0  0  0  0  0  0  0  0  0  0  0
    9.0920  -12.2850  -11.1380 C   0  0  0  0  0  0  0  0  0  0  0  0
    9.1300  -13.6750  -10.9970 C   0  0  0  0  0  0  0  0  0  0  0  0
    8.7020  -16.3980   -8.2470 C   0  0  0  0  0  0  0  0  0  0  0  0
    8.3110  -15.3160   -7.3960 C   0  0  0  0  0  0  0  0  0  0  0  0
    9.0300  -14.5950   -6.7060 O   0  0  0  0  0  0  0  0  0  0  0  0
    6.9230  -15.1880   -7.4100 N   0  0  0  0  0  0  0  0  0  0  0  0
    6.1180  -14.2320   -6.7630 C   0  0  0  0  0  0  0  0  0  0  0  0
    5.7850  -12.9880   -7.3010 C   0  0  0  0  0  0  0  0  0  0  0  0
    4.9570  -12.1060   -6.5980 C   0  0  0  0  0  0  0  0  0  0  0  0
    4.4510  -12.4660   -5.3460 C   0  0  0  0  0  0  0  0  0  0  0  0
    4.7790  -13.7040   -4.8000 C   0  0  0  0  0  0  0  0  0  0  0  0
    5.6140  -14.5820   -5.5040 C   0  0  0  0  0  0  0  0  0  0  0  0
    4.2470  -14.1030   -3.4800 C   0  0  0  0  0  0  0  0  0  0  0  0
    4.5250  -15.1920   -2.9920 O   0  0  0  0  0  0  0  0  0  0  0  0
    3.3670  -13.1680   -2.7480 C   0  0  0  0  0  0  0  0  0  0  0  0
    2.8580  -13.5340   -1.4960 C   0  0  0  0  0  0  0  0  0  0  0  0
    2.0260  -12.6590   -0.7950 C   0  0  0  0  0  0  0  0  0  0  0  0
    1.7000  -11.4180   -1.3430 C   0  0  0  0  0  0  0  0  0  0  0  0
    2.2060  -11.0520   -2.5910 C   0  0  0  0  0  0  0  0  0  0  0  0
    3.0410  -11.9300   -3.2960 C   0  0  0  0  0  0  0  0  0  0  0  0
    3.5710  -11.5320   -4.6150 C   0  0  0  0  0  0  0  0  0  0  0  0
    3.2800  -10.4410   -5.0930 O   0  0  0  0  0  0  0  0  0  0  0  0
   13.1312  -16.6925   -6.3772 H   0  0  0  0  0  0  0  0  0  0  0  0
   12.6862  -17.9109   -7.6198 H   0  0  0  0  0  0  0  0  0  0  0  0
   11.8956  -16.2979   -7.6198 H   0  0  0  0  0  0  0  0  0  0  0  0
   12.2149  -17.8889   -4.1170 H   0  0  0  0  0  0  0  0  0  0  0  0
    9.8187  -18.9190   -3.3848 H   0  0  0  0  0  0  0  0  0  0  0  0
    7.3890  -19.0658   -4.6374 H   0  0  0  0  0  0  0  0  0  0  0  0
    7.2648  -18.1619   -6.1847 H   0  0  0  0  0  0  0  0  0  0  0  0
    7.8197  -19.8703   -6.1847 H   0  0  0  0  0  0  0  0  0  0  0  0
    7.7200  -16.3450  -11.4440 H   0  0  0  0  0  0  0  0  0  0  0  0
    5.7958  -14.2879  -10.7096 H   0  0  0  0  0  0  0  0  0  0  0  0
    5.7231  -11.8117  -10.9513 H   0  0  0  0  0  0  0  0  0  0  0  0
    7.8414  -10.5206  -11.2252 H   0  0  0  0  0  0  0  0  0  0  0  0
   10.0272  -11.7198  -11.2641 H   0  0  0  0  0  0  0  0  0  0  0  0
   10.0996  -14.1943  -11.0105 H   0  0  0  0  0  0  0  0  0  0  0  0
    6.4400  -15.8400   -8.0230 H   0  0  0  0  0  0  0  0  0  0  0  0
    6.1772  -12.6982   -8.2870 H   0  0  0  0  0  0  0  0  0  0  0  0
    4.7038  -11.1273   -7.0316 H   0  0  0  0  0  0  0  0  0  0  0  0
    5.8761  -15.5553   -5.0636 H   0  0  0  0  0  0  0  0  0  0  0  0
    3.1141  -14.5127   -1.0640 H   0  0  0  0  0  0  0  0  0  0  0  0
    1.6277  -12.9479    0.1888 H   0  0  0  0  0  0  0  0  0  0  0  0
    1.0443  -10.7282   -0.7914 H   0  0  0  0  0  0  0  0  0  0  0  0
    1.9493  -10.0731   -3.0221 H   0  0  0  0  0  0  0  0  0  0  0  0
  1  2  1  0
  2  3  2  0
  3  4  1  0
  4  5  2  0
  5  6  1  0
  5  7  1  0
  7  8  1  0
  8  9  1  0
  9 10  1  0
 10 11  2  0
 11 12  1  0
 12 13  1  0
 13 14  2  0
 14 15  1  0
 15 16  2  0
 16 17  1  0
 17 18  2  0
 11 19  1  0
 19 20  1  0
 20 21  2  0
 20 22  1  0
 22 23  1  0
 23 24  2  0
 24 25  1  0
 25 26  2  0
 26 27  1  0
 27 28  2  0
 27 29  1  0
 29 30  2  0
 29 31  1  0
 31 32  2  0
 32 33  1  0
 33 34  2  0
 34 35  1  0
 35 36  2  0
 36 37  1  0
 37 38  2  0
  7  2  1  0
 19  8  2  0
 28 23  1  0
 36 31  1  0
 18 13  1  0
 37 26  1  0
  1 39  1  0
  1 40  1  0
  1 41  1  0
  3 42  1  0
  4 43  1  0
  6 44  1  0
  6 45  1  0
  6 46  1  0
 12 47  1  0
 14 48  1  0
 15 49  1  0
 16 50  1  0
 17 51  1  0
 18 52  1  0
 22 53  1  0
 24 54  1  0
 25 55  1  0
 28 56  1  0
 32 57  1  0
 33 58  1  0
 34 59  1  0
 35 60  1  0
M  CHG  1   9  -1
M  END
>  <meeko>  (5) 
{"is_sidechain": [false], "free_energy": -8.752, "intermolecular_energy": -11.36, "internal_energy": -2.107}

$$$$
LIB_CBXHPCHIRCAADU__M_PUB_ALL__e8__s20260927
     RDKit          3D

 60 65  0  0  0  0  0  0  0  0999 V2000
    3.9950  -13.8290   -4.2100 C   0  0  0  0  0  0  0  0  0  0  0  0
    3.3340  -12.5250   -3.9420 C   0  0  0  0  0  0  0  0  0  0  0  0
    3.4420  -11.3380   -4.6440 C   0  0  0  0  0  0  0  0  0  0  0  0
    2.7120  -10.3540   -3.9440 C   0  0  0  0  0  0  0  0  0  0  0  0
    2.1630  -10.9560   -2.8280 C   0  0  0  0  0  0  0  0  0  0  0  0
    1.3370  -10.3700   -1.7400 C   0  0  0  0  0  0  0  0  0  0  0  0
    2.4970  -12.3020   -2.8590 N   0  0  0  0  0  0  0  0  0  0  0  0
    2.0560  -13.3330   -1.8350 C   0  0  0  0  0  0  0  0  0  0  0  0
    1.1240  -14.2790   -2.0910 N   0  0  0  0  0  0  0  0  0  0  0  0
    0.9920  -15.0140   -0.9740 N   0  0  0  0  0  0  0  0  0  0  0  0
    1.7990  -14.4930   -0.0330 C   0  0  0  0  0  0  0  0  0  0  0  0
    1.7220  -15.0900    1.2230 N   0  0  0  0  0  0  0  0  0  0  0  0
    1.2210  -14.6420    2.4550 C   0  0  0  0  0  0  0  0  0  0  0  0
    0.1570  -13.7290    2.4610 C   0  0  0  0  0  0  0  0  0  0  0  0
   -0.4300  -13.3130    3.6590 C   0  0  0  0  0  0  0  0  0  0  0  0
    0.0430  -13.8050    4.8720 C   0  0  0  0  0  0  0  0  0  0  0  0
    1.1020  -14.7080    4.8850 C   0  0  0  0  0  0  0  0  0  0  0  0
    1.6840  -15.1240    3.6840 C   0  0  0  0  0  0  0  0  0  0  0  0
    2.6140  -13.5120   -0.5810 C   0  0  0  0  0  0  0  0  0  0  0  0
    3.7690  -12.8620   -0.0410 C   0  0  0  0  0  0  0  0  0  0  0  0
    3.8100  -11.9640    0.7990 O   0  0  0  0  0  0  0  0  0  0  0  0
    4.9180  -13.3740   -0.6410 N   0  0  0  0  0  0  0  0  0  0  0  0
    6.2650  -13.0620   -0.3780 C   0  0  0  0  0  0  0  0  0  0  0  0
    6.7910  -12.8590    0.8990 C   0  0  0  0  0  0  0  0  0  0  0  0
    8.1510  -12.5760    1.0710 C   0  0  0  0  0  0  0  0  0  0  0  0
    8.9980  -12.4970   -0.0370 C   0  0  0  0  0  0  0  0  0  0  0  0
    8.4820  -12.6960   -1.3150 C   0  0  0  0  0  0  0  0  0  0  0  0
    7.1180  -12.9720   -1.4850 C   0  0  0  0  0  0  0  0  0  0  0  0
    9.3650  -12.6220   -2.4970 C   0  0  0  0  0  0  0  0  0  0  0  0
    8.9220  -12.7990   -3.6260 O   0  0  0  0  0  0  0  0  0  0  0  0
   10.8010  -12.3310   -2.3040 C   0  0  0  0  0  0  0  0  0  0  0  0
   11.6470  -12.2560   -3.4170 C   0  0  0  0  0  0  0  0  0  0  0  0
   13.0050  -11.9810   -3.2470 C   0  0  0  0  0  0  0  0  0  0  0  0
   13.5210  -11.7810   -1.9660 C   0  0  0  0  0  0  0  0  0  0  0  0
   12.6780  -11.8550   -0.8560 C   0  0  0  0  0  0  0  0  0  0  0  0
   11.3150  -12.1310   -1.0250 C   0  0  0  0  0  0  0  0  0  0  0  0
   10.4330  -12.2070    0.1560 C   0  0  0  0  0  0  0  0  0  0  0  0
   10.8920  -12.0320    1.2790 O   0  0  0  0  0  0  0  0  0  0  0  0
    4.2426  -14.3175   -3.2560 H   0  0  0  0  0  0  0  0  0  0  0  0
    3.3147  -14.4734   -4.7862 H   0  0  0  0  0  0  0  0  0  0  0  0
    4.9169  -13.6612   -4.7862 H   0  0  0  0  0  0  0  0  0  0  0  0
    3.9980  -11.1879   -5.5812 H   0  0  0  0  0  0  0  0  0  0  0  0
    2.6002   -9.2989   -4.2342 H   0  0  0  0  0  0  0  0  0  0  0  0
    1.7524  -10.6647   -0.7650 H   0  0  0  0  0  0  0  0  0  0  0  0
    1.3434   -9.2733   -1.8249 H   0  0  0  0  0  0  0  0  0  0  0  0
    0.3040  -10.7384   -1.8249 H   0  0  0  0  0  0  0  0  0  0  0  0
    1.8420  -16.0970    1.1750 H   0  0  0  0  0  0  0  0  0  0  0  0
   -0.2220  -13.3336    1.5070 H   0  0  0  0  0  0  0  0  0  0  0  0
   -1.2652  -12.5973    3.6434 H   0  0  0  0  0  0  0  0  0  0  0  0
   -0.4183  -13.4814    5.8167 H   0  0  0  0  0  0  0  0  0  0  0  0
    1.4817  -15.0951    5.8421 H   0  0  0  0  0  0  0  0  0  0  0  0
    2.5181  -15.8408    3.7056 H   0  0  0  0  0  0  0  0  0  0  0  0
    4.7530  -14.1160   -1.3170 H   0  0  0  0  0  0  0  0  0  0  0  0
    6.1315  -12.9219    1.7771 H   0  0  0  0  0  0  0  0  0  0  0  0
    8.5540  -12.4153    2.0818 H   0  0  0  0  0  0  0  0  0  0  0  0
    6.7140  -13.1192   -2.4975 H   0  0  0  0  0  0  0  0  0  0  0  0
   11.2410  -12.4140   -4.4270 H   0  0  0  0  0  0  0  0  0  0  0  0
   13.6682  -11.9220   -4.1226 H   0  0  0  0  0  0  0  0  0  0  0  0
   14.5912  -11.5652   -1.8311 H   0  0  0  0  0  0  0  0  0  0  0  0
   13.0848  -11.6963    0.1536 H   0  0  0  0  0  0  0  0  0  0  0  0
  1  2  1  0
  2  3  2  0
  3  4  1  0
  4  5  2  0
  5  6  1  0
  5  7  1  0
  7  8  1  0
  8  9  1  0
  9 10  1  0
 10 11  2  0
 11 12  1  0
 12 13  1  0
 13 14  2  0
 14 15  1  0
 15 16  2  0
 16 17  1  0
 17 18  2  0
 11 19  1  0
 19 20  1  0
 20 21  2  0
 20 22  1  0
 22 23  1  0
 23 24  2  0
 24 25  1  0
 25 26  2  0
 26 27  1  0
 27 28  2  0
 27 29  1  0
 29 30  2  0
 29 31  1  0
 31 32  2  0
 32 33  1  0
 33 34  2  0
 34 35  1  0
 35 36  2  0
 36 37  1  0
 37 38  2  0
  7  2  1  0
 19  8  2  0
 28 23  1  0
 36 31  1  0
 18 13  1  0
 37 26  1  0
  1 39  1  0
  1 40  1  0
  1 41  1  0
  3 42  1  0
  4 43  1  0
  6 44  1  0
  6 45  1  0
  6 46  1  0
 12 47  1  0
 14 48  1  0
 15 49  1  0
 16 50  1  0
 17 51  1  0
 18 52  1  0
 22 53  1  0
 24 54  1  0
 25 55  1  0
 28 56  1  0
 32 57  1  0
 33 58  1  0
 34 59  1  0
 35 60  1  0
M  CHG  1   9  -1
M  END
>  <meeko>  (6) 
{"is_sidechain": [false], "free_energy": -8.722, "intermolecular_energy": -11.847, "internal_energy": -1.583}

$$$$
LIB_CBXHPCHIRCAADU__M_PUB_ALL__e8__s20260927
     RDKit          3D

 60 65  0  0  0  0  0  0  0  0999 V2000
   11.2900  -14.0810   -8.8310 C   0  0  0  0  0  0  0  0  0  0  0  0
   10.2720  -13.4400   -9.7040 C   0  0  0  0  0  0  0  0  0  0  0  0
   10.3370  -12.2290  -10.3680 C   0  0  0  0  0  0  0  0  0  0  0  0
    9.0850  -12.0030  -10.9800 C   0  0  0  0  0  0  0  0  0  0  0  0
    8.2770  -13.0840  -10.6870 C   0  0  0  0  0  0  0  0  0  0  0  0
    6.8580  -13.3390  -11.0540 C   0  0  0  0  0  0  0  0  0  0  0  0
    9.0240  -13.9930   -9.9530 N   0  0  0  0  0  0  0  0  0  0  0  0
    8.5230  -15.3400   -9.4630 C   0  0  0  0  0  0  0  0  0  0  0  0
    8.6200  -16.4750  -10.1910 N   0  0  0  0  0  0  0  0  0  0  0  0
    8.0890  -17.4640   -9.4520 N   0  0  0  0  0  0  0  0  0  0  0  0
    7.6290  -16.9290   -8.3070 C   0  0  0  0  0  0  0  0  0  0  0  0
    6.9670  -17.8090   -7.4560 N   0  0  0  0  0  0  0  0  0  0  0  0
    6.8060  -17.8370   -6.0610 C   0  0  0  0  0  0  0  0  0  0  0  0
    5.8290  -17.0180   -5.4770 C   0  0  0  0  0  0  0  0  0  0  0  0
    5.5740  -17.0660   -4.1040 C   0  0  0  0  0  0  0  0  0  0  0  0
    6.2990  -17.9360   -3.2930 C   0  0  0  0  0  0  0  0  0  0  0  0
    7.2760  -18.7520   -3.8560 C   0  0  0  0  0  0  0  0  0  0  0  0
    7.5250  -18.7020   -5.2300 C   0  0  0  0  0  0  0  0  0  0  0  0
    8.0210  -15.6010   -8.2000 C   0  0  0  0  0  0  0  0  0  0  0  0
    7.9770  -14.7130   -7.0790 C   0  0  0  0  0  0  0  0  0  0  0  0
    7.3010  -13.6940   -6.9450 O   0  0  0  0  0  0  0  0  0  0  0  0
    8.8750  -15.1450   -6.1050 N   0  0  0  0  0  0  0  0  0  0  0  0
    9.1210  -14.6040   -4.8290 C   0  0  0  0  0  0  0  0  0  0  0  0
    8.2760  -14.7660   -3.7290 C   0  0  0  0  0  0  0  0  0  0  0  0
    8.6100  -14.2130   -2.4880 C   0  0  0  0  0  0  0  0  0  0  0  0
    9.7980  -13.4920   -2.3370 C   0  0  0  0  0  0  0  0  0  0  0  0
   10.6460  -13.3240   -3.4280 C   0  0  0  0  0  0  0  0  0  0  0  0
   10.3060  -13.8730   -4.6720 C   0  0  0  0  0  0  0  0  0  0  0  0
   11.9090  -12.5710   -3.2840 C   0  0  0  0  0  0  0  0  0  0  0  0
   12.6640  -12.4200   -4.2370 O   0  0  0  0  0  0  0  0  0  0  0  0
   12.2570  -11.9980   -1.9670 C   0  0  0  0  0  0  0  0  0  0  0  0
   13.4500  -11.2800   -1.8180 C   0  0  0  0  0  0  0  0  0  0  0  0
   13.7890  -10.7340   -0.5790 C   0  0  0  0  0  0  0  0  0  0  0  0
   12.9380  -10.9020    0.5130 C   0  0  0  0  0  0  0  0  0  0  0  0
   11.7480  -11.6170    0.3670 C   0  0  0  0  0  0  0  0  0  0  0  0
   11.4070  -12.1660   -0.8770 C   0  0  0  0  0  0  0  0  0  0  0  0
   10.1460  -12.9210   -1.0200 C   0  0  0  0  0  0  0  0  0  0  0  0
    9.4020  -13.0670   -0.0570 O   0  0  0  0  0  0  0  0  0  0  0  0
   11.0257  -13.9146   -7.7763 H   0  0  0  0  0  0  0  0  0  0  0  0
   11.3203  -15.1614   -9.0353 H   0  0  0  0  0  0  0  0  0  0  0  0
   12.2774  -13.6414   -9.0353 H   0  0  0  0  0  0  0  0  0  0  0  0
   11.2093  -11.5603  -10.4117 H   0  0  0  0  0  0  0  0  0  0  0  0
    8.8041  -11.1255  -11.5809 H   0  0  0  0  0  0  0  0  0  0  0  0
    6.2565  -13.4471  -10.1394 H   0  0  0  0  0  0  0  0  0  0  0  0
    6.4753  -12.4952  -11.6470 H   0  0  0  0  0  0  0  0  0  0  0  0
    6.7930  -14.2632  -11.6470 H   0  0  0  0  0  0  0  0  0  0  0  0
    6.3030  -18.3950   -7.9530 H   0  0  0  0  0  0  0  0  0  0  0  0
    5.2539  -16.3264   -6.1102 H   0  0  0  0  0  0  0  0  0  0  0  0
    4.8018  -16.4177   -3.6642 H   0  0  0  0  0  0  0  0  0  0  0  0
    6.1002  -17.9780   -2.2119 H   0  0  0  0  0  0  0  0  0  0  0  0
    7.8532  -19.4375   -3.2181 H   0  0  0  0  0  0  0  0  0  0  0  0
    8.2981  -19.3527   -5.6645 H   0  0  0  0  0  0  0  0  0  0  0  0
    9.3720  -16.0020   -6.3310 H   0  0  0  0  0  0  0  0  0  0  0  0
    7.3399  -15.3332   -3.8392 H   0  0  0  0  0  0  0  0  0  0  0  0
    7.9360  -14.3459   -1.6289 H   0  0  0  0  0  0  0  0  0  0  0  0
   10.9755  -13.7287   -5.5328 H   0  0  0  0  0  0  0  0  0  0  0  0
   14.1213  -11.1460   -2.6791 H   0  0  0  0  0  0  0  0  0  0  0  0
   14.7272  -10.1713   -0.4639 H   0  0  0  0  0  0  0  0  0  0  0  0
   13.2045  -10.4711    1.4894 H   0  0  0  0  0  0  0  0  0  0  0  0
   11.0773  -11.7497    1.2287 H   0  0  0  0  0  0  0  0  0  0  0  0
  1  2  1  0
  2  3  2  0
  3  4  1  0
  4  5  2  0
  5  6  1  0
  5  7  1  0
  7  8  1  0
  8  9  1  0
  9 10  1  0
 10 11  2  0
 11 12  1  0
 12 13  1  0
 13 14  2  0
 14 15  1  0
 15 16  2  0
 16 17  1  0
 17 18  2  0
 11 19  1  0
 19 20  1  0
 20 21  2  0
 20 22  1  0
 22 23  1  0
 23 24  2  0
 24 25  1  0
 25 26  2  0
 26 27  1  0
 27 28  2  0
 27 29  1  0
 29 30  2  0
 29 31  1  0
 31 32  2  0
 32 33  1  0
 33 34  2  0
 34 35  1  0
 35 36  2  0
 36 37  1  0
 37 38  2  0
  7  2  1  0
 19  8  2  0
 28 23  1  0
 36 31  1  0
 18 13  1  0
 37 26  1  0
  1 39  1  0
  1 40  1  0
  1 41  1  0
  3 42  1  0
  4 43  1  0
  6 44  1  0
  6 45  1  0
  6 46  1  0
 12 47  1  0
 14 48  1  0
 15 49  1  0
 16 50  1  0
 17 51  1  0
 18 52  1  0
 22 53  1  0
 24 54  1  0
 25 55  1  0
 28 56  1  0
 32 57  1  0
 33 58  1  0
 34 59  1  0
 35 60  1  0
M  CHG  1   9  -1
M  END
>  <meeko>  (7) 
{"is_sidechain": [false], "free_energy": -8.616, "intermolecular_energy": -11.049, "internal_energy": -2.242}

$$$$
LIB_CBXHPCHIRCAADU__M_PUB_ALL__e8__s20260927
     RDKit          3D

 60 65  0  0  0  0  0  0  0  0999 V2000
    0.8150  -17.4420   -0.4970 C   0  0  0  0  0  0  0  0  0  0  0  0
    2.1760  -16.9490   -0.1560 C   0  0  0  0  0  0  0  0  0  0  0  0
    3.4030  -17.5070   -0.4640 C   0  0  0  0  0  0  0  0  0  0  0  0
    4.4000  -16.7340    0.1680 C   0  0  0  0  0  0  0  0  0  0  0  0
    3.7680  -15.7100    0.8470 C   0  0  0  0  0  0  0  0  0  0  0  0
    4.3420  -14.6370    1.7010 C   0  0  0  0  0  0  0  0  0  0  0  0
    2.4060  -15.8090    0.6000 N   0  0  0  0  0  0  0  0  0  0  0  0
    1.3540  -14.8500    1.1270 C   0  0  0  0  0  0  0  0  0  0  0  0
    0.5810  -15.1180    2.2040 N   0  0  0  0  0  0  0  0  0  0  0  0
   -0.2220  -14.0570    2.3870 N   0  0  0  0  0  0  0  0  0  0  0  0
    0.0230  -13.1730    1.4040 C   0  0  0  0  0  0  0  0  0  0  0  0
   -0.7900  -12.0430    1.3960 N   0  0  0  0  0  0  0  0  0  0  0  0
   -2.0020  -11.7520    0.7490 C   0  0  0  0  0  0  0  0  0  0  0  0
   -2.2700  -10.4270    0.3800 C   0  0  0  0  0  0  0  0  0  0  0  0
   -3.4250  -10.0960   -0.3350 C   0  0  0  0  0  0  0  0  0  0  0  0
   -4.3310  -11.0920   -0.6880 C   0  0  0  0  0  0  0  0  0  0  0  0
   -4.0840  -12.4130   -0.3240 C   0  0  0  0  0  0  0  0  0  0  0  0
   -2.9260  -12.7380    0.3870 C   0  0  0  0  0  0  0  0  0  0  0  0
    1.1300  -13.5660    0.6630 C   0  0  0  0  0  0  0  0  0  0  0  0
    1.8960  -12.8430   -0.3050 C   0  0  0  0  0  0  0  0  0  0  0  0
    2.5100  -11.7870   -0.1510 O   0  0  0  0  0  0  0  0  0  0  0  0
    1.8340  -13.4960   -1.5350 N   0  0  0  0  0  0  0  0  0  0  0  0
    2.4760  -13.1660   -2.7420 C   0  0  0  0  0  0  0  0  0  0  0  0
    2.2640  -11.9800   -3.4490 C   0  0  0  0  0  0  0  0  0  0  0  0
    2.9640  -11.7220   -4.6320 C   0  0  0  0  0  0  0  0  0  0  0  0
    3.8880  -12.6500   -5.1190 C   0  0  0  0  0  0  0  0  0  0  0  0
    4.1050  -13.8370   -4.4220 C   0  0  0  0  0  0  0  0  0  0  0  0
    3.3970  -14.0960   -3.2410 C   0  0  0  0  0  0  0  0  0  0  0  0
    5.0840  -14.8260   -4.9190 C   0  0  0  0  0  0  0  0  0  0  0  0
    5.2850  -15.8710   -4.3120 O   0  0  0  0  0  0  0  0  0  0  0  0
    5.8250  -14.5410   -6.1650 C   0  0  0  0  0  0  0  0  0  0  0  0
    6.7530  -15.4720   -6.6470 C   0  0  0  0  0  0  0  0  0  0  0  0
    7.4580  -15.2130   -7.8240 C   0  0  0  0  0  0  0  0  0  0  0  0
    7.2390  -14.0250   -8.5210 C   0  0  0  0  0  0  0  0  0  0  0  0
    6.3140  -13.0950   -8.0420 C   0  0  0  0  0  0  0  0  0  0  0  0
    5.6050  -13.3540   -6.8610 C   0  0  0  0  0  0  0  0  0  0  0  0
    4.6290  -12.3640   -6.3630 C   0  0  0  0  0  0  0  0  0  0  0  0
    4.4420  -11.3210   -6.9790 O   0  0  0  0  0  0  0  0  0  0  0  0
    0.2559  -17.6445    0.4284 H   0  0  0  0  0  0  0  0  0  0  0  0
    0.2853  -16.6786   -1.0858 H   0  0  0  0  0  0  0  0  0  0  0  0
    0.8971  -18.3675   -1.0858 H   0  0  0  0  0  0  0  0  0  0  0  0
    3.5719  -18.3954   -1.0903 H   0  0  0  0  0  0  0  0  0  0  0  0
    5.4844  -16.9141    0.1275 H   0  0  0  0  0  0  0  0  0  0  0  0
    4.2026  -14.8977    2.7605 H   0  0  0  0  0  0  0  0  0  0  0  0
    5.4160  -14.5334    1.4872 H   0  0  0  0  0  0  0  0  0  0  0  0
    3.8321  -13.6860    1.4872 H   0  0  0  0  0  0  0  0  0  0  0  0
   -0.5810  -11.4160    2.1670 H   0  0  0  0  0  0  0  0  0  0  0  0
   -1.5599   -9.6341    0.6575 H   0  0  0  0  0  0  0  0  0  0  0  0
   -3.6173   -9.0506   -0.6180 H   0  0  0  0  0  0  0  0  0  0  0  0
   -5.2395  -10.8362   -1.2529 H   0  0  0  0  0  0  0  0  0  0  0  0
   -4.8011  -13.2014   -0.5964 H   0  0  0  0  0  0  0  0  0  0  0  0
   -2.7380  -13.7852    0.6664 H   0  0  0  0  0  0  0  0  0  0  0  0
    1.3000  -14.3610   -1.5330 H   0  0  0  0  0  0  0  0  0  0  0  0
    1.5401  -11.2425   -3.0720 H   0  0  0  0  0  0  0  0  0  0  0  0
    2.7865  -10.7854   -5.1808 H   0  0  0  0  0  0  0  0  0  0  0  0
    3.5661  -15.0389   -2.7003 H   0  0  0  0  0  0  0  0  0  0  0  0
    6.9269  -16.4089   -6.0976 H   0  0  0  0  0  0  0  0  0  0  0  0
    8.1862  -15.9460   -8.2016 H   0  0  0  0  0  0  0  0  0  0  0  0
    7.7949  -13.8206   -9.4480 H   0  0  0  0  0  0  0  0  0  0  0  0
    6.1416  -12.1582   -8.5921 H   0  0  0  0  0  0  0  0  0  0  0  0
  1  2  1  0
  2  3  2  0
  3  4  1  0
  4  5  2  0
  5  6  1  0
  5  7  1  0
  7  8  1  0
  8  9  1  0
  9 10  1  0
 10 11  2  0
 11 12  1  0
 12 13  1  0
 13 14  2  0
 14 15  1  0
 15 16  2  0
 16 17  1  0
 17 18  2  0
 11 19  1  0
 19 20  1  0
 20 21  2  0
 20 22  1  0
 22 23  1  0
 23 24  2  0
 24 25  1  0
 25 26  2  0
 26 27  1  0
 27 28  2  0
 27 29  1  0
 29 30  2  0
 29 31  1  0
 31 32  2  0
 32 33  1  0
 33 34  2  0
 34 35  1  0
 35 36  2  0
 36 37  1  0
 37 38  2  0
  7  2  1  0
 19  8  2  0
 28 23  1  0
 36 31  1  0
 18 13  1  0
 37 26  1  0
  1 39  1  0
  1 40  1  0
  1 41  1  0
  3 42  1  0
  4 43  1  0
  6 44  1  0
  6 45  1  0
  6 46  1  0
 12 47  1  0
 14 48  1  0
 15 49  1  0
 16 50  1  0
 17 51  1  0
 18 52  1  0
 22 53  1  0
 24 54  1  0
 25 55  1  0
 28 56  1  0
 32 57  1  0
 33 58  1  0
 34 59  1  0
 35 60  1  0
M  CHG  1   9  -1
M  END
>  <meeko>  (8) 
{"is_sidechain": [false], "free_energy": -8.615, "intermolecular_energy": -11.741, "internal_energy": -1.551}

$$$$
LIB_CBXHPCHIRCAADU__M_PUB_ALL__e8__s20260927
     RDKit          3D

 60 65  0  0  0  0  0  0  0  0999 V2000
   -0.2510  -12.8350    2.0270 C   0  0  0  0  0  0  0  0  0  0  0  0
    0.5350  -14.0410    2.4010 C   0  0  0  0  0  0  0  0  0  0  0  0
    0.9040  -14.4790    3.6590 C   0  0  0  0  0  0  0  0  0  0  0  0
    1.7340  -15.6090    3.4970 C   0  0  0  0  0  0  0  0  0  0  0  0
    1.8510  -15.8500    2.1420 C   0  0  0  0  0  0  0  0  0  0  0  0
    2.6320  -16.8920    1.4240 C   0  0  0  0  0  0  0  0  0  0  0  0
    1.0680  -14.9220    1.4720 N   0  0  0  0  0  0  0  0  0  0  0  0
    0.8840  -14.8610   -0.0340 C   0  0  0  0  0  0  0  0  0  0  0  0
   -0.1960  -15.3700   -0.6690 N   0  0  0  0  0  0  0  0  0  0  0  0
   -0.0300  -15.1340   -1.9810 N   0  0  0  0  0  0  0  0  0  0  0  0
    1.1610  -14.5320   -2.1500 C   0  0  0  0  0  0  0  0  0  0  0  0
    1.5310  -14.2890   -3.4700 N   0  0  0  0  0  0  0  0  0  0  0  0
    2.4320  -13.3820   -4.0500 C   0  0  0  0  0  0  0  0  0  0  0  0
    3.4800  -13.8800   -4.8360 C   0  0  0  0  0  0  0  0  0  0  0  0
    4.3570  -13.0170   -5.5000 C   0  0  0  0  0  0  0  0  0  0  0  0
    4.1970  -11.6400   -5.3830 C   0  0  0  0  0  0  0  0  0  0  0  0
    3.1640  -11.1280   -4.6010 C   0  0  0  0  0  0  0  0  0  0  0  0
    2.2880  -11.9950   -3.9420 C   0  0  0  0  0  0  0  0  0  0  0  0
    1.7140  -14.1970   -0.9200 C   0  0  0  0  0  0  0  0  0  0  0  0
    2.8230  -13.3500   -0.6080 C   0  0  0  0  0  0  0  0  0  0  0  0
    2.8070  -12.1540   -0.3170 O   0  0  0  0  0  0  0  0  0  0  0  0
    4.0100  -14.0740   -0.7120 N   0  0  0  0  0  0  0  0  0  0  0  0
    5.3260  -13.6550   -0.4460 C   0  0  0  0  0  0  0  0  0  0  0  0
    5.8050  -13.3190    0.8220 C   0  0  0  0  0  0  0  0  0  0  0  0
    7.1380  -12.9350    1.0000 C   0  0  0  0  0  0  0  0  0  0  0  0
    8.0070  -12.8860   -0.0930 C   0  0  0  0  0  0  0  0  0  0  0  0
    7.5390  -13.2170   -1.3620 C   0  0  0  0  0  0  0  0  0  0  0  0
    6.2010  -13.5950   -1.5380 C   0  0  0  0  0  0  0  0  0  0  0  0
    8.4460  -13.1770   -2.5270 C   0  0  0  0  0  0  0  0  0  0  0  0
    8.0450  -13.4700   -3.6470 O   0  0  0  0  0  0  0  0  0  0  0  0
    9.8540  -12.7770   -2.3280 C   0  0  0  0  0  0  0  0  0  0  0  0
   10.7230  -12.7340   -3.4250 C   0  0  0  0  0  0  0  0  0  0  0  0
   12.0560  -12.3570   -3.2480 C   0  0  0  0  0  0  0  0  0  0  0  0
   12.5240  -12.0240   -1.9770 C   0  0  0  0  0  0  0  0  0  0  0  0
   11.6590  -12.0670   -0.8820 C   0  0  0  0  0  0  0  0  0  0  0  0
   10.3210  -12.4450   -1.0580 C   0  0  0  0  0  0  0  0  0  0  0  0
    9.4150  -12.4880    0.1070 C   0  0  0  0  0  0  0  0  0  0  0  0
    9.8320  -12.1960    1.2220 O   0  0  0  0  0  0  0  0  0  0  0  0
   -0.5872  -12.3192    2.9386 H   0  0  0  0  0  0  0  0  0  0  0  0
    0.3789  -12.1565    1.4329 H   0  0  0  0  0  0  0  0  0  0  0  0
   -1.1260  -13.1373    1.4329 H   0  0  0  0  0  0  0  0  0  0  0  0
    0.6041  -14.0273    4.6161 H   0  0  0  0  0  0  0  0  0  0  0  0
    2.2027  -16.1920    4.3035 H   0  0  0  0  0  0  0  0  0  0  0  0
    3.1249  -17.5496    2.1551 H   0  0  0  0  0  0  0  0  0  0  0  0
    1.9557  -17.4873    0.7929 H   0  0  0  0  0  0  0  0  0  0  0  0
    3.3931  -16.4099    0.7929 H   0  0  0  0  0  0  0  0  0  0  0  0
    1.2720  -15.0550   -4.0850 H   0  0  0  0  0  0  0  0  0  0  0  0
    3.6148  -14.9675   -4.9321 H   0  0  0  0  0  0  0  0  0  0  0  0
    5.1726  -13.4263   -6.1142 H   0  0  0  0  0  0  0  0  0  0  0  0
    4.8836  -10.9580   -5.9060 H   0  0  0  0  0  0  0  0  0  0  0  0
    3.0376  -10.0398   -4.5021 H   0  0  0  0  0  0  0  0  0  0  0  0
    1.4736  -11.5806   -3.3296 H   0  0  0  0  0  0  0  0  0  0  0  0
    3.8920  -15.0550   -0.9540 H   0  0  0  0  0  0  0  0  0  0  0  0
    5.1281  -13.3567    1.6882 H   0  0  0  0  0  0  0  0  0  0  0  0
    7.5033  -12.6708    2.0034 H   0  0  0  0  0  0  0  0  0  0  0  0
    5.8343  -13.8471   -2.5440 H   0  0  0  0  0  0  0  0  0  0  0  0
   10.3553  -12.9975   -4.4277 H   0  0  0  0  0  0  0  0  0  0  0  0
   12.7370  -12.3227   -4.1112 H   0  0  0  0  0  0  0  0  0  0  0  0
   13.5741  -11.7276   -1.8374 H   0  0  0  0  0  0  0  0  0  0  0  0
   12.0281  -11.8038    0.1202 H   0  0  0  0  0  0  0  0  0  0  0  0
  1  2  1  0
  2  3  2  0
  3  4  1  0
  4  5  2  0
  5  6  1  0
  5  7  1  0
  7  8  1  0
  8  9  1  0
  9 10  1  0
 10 11  2  0
 11 12  1  0
 12 13  1  0
 13 14  2  0
 14 15  1  0
 15 16  2  0
 16 17  1  0
 17 18  2  0
 11 19  1  0
 19 20  1  0
 20 21  2  0
 20 22  1  0
 22 23  1  0
 23 24  2  0
 24 25  1  0
 25 26  2  0
 26 27  1  0
 27 28  2  0
 27 29  1  0
 29 30  2  0
 29 31  1  0
 31 32  2  0
 32 33  1  0
 33 34  2  0
 34 35  1  0
 35 36  2  0
 36 37  1  0
 37 38  2  0
  7  2  1  0
 19  8  2  0
 28 23  1  0
 36 31  1  0
 18 13  1  0
 37 26  1  0
  1 39  1  0
  1 40  1  0
  1 41  1  0
  3 42  1  0
  4 43  1  0
  6 44  1  0
  6 45  1  0
  6 46  1  0
 12 47  1  0
 14 48  1  0
 15 49  1  0
 16 50  1  0
 17 51  1  0
 18 52  1  0
 22 53  1  0
 24 54  1  0
 25 55  1  0
 28 56  1  0
 32 57  1  0
 33 58  1  0
 34 59  1  0
 35 60  1  0
M  CHG  1   9  -1
M  END
>  <meeko>  (9) 
{"is_sidechain": [false], "free_energy": -8.548, "intermolecular_energy": -11.148, "internal_energy": -2.055}

$$$$
