LIB_UCYYOFPZYBGIEY__M_PUB_ALL__e8__s20260927
     RDKit          3D

 63 67  0  0  0  0  0  0  0  0999 V2000
   -3.1950  -10.0990   -0.0370 C   0  0  0  0  0  0  0  0  0  0  0  0
   -3.8190  -11.4720   -0.2180 C   0  0  2  0  0  0  0  0  0  0  0  0
   -5.1950  -11.2970   -0.5750 O   0  0  0  0  0  0  0  0  0  0  0  0
   -3.7170  -12.3160    1.0650 C   0  0  0  0  0  0  0  0  0  0  0  0
   -4.0190  -13.6990    0.7540 N   0  0  0  0  0  0  0  0  0  0  0  0
   -3.0250  -14.6280    0.6220 C   0  0  0  0  0  0  0  0  0  0  0  0
   -3.2840  -15.6470   -0.2010 N   0  0  0  0  0  0  0  0  0  0  0  0
   -2.3380  -16.5940   -0.3150 C   0  0  0  0  0  0  0  0  0  0  0  0
   -1.1430  -16.5630    0.3630 C   0  0  0  0  0  0  0  0  0  0  0  0
   -0.9480  -15.4670    1.1800 C   0  0  0  0  0  0  0  0  0  0  0  0
    0.2510  -15.3490    1.9500 N   0  0  0  0  0  0  0  0  0  0  0  0
    0.7170  -16.2540    2.8870 C   0  0  0  0  0  0  0  0  0  0  0  0
    1.8150  -15.6760    3.4690 C   0  0  0  0  0  0  0  0  0  0  0  0
    2.0790  -14.4680    2.9010 N   0  0  0  0  0  0  0  0  0  0  0  0
    1.1720  -14.2970    1.9510 C   0  0  0  0  0  0  0  0  0  0  0  0
    1.2010  -13.1650    1.0230 C   0  0  0  0  0  0  0  0  0  0  0  0
    0.3740  -12.0540    1.2240 C   0  0  0  0  0  0  0  0  0  0  0  0
    0.3820  -11.0030    0.3090 C   0  0  0  0  0  0  0  0  0  0  0  0
    1.2160  -11.0520   -0.8130 C   0  0  0  0  0  0  0  0  0  0  0  0
    2.0410  -12.1570   -1.0340 C   0  0  0  0  0  0  0  0  0  0  0  0
    2.9120  -12.2840   -2.1360 N   0  0  0  0  0  0  0  0  0  0  0  0
    2.6030  -12.7200   -3.4110 C   0  0  0  0  0  0  0  0  0  0  0  0
    1.4840  -13.0200   -3.8110 O   0  0  0  0  0  0  0  0  0  0  0  0
    3.7510  -12.7820   -4.3110 C   0  0  0  0  0  0  0  0  0  0  0  0
    4.8570  -11.9640   -4.1910 C   0  0  0  0  0  0  0  0  0  0  0  0
    5.7720  -12.2300   -5.1550 O   0  0  0  0  0  0  0  0  0  0  0  0
    5.2710  -13.2390   -5.9270 C   0  0  0  0  0  0  0  0  0  0  0  0
    6.1250  -13.6660   -7.0340 C   0  0  0  0  0  0  0  0  0  0  0  0
    6.2790  -12.7980   -8.1360 C   0  0  0  0  0  0  0  0  0  0  0  0
    7.0740  -13.1360   -9.2450 C   0  0  0  0  0  0  0  0  0  0  0  0
    7.1930  -12.1900  -10.4160 C   0  0  0  0  0  0  0  0  0  0  0  0
    6.4650  -12.5840  -11.4970 F   0  0  0  0  0  0  0  0  0  0  0  0
    8.4730  -12.0510  -10.8600 F   0  0  0  0  0  0  0  0  0  0  0  0
    6.7630  -10.9370  -10.1100 F   0  0  0  0  0  0  0  0  0  0  0  0
    7.7180  -14.3790   -9.2570 C   0  0  0  0  0  0  0  0  0  0  0  0
    7.5850  -15.2500   -8.1740 C   0  0  0  0  0  0  0  0  0  0  0  0
    6.7980  -14.8990   -7.0680 C   0  0  0  0  0  0  0  0  0  0  0  0
    6.7450  -16.0410   -5.7680 Cl  0  0  0  0  0  0  0  0  0  0  0  0
    4.0240  -13.5980   -5.4520 C   0  0  0  0  0  0  0  0  0  0  0  0
    2.0140  -13.2180   -0.1170 C   0  0  0  0  0  0  0  0  0  0  0  0
   -1.8820  -14.5010    1.3060 N   0  0  0  0  0  0  0  0  0  0  0  0
   -3.0955   -9.8801    1.0364 H   0  0  0  0  0  0  0  0  0  0  0  0
   -2.2011  -10.0829   -0.5082 H   0  0  0  0  0  0  0  0  0  0  0  0
   -3.8365   -9.3397   -0.5082 H   0  0  0  0  0  0  0  0  0  0  0  0
   -3.2752  -12.0092   -1.0090 H   0  0  0  0  0  0  0  0  0  0  0  0
   -5.3650  -11.9200   -1.3070 H   0  0  0  0  0  0  0  0  0  0  0  0
   -2.6973  -12.2450    1.4714 H   0  0  0  0  0  0  0  0  0  0  0  0
   -4.4336  -11.9411    1.8106 H   0  0  0  0  0  0  0  0  0  0  0  0
   -4.9020  -13.9780    0.3510 H   0  0  0  0  0  0  0  0  0  0  0  0
   -2.5307  -17.4418   -0.9888 H   0  0  0  0  0  0  0  0  0  0  0  0
   -0.3909  -17.3593    0.2615 H   0  0  0  0  0  0  0  0  0  0  0  0
    0.2909  -17.2413    3.1188 H   0  0  0  0  0  0  0  0  0  0  0  0
    2.4019  -16.1265    4.2830 H   0  0  0  0  0  0  0  0  0  0  0  0
   -0.2830  -12.0104    2.1052 H   0  0  0  0  0  0  0  0  0  0  0  0
   -0.2699  -10.1317    0.4696 H   0  0  0  0  0  0  0  0  0  0  0  0
    1.2221  -10.2145   -1.5261 H   0  0  0  0  0  0  0  0  0  0  0  0
    3.8640  -11.9890   -1.9710 H   0  0  0  0  0  0  0  0  0  0  0  0
    4.9797  -11.1957   -3.4134 H   0  0  0  0  0  0  0  0  0  0  0  0
    5.7613  -11.8275   -8.1269 H   0  0  0  0  0  0  0  0  0  0  0  0
    8.3309  -14.6704  -10.1227 H   0  0  0  0  0  0  0  0  0  0  0  0
    8.1024  -16.2206   -8.1886 H   0  0  0  0  0  0  0  0  0  0  0  0
    3.3634  -14.3695   -5.8742 H   0  0  0  0  0  0  0  0  0  0  0  0
    2.6402  -14.1046   -0.2954 H   0  0  0  0  0  0  0  0  0  0  0  0
  1  2  1  0
  2  3  1  0
  2  4  1  0
  4  5  1  0
  5  6  1  0
  6  7  2  0
  7  8  1  0
  8  9  2  0
  9 10  1  0
 10 11  1  0
 11 12  1  0
 12 13  2  0
 13 14  1  0
 14 15  2  0
 15 16  1  0
 16 17  2  0
 17 18  1  0
 18 19  2  0
 19 20  1  0
 20 21  1  0
 21 22  1  0
 22 23  2  0
 22 24  1  0
 24 25  2  0
 25 26  1  0
 26 27  1  0
 27 28  1  0
 28 29  2  0
 29 30  1  0
 30 31  1  0
 31 32  1  0
 31 33  1  0
 31 34  1  0
 30 35  2  0
 35 36  1  0
 36 37  2  0
 37 38  1  0
 27 39  2  0
 20 40  2  0
 10 41  2  0
 41  6  1  0
 15 11  1  0
 40 16  1  0
 39 24  1  0
 37 28  1  0
  1 42  1  0
  1 43  1  0
  1 44  1  0
  2 45  1  6
  3 46  1  0
  4 47  1  0
  4 48  1  0
  5 49  1  0
  8 50  1  0
  9 51  1  0
 12 52  1  0
 13 53  1  0
 17 54  1  0
 18 55  1  0
 19 56  1  0
 21 57  1  0
 25 58  1  0
 29 59  1  0
 35 60  1  0
 36 61  1  0
 39 62  1  0
 40 63  1  0
M  END
>  <meeko>  (1) 
{"is_sidechain": [false], "free_energy": -8.512, "intermolecular_energy": -13.239, "internal_energy": -1.844}

$$$$
LIB_UCYYOFPZYBGIEY__M_PUB_ALL__e8__s20260927
     RDKit          3D

 63 67  0  0  0  0  0  0  0  0999 V2000
   11.7280   -6.0580  -11.4520 C   0  0  0  0  0  0  0  0  0  0  0  0
   11.6150   -7.2760  -10.5520 C   0  0  2  0  0  0  0  0  0  0  0  0
   12.8420   -7.4160   -9.8270 O   0  0  0  0  0  0  0  0  0  0  0  0
   11.3400   -8.5570  -11.3610 C   0  0  0  0  0  0  0  0  0  0  0  0
   11.9910   -9.6800  -10.7160 N   0  0  0  0  0  0  0  0  0  0  0  0
   11.7520  -10.9640  -11.1210 C   0  0  0  0  0  0  0  0  0  0  0  0
   12.7790  -11.5930  -11.7000 N   0  0  0  0  0  0  0  0  0  0  0  0
   12.5560  -12.8410  -12.1430 C   0  0  0  0  0  0  0  0  0  0  0  0
   11.3470  -13.4850  -12.0330 C   0  0  0  0  0  0  0  0  0  0  0  0
   10.3440  -12.7700  -11.4080 C   0  0  0  0  0  0  0  0  0  0  0  0
    9.0400  -13.3370  -11.2630 N   0  0  0  0  0  0  0  0  0  0  0  0
    7.9070  -12.9840  -11.9750 C   0  0  0  0  0  0  0  0  0  0  0  0
    6.8670  -13.6820  -11.4180 C   0  0  0  0  0  0  0  0  0  0  0  0
    7.3140  -14.4890  -10.4170 N   0  0  0  0  0  0  0  0  0  0  0  0
    8.6260  -14.3220  -10.3610 C   0  0  0  0  0  0  0  0  0  0  0  0
    9.4880  -15.1210   -9.4880 C   0  0  0  0  0  0  0  0  0  0  0  0
   10.0230  -16.3360   -9.9290 C   0  0  0  0  0  0  0  0  0  0  0  0
   10.8070  -17.1060   -9.0720 C   0  0  0  0  0  0  0  0  0  0  0  0
   11.0660  -16.6670   -7.7700 C   0  0  0  0  0  0  0  0  0  0  0  0
   10.5330  -15.4610   -7.3100 C   0  0  0  0  0  0  0  0  0  0  0  0
   10.7470  -14.9470   -6.0140 N   0  0  0  0  0  0  0  0  0  0  0  0
   11.8880  -14.3390   -5.5240 C   0  0  0  0  0  0  0  0  0  0  0  0
   12.9000  -14.0940   -6.1700 O   0  0  0  0  0  0  0  0  0  0  0  0
   11.8000  -13.9620   -4.1160 C   0  0  0  0  0  0  0  0  0  0  0  0
   12.6860  -14.4020   -3.1520 C   0  0  0  0  0  0  0  0  0  0  0  0
   12.3730  -13.9030   -1.9320 O   0  0  0  0  0  0  0  0  0  0  0  0
   11.2650  -13.1200   -2.0820 C   0  0  0  0  0  0  0  0  0  0  0  0
   10.7700  -12.4910   -0.8590 C   0  0  0  0  0  0  0  0  0  0  0  0
    9.4150  -12.6760   -0.5100 C   0  0  0  0  0  0  0  0  0  0  0  0
    8.8570  -12.0990    0.6440 C   0  0  0  0  0  0  0  0  0  0  0  0
    7.3960  -12.3000    0.9690 C   0  0  0  0  0  0  0  0  0  0  0  0
    7.1810  -13.3000    1.8670 F   0  0  0  0  0  0  0  0  0  0  0  0
    6.6460  -12.6120   -0.1230 F   0  0  0  0  0  0  0  0  0  0  0  0
    6.8320  -11.1850    1.5070 F   0  0  0  0  0  0  0  0  0  0  0  0
    9.6720  -11.3060    1.4590 C   0  0  0  0  0  0  0  0  0  0  0  0
   11.0170  -11.1150    1.1370 C   0  0  0  0  0  0  0  0  0  0  0  0
   11.5660  -11.7030   -0.0100 C   0  0  0  0  0  0  0  0  0  0  0  0
   13.2540  -11.4320   -0.2810 Cl  0  0  0  0  0  0  0  0  0  0  0  0
   10.8700  -13.1400   -3.4060 C   0  0  0  0  0  0  0  0  0  0  0  0
    9.7300  -14.7010   -8.1730 C   0  0  0  0  0  0  0  0  0  0  0  0
   10.5460  -11.5160  -10.9500 N   0  0  0  0  0  0  0  0  0  0  0  0
   11.8121   -5.1519  -10.8339 H   0  0  0  0  0  0  0  0  0  0  0  0
   12.6212   -6.1529  -12.0870 H   0  0  0  0  0  0  0  0  0  0  0  0
   10.8326   -5.9869  -12.0870 H   0  0  0  0  0  0  0  0  0  0  0  0
   10.7687   -7.1325   -9.8641 H   0  0  0  0  0  0  0  0  0  0  0  0
   13.5230   -7.6420  -10.4890 H   0  0  0  0  0  0  0  0  0  0  0  0
   10.2558   -8.7373  -11.4064 H   0  0  0  0  0  0  0  0  0  0  0  0
   11.7331   -8.4397  -12.3816 H   0  0  0  0  0  0  0  0  0  0  0  0
   12.4050   -9.6060   -9.7990 H   0  0  0  0  0  0  0  0  0  0  0  0
   13.3884  -13.3783  -12.6211 H   0  0  0  0  0  0  0  0  0  0  0  0
   11.1884  -14.5033  -12.4175 H   0  0  0  0  0  0  0  0  0  0  0  0
    7.8519  -12.2824  -12.8204 H   0  0  0  0  0  0  0  0  0  0  0  0
    5.8170  -13.6012  -11.7358 H   0  0  0  0  0  0  0  0  0  0  0  0
    9.8246  -16.6840  -10.9535 H   0  0  0  0  0  0  0  0  0  0  0  0
   11.2235  -18.0624   -9.4210 H   0  0  0  0  0  0  0  0  0  0  0  0
   11.6941  -17.2760   -7.1032 H   0  0  0  0  0  0  0  0  0  0  0  0
    9.9550  -15.0070   -5.3890 H   0  0  0  0  0  0  0  0  0  0  0  0
   13.5363  -15.0714   -3.3495 H   0  0  0  0  0  0  0  0  0  0  0  0
    8.7759  -13.2906   -1.1611 H   0  0  0  0  0  0  0  0  0  0  0  0
    9.2512  -10.8309    2.3575 H   0  0  0  0  0  0  0  0  0  0  0  0
   11.6513  -10.4973    1.7897 H   0  0  0  0  0  0  0  0  0  0  0  0
   10.0007  -12.6197   -3.8346 H   0  0  0  0  0  0  0  0  0  0  0  0
    9.2840  -13.7623   -7.8127 H   0  0  0  0  0  0  0  0  0  0  0  0
  1  2  1  0
  2  3  1  0
  2  4  1  0
  4  5  1  0
  5  6  1  0
  6  7  2  0
  7  8  1  0
  8  9  2  0
  9 10  1  0
 10 11  1  0
 11 12  1  0
 12 13  2  0
 13 14  1  0
 14 15  2  0
 15 16  1  0
 16 17  2  0
 17 18  1  0
 18 19  2  0
 19 20  1  0
 20 21  1  0
 21 22  1  0
 22 23  2  0
 22 24  1  0
 24 25  2  0
 25 26  1  0
 26 27  1  0
 27 28  1  0
 28 29  2  0
 29 30  1  0
 30 31  1  0
 31 32  1  0
 31 33  1  0
 31 34  1  0
 30 35  2  0
 35 36  1  0
 36 37  2  0
 37 38  1  0
 27 39  2  0
 20 40  2  0
 10 41  2  0
 41  6  1  0
 15 11  1  0
 40 16  1  0
 39 24  1  0
 37 28  1  0
  1 42  1  0
  1 43  1  0
  1 44  1  0
  2 45  1  1
  3 46  1  0
  4 47  1  0
  4 48  1  0
  5 49  1  0
  8 50  1  0
  9 51  1  0
 12 52  1  0
 13 53  1  0
 17 54  1  0
 18 55  1  0
 19 56  1  0
 21 57  1  0
 25 58  1  0
 29 59  1  0
 35 60  1  0
 36 61  1  0
 39 62  1  0
 40 63  1  0
M  END
>  <meeko>  (2) 
{"is_sidechain": [false], "free_energy": -8.466, "intermolecular_energy": -13.417, "internal_energy": -1.596}

$$$$
LIB_UCYYOFPZYBGIEY__M_PUB_ALL__e8__s20260927
     RDKit          3D

 63 67  0  0  0  0  0  0  0  0999 V2000
    6.7520  -13.6210   -4.0530 C   0  0  0  0  0  0  0  0  0  0  0  0
    5.4750  -14.2180   -3.4850 C   0  0  2  0  0  0  0  0  0  0  0  0
    5.8350  -15.2460   -2.5540 O   0  0  0  0  0  0  0  0  0  0  0  0
    4.5830  -14.8090   -4.5920 C   0  0  0  0  0  0  0  0  0  0  0  0
    3.2420  -14.2750   -4.4610 N   0  0  0  0  0  0  0  0  0  0  0  0
    3.0310  -12.9690   -4.1160 C   0  0  0  0  0  0  0  0  0  0  0  0
    3.4910  -12.0570   -4.9770 N   0  0  0  0  0  0  0  0  0  0  0  0
    3.3310  -10.7660   -4.6390 C   0  0  0  0  0  0  0  0  0  0  0  0
    2.7330  -10.3520   -3.4750 C   0  0  0  0  0  0  0  0  0  0  0  0
    2.2720  -11.3580   -2.6490 C   0  0  0  0  0  0  0  0  0  0  0  0
    1.6540  -11.0360   -1.3990 N   0  0  0  0  0  0  0  0  0  0  0  0
    0.6400  -10.1170   -1.1980 C   0  0  0  0  0  0  0  0  0  0  0  0
    0.4560  -10.0360    0.1580 C   0  0  0  0  0  0  0  0  0  0  0  0
    1.2840  -10.9000    0.8060 N   0  0  0  0  0  0  0  0  0  0  0  0
    1.9650  -11.5390   -0.1320 C   0  0  0  0  0  0  0  0  0  0  0  0
    2.8720  -12.6490    0.1650 C   0  0  0  0  0  0  0  0  0  0  0  0
    2.3840  -13.8510    0.6890 C   0  0  0  0  0  0  0  0  0  0  0  0
    3.2650  -14.8820    1.0070 C   0  0  0  0  0  0  0  0  0  0  0  0
    4.6390  -14.7230    0.8030 C   0  0  0  0  0  0  0  0  0  0  0  0
    5.1450  -13.5280    0.2880 C   0  0  0  0  0  0  0  0  0  0  0  0
    6.5140  -13.2870    0.0500 N   0  0  0  0  0  0  0  0  0  0  0  0
    7.3460  -12.4070    0.7160 C   0  0  0  0  0  0  0  0  0  0  0  0
    7.0320  -11.7200    1.6820 O   0  0  0  0  0  0  0  0  0  0  0  0
    8.7060  -12.3610    0.1870 C   0  0  0  0  0  0  0  0  0  0  0  0
    9.8220  -12.1520    0.9730 C   0  0  0  0  0  0  0  0  0  0  0  0
   10.9540  -12.1550    0.2290 O   0  0  0  0  0  0  0  0  0  0  0  0
   10.5900  -12.3690   -1.0700 C   0  0  0  0  0  0  0  0  0  0  0  0
   11.6890  -12.4020   -2.0330 C   0  0  0  0  0  0  0  0  0  0  0  0
   11.5470  -13.2040   -3.1850 C   0  0  0  0  0  0  0  0  0  0  0  0
   12.5600  -13.2990   -4.1560 C   0  0  0  0  0  0  0  0  0  0  0  0
   12.3800  -14.1880   -5.3630 C   0  0  0  0  0  0  0  0  0  0  0  0
   11.3490  -13.8010   -6.1640 F   0  0  0  0  0  0  0  0  0  0  0  0
   12.1300  -15.4850   -5.0360 F   0  0  0  0  0  0  0  0  0  0  0  0
   13.4850  -14.2060   -6.1570 F   0  0  0  0  0  0  0  0  0  0  0  0
   13.7470  -12.5850   -3.9610 C   0  0  0  0  0  0  0  0  0  0  0  0
   13.9060  -11.7800   -2.8310 C   0  0  0  0  0  0  0  0  0  0  0  0
   12.8870  -11.6840   -1.8740 C   0  0  0  0  0  0  0  0  0  0  0  0
   13.1810  -10.6210   -0.5400 Cl  0  0  0  0  0  0  0  0  0  0  0  0
    9.2160  -12.4870   -1.1420 C   0  0  0  0  0  0  0  0  0  0  0  0
    4.2530  -12.4880   -0.0130 C   0  0  0  0  0  0  0  0  0  0  0  0
    2.4160  -12.6610   -2.9690 N   0  0  0  0  0  0  0  0  0  0  0  0
    7.4112  -13.3128   -3.2281 H   0  0  0  0  0  0  0  0  0  0  0  0
    7.2649  -14.3727   -4.6710 H   0  0  0  0  0  0  0  0  0  0  0  0
    6.5042  -12.7454   -4.6710 H   0  0  0  0  0  0  0  0  0  0  0  0
    4.9002  -13.4228   -2.9878 H   0  0  0  0  0  0  0  0  0  0  0  0
    5.0100  -15.4970   -2.0960 H   0  0  0  0  0  0  0  0  0  0  0  0
    4.9917  -14.5389   -5.5769 H   0  0  0  0  0  0  0  0  0  0  0  0
    4.5548  -15.9046   -4.4976 H   0  0  0  0  0  0  0  0  0  0  0  0
    2.4370  -14.8710   -4.3370 H   0  0  0  0  0  0  0  0  0  0  0  0
    3.7001   -9.9979   -5.3345 H   0  0  0  0  0  0  0  0  0  0  0  0
    2.6278   -9.2879   -3.2169 H   0  0  0  0  0  0  0  0  0  0  0  0
    0.0905   -9.5616   -1.9723 H   0  0  0  0  0  0  0  0  0  0  0  0
   -0.2615   -9.3655    0.6536 H   0  0  0  0  0  0  0  0  0  0  0  0
    1.3037  -13.9819    0.8500 H   0  0  0  0  0  0  0  0  0  0  0  0
    2.8781  -15.8251    1.4203 H   0  0  0  0  0  0  0  0  0  0  0  0
    5.3264  -15.5455    1.0501 H   0  0  0  0  0  0  0  0  0  0  0  0
    6.9320  -13.8530   -0.6750 H   0  0  0  0  0  0  0  0  0  0  0  0
    9.7952  -12.0024    2.0625 H   0  0  0  0  0  0  0  0  0  0  0  0
   10.6160  -13.7721   -3.3280 H   0  0  0  0  0  0  0  0  0  0  0  0
   14.5581  -12.6579   -4.7004 H   0  0  0  0  0  0  0  0  0  0  0  0
   14.8399  -11.2160   -2.6909 H   0  0  0  0  0  0  0  0  0  0  0  0
    8.6232  -12.6483   -2.0544 H   0  0  0  0  0  0  0  0  0  0  0  0
    4.6428  -11.5326   -0.3941 H   0  0  0  0  0  0  0  0  0  0  0  0
  1  2  1  0
  2  3  1  0
  2  4  1  0
  4  5  1  0
  5  6  1  0
  6  7  2  0
  7  8  1  0
  8  9  2  0
  9 10  1  0
 10 11  1  0
 11 12  1  0
 12 13  2  0
 13 14  1  0
 14 15  2  0
 15 16  1  0
 16 17  2  0
 17 18  1  0
 18 19  2  0
 19 20  1  0
 20 21  1  0
 21 22  1  0
 22 23  2  0
 22 24  1  0
 24 25  2  0
 25 26  1  0
 26 27  1  0
 27 28  1  0
 28 29  2  0
 29 30  1  0
 30 31  1  0
 31 32  1  0
 31 33  1  0
 31 34  1  0
 30 35  2  0
 35 36  1  0
 36 37  2  0
 37 38  1  0
 27 39  2  0
 20 40  2  0
 10 41  2  0
 41  6  1  0
 15 11  1  0
 40 16  1  0
 39 24  1  0
 37 28  1  0
  1 42  1  0
  1 43  1  0
  1 44  1  0
  2 45  1  1
  3 46  1  0
  4 47  1  0
  4 48  1  0
  5 49  1  0
  8 50  1  0
  9 51  1  0
 12 52  1  0
 13 53  1  0
 17 54  1  0
 18 55  1  0
 19 56  1  0
 21 57  1  0
 25 58  1  0
 29 59  1  0
 35 60  1  0
 36 61  1  0
 39 62  1  0
 40 63  1  0
M  END
>  <meeko>  (3) 
{"is_sidechain": [false], "free_energy": -8.435, "intermolecular_energy": -13.343, "internal_energy": -1.62}

$$$$
LIB_UCYYOFPZYBGIEY__M_PUB_ALL__e8__s20260927
     RDKit          3D

 63 67  0  0  0  0  0  0  0  0999 V2000
   -9.9210  -20.0350    6.5690 C   0  0  0  0  0  0  0  0  0  0  0  0
   -9.8000  -20.8830    7.8240 C   0  0  2  0  0  0  0  0  0  0  0  0
   -8.8090  -21.8910    7.5910 O   0  0  0  0  0  0  0  0  0  0  0  0
  -11.1390  -21.5460    8.1940 C   0  0  0  0  0  0  0  0  0  0  0  0
  -11.1640  -22.8980    7.6730 N   0  0  0  0  0  0  0  0  0  0  0  0
  -11.6700  -23.9310    8.4120 C   0  0  0  0  0  0  0  0  0  0  0  0
  -11.7890  -25.1000    7.7760 N   0  0  0  0  0  0  0  0  0  0  0  0
  -12.3210  -26.1190    8.4700 C   0  0  0  0  0  0  0  0  0  0  0  0
  -12.7420  -26.0160    9.7740 C   0  0  0  0  0  0  0  0  0  0  0  0
  -12.5690  -24.7790   10.3610 C   0  0  0  0  0  0  0  0  0  0  0  0
  -12.9960  -24.5570   11.7080 N   0  0  0  0  0  0  0  0  0  0  0  0
  -14.2880  -24.6710   12.1890 C   0  0  0  0  0  0  0  0  0  0  0  0
  -14.2560  -24.2380   13.4890 C   0  0  0  0  0  0  0  0  0  0  0  0
  -12.9880  -23.9010   13.8510 N   0  0  0  0  0  0  0  0  0  0  0  0
  -12.2230  -24.1440   12.7980 C   0  0  0  0  0  0  0  0  0  0  0  0
  -10.7640  -24.0280   12.8360 C   0  0  0  0  0  0  0  0  0  0  0  0
   -9.9930  -24.9310   13.5770 C   0  0  0  0  0  0  0  0  0  0  0  0
   -8.6090  -24.7810   13.6390 C   0  0  0  0  0  0  0  0  0  0  0  0
   -7.9840  -23.7310   12.9590 C   0  0  0  0  0  0  0  0  0  0  0  0
   -8.7370  -22.8160   12.2210 C   0  0  0  0  0  0  0  0  0  0  0  0
   -8.1850  -21.7330   11.5060 N   0  0  0  0  0  0  0  0  0  0  0  0
   -7.7340  -20.5280   12.0130 C   0  0  0  0  0  0  0  0  0  0  0  0
   -7.6900  -20.2250   13.2000 O   0  0  0  0  0  0  0  0  0  0  0  0
   -7.2640  -19.5950   10.9930 C   0  0  0  0  0  0  0  0  0  0  0  0
   -5.9590  -19.5500   10.5460 C   0  0  0  0  0  0  0  0  0  0  0  0
   -5.7950  -18.5930    9.6020 O   0  0  0  0  0  0  0  0  0  0  0  0
   -7.0070  -17.9920    9.4140 C   0  0  0  0  0  0  0  0  0  0  0  0
   -7.0290  -16.9180    8.4220 C   0  0  0  0  0  0  0  0  0  0  0  0
   -7.8250  -17.0860    7.2690 C   0  0  0  0  0  0  0  0  0  0  0  0
   -7.8950  -16.1070    6.2630 C   0  0  0  0  0  0  0  0  0  0  0  0
   -8.7390  -16.3350    5.0320 C   0  0  0  0  0  0  0  0  0  0  0  0
   -8.3330  -15.5990    3.9610 F   0  0  0  0  0  0  0  0  0  0  0  0
  -10.0510  -16.0260    5.2210 F   0  0  0  0  0  0  0  0  0  0  0  0
   -8.7130  -17.6330    4.6250 F   0  0  0  0  0  0  0  0  0  0  0  0
   -7.1390  -14.9380    6.4090 C   0  0  0  0  0  0  0  0  0  0  0  0
   -6.3510  -14.7480    7.5450 C   0  0  0  0  0  0  0  0  0  0  0  0
   -6.2960  -15.7260    8.5470 C   0  0  0  0  0  0  0  0  0  0  0  0
   -5.3180  -15.3590    9.9280 Cl  0  0  0  0  0  0  0  0  0  0  0  0
   -7.9350  -18.5680   10.2600 C   0  0  0  0  0  0  0  0  0  0  0  0
  -10.1310  -22.9630   12.1790 C   0  0  0  0  0  0  0  0  0  0  0  0
  -12.0310  -23.7410    9.6860 N   0  0  0  0  0  0  0  0  0  0  0  0
  -10.0712  -18.9824    6.8508 H   0  0  0  0  0  0  0  0  0  0  0  0
   -9.0006  -20.1275    5.9738 H   0  0  0  0  0  0  0  0  0  0  0  0
  -10.7788  -20.3812    5.9738 H   0  0  0  0  0  0  0  0  0  0  0  0
   -9.5103  -20.2355    8.6647 H   0  0  0  0  0  0  0  0  0  0  0  0
   -8.3160  -21.6070    6.7980 H   0  0  0  0  0  0  0  0  0  0  0  0
  -11.2462  -21.5719    9.2885 H   0  0  0  0  0  0  0  0  0  0  0  0
  -11.9685  -20.9684    7.7601 H   0  0  0  0  0  0  0  0  0  0  0  0
  -10.5790  -23.1880    6.9030 H   0  0  0  0  0  0  0  0  0  0  0  0
  -12.4257  -27.0912    7.9662 H   0  0  0  0  0  0  0  0  0  0  0  0
  -13.1877  -26.8640   10.3146 H   0  0  0  0  0  0  0  0  0  0  0  0
  -15.1667  -25.0366   11.6375 H   0  0  0  0  0  0  0  0  0  0  0  0
  -15.1338  -24.1720   14.1486 H   0  0  0  0  0  0  0  0  0  0  0  0
  -10.4802  -25.7601   14.1111 H   0  0  0  0  0  0  0  0  0  0  0  0
   -8.0063  -25.4907   14.2246 H   0  0  0  0  0  0  0  0  0  0  0  0
   -6.8901  -23.6252   13.0060 H   0  0  0  0  0  0  0  0  0  0  0  0
   -8.0830  -21.8780   10.5120 H   0  0  0  0  0  0  0  0  0  0  0  0
   -5.1553  -20.2071   10.9098 H   0  0  0  0  0  0  0  0  0  0  0  0
   -8.4085  -18.0114    7.1541 H   0  0  0  0  0  0  0  0  0  0  0  0
   -7.1661  -14.1664    5.6255 H   0  0  0  0  0  0  0  0  0  0  0  0
   -5.7676  -13.8219    7.6549 H   0  0  0  0  0  0  0  0  0  0  0  0
   -8.9947  -18.2878   10.3523 H   0  0  0  0  0  0  0  0  0  0  0  0
  -10.7366  -22.2324   11.6227 H   0  0  0  0  0  0  0  0  0  0  0  0
  1  2  1  0
  2  3  1  0
  2  4  1  0
  4  5  1  0
  5  6  1  0
  6  7  2  0
  7  8  1  0
  8  9  2  0
  9 10  1  0
 10 11  1  0
 11 12  1  0
 12 13  2  0
 13 14  1  0
 14 15  2  0
 15 16  1  0
 16 17  2  0
 17 18  1  0
 18 19  2  0
 19 20  1  0
 20 21  1  0
 21 22  1  0
 22 23  2  0
 22 24  1  0
 24 25  2  0
 25 26  1  0
 26 27  1  0
 27 28  1  0
 28 29  2  0
 29 30  1  0
 30 31  1  0
 31 32  1  0
 31 33  1  0
 31 34  1  0
 30 35  2  0
 35 36  1  0
 36 37  2  0
 37 38  1  0
 27 39  2  0
 20 40  2  0
 10 41  2  0
 41  6  1  0
 15 11  1  0
 40 16  1  0
 39 24  1  0
 37 28  1  0
  1 42  1  0
  1 43  1  0
  1 44  1  0
  2 45  1  1
  3 46  1  0
  4 47  1  0
  4 48  1  0
  5 49  1  0
  8 50  1  0
  9 51  1  0
 12 52  1  0
 13 53  1  0
 17 54  1  0
 18 55  1  0
 19 56  1  0
 21 57  1  0
 25 58  1  0
 29 59  1  0
 35 60  1  0
 36 61  1  0
 39 62  1  0
 40 63  1  0
M  END
>  <meeko>  (4) 
{"is_sidechain": [false], "free_energy": -8.341, "intermolecular_energy": -12.636, "internal_energy": -2.182}

$$$$
LIB_UCYYOFPZYBGIEY__M_PUB_ALL__e8__s20260927
     RDKit          3D

 63 67  0  0  0  0  0  0  0  0999 V2000
    2.4550  -12.1440   -3.3250 C   0  0  0  0  0  0  0  0  0  0  0  0
    3.6630  -11.2310   -3.1960 C   0  0  2  0  0  0  0  0  0  0  0  0
    3.3340   -9.9660   -3.7840 O   0  0  0  0  0  0  0  0  0  0  0  0
    4.9000  -11.8230   -3.8950 C   0  0  0  0  0  0  0  0  0  0  0  0
    6.0880  -11.4770   -3.1390 N   0  0  0  0  0  0  0  0  0  0  0  0
    6.8290  -12.4370   -2.5080 C   0  0  0  0  0  0  0  0  0  0  0  0
    6.3270  -13.6740   -2.5380 N   0  0  0  0  0  0  0  0  0  0  0  0
    7.0170  -14.6270   -1.8890 C   0  0  0  0  0  0  0  0  0  0  0  0
    8.1880  -14.3920   -1.2110 C   0  0  0  0  0  0  0  0  0  0  0  0
    8.6460  -13.0900   -1.2440 C   0  0  0  0  0  0  0  0  0  0  0  0
    9.8440  -12.7310   -0.5490 N   0  0  0  0  0  0  0  0  0  0  0  0
    9.9220  -12.1310    0.6950 C   0  0  0  0  0  0  0  0  0  0  0  0
   11.2480  -11.8510    0.9060 C   0  0  0  0  0  0  0  0  0  0  0  0
   12.0020  -12.2910   -0.1380 N   0  0  0  0  0  0  0  0  0  0  0  0
   11.1650  -12.8690   -0.9860 C   0  0  0  0  0  0  0  0  0  0  0  0
   11.6170  -13.5830   -2.1810 C   0  0  0  0  0  0  0  0  0  0  0  0
   11.5610  -12.9760   -3.4410 C   0  0  0  0  0  0  0  0  0  0  0  0
   11.9530  -13.6840   -4.5750 C   0  0  0  0  0  0  0  0  0  0  0  0
   12.4070  -15.0020   -4.4600 C   0  0  0  0  0  0  0  0  0  0  0  0
   12.4620  -15.6260   -3.2120 C   0  0  0  0  0  0  0  0  0  0  0  0
   12.9090  -16.9490   -3.0100 N   0  0  0  0  0  0  0  0  0  0  0  0
   12.1380  -18.0830   -2.8360 C   0  0  0  0  0  0  0  0  0  0  0  0
   10.9150  -18.1300   -2.8870 O   0  0  0  0  0  0  0  0  0  0  0  0
   12.9160  -19.2960   -2.5990 C   0  0  0  0  0  0  0  0  0  0  0  0
   12.5020  -20.3150   -1.7640 C   0  0  0  0  0  0  0  0  0  0  0  0
   13.4110  -21.3190   -1.7250 O   0  0  0  0  0  0  0  0  0  0  0  0
   14.4450  -20.9670   -2.5440 C   0  0  0  0  0  0  0  0  0  0  0  0
   15.5370  -21.9340   -2.6290 C   0  0  0  0  0  0  0  0  0  0  0  0
   16.1480  -22.3640   -1.4310 C   0  0  0  0  0  0  0  0  0  0  0  0
   17.2100  -23.2840   -1.4260 C   0  0  0  0  0  0  0  0  0  0  0  0
   17.8540  -23.7000   -0.1240 C   0  0  0  0  0  0  0  0  0  0  0  0
   17.6190  -22.8250    0.8920 F   0  0  0  0  0  0  0  0  0  0  0  0
   19.2070  -23.8140   -0.2120 F   0  0  0  0  0  0  0  0  0  0  0  0
   17.4010  -24.9080    0.3090 F   0  0  0  0  0  0  0  0  0  0  0  0
   17.6810  -23.7750   -2.6490 C   0  0  0  0  0  0  0  0  0  0  0  0
   17.0870  -23.3690   -3.8450 C   0  0  0  0  0  0  0  0  0  0  0  0
   16.0220  -22.4580   -3.8400 C   0  0  0  0  0  0  0  0  0  0  0  0
   15.3390  -22.0640   -5.3800 Cl  0  0  0  0  0  0  0  0  0  0  0  0
   14.1880  -19.7240   -3.0900 C   0  0  0  0  0  0  0  0  0  0  0  0
   12.0480  -14.9130   -2.0780 C   0  0  0  0  0  0  0  0  0  0  0  0
    7.9730  -12.1170   -1.8930 N   0  0  0  0  0  0  0  0  0  0  0  0
    2.0933  -12.4174   -2.3228 H   0  0  0  0  0  0  0  0  0  0  0  0
    1.6571  -11.6212   -3.8728 H   0  0  0  0  0  0  0  0  0  0  0  0
    2.7402  -13.0543   -3.8728 H   0  0  0  0  0  0  0  0  0  0  0  0
    3.9108  -11.1156   -2.1305 H   0  0  0  0  0  0  0  0  0  0  0  0
    4.1100   -9.3910   -3.6380 H   0  0  0  0  0  0  0  0  0  0  0  0
    4.8037  -12.9175   -3.9479 H   0  0  0  0  0  0  0  0  0  0  0  0
    4.9789  -11.4147   -4.9134 H   0  0  0  0  0  0  0  0  0  0  0  0
    6.2600  -10.5390   -2.8100 H   0  0  0  0  0  0  0  0  0  0  0  0
    6.6216  -15.6534   -1.9015 H   0  0  0  0  0  0  0  0  0  0  0  0
    8.7258  -15.1890   -0.6766 H   0  0  0  0  0  0  0  0  0  0  0  0
    9.0867  -11.9203    1.3790 H   0  0  0  0  0  0  0  0  0  0  0  0
   11.6467  -11.3415    1.7956 H   0  0  0  0  0  0  0  0  0  0  0  0
   11.2071  -11.9388   -3.5359 H   0  0  0  0  0  0  0  0  0  0  0  0
   11.9053  -13.2049   -5.5641 H   0  0  0  0  0  0  0  0  0  0  0  0
   12.7230  -15.5510   -5.3593 H   0  0  0  0  0  0  0  0  0  0  0  0
   13.9110  -17.0740   -3.0280 H   0  0  0  0  0  0  0  0  0  0  0  0
   11.5560  -20.3120   -1.2027 H   0  0  0  0  0  0  0  0  0  0  0  0
   15.7816  -21.9669   -0.4728 H   0  0  0  0  0  0  0  0  0  0  0  0
   18.5223  -24.4834   -2.6677 H   0  0  0  0  0  0  0  0  0  0  0  0
   17.4583  -23.7678   -4.8006 H   0  0  0  0  0  0  0  0  0  0  0  0
   14.8422  -19.1664   -3.7764 H   0  0  0  0  0  0  0  0  0  0  0  0
   12.0616  -15.4040   -1.0938 H   0  0  0  0  0  0  0  0  0  0  0  0
  1  2  1  0
  2  3  1  0
  2  4  1  0
  4  5  1  0
  5  6  1  0
  6  7  2  0
  7  8  1  0
  8  9  2  0
  9 10  1  0
 10 11  1  0
 11 12  1  0
 12 13  2  0
 13 14  1  0
 14 15  2  0
 15 16  1  0
 16 17  2  0
 17 18  1  0
 18 19  2  0
 19 20  1  0
 20 21  1  0
 21 22  1  0
 22 23  2  0
 22 24  1  0
 24 25  2  0
 25 26  1  0
 26 27  1  0
 27 28  1  0
 28 29  2  0
 29 30  1  0
 30 31  1  0
 31 32  1  0
 31 33  1  0
 31 34  1  0
 30 35  2  0
 35 36  1  0
 36 37  2  0
 37 38  1  0
 27 39  2  0
 20 40  2  0
 10 41  2  0
 41  6  1  0
 15 11  1  0
 40 16  1  0
 39 24  1  0
 37 28  1  0
  1 42  1  0
  1 43  1  0
  1 44  1  0
  2 45  1  1
  3 46  1  0
  4 47  1  0
  4 48  1  0
  5 49  1  0
  8 50  1  0
  9 51  1  0
 12 52  1  0
 13 53  1  0
 17 54  1  0
 18 55  1  0
 19 56  1  0
 21 57  1  0
 25 58  1  0
 29 59  1  0
 35 60  1  0
 36 61  1  0
 39 62  1  0
 40 63  1  0
M  END
>  <meeko>  (5) 
{"is_sidechain": [false], "free_energy": -8.3, "intermolecular_energy": -13.031, "internal_energy": -1.722}

$$$$
LIB_UCYYOFPZYBGIEY__M_PUB_ALL__e8__s20260927
     RDKit          3D

 63 67  0  0  0  0  0  0  0  0999 V2000
    6.7960   -7.2810    2.4920 C   0  0  0  0  0  0  0  0  0  0  0  0
    7.8040   -7.9590    1.5800 C   0  0  2  0  0  0  0  0  0  0  0  0
    8.3620   -6.9670    0.7090 O   0  0  0  0  0  0  0  0  0  0  0  0
    7.1540   -9.0770    0.7460 C   0  0  0  0  0  0  0  0  0  0  0  0
    6.7770  -10.1700    1.6210 N   0  0  0  0  0  0  0  0  0  0  0  0
    6.5250  -11.4180    1.1250 C   0  0  0  0  0  0  0  0  0  0  0  0
    6.2250  -12.3550    2.0290 N   0  0  0  0  0  0  0  0  0  0  0  0
    6.0140  -13.5990    1.5690 C   0  0  0  0  0  0  0  0  0  0  0  0
    6.0930  -13.9450    0.2420 C   0  0  0  0  0  0  0  0  0  0  0  0
    6.3910  -12.9140   -0.6270 C   0  0  0  0  0  0  0  0  0  0  0  0
    6.5220  -13.1700   -2.0280 N   0  0  0  0  0  0  0  0  0  0  0  0
    7.5380  -13.8820   -2.6410 C   0  0  0  0  0  0  0  0  0  0  0  0
    7.3340  -13.7600   -3.9910 C   0  0  0  0  0  0  0  0  0  0  0  0
    6.2080  -13.0390   -4.2430 N   0  0  0  0  0  0  0  0  0  0  0  0
    5.6900  -12.7320   -3.0630 C   0  0  0  0  0  0  0  0  0  0  0  0
    4.3960  -12.0640   -2.9160 C   0  0  0  0  0  0  0  0  0  0  0  0
    3.9990  -11.0680   -3.8150 C   0  0  0  0  0  0  0  0  0  0  0  0
    2.7830  -10.4110   -3.6370 C   0  0  0  0  0  0  0  0  0  0  0  0
    1.9530  -10.7440   -2.5610 C   0  0  0  0  0  0  0  0  0  0  0  0
    2.3370  -11.7300   -1.6490 C   0  0  0  0  0  0  0  0  0  0  0  0
    1.5600  -12.1260   -0.5410 N   0  0  0  0  0  0  0  0  0  0  0  0
    0.7780  -11.3270    0.2710 C   0  0  0  0  0  0  0  0  0  0  0  0
    0.5870  -10.1260    0.1210 O   0  0  0  0  0  0  0  0  0  0  0  0
    0.1360  -12.0460    1.3680 C   0  0  0  0  0  0  0  0  0  0  0  0
   -0.7670  -11.4640    2.2350 C   0  0  0  0  0  0  0  0  0  0  0  0
   -1.2060  -12.3530    3.1580 O   0  0  0  0  0  0  0  0  0  0  0  0
   -0.5890  -13.5450    2.9040 C   0  0  0  0  0  0  0  0  0  0  0  0
   -0.9380  -14.6390    3.8090 C   0  0  0  0  0  0  0  0  0  0  0  0
   -2.2610  -15.1280    3.7900 C   0  0  0  0  0  0  0  0  0  0  0  0
   -2.6810  -16.1710    4.6350 C   0  0  0  0  0  0  0  0  0  0  0  0
   -4.1130  -16.6500    4.6020 C   0  0  0  0  0  0  0  0  0  0  0  0
   -4.5940  -16.9800    5.8320 F   0  0  0  0  0  0  0  0  0  0  0  0
   -4.2870  -17.7540    3.8260 F   0  0  0  0  0  0  0  0  0  0  0  0
   -4.9590  -15.7060    4.1100 F   0  0  0  0  0  0  0  0  0  0  0  0
   -1.7580  -16.7260    5.5280 C   0  0  0  0  0  0  0  0  0  0  0  0
   -0.4420  -16.2610    5.5590 C   0  0  0  0  0  0  0  0  0  0  0  0
   -0.0310  -15.2280    4.7060 C   0  0  0  0  0  0  0  0  0  0  0  0
    1.6350  -14.7670    4.8030 Cl  0  0  0  0  0  0  0  0  0  0  0  0
    0.2560  -13.3960    1.8210 C   0  0  0  0  0  0  0  0  0  0  0  0
    3.5710  -12.3730   -1.8260 C   0  0  0  0  0  0  0  0  0  0  0  0
    6.6030  -11.6550   -0.1890 N   0  0  0  0  0  0  0  0  0  0  0  0
    7.0693   -7.4649    3.5415 H   0  0  0  0  0  0  0  0  0  0  0  0
    6.7956   -6.1983    2.2975 H   0  0  0  0  0  0  0  0  0  0  0  0
    5.7931   -7.6888    2.2975 H   0  0  0  0  0  0  0  0  0  0  0  0
    8.5874   -8.4223    2.1978 H   0  0  0  0  0  0  0  0  0  0  0  0
    9.2900   -6.8520    0.9890 H   0  0  0  0  0  0  0  0  0  0  0  0
    6.2589   -8.6854    0.2406 H   0  0  0  0  0  0  0  0  0  0  0  0
    7.8694   -9.4381   -0.0075 H   0  0  0  0  0  0  0  0  0  0  0  0
    6.4140  -10.0120    2.5500 H   0  0  0  0  0  0  0  0  0  0  0  0
    5.7637  -14.3855    2.2962 H   0  0  0  0  0  0  0  0  0  0  0  0
    5.9296  -14.9758   -0.1056 H   0  0  0  0  0  0  0  0  0  0  0  0
    8.3481  -14.4357   -2.1439 H   0  0  0  0  0  0  0  0  0  0  0  0
    7.9902  -14.1863   -4.7641 H   0  0  0  0  0  0  0  0  0  0  0  0
    4.6475  -10.8033   -4.6632 H   0  0  0  0  0  0  0  0  0  0  0  0
    2.4746   -9.6277   -4.3451 H   0  0  0  0  0  0  0  0  0  0  0  0
    0.9913  -10.2257   -2.4323 H   0  0  0  0  0  0  0  0  0  0  0  0
    1.5570  -13.1180   -0.3480 H   0  0  0  0  0  0  0  0  0  0  0  0
   -1.0887  -10.4134    2.1830 H   0  0  0  0  0  0  0  0  0  0  0  0
   -2.9856  -14.6804    3.0938 H   0  0  0  0  0  0  0  0  0  0  0  0
   -2.0704  -17.5319    6.2084 H   0  0  0  0  0  0  0  0  0  0  0  0
    0.2784  -16.7093    6.2590 H   0  0  0  0  0  0  0  0  0  0  0  0
    0.9022  -14.1734    1.3873 H   0  0  0  0  0  0  0  0  0  0  0  0
    3.8961  -13.1312   -1.0983 H   0  0  0  0  0  0  0  0  0  0  0  0
  1  2  1  0
  2  3  1  0
  2  4  1  0
  4  5  1  0
  5  6  1  0
  6  7  2  0
  7  8  1  0
  8  9  2  0
  9 10  1  0
 10 11  1  0
 11 12  1  0
 12 13  2  0
 13 14  1  0
 14 15  2  0
 15 16  1  0
 16 17  2  0
 17 18  1  0
 18 19  2  0
 19 20  1  0
 20 21  1  0
 21 22  1  0
 22 23  2  0
 22 24  1  0
 24 25  2  0
 25 26  1  0
 26 27  1  0
 27 28  1  0
 28 29  2  0
 29 30  1  0
 30 31  1  0
 31 32  1  0
 31 33  1  0
 31 34  1  0
 30 35  2  0
 35 36  1  0
 36 37  2  0
 37 38  1  0
 27 39  2  0
 20 40  2  0
 10 41  2  0
 41  6  1  0
 15 11  1  0
 40 16  1  0
 39 24  1  0
 37 28  1  0
  1 42  1  0
  1 43  1  0
  1 44  1  0
  2 45  1  1
  3 46  1  0
  4 47  1  0
  4 48  1  0
  5 49  1  0
  8 50  1  0
  9 51  1  0
 12 52  1  0
 13 53  1  0
 17 54  1  0
 18 55  1  0
 19 56  1  0
 21 57  1  0
 25 58  1  0
 29 59  1  0
 35 60  1  0
 36 61  1  0
 39 62  1  0
 40 63  1  0
M  END
>  <meeko>  (6) 
{"is_sidechain": [false], "free_energy": -8.285, "intermolecular_energy": -13.466, "internal_energy": -1.264}

$$$$
LIB_UCYYOFPZYBGIEY__M_PUB_ALL__e8__s20260927
     RDKit          3D

 63 67  0  0  0  0  0  0  0  0999 V2000
    6.2680   -7.3140    1.9440 C   0  0  0  0  0  0  0  0  0  0  0  0
    7.6130   -7.9130    1.5670 C   0  0  2  0  0  0  0  0  0  0  0  0
    8.2950   -6.9850    0.7150 O   0  0  0  0  0  0  0  0  0  0  0  0
    7.4510   -9.2620    0.8430 C   0  0  0  0  0  0  0  0  0  0  0  0
    6.5990  -10.1290    1.6320 N   0  0  0  0  0  0  0  0  0  0  0  0
    6.3040  -11.3990    1.2180 C   0  0  0  0  0  0  0  0  0  0  0  0
    5.8640  -12.2330    2.1640 N   0  0  0  0  0  0  0  0  0  0  0  0
    5.6070  -13.4970    1.7890 C   0  0  0  0  0  0  0  0  0  0  0  0
    5.7750  -13.9610    0.5060 C   0  0  0  0  0  0  0  0  0  0  0  0
    6.2180  -13.0300   -0.4120 C   0  0  0  0  0  0  0  0  0  0  0  0
    6.4490  -13.4140   -1.7700 N   0  0  0  0  0  0  0  0  0  0  0  0
    7.4590  -14.2420   -2.2280 C   0  0  0  0  0  0  0  0  0  0  0  0
    7.3820  -14.2240   -3.5970 C   0  0  0  0  0  0  0  0  0  0  0  0
    6.3390  -13.4520   -4.0080 N   0  0  0  0  0  0  0  0  0  0  0  0
    5.7460  -13.0100   -2.9100 C   0  0  0  0  0  0  0  0  0  0  0  0
    4.4980  -12.2470   -2.9370 C   0  0  0  0  0  0  0  0  0  0  0  0
    4.2770  -11.2700   -3.9150 C   0  0  0  0  0  0  0  0  0  0  0  0
    3.1030  -10.5210   -3.9010 C   0  0  0  0  0  0  0  0  0  0  0  0
    2.1370  -10.7420   -2.9140 C   0  0  0  0  0  0  0  0  0  0  0  0
    2.3440  -11.7070   -1.9250 C   0  0  0  0  0  0  0  0  0  0  0  0
    1.4220  -11.9930   -0.8970 N   0  0  0  0  0  0  0  0  0  0  0  0
    0.7200  -11.0930   -0.1170 C   0  0  0  0  0  0  0  0  0  0  0  0
    0.7450   -9.8730   -0.2360 O   0  0  0  0  0  0  0  0  0  0  0  0
   -0.1220  -11.7200    0.8990 C   0  0  0  0  0  0  0  0  0  0  0  0
   -0.7710  -11.0130    1.8920 C   0  0  0  0  0  0  0  0  0  0  0  0
   -1.4800  -11.8380    2.6990 O   0  0  0  0  0  0  0  0  0  0  0  0
   -1.3030  -13.1120    2.2390 C   0  0  0  0  0  0  0  0  0  0  0  0
   -1.9960  -14.1550    2.9930 C   0  0  0  0  0  0  0  0  0  0  0  0
   -1.2410  -14.9640    3.8690 C   0  0  0  0  0  0  0  0  0  0  0  0
   -1.8290  -15.9940    4.6230 C   0  0  0  0  0  0  0  0  0  0  0  0
   -0.9820  -16.8550    5.5300 C   0  0  0  0  0  0  0  0  0  0  0  0
   -1.5400  -17.0500    6.7570 F   0  0  0  0  0  0  0  0  0  0  0  0
    0.2530  -16.3310    5.7620 F   0  0  0  0  0  0  0  0  0  0  0  0
   -0.7730  -18.0960    5.0130 F   0  0  0  0  0  0  0  0  0  0  0  0
   -3.2010  -16.2290    4.4870 C   0  0  0  0  0  0  0  0  0  0  0  0
   -3.9690  -15.4360    3.6320 C   0  0  0  0  0  0  0  0  0  0  0  0
   -3.3760  -14.4040    2.8910 C   0  0  0  0  0  0  0  0  0  0  0  0
   -4.4350  -13.4610    1.9000 Cl  0  0  0  0  0  0  0  0  0  0  0  0
   -0.4630  -13.0860    1.1420 C   0  0  0  0  0  0  0  0  0  0  0  0
    3.5370  -12.4440   -1.9350 C   0  0  0  0  0  0  0  0  0  0  0  0
    6.4780  -11.7530   -0.0600 N   0  0  0  0  0  0  0  0  0  0  0  0
    6.1785   -7.2741    3.0396 H   0  0  0  0  0  0  0  0  0  0  0  0
    6.1914   -6.2967    1.5326 H   0  0  0  0  0  0  0  0  0  0  0  0
    5.4606   -7.9376    1.5326 H   0  0  0  0  0  0  0  0  0  0  0  0
    8.1904   -8.0991    2.4846 H   0  0  0  0  0  0  0  0  0  0  0  0
    7.6960   -6.2210    0.6130 H   0  0  0  0  0  0  0  0  0  0  0  0
    6.9942   -9.0969   -0.1440 H   0  0  0  0  0  0  0  0  0  0  0  0
    8.4371   -9.7320    0.7140 H   0  0  0  0  0  0  0  0  0  0  0  0
    5.9750   -9.7700    2.3390 H   0  0  0  0  0  0  0  0  0  0  0  0
    5.2415  -14.2005    2.5516 H   0  0  0  0  0  0  0  0  0  0  0  0
    5.5699  -15.0056    0.2290 H   0  0  0  0  0  0  0  0  0  0  0  0
    8.1802  -14.8030   -1.6156 H   0  0  0  0  0  0  0  0  0  0  0  0
    8.0681  -14.7593   -4.2698 H   0  0  0  0  0  0  0  0  0  0  0  0
    5.0317  -11.0937   -4.6956 H   0  0  0  0  0  0  0  0  0  0  0  0
    2.9347   -9.7522   -4.6696 H   0  0  0  0  0  0  0  0  0  0  0  0
    1.2084  -10.1523   -2.9164 H   0  0  0  0  0  0  0  0  0  0  0  0
    1.2380  -12.9740   -0.7420 H   0  0  0  0  0  0  0  0  0  0  0  0
   -0.7189   -9.9208    2.0121 H   0  0  0  0  0  0  0  0  0  0  0  0
   -0.1602  -14.7830    3.9644 H   0  0  0  0  0  0  0  0  0  0  0  0
   -3.6768  -17.0415    5.0557 H   0  0  0  0  0  0  0  0  0  0  0  0
   -5.0490  -15.6226    3.5390 H   0  0  0  0  0  0  0  0  0  0  0  0
   -0.1203  -13.9562    0.5629 H   0  0  0  0  0  0  0  0  0  0  0  0
    3.7216  -13.1873   -1.1455 H   0  0  0  0  0  0  0  0  0  0  0  0
  1  2  1  0
  2  3  1  0
  2  4  1  0
  4  5  1  0
  5  6  1  0
  6  7  2  0
  7  8  1  0
  8  9  2  0
  9 10  1  0
 10 11  1  0
 11 12  1  0
 12 13  2  0
 13 14  1  0
 14 15  2  0
 15 16  1  0
 16 17  2  0
 17 18  1  0
 18 19  2  0
 19 20  1  0
 20 21  1  0
 21 22  1  0
 22 23  2  0
 22 24  1  0
 24 25  2  0
 25 26  1  0
 26 27  1  0
 27 28  1  0
 28 29  2  0
 29 30  1  0
 30 31  1  0
 31 32  1  0
 31 33  1  0
 31 34  1  0
 30 35  2  0
 35 36  1  0
 36 37  2  0
 37 38  1  0
 27 39  2  0
 20 40  2  0
 10 41  2  0
 41  6  1  0
 15 11  1  0
 40 16  1  0
 39 24  1  0
 37 28  1  0
  1 42  1  0
  1 43  1  0
  1 44  1  0
  2 45  1  1
  3 46  1  0
  4 47  1  0
  4 48  1  0
  5 49  1  0
  8 50  1  0
  9 51  1  0
 12 52  1  0
 13 53  1  0
 17 54  1  0
 18 55  1  0
 19 56  1  0
 21 57  1  0
 25 58  1  0
 29 59  1  0
 35 60  1  0
 36 61  1  0
 39 62  1  0
 40 63  1  0
M  END
>  <meeko>  (7) 
{"is_sidechain": [false], "free_energy": -8.248, "intermolecular_energy": -13.272, "internal_energy": -1.4}

$$$$
LIB_UCYYOFPZYBGIEY__M_PUB_ALL__e8__s20260927
     RDKit          3D

 63 67  0  0  0  0  0  0  0  0999 V2000
    7.6960   -7.0200    3.1800 C   0  0  0  0  0  0  0  0  0  0  0  0
    7.0040   -7.1650    1.8350 C   0  0  2  0  0  0  0  0  0  0  0  0
    5.5930   -7.0300    2.0400 O   0  0  0  0  0  0  0  0  0  0  0  0
    7.3070   -8.5270    1.1840 C   0  0  0  0  0  0  0  0  0  0  0  0
    6.4990   -9.5510    1.8170 N   0  0  0  0  0  0  0  0  0  0  0  0
    6.4160  -10.8110    1.2920 C   0  0  0  0  0  0  0  0  0  0  0  0
    7.5490  -11.3080    0.7880 N   0  0  0  0  0  0  0  0  0  0  0  0
    7.4820  -12.5280    0.2300 C   0  0  0  0  0  0  0  0  0  0  0  0
    6.3290  -13.2700    0.1530 C   0  0  0  0  0  0  0  0  0  0  0  0
    5.2070  -12.6890    0.7120 C   0  0  0  0  0  0  0  0  0  0  0  0
    3.9480  -13.3660    0.6650 N   0  0  0  0  0  0  0  0  0  0  0  0
    3.4180  -14.1820    1.6480 C   0  0  0  0  0  0  0  0  0  0  0  0
    2.2700  -14.7190    1.1260 C   0  0  0  0  0  0  0  0  0  0  0  0
    2.0410  -14.2360   -0.1260 N   0  0  0  0  0  0  0  0  0  0  0  0
    3.0200  -13.3820   -0.3810 C   0  0  0  0  0  0  0  0  0  0  0  0
    3.0540  -12.5550   -1.5880 C   0  0  0  0  0  0  0  0  0  0  0  0
    2.2300  -11.4300   -1.7080 C   0  0  0  0  0  0  0  0  0  0  0  0
    2.2430  -10.6770   -2.8800 C   0  0  0  0  0  0  0  0  0  0  0  0
    3.0790  -11.0390   -3.9410 C   0  0  0  0  0  0  0  0  0  0  0  0
    3.9020  -12.1630   -3.8420 C   0  0  0  0  0  0  0  0  0  0  0  0
    4.7750  -12.5950   -4.8620 N   0  0  0  0  0  0  0  0  0  0  0  0
    4.8830  -13.8640   -5.4000 C   0  0  0  0  0  0  0  0  0  0  0  0
    4.1820  -14.8260   -5.1080 O   0  0  0  0  0  0  0  0  0  0  0  0
    5.9270  -13.9900   -6.4140 C   0  0  0  0  0  0  0  0  0  0  0  0
    6.9330  -14.9340   -6.3570 C   0  0  0  0  0  0  0  0  0  0  0  0
    7.7660  -14.8290   -7.4210 O   0  0  0  0  0  0  0  0  0  0  0  0
    7.3100  -13.8030   -8.1980 C   0  0  0  0  0  0  0  0  0  0  0  0
    8.0900  -13.5340   -9.4040 C   0  0  0  0  0  0  0  0  0  0  0  0
    9.4820  -13.3400   -9.2730 C   0  0  0  0  0  0  0  0  0  0  0  0
   10.3030  -13.0660  -10.3800 C   0  0  0  0  0  0  0  0  0  0  0  0
   11.7850  -12.8400  -10.1950 C   0  0  0  0  0  0  0  0  0  0  0  0
   12.5220  -13.2090  -11.2790 F   0  0  0  0  0  0  0  0  0  0  0  0
   12.3010  -13.5300   -9.1420 F   0  0  0  0  0  0  0  0  0  0  0  0
   12.0800  -11.5310   -9.9700 F   0  0  0  0  0  0  0  0  0  0  0  0
    9.7150  -12.9700  -11.6470 C   0  0  0  0  0  0  0  0  0  0  0  0
    8.3410  -13.1650  -11.8000 C   0  0  0  0  0  0  0  0  0  0  0  0
    7.5320  -13.4480  -10.6910 C   0  0  0  0  0  0  0  0  0  0  0  0
    5.8520  -13.7140  -11.0120 Cl  0  0  0  0  0  0  0  0  0  0  0  0
    6.1890  -13.2510   -7.6080 C   0  0  0  0  0  0  0  0  0  0  0  0
    3.8700  -12.9260   -2.6650 C   0  0  0  0  0  0  0  0  0  0  0  0
    5.2510  -11.4670    1.2830 N   0  0  0  0  0  0  0  0  0  0  0  0
    6.9645   -7.1733    3.9871 H   0  0  0  0  0  0  0  0  0  0  0  0
    8.4964   -7.7699    3.2633 H   0  0  0  0  0  0  0  0  0  0  0  0
    8.1280   -6.0118    3.2633 H   0  0  0  0  0  0  0  0  0  0  0  0
    7.3778   -6.3850    1.1554 H   0  0  0  0  0  0  0  0  0  0  0  0
    5.3080   -7.8380    2.5080 H   0  0  0  0  0  0  0  0  0  0  0  0
    7.0692   -8.4824    0.1109 H   0  0  0  0  0  0  0  0  0  0  0  0
    8.3728   -8.7674    1.3115 H   0  0  0  0  0  0  0  0  0  0  0  0
    5.7650   -9.3260    2.4720 H   0  0  0  0  0  0  0  0  0  0  0  0
    8.4038  -12.9575   -0.1894 H   0  0  0  0  0  0  0  0  0  0  0  0
    6.3006  -14.2616   -0.3224 H   0  0  0  0  0  0  0  0  0  0  0  0
    3.8349  -14.3639    2.6496 H   0  0  0  0  0  0  0  0  0  0  0  0
    1.6232  -15.4405    1.6467 H   0  0  0  0  0  0  0  0  0  0  0  0
    1.5714  -11.1401   -0.8760 H   0  0  0  0  0  0  0  0  0  0  0  0
    1.5931   -9.7942   -2.9712 H   0  0  0  0  0  0  0  0  0  0  0  0
    3.0884  -10.4343   -4.8598 H   0  0  0  0  0  0  0  0  0  0  0  0
    5.3630  -11.8770   -5.2610 H   0  0  0  0  0  0  0  0  0  0  0  0
    7.0441  -15.6755   -5.5521 H   0  0  0  0  0  0  0  0  0  0  0  0
    9.9379  -13.4053   -8.2741 H   0  0  0  0  0  0  0  0  0  0  0  0
   10.3374  -12.7403  -12.5244 H   0  0  0  0  0  0  0  0  0  0  0  0
    7.8891  -13.0959  -12.8005 H   0  0  0  0  0  0  0  0  0  0  0  0
    5.6057  -12.3992   -7.9879 H   0  0  0  0  0  0  0  0  0  0  0  0
    4.4943  -13.8282   -2.5866 H   0  0  0  0  0  0  0  0  0  0  0  0
  1  2  1  0
  2  3  1  0
  2  4  1  0
  4  5  1  0
  5  6  1  0
  6  7  2  0
  7  8  1  0
  8  9  2  0
  9 10  1  0
 10 11  1  0
 11 12  1  0
 12 13  2  0
 13 14  1  0
 14 15  2  0
 15 16  1  0
 16 17  2  0
 17 18  1  0
 18 19  2  0
 19 20  1  0
 20 21  1  0
 21 22  1  0
 22 23  2  0
 22 24  1  0
 24 25  2  0
 25 26  1  0
 26 27  1  0
 27 28  1  0
 28 29  2  0
 29 30  1  0
 30 31  1  0
 31 32  1  0
 31 33  1  0
 31 34  1  0
 30 35  2  0
 35 36  1  0
 36 37  2  0
 37 38  1  0
 27 39  2  0
 20 40  2  0
 10 41  2  0
 41  6  1  0
 15 11  1  0
 40 16  1  0
 39 24  1  0
 37 28  1  0
  1 42  1  0
  1 43  1  0
  1 44  1  0
  2 45  1  6
  3 46  1  0
  4 47  1  0
  4 48  1  0
  5 49  1  0
  8 50  1  0
  9 51  1  0
 12 52  1  0
 13 53  1  0
 17 54  1  0
 18 55  1  0
 19 56  1  0
 21 57  1  0
 25 58  1  0
 29 59  1  0
 35 60  1  0
 36 61  1  0
 39 62  1  0
 40 63  1  0
M  END
>  <meeko>  (8) 
{"is_sidechain": [false], "free_energy": -8.202, "intermolecular_energy": -13.05, "internal_energy": -1.551}

$$$$
LIB_UCYYOFPZYBGIEY__M_PUB_ALL__e8__s20260927
     RDKit          3D

 63 67  0  0  0  0  0  0  0  0999 V2000
    7.7680   -7.3050    1.8230 C   0  0  0  0  0  0  0  0  0  0  0  0
    6.6280   -8.2660    1.5290 C   0  0  2  0  0  0  0  0  0  0  0  0
    6.0120   -8.6260    2.7710 O   0  0  0  0  0  0  0  0  0  0  0  0
    7.1250   -9.5320    0.8080 C   0  0  0  0  0  0  0  0  0  0  0  0
    6.9470  -10.6790    1.6770 N   0  0  0  0  0  0  0  0  0  0  0  0
    6.6220  -11.9060    1.1700 C   0  0  0  0  0  0  0  0  0  0  0  0
    6.3770  -12.8620    2.0700 N   0  0  0  0  0  0  0  0  0  0  0  0
    6.0960  -14.0870    1.5960 C   0  0  0  0  0  0  0  0  0  0  0  0
    6.0530  -14.3950    0.2570 C   0  0  0  0  0  0  0  0  0  0  0  0
    6.3020  -13.3460   -0.6050 C   0  0  0  0  0  0  0  0  0  0  0  0
    6.3060  -13.5630   -2.0190 N   0  0  0  0  0  0  0  0  0  0  0  0
    7.2500  -14.2750   -2.7370 C   0  0  0  0  0  0  0  0  0  0  0  0
    6.9330  -14.1090   -4.0610 C   0  0  0  0  0  0  0  0  0  0  0  0
    5.8050  -13.3600   -4.1930 N   0  0  0  0  0  0  0  0  0  0  0  0
    5.3980  -13.0780   -2.9650 C   0  0  0  0  0  0  0  0  0  0  0  0
    4.1350  -12.3910   -2.6880 C   0  0  0  0  0  0  0  0  0  0  0  0
    3.7890  -11.2240   -3.3780 C   0  0  0  0  0  0  0  0  0  0  0  0
    2.6050  -10.5580   -3.0730 C   0  0  0  0  0  0  0  0  0  0  0  0
    1.7550  -11.0520   -2.0780 C   0  0  0  0  0  0  0  0  0  0  0  0
    2.0880  -12.2100   -1.3730 C   0  0  0  0  0  0  0  0  0  0  0  0
    1.2860  -12.7750   -0.3590 N   0  0  0  0  0  0  0  0  0  0  0  0
    0.4030  -13.8320   -0.4720 C   0  0  0  0  0  0  0  0  0  0  0  0
    0.2120  -14.4990   -1.4820 O   0  0  0  0  0  0  0  0  0  0  0  0
   -0.3120  -14.1400    0.7640 C   0  0  0  0  0  0  0  0  0  0  0  0
    0.1470  -13.7890    2.0180 C   0  0  0  0  0  0  0  0  0  0  0  0
   -0.7070  -14.1980    2.9860 O   0  0  0  0  0  0  0  0  0  0  0  0
   -1.7510  -14.8290    2.3720 C   0  0  0  0  0  0  0  0  0  0  0  0
   -2.7850  -15.3480    3.2660 C   0  0  0  0  0  0  0  0  0  0  0  0
   -4.0020  -14.6400    3.3660 C   0  0  0  0  0  0  0  0  0  0  0  0
   -5.0430  -15.0660    4.2090 C   0  0  0  0  0  0  0  0  0  0  0  0
   -6.3210  -14.2670    4.3070 C   0  0  0  0  0  0  0  0  0  0  0  0
   -6.4440  -13.3310    3.3260 F   0  0  0  0  0  0  0  0  0  0  0  0
   -6.4370  -13.5910    5.4830 F   0  0  0  0  0  0  0  0  0  0  0  0
   -7.4270  -15.0540    4.2150 F   0  0  0  0  0  0  0  0  0  0  0  0
   -4.8570  -16.2190    4.9790 C   0  0  0  0  0  0  0  0  0  0  0  0
   -3.6630  -16.9380    4.8900 C   0  0  0  0  0  0  0  0  0  0  0  0
   -2.6350  -16.5110    4.0390 C   0  0  0  0  0  0  0  0  0  0  0  0
   -1.2210  -17.5090    3.9810 Cl  0  0  0  0  0  0  0  0  0  0  0  0
   -1.5410  -14.8290    1.0070 C   0  0  0  0  0  0  0  0  0  0  0  0
    3.2900  -12.8650   -1.6740 C   0  0  0  0  0  0  0  0  0  0  0  0
    6.5820  -12.1060   -0.1520 N   0  0  0  0  0  0  0  0  0  0  0  0
    7.8896   -7.2025    2.9114 H   0  0  0  0  0  0  0  0  0  0  0  0
    8.6986   -7.6952    1.3852 H   0  0  0  0  0  0  0  0  0  0  0  0
    7.5409   -6.3218    1.3852 H   0  0  0  0  0  0  0  0  0  0  0  0
    5.9058   -7.7702    0.8638 H   0  0  0  0  0  0  0  0  0  0  0  0
    6.0360   -7.8240    3.3270 H   0  0  0  0  0  0  0  0  0  0  0  0
    6.5480   -9.6786   -0.1170 H   0  0  0  0  0  0  0  0  0  0  0  0
    8.1906   -9.4201    0.5589 H   0  0  0  0  0  0  0  0  0  0  0  0
    6.7730  -10.5800    2.6660 H   0  0  0  0  0  0  0  0  0  0  0  0
    5.8886  -14.8888    2.3200 H   0  0  0  0  0  0  0  0  0  0  0  0
    5.8345  -15.4109   -0.1039 H   0  0  0  0  0  0  0  0  0  0  0  0
    8.0880  -14.8582   -2.3276 H   0  0  0  0  0  0  0  0  0  0  0  0
    7.5108  -14.5240   -4.9000 H   0  0  0  0  0  0  0  0  0  0  0  0
    4.4533  -10.8322   -4.1624 H   0  0  0  0  0  0  0  0  0  0  0  0
    2.3370   -9.6400   -3.6165 H   0  0  0  0  0  0  0  0  0  0  0  0
    0.8174  -10.5242   -1.8494 H   0  0  0  0  0  0  0  0  0  0  0  0
    1.4040  -12.3720    0.5600 H   0  0  0  0  0  0  0  0  0  0  0  0
    1.0855  -13.2470    2.2064 H   0  0  0  0  0  0  0  0  0  0  0  0
   -4.1398  -13.7280    2.7666 H   0  0  0  0  0  0  0  0  0  0  0  0
   -5.6535  -16.5603    5.6566 H   0  0  0  0  0  0  0  0  0  0  0  0
   -3.5284  -17.8478    5.4935 H   0  0  0  0  0  0  0  0  0  0  0  0
   -2.1982  -15.2766    0.2469 H   0  0  0  0  0  0  0  0  0  0  0  0
    3.5746  -13.7635   -1.1069 H   0  0  0  0  0  0  0  0  0  0  0  0
  1  2  1  0
  2  3  1  0
  2  4  1  0
  4  5  1  0
  5  6  1  0
  6  7  2  0
  7  8  1  0
  8  9  2  0
  9 10  1  0
 10 11  1  0
 11 12  1  0
 12 13  2  0
 13 14  1  0
 14 15  2  0
 15 16  1  0
 16 17  2  0
 17 18  1  0
 18 19  2  0
 19 20  1  0
 20 21  1  0
 21 22  1  0
 22 23  2  0
 22 24  1  0
 24 25  2  0
 25 26  1  0
 26 27  1  0
 27 28  1  0
 28 29  2  0
 29 30  1  0
 30 31  1  0
 31 32  1  0
 31 33  1  0
 31 34  1  0
 30 35  2  0
 35 36  1  0
 36 37  2  0
 37 38  1  0
 27 39  2  0
 20 40  2  0
 10 41  2  0
 41  6  1  0
 15 11  1  0
 40 16  1  0
 39 24  1  0
 37 28  1  0
  1 42  1  0
  1 43  1  0
  1 44  1  0
  2 45  1  6
  3 46  1  0
  4 47  1  0
  4 48  1  0
  5 49  1  0
  8 50  1  0
  9 51  1  0
 12 52  1  0
 13 53  1  0
 17 54  1  0
 18 55  1  0
 19 56  1  0
 21 57  1  0
 25 58  1  0
 29 59  1  0
 35 60  1  0
 36 61  1  0
 39 62  1  0
 40 63  1  0
M  END
>  <meeko>  (9) 
{"is_sidechain": [false], "free_energy": -8.188, "intermolecular_energy": -12.938, "internal_energy": -1.641}

$$$$
