LIB_IUVCFHHAEHNCFT__M_PUB_ALL__e8__s20260927
     RDKit          3D

 66 71  0  0  0  0  0  0  0  0999 V2000
   13.3780  -10.5190    0.2800 C   0  0  0  0  0  0  0  0  0  0  0  0
   12.1660  -11.3630   -0.1030 C   0  0  0  0  0  0  0  0  0  0  0  0
   11.3090  -11.6290    1.1340 C   0  0  0  0  0  0  0  0  0  0  0  0
   12.5980  -12.6390   -0.5840 O   0  0  0  0  0  0  0  0  0  0  0  0
   12.0560  -13.1460   -1.7310 C   0  0  0  0  0  0  0  0  0  0  0  0
   11.2570  -12.2340   -2.4280 C   0  0  0  0  0  0  0  0  0  0  0  0
   10.6220  -12.5990   -3.6190 C   0  0  0  0  0  0  0  0  0  0  0  0
   10.7660  -13.8960   -4.1250 C   0  0  0  0  0  0  0  0  0  0  0  0
   10.1080  -14.2740   -5.3710 C   0  0  0  0  0  0  0  0  0  0  0  0
    8.7940  -14.5630   -5.3710 N   0  0  0  0  0  0  0  0  0  0  0  0
    8.5060  -14.7970   -6.6730 N   0  0  0  0  0  0  0  0  0  0  0  0
    7.1390  -15.1040   -7.1060 C   0  0  1  0  0  0  0  0  0  0  0  0
    6.6310  -16.4420   -6.5510 C   0  0  0  0  0  0  0  0  0  0  0  0
    6.1840  -13.9650   -6.7490 C   0  0  0  0  0  0  0  0  0  0  0  0
    5.6780  -14.0890   -5.4590 O   0  0  0  0  0  0  0  0  0  0  0  0
    4.8500  -13.1220   -4.9640 C   0  0  0  0  0  0  0  0  0  0  0  0
    4.4140  -13.2730   -3.6470 C   0  0  0  0  0  0  0  0  0  0  0  0
    3.5620  -12.3200   -3.0860 C   0  0  0  0  0  0  0  0  0  0  0  0
    3.1550  -11.2280   -3.8480 C   0  0  0  0  0  0  0  0  0  0  0  0
    2.3380  -10.3170   -3.3070 F   0  0  0  0  0  0  0  0  0  0  0  0
    3.5840  -11.0700   -5.1600 C   0  0  0  0  0  0  0  0  0  0  0  0
    4.4380  -12.0280   -5.7130 C   0  0  0  0  0  0  0  0  0  0  0  0
    4.9170  -11.9000   -7.0940 C   0  0  0  0  0  0  0  0  0  0  0  0
    4.5510  -10.9680   -7.7990 O   0  0  0  0  0  0  0  0  0  0  0  0
    5.8570  -12.9520   -7.5830 C   0  0  0  0  0  0  0  0  0  0  0  0
    6.3860  -12.8480   -8.9510 C   0  0  0  0  0  0  0  0  0  0  0  0
    6.3250  -13.9490   -9.8200 C   0  0  0  0  0  0  0  0  0  0  0  0
    6.8480  -13.8570  -11.1120 C   0  0  0  0  0  0  0  0  0  0  0  0
    7.4340  -12.6680  -11.5420 C   0  0  0  0  0  0  0  0  0  0  0  0
    7.4880  -11.5790  -10.6800 C   0  0  0  0  0  0  0  0  0  0  0  0
    8.0560  -10.4390  -11.0930 F   0  0  0  0  0  0  0  0  0  0  0  0
    6.9680  -11.6550   -9.3930 C   0  0  0  0  0  0  0  0  0  0  0  0
    9.5990  -14.7060   -7.4920 C   0  0  0  0  0  0  0  0  0  0  0  0
    9.6260  -14.8910   -8.8230 N   0  0  0  0  0  0  0  0  0  0  0  0
   10.8640  -14.7360   -9.3150 C   0  0  0  0  0  0  0  0  0  0  0  0
   11.9900  -14.4440   -8.6380 N   0  0  0  0  0  0  0  0  0  0  0  0
   11.9200  -14.2740   -7.3000 C   0  0  0  0  0  0  0  0  0  0  0  0
   13.1050  -14.0220   -6.6530 N   0  0  0  0  0  0  0  0  0  0  0  0
   10.6700  -14.3870   -6.6760 C   0  0  0  0  0  0  0  0  0  0  0  0
   11.5670  -14.8100   -3.4360 C   0  0  0  0  0  0  0  0  0  0  0  0
   12.1980  -14.4350   -2.2480 C   0  0  0  0  0  0  0  0  0  0  0  0
   12.9270  -15.3710   -1.6240 F   0  0  0  0  0  0  0  0  0  0  0  0
   13.4556  -10.4649    1.3759 H   0  0  0  0  0  0  0  0  0  0  0  0
   14.2893  -10.9788   -0.1299 H   0  0  0  0  0  0  0  0  0  0  0  0
   13.2628   -9.5047   -0.1299 H   0  0  0  0  0  0  0  0  0  0  0  0
   11.5976  -10.8187   -0.8716 H   0  0  0  0  0  0  0  0  0  0  0  0
   11.9051  -11.4440    2.0398 H   0  0  0  0  0  0  0  0  0  0  0  0
   10.4363  -10.9595    1.1263 H   0  0  0  0  0  0  0  0  0  0  0  0
   10.9687  -12.6750    1.1263 H   0  0  0  0  0  0  0  0  0  0  0  0
   11.1263  -11.2154   -2.0338 H   0  0  0  0  0  0  0  0  0  0  0  0
   10.0073  -11.8645   -4.1600 H   0  0  0  0  0  0  0  0  0  0  0  0
    7.1679  -15.2058   -8.2009 H   0  0  0  0  0  0  0  0  0  0  0  0
    6.6428  -16.4110   -5.4515 H   0  0  0  0  0  0  0  0  0  0  0  0
    5.6034  -16.6181   -6.9019 H   0  0  0  0  0  0  0  0  0  0  0  0
    7.2828  -17.2557   -6.9019 H   0  0  0  0  0  0  0  0  0  0  0  0
    4.7404  -14.1396   -3.0532 H   0  0  0  0  0  0  0  0  0  0  0  0
    3.2143  -12.4311   -2.0483 H   0  0  0  0  0  0  0  0  0  0  0  0
    3.2565  -10.2042   -5.7543 H   0  0  0  0  0  0  0  0  0  0  0  0
    5.8632  -14.8884   -9.4819 H   0  0  0  0  0  0  0  0  0  0  0  0
    6.7973  -14.7222  -11.7893 H   0  0  0  0  0  0  0  0  0  0  0  0
    7.8511  -12.5918  -12.5570 H   0  0  0  0  0  0  0  0  0  0  0  0
    7.0139  -10.7817   -8.7257 H   0  0  0  0  0  0  0  0  0  0  0  0
   10.9721  -14.8627  -10.4023 H   0  0  0  0  0  0  0  0  0  0  0  0
   13.3330  -14.4220   -5.7580 H   0  0  0  0  0  0  0  0  0  0  0  0
   13.8110  -13.5370   -7.1910 H   0  0  0  0  0  0  0  0  0  0  0  0
   11.7010  -15.8281   -3.8304 H   0  0  0  0  0  0  0  0  0  0  0  0
  1  2  1  0
  2  3  1  0
  2  4  1  0
  4  5  1  0
  5  6  2  0
  6  7  1  0
  7  8  2  0
  8  9  1  0
  9 10  2  0
 10 11  1  0
 11 12  1  0
 12 13  1  0
 12 14  1  0
 14 15  1  0
 15 16  1  0
 16 17  2  0
 17 18  1  0
 18 19  2  0
 19 20  1  0
 19 21  1  0
 21 22  2  0
 22 23  1  0
 23 24  2  0
 23 25  1  0
 25 26  1  0
 26 27  2  0
 27 28  1  0
 28 29  2  0
 29 30  1  0
 30 31  1  0
 30 32  2  0
 11 33  1  0
 33 34  2  0
 34 35  1  0
 35 36  2  0
 36 37  1  0
 37 38  1  0
 37 39  2  0
  8 40  1  0
 40 41  2  0
 41 42  1  0
 41  5  1  0
 39  9  1  0
 25 14  2  0
 32 26  1  0
 39 33  1  0
 22 16  1  0
  1 43  1  0
  1 44  1  0
  1 45  1  0
  2 46  1  0
  3 47  1  0
  3 48  1  0
  3 49  1  0
  6 50  1  0
  7 51  1  0
 12 52  1  6
 13 53  1  0
 13 54  1  0
 13 55  1  0
 17 56  1  0
 18 57  1  0
 21 58  1  0
 27 59  1  0
 28 60  1  0
 29 61  1  0
 32 62  1  0
 35 63  1  0
 38 64  1  0
 38 65  1  0
 40 66  1  0
M  END
>  <meeko>  (1) 
{"is_sidechain": [false], "free_energy": -9.645, "intermolecular_energy": -13.31, "internal_energy": -1.537}

$$$$
LIB_IUVCFHHAEHNCFT__M_PUB_ALL__e8__s20260927
     RDKit          3D

 66 71  0  0  0  0  0  0  0  0999 V2000
   11.3160  -12.2450   -0.0370 C   0  0  0  0  0  0  0  0  0  0  0  0
   12.4710  -11.9160   -0.9780 C   0  0  0  0  0  0  0  0  0  0  0  0
   13.2770  -10.7450   -0.4180 C   0  0  0  0  0  0  0  0  0  0  0  0
   11.9580  -11.4930   -2.2440 O   0  0  0  0  0  0  0  0  0  0  0  0
   11.9360  -12.3700   -3.2910 C   0  0  0  0  0  0  0  0  0  0  0  0
   10.6840  -12.9520   -3.5130 C   0  0  0  0  0  0  0  0  0  0  0  0
   10.4950  -13.8790   -4.5430 C   0  0  0  0  0  0  0  0  0  0  0  0
   11.5680  -14.2520   -5.3610 C   0  0  0  0  0  0  0  0  0  0  0  0
   11.3680  -15.2140   -6.4380 C   0  0  0  0  0  0  0  0  0  0  0  0
   10.6890  -14.8500   -7.5400 N   0  0  0  0  0  0  0  0  0  0  0  0
   10.7520  -15.9390   -8.3440 N   0  0  0  0  0  0  0  0  0  0  0  0
   10.1610  -15.9280   -9.6860 C   0  0  1  0  0  0  0  0  0  0  0  0
    8.7790  -16.5920   -9.7280 C   0  0  0  0  0  0  0  0  0  0  0  0
   10.1050  -14.5070  -10.2460 C   0  0  0  0  0  0  0  0  0  0  0  0
    8.8160  -13.9850  -10.2230 O   0  0  0  0  0  0  0  0  0  0  0  0
    8.6010  -12.7020  -10.6410 C   0  0  0  0  0  0  0  0  0  0  0  0
    7.2960  -12.2140  -10.5480 C   0  0  0  0  0  0  0  0  0  0  0  0
    7.0130  -10.9120  -10.9620 C   0  0  0  0  0  0  0  0  0  0  0  0
    8.0360  -10.1140  -11.4670 C   0  0  0  0  0  0  0  0  0  0  0  0
    7.7590   -8.8660  -11.8650 F   0  0  0  0  0  0  0  0  0  0  0  0
    9.3370  -10.5900  -11.5640 C   0  0  0  0  0  0  0  0  0  0  0  0
    9.6130  -11.8950  -11.1440 C   0  0  0  0  0  0  0  0  0  0  0  0
   10.9720  -12.4400  -11.2270 C   0  0  0  0  0  0  0  0  0  0  0  0
   11.8850  -11.7710  -11.6960 O   0  0  0  0  0  0  0  0  0  0  0  0
   11.1750  -13.8280  -10.7180 C   0  0  0  0  0  0  0  0  0  0  0  0
   12.5280  -14.4040  -10.7540 C   0  0  0  0  0  0  0  0  0  0  0  0
   12.9300  -15.2020  -11.8370 C   0  0  0  0  0  0  0  0  0  0  0  0
   14.2060  -15.7690  -11.8600 C   0  0  0  0  0  0  0  0  0  0  0  0
   15.0870  -15.5420  -10.8030 C   0  0  0  0  0  0  0  0  0  0  0  0
   14.6860  -14.7460   -9.7360 C   0  0  0  0  0  0  0  0  0  0  0  0
   15.5320  -14.5330   -8.7190 F   0  0  0  0  0  0  0  0  0  0  0  0
   13.4200  -14.1730   -9.7020 C   0  0  0  0  0  0  0  0  0  0  0  0
   11.4120  -16.9930   -7.7720 C   0  0  0  0  0  0  0  0  0  0  0  0
   11.6280  -18.2010   -8.3200 N   0  0  0  0  0  0  0  0  0  0  0  0
   12.3000  -19.0060   -7.4840 C   0  0  0  0  0  0  0  0  0  0  0  0
   12.7310  -18.7280   -6.2390 N   0  0  0  0  0  0  0  0  0  0  0  0
   12.4860  -17.5040   -5.7230 C   0  0  0  0  0  0  0  0  0  0  0  0
   12.9090  -17.2890   -4.4340 N   0  0  0  0  0  0  0  0  0  0  0  0
   11.8110  -16.5660   -6.5170 C   0  0  0  0  0  0  0  0  0  0  0  0
   12.8200  -13.6700   -5.1470 C   0  0  0  0  0  0  0  0  0  0  0  0
   12.9980  -12.7450   -4.1170 C   0  0  0  0  0  0  0  0  0  0  0  0
   14.2330  -12.2500   -3.9490 F   0  0  0  0  0  0  0  0  0  0  0  0
   11.6536  -12.1488    1.0055 H   0  0  0  0  0  0  0  0  0  0  0  0
   10.4848  -11.5479   -0.2190 H   0  0  0  0  0  0  0  0  0  0  0  0
   10.9769  -13.2755   -0.2190 H   0  0  0  0  0  0  0  0  0  0  0  0
   13.0959  -12.8153   -1.0821 H   0  0  0  0  0  0  0  0  0  0  0  0
   13.2549  -10.7771    0.6813 H   0  0  0  0  0  0  0  0  0  0  0  0
   14.3180  -10.8167   -0.7661 H   0  0  0  0  0  0  0  0  0  0  0  0
   12.8384   -9.7982   -0.7661 H   0  0  0  0  0  0  0  0  0  0  0  0
    9.8361  -12.6769   -2.8686 H   0  0  0  0  0  0  0  0  0  0  0  0
    9.4998  -14.3165   -4.7109 H   0  0  0  0  0  0  0  0  0  0  0  0
   10.8197  -16.5309  -10.3284 H   0  0  0  0  0  0  0  0  0  0  0  0
    8.4230  -16.7630   -8.7013 H   0  0  0  0  0  0  0  0  0  0  0  0
    8.0725  -15.9350  -10.2564 H   0  0  0  0  0  0  0  0  0  0  0  0
    8.8504  -17.5541  -10.2564 H   0  0  0  0  0  0  0  0  0  0  0  0
    6.4943  -12.8535  -10.1500 H   0  0  0  0  0  0  0  0  0  0  0  0
    5.9883  -10.5186  -10.8899 H   0  0  0  0  0  0  0  0  0  0  0  0
   10.1375   -9.9508  -11.9648 H   0  0  0  0  0  0  0  0  0  0  0  0
   12.2363  -15.3815  -12.6716 H   0  0  0  0  0  0  0  0  0  0  0  0
   14.5158  -16.3938  -12.7107 H   0  0  0  0  0  0  0  0  0  0  0  0
   16.0918  -15.9895  -10.8134 H   0  0  0  0  0  0  0  0  0  0  0  0
   13.1214  -13.5414   -8.8523 H   0  0  0  0  0  0  0  0  0  0  0  0
   12.5263  -20.0145   -7.8606 H   0  0  0  0  0  0  0  0  0  0  0  0
   13.1130  -18.0390   -3.7960 H   0  0  0  0  0  0  0  0  0  0  0  0
   13.1570  -16.3370   -4.2010 H   0  0  0  0  0  0  0  0  0  0  0  0
   13.6683  -13.9417   -5.7924 H   0  0  0  0  0  0  0  0  0  0  0  0
  1  2  1  0
  2  3  1  0
  2  4  1  0
  4  5  1  0
  5  6  2  0
  6  7  1  0
  7  8  2  0
  8  9  1  0
  9 10  2  0
 10 11  1  0
 11 12  1  0
 12 13  1  0
 12 14  1  0
 14 15  1  0
 15 16  1  0
 16 17  2  0
 17 18  1  0
 18 19  2  0
 19 20  1  0
 19 21  1  0
 21 22  2  0
 22 23  1  0
 23 24  2  0
 23 25  1  0
 25 26  1  0
 26 27  2  0
 27 28  1  0
 28 29  2  0
 29 30  1  0
 30 31  1  0
 30 32  2  0
 11 33  1  0
 33 34  2  0
 34 35  1  0
 35 36  2  0
 36 37  1  0
 37 38  1  0
 37 39  2  0
  8 40  1  0
 40 41  2  0
 41 42  1  0
 41  5  1  0
 39  9  1  0
 25 14  2  0
 32 26  1  0
 39 33  1  0
 22 16  1  0
  1 43  1  0
  1 44  1  0
  1 45  1  0
  2 46  1  0
  3 47  1  0
  3 48  1  0
  3 49  1  0
  6 50  1  0
  7 51  1  0
 12 52  1  6
 13 53  1  0
 13 54  1  0
 13 55  1  0
 17 56  1  0
 18 57  1  0
 21 58  1  0
 27 59  1  0
 28 60  1  0
 29 61  1  0
 32 62  1  0
 35 63  1  0
 38 64  1  0
 38 65  1  0
 40 66  1  0
M  END
>  <meeko>  (2) 
{"is_sidechain": [false], "free_energy": -9.441, "intermolecular_energy": -12.23, "internal_energy": -2.336}

$$$$
LIB_IUVCFHHAEHNCFT__M_PUB_ALL__e8__s20260927
     RDKit          3D

 66 71  0  0  0  0  0  0  0  0999 V2000
    3.4580  -11.0180   -5.0230 C   0  0  0  0  0  0  0  0  0  0  0  0
    4.2310  -12.3130   -5.2470 C   0  0  0  0  0  0  0  0  0  0  0  0
    4.8810  -12.2950   -6.6300 C   0  0  0  0  0  0  0  0  0  0  0  0
    3.3300  -13.4230   -5.2330 O   0  0  0  0  0  0  0  0  0  0  0  0
    2.9240  -13.9470   -4.0370 C   0  0  0  0  0  0  0  0  0  0  0  0
    3.9670  -14.1510   -3.1280 C   0  0  0  0  0  0  0  0  0  0  0  0
    3.7200  -14.6890   -1.8620 C   0  0  0  0  0  0  0  0  0  0  0  0
    2.4200  -15.0470   -1.4890 C   0  0  0  0  0  0  0  0  0  0  0  0
    2.1630  -15.6020   -0.1650 C   0  0  0  0  0  0  0  0  0  0  0  0
    1.5680  -14.8440    0.7730 N   0  0  0  0  0  0  0  0  0  0  0  0
    1.4240  -15.6760    1.8310 N   0  0  0  0  0  0  0  0  0  0  0  0
    0.7620  -15.2330    3.0620 C   0  0  1  0  0  0  0  0  0  0  0  0
    1.7490  -14.6830    4.0990 C   0  0  0  0  0  0  0  0  0  0  0  0
   -0.3360  -14.2150    2.7550 C   0  0  0  0  0  0  0  0  0  0  0  0
    0.1850  -12.9880    2.3540 O   0  0  0  0  0  0  0  0  0  0  0  0
   -0.6650  -11.9820    1.9900 C   0  0  0  0  0  0  0  0  0  0  0  0
   -0.0870  -10.7920    1.5480 C   0  0  0  0  0  0  0  0  0  0  0  0
   -0.9020   -9.7260    1.1660 C   0  0  0  0  0  0  0  0  0  0  0  0
   -2.2870   -9.8610    1.2320 C   0  0  0  0  0  0  0  0  0  0  0  0
   -3.0650   -8.8360    0.8660 F   0  0  0  0  0  0  0  0  0  0  0  0
   -2.8710  -11.0430    1.6710 C   0  0  0  0  0  0  0  0  0  0  0  0
   -2.0470  -12.1060    2.0500 C   0  0  0  0  0  0  0  0  0  0  0  0
   -2.6210  -13.3720    2.5180 C   0  0  0  0  0  0  0  0  0  0  0  0
   -3.8340  -13.5090    2.6170 O   0  0  0  0  0  0  0  0  0  0  0  0
   -1.6610  -14.4620    2.8620 C   0  0  0  0  0  0  0  0  0  0  0  0
   -2.1930  -15.7590    3.3080 C   0  0  0  0  0  0  0  0  0  0  0  0
   -2.4550  -16.7760    2.3770 C   0  0  0  0  0  0  0  0  0  0  0  0
   -2.9820  -17.9990    2.7970 C   0  0  0  0  0  0  0  0  0  0  0  0
   -3.2500  -18.2130    4.1490 C   0  0  0  0  0  0  0  0  0  0  0  0
   -2.9830  -17.2040    5.0680 C   0  0  0  0  0  0  0  0  0  0  0  0
   -3.2460  -17.4090    6.3660 F   0  0  0  0  0  0  0  0  0  0  0  0
   -2.4560  -15.9840    4.6630 C   0  0  0  0  0  0  0  0  0  0  0  0
    1.9450  -16.9230    1.6110 C   0  0  0  0  0  0  0  0  0  0  0  0
    1.9570  -17.9550    2.4720 N   0  0  0  0  0  0  0  0  0  0  0  0
    2.5550  -19.0310    1.9400 C   0  0  0  0  0  0  0  0  0  0  0  0
    3.1060  -19.1480    0.7170 N   0  0  0  0  0  0  0  0  0  0  0  0
    3.0800  -18.0850   -0.1140 C   0  0  0  0  0  0  0  0  0  0  0  0
    3.6950  -18.2450   -1.3310 N   0  0  0  0  0  0  0  0  0  0  0  0
    2.4570  -16.9080    0.3250 C   0  0  0  0  0  0  0  0  0  0  0  0
    1.3730  -14.8400   -2.3910 C   0  0  0  0  0  0  0  0  0  0  0  0
    1.6290  -14.3020   -3.6530 C   0  0  0  0  0  0  0  0  0  0  0  0
    0.5830  -14.1590   -4.4790 F   0  0  0  0  0  0  0  0  0  0  0  0
    3.3502  -10.8374   -3.9433 H   0  0  0  0  0  0  0  0  0  0  0  0
    4.0043  -10.1808   -5.4821 H   0  0  0  0  0  0  0  0  0  0  0  0
    2.4619  -11.1015   -5.4821 H   0  0  0  0  0  0  0  0  0  0  0  0
    4.9866  -12.4030   -4.4527 H   0  0  0  0  0  0  0  0  0  0  0  0
    5.9751  -12.2647   -6.5205 H   0  0  0  0  0  0  0  0  0  0  0  0
    4.5927  -13.2015   -7.1825 H   0  0  0  0  0  0  0  0  0  0  0  0
    4.5430  -11.4059   -7.1825 H   0  0  0  0  0  0  0  0  0  0  0  0
    4.9954  -13.8845   -3.4132 H   0  0  0  0  0  0  0  0  0  0  0  0
    4.5513  -14.8316   -1.1558 H   0  0  0  0  0  0  0  0  0  0  0  0
    0.2977  -16.1235    3.5109 H   0  0  0  0  0  0  0  0  0  0  0  0
    1.3724  -14.8929    5.1110 H   0  0  0  0  0  0  0  0  0  0  0  0
    2.7284  -15.1654    3.9649 H   0  0  0  0  0  0  0  0  0  0  0  0
    1.8541  -13.5963    3.9649 H   0  0  0  0  0  0  0  0  0  0  0  0
    1.0076  -10.6943    1.5008 H   0  0  0  0  0  0  0  0  0  0  0  0
   -0.4538   -8.7848    0.8149 H   0  0  0  0  0  0  0  0  0  0  0  0
   -3.9656  -11.1404    1.7194 H   0  0  0  0  0  0  0  0  0  0  0  0
   -2.2440  -16.6087    1.3105 H   0  0  0  0  0  0  0  0  0  0  0  0
   -3.1855  -18.7924    2.0628 H   0  0  0  0  0  0  0  0  0  0  0  0
   -3.6693  -19.1726    4.4857 H   0  0  0  0  0  0  0  0  0  0  0  0
   -2.2466  -15.1989    5.4045 H   0  0  0  0  0  0  0  0  0  0  0  0
    2.6009  -19.9250    2.5793 H   0  0  0  0  0  0  0  0  0  0  0  0
    3.5660  -19.0630   -1.9030 H   0  0  0  0  0  0  0  0  0  0  0  0
    4.1660  -17.4310   -1.7020 H   0  0  0  0  0  0  0  0  0  0  0  0
    0.3435  -15.1020   -2.1054 H   0  0  0  0  0  0  0  0  0  0  0  0
  1  2  1  0
  2  3  1  0
  2  4  1  0
  4  5  1  0
  5  6  2  0
  6  7  1  0
  7  8  2  0
  8  9  1  0
  9 10  2  0
 10 11  1  0
 11 12  1  0
 12 13  1  0
 12 14  1  0
 14 15  1  0
 15 16  1  0
 16 17  2  0
 17 18  1  0
 18 19  2  0
 19 20  1  0
 19 21  1  0
 21 22  2  0
 22 23  1  0
 23 24  2  0
 23 25  1  0
 25 26  1  0
 26 27  2  0
 27 28  1  0
 28 29  2  0
 29 30  1  0
 30 31  1  0
 30 32  2  0
 11 33  1  0
 33 34  2  0
 34 35  1  0
 35 36  2  0
 36 37  1  0
 37 38  1  0
 37 39  2  0
  8 40  1  0
 40 41  2  0
 41 42  1  0
 41  5  1  0
 39  9  1  0
 25 14  2  0
 32 26  1  0
 39 33  1  0
 22 16  1  0
  1 43  1  0
  1 44  1  0
  1 45  1  0
  2 46  1  0
  3 47  1  0
  3 48  1  0
  3 49  1  0
  6 50  1  0
  7 51  1  0
 12 52  1  1
 13 53  1  0
 13 54  1  0
 13 55  1  0
 17 56  1  0
 18 57  1  0
 21 58  1  0
 27 59  1  0
 28 60  1  0
 29 61  1  0
 32 62  1  0
 35 63  1  0
 38 64  1  0
 38 65  1  0
 40 66  1  0
M  END
>  <meeko>  (3) 
{"is_sidechain": [false], "free_energy": -9.329, "intermolecular_energy": -12.502, "internal_energy": -1.908}

$$$$
LIB_IUVCFHHAEHNCFT__M_PUB_ALL__e8__s20260927
     RDKit          3D

 66 71  0  0  0  0  0  0  0  0999 V2000
   -5.6650  -13.3410    3.2430 C   0  0  0  0  0  0  0  0  0  0  0  0
   -4.4580  -13.2240    2.3180 C   0  0  0  0  0  0  0  0  0  0  0  0
   -4.9160  -12.8160    0.9180 C   0  0  0  0  0  0  0  0  0  0  0  0
   -3.8230  -14.4990    2.1860 O   0  0  0  0  0  0  0  0  0  0  0  0
   -2.6290  -14.5930    1.5280 C   0  0  0  0  0  0  0  0  0  0  0  0
   -2.6810  -15.3860    0.3770 C   0  0  0  0  0  0  0  0  0  0  0  0
   -1.5410  -15.5910   -0.4050 C   0  0  0  0  0  0  0  0  0  0  0  0
   -0.3200  -15.0140   -0.0370 C   0  0  0  0  0  0  0  0  0  0  0  0
    0.8670  -15.2240   -0.8580 C   0  0  0  0  0  0  0  0  0  0  0  0
    1.1950  -14.3220   -1.7990 N   0  0  0  0  0  0  0  0  0  0  0  0
    2.3610  -14.7840   -2.3100 N   0  0  0  0  0  0  0  0  0  0  0  0
    3.0830  -14.0420   -3.3490 C   0  0  1  0  0  0  0  0  0  0  0  0
    2.1530  -13.1820   -4.2150 C   0  0  0  0  0  0  0  0  0  0  0  0
    4.2020  -13.1980   -2.7390 C   0  0  0  0  0  0  0  0  0  0  0  0
    3.9770  -12.9230   -1.3940 O   0  0  0  0  0  0  0  0  0  0  0  0
    4.9110  -12.2220   -0.6850 C   0  0  0  0  0  0  0  0  0  0  0  0
    4.6560  -12.0190    0.6730 C   0  0  0  0  0  0  0  0  0  0  0  0
    5.5700  -11.3070    1.4500 C   0  0  0  0  0  0  0  0  0  0  0  0
    6.7280  -10.8040    0.8610 C   0  0  0  0  0  0  0  0  0  0  0  0
    7.6020  -10.1210    1.6100 F   0  0  0  0  0  0  0  0  0  0  0  0
    6.9900  -11.0010   -0.4890 C   0  0  0  0  0  0  0  0  0  0  0  0
    6.0700  -11.7170   -1.2590 C   0  0  0  0  0  0  0  0  0  0  0  0
    6.3060  -11.9500   -2.6880 C   0  0  0  0  0  0  0  0  0  0  0  0
    7.2990  -11.4920   -3.2400 O   0  0  0  0  0  0  0  0  0  0  0  0
    5.2860  -12.7590   -3.4180 C   0  0  0  0  0  0  0  0  0  0  0  0
    5.4970  -13.0420   -4.8460 C   0  0  0  0  0  0  0  0  0  0  0  0
    5.0280  -12.1500   -5.8220 C   0  0  0  0  0  0  0  0  0  0  0  0
    5.2070  -12.4300   -7.1790 C   0  0  0  0  0  0  0  0  0  0  0  0
    5.8550  -13.6030   -7.5670 C   0  0  0  0  0  0  0  0  0  0  0  0
    6.3220  -14.4810   -6.5960 C   0  0  0  0  0  0  0  0  0  0  0  0
    6.9390  -15.6090   -6.9700 F   0  0  0  0  0  0  0  0  0  0  0  0
    6.1530  -14.2120   -5.2420 C   0  0  0  0  0  0  0  0  0  0  0  0
    2.7610  -15.9690   -1.7530 C   0  0  0  0  0  0  0  0  0  0  0  0
    3.8670  -16.6700   -2.0600 N   0  0  0  0  0  0  0  0  0  0  0  0
    3.9520  -17.7930   -1.3310 C   0  0  0  0  0  0  0  0  0  0  0  0
    3.0870  -18.2430   -0.4030 N   0  0  0  0  0  0  0  0  0  0  0  0
    1.9840  -17.5110   -0.1320 C   0  0  0  0  0  0  0  0  0  0  0  0
    1.1130  -18.0380    0.7900 N   0  0  0  0  0  0  0  0  0  0  0  0
    1.8000  -16.3010   -0.8150 C   0  0  0  0  0  0  0  0  0  0  0  0
   -0.2630  -14.2170    1.1090 C   0  0  0  0  0  0  0  0  0  0  0  0
   -1.4080  -14.0170    1.8830 C   0  0  0  0  0  0  0  0  0  0  0  0
   -1.2740  -13.2660    2.9850 F   0  0  0  0  0  0  0  0  0  0  0  0
   -5.3291  -13.3084    4.2900 H   0  0  0  0  0  0  0  0  0  0  0  0
   -6.3549  -12.5055    3.0531 H   0  0  0  0  0  0  0  0  0  0  0  0
   -6.1815  -14.2934    3.0531 H   0  0  0  0  0  0  0  0  0  0  0  0
   -3.7704  -12.4790    2.7449 H   0  0  0  0  0  0  0  0  0  0  0  0
   -5.7352  -12.0863    0.9983 H   0  0  0  0  0  0  0  0  0  0  0  0
   -4.0738  -12.3634    0.3741 H   0  0  0  0  0  0  0  0  0  0  0  0
   -5.2686  -13.7047    0.3741 H   0  0  0  0  0  0  0  0  0  0  0  0
   -3.6319  -15.8546    0.0834 H   0  0  0  0  0  0  0  0  0  0  0  0
   -1.6035  -16.2083   -1.3133 H   0  0  0  0  0  0  0  0  0  0  0  0
    3.5343  -14.7895   -4.0180 H   0  0  0  0  0  0  0  0  0  0  0  0
    1.5010  -12.5791   -3.5658 H   0  0  0  0  0  0  0  0  0  0  0  0
    2.7554  -12.5158   -4.8500 H   0  0  0  0  0  0  0  0  0  0  0  0
    1.5359  -13.8346   -4.8500 H   0  0  0  0  0  0  0  0  0  0  0  0
    3.7380  -12.4190    1.1282 H   0  0  0  0  0  0  0  0  0  0  0  0
    5.3777  -11.1438    2.5207 H   0  0  0  0  0  0  0  0  0  0  0  0
    7.9073  -10.5996   -0.9445 H   0  0  0  0  0  0  0  0  0  0  0  0
    4.5165  -11.2251   -5.5172 H   0  0  0  0  0  0  0  0  0  0  0  0
    4.8377  -11.7269   -7.9401 H   0  0  0  0  0  0  0  0  0  0  0  0
    5.9953  -13.8314   -8.6338 H   0  0  0  0  0  0  0  0  0  0  0  0
    6.5332  -14.9156   -4.4867 H   0  0  0  0  0  0  0  0  0  0  0  0
    4.8355  -18.4222   -1.5137 H   0  0  0  0  0  0  0  0  0  0  0  0
    0.3300  -18.6140    0.5320 H   0  0  0  0  0  0  0  0  0  0  0  0
    1.3860  -17.9500    1.7600 H   0  0  0  0  0  0  0  0  0  0  0  0
    0.6866  -13.7456    1.4025 H   0  0  0  0  0  0  0  0  0  0  0  0
  1  2  1  0
  2  3  1  0
  2  4  1  0
  4  5  1  0
  5  6  2  0
  6  7  1  0
  7  8  2  0
  8  9  1  0
  9 10  2  0
 10 11  1  0
 11 12  1  0
 12 13  1  0
 12 14  1  0
 14 15  1  0
 15 16  1  0
 16 17  2  0
 17 18  1  0
 18 19  2  0
 19 20  1  0
 19 21  1  0
 21 22  2  0
 22 23  1  0
 23 24  2  0
 23 25  1  0
 25 26  1  0
 26 27  2  0
 27 28  1  0
 28 29  2  0
 29 30  1  0
 30 31  1  0
 30 32  2  0
 11 33  1  0
 33 34  2  0
 34 35  1  0
 35 36  2  0
 36 37  1  0
 37 38  1  0
 37 39  2  0
  8 40  1  0
 40 41  2  0
 41 42  1  0
 41  5  1  0
 39  9  1  0
 25 14  2  0
 32 26  1  0
 39 33  1  0
 22 16  1  0
  1 43  1  0
  1 44  1  0
  1 45  1  0
  2 46  1  0
  3 47  1  0
  3 48  1  0
  3 49  1  0
  6 50  1  0
  7 51  1  0
 12 52  1  6
 13 53  1  0
 13 54  1  0
 13 55  1  0
 17 56  1  0
 18 57  1  0
 21 58  1  0
 27 59  1  0
 28 60  1  0
 29 61  1  0
 32 62  1  0
 35 63  1  0
 38 64  1  0
 38 65  1  0
 40 66  1  0
M  END
>  <meeko>  (4) 
{"is_sidechain": [false], "free_energy": -9.192, "intermolecular_energy": -12.447, "internal_energy": -1.775}

$$$$
LIB_IUVCFHHAEHNCFT__M_PUB_ALL__e8__s20260927
     RDKit          3D

 66 71  0  0  0  0  0  0  0  0999 V2000
   12.0300  -12.2000    0.4440 C   0  0  0  0  0  0  0  0  0  0  0  0
   13.1400  -11.5980   -0.4120 C   0  0  0  0  0  0  0  0  0  0  0  0
   13.7780  -10.4190    0.3210 C   0  0  0  0  0  0  0  0  0  0  0  0
   12.5880  -11.0760   -1.6240 O   0  0  0  0  0  0  0  0  0  0  0  0
   12.4920  -11.8820   -2.7240 C   0  0  0  0  0  0  0  0  0  0  0  0
   11.2060  -12.3850   -2.9440 C   0  0  0  0  0  0  0  0  0  0  0  0
   10.9420  -13.2320   -4.0240 C   0  0  0  0  0  0  0  0  0  0  0  0
   11.9710  -13.6040   -4.8970 C   0  0  0  0  0  0  0  0  0  0  0  0
   11.6920  -14.4830   -6.0260 C   0  0  0  0  0  0  0  0  0  0  0  0
   10.4200  -14.7040   -6.4020 N   0  0  0  0  0  0  0  0  0  0  0  0
   10.5300  -15.4910   -7.4990 N   0  0  0  0  0  0  0  0  0  0  0  0
    9.3440  -15.9210   -8.2470 C   0  0  1  0  0  0  0  0  0  0  0  0
    8.9610  -17.3790   -7.9590 C   0  0  0  0  0  0  0  0  0  0  0  0
    8.1660  -14.9830   -7.9890 C   0  0  0  0  0  0  0  0  0  0  0  0
    7.3810  -15.4080   -6.9220 O   0  0  0  0  0  0  0  0  0  0  0  0
    6.3150  -14.6500   -6.5250 C   0  0  0  0  0  0  0  0  0  0  0  0
    5.5950  -15.0990   -5.4170 C   0  0  0  0  0  0  0  0  0  0  0  0
    4.4930  -14.3710   -4.9670 C   0  0  0  0  0  0  0  0  0  0  0  0
    4.1230  -13.2030   -5.6300 C   0  0  0  0  0  0  0  0  0  0  0  0
    3.0650  -12.5080   -5.1950 F   0  0  0  0  0  0  0  0  0  0  0  0
    4.8340  -12.7490   -6.7330 C   0  0  0  0  0  0  0  0  0  0  0  0
    5.9370  -13.4830   -7.1770 C   0  0  0  0  0  0  0  0  0  0  0  0
    6.7180  -13.0410   -8.3370 C   0  0  0  0  0  0  0  0  0  0  0  0
    6.3970  -12.0350   -8.9590 O   0  0  0  0  0  0  0  0  0  0  0  0
    7.9020  -13.8700   -8.7100 C   0  0  0  0  0  0  0  0  0  0  0  0
    8.7310  -13.4470   -9.8490 C   0  0  0  0  0  0  0  0  0  0  0  0
    8.2130  -13.4780  -11.1530 C   0  0  0  0  0  0  0  0  0  0  0  0
    9.0080  -13.0980  -12.2370 C   0  0  0  0  0  0  0  0  0  0  0  0
   10.3230  -12.6880  -12.0250 C   0  0  0  0  0  0  0  0  0  0  0  0
   10.8300  -12.6540  -10.7310 C   0  0  0  0  0  0  0  0  0  0  0  0
   12.0960  -12.2650  -10.5300 F   0  0  0  0  0  0  0  0  0  0  0  0
   10.0490  -13.0250   -9.6430 C   0  0  0  0  0  0  0  0  0  0  0  0
   11.8260  -15.8090   -7.8070 C   0  0  0  0  0  0  0  0  0  0  0  0
   12.2460  -16.5740   -8.8290 N   0  0  0  0  0  0  0  0  0  0  0  0
   13.5820  -16.6910   -8.8360 C   0  0  0  0  0  0  0  0  0  0  0  0
   14.4620  -16.1580   -7.9680 N   0  0  0  0  0  0  0  0  0  0  0  0
   13.9960  -15.4020   -6.9510 C   0  0  0  0  0  0  0  0  0  0  0  0
   14.9330  -14.9190   -6.0700 N   0  0  0  0  0  0  0  0  0  0  0  0
   12.6140  -15.1870   -6.8550 C   0  0  0  0  0  0  0  0  0  0  0  0
   13.2570  -13.1010   -4.6850 C   0  0  0  0  0  0  0  0  0  0  0  0
   13.5110  -12.2540   -3.6030 C   0  0  0  0  0  0  0  0  0  0  0  0
   14.7730  -11.8330   -3.4420 F   0  0  0  0  0  0  0  0  0  0  0  0
   12.2748  -12.0673    1.5082 H   0  0  0  0  0  0  0  0  0  0  0  0
   11.0793  -11.6939    0.2205 H   0  0  0  0  0  0  0  0  0  0  0  0
   11.9356  -13.2729    0.2205 H   0  0  0  0  0  0  0  0  0  0  0  0
   13.8793  -12.3862   -0.6176 H   0  0  0  0  0  0  0  0  0  0  0  0
   13.6943  -10.5736    1.4069 H   0  0  0  0  0  0  0  0  0  0  0  0
   14.8394  -10.3447    0.0419 H   0  0  0  0  0  0  0  0  0  0  0  0
   13.2596   -9.4898    0.0419 H   0  0  0  0  0  0  0  0  0  0  0  0
   10.3912  -12.1104   -2.2579 H   0  0  0  0  0  0  0  0  0  0  0  0
    9.9214  -13.6078   -4.1886 H   0  0  0  0  0  0  0  0  0  0  0  0
    9.6051  -15.8682   -9.3143 H   0  0  0  0  0  0  0  0  0  0  0  0
    8.9189  -17.5391   -6.8715 H   0  0  0  0  0  0  0  0  0  0  0  0
    7.9761  -17.5933   -8.3995 H   0  0  0  0  0  0  0  0  0  0  0  0
    9.7134  -18.0496   -8.3995 H   0  0  0  0  0  0  0  0  0  0  0  0
    5.8950  -16.0228   -4.9007 H   0  0  0  0  0  0  0  0  0  0  0  0
    3.9200  -14.7172   -4.0942 H   0  0  0  0  0  0  0  0  0  0  0  0
    4.5334  -11.8254   -7.2494 H   0  0  0  0  0  0  0  0  0  0  0  0
    7.1759  -13.8031  -11.3223 H   0  0  0  0  0  0  0  0  0  0  0  0
    8.5965  -13.1224  -13.2568 H   0  0  0  0  0  0  0  0  0  0  0  0
   10.9553  -12.3934  -12.8755 H   0  0  0  0  0  0  0  0  0  0  0  0
   10.4648  -12.9871   -8.6253 H   0  0  0  0  0  0  0  0  0  0  0  0
   14.0103  -17.2954   -9.6491 H   0  0  0  0  0  0  0  0  0  0  0  0
   15.5460  -14.1530   -6.2930 H   0  0  0  0  0  0  0  0  0  0  0  0
   14.8740  -15.2680   -5.1230 H   0  0  0  0  0  0  0  0  0  0  0  0
   14.0721  -13.3725   -5.3719 H   0  0  0  0  0  0  0  0  0  0  0  0
  1  2  1  0
  2  3  1  0
  2  4  1  0
  4  5  1  0
  5  6  2  0
  6  7  1  0
  7  8  2  0
  8  9  1  0
  9 10  2  0
 10 11  1  0
 11 12  1  0
 12 13  1  0
 12 14  1  0
 14 15  1  0
 15 16  1  0
 16 17  2  0
 17 18  1  0
 18 19  2  0
 19 20  1  0
 19 21  1  0
 21 22  2  0
 22 23  1  0
 23 24  2  0
 23 25  1  0
 25 26  1  0
 26 27  2  0
 27 28  1  0
 28 29  2  0
 29 30  1  0
 30 31  1  0
 30 32  2  0
 11 33  1  0
 33 34  2  0
 34 35  1  0
 35 36  2  0
 36 37  1  0
 37 38  1  0
 37 39  2  0
  8 40  1  0
 40 41  2  0
 41 42  1  0
 41  5  1  0
 39  9  1  0
 25 14  2  0
 32 26  1  0
 39 33  1  0
 22 16  1  0
  1 43  1  0
  1 44  1  0
  1 45  1  0
  2 46  1  0
  3 47  1  0
  3 48  1  0
  3 49  1  0
  6 50  1  0
  7 51  1  0
 12 52  1  6
 13 53  1  0
 13 54  1  0
 13 55  1  0
 17 56  1  0
 18 57  1  0
 21 58  1  0
 27 59  1  0
 28 60  1  0
 29 61  1  0
 32 62  1  0
 35 63  1  0
 38 64  1  0
 38 65  1  0
 40 66  1  0
M  END
>  <meeko>  (5) 
{"is_sidechain": [false], "free_energy": -9.104, "intermolecular_energy": -13.199, "internal_energy": -0.903}

$$$$
LIB_IUVCFHHAEHNCFT__M_PUB_ALL__e8__s20260927
     RDKit          3D

 66 71  0  0  0  0  0  0  0  0999 V2000
    9.7810  -13.0470   -0.8010 C   0  0  0  0  0  0  0  0  0  0  0  0
    9.3650  -12.0710    0.2950 C   0  0  0  0  0  0  0  0  0  0  0  0
   10.5660  -11.7510    1.1850 C   0  0  0  0  0  0  0  0  0  0  0  0
    8.3820  -12.6780    1.1370 O   0  0  0  0  0  0  0  0  0  0  0  0
    7.1130  -12.8660    0.6640 C   0  0  0  0  0  0  0  0  0  0  0  0
    6.7600  -14.2110    0.5170 C   0  0  0  0  0  0  0  0  0  0  0  0
    5.4990  -14.5740    0.0360 C   0  0  0  0  0  0  0  0  0  0  0  0
    4.5710  -13.5900   -0.3210 C   0  0  0  0  0  0  0  0  0  0  0  0
    3.2530  -13.9700   -0.8160 C   0  0  0  0  0  0  0  0  0  0  0  0
    2.2950  -14.3410    0.0520 N   0  0  0  0  0  0  0  0  0  0  0  0
    1.2060  -14.5530   -0.7260 N   0  0  0  0  0  0  0  0  0  0  0  0
   -0.0830  -14.9330   -0.1400 C   0  0  1  0  0  0  0  0  0  0  0  0
   -0.5350  -16.3360   -0.5660 C   0  0  0  0  0  0  0  0  0  0  0  0
   -0.0490  -14.8070    1.3830 C   0  0  0  0  0  0  0  0  0  0  0  0
    0.3480  -15.9900    1.9980 O   0  0  0  0  0  0  0  0  0  0  0  0
    0.4820  -16.0300    3.3580 C   0  0  0  0  0  0  0  0  0  0  0  0
    0.9330  -17.2270    3.9160 C   0  0  0  0  0  0  0  0  0  0  0  0
    1.0860  -17.3320    5.2990 C   0  0  0  0  0  0  0  0  0  0  0  0
    0.7860  -16.2390    6.1080 C   0  0  0  0  0  0  0  0  0  0  0  0
    0.9330  -16.3440    7.4340 F   0  0  0  0  0  0  0  0  0  0  0  0
    0.3370  -15.0430    5.5620 C   0  0  0  0  0  0  0  0  0  0  0  0
    0.1880  -14.9470    4.1760 C   0  0  0  0  0  0  0  0  0  0  0  0
   -0.2820  -13.7040    3.5550 C   0  0  0  0  0  0  0  0  0  0  0  0
   -0.5840  -12.7370    4.2440 O   0  0  0  0  0  0  0  0  0  0  0  0
   -0.3710  -13.6840    2.0650 C   0  0  0  0  0  0  0  0  0  0  0  0
   -0.8100  -12.4490    1.3980 C   0  0  0  0  0  0  0  0  0  0  0  0
   -2.1720  -12.2250    1.1440 C   0  0  0  0  0  0  0  0  0  0  0  0
   -2.5870  -11.0630    0.4900 C   0  0  0  0  0  0  0  0  0  0  0  0
   -1.6440  -10.1190    0.0860 C   0  0  0  0  0  0  0  0  0  0  0  0
   -0.2960  -10.3430    0.3440 C   0  0  0  0  0  0  0  0  0  0  0  0
    0.6090   -9.4370   -0.0500 F   0  0  0  0  0  0  0  0  0  0  0  0
    0.1300  -11.4930    0.9970 C   0  0  0  0  0  0  0  0  0  0  0  0
    1.4520  -14.3680   -2.0600 C   0  0  0  0  0  0  0  0  0  0  0  0
    0.5740  -14.5110   -3.0680 N   0  0  0  0  0  0  0  0  0  0  0  0
    1.1470  -14.2620   -4.2550 C   0  0  0  0  0  0  0  0  0  0  0  0
    2.4260  -13.9200   -4.4990 N   0  0  0  0  0  0  0  0  0  0  0  0
    3.2770  -13.7960   -3.4570 C   0  0  0  0  0  0  0  0  0  0  0  0
    4.5800  -13.4890   -3.7660 N   0  0  0  0  0  0  0  0  0  0  0  0
    2.7840  -14.0070   -2.1620 C   0  0  0  0  0  0  0  0  0  0  0  0
    4.9150  -12.2440   -0.1710 C   0  0  0  0  0  0  0  0  0  0  0  0
    6.1780  -11.8920    0.3110 C   0  0  0  0  0  0  0  0  0  0  0  0
    6.4520  -10.5830    0.4010 F   0  0  0  0  0  0  0  0  0  0  0  0
   10.1732  -13.9671   -0.3431 H   0  0  0  0  0  0  0  0  0  0  0  0
    8.9087  -13.2910   -1.4251 H   0  0  0  0  0  0  0  0  0  0  0  0
   10.5611  -12.5867   -1.4251 H   0  0  0  0  0  0  0  0  0  0  0  0
    8.9714  -11.1632   -0.1856 H   0  0  0  0  0  0  0  0  0  0  0  0
   10.2706  -11.8297    2.2417 H   0  0  0  0  0  0  0  0  0  0  0  0
   11.3770  -12.4644    0.9769 H   0  0  0  0  0  0  0  0  0  0  0  0
   10.9145  -10.7287    0.9769 H   0  0  0  0  0  0  0  0  0  0  0  0
    7.4849  -14.9942    0.7836 H   0  0  0  0  0  0  0  0  0  0  0  0
    5.2353  -15.6374   -0.0622 H   0  0  0  0  0  0  0  0  0  0  0  0
   -0.8302  -14.2278   -0.5328 H   0  0  0  0  0  0  0  0  0  0  0  0
   -0.7313  -16.9453    0.3285 H   0  0  0  0  0  0  0  0  0  0  0  0
   -1.4537  -16.2588   -1.1660 H   0  0  0  0  0  0  0  0  0  0  0  0
    0.2560  -16.8097   -1.1660 H   0  0  0  0  0  0  0  0  0  0  0  0
    1.1670  -18.0845    3.2680 H   0  0  0  0  0  0  0  0  0  0  0  0
    1.4412  -18.2717    5.7471 H   0  0  0  0  0  0  0  0  0  0  0  0
    0.1026  -14.1857    6.2102 H   0  0  0  0  0  0  0  0  0  0  0  0
   -2.9171  -12.9692    1.4620 H   0  0  0  0  0  0  0  0  0  0  0  0
   -3.6559  -10.8929    0.2940 H   0  0  0  0  0  0  0  0  0  0  0  0
   -1.9640   -9.2035   -0.4331 H   0  0  0  0  0  0  0  0  0  0  0  0
    1.1999  -11.6511    1.1976 H   0  0  0  0  0  0  0  0  0  0  0  0
    0.4929  -14.3476   -5.1352 H   0  0  0  0  0  0  0  0  0  0  0  0
    5.1580  -14.0830   -4.3370 H   0  0  0  0  0  0  0  0  0  0  0  0
    4.8870  -12.5570   -3.5230 H   0  0  0  0  0  0  0  0  0  0  0  0
    4.1896  -11.4598   -0.4331 H   0  0  0  0  0  0  0  0  0  0  0  0
  1  2  1  0
  2  3  1  0
  2  4  1  0
  4  5  1  0
  5  6  2  0
  6  7  1  0
  7  8  2  0
  8  9  1  0
  9 10  2  0
 10 11  1  0
 11 12  1  0
 12 13  1  0
 12 14  1  0
 14 15  1  0
 15 16  1  0
 16 17  2  0
 17 18  1  0
 18 19  2  0
 19 20  1  0
 19 21  1  0
 21 22  2  0
 22 23  1  0
 23 24  2  0
 23 25  1  0
 25 26  1  0
 26 27  2  0
 27 28  1  0
 28 29  2  0
 29 30  1  0
 30 31  1  0
 30 32  2  0
 11 33  1  0
 33 34  2  0
 34 35  1  0
 35 36  2  0
 36 37  1  0
 37 38  1  0
 37 39  2  0
  8 40  1  0
 40 41  2  0
 41 42  1  0
 41  5  1  0
 39  9  1  0
 25 14  2  0
 32 26  1  0
 39 33  1  0
 22 16  1  0
  1 43  1  0
  1 44  1  0
  1 45  1  0
  2 46  1  0
  3 47  1  0
  3 48  1  0
  3 49  1  0
  6 50  1  0
  7 51  1  0
 12 52  1  6
 13 53  1  0
 13 54  1  0
 13 55  1  0
 17 56  1  0
 18 57  1  0
 21 58  1  0
 27 59  1  0
 28 60  1  0
 29 61  1  0
 32 62  1  0
 35 63  1  0
 38 64  1  0
 38 65  1  0
 40 66  1  0
M  END
>  <meeko>  (6) 
{"is_sidechain": [false], "free_energy": -9.095, "intermolecular_energy": -11.952, "internal_energy": -2.136}

$$$$
LIB_IUVCFHHAEHNCFT__M_PUB_ALL__e8__s20260927
     RDKit          3D

 66 71  0  0  0  0  0  0  0  0999 V2000
    7.7930  -15.5620  -10.0870 C   0  0  0  0  0  0  0  0  0  0  0  0
    6.7790  -14.4420   -9.8780 C   0  0  0  0  0  0  0  0  0  0  0  0
    6.7680  -13.5210  -11.0970 C   0  0  0  0  0  0  0  0  0  0  0  0
    7.1680  -13.6390   -8.7610 O   0  0  0  0  0  0  0  0  0  0  0  0
    6.4590  -13.7150   -7.5950 C   0  0  0  0  0  0  0  0  0  0  0  0
    5.5610  -12.6590   -7.4110 C   0  0  0  0  0  0  0  0  0  0  0  0
    4.7650  -12.5850   -6.2650 C   0  0  0  0  0  0  0  0  0  0  0  0
    4.8680  -13.5650   -5.2710 C   0  0  0  0  0  0  0  0  0  0  0  0
    4.0320  -13.4890   -4.0780 C   0  0  0  0  0  0  0  0  0  0  0  0
    2.7890  -14.0010   -4.1010 N   0  0  0  0  0  0  0  0  0  0  0  0
    2.3350  -13.8260   -2.8370 N   0  0  0  0  0  0  0  0  0  0  0  0
    1.0080  -14.3040   -2.4330 C   0  0  1  0  0  0  0  0  0  0  0  0
    0.1790  -14.8170   -3.6170 C   0  0  0  0  0  0  0  0  0  0  0  0
    1.1210  -15.3660   -1.3390 C   0  0  0  0  0  0  0  0  0  0  0  0
    2.1040  -16.3090   -1.6250 O   0  0  0  0  0  0  0  0  0  0  0  0
    2.3690  -17.3000   -0.7220 C   0  0  0  0  0  0  0  0  0  0  0  0
    3.3990  -18.1870   -1.0380 C   0  0  0  0  0  0  0  0  0  0  0  0
    3.7150  -19.2220   -0.1570 C   0  0  0  0  0  0  0  0  0  0  0  0
    2.9970  -19.3600    1.0280 C   0  0  0  0  0  0  0  0  0  0  0  0
    3.3020  -20.3550    1.8690 F   0  0  0  0  0  0  0  0  0  0  0  0
    1.9700  -18.4820    1.3510 C   0  0  0  0  0  0  0  0  0  0  0  0
    1.6610  -17.4470    0.4640 C   0  0  0  0  0  0  0  0  0  0  0  0
    0.5860  -16.4950    0.7640 C   0  0  0  0  0  0  0  0  0  0  0  0
   -0.0840  -16.6110    1.7830 O   0  0  0  0  0  0  0  0  0  0  0  0
    0.3570  -15.4010   -0.2240 C   0  0  0  0  0  0  0  0  0  0  0  0
   -0.6920  -14.4070    0.0500 C   0  0  0  0  0  0  0  0  0  0  0  0
   -2.0120  -14.6350   -0.3690 C   0  0  0  0  0  0  0  0  0  0  0  0
   -3.0030  -13.6810   -0.1290 C   0  0  0  0  0  0  0  0  0  0  0  0
   -2.6820  -12.4950    0.5300 C   0  0  0  0  0  0  0  0  0  0  0  0
   -1.3740  -12.2760    0.9470 C   0  0  0  0  0  0  0  0  0  0  0  0
   -1.0660  -11.1330    1.5750 F   0  0  0  0  0  0  0  0  0  0  0  0
   -0.3790  -13.2180    0.7180 C   0  0  0  0  0  0  0  0  0  0  0  0
    3.2320  -13.1840   -2.0260 C   0  0  0  0  0  0  0  0  0  0  0  0
    3.0620  -12.8660   -0.7310 N   0  0  0  0  0  0  0  0  0  0  0  0
    4.1360  -12.2320   -0.2380 C   0  0  0  0  0  0  0  0  0  0  0  0
    5.2720  -11.9060   -0.8840 N   0  0  0  0  0  0  0  0  0  0  0  0
    5.3970  -12.2380   -2.1870 C   0  0  0  0  0  0  0  0  0  0  0  0
    6.5560  -11.8430   -2.8080 N   0  0  0  0  0  0  0  0  0  0  0  0
    4.3460  -12.9280   -2.8060 C   0  0  0  0  0  0  0  0  0  0  0  0
    5.7590  -14.6260   -5.4520 C   0  0  0  0  0  0  0  0  0  0  0  0
    6.5490  -14.6910   -6.6010 C   0  0  0  0  0  0  0  0  0  0  0  0
    7.4040  -15.7190   -6.6950 F   0  0  0  0  0  0  0  0  0  0  0  0
    8.1321  -15.9366   -9.1099 H   0  0  0  0  0  0  0  0  0  0  0  0
    7.3233  -16.3814  -10.6509 H   0  0  0  0  0  0  0  0  0  0  0  0
    8.6549  -15.1758  -10.6509 H   0  0  0  0  0  0  0  0  0  0  0  0
    5.7917  -14.8988   -9.7149 H   0  0  0  0  0  0  0  0  0  0  0  0
    6.7555  -12.4726  -10.7643 H   0  0  0  0  0  0  0  0  0  0  0  0
    7.6684  -13.7029  -11.7022 H   0  0  0  0  0  0  0  0  0  0  0  0
    5.8722  -13.7244  -11.7022 H   0  0  0  0  0  0  0  0  0  0  0  0
    5.4801  -11.8757   -8.1791 H   0  0  0  0  0  0  0  0  0  0  0  0
    4.0550  -11.7537   -6.1436 H   0  0  0  0  0  0  0  0  0  0  0  0
    0.4683  -13.4371   -2.0241 H   0  0  0  0  0  0  0  0  0  0  0  0
   -0.7000  -15.3609   -3.2408 H   0  0  0  0  0  0  0  0  0  0  0  0
   -0.1514  -13.9653   -4.2297 H   0  0  0  0  0  0  0  0  0  0  0  0
    0.7938  -15.4927   -4.2297 H   0  0  0  0  0  0  0  0  0  0  0  0
    3.9593  -18.0708   -1.9774 H   0  0  0  0  0  0  0  0  0  0  0  0
    4.5265  -19.9247   -0.3972 H   0  0  0  0  0  0  0  0  0  0  0  0
    1.4090  -18.5995    2.2898 H   0  0  0  0  0  0  0  0  0  0  0  0
   -2.2672  -15.5701   -0.8891 H   0  0  0  0  0  0  0  0  0  0  0  0
   -4.0359  -13.8650   -0.4595 H   0  0  0  0  0  0  0  0  0  0  0  0
   -3.4578  -11.7383    0.7185 H   0  0  0  0  0  0  0  0  0  0  0  0
    0.6495  -13.0302    1.0600 H   0  0  0  0  0  0  0  0  0  0  0  0
    4.0827  -11.9433    0.8221 H   0  0  0  0  0  0  0  0  0  0  0  0
    7.1050  -11.0610   -2.4910 H   0  0  0  0  0  0  0  0  0  0  0  0
    6.9210  -12.4720   -3.5110 H   0  0  0  0  0  0  0  0  0  0  0  0
    5.8381  -15.4123   -4.6869 H   0  0  0  0  0  0  0  0  0  0  0  0
  1  2  1  0
  2  3  1  0
  2  4  1  0
  4  5  1  0
  5  6  2  0
  6  7  1  0
  7  8  2  0
  8  9  1  0
  9 10  2  0
 10 11  1  0
 11 12  1  0
 12 13  1  0
 12 14  1  0
 14 15  1  0
 15 16  1  0
 16 17  2  0
 17 18  1  0
 18 19  2  0
 19 20  1  0
 19 21  1  0
 21 22  2  0
 22 23  1  0
 23 24  2  0
 23 25  1  0
 25 26  1  0
 26 27  2  0
 27 28  1  0
 28 29  2  0
 29 30  1  0
 30 31  1  0
 30 32  2  0
 11 33  1  0
 33 34  2  0
 34 35  1  0
 35 36  2  0
 36 37  1  0
 37 38  1  0
 37 39  2  0
  8 40  1  0
 40 41  2  0
 41 42  1  0
 41  5  1  0
 39  9  1  0
 25 14  2  0
 32 26  1  0
 39 33  1  0
 22 16  1  0
  1 43  1  0
  1 44  1  0
  1 45  1  0
  2 46  1  0
  3 47  1  0
  3 48  1  0
  3 49  1  0
  6 50  1  0
  7 51  1  0
 12 52  1  1
 13 53  1  0
 13 54  1  0
 13 55  1  0
 17 56  1  0
 18 57  1  0
 21 58  1  0
 27 59  1  0
 28 60  1  0
 29 61  1  0
 32 62  1  0
 35 63  1  0
 38 64  1  0
 38 65  1  0
 40 66  1  0
M  END
>  <meeko>  (7) 
{"is_sidechain": [false], "free_energy": -9.094, "intermolecular_energy": -11.931, "internal_energy": -2.155}

$$$$
LIB_IUVCFHHAEHNCFT__M_PUB_ALL__e8__s20260927
     RDKit          3D

 66 71  0  0  0  0  0  0  0  0999 V2000
   10.7280  -11.7870    0.9320 C   0  0  0  0  0  0  0  0  0  0  0  0
    9.6210  -12.5030    0.1650 C   0  0  0  0  0  0  0  0  0  0  0  0
    9.9830  -12.5770   -1.3180 C   0  0  0  0  0  0  0  0  0  0  0  0
    8.4070  -11.7510    0.2530 O   0  0  0  0  0  0  0  0  0  0  0  0
    7.2160  -12.4070    0.3850 C   0  0  0  0  0  0  0  0  0  0  0  0
    7.1040  -13.1390    1.5710 C   0  0  0  0  0  0  0  0  0  0  0  0
    5.9490  -13.8740    1.8560 C   0  0  0  0  0  0  0  0  0  0  0  0
    4.8880  -13.9000    0.9440 C   0  0  0  0  0  0  0  0  0  0  0  0
    3.6820  -14.6620    1.2450 C   0  0  0  0  0  0  0  0  0  0  0  0
    2.9530  -14.3560    2.3330 N   0  0  0  0  0  0  0  0  0  0  0  0
    1.8920  -15.1950    2.2690 N   0  0  0  0  0  0  0  0  0  0  0  0
    0.8190  -15.1420    3.2680 C   0  0  1  0  0  0  0  0  0  0  0  0
    1.3140  -14.6660    4.6400 C   0  0  0  0  0  0  0  0  0  0  0  0
   -0.3440  -14.2820    2.7740 C   0  0  0  0  0  0  0  0  0  0  0  0
    0.0820  -13.0420    2.3080 O   0  0  0  0  0  0  0  0  0  0  0  0
   -0.8300  -12.1710    1.7810 C   0  0  0  0  0  0  0  0  0  0  0  0
   -0.3380  -10.9630    1.2830 C   0  0  0  0  0  0  0  0  0  0  0  0
   -1.2210  -10.0310    0.7360 C   0  0  0  0  0  0  0  0  0  0  0  0
   -2.5830  -10.3150    0.6950 C   0  0  0  0  0  0  0  0  0  0  0  0
   -3.4260   -9.4170    0.1700 F   0  0  0  0  0  0  0  0  0  0  0  0
   -3.0810  -11.5140    1.1890 C   0  0  0  0  0  0  0  0  0  0  0  0
   -2.1900  -12.4430    1.7330 C   0  0  0  0  0  0  0  0  0  0  0  0
   -2.6710  -13.7230    2.2660 C   0  0  0  0  0  0  0  0  0  0  0  0
   -3.8670  -13.9870    2.2720 O   0  0  0  0  0  0  0  0  0  0  0  0
   -1.6400  -14.6660    2.7900 C   0  0  0  0  0  0  0  0  0  0  0  0
   -2.0740  -15.9730    3.3060 C   0  0  0  0  0  0  0  0  0  0  0  0
   -2.2660  -17.0530    2.4300 C   0  0  0  0  0  0  0  0  0  0  0  0
   -2.7000  -18.2880    2.9180 C   0  0  0  0  0  0  0  0  0  0  0  0
   -2.9460  -18.4510    4.2800 C   0  0  0  0  0  0  0  0  0  0  0  0
   -2.7500  -17.3790    5.1450 C   0  0  0  0  0  0  0  0  0  0  0  0
   -2.9910  -17.5350    6.4530 F   0  0  0  0  0  0  0  0  0  0  0  0
   -2.3140  -16.1460    4.6730 C   0  0  0  0  0  0  0  0  0  0  0  0
    1.9440  -16.0500    1.2000 C   0  0  0  0  0  0  0  0  0  0  0  0
    1.0430  -16.9940    0.8800 N   0  0  0  0  0  0  0  0  0  0  0  0
    1.4060  -17.6620   -0.2250 C   0  0  0  0  0  0  0  0  0  0  0  0
    2.5120  -17.4850   -0.9710 N   0  0  0  0  0  0  0  0  0  0  0  0
    3.3960  -16.5300   -0.6090 C   0  0  0  0  0  0  0  0  0  0  0  0
    4.5280  -16.4210   -1.3790 N   0  0  0  0  0  0  0  0  0  0  0  0
    3.1100  -15.7480    0.5190 C   0  0  0  0  0  0  0  0  0  0  0  0
    4.9910  -13.1660   -0.2410 C   0  0  0  0  0  0  0  0  0  0  0  0
    6.1490  -12.4350   -0.5150 C   0  0  0  0  0  0  0  0  0  0  0  0
    6.1920  -11.7790   -1.6840 F   0  0  0  0  0  0  0  0  0  0  0  0
   10.5562  -11.8981    2.0128 H   0  0  0  0  0  0  0  0  0  0  0  0
   11.7009  -12.2274    0.6682 H   0  0  0  0  0  0  0  0  0  0  0  0
   10.7253  -10.7191    0.6682 H   0  0  0  0  0  0  0  0  0  0  0  0
    9.4999  -13.5078    0.5959 H   0  0  0  0  0  0  0  0  0  0  0  0
   11.0558  -12.7963   -1.4231 H   0  0  0  0  0  0  0  0  0  0  0  0
    9.3970  -13.3739   -1.7992 H   0  0  0  0  0  0  0  0  0  0  0  0
    9.7568  -11.6140   -1.7992 H   0  0  0  0  0  0  0  0  0  0  0  0
    7.9363  -13.1367    2.2902 H   0  0  0  0  0  0  0  0  0  0  0  0
    5.8742  -14.4335    2.8001 H   0  0  0  0  0  0  0  0  0  0  0  0
    0.4581  -16.1722    3.4034 H   0  0  0  0  0  0  0  0  0  0  0  0
    0.7638  -15.1951    5.4321 H   0  0  0  0  0  0  0  0  0  0  0  0
    2.3891  -14.8782    4.7358 H   0  0  0  0  0  0  0  0  0  0  0  0
    1.1440  -13.5834    4.7358 H   0  0  0  0  0  0  0  0  0  0  0  0
    0.7399  -10.7470    1.3216 H   0  0  0  0  0  0  0  0  0  0  0  0
   -0.8427   -9.0772    0.3394 H   0  0  0  0  0  0  0  0  0  0  0  0
   -4.1592  -11.7287    1.1526 H   0  0  0  0  0  0  0  0  0  0  0  0
   -2.0738  -16.9263    1.3544 H   0  0  0  0  0  0  0  0  0  0  0  0
   -2.8475  -19.1314    2.2274 H   0  0  0  0  0  0  0  0  0  0  0  0
   -3.2926  -19.4201    4.6683 H   0  0  0  0  0  0  0  0  0  0  0  0
   -2.1585  -15.3105    5.3714 H   0  0  0  0  0  0  0  0  0  0  0  0
    0.7163  -18.4498   -0.5622 H   0  0  0  0  0  0  0  0  0  0  0  0
    4.9510  -15.5360   -1.6030 H   0  0  0  0  0  0  0  0  0  0  0  0
    5.0120  -17.2850   -1.5820 H   0  0  0  0  0  0  0  0  0  0  0  0
    4.1580  -13.1641   -0.9594 H   0  0  0  0  0  0  0  0  0  0  0  0
  1  2  1  0
  2  3  1  0
  2  4  1  0
  4  5  1  0
  5  6  2  0
  6  7  1  0
  7  8  2  0
  8  9  1  0
  9 10  2  0
 10 11  1  0
 11 12  1  0
 12 13  1  0
 12 14  1  0
 14 15  1  0
 15 16  1  0
 16 17  2  0
 17 18  1  0
 18 19  2  0
 19 20  1  0
 19 21  1  0
 21 22  2  0
 22 23  1  0
 23 24  2  0
 23 25  1  0
 25 26  1  0
 26 27  2  0
 27 28  1  0
 28 29  2  0
 29 30  1  0
 30 31  1  0
 30 32  2  0
 11 33  1  0
 33 34  2  0
 34 35  1  0
 35 36  2  0
 36 37  1  0
 37 38  1  0
 37 39  2  0
  8 40  1  0
 40 41  2  0
 41 42  1  0
 41  5  1  0
 39  9  1  0
 25 14  2  0
 32 26  1  0
 39 33  1  0
 22 16  1  0
  1 43  1  0
  1 44  1  0
  1 45  1  0
  2 46  1  0
  3 47  1  0
  3 48  1  0
  3 49  1  0
  6 50  1  0
  7 51  1  0
 12 52  1  1
 13 53  1  0
 13 54  1  0
 13 55  1  0
 17 56  1  0
 18 57  1  0
 21 58  1  0
 27 59  1  0
 28 60  1  0
 29 61  1  0
 32 62  1  0
 35 63  1  0
 38 64  1  0
 38 65  1  0
 40 66  1  0
M  END
>  <meeko>  (8) 
{"is_sidechain": [false], "free_energy": -9.06, "intermolecular_energy": -11.892, "internal_energy": -2.148}

$$$$
LIB_IUVCFHHAEHNCFT__M_PUB_ALL__e8__s20260927
     RDKit          3D

 66 71  0  0  0  0  0  0  0  0999 V2000
   -3.0340  -11.7730    2.3750 C   0  0  0  0  0  0  0  0  0  0  0  0
   -1.7100  -11.0590    2.1210 C   0  0  0  0  0  0  0  0  0  0  0  0
   -1.9010   -9.5500    2.2650 C   0  0  0  0  0  0  0  0  0  0  0  0
   -1.2850  -11.2920    0.7760 O   0  0  0  0  0  0  0  0  0  0  0  0
    0.0070  -11.6630    0.5310 C   0  0  0  0  0  0  0  0  0  0  0  0
    0.4220  -12.7790    1.2650 C   0  0  0  0  0  0  0  0  0  0  0  0
    1.7210  -13.2810    1.1370 C   0  0  0  0  0  0  0  0  0  0  0  0
    2.6340  -12.6610    0.2770 C   0  0  0  0  0  0  0  0  0  0  0  0
    3.9860  -13.1890    0.1380 C   0  0  0  0  0  0  0  0  0  0  0  0
    4.1920  -14.3240   -0.5540 N   0  0  0  0  0  0  0  0  0  0  0  0
    5.5370  -14.4820   -0.5410 N   0  0  0  0  0  0  0  0  0  0  0  0
    6.1780  -15.5980   -1.2430 C   0  0  1  0  0  0  0  0  0  0  0  0
    5.3450  -16.8860   -1.1890 C   0  0  0  0  0  0  0  0  0  0  0  0
    6.5070  -15.2170   -2.6860 C   0  0  0  0  0  0  0  0  0  0  0  0
    5.4230  -14.6350   -3.3350 O   0  0  0  0  0  0  0  0  0  0  0  0
    5.5670  -14.1870   -4.6180 C   0  0  0  0  0  0  0  0  0  0  0  0
    4.4610  -13.5660   -5.2010 C   0  0  0  0  0  0  0  0  0  0  0  0
    4.5450  -13.0910   -6.5110 C   0  0  0  0  0  0  0  0  0  0  0  0
    5.7310  -13.2450   -7.2230 C   0  0  0  0  0  0  0  0  0  0  0  0
    5.8070  -12.7890   -8.4790 F   0  0  0  0  0  0  0  0  0  0  0  0
    6.8360  -13.8620   -6.6510 C   0  0  0  0  0  0  0  0  0  0  0  0
    6.7450  -14.3330   -5.3390 C   0  0  0  0  0  0  0  0  0  0  0  0
    7.8870  -14.9900   -4.6940 C   0  0  0  0  0  0  0  0  0  0  0  0
    8.9330  -15.1680   -5.3070 O   0  0  0  0  0  0  0  0  0  0  0  0
    7.7060  -15.4230   -3.2780 C   0  0  0  0  0  0  0  0  0  0  0  0
    8.8350  -16.0600   -2.5820 C   0  0  0  0  0  0  0  0  0  0  0  0
    9.0000  -17.4530   -2.6280 C   0  0  0  0  0  0  0  0  0  0  0  0
   10.0590  -18.0600   -1.9480 C   0  0  0  0  0  0  0  0  0  0  0  0
   10.9560  -17.2800   -1.2200 C   0  0  0  0  0  0  0  0  0  0  0  0
   10.7910  -15.9000   -1.1820 C   0  0  0  0  0  0  0  0  0  0  0  0
   11.6510  -15.1530   -0.4780 F   0  0  0  0  0  0  0  0  0  0  0  0
    9.7440  -15.2830   -1.8570 C   0  0  0  0  0  0  0  0  0  0  0  0
    6.1870  -13.5090    0.1710 C   0  0  0  0  0  0  0  0  0  0  0  0
    7.5120  -13.4050    0.3670 N   0  0  0  0  0  0  0  0  0  0  0  0
    7.8130  -12.3380    1.1210 C   0  0  0  0  0  0  0  0  0  0  0  0
    6.9650  -11.4430    1.6610 N   0  0  0  0  0  0  0  0  0  0  0  0
    5.6400  -11.5890    1.4460 C   0  0  0  0  0  0  0  0  0  0  0  0
    4.8170  -10.6750    2.0570 N   0  0  0  0  0  0  0  0  0  0  0  0
    5.2060  -12.6580    0.6490 C   0  0  0  0  0  0  0  0  0  0  0  0
    2.2240  -11.5490   -0.4640 C   0  0  0  0  0  0  0  0  0  0  0  0
    0.9250  -11.0560   -0.3290 C   0  0  0  0  0  0  0  0  0  0  0  0
    0.6080   -9.9690   -1.0460 F   0  0  0  0  0  0  0  0  0  0  0  0
   -3.2002  -11.8626    3.4587 H   0  0  0  0  0  0  0  0  0  0  0  0
   -3.8545  -11.1951    1.9247 H   0  0  0  0  0  0  0  0  0  0  0  0
   -3.0019  -12.7761    1.9247 H   0  0  0  0  0  0  0  0  0  0  0  0
   -0.9715  -11.4377    2.8430 H   0  0  0  0  0  0  0  0  0  0  0  0
   -1.9346   -9.2848    3.3320 H   0  0  0  0  0  0  0  0  0  0  0  0
   -1.0619   -9.0266    1.7833 H   0  0  0  0  0  0  0  0  0  0  0  0
   -2.8440   -9.2521    1.7833 H   0  0  0  0  0  0  0  0  0  0  0  0
   -0.2833  -13.2687    1.9526 H   0  0  0  0  0  0  0  0  0  0  0  0
    2.0260  -14.1662    1.7144 H   0  0  0  0  0  0  0  0  0  0  0  0
    7.1189  -15.8089   -0.7137 H   0  0  0  0  0  0  0  0  0  0  0  0
    5.1658  -17.1631   -0.1397 H   0  0  0  0  0  0  0  0  0  0  0  0
    4.3819  -16.7213   -1.6943 H   0  0  0  0  0  0  0  0  0  0  0  0
    5.8903  -17.6968   -1.6943 H   0  0  0  0  0  0  0  0  0  0  0  0
    3.5274  -13.4515   -4.6307 H   0  0  0  0  0  0  0  0  0  0  0  0
    3.6793  -12.5981   -6.9776 H   0  0  0  0  0  0  0  0  0  0  0  0
    7.7687  -13.9780   -7.2224 H   0  0  0  0  0  0  0  0  0  0  0  0
    8.2925  -18.0696   -3.2019 H   0  0  0  0  0  0  0  0  0  0  0  0
   10.1847  -19.1521   -1.9871 H   0  0  0  0  0  0  0  0  0  0  0  0
   11.7889  -17.7531   -0.6792 H   0  0  0  0  0  0  0  0  0  0  0  0
    9.6311  -14.1894   -1.8210 H   0  0  0  0  0  0  0  0  0  0  0  0
    8.8819  -12.1743    1.3226 H   0  0  0  0  0  0  0  0  0  0  0  0
    5.1650   -9.8430    2.5020 H   0  0  0  0  0  0  0  0  0  0  0  0
    3.8250  -10.7960    1.9030 H   0  0  0  0  0  0  0  0  0  0  0  0
    2.9268  -11.0611   -1.1554 H   0  0  0  0  0  0  0  0  0  0  0  0
  1  2  1  0
  2  3  1  0
  2  4  1  0
  4  5  1  0
  5  6  2  0
  6  7  1  0
  7  8  2  0
  8  9  1  0
  9 10  2  0
 10 11  1  0
 11 12  1  0
 12 13  1  0
 12 14  1  0
 14 15  1  0
 15 16  1  0
 16 17  2  0
 17 18  1  0
 18 19  2  0
 19 20  1  0
 19 21  1  0
 21 22  2  0
 22 23  1  0
 23 24  2  0
 23 25  1  0
 25 26  1  0
 26 27  2  0
 27 28  1  0
 28 29  2  0
 29 30  1  0
 30 31  1  0
 30 32  2  0
 11 33  1  0
 33 34  2  0
 34 35  1  0
 35 36  2  0
 36 37  1  0
 37 38  1  0
 37 39  2  0
  8 40  1  0
 40 41  2  0
 41 42  1  0
 41  5  1  0
 39  9  1  0
 25 14  2  0
 32 26  1  0
 39 33  1  0
 22 16  1  0
  1 43  1  0
  1 44  1  0
  1 45  1  0
  2 46  1  0
  3 47  1  0
  3 48  1  0
  3 49  1  0
  6 50  1  0
  7 51  1  0
 12 52  1  1
 13 53  1  0
 13 54  1  0
 13 55  1  0
 17 56  1  0
 18 57  1  0
 21 58  1  0
 27 59  1  0
 28 60  1  0
 29 61  1  0
 32 62  1  0
 35 63  1  0
 38 64  1  0
 38 65  1  0
 40 66  1  0
M  END
>  <meeko>  (9) 
{"is_sidechain": [false], "free_energy": -8.934, "intermolecular_energy": -11.689, "internal_energy": -2.178}

$$$$
