LIB_RFPTXMLFYMYJSO__M_PUB_ALL__e8__s20260927
     RDKit          3D

 53 56  0  0  0  0  0  0  0  0999 V2000
    7.2700   -6.7570    4.8860 N   0  0  0  0  0  0  0  0  0  0  0  0
    7.3780   -6.9260    3.7430 C   0  0  0  0  0  0  0  0  0  0  0  0
    7.5770   -7.1390    2.3110 C   0  0  0  0  0  0  0  0  0  0  0  0
    6.9360   -8.4400    1.8840 C   0  0  0  0  0  0  0  0  0  0  0  0
    5.8830   -8.8090    2.3960 O   0  0  0  0  0  0  0  0  0  0  0  0
    7.6470   -9.1050    0.8960 N   0  0  0  0  0  0  0  0  0  0  0  0
    7.3000  -10.3150    0.2590 C   0  0  0  0  0  0  0  0  0  0  0  0
    7.4710  -11.5770    0.8250 C   0  0  0  0  0  0  0  0  0  0  0  0
    7.0960  -12.7330    0.1240 C   0  0  0  0  0  0  0  0  0  0  0  0
    6.5410  -12.6640   -1.1650 C   0  0  0  0  0  0  0  0  0  0  0  0
    6.1450  -13.8720   -1.9200 C   0  0  0  0  0  0  0  0  0  0  0  0
    6.0960  -15.1290   -1.3550 C   0  0  0  0  0  0  0  0  0  0  0  0
    5.7200  -16.1500   -2.1910 C   0  0  0  0  0  0  0  0  0  0  0  0
    5.4110  -15.9740   -3.4860 N   0  0  0  0  0  0  0  0  0  0  0  0
    5.4810  -14.7230   -3.9680 C   0  0  0  0  0  0  0  0  0  0  0  0
    5.1610  -14.5970   -5.3160 N   0  0  0  0  0  0  0  0  0  0  0  0
    5.8550  -14.1520   -6.4420 C   0  0  0  0  0  0  0  0  0  0  0  0
    6.8770  -14.8640   -7.0650 C   0  0  0  0  0  0  0  0  0  0  0  0
    7.5260  -14.3650   -8.2060 C   0  0  0  0  0  0  0  0  0  0  0  0
    7.1860  -13.1340   -8.7830 C   0  0  0  0  0  0  0  0  0  0  0  0
    7.8270  -12.6460   -9.9050 N   0  0  0  0  0  0  0  0  0  0  0  0
    7.2250  -11.6130  -10.7610 C   0  0  0  0  0  0  0  0  0  0  0  0
    8.3270  -10.8140  -11.4770 C   0  0  0  0  0  0  0  0  0  0  0  0
    9.1890  -11.6100  -12.3020 O   0  0  0  0  0  0  0  0  0  0  0  0
    9.3220  -12.9630  -11.8410 C   0  0  0  0  0  0  0  0  0  0  0  0
    9.1530  -13.1300  -10.3210 C   0  0  0  0  0  0  0  0  0  0  0  0
    6.1550  -12.4280   -8.1510 C   0  0  0  0  0  0  0  0  0  0  0  0
    5.5030  -12.9240   -7.0100 C   0  0  0  0  0  0  0  0  0  0  0  0
    5.8450  -13.6710   -3.2230 N   0  0  0  0  0  0  0  0  0  0  0  0
    6.3670  -11.3840   -1.7160 C   0  0  0  0  0  0  0  0  0  0  0  0
    6.7420  -10.2290   -1.0190 C   0  0  0  0  0  0  0  0  0  0  0  0
    7.1204   -6.3083    1.7529 H   0  0  0  0  0  0  0  0  0  0  0  0
    8.6558   -7.1837    2.1007 H   0  0  0  0  0  0  0  0  0  0  0  0
    8.5290   -8.7030    0.6010 H   0  0  0  0  0  0  0  0  0  0  0  0
    7.9045  -11.6677    1.8319 H   0  0  0  0  0  0  0  0  0  0  0  0
    7.2399  -13.7167    0.5947 H   0  0  0  0  0  0  0  0  0  0  0  0
    6.3435  -15.3028   -0.2974 H   0  0  0  0  0  0  0  0  0  0  0  0
    5.6689  -17.1682   -1.7779 H   0  0  0  0  0  0  0  0  0  0  0  0
    4.2040  -14.8880   -5.4510 H   0  0  0  0  0  0  0  0  0  0  0  0
    7.1823  -15.8379   -6.6546 H   0  0  0  0  0  0  0  0  0  0  0  0
    8.3295  -14.9614   -8.6629 H   0  0  0  0  0  0  0  0  0  0  0  0
    6.5778  -12.0926  -11.5101 H   0  0  0  0  0  0  0  0  0  0  0  0
    6.6309  -10.9289  -10.1372 H   0  0  0  0  0  0  0  0  0  0  0  0
    7.8459  -10.0554  -12.1119 H   0  0  0  0  0  0  0  0  0  0  0  0
    8.9592  -10.3739  -10.6917 H   0  0  0  0  0  0  0  0  0  0  0  0
    8.5580  -13.5752  -12.3425 H   0  0  0  0  0  0  0  0  0  0  0  0
   10.3473  -13.2801  -12.0821 H   0  0  0  0  0  0  0  0  0  0  0  0
    9.2512  -14.1937  -10.0584 H   0  0  0  0  0  0  0  0  0  0  0  0
    9.9287  -12.5448   -9.8054 H   0  0  0  0  0  0  0  0  0  0  0  0
    5.8462  -11.4550   -8.5607 H   0  0  0  0  0  0  0  0  0  0  0  0
    4.6964  -12.3322   -6.5526 H   0  0  0  0  0  0  0  0  0  0  0  0
    5.9257  -11.2865   -2.7189 H   0  0  0  0  0  0  0  0  0  0  0  0
    6.5956   -9.2425   -1.4830 H   0  0  0  0  0  0  0  0  0  0  0  0
  1  2  3  0
  2  3  1  0
  3  4  1  0
  4  5  2  0
  4  6  1  0
  6  7  1  0
  7  8  2  0
  8  9  1  0
  9 10  2  0
 10 11  1  0
 11 12  2  0
 12 13  1  0
 13 14  2  0
 14 15  1  0
 15 16  1  0
 16 17  1  0
 17 18  2  0
 18 19  1  0
 19 20  2  0
 20 21  1  0
 21 22  1  0
 22 23  1  0
 23 24  1  0
 24 25  1  0
 25 26  1  0
 20 27  1  0
 27 28  2  0
 15 29  2  0
 10 30  1  0
 30 31  2  0
 31  7  1  0
 29 11  1  0
 28 17  1  0
 26 21  1  0
  3 32  1  0
  3 33  1  0
  6 34  1  0
  8 35  1  0
  9 36  1  0
 12 37  1  0
 13 38  1  0
 16 39  1  0
 18 40  1  0
 19 41  1  0
 22 42  1  0
 22 43  1  0
 23 44  1  0
 23 45  1  0
 25 46  1  0
 25 47  1  0
 26 48  1  0
 26 49  1  0
 27 50  1  0
 28 51  1  0
 30 52  1  0
 31 53  1  0
M  END
>  <meeko>  (1) 
{"is_sidechain": [false], "free_energy": -8.331, "intermolecular_energy": -11.253, "internal_energy": -0.913}

$$$$
LIB_RFPTXMLFYMYJSO__M_PUB_ALL__e8__s20260927
     RDKit          3D

 53 56  0  0  0  0  0  0  0  0999 V2000
   16.3740  -15.7880   -7.7950 N   0  0  0  0  0  0  0  0  0  0  0  0
   15.2550  -15.5780   -8.0160 C   0  0  0  0  0  0  0  0  0  0  0  0
   13.8330  -15.3760   -8.2890 C   0  0  0  0  0  0  0  0  0  0  0  0
   13.2260  -14.4710   -7.2410 C   0  0  0  0  0  0  0  0  0  0  0  0
   12.2180  -13.8170   -7.4960 O   0  0  0  0  0  0  0  0  0  0  0  0
   13.9100  -14.4900   -6.0340 N   0  0  0  0  0  0  0  0  0  0  0  0
   13.5810  -13.7920   -4.8530 C   0  0  0  0  0  0  0  0  0  0  0  0
   14.2560  -12.6620   -4.3940 C   0  0  0  0  0  0  0  0  0  0  0  0
   13.8610  -12.0260   -3.2080 C   0  0  0  0  0  0  0  0  0  0  0  0
   12.7820  -12.4990   -2.4420 C   0  0  0  0  0  0  0  0  0  0  0  0
   12.3570  -11.8430   -1.1870 C   0  0  0  0  0  0  0  0  0  0  0  0
   13.0780  -10.8340   -0.5840 C   0  0  0  0  0  0  0  0  0  0  0  0
   12.5560  -10.3360    0.5820 C   0  0  0  0  0  0  0  0  0  0  0  0
   11.4140  -10.7780    1.1340 N   0  0  0  0  0  0  0  0  0  0  0  0
   10.7650  -11.7620    0.4920 C   0  0  0  0  0  0  0  0  0  0  0  0
    9.5930  -12.1910    1.1090 N   0  0  0  0  0  0  0  0  0  0  0  0
    8.2450  -12.1830    0.7470 C   0  0  0  0  0  0  0  0  0  0  0  0
    7.3120  -11.2650    1.2220 C   0  0  0  0  0  0  0  0  0  0  0  0
    5.9710  -11.3030    0.8030 C   0  0  0  0  0  0  0  0  0  0  0  0
    5.4980  -12.2550   -0.1090 C   0  0  0  0  0  0  0  0  0  0  0  0
    4.1790  -12.2890   -0.5170 N   0  0  0  0  0  0  0  0  0  0  0  0
    3.7960  -12.1870   -1.9330 C   0  0  0  0  0  0  0  0  0  0  0  0
    2.4470  -12.8870   -2.1670 C   0  0  0  0  0  0  0  0  0  0  0  0
    1.3660  -12.3540   -1.3880 O   0  0  0  0  0  0  0  0  0  0  0  0
    1.7940  -11.7870   -0.1410 C   0  0  0  0  0  0  0  0  0  0  0  0
    3.0680  -12.4260    0.4380 C   0  0  0  0  0  0  0  0  0  0  0  0
    6.4460  -13.1710   -0.5830 C   0  0  0  0  0  0  0  0  0  0  0  0
    7.7870  -13.1360   -0.1680 C   0  0  0  0  0  0  0  0  0  0  0  0
   11.2080  -12.3100   -0.6480 N   0  0  0  0  0  0  0  0  0  0  0  0
   12.1080  -13.6330   -2.9240 C   0  0  0  0  0  0  0  0  0  0  0  0
   12.5000  -14.2710   -4.1070 C   0  0  0  0  0  0  0  0  0  0  0  0
   13.7149  -14.9147   -9.2806 H   0  0  0  0  0  0  0  0  0  0  0  0
   13.3202  -16.3489   -8.2652 H   0  0  0  0  0  0  0  0  0  0  0  0
   14.7570  -15.0430   -5.9830 H   0  0  0  0  0  0  0  0  0  0  0  0
   15.1067  -12.2653   -4.9675 H   0  0  0  0  0  0  0  0  0  0  0  0
   14.4095  -11.1348   -2.8690 H   0  0  0  0  0  0  0  0  0  0  0  0
   14.0160  -10.4515   -1.0128 H   0  0  0  0  0  0  0  0  0  0  0  0
   13.1026   -9.5301    1.0936 H   0  0  0  0  0  0  0  0  0  0  0  0
    9.8230  -12.5620    2.0190 H   0  0  0  0  0  0  0  0  0  0  0  0
    7.6309  -10.4946    1.9395 H   0  0  0  0  0  0  0  0  0  0  0  0
    5.2681  -10.5588    1.2055 H   0  0  0  0  0  0  0  0  0  0  0  0
    3.7085  -11.1263   -2.2108 H   0  0  0  0  0  0  0  0  0  0  0  0
    4.5659  -12.6732   -2.5502 H   0  0  0  0  0  0  0  0  0  0  0  0
    2.1870  -12.7884   -3.2313 H   0  0  0  0  0  0  0  0  0  0  0  0
    2.5754  -13.9341   -1.8556 H   0  0  0  0  0  0  0  0  0  0  0  0
    1.9860  -10.7152   -0.2972 H   0  0  0  0  0  0  0  0  0  0  0  0
    0.9886  -11.9744    0.5844 H   0  0  0  0  0  0  0  0  0  0  0  0
    3.3327  -11.9221    1.3793 H   0  0  0  0  0  0  0  0  0  0  0  0
    2.8829  -13.4940    0.6255 H   0  0  0  0  0  0  0  0  0  0  0  0
    6.1303  -13.9411   -1.3022 H   0  0  0  0  0  0  0  0  0  0  0  0
    8.4938  -13.8756   -0.5722 H   0  0  0  0  0  0  0  0  0  0  0  0
   11.2517  -14.0293   -2.3586 H   0  0  0  0  0  0  0  0  0  0  0  0
   11.9512  -15.1592   -4.4534 H   0  0  0  0  0  0  0  0  0  0  0  0
  1  2  3  0
  2  3  1  0
  3  4  1  0
  4  5  2  0
  4  6  1  0
  6  7  1  0
  7  8  2  0
  8  9  1  0
  9 10  2  0
 10 11  1  0
 11 12  2  0
 12 13  1  0
 13 14  2  0
 14 15  1  0
 15 16  1  0
 16 17  1  0
 17 18  2  0
 18 19  1  0
 19 20  2  0
 20 21  1  0
 21 22  1  0
 22 23  1  0
 23 24  1  0
 24 25  1  0
 25 26  1  0
 20 27  1  0
 27 28  2  0
 15 29  2  0
 10 30  1  0
 30 31  2  0
 31  7  1  0
 29 11  1  0
 28 17  1  0
 26 21  1  0
  3 32  1  0
  3 33  1  0
  6 34  1  0
  8 35  1  0
  9 36  1  0
 12 37  1  0
 13 38  1  0
 16 39  1  0
 18 40  1  0
 19 41  1  0
 22 42  1  0
 22 43  1  0
 23 44  1  0
 23 45  1  0
 25 46  1  0
 25 47  1  0
 26 48  1  0
 26 49  1  0
 27 50  1  0
 28 51  1  0
 30 52  1  0
 31 53  1  0
M  END
>  <meeko>  (2) 
{"is_sidechain": [false], "free_energy": -8.189, "intermolecular_energy": -10.931, "internal_energy": -1.043}

$$$$
LIB_RFPTXMLFYMYJSO__M_PUB_ALL__e8__s20260927
     RDKit          3D

 53 56  0  0  0  0  0  0  0  0999 V2000
   16.8670  -15.8680   -8.4690 N   0  0  0  0  0  0  0  0  0  0  0  0
   15.7650  -15.5380   -8.3210 C   0  0  0  0  0  0  0  0  0  0  0  0
   14.3580  -15.1760   -8.1630 C   0  0  0  0  0  0  0  0  0  0  0  0
   14.0130  -15.0550   -6.6960 C   0  0  0  0  0  0  0  0  0  0  0  0
   14.2440  -15.9830   -5.9260 O   0  0  0  0  0  0  0  0  0  0  0  0
   13.4510  -13.8310   -6.3620 N   0  0  0  0  0  0  0  0  0  0  0  0
   13.0560  -13.3920   -5.0810 C   0  0  0  0  0  0  0  0  0  0  0  0
   13.8290  -12.5730   -4.2590 C   0  0  0  0  0  0  0  0  0  0  0  0
   13.3600  -12.1790   -2.9970 C   0  0  0  0  0  0  0  0  0  0  0  0
   12.1060  -12.5930   -2.5160 C   0  0  0  0  0  0  0  0  0  0  0  0
   11.5980  -12.1910   -1.1860 C   0  0  0  0  0  0  0  0  0  0  0  0
   12.3480  -11.4670   -0.2830 C   0  0  0  0  0  0  0  0  0  0  0  0
   11.7390  -11.1820    0.9130 C   0  0  0  0  0  0  0  0  0  0  0  0
   10.4890  -11.5670    1.2200 N   0  0  0  0  0  0  0  0  0  0  0  0
    9.8190  -12.2680    0.2920 C   0  0  0  0  0  0  0  0  0  0  0  0
    8.5330  -12.6500    0.6630 N   0  0  0  0  0  0  0  0  0  0  0  0
    7.3360  -12.8350   -0.0310 C   0  0  0  0  0  0  0  0  0  0  0  0
    6.4540  -11.8080   -0.3590 C   0  0  0  0  0  0  0  0  0  0  0  0
    5.2720  -12.0610   -1.0740 C   0  0  0  0  0  0  0  0  0  0  0  0
    4.9130  -13.3470   -1.4980 C   0  0  0  0  0  0  0  0  0  0  0  0
    3.7490  -13.5910   -2.2000 N   0  0  0  0  0  0  0  0  0  0  0  0
    3.0060  -12.5170   -2.8770 C   0  0  0  0  0  0  0  0  0  0  0  0
    2.2080  -13.0920   -4.0590 C   0  0  0  0  0  0  0  0  0  0  0  0
    1.2620  -14.1070   -3.6920 O   0  0  0  0  0  0  0  0  0  0  0  0
    1.6510  -14.8460   -2.5250 C   0  0  0  0  0  0  0  0  0  0  0  0
    3.1720  -14.9390   -2.3160 C   0  0  0  0  0  0  0  0  0  0  0  0
    5.8080  -14.3710   -1.1660 C   0  0  0  0  0  0  0  0  0  0  0  0
    6.9920  -14.1230   -0.4510 C   0  0  0  0  0  0  0  0  0  0  0  0
   10.3410  -12.5950   -0.8980 N   0  0  0  0  0  0  0  0  0  0  0  0
   11.3370  -13.4090   -3.3610 C   0  0  0  0  0  0  0  0  0  0  0  0
   11.8030  -13.8050   -4.6210 C   0  0  0  0  0  0  0  0  0  0  0  0
   14.1722  -14.2129   -8.6609 H   0  0  0  0  0  0  0  0  0  0  0  0
   13.7322  -15.9590   -8.6161 H   0  0  0  0  0  0  0  0  0  0  0  0
   13.2740  -13.1750   -7.1140 H   0  0  0  0  0  0  0  0  0  0  0  0
   14.8166  -12.2324   -4.6035 H   0  0  0  0  0  0  0  0  0  0  0  0
   13.9886  -11.5306   -2.3690 H   0  0  0  0  0  0  0  0  0  0  0  0
   13.3731  -11.1377   -0.5082 H   0  0  0  0  0  0  0  0  0  0  0  0
   12.3048  -10.6072    1.6610 H   0  0  0  0  0  0  0  0  0  0  0  0
    8.5130  -12.7960    1.6620 H   0  0  0  0  0  0  0  0  0  0  0  0
    6.6880  -10.7780   -0.0518 H   0  0  0  0  0  0  0  0  0  0  0  0
    4.6042  -11.2192   -1.3095 H   0  0  0  0  0  0  0  0  0  0  0  0
    2.3126  -12.0482   -2.1633 H   0  0  0  0  0  0  0  0  0  0  0  0
    3.7181  -11.7677   -3.2532 H   0  0  0  0  0  0  0  0  0  0  0  0
    1.6605  -12.2676   -4.5392 H   0  0  0  0  0  0  0  0  0  0  0  0
    2.9373  -13.5678   -4.7311 H   0  0  0  0  0  0  0  0  0  0  0  0
    1.2110  -14.3562   -1.6439 H   0  0  0  0  0  0  0  0  0  0  0  0
    1.2877  -15.8746   -2.6664 H   0  0  0  0  0  0  0  0  0  0  0  0
    3.3790  -15.5039   -1.3951 H   0  0  0  0  0  0  0  0  0  0  0  0
    3.6235  -15.4512   -3.1784 H   0  0  0  0  0  0  0  0  0  0  0  0
    5.5773  -15.4014   -1.4743 H   0  0  0  0  0  0  0  0  0  0  0  0
    7.6637  -14.9619   -0.2164 H   0  0  0  0  0  0  0  0  0  0  0  0
   10.3449  -13.7453   -3.0254 H   0  0  0  0  0  0  0  0  0  0  0  0
   11.1756  -14.4483   -5.2555 H   0  0  0  0  0  0  0  0  0  0  0  0
  1  2  3  0
  2  3  1  0
  3  4  1  0
  4  5  2  0
  4  6  1  0
  6  7  1  0
  7  8  2  0
  8  9  1  0
  9 10  2  0
 10 11  1  0
 11 12  2  0
 12 13  1  0
 13 14  2  0
 14 15  1  0
 15 16  1  0
 16 17  1  0
 17 18  2  0
 18 19  1  0
 19 20  2  0
 20 21  1  0
 21 22  1  0
 22 23  1  0
 23 24  1  0
 24 25  1  0
 25 26  1  0
 20 27  1  0
 27 28  2  0
 15 29  2  0
 10 30  1  0
 30 31  2  0
 31  7  1  0
 29 11  1  0
 28 17  1  0
 26 21  1  0
  3 32  1  0
  3 33  1  0
  6 34  1  0
  8 35  1  0
  9 36  1  0
 12 37  1  0
 13 38  1  0
 16 39  1  0
 18 40  1  0
 19 41  1  0
 22 42  1  0
 22 43  1  0
 23 44  1  0
 23 45  1  0
 25 46  1  0
 25 47  1  0
 26 48  1  0
 26 49  1  0
 27 50  1  0
 28 51  1  0
 30 52  1  0
 31 53  1  0
M  END
>  <meeko>  (3) 
{"is_sidechain": [false], "free_energy": -7.975, "intermolecular_energy": -10.767, "internal_energy": -0.919}

$$$$
LIB_RFPTXMLFYMYJSO__M_PUB_ALL__e8__s20260927
     RDKit          3D

 53 56  0  0  0  0  0  0  0  0999 V2000
    7.2660   -6.6060    4.6540 N   0  0  0  0  0  0  0  0  0  0  0  0
    7.3980   -6.9240    3.5460 C   0  0  0  0  0  0  0  0  0  0  0  0
    7.6270   -7.3300    2.1610 C   0  0  0  0  0  0  0  0  0  0  0  0
    6.8740   -8.6060    1.8610 C   0  0  0  0  0  0  0  0  0  0  0  0
    5.8380   -8.8700    2.4650 O   0  0  0  0  0  0  0  0  0  0  0  0
    7.4670   -9.3750    0.8710 N   0  0  0  0  0  0  0  0  0  0  0  0
    6.9970  -10.5940    0.3370 C   0  0  0  0  0  0  0  0  0  0  0  0
    6.6860  -10.7950   -1.0070 C   0  0  0  0  0  0  0  0  0  0  0  0
    6.2260  -12.0410   -1.4560 C   0  0  0  0  0  0  0  0  0  0  0  0
    6.0590  -13.1250   -0.5770 C   0  0  0  0  0  0  0  0  0  0  0  0
    5.5710  -14.4440   -1.0330 C   0  0  0  0  0  0  0  0  0  0  0  0
    6.3920  -15.3940   -1.6020 C   0  0  0  0  0  0  0  0  0  0  0  0
    5.7850  -16.5640   -1.9830 C   0  0  0  0  0  0  0  0  0  0  0  0
    4.4730  -16.8050   -1.8270 N   0  0  0  0  0  0  0  0  0  0  0  0
    3.7350  -15.8350   -1.2650 C   0  0  0  0  0  0  0  0  0  0  0  0
    2.3810  -16.1310   -1.1340 N   0  0  0  0  0  0  0  0  0  0  0  0
    1.5530  -16.4350   -0.0520 C   0  0  0  0  0  0  0  0  0  0  0  0
    1.7930  -16.0230    1.2570 C   0  0  0  0  0  0  0  0  0  0  0  0
    0.9090  -16.3500    2.2990 C   0  0  0  0  0  0  0  0  0  0  0  0
   -0.2550  -17.1000    2.0870 C   0  0  0  0  0  0  0  0  0  0  0  0
   -1.1210  -17.4200    3.1150 N   0  0  0  0  0  0  0  0  0  0  0  0
   -0.6390  -17.8530    4.4350 C   0  0  0  0  0  0  0  0  0  0  0  0
   -1.6780  -17.5080    5.5150 C   0  0  0  0  0  0  0  0  0  0  0  0
   -2.9640  -18.1100    5.3060 O   0  0  0  0  0  0  0  0  0  0  0  0
   -3.2620  -18.3410    3.9210 C   0  0  0  0  0  0  0  0  0  0  0  0
   -2.5820  -17.3540    2.9570 C   0  0  0  0  0  0  0  0  0  0  0  0
   -0.4880  -17.5050    0.7670 C   0  0  0  0  0  0  0  0  0  0  0  0
    0.3930  -17.1800   -0.2780 C   0  0  0  0  0  0  0  0  0  0  0  0
    4.2460  -14.6600   -0.8700 N   0  0  0  0  0  0  0  0  0  0  0  0
    6.3860  -12.9070    0.7720 C   0  0  0  0  0  0  0  0  0  0  0  0
    6.8450  -11.6640    1.2230 C   0  0  0  0  0  0  0  0  0  0  0  0
    7.2776   -6.5345    1.4864 H   0  0  0  0  0  0  0  0  0  0  0  0
    8.7027   -7.5036    2.0105 H   0  0  0  0  0  0  0  0  0  0  0  0
    8.3500   -9.0540    0.4930 H   0  0  0  0  0  0  0  0  0  0  0  0
    6.8027   -9.9676   -1.7225 H   0  0  0  0  0  0  0  0  0  0  0  0
    5.9900  -12.1735   -2.5222 H   0  0  0  0  0  0  0  0  0  0  0  0
    7.4697  -15.2241   -1.7422 H   0  0  0  0  0  0  0  0  0  0  0  0
    6.4068  -17.3473   -2.4412 H   0  0  0  0  0  0  0  0  0  0  0  0
    1.9580  -16.1300   -2.0500 H   0  0  0  0  0  0  0  0  0  0  0  0
    2.6924  -15.4299    1.4792 H   0  0  0  0  0  0  0  0  0  0  0  0
    1.1392  -16.0047    3.3177 H   0  0  0  0  0  0  0  0  0  0  0  0
   -0.4734  -18.9404    4.4233 H   0  0  0  0  0  0  0  0  0  0  0  0
    0.3037  -17.3338    4.6627 H   0  0  0  0  0  0  0  0  0  0  0  0
   -1.2915  -17.8481    6.4871 H   0  0  0  0  0  0  0  0  0  0  0  0
   -1.8277  -16.4190    5.4741 H   0  0  0  0  0  0  0  0  0  0  0  0
   -2.9328  -19.3582    3.6622 H   0  0  0  0  0  0  0  0  0  0  0  0
   -4.3467  -18.2014    3.8034 H   0  0  0  0  0  0  0  0  0  0  0  0
   -2.8483  -17.6142    1.9219 H   0  0  0  0  0  0  0  0  0  0  0  0
   -2.9236  -16.3337    3.1856 H   0  0  0  0  0  0  0  0  0  0  0  0
   -1.3882  -18.0956    0.5414 H   0  0  0  0  0  0  0  0  0  0  0  0
    0.1639  -17.5203   -1.2986 H   0  0  0  0  0  0  0  0  0  0  0  0
    6.2787  -13.7328    1.4907 H   0  0  0  0  0  0  0  0  0  0  0  0
    7.0889  -11.5278    2.2869 H   0  0  0  0  0  0  0  0  0  0  0  0
  1  2  3  0
  2  3  1  0
  3  4  1  0
  4  5  2  0
  4  6  1  0
  6  7  1  0
  7  8  2  0
  8  9  1  0
  9 10  2  0
 10 11  1  0
 11 12  2  0
 12 13  1  0
 13 14  2  0
 14 15  1  0
 15 16  1  0
 16 17  1  0
 17 18  2  0
 18 19  1  0
 19 20  2  0
 20 21  1  0
 21 22  1  0
 22 23  1  0
 23 24  1  0
 24 25  1  0
 25 26  1  0
 20 27  1  0
 27 28  2  0
 15 29  2  0
 10 30  1  0
 30 31  2  0
 31  7  1  0
 29 11  1  0
 28 17  1  0
 26 21  1  0
  3 32  1  0
  3 33  1  0
  6 34  1  0
  8 35  1  0
  9 36  1  0
 12 37  1  0
 13 38  1  0
 16 39  1  0
 18 40  1  0
 19 41  1  0
 22 42  1  0
 22 43  1  0
 23 44  1  0
 23 45  1  0
 25 46  1  0
 25 47  1  0
 26 48  1  0
 26 49  1  0
 27 50  1  0
 28 51  1  0
 30 52  1  0
 31 53  1  0
M  END
>  <meeko>  (4) 
{"is_sidechain": [false], "free_energy": -7.649, "intermolecular_energy": -10.567, "internal_energy": -0.679}

$$$$
LIB_RFPTXMLFYMYJSO__M_PUB_ALL__e8__s20260927
     RDKit          3D

 53 56  0  0  0  0  0  0  0  0999 V2000
   16.8700  -15.8540   -8.5710 N   0  0  0  0  0  0  0  0  0  0  0  0
   15.7900  -15.4710   -8.3890 C   0  0  0  0  0  0  0  0  0  0  0  0
   14.4090  -15.0380   -8.1910 C   0  0  0  0  0  0  0  0  0  0  0  0
   14.0810  -15.0010   -6.7160 C   0  0  0  0  0  0  0  0  0  0  0  0
   14.4830  -15.8880   -5.9690 O   0  0  0  0  0  0  0  0  0  0  0  0
   13.3260  -13.8970   -6.3480 N   0  0  0  0  0  0  0  0  0  0  0  0
   12.8900  -13.5510   -5.0510 C   0  0  0  0  0  0  0  0  0  0  0  0
   13.5970  -12.7230   -4.1800 C   0  0  0  0  0  0  0  0  0  0  0  0
   13.0900  -12.4280   -2.9060 C   0  0  0  0  0  0  0  0  0  0  0  0
   11.8650  -12.9520   -2.4600 C   0  0  0  0  0  0  0  0  0  0  0  0
   11.3190  -12.6540   -1.1190 C   0  0  0  0  0  0  0  0  0  0  0  0
   12.1140  -12.4840   -0.0050 C   0  0  0  0  0  0  0  0  0  0  0  0
   11.4560  -12.2240    1.1700 C   0  0  0  0  0  0  0  0  0  0  0  0
   10.1190  -12.1330    1.2680 N   0  0  0  0  0  0  0  0  0  0  0  0
    9.4090  -12.3090    0.1430 C   0  0  0  0  0  0  0  0  0  0  0  0
    8.0300  -12.2140    0.3010 N   0  0  0  0  0  0  0  0  0  0  0  0
    6.9700  -13.1080    0.1390 C   0  0  0  0  0  0  0  0  0  0  0  0
    6.8220  -14.2870    0.8640 C   0  0  0  0  0  0  0  0  0  0  0  0
    5.7210  -15.1360    0.6630 C   0  0  0  0  0  0  0  0  0  0  0  0
    4.7140  -14.8490   -0.2680 C   0  0  0  0  0  0  0  0  0  0  0  0
    3.6340  -15.6870   -0.4630 N   0  0  0  0  0  0  0  0  0  0  0  0
    3.7300  -16.9100   -1.2750 C   0  0  0  0  0  0  0  0  0  0  0  0
    2.6840  -17.9360   -0.8080 C   0  0  0  0  0  0  0  0  0  0  0  0
    1.3290  -17.4720   -0.8870 O   0  0  0  0  0  0  0  0  0  0  0  0
    1.2090  -16.0490   -0.7380 C   0  0  0  0  0  0  0  0  0  0  0  0
    2.3130  -15.4110    0.1230 C   0  0  0  0  0  0  0  0  0  0  0  0
    4.8710  -13.6590   -0.9890 C   0  0  0  0  0  0  0  0  0  0  0  0
    5.9700  -12.8080   -0.7910 C   0  0  0  0  0  0  0  0  0  0  0  0
    9.9720  -12.5740   -1.0450 N   0  0  0  0  0  0  0  0  0  0  0  0
   11.1630  -13.7770   -3.3540 C   0  0  0  0  0  0  0  0  0  0  0  0
   11.6660  -14.0750   -4.6270 C   0  0  0  0  0  0  0  0  0  0  0  0
   14.2785  -14.0326   -8.6178 H   0  0  0  0  0  0  0  0  0  0  0  0
   13.7344  -15.7483   -8.6914 H   0  0  0  0  0  0  0  0  0  0  0  0
   13.0230  -13.2690   -7.0830 H   0  0  0  0  0  0  0  0  0  0  0  0
   14.5612  -12.2973   -4.4949 H   0  0  0  0  0  0  0  0  0  0  0  0
   13.6660  -11.7697   -2.2391 H   0  0  0  0  0  0  0  0  0  0  0  0
   13.2107  -12.5528   -0.0558 H   0  0  0  0  0  0  0  0  0  0  0  0
   12.0553  -12.0823    2.0815 H   0  0  0  0  0  0  0  0  0  0  0  0
    7.7980  -11.2710    0.5750 H   0  0  0  0  0  0  0  0  0  0  0  0
    7.5831  -14.5596    1.6099 H   0  0  0  0  0  0  0  0  0  0  0  0
    5.6468  -16.0586    1.2574 H   0  0  0  0  0  0  0  0  0  0  0  0
    3.5495  -16.6609   -2.3311 H   0  0  0  0  0  0  0  0  0  0  0  0
    4.7352  -17.3416   -1.1595 H   0  0  0  0  0  0  0  0  0  0  0  0
    2.7781  -18.8345   -1.4355 H   0  0  0  0  0  0  0  0  0  0  0  0
    2.8886  -18.1347    0.2544 H   0  0  0  0  0  0  0  0  0  0  0  0
    1.2445  -15.5929   -1.7384 H   0  0  0  0  0  0  0  0  0  0  0  0
    0.2566  -15.8641   -0.2196 H   0  0  0  0  0  0  0  0  0  0  0  0
    2.1555  -14.3233    0.1691 H   0  0  0  0  0  0  0  0  0  0  0  0
    2.2719  -15.8384    1.1357 H   0  0  0  0  0  0  0  0  0  0  0  0
    4.1099  -13.3824   -1.7334 H   0  0  0  0  0  0  0  0  0  0  0  0
    6.0461  -11.8832   -1.3816 H   0  0  0  0  0  0  0  0  0  0  0  0
   10.1948  -14.1994   -3.0471 H   0  0  0  0  0  0  0  0  0  0  0  0
   11.0914  -14.7284   -5.2999 H   0  0  0  0  0  0  0  0  0  0  0  0
  1  2  3  0
  2  3  1  0
  3  4  1  0
  4  5  2  0
  4  6  1  0
  6  7  1  0
  7  8  2  0
  8  9  1  0
  9 10  2  0
 10 11  1  0
 11 12  2  0
 12 13  1  0
 13 14  2  0
 14 15  1  0
 15 16  1  0
 16 17  1  0
 17 18  2  0
 18 19  1  0
 19 20  2  0
 20 21  1  0
 21 22  1  0
 22 23  1  0
 23 24  1  0
 24 25  1  0
 25 26  1  0
 20 27  1  0
 27 28  2  0
 15 29  2  0
 10 30  1  0
 30 31  2  0
 31  7  1  0
 29 11  1  0
 28 17  1  0
 26 21  1  0
  3 32  1  0
  3 33  1  0
  6 34  1  0
  8 35  1  0
  9 36  1  0
 12 37  1  0
 13 38  1  0
 16 39  1  0
 18 40  1  0
 19 41  1  0
 22 42  1  0
 22 43  1  0
 23 44  1  0
 23 45  1  0
 25 46  1  0
 25 47  1  0
 26 48  1  0
 26 49  1  0
 27 50  1  0
 28 51  1  0
 30 52  1  0
 31 53  1  0
M  END
>  <meeko>  (5) 
{"is_sidechain": [false], "free_energy": -7.571, "intermolecular_energy": -10.259, "internal_energy": -0.881}

$$$$
LIB_RFPTXMLFYMYJSO__M_PUB_ALL__e8__s20260927
     RDKit          3D

 53 56  0  0  0  0  0  0  0  0999 V2000
   -1.8510  -15.0380   -0.9690 N   0  0  0  0  0  0  0  0  0  0  0  0
   -1.4610  -14.3090   -0.1560 C   0  0  0  0  0  0  0  0  0  0  0  0
   -0.9800  -13.3420    0.8290 C   0  0  0  0  0  0  0  0  0  0  0  0
   -1.8520  -13.3790    2.0640 C   0  0  0  0  0  0  0  0  0  0  0  0
   -1.5600  -12.7060    3.0480 O   0  0  0  0  0  0  0  0  0  0  0  0
   -2.9540  -14.2110    1.9330 N   0  0  0  0  0  0  0  0  0  0  0  0
   -3.9740  -14.4340    2.8830 C   0  0  0  0  0  0  0  0  0  0  0  0
   -5.0750  -13.5990    3.0640 C   0  0  0  0  0  0  0  0  0  0  0  0
   -6.0470  -13.8960    4.0310 C   0  0  0  0  0  0  0  0  0  0  0  0
   -5.9490  -15.0350    4.8480 C   0  0  0  0  0  0  0  0  0  0  0  0
   -6.9610  -15.3600    5.8750 C   0  0  0  0  0  0  0  0  0  0  0  0
   -6.9390  -14.8290    7.1470 C   0  0  0  0  0  0  0  0  0  0  0  0
   -7.9430  -15.2380    7.9880 C   0  0  0  0  0  0  0  0  0  0  0  0
   -8.9070  -16.1010    7.6280 N   0  0  0  0  0  0  0  0  0  0  0  0
   -8.8660  -16.5770    6.3740 C   0  0  0  0  0  0  0  0  0  0  0  0
   -9.8810  -17.4740    6.0550 N   0  0  0  0  0  0  0  0  0  0  0  0
  -10.3880  -18.6240    6.6640 C   0  0  0  0  0  0  0  0  0  0  0  0
   -9.8390  -19.8960    6.5150 C   0  0  0  0  0  0  0  0  0  0  0  0
  -10.3900  -21.0100    7.1700 C   0  0  0  0  0  0  0  0  0  0  0  0
  -11.5110  -20.9100    8.0050 C   0  0  0  0  0  0  0  0  0  0  0  0
  -12.0490  -22.0090    8.6460 N   0  0  0  0  0  0  0  0  0  0  0  0
  -13.3770  -21.9730    9.2760 C   0  0  0  0  0  0  0  0  0  0  0  0
  -13.9850  -23.3850    9.3070 C   0  0  0  0  0  0  0  0  0  0  0  0
  -13.1950  -24.3480   10.0200 O   0  0  0  0  0  0  0  0  0  0  0  0
  -11.7900  -24.0570    9.9950 C   0  0  0  0  0  0  0  0  0  0  0  0
  -11.3280  -23.2880    8.7460 C   0  0  0  0  0  0  0  0  0  0  0  0
  -12.0510  -19.6270    8.1500 C   0  0  0  0  0  0  0  0  0  0  0  0
  -11.5040  -18.5100    7.4980 C   0  0  0  0  0  0  0  0  0  0  0  0
   -7.9180  -16.2360    5.4910 N   0  0  0  0  0  0  0  0  0  0  0  0
   -4.8380  -15.8700    4.6450 C   0  0  0  0  0  0  0  0  0  0  0  0
   -3.8650  -15.5750    3.6820 C   0  0  0  0  0  0  0  0  0  0  0  0
    0.0549  -13.5903    1.1070 H   0  0  0  0  0  0  0  0  0  0  0  0
   -1.0189  -12.3335    0.3915 H   0  0  0  0  0  0  0  0  0  0  0  0
   -3.0420  -14.7440    1.0770 H   0  0  0  0  0  0  0  0  0  0  0  0
   -5.1830  -12.6979    2.4424 H   0  0  0  0  0  0  0  0  0  0  0  0
   -6.9068  -13.2208    4.1526 H   0  0  0  0  0  0  0  0  0  0  0  0
   -6.1625  -14.1194    7.4687 H   0  0  0  0  0  0  0  0  0  0  0  0
   -7.9592  -14.8374    9.0123 H   0  0  0  0  0  0  0  0  0  0  0  0
  -10.2960  -17.1980    5.1780 H   0  0  0  0  0  0  0  0  0  0  0  0
   -8.9568  -20.0305    5.8719 H   0  0  0  0  0  0  0  0  0  0  0  0
   -9.9250  -21.9958    7.0222 H   0  0  0  0  0  0  0  0  0  0  0  0
  -13.2817  -21.5952   10.3047 H   0  0  0  0  0  0  0  0  0  0  0  0
  -14.0342  -21.3105    8.6936 H   0  0  0  0  0  0  0  0  0  0  0  0
  -14.9729  -23.3252    9.7871 H   0  0  0  0  0  0  0  0  0  0  0  0
  -14.0396  -23.7296    8.2638 H   0  0  0  0  0  0  0  0  0  0  0  0
  -11.5469  -23.4530   10.8816 H   0  0  0  0  0  0  0  0  0  0  0  0
  -11.2668  -25.0245    9.9822 H   0  0  0  0  0  0  0  0  0  0  0  0
  -10.2479  -23.0925    8.8176 H   0  0  0  0  0  0  0  0  0  0  0  0
  -11.5397  -23.8923    7.8516 H   0  0  0  0  0  0  0  0  0  0  0  0
  -12.9314  -19.4893    8.7949 H   0  0  0  0  0  0  0  0  0  0  0  0
  -11.9645  -17.5222    7.6471 H   0  0  0  0  0  0  0  0  0  0  0  0
   -4.7296  -16.7775    5.2572 H   0  0  0  0  0  0  0  0  0  0  0  0
   -3.0053  -16.2491    3.5532 H   0  0  0  0  0  0  0  0  0  0  0  0
  1  2  3  0
  2  3  1  0
  3  4  1  0
  4  5  2  0
  4  6  1  0
  6  7  1  0
  7  8  2  0
  8  9  1  0
  9 10  2  0
 10 11  1  0
 11 12  2  0
 12 13  1  0
 13 14  2  0
 14 15  1  0
 15 16  1  0
 16 17  1  0
 17 18  2  0
 18 19  1  0
 19 20  2  0
 20 21  1  0
 21 22  1  0
 22 23  1  0
 23 24  1  0
 24 25  1  0
 25 26  1  0
 20 27  1  0
 27 28  2  0
 15 29  2  0
 10 30  1  0
 30 31  2  0
 31  7  1  0
 29 11  1  0
 28 17  1  0
 26 21  1  0
  3 32  1  0
  3 33  1  0
  6 34  1  0
  8 35  1  0
  9 36  1  0
 12 37  1  0
 13 38  1  0
 16 39  1  0
 18 40  1  0
 19 41  1  0
 22 42  1  0
 22 43  1  0
 23 44  1  0
 23 45  1  0
 25 46  1  0
 25 47  1  0
 26 48  1  0
 26 49  1  0
 27 50  1  0
 28 51  1  0
 30 52  1  0
 31 53  1  0
M  END
>  <meeko>  (6) 
{"is_sidechain": [false], "free_energy": -7.472, "intermolecular_energy": -9.971, "internal_energy": -1.036}

$$$$
LIB_RFPTXMLFYMYJSO__M_PUB_ALL__e8__s20260927
     RDKit          3D

 53 56  0  0  0  0  0  0  0  0999 V2000
   13.4130  -11.1970   -2.4900 N   0  0  0  0  0  0  0  0  0  0  0  0
   13.1650  -11.3400   -1.3660 C   0  0  0  0  0  0  0  0  0  0  0  0
   12.8380  -11.4580    0.0530 C   0  0  0  0  0  0  0  0  0  0  0  0
   11.7120  -12.4490    0.2470 C   0  0  0  0  0  0  0  0  0  0  0  0
   11.5280  -12.9710    1.3430 O   0  0  0  0  0  0  0  0  0  0  0  0
   10.9620  -12.6590   -0.9010 N   0  0  0  0  0  0  0  0  0  0  0  0
    9.8280  -13.4880   -1.0420 C   0  0  0  0  0  0  0  0  0  0  0  0
    9.8820  -14.8690   -1.2180 C   0  0  0  0  0  0  0  0  0  0  0  0
    8.7050  -15.6200   -1.3480 C   0  0  0  0  0  0  0  0  0  0  0  0
    7.4370  -15.0150   -1.3090 C   0  0  0  0  0  0  0  0  0  0  0  0
    6.1860  -15.7910   -1.4490 C   0  0  0  0  0  0  0  0  0  0  0  0
    6.1490  -17.1690   -1.4160 C   0  0  0  0  0  0  0  0  0  0  0  0
    4.9120  -17.7410   -1.5720 C   0  0  0  0  0  0  0  0  0  0  0  0
    3.7840  -17.0350   -1.7470 N   0  0  0  0  0  0  0  0  0  0  0  0
    3.8950  -15.6970   -1.7670 C   0  0  0  0  0  0  0  0  0  0  0  0
    2.6990  -15.0130   -1.9610 N   0  0  0  0  0  0  0  0  0  0  0  0
    1.9580  -14.1150   -1.1900 C   0  0  0  0  0  0  0  0  0  0  0  0
    2.0690  -12.7290   -1.2800 C   0  0  0  0  0  0  0  0  0  0  0  0
    1.2810  -11.8800   -0.4850 C   0  0  0  0  0  0  0  0  0  0  0  0
    0.3440  -12.3710    0.4340 C   0  0  0  0  0  0  0  0  0  0  0  0
   -0.4280  -11.5320    1.2140 N   0  0  0  0  0  0  0  0  0  0  0  0
   -0.3660  -10.0690    1.0840 C   0  0  0  0  0  0  0  0  0  0  0  0
   -1.7000   -9.4430    1.5270 C   0  0  0  0  0  0  0  0  0  0  0  0
   -2.0680   -9.7420    2.8810 O   0  0  0  0  0  0  0  0  0  0  0  0
   -1.5570  -11.0010    3.3420 C   0  0  0  0  0  0  0  0  0  0  0  0
   -1.3610  -12.0460    2.2300 C   0  0  0  0  0  0  0  0  0  0  0  0
    0.2390  -13.7650    0.5130 C   0  0  0  0  0  0  0  0  0  0  0  0
    1.0240  -14.6170   -0.2800 C   0  0  0  0  0  0  0  0  0  0  0  0
    5.0650  -15.0570   -1.6300 N   0  0  0  0  0  0  0  0  0  0  0  0
    7.4010  -13.6230   -1.1210 C   0  0  0  0  0  0  0  0  0  0  0  0
    8.5750  -12.8710   -0.9920 C   0  0  0  0  0  0  0  0  0  0  0  0
   13.7256  -11.8037    0.6032 H   0  0  0  0  0  0  0  0  0  0  0  0
   12.5215  -10.4751    0.4321 H   0  0  0  0  0  0  0  0  0  0  0  0
   11.2600  -12.1930   -1.7490 H   0  0  0  0  0  0  0  0  0  0  0  0
   10.8578  -15.3753   -1.2554 H   0  0  0  0  0  0  0  0  0  0  0  0
    8.7758  -16.7093   -1.4838 H   0  0  0  0  0  0  0  0  0  0  0  0
    7.0569  -17.7733   -1.2732 H   0  0  0  0  0  0  0  0  0  0  0  0
    4.8406  -18.8385   -1.5526 H   0  0  0  0  0  0  0  0  0  0  0  0
    2.3180  -15.2710   -2.8590 H   0  0  0  0  0  0  0  0  0  0  0  0
    2.7881  -12.2907   -1.9877 H   0  0  0  0  0  0  0  0  0  0  0  0
    1.4039  -10.7917   -0.5875 H   0  0  0  0  0  0  0  0  0  0  0  0
    0.4460   -9.6814    1.7168 H   0  0  0  0  0  0  0  0  0  0  0  0
   -0.1770   -9.8082    0.0322 H   0  0  0  0  0  0  0  0  0  0  0  0
   -1.6196   -8.3508    1.4243 H   0  0  0  0  0  0  0  0  0  0  0  0
   -2.4812   -9.8747    0.8840 H   0  0  0  0  0  0  0  0  0  0  0  0
   -0.5843  -10.8231    3.8239 H   0  0  0  0  0  0  0  0  0  0  0  0
   -2.3061  -11.4123    4.0345 H   0  0  0  0  0  0  0  0  0  0  0  0
   -0.9520  -12.9694    2.6660 H   0  0  0  0  0  0  0  0  0  0  0  0
   -2.3314  -12.2548    1.7560 H   0  0  0  0  0  0  0  0  0  0  0  0
   -0.4808  -14.2062    1.2182 H   0  0  0  0  0  0  0  0  0  0  0  0
    0.9009  -15.7057   -0.1826 H   0  0  0  0  0  0  0  0  0  0  0  0
    6.4279  -13.1122   -1.0741 H   0  0  0  0  0  0  0  0  0  0  0  0
    8.5104  -11.7822   -0.8497 H   0  0  0  0  0  0  0  0  0  0  0  0
  1  2  3  0
  2  3  1  0
  3  4  1  0
  4  5  2  0
  4  6  1  0
  6  7  1  0
  7  8  2  0
  8  9  1  0
  9 10  2  0
 10 11  1  0
 11 12  2  0
 12 13  1  0
 13 14  2  0
 14 15  1  0
 15 16  1  0
 16 17  1  0
 17 18  2  0
 18 19  1  0
 19 20  2  0
 20 21  1  0
 21 22  1  0
 22 23  1  0
 23 24  1  0
 24 25  1  0
 25 26  1  0
 20 27  1  0
 27 28  2  0
 15 29  2  0
 10 30  1  0
 30 31  2  0
 31  7  1  0
 29 11  1  0
 28 17  1  0
 26 21  1  0
  3 32  1  0
  3 33  1  0
  6 34  1  0
  8 35  1  0
  9 36  1  0
 12 37  1  0
 13 38  1  0
 16 39  1  0
 18 40  1  0
 19 41  1  0
 22 42  1  0
 22 43  1  0
 23 44  1  0
 23 45  1  0
 25 46  1  0
 25 47  1  0
 26 48  1  0
 26 49  1  0
 27 50  1  0
 28 51  1  0
 30 52  1  0
 31 53  1  0
M  END
>  <meeko>  (7) 
{"is_sidechain": [false], "free_energy": -7.438, "intermolecular_energy": -9.844, "internal_energy": -1.116}

$$$$
LIB_RFPTXMLFYMYJSO__M_PUB_ALL__e8__s20260927
     RDKit          3D

 53 56  0  0  0  0  0  0  0  0999 V2000
   16.1800  -15.7520   -7.6210 N   0  0  0  0  0  0  0  0  0  0  0  0
   15.1600  -15.3500   -7.9990 C   0  0  0  0  0  0  0  0  0  0  0  0
   13.8600  -14.9020   -8.4940 C   0  0  0  0  0  0  0  0  0  0  0  0
   13.0430  -14.3240   -7.3610 C   0  0  0  0  0  0  0  0  0  0  0  0
   11.9010  -13.9210   -7.5630 O   0  0  0  0  0  0  0  0  0  0  0  0
   13.7110  -14.3240   -6.1450 N   0  0  0  0  0  0  0  0  0  0  0  0
   13.2170  -13.8910   -4.8960 C   0  0  0  0  0  0  0  0  0  0  0  0
   13.5530  -12.6780   -4.2960 C   0  0  0  0  0  0  0  0  0  0  0  0
   13.0130  -12.3230   -3.0510 C   0  0  0  0  0  0  0  0  0  0  0  0
   12.1230  -13.1680   -2.3660 C   0  0  0  0  0  0  0  0  0  0  0  0
   11.5500  -12.8100   -1.0510 C   0  0  0  0  0  0  0  0  0  0  0  0
   12.2350  -12.9640    0.1350 C   0  0  0  0  0  0  0  0  0  0  0  0
   11.5610  -12.5970    1.2720 C   0  0  0  0  0  0  0  0  0  0  0  0
   10.3080  -12.1130    1.2690 N   0  0  0  0  0  0  0  0  0  0  0  0
    9.7030  -11.9890    0.0770 C   0  0  0  0  0  0  0  0  0  0  0  0
    8.4040  -11.4910    0.1300 N   0  0  0  0  0  0  0  0  0  0  0  0
    7.1590  -12.0550    0.4140 C   0  0  0  0  0  0  0  0  0  0  0  0
    6.8130  -12.6130    1.6420 C   0  0  0  0  0  0  0  0  0  0  0  0
    5.5350  -13.1500    1.8680 C   0  0  0  0  0  0  0  0  0  0  0  0
    4.5400  -13.1540    0.8810 C   0  0  0  0  0  0  0  0  0  0  0  0
    3.2840  -13.6840    1.1070 N   0  0  0  0  0  0  0  0  0  0  0  0
    3.0820  -14.8990    1.9100 C   0  0  0  0  0  0  0  0  0  0  0  0
    1.6780  -14.8890    2.5370 C   0  0  0  0  0  0  0  0  0  0  0  0
    0.6090  -14.8200    1.5830 O   0  0  0  0  0  0  0  0  0  0  0  0
    0.9740  -14.1410    0.3730 C   0  0  0  0  0  0  0  0  0  0  0  0
    2.0650  -13.0720    0.5550 C   0  0  0  0  0  0  0  0  0  0  0  0
    4.8970  -12.5870   -0.3480 C   0  0  0  0  0  0  0  0  0  0  0  0
    6.1740  -12.0490   -0.5780 C   0  0  0  0  0  0  0  0  0  0  0  0
   10.2860  -12.3300   -1.0800 N   0  0  0  0  0  0  0  0  0  0  0  0
   11.7890  -14.3810   -2.9900 C   0  0  0  0  0  0  0  0  0  0  0  0
   12.3270  -14.7390   -4.2320 C   0  0  0  0  0  0  0  0  0  0  0  0
   14.0101  -14.1312   -9.2643 H   0  0  0  0  0  0  0  0  0  0  0  0
   13.3230  -15.7608   -8.9231 H   0  0  0  0  0  0  0  0  0  0  0  0
   14.6720  -14.6450   -6.1380 H   0  0  0  0  0  0  0  0  0  0  0  0
   14.2480  -11.9931   -4.8037 H   0  0  0  0  0  0  0  0  0  0  0  0
   13.2930  -11.3597   -2.5998 H   0  0  0  0  0  0  0  0  0  0  0  0
   13.2615  -13.3579    0.1679 H   0  0  0  0  0  0  0  0  0  0  0  0
   12.0746  -12.7049    2.2388 H   0  0  0  0  0  0  0  0  0  0  0  0
    8.4210  -10.5130   -0.1150 H   0  0  0  0  0  0  0  0  0  0  0  0
    7.5565  -12.6337    2.4524 H   0  0  0  0  0  0  0  0  0  0  0  0
    5.3072  -13.5823    2.8535 H   0  0  0  0  0  0  0  0  0  0  0  0
    3.1861  -15.7835    1.2644 H   0  0  0  0  0  0  0  0  0  0  0  0
    3.8347  -14.9308    2.7116 H   0  0  0  0  0  0  0  0  0  0  0  0
    1.5563  -15.8103    3.1255 H   0  0  0  0  0  0  0  0  0  0  0  0
    1.6126  -13.9792    3.1517 H   0  0  0  0  0  0  0  0  0  0  0  0
    1.3403  -14.8891   -0.3454 H   0  0  0  0  0  0  0  0  0  0  0  0
    0.0734  -13.6170    0.0203 H   0  0  0  0  0  0  0  0  0  0  0  0
    2.2953  -12.6173   -0.4198 H   0  0  0  0  0  0  0  0  0  0  0  0
    1.7019  -12.3011    1.2506 H   0  0  0  0  0  0  0  0  0  0  0  0
    4.1543  -12.5620   -1.1590 H   0  0  0  0  0  0  0  0  0  0  0  0
    6.4043  -11.6129   -1.5613 H   0  0  0  0  0  0  0  0  0  0  0  0
   11.0879  -15.0662   -2.4910 H   0  0  0  0  0  0  0  0  0  0  0  0
   12.0458  -15.6987   -4.6902 H   0  0  0  0  0  0  0  0  0  0  0  0
  1  2  3  0
  2  3  1  0
  3  4  1  0
  4  5  2  0
  4  6  1  0
  6  7  1  0
  7  8  2  0
  8  9  1  0
  9 10  2  0
 10 11  1  0
 11 12  2  0
 12 13  1  0
 13 14  2  0
 14 15  1  0
 15 16  1  0
 16 17  1  0
 17 18  2  0
 18 19  1  0
 19 20  2  0
 20 21  1  0
 21 22  1  0
 22 23  1  0
 23 24  1  0
 24 25  1  0
 25 26  1  0
 20 27  1  0
 27 28  2  0
 15 29  2  0
 10 30  1  0
 30 31  2  0
 31  7  1  0
 29 11  1  0
 28 17  1  0
 26 21  1  0
  3 32  1  0
  3 33  1  0
  6 34  1  0
  8 35  1  0
  9 36  1  0
 12 37  1  0
 13 38  1  0
 16 39  1  0
 18 40  1  0
 19 41  1  0
 22 42  1  0
 22 43  1  0
 23 44  1  0
 23 45  1  0
 25 46  1  0
 25 47  1  0
 26 48  1  0
 26 49  1  0
 27 50  1  0
 28 51  1  0
 30 52  1  0
 31 53  1  0
M  END
>  <meeko>  (8) 
{"is_sidechain": [false], "free_energy": -7.42, "intermolecular_energy": -9.926, "internal_energy": -1.01}

$$$$
LIB_RFPTXMLFYMYJSO__M_PUB_ALL__e8__s20260927
     RDKit          3D

 53 56  0  0  0  0  0  0  0  0999 V2000
   16.9770   -6.2630   10.5390 N   0  0  0  0  0  0  0  0  0  0  0  0
   16.0460   -6.4340   11.2100 C   0  0  0  0  0  0  0  0  0  0  0  0
   14.8490   -6.5940   12.0320 C   0  0  0  0  0  0  0  0  0  0  0  0
   14.1360   -7.8780   11.6690 C   0  0  0  0  0  0  0  0  0  0  0  0
   13.4590   -7.9430   10.6480 O   0  0  0  0  0  0  0  0  0  0  0  0
   14.3510   -8.9020   12.5800 N   0  0  0  0  0  0  0  0  0  0  0  0
   13.8640  -10.2250   12.5110 C   0  0  0  0  0  0  0  0  0  0  0  0
   14.4240  -11.2280   11.7230 C   0  0  0  0  0  0  0  0  0  0  0  0
   13.8780  -12.5200   11.7140 C   0  0  0  0  0  0  0  0  0  0  0  0
   12.7540  -12.8490   12.4900 C   0  0  0  0  0  0  0  0  0  0  0  0
   12.1620  -14.2040   12.4890 C   0  0  0  0  0  0  0  0  0  0  0  0
   10.8060  -14.4320   12.3890 C   0  0  0  0  0  0  0  0  0  0  0  0
   10.4140  -15.7470   12.4130 C   0  0  0  0  0  0  0  0  0  0  0  0
   11.2700  -16.7760   12.5260 N   0  0  0  0  0  0  0  0  0  0  0  0
   12.5760  -16.4780   12.6170 C   0  0  0  0  0  0  0  0  0  0  0  0
   13.4190  -17.5790   12.7410 N   0  0  0  0  0  0  0  0  0  0  0  0
   14.4940  -18.0670   11.9970 C   0  0  0  0  0  0  0  0  0  0  0  0
   14.3630  -18.8430   10.8480 C   0  0  0  0  0  0  0  0  0  0  0  0
   15.4890  -19.2900   10.1350 C   0  0  0  0  0  0  0  0  0  0  0  0
   16.7970  -18.9830   10.5320 C   0  0  0  0  0  0  0  0  0  0  0  0
   17.9000  -19.4250    9.8290 N   0  0  0  0  0  0  0  0  0  0  0  0
   17.8770  -20.6630    9.0370 C   0  0  0  0  0  0  0  0  0  0  0  0
   18.9040  -20.5790    7.8960 C   0  0  0  0  0  0  0  0  0  0  0  0
   20.2550  -20.3730    8.3350 O   0  0  0  0  0  0  0  0  0  0  0  0
   20.3430  -19.6580    9.5760 C   0  0  0  0  0  0  0  0  0  0  0  0
   19.1750  -18.6890    9.8290 C   0  0  0  0  0  0  0  0  0  0  0  0
   16.9160  -18.1990   11.6870 C   0  0  0  0  0  0  0  0  0  0  0  0
   15.7940  -17.7500   12.4020 C   0  0  0  0  0  0  0  0  0  0  0  0
   13.0440  -15.2230   12.6090 N   0  0  0  0  0  0  0  0  0  0  0  0
   12.2070  -11.8280   13.2850 C   0  0  0  0  0  0  0  0  0  0  0  0
   12.7500  -10.5370   13.2950 C   0  0  0  0  0  0  0  0  0  0  0  0
   15.1379   -6.6258   13.0929 H   0  0  0  0  0  0  0  0  0  0  0  0
   14.1735   -5.7445   11.8530 H   0  0  0  0  0  0  0  0  0  0  0  0
   14.8970   -8.6890   13.4060 H   0  0  0  0  0  0  0  0  0  0  0  0
   15.3035  -11.0045   11.1014 H   0  0  0  0  0  0  0  0  0  0  0  0
   14.3409  -13.2941   11.0843 H   0  0  0  0  0  0  0  0  0  0  0  0
   10.0818  -13.6093   12.2956 H   0  0  0  0  0  0  0  0  0  0  0  0
    9.3398  -15.9706   12.3354 H   0  0  0  0  0  0  0  0  0  0  0  0
   13.1380  -18.1140   13.5490 H   0  0  0  0  0  0  0  0  0  0  0  0
   13.3578  -19.1116   10.4911 H   0  0  0  0  0  0  0  0  0  0  0  0
   15.3378  -19.9023    9.2338 H   0  0  0  0  0  0  0  0  0  0  0  0
   18.1240  -21.5154    9.6869 H   0  0  0  0  0  0  0  0  0  0  0  0
   16.8729  -20.7979    8.6086 H   0  0  0  0  0  0  0  0  0  0  0  0
   18.8656  -21.5198    7.3273 H   0  0  0  0  0  0  0  0  0  0  0  0
   18.6316  -19.7030    7.2891 H   0  0  0  0  0  0  0  0  0  0  0  0
   20.3669  -20.3911   10.3957 H   0  0  0  0  0  0  0  0  0  0  0  0
   21.2560  -19.0465    9.5248 H   0  0  0  0  0  0  0  0  0  0  0  0
   19.3128  -18.1994   10.8044 H   0  0  0  0  0  0  0  0  0  0  0  0
   19.1547  -17.9324    9.0308 H   0  0  0  0  0  0  0  0  0  0  0  0
   17.9198  -17.9266   12.0449 H   0  0  0  0  0  0  0  0  0  0  0  0
   15.9413  -17.1345   13.3017 H   0  0  0  0  0  0  0  0  0  0  0  0
   11.3319  -12.0476   13.9143 H   0  0  0  0  0  0  0  0  0  0  0  0
   12.2947   -9.7602   13.9268 H   0  0  0  0  0  0  0  0  0  0  0  0
  1  2  3  0
  2  3  1  0
  3  4  1  0
  4  5  2  0
  4  6  1  0
  6  7  1  0
  7  8  2  0
  8  9  1  0
  9 10  2  0
 10 11  1  0
 11 12  2  0
 12 13  1  0
 13 14  2  0
 14 15  1  0
 15 16  1  0
 16 17  1  0
 17 18  2  0
 18 19  1  0
 19 20  2  0
 20 21  1  0
 21 22  1  0
 22 23  1  0
 23 24  1  0
 24 25  1  0
 25 26  1  0
 20 27  1  0
 27 28  2  0
 15 29  2  0
 10 30  1  0
 30 31  2  0
 31  7  1  0
 29 11  1  0
 28 17  1  0
 26 21  1  0
  3 32  1  0
  3 33  1  0
  6 34  1  0
  8 35  1  0
  9 36  1  0
 12 37  1  0
 13 38  1  0
 16 39  1  0
 18 40  1  0
 19 41  1  0
 22 42  1  0
 22 43  1  0
 23 44  1  0
 23 45  1  0
 25 46  1  0
 25 47  1  0
 26 48  1  0
 26 49  1  0
 27 50  1  0
 28 51  1  0
 30 52  1  0
 31 53  1  0
M  END
>  <meeko>  (9) 
{"is_sidechain": [false], "free_energy": -7.32, "intermolecular_energy": -9.911, "internal_energy": -0.89}

$$$$
