LIB_CYDMWSSMUBQXRD__M_PUB_ALL__e8__s20260927
     RDKit          3D

 66 69  0  0  0  0  0  0  0  0999 V2000
    6.9770  -16.1470    0.1980 C   0  0  0  0  0  0  0  0  0  0  0  0
    6.0910  -15.0960   -0.3010 N   0  0  0  0  0  0  0  0  0  0  0  0
    6.5170  -13.8600   -0.8110 C   0  0  0  0  0  0  0  0  0  0  0  0
    7.2850  -13.8040   -1.7820 O   0  0  0  0  0  0  0  0  0  0  0  0
    6.0070  -12.5170   -0.1870 C   0  0  0  0  0  0  0  0  0  0  0  0
    7.1060  -11.4390   -0.3390 C   0  0  0  0  0  0  0  0  0  0  0  0
    5.8360  -12.7280    1.3450 C   0  0  0  0  0  0  0  0  0  0  0  0
    4.6120  -12.1160   -0.7040 C   0  0  0  0  0  0  0  0  0  0  0  0
    3.4810  -12.1080    0.1320 C   0  0  0  0  0  0  0  0  0  0  0  0
    2.2110  -11.7430   -0.3500 C   0  0  0  0  0  0  0  0  0  0  0  0
    1.0160  -11.7500    0.5750 C   0  0  0  0  0  0  0  0  0  0  0  0
    0.9120  -10.6200    1.3270 F   0  0  0  0  0  0  0  0  0  0  0  0
   -0.1600  -11.8640   -0.1000 F   0  0  0  0  0  0  0  0  0  0  0  0
    1.0420  -12.7850    1.4610 F   0  0  0  0  0  0  0  0  0  0  0  0
    2.0660  -11.4120   -1.7040 C   0  0  0  0  0  0  0  0  0  0  0  0
    3.1650  -11.4410   -2.5740 C   0  0  0  0  0  0  0  0  0  0  0  0
    3.0060  -11.0710   -4.0310 C   0  0  0  0  0  0  0  0  0  0  0  0
    2.5920   -9.7840   -4.1910 F   0  0  0  0  0  0  0  0  0  0  0  0
    4.1610  -11.1880   -4.7420 F   0  0  0  0  0  0  0  0  0  0  0  0
    2.0890  -11.8440   -4.6770 F   0  0  0  0  0  0  0  0  0  0  0  0
    4.4270  -11.7900   -2.0620 C   0  0  0  0  0  0  0  0  0  0  0  0
    4.6800  -15.4140   -0.3120 C   0  0  0  0  0  0  0  0  0  0  0  0
    3.9680  -15.4680    0.8860 C   0  0  0  0  0  0  0  0  0  0  0  0
    2.6320  -15.6730    0.9960 N   0  0  0  0  0  0  0  0  0  0  0  0
    1.9110  -15.8650   -0.1220 C   0  0  0  0  0  0  0  0  0  0  0  0
    0.5680  -16.0730    0.0130 N   0  0  0  0  0  0  0  0  0  0  0  0
    0.0630  -17.2940    0.6320 C   0  0  0  0  0  0  0  0  0  0  0  0
   -1.4320  -17.0220    0.8240 C   0  0  0  0  0  0  0  0  0  0  0  0
   -1.7550  -16.0280   -0.2820 C   0  0  2  0  0  0  0  0  0  0  0  0
   -1.9400  -16.7250   -1.5180 O   0  0  0  0  0  0  0  0  0  0  0  0
   -0.4990  -15.1440   -0.3370 C   0  0  0  0  0  0  0  0  0  0  0  0
    2.5440  -15.8590   -1.3620 C   0  0  0  0  0  0  0  0  0  0  0  0
    3.9340  -15.6360   -1.4860 C   0  0  0  0  0  0  0  0  0  0  0  0
    4.5350  -15.7850   -2.8270 C   0  0  0  0  0  0  0  0  0  0  0  0
    4.3690  -14.7440   -3.7630 C   0  0  0  0  0  0  0  0  0  0  0  0
    4.9270  -14.8220   -5.0410 C   0  0  0  0  0  0  0  0  0  0  0  0
    5.6700  -15.9400   -5.4090 C   0  0  0  0  0  0  0  0  0  0  0  0
    5.8560  -16.9800   -4.5000 C   0  0  0  0  0  0  0  0  0  0  0  0
    5.2970  -16.9050   -3.2180 C   0  0  0  0  0  0  0  0  0  0  0  0
    5.5550  -18.2510   -2.1610 Cl  0  0  0  0  0  0  0  0  0  0  0  0
    6.9711  -16.1399    1.2980 H   0  0  0  0  0  0  0  0  0  0  0  0
    6.6265  -17.1247   -0.1643 H   0  0  0  0  0  0  0  0  0  0  0  0
    7.9999  -15.9669   -0.1643 H   0  0  0  0  0  0  0  0  0  0  0  0
    7.4392  -11.1121    0.6570 H   0  0  0  0  0  0  0  0  0  0  0  0
    7.9591  -11.8603   -0.8911 H   0  0  0  0  0  0  0  0  0  0  0  0
    6.7012  -10.5780   -0.8911 H   0  0  0  0  0  0  0  0  0  0  0  0
    6.4387  -11.9844    1.8871 H   0  0  0  0  0  0  0  0  0  0  0  0
    4.7765  -12.6089    1.6155 H   0  0  0  0  0  0  0  0  0  0  0  0
    6.1720  -13.7399    1.6155 H   0  0  0  0  0  0  0  0  0  0  0  0
    3.5923  -12.3941    1.1883 H   0  0  0  0  0  0  0  0  0  0  0  0
    1.0764  -11.1255   -2.0895 H   0  0  0  0  0  0  0  0  0  0  0  0
    5.2931  -11.8090   -2.7399 H   0  0  0  0  0  0  0  0  0  0  0  0
    4.5367  -15.3333    1.8179 H   0  0  0  0  0  0  0  0  0  0  0  0
    0.2212  -18.1605   -0.0269 H   0  0  0  0  0  0  0  0  0  0  0  0
    0.5744  -17.5324    1.5763 H   0  0  0  0  0  0  0  0  0  0  0  0
   -2.0182  -17.9454    0.7068 H   0  0  0  0  0  0  0  0  0  0  0  0
   -1.6736  -16.6413    1.8273 H   0  0  0  0  0  0  0  0  0  0  0  0
   -2.6746  -15.4507   -0.1056 H   0  0  0  0  0  0  0  0  0  0  0  0
   -1.8050  -17.6730   -1.3280 H   0  0  0  0  0  0  0  0  0  0  0  0
   -0.3494  -14.7312   -1.3456 H   0  0  0  0  0  0  0  0  0  0  0  0
   -0.5520  -14.2715    0.3308 H   0  0  0  0  0  0  0  0  0  0  0  0
    1.9465  -16.0324   -2.2691 H   0  0  0  0  0  0  0  0  0  0  0  0
    3.7887  -13.8530   -3.4814 H   0  0  0  0  0  0  0  0  0  0  0  0
    4.7793  -13.9999   -5.7567 H   0  0  0  0  0  0  0  0  0  0  0  0
    6.1096  -16.0026   -6.4154 H   0  0  0  0  0  0  0  0  0  0  0  0
    6.4441  -17.8631   -4.7905 H   0  0  0  0  0  0  0  0  0  0  0  0
  1  2  1  0
  2  3  1  0
  3  4  2  0
  3  5  1  0
  5  6  1  0
  5  7  1  0
  5  8  1  0
  8  9  2  0
  9 10  1  0
 10 11  1  0
 11 12  1  0
 11 13  1  0
 11 14  1  0
 10 15  2  0
 15 16  1  0
 16 17  1  0
 17 18  1  0
 17 19  1  0
 17 20  1  0
 16 21  2  0
  2 22  1  0
 22 23  2  0
 23 24  1  0
 24 25  2  0
 25 26  1  0
 26 27  1  0
 27 28  1  0
 28 29  1  0
 29 30  1  0
 29 31  1  0
 25 32  1  0
 32 33  2  0
 33 34  1  0
 34 35  2  0
 35 36  1  0
 36 37  2  0
 37 38  1  0
 38 39  2  0
 39 40  1  0
 21  8  1  0
 33 22  1  0
 39 34  1  0
 31 26  1  0
  1 41  1  0
  1 42  1  0
  1 43  1  0
  6 44  1  0
  6 45  1  0
  6 46  1  0
  7 47  1  0
  7 48  1  0
  7 49  1  0
  9 50  1  0
 15 51  1  0
 21 52  1  0
 23 53  1  0
 27 54  1  0
 27 55  1  0
 28 56  1  0
 28 57  1  0
 29 58  1  1
 30 59  1  0
 31 60  1  0
 31 61  1  0
 32 62  1  0
 35 63  1  0
 36 64  1  0
 37 65  1  0
 38 66  1  0
M  END
>  <meeko>  (1) 
{"is_sidechain": [false], "free_energy": -7.708, "intermolecular_energy": -11.538, "internal_energy": -3.852}

$$$$
LIB_CYDMWSSMUBQXRD__M_PUB_ALL__e8__s20260927
     RDKit          3D

 66 69  0  0  0  0  0  0  0  0999 V2000
    6.3810  -14.0560   -4.0650 C   0  0  0  0  0  0  0  0  0  0  0  0
    5.3650  -13.6670   -3.0880 N   0  0  0  0  0  0  0  0  0  0  0  0
    4.7070  -12.4280   -3.0620 C   0  0  0  0  0  0  0  0  0  0  0  0
    5.3130  -11.3940   -2.7470 O   0  0  0  0  0  0  0  0  0  0  0  0
    3.1980  -12.3140   -3.4640 C   0  0  0  0  0  0  0  0  0  0  0  0
    2.9320  -13.2110   -4.6950 C   0  0  0  0  0  0  0  0  0  0  0  0
    2.9320  -10.8570   -3.9420 C   0  0  0  0  0  0  0  0  0  0  0  0
    2.2480  -12.5330   -2.2690 C   0  0  0  0  0  0  0  0  0  0  0  0
    1.6130  -13.7660   -2.0380 C   0  0  0  0  0  0  0  0  0  0  0  0
    0.7460  -13.9540   -0.9460 C   0  0  0  0  0  0  0  0  0  0  0  0
    0.0750  -15.2910   -0.7310 C   0  0  0  0  0  0  0  0  0  0  0  0
   -1.0770  -15.4340   -1.4420 F   0  0  0  0  0  0  0  0  0  0  0  0
    0.8720  -16.3340   -1.0880 F   0  0  0  0  0  0  0  0  0  0  0  0
   -0.2640  -15.5060    0.5720 F   0  0  0  0  0  0  0  0  0  0  0  0
    0.4860  -12.8760   -0.0890 C   0  0  0  0  0  0  0  0  0  0  0  0
    1.0770  -11.6230   -0.3080 C   0  0  0  0  0  0  0  0  0  0  0  0
    0.8030  -10.4670    0.6260 C   0  0  0  0  0  0  0  0  0  0  0  0
   -0.1300  -10.7800    1.5670 F   0  0  0  0  0  0  0  0  0  0  0  0
    1.9070  -10.0580    1.3080 F   0  0  0  0  0  0  0  0  0  0  0  0
    0.3310   -9.3640   -0.0190 F   0  0  0  0  0  0  0  0  0  0  0  0
    1.9550  -11.4680   -1.3950 C   0  0  0  0  0  0  0  0  0  0  0  0
    4.9920  -14.6840   -2.1290 C   0  0  0  0  0  0  0  0  0  0  0  0
    4.3960  -15.8670   -2.5640 C   0  0  0  0  0  0  0  0  0  0  0  0
    4.0800  -16.9230   -1.7740 N   0  0  0  0  0  0  0  0  0  0  0  0
    4.3310  -16.8450   -0.4560 C   0  0  0  0  0  0  0  0  0  0  0  0
    4.0000  -17.9190    0.3210 N   0  0  0  0  0  0  0  0  0  0  0  0
    5.0050  -18.5740    1.1510 C   0  0  0  0  0  0  0  0  0  0  0  0
    4.1940  -19.5270    2.0330 C   0  0  0  0  0  0  0  0  0  0  0  0
    2.9660  -19.8330    1.1870 C   0  0  2  0  0  0  0  0  0  0  0  0
    3.2840  -20.8400    0.2220 O   0  0  0  0  0  0  0  0  0  0  0  0
    2.6720  -18.4900    0.4990 C   0  0  0  0  0  0  0  0  0  0  0  0
    4.8950  -15.6870    0.0720 C   0  0  0  0  0  0  0  0  0  0  0  0
    5.2370  -14.5870   -0.7460 C   0  0  0  0  0  0  0  0  0  0  0  0
    5.7030  -13.3540   -0.0770 C   0  0  0  0  0  0  0  0  0  0  0  0
    4.7620  -12.5580    0.6070 C   0  0  0  0  0  0  0  0  0  0  0  0
    5.1460  -11.3910    1.2710 C   0  0  0  0  0  0  0  0  0  0  0  0
    6.4810  -10.9970    1.2700 C   0  0  0  0  0  0  0  0  0  0  0  0
    7.4320  -11.7700    0.6070 C   0  0  0  0  0  0  0  0  0  0  0  0
    7.0500  -12.9400   -0.0600 C   0  0  0  0  0  0  0  0  0  0  0  0
    8.2910  -13.8270   -0.8790 Cl  0  0  0  0  0  0  0  0  0  0  0  0
    7.2829  -14.4013   -3.5384 H   0  0  0  0  0  0  0  0  0  0  0  0
    5.9911  -14.8684   -4.6958 H   0  0  0  0  0  0  0  0  0  0  0  0
    6.6333  -13.1909   -4.6958 H   0  0  0  0  0  0  0  0  0  0  0  0
    2.6342  -14.2153   -4.3594 H   0  0  0  0  0  0  0  0  0  0  0  0
    2.1252  -12.7726   -5.3007 H   0  0  0  0  0  0  0  0  0  0  0  0
    3.8474  -13.2833   -5.3007 H   0  0  0  0  0  0  0  0  0  0  0  0
    2.8121  -10.2004   -3.0677 H   0  0  0  0  0  0  0  0  0  0  0  0
    3.7815  -10.5091   -4.5481 H   0  0  0  0  0  0  0  0  0  0  0  0
    2.0144  -10.8317   -4.5481 H   0  0  0  0  0  0  0  0  0  0  0  0
    1.7984  -14.6031   -2.7271 H   0  0  0  0  0  0  0  0  0  0  0  0
   -0.1908  -13.0145    0.7670 H   0  0  0  0  0  0  0  0  0  0  0  0
    2.4257  -10.4889   -1.5675 H   0  0  0  0  0  0  0  0  0  0  0  0
    4.1630  -15.9506   -3.6358 H   0  0  0  0  0  0  0  0  0  0  0  0
    5.7221  -19.1310    0.5301 H   0  0  0  0  0  0  0  0  0  0  0  0
    5.6010  -17.8590    1.7371 H   0  0  0  0  0  0  0  0  0  0  0  0
    4.7623  -20.4440    2.2477 H   0  0  0  0  0  0  0  0  0  0  0  0
    3.9431  -19.0956    3.0133 H   0  0  0  0  0  0  0  0  0  0  0  0
    2.1104  -20.2116    1.7654 H   0  0  0  0  0  0  0  0  0  0  0  0
    3.6730  -21.5880    0.7140 H   0  0  0  0  0  0  0  0  0  0  0  0
    2.1734  -18.6422   -0.4696 H   0  0  0  0  0  0  0  0  0  0  0  0
    1.9951  -17.8442    1.0775 H   0  0  0  0  0  0  0  0  0  0  0  0
    5.0793  -15.6268    1.1548 H   0  0  0  0  0  0  0  0  0  0  0  0
    3.7049  -12.8619    0.6180 H   0  0  0  0  0  0  0  0  0  0  0  0
    4.3935  -10.7832    1.7948 H   0  0  0  0  0  0  0  0  0  0  0  0
    6.7846  -10.0773    1.7915 H   0  0  0  0  0  0  0  0  0  0  0  0
    8.4873  -11.4596    0.6077 H   0  0  0  0  0  0  0  0  0  0  0  0
  1  2  1  0
  2  3  1  0
  3  4  2  0
  3  5  1  0
  5  6  1  0
  5  7  1  0
  5  8  1  0
  8  9  2  0
  9 10  1  0
 10 11  1  0
 11 12  1  0
 11 13  1  0
 11 14  1  0
 10 15  2  0
 15 16  1  0
 16 17  1  0
 17 18  1  0
 17 19  1  0
 17 20  1  0
 16 21  2  0
  2 22  1  0
 22 23  2  0
 23 24  1  0
 24 25  2  0
 25 26  1  0
 26 27  1  0
 27 28  1  0
 28 29  1  0
 29 30  1  0
 29 31  1  0
 25 32  1  0
 32 33  2  0
 33 34  1  0
 34 35  2  0
 35 36  1  0
 36 37  2  0
 37 38  1  0
 38 39  2  0
 39 40  1  0
 21  8  1  0
 33 22  1  0
 39 34  1  0
 31 26  1  0
  1 41  1  0
  1 42  1  0
  1 43  1  0
  6 44  1  0
  6 45  1  0
  6 46  1  0
  7 47  1  0
  7 48  1  0
  7 49  1  0
  9 50  1  0
 15 51  1  0
 21 52  1  0
 23 53  1  0
 27 54  1  0
 27 55  1  0
 28 56  1  0
 28 57  1  0
 29 58  1  1
 30 59  1  0
 31 60  1  0
 31 61  1  0
 32 62  1  0
 35 63  1  0
 36 64  1  0
 37 65  1  0
 38 66  1  0
M  END
>  <meeko>  (2) 
{"is_sidechain": [false], "free_energy": -7.671, "intermolecular_energy": -11.539, "internal_energy": -3.795}

$$$$
LIB_CYDMWSSMUBQXRD__M_PUB_ALL__e8__s20260927
     RDKit          3D

 66 69  0  0  0  0  0  0  0  0999 V2000
    3.8580  -16.4790   -1.7020 C   0  0  0  0  0  0  0  0  0  0  0  0
    3.7990  -15.3040   -0.8330 N   0  0  0  0  0  0  0  0  0  0  0  0
    2.6700  -14.8960   -0.1070 C   0  0  0  0  0  0  0  0  0  0  0  0
    2.7800  -14.4700    1.0510 O   0  0  0  0  0  0  0  0  0  0  0  0
    1.2440  -14.9370   -0.7530 C   0  0  0  0  0  0  0  0  0  0  0  0
    0.6830  -16.3740   -0.6500 C   0  0  0  0  0  0  0  0  0  0  0  0
    1.3930  -14.6540   -2.2760 C   0  0  0  0  0  0  0  0  0  0  0  0
    0.3190  -13.8260   -0.2190 C   0  0  0  0  0  0  0  0  0  0  0  0
    0.7180  -12.4780   -0.1840 C   0  0  0  0  0  0  0  0  0  0  0  0
   -0.1330  -11.4710    0.3090 C   0  0  0  0  0  0  0  0  0  0  0  0
    0.3290  -10.0320    0.3380 C   0  0  0  0  0  0  0  0  0  0  0  0
    1.4790   -9.8530    1.0440 F   0  0  0  0  0  0  0  0  0  0  0  0
    0.5700   -9.5410   -0.9080 F   0  0  0  0  0  0  0  0  0  0  0  0
   -0.5870   -9.1960    0.9010 F   0  0  0  0  0  0  0  0  0  0  0  0
   -1.3940  -11.8280    0.8060 C   0  0  0  0  0  0  0  0  0  0  0  0
   -1.8110  -13.1660    0.8160 C   0  0  0  0  0  0  0  0  0  0  0  0
   -3.1770  -13.5450    1.3420 C   0  0  0  0  0  0  0  0  0  0  0  0
   -4.1790  -13.0580    0.5600 F   0  0  0  0  0  0  0  0  0  0  0  0
   -3.3700  -14.8900    1.4100 F   0  0  0  0  0  0  0  0  0  0  0  0
   -3.4130  -13.0690    2.5960 F   0  0  0  0  0  0  0  0  0  0  0  0
   -0.9500  -14.1500    0.3000 C   0  0  0  0  0  0  0  0  0  0  0  0
    5.0350  -14.5670   -0.6880 C   0  0  0  0  0  0  0  0  0  0  0  0
    5.9630  -14.9450    0.2820 C   0  0  0  0  0  0  0  0  0  0  0  0
    7.1870  -14.3870    0.4580 N   0  0  0  0  0  0  0  0  0  0  0  0
    7.5560  -13.3700   -0.3400 C   0  0  0  0  0  0  0  0  0  0  0  0
    8.7910  -12.8210   -0.1430 N   0  0  0  0  0  0  0  0  0  0  0  0
    9.9140  -13.1860   -0.9990 C   0  0  0  0  0  0  0  0  0  0  0  0
   11.0080  -12.1840   -0.6250 C   0  0  0  0  0  0  0  0  0  0  0  0
   10.6800  -11.8240    0.8180 C   0  0  2  0  0  0  0  0  0  0  0  0
   11.1760  -12.8420    1.6920 O   0  0  0  0  0  0  0  0  0  0  0  0
    9.1440  -11.7950    0.8290 C   0  0  0  0  0  0  0  0  0  0  0  0
    6.6800  -12.9050   -1.3170 C   0  0  0  0  0  0  0  0  0  0  0  0
    5.4070  -13.4880   -1.5130 C   0  0  0  0  0  0  0  0  0  0  0  0
    4.4980  -12.8390   -2.4790 C   0  0  0  0  0  0  0  0  0  0  0  0
    3.6920  -11.7700   -2.0370 C   0  0  0  0  0  0  0  0  0  0  0  0
    2.8250  -11.1070   -2.9090 C   0  0  0  0  0  0  0  0  0  0  0  0
    2.7480  -11.4950   -4.2430 C   0  0  0  0  0  0  0  0  0  0  0  0
    3.5400  -12.5450   -4.7070 C   0  0  0  0  0  0  0  0  0  0  0  0
    4.4100  -13.2110   -3.8350 C   0  0  0  0  0  0  0  0  0  0  0  0
    5.3370  -14.5190   -4.4880 Cl  0  0  0  0  0  0  0  0  0  0  0  0
    3.9037  -17.3890   -1.0857 H   0  0  0  0  0  0  0  0  0  0  0  0
    2.9603  -16.5109   -2.3370 H   0  0  0  0  0  0  0  0  0  0  0  0
    4.7544  -16.4208   -2.3370 H   0  0  0  0  0  0  0  0  0  0  0  0
    0.5751  -16.6504    0.4092 H   0  0  0  0  0  0  0  0  0  0  0  0
   -0.2993  -16.4204   -1.1430 H   0  0  0  0  0  0  0  0  0  0  0  0
    1.3740  -17.0736   -1.1430 H   0  0  0  0  0  0  0  0  0  0  0  0
    1.9009  -13.6892   -2.4217 H   0  0  0  0  0  0  0  0  0  0  0  0
    1.9864  -15.4548   -2.7414 H   0  0  0  0  0  0  0  0  0  0  0  0
    0.3970  -14.6179   -2.7414 H   0  0  0  0  0  0  0  0  0  0  0  0
    1.7184  -12.2042   -0.5504 H   0  0  0  0  0  0  0  0  0  0  0  0
   -2.0654  -11.0475    1.1934 H   0  0  0  0  0  0  0  0  0  0  0  0
   -1.2756  -15.2007    0.3015 H   0  0  0  0  0  0  0  0  0  0  0  0
    5.6791  -15.7631    0.9603 H   0  0  0  0  0  0  0  0  0  0  0  0
   10.2416  -14.2162   -0.7955 H   0  0  0  0  0  0  0  0  0  0  0  0
    9.6584  -13.1530   -2.0684 H   0  0  0  0  0  0  0  0  0  0  0  0
   12.0046  -12.6437   -0.6990 H   0  0  0  0  0  0  0  0  0  0  0  0
   11.0336  -11.3085   -1.2904 H   0  0  0  0  0  0  0  0  0  0  0  0
   11.1264  -10.8764    1.1539 H   0  0  0  0  0  0  0  0  0  0  0  0
   11.9430  -12.4600    2.1610 H   0  0  0  0  0  0  0  0  0  0  0  0
    8.7508  -12.0427    1.8260 H   0  0  0  0  0  0  0  0  0  0  0  0
    8.7269  -10.8063    0.5871 H   0  0  0  0  0  0  0  0  0  0  0  0
    6.9864  -12.0617   -1.9533 H   0  0  0  0  0  0  0  0  0  0  0  0
    3.7469  -11.4519   -0.9854 H   0  0  0  0  0  0  0  0  0  0  0  0
    2.2029  -10.2779   -2.5408 H   0  0  0  0  0  0  0  0  0  0  0  0
    2.0642  -10.9749   -4.9299 H   0  0  0  0  0  0  0  0  0  0  0  0
    3.4810  -12.8511   -5.7619 H   0  0  0  0  0  0  0  0  0  0  0  0
  1  2  1  0
  2  3  1  0
  3  4  2  0
  3  5  1  0
  5  6  1  0
  5  7  1  0
  5  8  1  0
  8  9  2  0
  9 10  1  0
 10 11  1  0
 11 12  1  0
 11 13  1  0
 11 14  1  0
 10 15  2  0
 15 16  1  0
 16 17  1  0
 17 18  1  0
 17 19  1  0
 17 20  1  0
 16 21  2  0
  2 22  1  0
 22 23  2  0
 23 24  1  0
 24 25  2  0
 25 26  1  0
 26 27  1  0
 27 28  1  0
 28 29  1  0
 29 30  1  0
 29 31  1  0
 25 32  1  0
 32 33  2  0
 33 34  1  0
 34 35  2  0
 35 36  1  0
 36 37  2  0
 37 38  1  0
 38 39  2  0
 39 40  1  0
 21  8  1  0
 33 22  1  0
 39 34  1  0
 31 26  1  0
  1 41  1  0
  1 42  1  0
  1 43  1  0
  6 44  1  0
  6 45  1  0
  6 46  1  0
  7 47  1  0
  7 48  1  0
  7 49  1  0
  9 50  1  0
 15 51  1  0
 21 52  1  0
 23 53  1  0
 27 54  1  0
 27 55  1  0
 28 56  1  0
 28 57  1  0
 29 58  1  1
 30 59  1  0
 31 60  1  0
 31 61  1  0
 32 62  1  0
 35 63  1  0
 36 64  1  0
 37 65  1  0
 38 66  1  0
M  END
>  <meeko>  (3) 
{"is_sidechain": [false], "free_energy": -7.668, "intermolecular_energy": -12.712, "internal_energy": -2.618}

$$$$
LIB_CYDMWSSMUBQXRD__M_PUB_ALL__e8__s20260927
     RDKit          3D

 66 69  0  0  0  0  0  0  0  0999 V2000
    5.2020  -14.8650   -3.7050 C   0  0  0  0  0  0  0  0  0  0  0  0
    5.5470  -13.4910   -3.3420 N   0  0  0  0  0  0  0  0  0  0  0  0
    4.7180  -12.3760   -3.5390 C   0  0  0  0  0  0  0  0  0  0  0  0
    5.1770  -11.2260   -3.4830 O   0  0  0  0  0  0  0  0  0  0  0  0
    3.1980  -12.5550   -3.8680 C   0  0  0  0  0  0  0  0  0  0  0  0
    3.0440  -13.6090   -4.9890 C   0  0  0  0  0  0  0  0  0  0  0  0
    2.6720  -11.2210   -4.4720 C   0  0  0  0  0  0  0  0  0  0  0  0
    2.3430  -12.8000   -2.6090 C   0  0  0  0  0  0  0  0  0  0  0  0
    1.9540  -14.0920   -2.2120 C   0  0  0  0  0  0  0  0  0  0  0  0
    1.1720  -14.3040   -1.0620 C   0  0  0  0  0  0  0  0  0  0  0  0
    0.7660  -15.7060   -0.6670 C   0  0  0  0  0  0  0  0  0  0  0  0
    0.7050  -15.8860    0.6810 F   0  0  0  0  0  0  0  0  0  0  0  0
   -0.4600  -16.0450   -1.1500 F   0  0  0  0  0  0  0  0  0  0  0  0
    1.6290  -16.6540   -1.1300 F   0  0  0  0  0  0  0  0  0  0  0  0
    0.7440  -13.1980   -0.3150 C   0  0  0  0  0  0  0  0  0  0  0  0
    1.0860  -11.8940   -0.7010 C   0  0  0  0  0  0  0  0  0  0  0  0
    0.6320  -10.7040    0.1150 C   0  0  0  0  0  0  0  0  0  0  0  0
    0.3940   -9.6120   -0.6620 F   0  0  0  0  0  0  0  0  0  0  0  0
   -0.5180  -10.9360    0.8040 F   0  0  0  0  0  0  0  0  0  0  0  0
    1.5510  -10.3140    1.0410 F   0  0  0  0  0  0  0  0  0  0  0  0
    1.8850  -11.7110   -1.8420 C   0  0  0  0  0  0  0  0  0  0  0  0
    6.8190  -13.3160   -2.6770 C   0  0  0  0  0  0  0  0  0  0  0  0
    7.9820  -13.1540   -3.4280 C   0  0  0  0  0  0  0  0  0  0  0  0
    9.2150  -12.8990   -2.9220 N   0  0  0  0  0  0  0  0  0  0  0  0
    9.3620  -12.8120   -1.5890 C   0  0  0  0  0  0  0  0  0  0  0  0
   10.6130  -12.5600   -1.1010 N   0  0  0  0  0  0  0  0  0  0  0  0
   10.8700  -12.5790    0.3350 C   0  0  0  0  0  0  0  0  0  0  0  0
   12.3960  -12.5120    0.4400 C   0  0  0  0  0  0  0  0  0  0  0  0
   12.8070  -11.7850   -0.8330 C   0  0  2  0  0  0  0  0  0  0  0  0
   12.6360  -10.3760   -0.6590 O   0  0  0  0  0  0  0  0  0  0  0  0
   11.8230  -12.3300   -1.8800 C   0  0  0  0  0  0  0  0  0  0  0  0
    8.2600  -12.9930   -0.7590 C   0  0  0  0  0  0  0  0  0  0  0  0
    6.9710  -13.2480   -1.2790 C   0  0  0  0  0  0  0  0  0  0  0  0
    5.8940  -13.5610   -0.3170 C   0  0  0  0  0  0  0  0  0  0  0  0
    5.1340  -12.5010    0.2170 C   0  0  0  0  0  0  0  0  0  0  0  0
    4.0930  -12.7370    1.1170 C   0  0  0  0  0  0  0  0  0  0  0  0
    3.7840  -14.0390    1.4990 C   0  0  0  0  0  0  0  0  0  0  0  0
    4.5160  -15.1060    0.9800 C   0  0  0  0  0  0  0  0  0  0  0  0
    5.5610  -14.8720    0.0780 C   0  0  0  0  0  0  0  0  0  0  0  0
    6.4330  -16.2520   -0.4990 Cl  0  0  0  0  0  0  0  0  0  0  0  0
    5.0528  -15.4592   -2.7914 H   0  0  0  0  0  0  0  0  0  0  0  0
    4.2757  -14.8659   -4.2983 H   0  0  0  0  0  0  0  0  0  0  0  0
    6.0179  -15.3034   -4.2983 H   0  0  0  0  0  0  0  0  0  0  0  0
    2.8988  -14.6028   -4.5404 H   0  0  0  0  0  0  0  0  0  0  0  0
    2.1731  -13.3571   -5.6120 H   0  0  0  0  0  0  0  0  0  0  0  0
    3.9505  -13.6168   -5.6120 H   0  0  0  0  0  0  0  0  0  0  0  0
    2.4004  -10.5321   -3.6586 H   0  0  0  0  0  0  0  0  0  0  0  0
    3.4574  -10.7644   -5.0922 H   0  0  0  0  0  0  0  0  0  0  0  0
    1.7863  -11.4234   -5.0922 H   0  0  0  0  0  0  0  0  0  0  0  0
    2.2685  -14.9568   -2.8147 H   0  0  0  0  0  0  0  0  0  0  0  0
    0.1320  -13.3549    0.5855 H   0  0  0  0  0  0  0  0  0  0  0  0
    2.1603  -10.6899   -2.1445 H   0  0  0  0  0  0  0  0  0  0  0  0
    7.8930  -13.2400   -4.5210 H   0  0  0  0  0  0  0  0  0  0  0  0
   10.4059  -11.7113    0.8266 H   0  0  0  0  0  0  0  0  0  0  0  0
   10.4507  -13.4684    0.8280 H   0  0  0  0  0  0  0  0  0  0  0  0
   12.7045  -11.9477    1.3324 H   0  0  0  0  0  0  0  0  0  0  0  0
   12.8631  -13.5031    0.5378 H   0  0  0  0  0  0  0  0  0  0  0  0
   13.8586  -11.9414   -1.1153 H   0  0  0  0  0  0  0  0  0  0  0  0
   11.7120  -10.2380   -0.3750 H   0  0  0  0  0  0  0  0  0  0  0  0
   11.6460  -11.5937   -2.6778 H   0  0  0  0  0  0  0  0  0  0  0  0
   12.1886  -13.2327   -2.3913 H   0  0  0  0  0  0  0  0  0  0  0  0
    8.3958  -12.9361    0.3311 H   0  0  0  0  0  0  0  0  0  0  0  0
    5.3655  -11.4678   -0.0811 H   0  0  0  0  0  0  0  0  0  0  0  0
    3.5167  -11.8932    1.5244 H   0  0  0  0  0  0  0  0  0  0  0  0
    2.9644  -14.2258    2.2085 H   0  0  0  0  0  0  0  0  0  0  0  0
    4.2716  -16.1356    1.2803 H   0  0  0  0  0  0  0  0  0  0  0  0
  1  2  1  0
  2  3  1  0
  3  4  2  0
  3  5  1  0
  5  6  1  0
  5  7  1  0
  5  8  1  0
  8  9  2  0
  9 10  1  0
 10 11  1  0
 11 12  1  0
 11 13  1  0
 11 14  1  0
 10 15  2  0
 15 16  1  0
 16 17  1  0
 17 18  1  0
 17 19  1  0
 17 20  1  0
 16 21  2  0
  2 22  1  0
 22 23  2  0
 23 24  1  0
 24 25  2  0
 25 26  1  0
 26 27  1  0
 27 28  1  0
 28 29  1  0
 29 30  1  0
 29 31  1  0
 25 32  1  0
 32 33  2  0
 33 34  1  0
 34 35  2  0
 35 36  1  0
 36 37  2  0
 37 38  1  0
 38 39  2  0
 39 40  1  0
 21  8  1  0
 33 22  1  0
 39 34  1  0
 31 26  1  0
  1 41  1  0
  1 42  1  0
  1 43  1  0
  6 44  1  0
  6 45  1  0
  6 46  1  0
  7 47  1  0
  7 48  1  0
  7 49  1  0
  9 50  1  0
 15 51  1  0
 21 52  1  0
 23 53  1  0
 27 54  1  0
 27 55  1  0
 28 56  1  0
 28 57  1  0
 29 58  1  6
 30 59  1  0
 31 60  1  0
 31 61  1  0
 32 62  1  0
 35 63  1  0
 36 64  1  0
 37 65  1  0
 38 66  1  0
M  END
>  <meeko>  (4) 
{"is_sidechain": [false], "free_energy": -7.667, "intermolecular_energy": -11.942, "internal_energy": -3.387}

$$$$
LIB_CYDMWSSMUBQXRD__M_PUB_ALL__e8__s20260927
     RDKit          3D

 66 69  0  0  0  0  0  0  0  0999 V2000
    3.9270  -16.4300   -1.8070 C   0  0  0  0  0  0  0  0  0  0  0  0
    3.8720  -15.2880   -0.8950 N   0  0  0  0  0  0  0  0  0  0  0  0
    2.7470  -14.9120   -0.1450 C   0  0  0  0  0  0  0  0  0  0  0  0
    2.8640  -14.5340    1.0290 O   0  0  0  0  0  0  0  0  0  0  0  0
    1.3160  -14.9290   -0.7820 C   0  0  0  0  0  0  0  0  0  0  0  0
    0.7750  -16.3770   -0.7730 C   0  0  0  0  0  0  0  0  0  0  0  0
    1.4500  -14.5420   -2.2830 C   0  0  0  0  0  0  0  0  0  0  0  0
    0.3810  -13.8700   -0.1670 C   0  0  0  0  0  0  0  0  0  0  0  0
   -0.8520  -14.2120    0.4150 C   0  0  0  0  0  0  0  0  0  0  0  0
   -1.6990  -13.2370    0.9720 C   0  0  0  0  0  0  0  0  0  0  0  0
   -3.0210  -13.6390    1.5850 C   0  0  0  0  0  0  0  0  0  0  0  0
   -3.7820  -12.5760    1.9640 F   0  0  0  0  0  0  0  0  0  0  0  0
   -3.7890  -14.3670    0.7290 F   0  0  0  0  0  0  0  0  0  0  0  0
   -2.8720  -14.4060    2.7010 F   0  0  0  0  0  0  0  0  0  0  0  0
   -1.3180  -11.8890    0.9130 C   0  0  0  0  0  0  0  0  0  0  0  0
   -0.1110  -11.5090    0.3110 C   0  0  0  0  0  0  0  0  0  0  0  0
    0.3020  -10.0550    0.2610 C   0  0  0  0  0  0  0  0  0  0  0  0
    1.4280   -9.8180    0.9880 F   0  0  0  0  0  0  0  0  0  0  0  0
    0.5660   -9.6170   -1.0000 F   0  0  0  0  0  0  0  0  0  0  0  0
   -0.6500   -9.2160    0.7560 F   0  0  0  0  0  0  0  0  0  0  0  0
    0.7270  -12.5050   -0.2200 C   0  0  0  0  0  0  0  0  0  0  0  0
    5.1060  -14.5520   -0.7330 C   0  0  0  0  0  0  0  0  0  0  0  0
    6.0280  -14.9410    0.2380 C   0  0  0  0  0  0  0  0  0  0  0  0
    7.2500  -14.3850    0.4280 N   0  0  0  0  0  0  0  0  0  0  0  0
    7.6230  -13.3570   -0.3540 C   0  0  0  0  0  0  0  0  0  0  0  0
    8.8560  -12.8090   -0.1410 N   0  0  0  0  0  0  0  0  0  0  0  0
    9.9850  -13.1620   -0.9960 C   0  0  0  0  0  0  0  0  0  0  0  0
   11.0760  -12.1640   -0.6010 C   0  0  0  0  0  0  0  0  0  0  0  0
   10.7390  -11.8240    0.8430 C   0  0  2  0  0  0  0  0  0  0  0  0
   11.2300  -12.8520    1.7080 O   0  0  0  0  0  0  0  0  0  0  0  0
    9.2020  -11.7960    0.8460 C   0  0  0  0  0  0  0  0  0  0  0  0
    6.7520  -12.8800   -1.3290 C   0  0  0  0  0  0  0  0  0  0  0  0
    5.4820  -13.4610   -1.5400 C   0  0  0  0  0  0  0  0  0  0  0  0
    4.5770  -12.8000   -2.5030 C   0  0  0  0  0  0  0  0  0  0  0  0
    3.7760  -11.7300   -2.0550 C   0  0  0  0  0  0  0  0  0  0  0  0
    2.9140  -11.0560   -2.9220 C   0  0  0  0  0  0  0  0  0  0  0  0
    2.8380  -11.4340   -4.2600 C   0  0  0  0  0  0  0  0  0  0  0  0
    3.6240  -12.4840   -4.7300 C   0  0  0  0  0  0  0  0  0  0  0  0
    4.4890  -13.1620   -3.8620 C   0  0  0  0  0  0  0  0  0  0  0  0
    5.4110  -14.4690   -4.5230 Cl  0  0  0  0  0  0  0  0  0  0  0  0
    3.9719  -17.3623   -1.2249 H   0  0  0  0  0  0  0  0  0  0  0  0
    3.0281  -16.4365   -2.4410 H   0  0  0  0  0  0  0  0  0  0  0  0
    4.8223  -16.3501   -2.4410 H   0  0  0  0  0  0  0  0  0  0  0  0
    0.6488  -16.7148    0.2662 H   0  0  0  0  0  0  0  0  0  0  0  0
   -0.1957  -16.4090   -1.2894 H   0  0  0  0  0  0  0  0  0  0  0  0
    1.4870  -17.0376   -1.2894 H   0  0  0  0  0  0  0  0  0  0  0  0
    1.8089  -13.5054   -2.3637 H   0  0  0  0  0  0  0  0  0  0  0  0
    2.1666  -15.2174   -2.7732 H   0  0  0  0  0  0  0  0  0  0  0  0
    0.4692  -14.6297   -2.7732 H   0  0  0  0  0  0  0  0  0  0  0  0
   -1.1618  -15.2673    0.4353 H   0  0  0  0  0  0  0  0  0  0  0  0
   -1.9751  -11.1197    1.3449 H   0  0  0  0  0  0  0  0  0  0  0  0
    1.6776  -12.2112   -0.6891 H   0  0  0  0  0  0  0  0  0  0  0  0
    5.7403  -15.7671    0.9049 H   0  0  0  0  0  0  0  0  0  0  0  0
   10.3122  -14.1947   -0.8048 H   0  0  0  0  0  0  0  0  0  0  0  0
    9.7360  -13.1148   -2.0664 H   0  0  0  0  0  0  0  0  0  0  0  0
   12.0734  -12.6220   -0.6748 H   0  0  0  0  0  0  0  0  0  0  0  0
   11.1049  -11.2795   -1.2543 H   0  0  0  0  0  0  0  0  0  0  0  0
   11.1833  -10.8805    1.1928 H   0  0  0  0  0  0  0  0  0  0  0  0
   10.4970  -13.4840    1.8390 H   0  0  0  0  0  0  0  0  0  0  0  0
    8.8034  -12.0571    1.8374 H   0  0  0  0  0  0  0  0  0  0  0  0
    8.7853  -10.8045    0.6152 H   0  0  0  0  0  0  0  0  0  0  0  0
    7.0609  -12.0277   -1.9520 H   0  0  0  0  0  0  0  0  0  0  0  0
    3.8313  -11.4199   -1.0011 H   0  0  0  0  0  0  0  0  0  0  0  0
    2.2952  -10.2268   -2.5484 H   0  0  0  0  0  0  0  0  0  0  0  0
    2.1588  -10.9047   -4.9445 H   0  0  0  0  0  0  0  0  0  0  0  0
    3.5649  -12.7817   -5.7873 H   0  0  0  0  0  0  0  0  0  0  0  0
  1  2  1  0
  2  3  1  0
  3  4  2  0
  3  5  1  0
  5  6  1  0
  5  7  1  0
  5  8  1  0
  8  9  2  0
  9 10  1  0
 10 11  1  0
 11 12  1  0
 11 13  1  0
 11 14  1  0
 10 15  2  0
 15 16  1  0
 16 17  1  0
 17 18  1  0
 17 19  1  0
 17 20  1  0
 16 21  2  0
  2 22  1  0
 22 23  2  0
 23 24  1  0
 24 25  2  0
 25 26  1  0
 26 27  1  0
 27 28  1  0
 28 29  1  0
 29 30  1  0
 29 31  1  0
 25 32  1  0
 32 33  2  0
 33 34  1  0
 34 35  2  0
 35 36  1  0
 36 37  2  0
 37 38  1  0
 38 39  2  0
 39 40  1  0
 21  8  1  0
 33 22  1  0
 39 34  1  0
 31 26  1  0
  1 41  1  0
  1 42  1  0
  1 43  1  0
  6 44  1  0
  6 45  1  0
  6 46  1  0
  7 47  1  0
  7 48  1  0
  7 49  1  0
  9 50  1  0
 15 51  1  0
 21 52  1  0
 23 53  1  0
 27 54  1  0
 27 55  1  0
 28 56  1  0
 28 57  1  0
 29 58  1  1
 30 59  1  0
 31 60  1  0
 31 61  1  0
 32 62  1  0
 35 63  1  0
 36 64  1  0
 37 65  1  0
 38 66  1  0
M  END
>  <meeko>  (5) 
{"is_sidechain": [false], "free_energy": -7.635, "intermolecular_energy": -12.638, "internal_energy": -2.643}

$$$$
LIB_CYDMWSSMUBQXRD__M_PUB_ALL__e8__s20260927
     RDKit          3D

 66 69  0  0  0  0  0  0  0  0999 V2000
    5.1220  -14.7300   -3.7210 C   0  0  0  0  0  0  0  0  0  0  0  0
    5.4580  -13.3710   -3.2980 N   0  0  0  0  0  0  0  0  0  0  0  0
    4.6270  -12.2520   -3.4520 C   0  0  0  0  0  0  0  0  0  0  0  0
    5.0800  -11.1040   -3.3450 O   0  0  0  0  0  0  0  0  0  0  0  0
    3.1080  -12.4230   -3.7970 C   0  0  0  0  0  0  0  0  0  0  0  0
    2.9580  -13.4910   -4.9050 C   0  0  0  0  0  0  0  0  0  0  0  0
    2.6020  -11.0930   -4.4260 C   0  0  0  0  0  0  0  0  0  0  0  0
    2.2370  -12.6420   -2.5450 C   0  0  0  0  0  0  0  0  0  0  0  0
    1.8440  -11.5770   -1.7150 C   0  0  0  0  0  0  0  0  0  0  0  0
    1.0510  -11.7880   -0.5730 C   0  0  0  0  0  0  0  0  0  0  0  0
    0.6510  -10.6210    0.3020 C   0  0  0  0  0  0  0  0  0  0  0  0
   -0.4460  -10.8750    1.0660 F   0  0  0  0  0  0  0  0  0  0  0  0
    1.6390  -10.2600    1.1650 F   0  0  0  0  0  0  0  0  0  0  0  0
    0.3530   -9.5030   -0.4170 F   0  0  0  0  0  0  0  0  0  0  0  0
    0.6720  -13.0960   -0.2380 C   0  0  0  0  0  0  0  0  0  0  0  0
    1.0730  -14.1850   -1.0250 C   0  0  0  0  0  0  0  0  0  0  0  0
    0.6520  -15.5920   -0.6670 C   0  0  0  0  0  0  0  0  0  0  0  0
    0.4920  -15.7520    0.6760 F   0  0  0  0  0  0  0  0  0  0  0  0
   -0.5300  -15.9570   -1.2350 F   0  0  0  0  0  0  0  0  0  0  0  0
    1.5590  -16.5310   -1.0530 F   0  0  0  0  0  0  0  0  0  0  0  0
    1.8490  -13.9440   -2.1720 C   0  0  0  0  0  0  0  0  0  0  0  0
    6.7260  -13.2200   -2.6170 C   0  0  0  0  0  0  0  0  0  0  0  0
    7.8880  -12.9870   -3.3510 C   0  0  0  0  0  0  0  0  0  0  0  0
    9.1140  -12.7460   -2.8240 N   0  0  0  0  0  0  0  0  0  0  0  0
    9.2570  -12.7470   -1.4870 C   0  0  0  0  0  0  0  0  0  0  0  0
   10.5020  -12.5070   -0.9790 N   0  0  0  0  0  0  0  0  0  0  0  0
   11.6400  -12.2940   -1.8660 C   0  0  0  0  0  0  0  0  0  0  0  0
   12.7530  -11.8110   -0.9330 C   0  0  0  0  0  0  0  0  0  0  0  0
   12.3890  -12.4380    0.4060 C   0  0  2  0  0  0  0  0  0  0  0  0
   12.8230  -13.8000    0.4330 O   0  0  0  0  0  0  0  0  0  0  0  0
   10.8550  -12.3520    0.4260 C   0  0  0  0  0  0  0  0  0  0  0  0
    8.1560  -13.0040   -0.6760 C   0  0  0  0  0  0  0  0  0  0  0  0
    6.8730  -13.2450   -1.2170 C   0  0  0  0  0  0  0  0  0  0  0  0
    5.7980  -13.6410   -0.2830 C   0  0  0  0  0  0  0  0  0  0  0  0
    5.0160  -12.6330    0.3160 C   0  0  0  0  0  0  0  0  0  0  0  0
    3.9760  -12.9480    1.1940 C   0  0  0  0  0  0  0  0  0  0  0  0
    3.6920  -14.2780    1.4880 C   0  0  0  0  0  0  0  0  0  0  0  0
    4.4470  -15.2940    0.9030 C   0  0  0  0  0  0  0  0  0  0  0  0
    5.4900  -14.9820    0.0230 C   0  0  0  0  0  0  0  0  0  0  0  0
    6.3910  -16.3030   -0.6380 Cl  0  0  0  0  0  0  0  0  0  0  0  0
    4.9658  -15.3619   -2.8343 H   0  0  0  0  0  0  0  0  0  0  0  0
    4.2019  -14.7096   -4.3234 H   0  0  0  0  0  0  0  0  0  0  0  0
    5.9456  -15.1407   -4.3234 H   0  0  0  0  0  0  0  0  0  0  0  0
    2.8191  -14.4802   -4.4444 H   0  0  0  0  0  0  0  0  0  0  0  0
    2.0847  -13.2514   -5.5294 H   0  0  0  0  0  0  0  0  0  0  0  0
    3.8635  -13.5012   -5.5294 H   0  0  0  0  0  0  0  0  0  0  0  0
    2.3337  -10.3877   -3.6257 H   0  0  0  0  0  0  0  0  0  0  0  0
    3.3967  -10.6561   -5.0485 H   0  0  0  0  0  0  0  0  0  0  0  0
    1.7178  -11.2949   -5.0485 H   0  0  0  0  0  0  0  0  0  0  0  0
    2.1644  -10.5548   -1.9649 H   0  0  0  0  0  0  0  0  0  0  0  0
    0.0520  -13.2699    0.6538 H   0  0  0  0  0  0  0  0  0  0  0  0
    2.1617  -14.7948   -2.7951 H   0  0  0  0  0  0  0  0  0  0  0  0
    7.8035  -12.9997   -4.4477 H   0  0  0  0  0  0  0  0  0  0  0  0
   11.9275  -13.2313   -2.3648 H   0  0  0  0  0  0  0  0  0  0  0  0
   11.4209  -11.5760   -2.6700 H   0  0  0  0  0  0  0  0  0  0  0  0
   13.7363  -12.1633   -1.2781 H   0  0  0  0  0  0  0  0  0  0  0  0
   12.8287  -10.7146   -0.8870 H   0  0  0  0  0  0  0  0  0  0  0  0
   12.8543  -11.9430    1.2712 H   0  0  0  0  0  0  0  0  0  0  0  0
   12.1740  -14.3120   -0.0870 H   0  0  0  0  0  0  0  0  0  0  0  0
   10.4213  -13.1593    1.0344 H   0  0  0  0  0  0  0  0  0  0  0  0
   10.4780  -11.4180    0.8681 H   0  0  0  0  0  0  0  0  0  0  0  0
    8.2879  -13.0200    0.4159 H   0  0  0  0  0  0  0  0  0  0  0  0
    5.2286  -11.5781    0.0878 H   0  0  0  0  0  0  0  0  0  0  0  0
    3.3815  -12.1443    1.6530 H   0  0  0  0  0  0  0  0  0  0  0  0
    2.8741  -14.5273    2.1800 H   0  0  0  0  0  0  0  0  0  0  0  0
    4.2219  -16.3456    1.1341 H   0  0  0  0  0  0  0  0  0  0  0  0
  1  2  1  0
  2  3  1  0
  3  4  2  0
  3  5  1  0
  5  6  1  0
  5  7  1  0
  5  8  1  0
  8  9  2  0
  9 10  1  0
 10 11  1  0
 11 12  1  0
 11 13  1  0
 11 14  1  0
 10 15  2  0
 15 16  1  0
 16 17  1  0
 17 18  1  0
 17 19  1  0
 17 20  1  0
 16 21  2  0
  2 22  1  0
 22 23  2  0
 23 24  1  0
 24 25  2  0
 25 26  1  0
 26 27  1  0
 27 28  1  0
 28 29  1  0
 29 30  1  0
 29 31  1  0
 25 32  1  0
 32 33  2  0
 33 34  1  0
 34 35  2  0
 35 36  1  0
 36 37  2  0
 37 38  1  0
 38 39  2  0
 39 40  1  0
 21  8  1  0
 33 22  1  0
 39 34  1  0
 31 26  1  0
  1 41  1  0
  1 42  1  0
  1 43  1  0
  6 44  1  0
  6 45  1  0
  6 46  1  0
  7 47  1  0
  7 48  1  0
  7 49  1  0
  9 50  1  0
 15 51  1  0
 21 52  1  0
 23 53  1  0
 27 54  1  0
 27 55  1  0
 28 56  1  0
 28 57  1  0
 29 58  1  1
 30 59  1  0
 31 60  1  0
 31 61  1  0
 32 62  1  0
 35 63  1  0
 36 64  1  0
 37 65  1  0
 38 66  1  0
M  END
>  <meeko>  (6) 
{"is_sidechain": [false], "free_energy": -7.619, "intermolecular_energy": -11.957, "internal_energy": -3.301}

$$$$
LIB_CYDMWSSMUBQXRD__M_PUB_ALL__e8__s20260927
     RDKit          3D

 66 69  0  0  0  0  0  0  0  0999 V2000
    6.4240  -14.1110   -4.0030 C   0  0  0  0  0  0  0  0  0  0  0  0
    5.3810  -13.7260   -3.0520 N   0  0  0  0  0  0  0  0  0  0  0  0
    4.7030  -12.4990   -3.0560 C   0  0  0  0  0  0  0  0  0  0  0  0
    5.2810  -11.4520   -2.7280 O   0  0  0  0  0  0  0  0  0  0  0  0
    3.2060  -12.4110   -3.5080 C   0  0  0  0  0  0  0  0  0  0  0  0
    2.9730  -13.3920   -4.6790 C   0  0  0  0  0  0  0  0  0  0  0  0
    2.9590  -10.9920   -4.0940 C   0  0  0  0  0  0  0  0  0  0  0  0
    2.2220  -12.5440   -2.3280 C   0  0  0  0  0  0  0  0  0  0  0  0
    1.9490  -11.4710   -1.4610 C   0  0  0  0  0  0  0  0  0  0  0  0
    1.0510  -11.6040   -0.3870 C   0  0  0  0  0  0  0  0  0  0  0  0
    0.7840  -10.4320    0.5300 C   0  0  0  0  0  0  0  0  0  0  0  0
    0.4540   -9.2930   -0.1380 F   0  0  0  0  0  0  0  0  0  0  0  0
   -0.2390  -10.6740    1.3940 F   0  0  0  0  0  0  0  0  0  0  0  0
    1.8600  -10.1120    1.3020 F   0  0  0  0  0  0  0  0  0  0  0  0
    0.4420  -12.8460   -0.1570 C   0  0  0  0  0  0  0  0  0  0  0  0
    0.7170  -13.9460   -0.9810 C   0  0  0  0  0  0  0  0  0  0  0  0
    0.0480  -15.2790   -0.7360 C   0  0  0  0  0  0  0  0  0  0  0  0
   -0.9370  -15.5320   -1.6420 F   0  0  0  0  0  0  0  0  0  0  0  0
    0.9090  -16.3310   -0.8110 F   0  0  0  0  0  0  0  0  0  0  0  0
   -0.5380  -15.3620    0.4900 F   0  0  0  0  0  0  0  0  0  0  0  0
    1.6020  -13.7810   -2.0600 C   0  0  0  0  0  0  0  0  0  0  0  0
    5.0050  -14.7370   -2.0880 C   0  0  0  0  0  0  0  0  0  0  0  0
    4.4090  -15.9220   -2.5180 C   0  0  0  0  0  0  0  0  0  0  0  0
    4.0900  -16.9740   -1.7230 N   0  0  0  0  0  0  0  0  0  0  0  0
    4.3370  -16.8870   -0.4040 C   0  0  0  0  0  0  0  0  0  0  0  0
    4.0030  -17.9570    0.3790 N   0  0  0  0  0  0  0  0  0  0  0  0
    4.9940  -18.5790    1.2510 C   0  0  0  0  0  0  0  0  0  0  0  0
    4.1740  -19.5350    2.1200 C   0  0  0  0  0  0  0  0  0  0  0  0
    2.9810  -19.8790    1.2400 C   0  0  2  0  0  0  0  0  0  0  0  0
    3.3510  -20.8930    0.3010 O   0  0  0  0  0  0  0  0  0  0  0  0
    2.6820  -18.5530    0.5220 C   0  0  0  0  0  0  0  0  0  0  0  0
    4.9010  -15.7270    0.1190 C   0  0  0  0  0  0  0  0  0  0  0  0
    5.2460  -14.6320   -0.7050 C   0  0  0  0  0  0  0  0  0  0  0  0
    5.7110  -13.3960   -0.0420 C   0  0  0  0  0  0  0  0  0  0  0  0
    4.7690  -12.5930    0.6310 C   0  0  0  0  0  0  0  0  0  0  0  0
    5.1520  -11.4220    1.2890 C   0  0  0  0  0  0  0  0  0  0  0  0
    6.4870  -11.0320    1.2930 C   0  0  0  0  0  0  0  0  0  0  0  0
    7.4410  -11.8120    0.6410 C   0  0  0  0  0  0  0  0  0  0  0  0
    7.0590  -12.9860   -0.0200 C   0  0  0  0  0  0  0  0  0  0  0  0
    8.3020  -13.8820   -0.8250 Cl  0  0  0  0  0  0  0  0  0  0  0  0
    7.3178  -14.4409   -3.4532 H   0  0  0  0  0  0  0  0  0  0  0  0
    6.0582  -14.9333   -4.6354 H   0  0  0  0  0  0  0  0  0  0  0  0
    6.6802  -13.2482   -4.6354 H   0  0  0  0  0  0  0  0  0  0  0  0
    2.7361  -14.3894   -4.2802 H   0  0  0  0  0  0  0  0  0  0  0  0
    2.1347  -13.0349   -5.2952 H   0  0  0  0  0  0  0  0  0  0  0  0
    3.8824  -13.4500   -5.2952 H   0  0  0  0  0  0  0  0  0  0  0  0
    2.8337  -10.2724   -3.2715 H   0  0  0  0  0  0  0  0  0  0  0  0
    3.8191  -10.6959   -4.7125 H   0  0  0  0  0  0  0  0  0  0  0  0
    2.0494  -11.0039   -4.7125 H   0  0  0  0  0  0  0  0  0  0  0  0
    2.4494  -10.5055   -1.6267 H   0  0  0  0  0  0  0  0  0  0  0  0
   -0.2611  -12.9585    0.6815 H   0  0  0  0  0  0  0  0  0  0  0  0
    1.8165  -14.6400   -2.7127 H   0  0  0  0  0  0  0  0  0  0  0  0
    4.1785  -16.0112   -3.5899 H   0  0  0  0  0  0  0  0  0  0  0  0
    5.7421  -19.1300    0.6622 H   0  0  0  0  0  0  0  0  0  0  0  0
    5.5564  -17.8436    1.8450 H   0  0  0  0  0  0  0  0  0  0  0  0
    4.7534  -20.4368    2.3672 H   0  0  0  0  0  0  0  0  0  0  0  0
    3.8822  -19.0942    3.0846 H   0  0  0  0  0  0  0  0  0  0  0  0
    2.1151  -20.2668    1.7966 H   0  0  0  0  0  0  0  0  0  0  0  0
    4.3150  -20.8150    0.1690 H   0  0  0  0  0  0  0  0  0  0  0  0
    2.2190  -18.7300   -0.4600 H   0  0  0  0  0  0  0  0  0  0  0  0
    1.9729  -17.9132    1.0677 H   0  0  0  0  0  0  0  0  0  0  0  0
    5.0829  -15.6609    1.2018 H   0  0  0  0  0  0  0  0  0  0  0  0
    3.7111  -12.8942    0.6384 H   0  0  0  0  0  0  0  0  0  0  0  0
    4.3980  -10.8085    1.8039 H   0  0  0  0  0  0  0  0  0  0  0  0
    6.7897  -10.1094    1.8099 H   0  0  0  0  0  0  0  0  0  0  0  0
    8.4971  -11.5043    0.6458 H   0  0  0  0  0  0  0  0  0  0  0  0
  1  2  1  0
  2  3  1  0
  3  4  2  0
  3  5  1  0
  5  6  1  0
  5  7  1  0
  5  8  1  0
  8  9  2  0
  9 10  1  0
 10 11  1  0
 11 12  1  0
 11 13  1  0
 11 14  1  0
 10 15  2  0
 15 16  1  0
 16 17  1  0
 17 18  1  0
 17 19  1  0
 17 20  1  0
 16 21  2  0
  2 22  1  0
 22 23  2  0
 23 24  1  0
 24 25  2  0
 25 26  1  0
 26 27  1  0
 27 28  1  0
 28 29  1  0
 29 30  1  0
 29 31  1  0
 25 32  1  0
 32 33  2  0
 33 34  1  0
 34 35  2  0
 35 36  1  0
 36 37  2  0
 37 38  1  0
 38 39  2  0
 39 40  1  0
 21  8  1  0
 33 22  1  0
 39 34  1  0
 31 26  1  0
  1 41  1  0
  1 42  1  0
  1 43  1  0
  6 44  1  0
  6 45  1  0
  6 46  1  0
  7 47  1  0
  7 48  1  0
  7 49  1  0
  9 50  1  0
 15 51  1  0
 21 52  1  0
 23 53  1  0
 27 54  1  0
 27 55  1  0
 28 56  1  0
 28 57  1  0
 29 58  1  1
 30 59  1  0
 31 60  1  0
 31 61  1  0
 32 62  1  0
 35 63  1  0
 36 64  1  0
 37 65  1  0
 38 66  1  0
M  END
>  <meeko>  (7) 
{"is_sidechain": [false], "free_energy": -7.582, "intermolecular_energy": -11.48, "internal_energy": -3.722}

$$$$
LIB_CYDMWSSMUBQXRD__M_PUB_ALL__e8__s20260927
     RDKit          3D

 66 69  0  0  0  0  0  0  0  0999 V2000
    8.2010  -15.1950   -0.5540 C   0  0  0  0  0  0  0  0  0  0  0  0
    6.9170  -14.5750   -0.8810 N   0  0  0  0  0  0  0  0  0  0  0  0
    5.9790  -14.1250    0.0600 C   0  0  0  0  0  0  0  0  0  0  0  0
    5.4170  -14.9190    0.8270 O   0  0  0  0  0  0  0  0  0  0  0  0
    5.6420  -12.6000    0.1890 C   0  0  0  0  0  0  0  0  0  0  0  0
    6.9060  -11.7730   -0.1400 C   0  0  0  0  0  0  0  0  0  0  0  0
    5.3210  -12.3000    1.6810 C   0  0  0  0  0  0  0  0  0  0  0  0
    4.3730  -12.2060   -0.5910 C   0  0  0  0  0  0  0  0  0  0  0  0
    4.4230  -11.7790   -1.9300 C   0  0  0  0  0  0  0  0  0  0  0  0
    3.2580  -11.4190   -2.6310 C   0  0  0  0  0  0  0  0  0  0  0  0
    3.3480  -10.9580   -4.0680 C   0  0  0  0  0  0  0  0  0  0  0  0
    4.5900  -11.1130   -4.6040 F   0  0  0  0  0  0  0  0  0  0  0  0
    2.4960  -11.6370   -4.8840 F   0  0  0  0  0  0  0  0  0  0  0  0
    3.0410   -9.6390   -4.2180 F   0  0  0  0  0  0  0  0  0  0  0  0
    2.0240  -11.4560   -1.9680 C   0  0  0  0  0  0  0  0  0  0  0  0
    1.9410  -11.8460   -0.6240 C   0  0  0  0  0  0  0  0  0  0  0  0
    0.6060  -11.8960    0.0840 C   0  0  0  0  0  0  0  0  0  0  0  0
   -0.0850  -13.0320   -0.2080 F   0  0  0  0  0  0  0  0  0  0  0  0
    0.7180  -11.8590    1.4390 F   0  0  0  0  0  0  0  0  0  0  0  0
   -0.2120  -10.8610   -0.2530 F   0  0  0  0  0  0  0  0  0  0  0  0
    3.1170  -12.2200    0.0480 C   0  0  0  0  0  0  0  0  0  0  0  0
    6.6570  -14.3730   -2.2900 C   0  0  0  0  0  0  0  0  0  0  0  0
    7.4960  -13.5520   -3.0430 C   0  0  0  0  0  0  0  0  0  0  0  0
    7.4050  -13.3530   -4.3810 N   0  0  0  0  0  0  0  0  0  0  0  0
    6.4200  -13.9660   -5.0620 C   0  0  0  0  0  0  0  0  0  0  0  0
    6.3450  -13.7470   -6.4080 N   0  0  0  0  0  0  0  0  0  0  0  0
    7.3040  -14.3640   -7.3180 C   0  0  0  0  0  0  0  0  0  0  0  0
    6.7270  -14.0890   -8.7080 C   0  0  0  0  0  0  0  0  0  0  0  0
    5.9260  -12.8090   -8.5130 C   0  0  2  0  0  0  0  0  0  0  0  0
    6.8050  -11.6810   -8.5470 O   0  0  0  0  0  0  0  0  0  0  0  0
    5.3200  -12.9870   -7.1120 C   0  0  0  0  0  0  0  0  0  0  0  0
    5.5150  -14.7790   -4.3850 C   0  0  0  0  0  0  0  0  0  0  0  0
    5.6110  -15.0000   -2.9930 C   0  0  0  0  0  0  0  0  0  0  0  0
    4.5260  -15.7650   -2.3450 C   0  0  0  0  0  0  0  0  0  0  0  0
    3.2660  -15.1540   -2.1880 C   0  0  0  0  0  0  0  0  0  0  0  0
    2.1990  -15.8330   -1.5970 C   0  0  0  0  0  0  0  0  0  0  0  0
    2.3660  -17.1430   -1.1550 C   0  0  0  0  0  0  0  0  0  0  0  0
    3.6000  -17.7730   -1.3050 C   0  0  0  0  0  0  0  0  0  0  0  0
    4.6720  -17.0940   -1.8970 C   0  0  0  0  0  0  0  0  0  0  0  0
    6.1760  -17.9420   -2.0210 Cl  0  0  0  0  0  0  0  0  0  0  0  0
    8.3141  -15.2496    0.5388 H   0  0  0  0  0  0  0  0  0  0  0  0
    8.2367  -16.2096   -0.9775 H   0  0  0  0  0  0  0  0  0  0  0  0
    9.0178  -14.5920   -0.9775 H   0  0  0  0  0  0  0  0  0  0  0  0
    7.3905  -11.4560    0.7953 H   0  0  0  0  0  0  0  0  0  0  0  0
    7.6052  -12.3888   -0.7247 H   0  0  0  0  0  0  0  0  0  0  0  0
    6.6217  -10.8857   -0.7247 H   0  0  0  0  0  0  0  0  0  0  0  0
    5.9722  -12.9086    2.3257 H   0  0  0  0  0  0  0  0  0  0  0  0
    5.4952  -11.2334    1.8863 H   0  0  0  0  0  0  0  0  0  0  0  0
    4.2686  -12.5458    1.8863 H   0  0  0  0  0  0  0  0  0  0  0  0
    5.3957  -11.7253   -2.4409 H   0  0  0  0  0  0  0  0  0  0  0  0
    1.1084  -11.1753   -2.5092 H   0  0  0  0  0  0  0  0  0  0  0  0
    3.0556  -12.5321    1.1010 H   0  0  0  0  0  0  0  0  0  0  0  0
    8.2975  -13.0223   -2.5073 H   0  0  0  0  0  0  0  0  0  0  0  0
    8.2974  -13.9043   -7.2093 H   0  0  0  0  0  0  0  0  0  0  0  0
    7.4422  -15.4376   -7.1224 H   0  0  0  0  0  0  0  0  0  0  0  0
    7.5301  -13.9419   -9.4451 H   0  0  0  0  0  0  0  0  0  0  0  0
    6.1185  -14.9211   -9.0918 H   0  0  0  0  0  0  0  0  0  0  0  0
    5.1646  -12.6376   -9.2882 H   0  0  0  0  0  0  0  0  0  0  0  0
    7.1120  -11.5920   -9.4700 H   0  0  0  0  0  0  0  0  0  0  0  0
    5.1471  -12.0139   -6.6290 H   0  0  0  0  0  0  0  0  0  0  0  0
    4.3398  -13.4861   -7.1229 H   0  0  0  0  0  0  0  0  0  0  0  0
    4.7036  -15.2622   -4.9490 H   0  0  0  0  0  0  0  0  0  0  0  0
    3.1203  -14.1214   -2.5381 H   0  0  0  0  0  0  0  0  0  0  0  0
    1.2261  -15.3332   -1.4804 H   0  0  0  0  0  0  0  0  0  0  0  0
    1.5262  -17.6790   -0.6887 H   0  0  0  0  0  0  0  0  0  0  0  0
    3.7324  -18.8080   -0.9569 H   0  0  0  0  0  0  0  0  0  0  0  0
  1  2  1  0
  2  3  1  0
  3  4  2  0
  3  5  1  0
  5  6  1  0
  5  7  1  0
  5  8  1  0
  8  9  2  0
  9 10  1  0
 10 11  1  0
 11 12  1  0
 11 13  1  0
 11 14  1  0
 10 15  2  0
 15 16  1  0
 16 17  1  0
 17 18  1  0
 17 19  1  0
 17 20  1  0
 16 21  2  0
  2 22  1  0
 22 23  2  0
 23 24  1  0
 24 25  2  0
 25 26  1  0
 26 27  1  0
 27 28  1  0
 28 29  1  0
 29 30  1  0
 29 31  1  0
 25 32  1  0
 32 33  2  0
 33 34  1  0
 34 35  2  0
 35 36  1  0
 36 37  2  0
 37 38  1  0
 38 39  2  0
 39 40  1  0
 21  8  1  0
 33 22  1  0
 39 34  1  0
 31 26  1  0
  1 41  1  0
  1 42  1  0
  1 43  1  0
  6 44  1  0
  6 45  1  0
  6 46  1  0
  7 47  1  0
  7 48  1  0
  7 49  1  0
  9 50  1  0
 15 51  1  0
 21 52  1  0
 23 53  1  0
 27 54  1  0
 27 55  1  0
 28 56  1  0
 28 57  1  0
 29 58  1  6
 30 59  1  0
 31 60  1  0
 31 61  1  0
 32 62  1  0
 35 63  1  0
 36 64  1  0
 37 65  1  0
 38 66  1  0
M  END
>  <meeko>  (8) 
{"is_sidechain": [false], "free_energy": -7.576, "intermolecular_energy": -11.353, "internal_energy": -3.839}

$$$$
LIB_CYDMWSSMUBQXRD__M_PUB_ALL__e8__s20260927
     RDKit          3D

 66 69  0  0  0  0  0  0  0  0999 V2000
    5.6890  -11.8980   -0.0970 C   0  0  0  0  0  0  0  0  0  0  0  0
    5.4990  -13.0900   -0.9230 N   0  0  0  0  0  0  0  0  0  0  0  0
    6.4890  -13.6790   -1.7240 C   0  0  0  0  0  0  0  0  0  0  0  0
    6.7010  -14.8990   -1.6770 O   0  0  0  0  0  0  0  0  0  0  0  0
    7.3300  -12.8150   -2.7240 C   0  0  0  0  0  0  0  0  0  0  0  0
    6.6290  -11.4520   -2.9280 C   0  0  0  0  0  0  0  0  0  0  0  0
    7.2990  -13.5150   -4.1130 C   0  0  0  0  0  0  0  0  0  0  0  0
    8.8190  -12.7410   -2.3350 C   0  0  0  0  0  0  0  0  0  0  0  0
    9.8450  -13.0020   -3.2610 C   0  0  0  0  0  0  0  0  0  0  0  0
   11.2020  -12.9340   -2.8960 C   0  0  0  0  0  0  0  0  0  0  0  0
   12.2790  -13.2260   -3.9150 C   0  0  0  0  0  0  0  0  0  0  0  0
   13.1210  -14.2250   -3.5350 F   0  0  0  0  0  0  0  0  0  0  0  0
   11.7650  -13.6010   -5.1180 F   0  0  0  0  0  0  0  0  0  0  0  0
   13.0730  -12.1470   -4.1660 F   0  0  0  0  0  0  0  0  0  0  0  0
   11.5350  -12.6320   -1.5680 C   0  0  0  0  0  0  0  0  0  0  0  0
   10.5380  -12.3990   -0.6110 C   0  0  0  0  0  0  0  0  0  0  0  0
   10.9030  -12.0610    0.8170 C   0  0  0  0  0  0  0  0  0  0  0  0
   11.5130  -10.8480    0.9160 F   0  0  0  0  0  0  0  0  0  0  0  0
    9.8260  -12.0130    1.6470 F   0  0  0  0  0  0  0  0  0  0  0  0
   11.7630  -12.9610    1.3710 F   0  0  0  0  0  0  0  0  0  0  0  0
    9.1910  -12.4530   -1.0070 C   0  0  0  0  0  0  0  0  0  0  0  0
    4.1990  -13.7170   -0.8330 C   0  0  0  0  0  0  0  0  0  0  0  0
    3.9500  -14.6690    0.1550 C   0  0  0  0  0  0  0  0  0  0  0  0
    2.7530  -15.2620    0.3910 N   0  0  0  0  0  0  0  0  0  0  0  0
    1.7060  -14.9410   -0.3890 C   0  0  0  0  0  0  0  0  0  0  0  0
    0.5120  -15.5540   -0.1360 N   0  0  0  0  0  0  0  0  0  0  0  0
    0.4670  -16.9410    0.3110 C   0  0  0  0  0  0  0  0  0  0  0  0
   -0.9930  -17.1520    0.7220 C   0  0  0  0  0  0  0  0  0  0  0  0
   -1.7510  -16.1560   -0.1440 C   0  0  2  0  0  0  0  0  0  0  0  0
   -1.9390  -16.7010   -1.4530 O   0  0  0  0  0  0  0  0  0  0  0  0
   -0.8100  -14.9420   -0.1870 C   0  0  0  0  0  0  0  0  0  0  0  0
    1.8710  -14.0230   -1.4220 C   0  0  0  0  0  0  0  0  0  0  0  0
    3.1120  -13.3940   -1.6680 C   0  0  0  0  0  0  0  0  0  0  0  0
    3.2220  -12.5400   -2.8690 C   0  0  0  0  0  0  0  0  0  0  0  0
    2.9040  -11.1710   -2.7570 C   0  0  0  0  0  0  0  0  0  0  0  0
    3.0040  -10.3120   -3.8540 C   0  0  0  0  0  0  0  0  0  0  0  0
    3.4310  -10.8020   -5.0850 C   0  0  0  0  0  0  0  0  0  0  0  0
    3.7580  -12.1500   -5.2200 C   0  0  0  0  0  0  0  0  0  0  0  0
    3.6580  -13.0140   -4.1220 C   0  0  0  0  0  0  0  0  0  0  0  0
    4.0590  -14.6770   -4.3830 Cl  0  0  0  0  0  0  0  0  0  0  0  0
    5.6444  -12.1776    0.9659 H   0  0  0  0  0  0  0  0  0  0  0  0
    6.6697  -11.4514   -0.3179 H   0  0  0  0  0  0  0  0  0  0  0  0
    4.8958  -11.1686   -0.3179 H   0  0  0  0  0  0  0  0  0  0  0  0
    6.4002  -11.0071   -1.9484 H   0  0  0  0  0  0  0  0  0  0  0  0
    7.2928  -10.7788   -3.4904 H   0  0  0  0  0  0  0  0  0  0  0  0
    5.6954  -11.6004   -3.4904 H   0  0  0  0  0  0  0  0  0  0  0  0
    7.2507  -14.6050   -3.9733 H   0  0  0  0  0  0  0  0  0  0  0  0
    6.4149  -13.1777   -4.6739 H   0  0  0  0  0  0  0  0  0  0  0  0
    8.2094  -13.2572   -4.6739 H   0  0  0  0  0  0  0  0  0  0  0  0
    9.5800  -13.2656   -4.2955 H   0  0  0  0  0  0  0  0  0  0  0  0
   12.5933  -12.5772   -1.2732 H   0  0  0  0  0  0  0  0  0  0  0  0
    8.4057  -12.2653   -0.2600 H   0  0  0  0  0  0  0  0  0  0  0  0
    4.7940  -14.9635    0.7960 H   0  0  0  0  0  0  0  0  0  0  0  0
    0.7458  -17.6238   -0.5051 H   0  0  0  0  0  0  0  0  0  0  0  0
    1.1708  -17.1438    1.1317 H   0  0  0  0  0  0  0  0  0  0  0  0
   -1.3161  -18.1822    0.5117 H   0  0  0  0  0  0  0  0  0  0  0  0
   -1.1621  -17.0009    1.7984 H   0  0  0  0  0  0  0  0  0  0  0  0
   -2.7515  -15.9053    0.2384 H   0  0  0  0  0  0  0  0  0  0  0  0
   -1.6720  -17.6390   -1.4080 H   0  0  0  0  0  0  0  0  0  0  0  0
   -0.9454  -14.3688   -1.1161 H   0  0  0  0  0  0  0  0  0  0  0  0
   -0.9886  -14.2244    0.6273 H   0  0  0  0  0  0  0  0  0  0  0  0
    1.0117  -13.7805   -2.0645 H   0  0  0  0  0  0  0  0  0  0  0  0
    2.5709  -10.7719   -1.7876 H   0  0  0  0  0  0  0  0  0  0  0  0
    2.7453   -9.2484   -3.7451 H   0  0  0  0  0  0  0  0  0  0  0  0
    3.5102  -10.1265   -5.9495 H   0  0  0  0  0  0  0  0  0  0  0  0
    4.0960  -12.5370   -6.1926 H   0  0  0  0  0  0  0  0  0  0  0  0
  1  2  1  0
  2  3  1  0
  3  4  2  0
  3  5  1  0
  5  6  1  0
  5  7  1  0
  5  8  1  0
  8  9  2  0
  9 10  1  0
 10 11  1  0
 11 12  1  0
 11 13  1  0
 11 14  1  0
 10 15  2  0
 15 16  1  0
 16 17  1  0
 17 18  1  0
 17 19  1  0
 17 20  1  0
 16 21  2  0
  2 22  1  0
 22 23  2  0
 23 24  1  0
 24 25  2  0
 25 26  1  0
 26 27  1  0
 27 28  1  0
 28 29  1  0
 29 30  1  0
 29 31  1  0
 25 32  1  0
 32 33  2  0
 33 34  1  0
 34 35  2  0
 35 36  1  0
 36 37  2  0
 37 38  1  0
 38 39  2  0
 39 40  1  0
 21  8  1  0
 33 22  1  0
 39 34  1  0
 31 26  1  0
  1 41  1  0
  1 42  1  0
  1 43  1  0
  6 44  1  0
  6 45  1  0
  6 46  1  0
  7 47  1  0
  7 48  1  0
  7 49  1  0
  9 50  1  0
 15 51  1  0
 21 52  1  0
 23 53  1  0
 27 54  1  0
 27 55  1  0
 28 56  1  0
 28 57  1  0
 29 58  1  1
 30 59  1  0
 31 60  1  0
 31 61  1  0
 32 62  1  0
 35 63  1  0
 36 64  1  0
 37 65  1  0
 38 66  1  0
M  END
>  <meeko>  (9) 
{"is_sidechain": [false], "free_energy": -7.5, "intermolecular_energy": -12.621, "internal_energy": -2.458}

$$$$
