LIB_LFIZDKRIFIBADR__M_PUB_ALL__e8__s20260927
     RDKit          3D

 73 78  0  0  0  0  0  0  0  0999 V2000
   -9.4650  -17.2920    5.4950 C   0  0  0  0  0  0  0  0  0  0  0  0
   -8.4640  -16.2390    5.8780 C   0  0  0  0  0  0  0  0  0  0  0  0
   -7.6070  -15.7550    4.8650 C   0  0  0  0  0  0  0  0  0  0  0  0
   -6.5770  -14.8290    5.1190 C   0  0  0  0  0  0  0  0  0  0  0  0
   -5.6690  -14.3980    4.0480 C   0  0  0  0  0  0  0  0  0  0  0  0
   -5.9720  -13.3320    3.1710 C   0  0  0  0  0  0  0  0  0  0  0  0
   -5.1040  -12.9240    2.1500 C   0  0  0  0  0  0  0  0  0  0  0  0
   -3.8790  -13.5680    1.9500 C   0  0  0  0  0  0  0  0  0  0  0  0
   -3.5490  -14.6320    2.7970 C   0  0  0  0  0  0  0  0  0  0  0  0
   -2.4380  -15.4300    2.8260 N   0  0  0  0  0  0  0  0  0  0  0  0
   -2.6580  -16.2600    3.8220 C   0  0  0  0  0  0  0  0  0  0  0  0
   -1.9240  -17.2750    4.3130 N   0  0  0  0  0  0  0  0  0  0  0  0
   -1.1850  -17.3260    5.5070 C   0  0  0  0  0  0  0  0  0  0  0  0
   -0.0150  -16.6020    5.7380 C   0  0  0  0  0  0  0  0  0  0  0  0
    0.6840  -16.7020    6.9520 C   0  0  0  0  0  0  0  0  0  0  0  0
    0.2510  -17.5370    7.9890 C   0  0  0  0  0  0  0  0  0  0  0  0
    0.9310  -17.6480    9.2020 N   0  0  0  0  0  0  0  0  0  0  0  0
    0.3410  -18.5350   10.2220 C   0  0  0  0  0  0  0  0  0  0  0  0
    0.8720  -18.2050   11.6330 C   0  0  0  0  0  0  0  0  0  0  0  0
    2.3940  -18.1410   11.6760 N   0  0  0  0  0  0  0  0  0  0  0  0
    3.0540  -19.4860   11.6170 C   0  0  0  0  0  0  0  0  0  0  0  0
    2.9120  -17.1590   10.6320 C   0  0  0  0  0  0  0  0  0  0  0  0
    2.3970  -17.4940    9.2180 C   0  0  0  0  0  0  0  0  0  0  0  0
   -0.9280  -18.2560    7.7560 C   0  0  0  0  0  0  0  0  0  0  0  0
   -1.6300  -18.1550    6.5440 C   0  0  0  0  0  0  0  0  0  0  0  0
   -3.8530  -16.0570    4.4660 O   0  0  0  0  0  0  0  0  0  0  0  0
   -4.4320  -15.0080    3.7980 C   0  0  0  0  0  0  0  0  0  0  0  0
   -6.4270  -14.3760    6.4360 C   0  0  0  0  0  0  0  0  0  0  0  0
   -7.2770  -14.8180    7.4530 C   0  0  0  0  0  0  0  0  0  0  0  0
   -8.3080  -15.7310    7.1790 C   0  0  0  0  0  0  0  0  0  0  0  0
   -9.1670  -16.1010    8.3310 C   0  0  0  0  0  0  0  0  0  0  0  0
  -10.3250  -15.7400    8.4340 O   0  0  0  0  0  0  0  0  0  0  0  0
   -8.7220  -17.0430    9.3680 N   0  0  0  0  0  0  0  0  0  0  0  0
   -9.8910  -17.7880    9.9860 C   0  0  0  0  0  0  0  0  0  0  0  0
   -9.3520  -18.7470   11.0530 C   0  0  0  0  0  0  0  0  0  0  0  0
   -8.3980  -19.6560   10.4900 O   0  0  0  0  0  0  0  0  0  0  0  0
   -7.2770  -18.9820    9.9090 C   0  0  0  0  0  0  0  0  0  0  0  0
   -7.7240  -18.0290    8.7950 C   0  0  0  0  0  0  0  0  0  0  0  0
   -9.8914  -17.7406    6.4044 H   0  0  0  0  0  0  0  0  0  0  0  0
  -10.2692  -16.8344    4.9001 H   0  0  0  0  0  0  0  0  0  0  0  0
   -8.9673  -18.0720    4.9001 H   0  0  0  0  0  0  0  0  0  0  0  0
   -7.7500  -16.1161    3.8358 H   0  0  0  0  0  0  0  0  0  0  0  0
   -6.9276  -12.8015    3.2951 H   0  0  0  0  0  0  0  0  0  0  0  0
   -5.3898  -12.0861    1.4971 H   0  0  0  0  0  0  0  0  0  0  0  0
   -3.1949  -13.2477    1.1504 H   0  0  0  0  0  0  0  0  0  0  0  0
   -1.8890  -18.1120    3.7510 H   0  0  0  0  0  0  0  0  0  0  0  0
    0.3692  -15.9370    4.9505 H   0  0  0  0  0  0  0  0  0  0  0  0
    1.5984  -16.1069    7.0922 H   0  0  0  0  0  0  0  0  0  0  0  0
   -0.7521  -18.4122   10.2136 H   0  0  0  0  0  0  0  0  0  0  0  0
    0.6201  -19.5715    9.9816 H   0  0  0  0  0  0  0  0  0  0  0  0
    0.4677  -17.2306   11.9445 H   0  0  0  0  0  0  0  0  0  0  0  0
    0.5489  -19.0084   12.3114 H   0  0  0  0  0  0  0  0  0  0  0  0
    2.6380  -17.7400   12.5900 H   0  0  0  0  0  0  0  0  0  0  0  0
    3.2334  -19.8515   12.6389 H   0  0  0  0  0  0  0  0  0  0  0  0
    2.4001  -20.1923   11.0844 H   0  0  0  0  0  0  0  0  0  0  0  0
    4.0127  -19.4009   11.0844 H   0  0  0  0  0  0  0  0  0  0  0  0
    2.5780  -16.1460   10.9008 H   0  0  0  0  0  0  0  0  0  0  0  0
    4.0099  -17.2256   10.6183 H   0  0  0  0  0  0  0  0  0  0  0  0
    2.6790  -16.6812    8.5325 H   0  0  0  0  0  0  0  0  0  0  0  0
    2.8486  -18.4458    8.9016 H   0  0  0  0  0  0  0  0  0  0  0  0
   -1.3150  -18.9183    8.5444 H   0  0  0  0  0  0  0  0  0  0  0  0
   -2.5508  -18.7407    6.4061 H   0  0  0  0  0  0  0  0  0  0  0  0
   -5.6264  -13.6601    6.6736 H   0  0  0  0  0  0  0  0  0  0  0  0
   -7.1371  -14.4469    8.4790 H   0  0  0  0  0  0  0  0  0  0  0  0
   -8.2460  -16.5030   10.0910 H   0  0  0  0  0  0  0  0  0  0  0  0
  -10.5843  -17.0705   10.4491 H   0  0  0  0  0  0  0  0  0  0  0  0
  -10.4282  -18.3533    9.2102 H   0  0  0  0  0  0  0  0  0  0  0  0
   -8.8668  -18.1635   11.8493 H   0  0  0  0  0  0  0  0  0  0  0  0
  -10.1928  -19.3280   11.4596 H   0  0  0  0  0  0  0  0  0  0  0  0
   -6.7604  -18.4048   10.6900 H   0  0  0  0  0  0  0  0  0  0  0  0
   -6.6025  -19.7350    9.4754 H   0  0  0  0  0  0  0  0  0  0  0  0
   -6.8523  -17.4860    8.4009 H   0  0  0  0  0  0  0  0  0  0  0  0
   -8.1894  -18.6004    7.9784 H   0  0  0  0  0  0  0  0  0  0  0  0
  1  2  1  0
  2  3  2  0
  3  4  1  0
  4  5  1  0
  5  6  2  0
  6  7  1  0
  7  8  2  0
  8  9  1  0
  9 10  1  0
 10 11  2  0
 11 12  1  0
 12 13  1  0
 13 14  2  0
 14 15  1  0
 15 16  2  0
 16 17  1  0
 17 18  1  0
 18 19  1  0
 19 20  1  0
 20 21  1  0
 20 22  1  0
 22 23  1  0
 16 24  1  0
 24 25  2  0
 11 26  1  0
 26 27  1  0
  4 28  2  0
 28 29  1  0
 29 30  2  0
 30 31  1  0
 31 32  2  0
 31 33  1  0
 33 34  1  0
 34 35  1  0
 35 36  1  0
 36 37  1  0
 37 38  1  0
 30  2  1  0
 38 33  1  0
 27  5  1  0
 27  9  2  0
 25 13  1  0
 23 17  1  0
  1 39  1  0
  1 40  1  0
  1 41  1  0
  3 42  1  0
  6 43  1  0
  7 44  1  0
  8 45  1  0
 12 46  1  0
 14 47  1  0
 15 48  1  0
 18 49  1  0
 18 50  1  0
 19 51  1  0
 19 52  1  0
 20 53  1  0
 21 54  1  0
 21 55  1  0
 21 56  1  0
 22 57  1  0
 22 58  1  0
 23 59  1  0
 23 60  1  0
 24 61  1  0
 25 62  1  0
 28 63  1  0
 29 64  1  0
 33 65  1  0
 34 66  1  0
 34 67  1  0
 35 68  1  0
 35 69  1  0
 37 70  1  0
 37 71  1  0
 38 72  1  0
 38 73  1  0
M  CHG  2  20   1  33   1
M  END
>  <meeko>  (1) 
{"is_sidechain": [false], "free_energy": -9.05, "intermolecular_energy": -12.224, "internal_energy": -1.21}

$$$$
LIB_LFIZDKRIFIBADR__M_PUB_ALL__e8__s20260927
     RDKit          3D

 73 78  0  0  0  0  0  0  0  0999 V2000
   11.9850  -13.1390   -0.4460 C   0  0  0  0  0  0  0  0  0  0  0  0
   10.7940  -12.7170   -1.2600 C   0  0  0  0  0  0  0  0  0  0  0  0
    9.5680  -12.5500   -0.5810 C   0  0  0  0  0  0  0  0  0  0  0  0
    8.3680  -12.2370   -1.2470 C   0  0  0  0  0  0  0  0  0  0  0  0
    7.1010  -12.1310   -0.5100 C   0  0  0  0  0  0  0  0  0  0  0  0
    7.0420  -11.8430    0.8730 C   0  0  0  0  0  0  0  0  0  0  0  0
    5.8310  -11.7450    1.5720 C   0  0  0  0  0  0  0  0  0  0  0  0
    4.6090  -11.9340    0.9210 C   0  0  0  0  0  0  0  0  0  0  0  0
    4.6310  -12.2280   -0.4470 C   0  0  0  0  0  0  0  0  0  0  0  0
    3.6030  -12.4610   -1.3200 N   0  0  0  0  0  0  0  0  0  0  0  0
    4.1980  -12.6830   -2.4720 C   0  0  0  0  0  0  0  0  0  0  0  0
    3.7010  -12.9810   -3.6860 N   0  0  0  0  0  0  0  0  0  0  0  0
    4.3760  -13.0580   -4.9160 C   0  0  0  0  0  0  0  0  0  0  0  0
    4.3740  -12.0470   -5.8780 C   0  0  0  0  0  0  0  0  0  0  0  0
    5.0630  -12.1870   -7.0930 C   0  0  0  0  0  0  0  0  0  0  0  0
    5.7770  -13.3470   -7.4090 C   0  0  0  0  0  0  0  0  0  0  0  0
    6.4690  -13.5040   -8.6110 N   0  0  0  0  0  0  0  0  0  0  0  0
    6.8580  -12.2740   -9.3260 C   0  0  0  0  0  0  0  0  0  0  0  0
    7.1510  -12.5540  -10.8140 C   0  0  0  0  0  0  0  0  0  0  0  0
    8.1240  -13.7120  -11.0030 N   0  0  0  0  0  0  0  0  0  0  0  0
    9.5430  -13.3640  -10.6710 C   0  0  0  0  0  0  0  0  0  0  0  0
    7.6130  -14.9540  -10.2830 C   0  0  0  0  0  0  0  0  0  0  0  0
    7.3340  -14.6840   -8.7910 C   0  0  0  0  0  0  0  0  0  0  0  0
    5.7840  -14.3570   -6.4390 C   0  0  0  0  0  0  0  0  0  0  0  0
    5.0980  -14.2180   -5.2210 C   0  0  0  0  0  0  0  0  0  0  0  0
    5.5670  -12.6040   -2.4190 O   0  0  0  0  0  0  0  0  0  0  0  0
    5.8470  -12.3160   -1.1080 C   0  0  0  0  0  0  0  0  0  0  0  0
    8.4230  -12.0770   -2.6370 C   0  0  0  0  0  0  0  0  0  0  0  0
    9.6280  -12.2120   -3.3310 C   0  0  0  0  0  0  0  0  0  0  0  0
   10.8180  -12.5110   -2.6490 C   0  0  0  0  0  0  0  0  0  0  0  0
   12.0400  -12.5950   -3.4880 C   0  0  0  0  0  0  0  0  0  0  0  0
   12.8610  -11.6980   -3.5510 O   0  0  0  0  0  0  0  0  0  0  0  0
   12.4170  -13.8240   -4.2010 N   0  0  0  0  0  0  0  0  0  0  0  0
   13.0050  -13.5210   -5.5670 C   0  0  0  0  0  0  0  0  0  0  0  0
   13.3730  -14.8440   -6.2470 C   0  0  0  0  0  0  0  0  0  0  0  0
   14.2900  -15.5950   -5.4430 O   0  0  0  0  0  0  0  0  0  0  0  0
   13.7580  -15.9070   -4.1510 C   0  0  0  0  0  0  0  0  0  0  0  0
   13.4030  -14.6310   -3.3800 C   0  0  0  0  0  0  0  0  0  0  0  0
   11.7461  -13.0544    0.6244 H   0  0  0  0  0  0  0  0  0  0  0  0
   12.2403  -14.1823   -0.6833 H   0  0  0  0  0  0  0  0  0  0  0  0
   12.8402  -12.4892   -0.6833 H   0  0  0  0  0  0  0  0  0  0  0  0
    9.5495  -12.6692    0.5124 H   0  0  0  0  0  0  0  0  0  0  0  0
    7.9830  -11.6899    1.4217 H   0  0  0  0  0  0  0  0  0  0  0  0
    5.8427  -11.5162    2.6479 H   0  0  0  0  0  0  0  0  0  0  0  0
    3.6579  -11.8540    1.4677 H   0  0  0  0  0  0  0  0  0  0  0  0
    2.7100  -13.1680   -3.7280 H   0  0  0  0  0  0  0  0  0  0  0  0
    3.8192  -11.1181   -5.6794 H   0  0  0  0  0  0  0  0  0  0  0  0
    5.0406  -11.3599   -7.8178 H   0  0  0  0  0  0  0  0  0  0  0  0
    6.0380  -11.5443   -9.2543 H   0  0  0  0  0  0  0  0  0  0  0  0
    7.7743  -11.8801   -8.8620 H   0  0  0  0  0  0  0  0  0  0  0  0
    6.2060  -12.7994  -11.3207 H   0  0  0  0  0  0  0  0  0  0  0  0
    7.6133  -11.6522  -11.2419 H   0  0  0  0  0  0  0  0  0  0  0  0
    8.1090  -13.9380  -12.0060 H   0  0  0  0  0  0  0  0  0  0  0  0
    9.6671  -13.3336   -9.5784 H   0  0  0  0  0  0  0  0  0  0  0  0
   10.2158  -14.1238  -11.0954 H   0  0  0  0  0  0  0  0  0  0  0  0
    9.7879  -12.3792  -11.0954 H   0  0  0  0  0  0  0  0  0  0  0  0
    6.6808  -15.2850  -10.7642 H   0  0  0  0  0  0  0  0  0  0  0  0
    8.3916  -15.7284  -10.3480 H   0  0  0  0  0  0  0  0  0  0  0  0
    6.8361  -15.5627   -8.3552 H   0  0  0  0  0  0  0  0  0  0  0  0
    8.2933  -14.4902   -8.2888 H   0  0  0  0  0  0  0  0  0  0  0  0
    6.3418  -15.2844   -6.6361 H   0  0  0  0  0  0  0  0  0  0  0  0
    5.1288  -15.0395   -4.4901 H   0  0  0  0  0  0  0  0  0  0  0  0
    7.5027  -11.8412   -3.1914 H   0  0  0  0  0  0  0  0  0  0  0  0
    9.6444  -12.0826   -4.4232 H   0  0  0  0  0  0  0  0  0  0  0  0
   11.5720  -14.3850   -4.3140 H   0  0  0  0  0  0  0  0  0  0  0  0
   12.2646  -12.9840   -6.1780 H   0  0  0  0  0  0  0  0  0  0  0  0
   13.9015  -12.8929   -5.4586 H   0  0  0  0  0  0  0  0  0  0  0  0
   12.4590  -15.4368   -6.3996 H   0  0  0  0  0  0  0  0  0  0  0  0
   13.8526  -14.6215   -7.2116 H   0  0  0  0  0  0  0  0  0  0  0  0
   12.8511  -16.5174   -4.2733 H   0  0  0  0  0  0  0  0  0  0  0  0
   14.5206  -16.4592   -3.5822 H   0  0  0  0  0  0  0  0  0  0  0  0
   12.9495  -14.8968   -2.4137 H   0  0  0  0  0  0  0  0  0  0  0  0
   14.3118  -14.0385   -3.1982 H   0  0  0  0  0  0  0  0  0  0  0  0
  1  2  1  0
  2  3  2  0
  3  4  1  0
  4  5  1  0
  5  6  2  0
  6  7  1  0
  7  8  2  0
  8  9  1  0
  9 10  1  0
 10 11  2  0
 11 12  1  0
 12 13  1  0
 13 14  2  0
 14 15  1  0
 15 16  2  0
 16 17  1  0
 17 18  1  0
 18 19  1  0
 19 20  1  0
 20 21  1  0
 20 22  1  0
 22 23  1  0
 16 24  1  0
 24 25  2  0
 11 26  1  0
 26 27  1  0
  4 28  2  0
 28 29  1  0
 29 30  2  0
 30 31  1  0
 31 32  2  0
 31 33  1  0
 33 34  1  0
 34 35  1  0
 35 36  1  0
 36 37  1  0
 37 38  1  0
 30  2  1  0
 38 33  1  0
 27  5  1  0
 27  9  2  0
 25 13  1  0
 23 17  1  0
  1 39  1  0
  1 40  1  0
  1 41  1  0
  3 42  1  0
  6 43  1  0
  7 44  1  0
  8 45  1  0
 12 46  1  0
 14 47  1  0
 15 48  1  0
 18 49  1  0
 18 50  1  0
 19 51  1  0
 19 52  1  0
 20 53  1  0
 21 54  1  0
 21 55  1  0
 21 56  1  0
 22 57  1  0
 22 58  1  0
 23 59  1  0
 23 60  1  0
 24 61  1  0
 25 62  1  0
 28 63  1  0
 29 64  1  0
 33 65  1  0
 34 66  1  0
 34 67  1  0
 35 68  1  0
 35 69  1  0
 37 70  1  0
 37 71  1  0
 38 72  1  0
 38 73  1  0
M  CHG  2  20   1  33   1
M  END
>  <meeko>  (2) 
{"is_sidechain": [false], "free_energy": -8.769, "intermolecular_energy": -12.027, "internal_energy": -1.027}

$$$$
LIB_LFIZDKRIFIBADR__M_PUB_ALL__e8__s20260927
     RDKit          3D

 73 78  0  0  0  0  0  0  0  0999 V2000
   -3.7970  -17.1760    5.0780 C   0  0  0  0  0  0  0  0  0  0  0  0
   -4.6510  -16.0030    4.6880 C   0  0  0  0  0  0  0  0  0  0  0  0
   -4.2280  -15.2260    3.5890 C   0  0  0  0  0  0  0  0  0  0  0  0
   -4.8990  -14.0570    3.1810 C   0  0  0  0  0  0  0  0  0  0  0  0
   -4.3900  -13.2440    2.0680 C   0  0  0  0  0  0  0  0  0  0  0  0
   -5.2370  -12.6600    1.0980 C   0  0  0  0  0  0  0  0  0  0  0  0
   -4.7470  -11.8860    0.0370 C   0  0  0  0  0  0  0  0  0  0  0  0
   -3.3760  -11.6560   -0.1110 C   0  0  0  0  0  0  0  0  0  0  0  0
   -2.5090  -12.2250    0.8290 C   0  0  0  0  0  0  0  0  0  0  0  0
   -1.1450  -12.1690    0.9230 N   0  0  0  0  0  0  0  0  0  0  0  0
   -0.8630  -12.8800    1.9930 C   0  0  0  0  0  0  0  0  0  0  0  0
    0.3120  -13.1900    2.5710 N   0  0  0  0  0  0  0  0  0  0  0  0
    0.6040  -14.2360    3.4620 C   0  0  0  0  0  0  0  0  0  0  0  0
    1.1970  -15.4430    3.0890 C   0  0  0  0  0  0  0  0  0  0  0  0
    1.4580  -16.4550    4.0260 C   0  0  0  0  0  0  0  0  0  0  0  0
    1.1290  -16.3130    5.3790 C   0  0  0  0  0  0  0  0  0  0  0  0
    1.3810  -17.3080    6.3250 N   0  0  0  0  0  0  0  0  0  0  0  0
    0.5540  -17.2950    7.5470 C   0  0  0  0  0  0  0  0  0  0  0  0
    1.2250  -18.0840    8.6900 C   0  0  0  0  0  0  0  0  0  0  0  0
    1.6580  -19.4780    8.2520 N   0  0  0  0  0  0  0  0  0  0  0  0
    0.5190  -20.4410    8.1010 C   0  0  0  0  0  0  0  0  0  0  0  0
    2.5540  -19.3920    7.0230 C   0  0  0  0  0  0  0  0  0  0  0  0
    1.8820  -18.6170    5.8710 C   0  0  0  0  0  0  0  0  0  0  0  0
    0.5410  -15.0980    5.7510 C   0  0  0  0  0  0  0  0  0  0  0  0
    0.2820  -14.0830    4.8160 C   0  0  0  0  0  0  0  0  0  0  0  0
   -1.9640  -13.4030    2.6240 O   0  0  0  0  0  0  0  0  0  0  0  0
   -3.0280  -12.9840    1.8660 C   0  0  0  0  0  0  0  0  0  0  0  0
   -6.0380  -13.6810    3.9040 C   0  0  0  0  0  0  0  0  0  0  0  0
   -6.4940  -14.4450    4.9810 C   0  0  0  0  0  0  0  0  0  0  0  0
   -5.8200  -15.6150    5.3650 C   0  0  0  0  0  0  0  0  0  0  0  0
   -6.4180  -16.3620    6.5010 C   0  0  0  0  0  0  0  0  0  0  0  0
   -7.4420  -17.0110    6.3980 O   0  0  0  0  0  0  0  0  0  0  0  0
   -5.7430  -16.4800    7.8010 N   0  0  0  0  0  0  0  0  0  0  0  0
   -5.4430  -15.1200    8.4030 C   0  0  0  0  0  0  0  0  0  0  0  0
   -4.7440  -15.3240    9.7510 C   0  0  0  0  0  0  0  0  0  0  0  0
   -5.5510  -16.1130   10.6330 O   0  0  0  0  0  0  0  0  0  0  0  0
   -5.8420  -17.4080   10.0970 C   0  0  0  0  0  0  0  0  0  0  0  0
   -6.5850  -17.2970    8.7620 C   0  0  0  0  0  0  0  0  0  0  0  0
   -3.7470  -17.2446    6.1747 H   0  0  0  0  0  0  0  0  0  0  0  0
   -4.2355  -18.0997    4.6724 H   0  0  0  0  0  0  0  0  0  0  0  0
   -2.7833  -17.0425    4.6724 H   0  0  0  0  0  0  0  0  0  0  0  0
   -3.3377  -15.5464    3.0279 H   0  0  0  0  0  0  0  0  0  0  0  0
   -6.3224  -12.8192    1.1791 H   0  0  0  0  0  0  0  0  0  0  0  0
   -5.4510  -11.4536   -0.6892 H   0  0  0  0  0  0  0  0  0  0  0  0
   -2.9902  -11.0462   -0.9412 H   0  0  0  0  0  0  0  0  0  0  0  0
    1.0910  -12.5900    2.3430 H   0  0  0  0  0  0  0  0  0  0  0  0
    1.4665  -15.6053    2.0349 H   0  0  0  0  0  0  0  0  0  0  0  0
    1.9349  -17.3866    3.6872 H   0  0  0  0  0  0  0  0  0  0  0  0
    0.4079  -16.2534    7.8690 H   0  0  0  0  0  0  0  0  0  0  0  0
   -0.4103  -17.7719    7.3172 H   0  0  0  0  0  0  0  0  0  0  0  0
    2.1113  -17.5287    9.0307 H   0  0  0  0  0  0  0  0  0  0  0  0
    0.4881  -18.1983    9.4987 H   0  0  0  0  0  0  0  0  0  0  0  0
    2.2480  -19.8460    9.0090 H   0  0  0  0  0  0  0  0  0  0  0  0
    0.1607  -20.7440    9.0959 H   0  0  0  0  0  0  0  0  0  0  0  0
   -0.2996  -19.9570    7.5482 H   0  0  0  0  0  0  0  0  0  0  0  0
    0.8602  -21.3287    7.5482 H   0  0  0  0  0  0  0  0  0  0  0  0
    3.4872  -18.8793    7.2991 H   0  0  0  0  0  0  0  0  0  0  0  0
    2.7510  -20.4163    6.6739 H   0  0  0  0  0  0  0  0  0  0  0  0
    2.6174  -18.4600    5.0682 H   0  0  0  0  0  0  0  0  0  0  0  0
    1.0282  -19.2078    5.5077 H   0  0  0  0  0  0  0  0  0  0  0  0
    0.2744  -14.9340    6.8055 H   0  0  0  0  0  0  0  0  0  0  0  0
   -0.1845  -13.1463    5.1550 H   0  0  0  0  0  0  0  0  0  0  0  0
   -6.5827  -12.7688    3.6190 H   0  0  0  0  0  0  0  0  0  0  0  0
   -7.3902  -14.1266    5.5337 H   0  0  0  0  0  0  0  0  0  0  0  0
   -4.8680  -16.9830    7.6490 H   0  0  0  0  0  0  0  0  0  0  0  0
   -4.7861  -14.5527    7.7273 H   0  0  0  0  0  0  0  0  0  0  0  0
   -6.3780  -14.5586    8.5464 H   0  0  0  0  0  0  0  0  0  0  0  0
   -3.7852  -15.8370    9.5851 H   0  0  0  0  0  0  0  0  0  0  0  0
   -4.5792  -14.3395   10.2131 H   0  0  0  0  0  0  0  0  0  0  0  0
   -4.8990  -17.9520    9.9394 H   0  0  0  0  0  0  0  0  0  0  0  0
   -6.4834  -17.9459   10.8106 H   0  0  0  0  0  0  0  0  0  0  0  0
   -6.7505  -18.3019    8.3463 H   0  0  0  0  0  0  0  0  0  0  0  0
   -7.5582  -16.8078    8.9153 H   0  0  0  0  0  0  0  0  0  0  0  0
  1  2  1  0
  2  3  2  0
  3  4  1  0
  4  5  1  0
  5  6  2  0
  6  7  1  0
  7  8  2  0
  8  9  1  0
  9 10  1  0
 10 11  2  0
 11 12  1  0
 12 13  1  0
 13 14  2  0
 14 15  1  0
 15 16  2  0
 16 17  1  0
 17 18  1  0
 18 19  1  0
 19 20  1  0
 20 21  1  0
 20 22  1  0
 22 23  1  0
 16 24  1  0
 24 25  2  0
 11 26  1  0
 26 27  1  0
  4 28  2  0
 28 29  1  0
 29 30  2  0
 30 31  1  0
 31 32  2  0
 31 33  1  0
 33 34  1  0
 34 35  1  0
 35 36  1  0
 36 37  1  0
 37 38  1  0
 30  2  1  0
 38 33  1  0
 27  5  1  0
 27  9  2  0
 25 13  1  0
 23 17  1  0
  1 39  1  0
  1 40  1  0
  1 41  1  0
  3 42  1  0
  6 43  1  0
  7 44  1  0
  8 45  1  0
 12 46  1  0
 14 47  1  0
 15 48  1  0
 18 49  1  0
 18 50  1  0
 19 51  1  0
 19 52  1  0
 20 53  1  0
 21 54  1  0
 21 55  1  0
 21 56  1  0
 22 57  1  0
 22 58  1  0
 23 59  1  0
 23 60  1  0
 24 61  1  0
 25 62  1  0
 28 63  1  0
 29 64  1  0
 33 65  1  0
 34 66  1  0
 34 67  1  0
 35 68  1  0
 35 69  1  0
 37 70  1  0
 37 71  1  0
 38 72  1  0
 38 73  1  0
M  CHG  2  20   1  33   1
M  END
>  <meeko>  (3) 
{"is_sidechain": [false], "free_energy": -8.7, "intermolecular_energy": -11.775, "internal_energy": -1.187}

$$$$
LIB_LFIZDKRIFIBADR__M_PUB_ALL__e8__s20260927
     RDKit          3D

 73 78  0  0  0  0  0  0  0  0999 V2000
    6.0450  -15.6320   -5.0940 C   0  0  0  0  0  0  0  0  0  0  0  0
    5.8380  -14.4860   -6.0430 C   0  0  0  0  0  0  0  0  0  0  0  0
    6.6400  -14.4480   -7.2040 C   0  0  0  0  0  0  0  0  0  0  0  0
    6.5940  -13.3840   -8.1250 C   0  0  0  0  0  0  0  0  0  0  0  0
    7.4890  -13.3550   -9.2900 C   0  0  0  0  0  0  0  0  0  0  0  0
    7.0560  -12.9670  -10.5780 C   0  0  0  0  0  0  0  0  0  0  0  0
    7.9120  -12.9420  -11.6870 C   0  0  0  0  0  0  0  0  0  0  0  0
    9.2560  -13.3080  -11.5640 C   0  0  0  0  0  0  0  0  0  0  0  0
    9.7170  -13.7040  -10.3040 C   0  0  0  0  0  0  0  0  0  0  0  0
   10.9610  -14.1110   -9.9030 N   0  0  0  0  0  0  0  0  0  0  0  0
   10.8240  -14.3590   -8.6190 C   0  0  0  0  0  0  0  0  0  0  0  0
   11.7030  -14.8000   -7.7000 N   0  0  0  0  0  0  0  0  0  0  0  0
   11.8770  -14.3700   -6.3740 C   0  0  0  0  0  0  0  0  0  0  0  0
   13.0210  -13.7250   -5.9020 C   0  0  0  0  0  0  0  0  0  0  0  0
   13.1390  -13.3250   -4.5610 C   0  0  0  0  0  0  0  0  0  0  0  0
   12.1240  -13.5610   -3.6270 C   0  0  0  0  0  0  0  0  0  0  0  0
   12.2230  -13.1700   -2.2900 N   0  0  0  0  0  0  0  0  0  0  0  0
   12.4630  -11.7390   -2.0270 C   0  0  0  0  0  0  0  0  0  0  0  0
   13.0340  -11.5140   -0.6110 C   0  0  0  0  0  0  0  0  0  0  0  0
   12.2050  -12.2080    0.4620 N   0  0  0  0  0  0  0  0  0  0  0  0
   10.9030  -11.5240    0.7530 C   0  0  0  0  0  0  0  0  0  0  0  0
   12.0580  -13.6910    0.1400 C   0  0  0  0  0  0  0  0  0  0  0  0
   11.4730  -13.9210   -1.2680 C   0  0  0  0  0  0  0  0  0  0  0  0
   10.9750  -14.2010   -4.1060 C   0  0  0  0  0  0  0  0  0  0  0  0
   10.8530  -14.5990   -5.4470 C   0  0  0  0  0  0  0  0  0  0  0  0
    9.5600  -14.1330   -8.1360 O   0  0  0  0  0  0  0  0  0  0  0  0
    8.8420  -13.7150   -9.2280 C   0  0  0  0  0  0  0  0  0  0  0  0
    5.6990  -12.3400   -7.8610 C   0  0  0  0  0  0  0  0  0  0  0  0
    4.8760  -12.3630   -6.7330 C   0  0  0  0  0  0  0  0  0  0  0  0
    4.9240  -13.4390   -5.8320 C   0  0  0  0  0  0  0  0  0  0  0  0
    3.9790  -13.3690   -4.6900 C   0  0  0  0  0  0  0  0  0  0  0  0
    2.9700  -14.0470   -4.6260 O   0  0  0  0  0  0  0  0  0  0  0  0
    4.2620  -12.5730   -3.4870 N   0  0  0  0  0  0  0  0  0  0  0  0
    3.8100  -13.2850   -2.2260 C   0  0  0  0  0  0  0  0  0  0  0  0
    4.1370  -12.3990   -1.0190 C   0  0  0  0  0  0  0  0  0  0  0  0
    5.5360  -12.0960   -0.9700 O   0  0  0  0  0  0  0  0  0  0  0  0
    5.9910  -11.4140   -2.1430 C   0  0  0  0  0  0  0  0  0  0  0  0
    5.7410  -12.2540   -3.4000 C   0  0  0  0  0  0  0  0  0  0  0  0
    5.9791  -15.2670   -4.0584 H   0  0  0  0  0  0  0  0  0  0  0  0
    5.2699  -16.3937   -5.2643 H   0  0  0  0  0  0  0  0  0  0  0  0
    7.0376  -16.0744   -5.2643 H   0  0  0  0  0  0  0  0  0  0  0  0
    7.3289  -15.2836   -7.3970 H   0  0  0  0  0  0  0  0  0  0  0  0
    6.0050  -12.6729  -10.7154 H   0  0  0  0  0  0  0  0  0  0  0  0
    7.5217  -12.6304  -12.6671 H   0  0  0  0  0  0  0  0  0  0  0  0
    9.9308  -13.2852  -12.4324 H   0  0  0  0  0  0  0  0  0  0  0  0
   12.3280  -15.5350   -7.9990 H   0  0  0  0  0  0  0  0  0  0  0  0
   13.8500  -13.5252   -6.5969 H   0  0  0  0  0  0  0  0  0  0  0  0
   14.0556  -12.8114   -4.2354 H   0  0  0  0  0  0  0  0  0  0  0  0
   13.1802  -11.3546   -2.7672 H   0  0  0  0  0  0  0  0  0  0  0  0
   11.5026  -11.2079   -2.1011 H   0  0  0  0  0  0  0  0  0  0  0  0
   14.0601  -11.9089   -0.5762 H   0  0  0  0  0  0  0  0  0  0  0  0
   13.0131  -10.4333   -0.4068 H   0  0  0  0  0  0  0  0  0  0  0  0
   12.7570  -12.1580    1.3280 H   0  0  0  0  0  0  0  0  0  0  0  0
   10.7628  -11.4503    1.8415 H   0  0  0  0  0  0  0  0  0  0  0  0
   10.9132  -10.5148    0.3155 H   0  0  0  0  0  0  0  0  0  0  0  0
   10.0778  -12.1050    0.3155 H   0  0  0  0  0  0  0  0  0  0  0  0
   13.0485  -14.1663    0.1951 H   0  0  0  0  0  0  0  0  0  0  0  0
   11.3646  -14.1306    0.8721 H   0  0  0  0  0  0  0  0  0  0  0  0
   11.5213  -14.9941   -1.5049 H   0  0  0  0  0  0  0  0  0  0  0  0
   10.4315  -13.5672   -1.2726 H   0  0  0  0  0  0  0  0  0  0  0  0
   10.1442  -14.3977   -3.4124 H   0  0  0  0  0  0  0  0  0  0  0  0
    9.9320  -15.1021   -5.7767 H   0  0  0  0  0  0  0  0  0  0  0  0
    5.6432  -11.4874   -8.5538 H   0  0  0  0  0  0  0  0  0  0  0  0
    4.1827  -11.5292   -6.5483 H   0  0  0  0  0  0  0  0  0  0  0  0
    3.7570  -11.6910   -3.5760 H   0  0  0  0  0  0  0  0  0  0  0  0
    2.7257  -13.4648   -2.2706 H   0  0  0  0  0  0  0  0  0  0  0  0
    4.3283  -14.2509   -2.1340 H   0  0  0  0  0  0  0  0  0  0  0  0
    3.5680  -11.4608   -1.0966 H   0  0  0  0  0  0  0  0  0  0  0  0
    3.8629  -12.9406   -0.1016 H   0  0  0  0  0  0  0  0  0  0  0  0
    5.4523  -10.4594   -2.2355 H   0  0  0  0  0  0  0  0  0  0  0  0
    7.0729  -11.2391   -2.0485 H   0  0  0  0  0  0  0  0  0  0  0  0
    6.0502  -11.6876   -4.2909 H   0  0  0  0  0  0  0  0  0  0  0  0
    6.3224  -13.1864   -3.3486 H   0  0  0  0  0  0  0  0  0  0  0  0
  1  2  1  0
  2  3  2  0
  3  4  1  0
  4  5  1  0
  5  6  2  0
  6  7  1  0
  7  8  2  0
  8  9  1  0
  9 10  1  0
 10 11  2  0
 11 12  1  0
 12 13  1  0
 13 14  2  0
 14 15  1  0
 15 16  2  0
 16 17  1  0
 17 18  1  0
 18 19  1  0
 19 20  1  0
 20 21  1  0
 20 22  1  0
 22 23  1  0
 16 24  1  0
 24 25  2  0
 11 26  1  0
 26 27  1  0
  4 28  2  0
 28 29  1  0
 29 30  2  0
 30 31  1  0
 31 32  2  0
 31 33  1  0
 33 34  1  0
 34 35  1  0
 35 36  1  0
 36 37  1  0
 37 38  1  0
 30  2  1  0
 38 33  1  0
 27  5  1  0
 27  9  2  0
 25 13  1  0
 23 17  1  0
  1 39  1  0
  1 40  1  0
  1 41  1  0
  3 42  1  0
  6 43  1  0
  7 44  1  0
  8 45  1  0
 12 46  1  0
 14 47  1  0
 15 48  1  0
 18 49  1  0
 18 50  1  0
 19 51  1  0
 19 52  1  0
 20 53  1  0
 21 54  1  0
 21 55  1  0
 21 56  1  0
 22 57  1  0
 22 58  1  0
 23 59  1  0
 23 60  1  0
 24 61  1  0
 25 62  1  0
 28 63  1  0
 29 64  1  0
 33 65  1  0
 34 66  1  0
 34 67  1  0
 35 68  1  0
 35 69  1  0
 37 70  1  0
 37 71  1  0
 38 72  1  0
 38 73  1  0
M  CHG  2  20   1  33   1
M  END
>  <meeko>  (4) 
{"is_sidechain": [false], "free_energy": -8.643, "intermolecular_energy": -11.971, "internal_energy": -0.913}

$$$$
LIB_LFIZDKRIFIBADR__M_PUB_ALL__e8__s20260927
     RDKit          3D

 73 78  0  0  0  0  0  0  0  0999 V2000
   -2.9380  -15.2990    1.2750 C   0  0  0  0  0  0  0  0  0  0  0  0
   -1.6610  -15.8320    0.6890 C   0  0  0  0  0  0  0  0  0  0  0  0
   -1.1110  -15.1420   -0.4120 C   0  0  0  0  0  0  0  0  0  0  0  0
    0.0350  -15.5920   -1.0950 C   0  0  0  0  0  0  0  0  0  0  0  0
    0.5400  -14.8760   -2.2750 C   0  0  0  0  0  0  0  0  0  0  0  0
   -0.0260  -15.0280   -3.5620 C   0  0  0  0  0  0  0  0  0  0  0  0
    0.4610  -14.3450   -4.6840 C   0  0  0  0  0  0  0  0  0  0  0  0
    1.5460  -13.4710   -4.5790 C   0  0  0  0  0  0  0  0  0  0  0  0
    2.1340  -13.3020   -3.3200 C   0  0  0  0  0  0  0  0  0  0  0  0
    3.1940  -12.5260   -2.9340 N   0  0  0  0  0  0  0  0  0  0  0  0
    3.3110  -12.7540   -1.6440 C   0  0  0  0  0  0  0  0  0  0  0  0
    4.1820  -12.2820   -0.7330 N   0  0  0  0  0  0  0  0  0  0  0  0
    5.5850  -12.3540   -0.7400 C   0  0  0  0  0  0  0  0  0  0  0  0
    6.3670  -12.3180   -1.8950 C   0  0  0  0  0  0  0  0  0  0  0  0
    7.7670  -12.4020   -1.8380 C   0  0  0  0  0  0  0  0  0  0  0  0
    8.4510  -12.5360   -0.6240 C   0  0  0  0  0  0  0  0  0  0  0  0
    9.8430  -12.6200   -0.5480 N   0  0  0  0  0  0  0  0  0  0  0  0
   10.5880  -12.5600   -1.8190 C   0  0  0  0  0  0  0  0  0  0  0  0
   12.0090  -13.1430   -1.6670 C   0  0  0  0  0  0  0  0  0  0  0  0
   12.7560  -12.5420   -0.4830 N   0  0  0  0  0  0  0  0  0  0  0  0
   13.2330  -11.1410   -0.7220 C   0  0  0  0  0  0  0  0  0  0  0  0
   11.9400  -12.7020    0.7940 C   0  0  0  0  0  0  0  0  0  0  0  0
   10.5250  -12.1060    0.6530 C   0  0  0  0  0  0  0  0  0  0  0  0
    7.6640  -12.5640    0.5330 C   0  0  0  0  0  0  0  0  0  0  0  0
    6.2630  -12.4770    0.4780 C   0  0  0  0  0  0  0  0  0  0  0  0
    2.3830  -13.6330   -1.1440 O   0  0  0  0  0  0  0  0  0  0  0  0
    1.6270  -13.9920   -2.2300 C   0  0  0  0  0  0  0  0  0  0  0  0
    0.6420  -16.7670   -0.6350 C   0  0  0  0  0  0  0  0  0  0  0  0
    0.1340  -17.4560    0.4690 C   0  0  0  0  0  0  0  0  0  0  0  0
   -1.0020  -16.9860    1.1470 C   0  0  0  0  0  0  0  0  0  0  0  0
   -1.4290  -17.7830    2.3250 C   0  0  0  0  0  0  0  0  0  0  0  0
   -2.3200  -18.6120    2.2730 O   0  0  0  0  0  0  0  0  0  0  0  0
   -0.7160  -17.7270    3.6080 N   0  0  0  0  0  0  0  0  0  0  0  0
   -0.2830  -16.3120    3.9470 C   0  0  0  0  0  0  0  0  0  0  0  0
    0.4490  -16.3320    5.2930 C   0  0  0  0  0  0  0  0  0  0  0  0
   -0.3840  -16.8780    6.3210 O   0  0  0  0  0  0  0  0  0  0  0  0
   -0.8000  -18.2180    6.0360 C   0  0  0  0  0  0  0  0  0  0  0  0
   -1.5840  -18.2830    4.7210 C   0  0  0  0  0  0  0  0  0  0  0  0
   -2.8764  -15.3247    2.3730 H   0  0  0  0  0  0  0  0  0  0  0  0
   -3.0902  -14.2622    0.9405 H   0  0  0  0  0  0  0  0  0  0  0  0
   -3.7821  -15.9199    0.9405 H   0  0  0  0  0  0  0  0  0  0  0  0
   -1.5972  -14.2151   -0.7504 H   0  0  0  0  0  0  0  0  0  0  0  0
   -0.8812  -15.7084   -3.6868 H   0  0  0  0  0  0  0  0  0  0  0  0
   -0.0179  -14.4991   -5.6622 H   0  0  0  0  0  0  0  0  0  0  0  0
    1.9266  -12.9320   -5.4591 H   0  0  0  0  0  0  0  0  0  0  0  0
    3.7800  -11.8190    0.0690 H   0  0  0  0  0  0  0  0  0  0  0  0
    5.8745  -12.2215   -2.8738 H   0  0  0  0  0  0  0  0  0  0  0  0
    8.3432  -12.3614   -2.7741 H   0  0  0  0  0  0  0  0  0  0  0  0
   10.0437  -13.1378   -2.5805 H   0  0  0  0  0  0  0  0  0  0  0  0
   10.6768  -11.5054   -2.1188 H   0  0  0  0  0  0  0  0  0  0  0  0
   11.9316  -14.2306   -1.5215 H   0  0  0  0  0  0  0  0  0  0  0  0
   12.5725  -12.8993   -2.5797 H   0  0  0  0  0  0  0  0  0  0  0  0
   13.6000  -13.1160   -0.3560 H   0  0  0  0  0  0  0  0  0  0  0  0
   13.4030  -10.6418    0.2434 H   0  0  0  0  0  0  0  0  0  0  0  0
   14.1732  -11.1661   -1.2924 H   0  0  0  0  0  0  0  0  0  0  0  0
   12.4728  -10.5871   -1.2924 H   0  0  0  0  0  0  0  0  0  0  0  0
   11.8526  -13.7733    1.0278 H   0  0  0  0  0  0  0  0  0  0  0  0
   12.4584  -12.1604    1.5989 H   0  0  0  0  0  0  0  0  0  0  0  0
    9.9341  -12.3723    1.5418 H   0  0  0  0  0  0  0  0  0  0  0  0
   10.6168  -11.0139    0.5586 H   0  0  0  0  0  0  0  0  0  0  0  0
    8.1561  -12.6567    1.5124 H   0  0  0  0  0  0  0  0  0  0  0  0
    5.6856  -12.5062    1.4138 H   0  0  0  0  0  0  0  0  0  0  0  0
    1.5331  -17.1537   -1.1512 H   0  0  0  0  0  0  0  0  0  0  0  0
    0.6294  -18.3767    0.8108 H   0  0  0  0  0  0  0  0  0  0  0  0
    0.1080  -18.3220    3.5290 H   0  0  0  0  0  0  0  0  0  0  0  0
    0.3912  -15.9336    3.1645 H   0  0  0  0  0  0  0  0  0  0  0  0
   -1.1631  -15.6551    4.0085 H   0  0  0  0  0  0  0  0  0  0  0  0
    1.3561  -16.9472    5.2002 H   0  0  0  0  0  0  0  0  0  0  0  0
    0.7107  -15.2989    5.5654 H   0  0  0  0  0  0  0  0  0  0  0  0
    0.0888  -18.8612    5.9568 H   0  0  0  0  0  0  0  0  0  0  0  0
   -1.4541  -18.5621    6.8507 H   0  0  0  0  0  0  0  0  0  0  0  0
   -1.8470  -19.3276    4.4983 H   0  0  0  0  0  0  0  0  0  0  0  0
   -2.5077  -17.6917    4.8062 H   0  0  0  0  0  0  0  0  0  0  0  0
  1  2  1  0
  2  3  2  0
  3  4  1  0
  4  5  1  0
  5  6  2  0
  6  7  1  0
  7  8  2  0
  8  9  1  0
  9 10  1  0
 10 11  2  0
 11 12  1  0
 12 13  1  0
 13 14  2  0
 14 15  1  0
 15 16  2  0
 16 17  1  0
 17 18  1  0
 18 19  1  0
 19 20  1  0
 20 21  1  0
 20 22  1  0
 22 23  1  0
 16 24  1  0
 24 25  2  0
 11 26  1  0
 26 27  1  0
  4 28  2  0
 28 29  1  0
 29 30  2  0
 30 31  1  0
 31 32  2  0
 31 33  1  0
 33 34  1  0
 34 35  1  0
 35 36  1  0
 36 37  1  0
 37 38  1  0
 30  2  1  0
 38 33  1  0
 27  5  1  0
 27  9  2  0
 25 13  1  0
 23 17  1  0
  1 39  1  0
  1 40  1  0
  1 41  1  0
  3 42  1  0
  6 43  1  0
  7 44  1  0
  8 45  1  0
 12 46  1  0
 14 47  1  0
 15 48  1  0
 18 49  1  0
 18 50  1  0
 19 51  1  0
 19 52  1  0
 20 53  1  0
 21 54  1  0
 21 55  1  0
 21 56  1  0
 22 57  1  0
 22 58  1  0
 23 59  1  0
 23 60  1  0
 24 61  1  0
 25 62  1  0
 28 63  1  0
 29 64  1  0
 33 65  1  0
 34 66  1  0
 34 67  1  0
 35 68  1  0
 35 69  1  0
 37 70  1  0
 37 71  1  0
 38 72  1  0
 38 73  1  0
M  CHG  2  20   1  33   1
M  END
>  <meeko>  (5) 
{"is_sidechain": [false], "free_energy": -8.624, "intermolecular_energy": -11.82, "internal_energy": -1.039}

$$$$
LIB_LFIZDKRIFIBADR__M_PUB_ALL__e8__s20260927
     RDKit          3D

 73 78  0  0  0  0  0  0  0  0999 V2000
   -3.0630  -16.3720    2.8510 C   0  0  0  0  0  0  0  0  0  0  0  0
   -1.9840  -15.4820    3.4010 C   0  0  0  0  0  0  0  0  0  0  0  0
   -1.9440  -14.1480    2.9440 C   0  0  0  0  0  0  0  0  0  0  0  0
   -0.9340  -13.2440    3.3240 C   0  0  0  0  0  0  0  0  0  0  0  0
   -0.8950  -11.8810    2.7770 C   0  0  0  0  0  0  0  0  0  0  0  0
   -1.6250  -10.8090    3.3410 C   0  0  0  0  0  0  0  0  0  0  0  0
   -1.5860   -9.5110    2.8150 C   0  0  0  0  0  0  0  0  0  0  0  0
   -0.8120   -9.2150    1.6890 C   0  0  0  0  0  0  0  0  0  0  0  0
   -0.0820  -10.2540    1.1020 C   0  0  0  0  0  0  0  0  0  0  0  0
    0.7420  -10.2510    0.0090 N   0  0  0  0  0  0  0  0  0  0  0  0
    1.1590  -11.4950   -0.0890 C   0  0  0  0  0  0  0  0  0  0  0  0
    1.9760  -12.0910   -0.9760 N   0  0  0  0  0  0  0  0  0  0  0  0
    3.3770  -12.1870   -0.9530 C   0  0  0  0  0  0  0  0  0  0  0  0
    4.1260  -12.4720    0.1900 C   0  0  0  0  0  0  0  0  0  0  0  0
    5.5270  -12.5470    0.1510 C   0  0  0  0  0  0  0  0  0  0  0  0
    6.2470  -12.3320   -1.0300 C   0  0  0  0  0  0  0  0  0  0  0  0
    7.6400  -12.4040   -1.0890 N   0  0  0  0  0  0  0  0  0  0  0  0
    8.3490  -12.7030    0.1690 C   0  0  0  0  0  0  0  0  0  0  0  0
    9.8300  -12.2770    0.0970 C   0  0  0  0  0  0  0  0  0  0  0  0
   10.5250  -12.8150   -1.1470 N   0  0  0  0  0  0  0  0  0  0  0  0
   10.8320  -14.2810   -1.0770 C   0  0  0  0  0  0  0  0  0  0  0  0
    9.7580  -12.4090   -2.3990 C   0  0  0  0  0  0  0  0  0  0  0  0
    8.2810  -12.8470   -2.3400 C   0  0  0  0  0  0  0  0  0  0  0  0
    5.4920  -12.0550   -2.1770 C   0  0  0  0  0  0  0  0  0  0  0  0
    4.0900  -11.9820   -2.1400 C   0  0  0  0  0  0  0  0  0  0  0  0
    0.6650  -12.3280    0.8830 O   0  0  0  0  0  0  0  0  0  0  0  0
   -0.1420  -11.5270    1.6490 C   0  0  0  0  0  0  0  0  0  0  0  0
    0.0520  -13.7100    4.2030 C   0  0  0  0  0  0  0  0  0  0  0  0
    0.0230  -15.0180    4.6920 C   0  0  0  0  0  0  0  0  0  0  0  0
   -1.0010  -15.9020    4.3130 C   0  0  0  0  0  0  0  0  0  0  0  0
   -0.9460  -17.2550    4.9220 C   0  0  0  0  0  0  0  0  0  0  0  0
   -0.7340  -18.2630    4.2730 O   0  0  0  0  0  0  0  0  0  0  0  0
   -1.0090  -17.4610    6.3760 N   0  0  0  0  0  0  0  0  0  0  0  0
   -2.2520  -16.8330    6.9770 C   0  0  0  0  0  0  0  0  0  0  0  0
   -2.2500  -17.0890    8.4880 C   0  0  0  0  0  0  0  0  0  0  0  0
   -2.1920  -18.4920    8.7690 O   0  0  0  0  0  0  0  0  0  0  0  0
   -1.0230  -19.1120    8.2240 C   0  0  0  0  0  0  0  0  0  0  0  0
   -0.9680  -18.9420    6.7020 C   0  0  0  0  0  0  0  0  0  0  0  0
   -3.6190  -16.8306    3.6820 H   0  0  0  0  0  0  0  0  0  0  0  0
   -3.7513  -15.7755    2.2342 H   0  0  0  0  0  0  0  0  0  0  0  0
   -2.6084  -17.1612    2.2342 H   0  0  0  0  0  0  0  0  0  0  0  0
   -2.7344  -13.7999    2.2628 H   0  0  0  0  0  0  0  0  0  0  0  0
   -2.2476  -11.0018    4.2271 H   0  0  0  0  0  0  0  0  0  0  0  0
   -2.1726   -8.7136    3.2947 H   0  0  0  0  0  0  0  0  0  0  0  0
   -0.7780   -8.1956    1.2770 H   0  0  0  0  0  0  0  0  0  0  0  0
    1.5280  -12.5260   -1.7700 H   0  0  0  0  0  0  0  0  0  0  0  0
    3.6057  -12.6419    1.1442 H   0  0  0  0  0  0  0  0  0  0  0  0
    6.0751  -12.7816    1.0754 H   0  0  0  0  0  0  0  0  0  0  0  0
    7.8606  -12.1611    0.9923 H   0  0  0  0  0  0  0  0  0  0  0  0
    8.3096  -13.7892    0.3382 H   0  0  0  0  0  0  0  0  0  0  0  0
    9.8821  -11.1783    0.0844 H   0  0  0  0  0  0  0  0  0  0  0  0
   10.3435  -12.6928    0.9765 H   0  0  0  0  0  0  0  0  0  0  0  0
   11.4320  -12.3330   -1.1990 H   0  0  0  0  0  0  0  0  0  0  0  0
   10.8971  -14.5921   -0.0239 H   0  0  0  0  0  0  0  0  0  0  0  0
   10.0330  -14.8473   -1.5779 H   0  0  0  0  0  0  0  0  0  0  0  0
   11.7911  -14.4791   -1.5779 H   0  0  0  0  0  0  0  0  0  0  0  0
    9.7999  -11.3146   -2.5017 H   0  0  0  0  0  0  0  0  0  0  0  0
   10.2258  -12.9081   -3.2604 H   0  0  0  0  0  0  0  0  0  0  0  0
    7.7429  -12.4081   -3.1931 H   0  0  0  0  0  0  0  0  0  0  0  0
    8.2431  -13.9457   -2.3791 H   0  0  0  0  0  0  0  0  0  0  0  0
    6.0114  -11.8902   -3.1326 H   0  0  0  0  0  0  0  0  0  0  0  0
    3.5392  -11.7585   -3.0656 H   0  0  0  0  0  0  0  0  0  0  0  0
    0.8628  -13.0345    4.5134 H   0  0  0  0  0  0  0  0  0  0  0  0
    0.8098  -15.3594    5.3808 H   0  0  0  0  0  0  0  0  0  0  0  0
   -0.1810  -17.0290    6.7850 H   0  0  0  0  0  0  0  0  0  0  0  0
   -2.2493  -15.7499    6.7850 H   0  0  0  0  0  0  0  0  0  0  0  0
   -3.1517  -17.2741    6.5232 H   0  0  0  0  0  0  0  0  0  0  0  0
   -1.3746  -16.5957    8.9356 H   0  0  0  0  0  0  0  0  0  0  0  0
   -3.1795  -16.6836    8.9142 H   0  0  0  0  0  0  0  0  0  0  0  0
   -0.1300  -18.6496    8.6698 H   0  0  0  0  0  0  0  0  0  0  0  0
   -1.0574  -20.1870    8.4548 H   0  0  0  0  0  0  0  0  0  0  0  0
   -0.0369  -19.3807    6.3140 H   0  0  0  0  0  0  0  0  0  0  0  0
   -1.8245  -19.4519    6.2368 H   0  0  0  0  0  0  0  0  0  0  0  0
  1  2  1  0
  2  3  2  0
  3  4  1  0
  4  5  1  0
  5  6  2  0
  6  7  1  0
  7  8  2  0
  8  9  1  0
  9 10  1  0
 10 11  2  0
 11 12  1  0
 12 13  1  0
 13 14  2  0
 14 15  1  0
 15 16  2  0
 16 17  1  0
 17 18  1  0
 18 19  1  0
 19 20  1  0
 20 21  1  0
 20 22  1  0
 22 23  1  0
 16 24  1  0
 24 25  2  0
 11 26  1  0
 26 27  1  0
  4 28  2  0
 28 29  1  0
 29 30  2  0
 30 31  1  0
 31 32  2  0
 31 33  1  0
 33 34  1  0
 34 35  1  0
 35 36  1  0
 36 37  1  0
 37 38  1  0
 30  2  1  0
 38 33  1  0
 27  5  1  0
 27  9  2  0
 25 13  1  0
 23 17  1  0
  1 39  1  0
  1 40  1  0
  1 41  1  0
  3 42  1  0
  6 43  1  0
  7 44  1  0
  8 45  1  0
 12 46  1  0
 14 47  1  0
 15 48  1  0
 18 49  1  0
 18 50  1  0
 19 51  1  0
 19 52  1  0
 20 53  1  0
 21 54  1  0
 21 55  1  0
 21 56  1  0
 22 57  1  0
 22 58  1  0
 23 59  1  0
 23 60  1  0
 24 61  1  0
 25 62  1  0
 28 63  1  0
 29 64  1  0
 33 65  1  0
 34 66  1  0
 34 67  1  0
 35 68  1  0
 35 69  1  0
 37 70  1  0
 37 71  1  0
 38 72  1  0
 38 73  1  0
M  CHG  2  20   1  33   1
M  END
>  <meeko>  (6) 
{"is_sidechain": [false], "free_energy": -8.525, "intermolecular_energy": -11.583, "internal_energy": -1.142}

$$$$
LIB_LFIZDKRIFIBADR__M_PUB_ALL__e8__s20260927
     RDKit          3D

 73 78  0  0  0  0  0  0  0  0999 V2000
   13.1200  -16.6580   -3.7420 C   0  0  0  0  0  0  0  0  0  0  0  0
   13.1770  -15.1600   -3.8440 C   0  0  0  0  0  0  0  0  0  0  0  0
   12.8390  -14.4150   -2.6930 C   0  0  0  0  0  0  0  0  0  0  0  0
   12.7770  -13.0090   -2.6890 C   0  0  0  0  0  0  0  0  0  0  0  0
   12.3610  -12.2750   -1.4860 C   0  0  0  0  0  0  0  0  0  0  0  0
   13.1390  -11.2440   -0.9120 C   0  0  0  0  0  0  0  0  0  0  0  0
   12.7390  -10.5470    0.2360 C   0  0  0  0  0  0  0  0  0  0  0  0
   11.5340  -10.8500    0.8760 C   0  0  0  0  0  0  0  0  0  0  0  0
   10.7420  -11.8700    0.3380 C   0  0  0  0  0  0  0  0  0  0  0  0
    9.5380  -12.3690    0.7540 N   0  0  0  0  0  0  0  0  0  0  0  0
    9.2570  -13.3130   -0.1190 C   0  0  0  0  0  0  0  0  0  0  0  0
    8.2120  -14.1540   -0.2140 N   0  0  0  0  0  0  0  0  0  0  0  0
    6.8530  -13.8990    0.0380 C   0  0  0  0  0  0  0  0  0  0  0  0
    6.1630  -12.7820   -0.4350 C   0  0  0  0  0  0  0  0  0  0  0  0
    4.8050  -12.5790   -0.1420 C   0  0  0  0  0  0  0  0  0  0  0  0
    4.0750  -13.4770    0.6440 C   0  0  0  0  0  0  0  0  0  0  0  0
    2.7240  -13.2930    0.9440 N   0  0  0  0  0  0  0  0  0  0  0  0
    1.9890  -12.2990    0.1400 C   0  0  0  0  0  0  0  0  0  0  0  0
    0.7040  -11.8330    0.8560 C   0  0  0  0  0  0  0  0  0  0  0  0
   -0.1520  -13.0030    1.3250 N   0  0  0  0  0  0  0  0  0  0  0  0
   -0.8840  -13.6950    0.2140 C   0  0  0  0  0  0  0  0  0  0  0  0
    0.6710  -13.9450    2.1950 C   0  0  0  0  0  0  0  0  0  0  0  0
    1.9490  -14.4260    1.4790 C   0  0  0  0  0  0  0  0  0  0  0  0
    4.7680  -14.6010    1.1110 C   0  0  0  0  0  0  0  0  0  0  0  0
    6.1260  -14.8080    0.8170 C   0  0  0  0  0  0  0  0  0  0  0  0
   10.2040  -13.4660   -1.1000 O   0  0  0  0  0  0  0  0  0  0  0  0
   11.1670  -12.5370   -0.8000 C   0  0  0  0  0  0  0  0  0  0  0  0
   13.0810  -12.3450   -3.8840 C   0  0  0  0  0  0  0  0  0  0  0  0
   13.4450  -13.0560   -5.0310 C   0  0  0  0  0  0  0  0  0  0  0  0
   13.5150  -14.4580   -5.0140 C   0  0  0  0  0  0  0  0  0  0  0  0
   13.9440  -15.1000   -6.2810 C   0  0  0  0  0  0  0  0  0  0  0  0
   15.0730  -15.5200   -6.4590 O   0  0  0  0  0  0  0  0  0  0  0  0
   13.0010  -15.3970   -7.3680 N   0  0  0  0  0  0  0  0  0  0  0  0
   13.0800  -14.3630   -8.4760 C   0  0  0  0  0  0  0  0  0  0  0  0
   12.0720  -14.7380   -9.5690 C   0  0  0  0  0  0  0  0  0  0  0  0
   12.3270  -16.0550  -10.0700 O   0  0  0  0  0  0  0  0  0  0  0  0
   12.2480  -17.0550   -9.0490 C   0  0  0  0  0  0  0  0  0  0  0  0
   13.2600  -16.7810   -7.9310 C   0  0  0  0  0  0  0  0  0  0  0  0
   13.1088  -16.9532   -2.6824 H   0  0  0  0  0  0  0  0  0  0  0  0
   12.2073  -17.0246   -4.2345 H   0  0  0  0  0  0  0  0  0  0  0  0
   14.0022  -17.0929   -4.2345 H   0  0  0  0  0  0  0  0  0  0  0  0
   12.6150  -14.9556   -1.7616 H   0  0  0  0  0  0  0  0  0  0  0  0
   14.0959  -10.9783   -1.3849 H   0  0  0  0  0  0  0  0  0  0  0  0
   13.3821   -9.7507    0.6389 H   0  0  0  0  0  0  0  0  0  0  0  0
   11.2177  -10.3026    1.7762 H   0  0  0  0  0  0  0  0  0  0  0  0
    8.4260  -15.0990   -0.4970 H   0  0  0  0  0  0  0  0  0  0  0  0
    6.6956  -12.0432   -1.0519 H   0  0  0  0  0  0  0  0  0  0  0  0
    4.3001  -11.6875   -0.5423 H   0  0  0  0  0  0  0  0  0  0  0  0
    2.6382  -11.4279   -0.0326 H   0  0  0  0  0  0  0  0  0  0  0  0
    1.7030  -12.7683   -0.8128 H   0  0  0  0  0  0  0  0  0  0  0  0
    0.9856  -11.2276    1.7302 H   0  0  0  0  0  0  0  0  0  0  0  0
    0.1109  -11.2483    0.1374 H   0  0  0  0  0  0  0  0  0  0  0  0
   -0.8720  -12.6030    1.9390 H   0  0  0  0  0  0  0  0  0  0  0  0
   -1.6213  -14.3920    0.6390 H   0  0  0  0  0  0  0  0  0  0  0  0
   -1.4008  -12.9476   -0.4059 H   0  0  0  0  0  0  0  0  0  0  0  0
   -0.1668  -14.2530   -0.4059 H   0  0  0  0  0  0  0  0  0  0  0  0
    0.9577  -13.4174    3.1166 H   0  0  0  0  0  0  0  0  0  0  0  0
    0.0537  -14.8280    2.4169 H   0  0  0  0  0  0  0  0  0  0  0  0
    2.5734  -14.9804    2.1951 H   0  0  0  0  0  0  0  0  0  0  0  0
    1.6531  -15.0708    0.6384 H   0  0  0  0  0  0  0  0  0  0  0  0
    4.2344  -15.3418    1.7246 H   0  0  0  0  0  0  0  0  0  0  0  0
    6.6299  -15.7044    1.2075 H   0  0  0  0  0  0  0  0  0  0  0  0
   13.0325  -11.2467   -3.9205 H   0  0  0  0  0  0  0  0  0  0  0  0
   13.6792  -12.5109   -5.9573 H   0  0  0  0  0  0  0  0  0  0  0  0
   12.0620  -15.3940   -6.9690 H   0  0  0  0  0  0  0  0  0  0  0  0
   12.8366  -13.3688   -8.0730 H   0  0  0  0  0  0  0  0  0  0  0  0
   14.0967  -14.3388   -8.8952 H   0  0  0  0  0  0  0  0  0  0  0  0
   11.0559  -14.7030   -9.1490 H   0  0  0  0  0  0  0  0  0  0  0  0
   12.1703  -14.0218  -10.3981 H   0  0  0  0  0  0  0  0  0  0  0  0
   11.2336  -17.0552   -8.6236 H   0  0  0  0  0  0  0  0  0  0  0  0
   12.4784  -18.0325   -9.4978 H   0  0  0  0  0  0  0  0  0  0  0  0
   13.1445  -17.5317   -7.1353 H   0  0  0  0  0  0  0  0  0  0  0  0
   14.2834  -16.8373   -8.3303 H   0  0  0  0  0  0  0  0  0  0  0  0
  1  2  1  0
  2  3  2  0
  3  4  1  0
  4  5  1  0
  5  6  2  0
  6  7  1  0
  7  8  2  0
  8  9  1  0
  9 10  1  0
 10 11  2  0
 11 12  1  0
 12 13  1  0
 13 14  2  0
 14 15  1  0
 15 16  2  0
 16 17  1  0
 17 18  1  0
 18 19  1  0
 19 20  1  0
 20 21  1  0
 20 22  1  0
 22 23  1  0
 16 24  1  0
 24 25  2  0
 11 26  1  0
 26 27  1  0
  4 28  2  0
 28 29  1  0
 29 30  2  0
 30 31  1  0
 31 32  2  0
 31 33  1  0
 33 34  1  0
 34 35  1  0
 35 36  1  0
 36 37  1  0
 37 38  1  0
 30  2  1  0
 38 33  1  0
 27  5  1  0
 27  9  2  0
 25 13  1  0
 23 17  1  0
  1 39  1  0
  1 40  1  0
  1 41  1  0
  3 42  1  0
  6 43  1  0
  7 44  1  0
  8 45  1  0
 12 46  1  0
 14 47  1  0
 15 48  1  0
 18 49  1  0
 18 50  1  0
 19 51  1  0
 19 52  1  0
 20 53  1  0
 21 54  1  0
 21 55  1  0
 21 56  1  0
 22 57  1  0
 22 58  1  0
 23 59  1  0
 23 60  1  0
 24 61  1  0
 25 62  1  0
 28 63  1  0
 29 64  1  0
 33 65  1  0
 34 66  1  0
 34 67  1  0
 35 68  1  0
 35 69  1  0
 37 70  1  0
 37 71  1  0
 38 72  1  0
 38 73  1  0
M  CHG  2  20   1  33   1
M  END
>  <meeko>  (7) 
{"is_sidechain": [false], "free_energy": -8.303, "intermolecular_energy": -11.409, "internal_energy": -1.017}

$$$$
LIB_LFIZDKRIFIBADR__M_PUB_ALL__e8__s20260927
     RDKit          3D

 73 78  0  0  0  0  0  0  0  0999 V2000
    2.6900  -10.8000   -3.5990 C   0  0  0  0  0  0  0  0  0  0  0  0
    2.6550  -11.3740   -2.2110 C   0  0  0  0  0  0  0  0  0  0  0  0
    1.5750  -11.0060   -1.3800 C   0  0  0  0  0  0  0  0  0  0  0  0
    1.4770  -11.4140   -0.0360 C   0  0  0  0  0  0  0  0  0  0  0  0
    0.3670  -10.9590    0.8120 C   0  0  0  0  0  0  0  0  0  0  0  0
   -0.0260   -9.6030    0.8950 C   0  0  0  0  0  0  0  0  0  0  0  0
   -1.0840   -9.1730    1.7070 C   0  0  0  0  0  0  0  0  0  0  0  0
   -1.8070  -10.0820    2.4850 C   0  0  0  0  0  0  0  0  0  0  0  0
   -1.4400  -11.4310    2.4320 C   0  0  0  0  0  0  0  0  0  0  0  0
   -1.9620  -12.5180    3.0800 N   0  0  0  0  0  0  0  0  0  0  0  0
   -1.2350  -13.5290    2.6580 C   0  0  0  0  0  0  0  0  0  0  0  0
   -1.2750  -14.8400    2.9590 N   0  0  0  0  0  0  0  0  0  0  0  0
   -0.9500  -15.4730    4.1710 C   0  0  0  0  0  0  0  0  0  0  0  0
   -1.6400  -16.5670    4.6940 C   0  0  0  0  0  0  0  0  0  0  0  0
   -1.2710  -17.1530    5.9160 C   0  0  0  0  0  0  0  0  0  0  0  0
   -0.2010  -16.6670    6.6760 C   0  0  0  0  0  0  0  0  0  0  0  0
    0.1810  -17.2360    7.8920 N   0  0  0  0  0  0  0  0  0  0  0  0
   -0.8320  -18.0370    8.6040 C   0  0  0  0  0  0  0  0  0  0  0  0
   -0.4840  -18.1870   10.1000 C   0  0  0  0  0  0  0  0  0  0  0  0
    0.9460  -18.6670   10.3140 N   0  0  0  0  0  0  0  0  0  0  0  0
    1.1440  -20.1210   10.0050 C   0  0  0  0  0  0  0  0  0  0  0  0
    1.9260  -17.7490    9.5940 C   0  0  0  0  0  0  0  0  0  0  0  0
    1.5920  -17.6090    8.0950 C   0  0  0  0  0  0  0  0  0  0  0  0
    0.4940  -15.5740    6.1440 C   0  0  0  0  0  0  0  0  0  0  0  0
    0.1280  -14.9890    4.9210 C   0  0  0  0  0  0  0  0  0  0  0  0
   -0.2600  -13.1800    1.7580 O   0  0  0  0  0  0  0  0  0  0  0  0
   -0.3890  -11.8220    1.6170 C   0  0  0  0  0  0  0  0  0  0  0  0
    2.4990  -12.2290    0.4680 C   0  0  0  0  0  0  0  0  0  0  0  0
    3.5670  -12.6290   -0.3390 C   0  0  0  0  0  0  0  0  0  0  0  0
    3.6410  -12.2240   -1.6820 C   0  0  0  0  0  0  0  0  0  0  0  0
    4.8030  -12.7400   -2.4490 C   0  0  0  0  0  0  0  0  0  0  0  0
    4.6920  -13.5600   -3.3420 O   0  0  0  0  0  0  0  0  0  0  0  0
    6.1580  -12.1990   -2.2760 N   0  0  0  0  0  0  0  0  0  0  0  0
    7.0320  -13.1290   -1.4560 C   0  0  0  0  0  0  0  0  0  0  0  0
    8.4240  -12.5000   -1.3200 C   0  0  0  0  0  0  0  0  0  0  0  0
    9.0000  -12.2490   -2.6060 O   0  0  0  0  0  0  0  0  0  0  0  0
    8.2030  -11.3640   -3.4000 C   0  0  0  0  0  0  0  0  0  0  0  0
    6.8000  -11.9390   -3.6250 C   0  0  0  0  0  0  0  0  0  0  0  0
    2.7569   -9.7036   -3.5408 H   0  0  0  0  0  0  0  0  0  0  0  0
    3.5659  -11.1927   -4.1362 H   0  0  0  0  0  0  0  0  0  0  0  0
    1.7729  -11.0834   -4.1362 H   0  0  0  0  0  0  0  0  0  0  0  0
    0.7776  -10.3749   -1.7994 H   0  0  0  0  0  0  0  0  0  0  0  0
    0.5200   -8.8569    0.2990 H   0  0  0  0  0  0  0  0  0  0  0  0
   -1.3492   -8.1058    1.7326 H   0  0  0  0  0  0  0  0  0  0  0  0
   -2.6400   -9.7464    3.1202 H   0  0  0  0  0  0  0  0  0  0  0  0
   -1.5710  -15.4580    2.2180 H   0  0  0  0  0  0  0  0  0  0  0  0
   -2.4932  -16.9804    4.1362 H   0  0  0  0  0  0  0  0  0  0  0  0
   -1.8394  -18.0189    6.2864 H   0  0  0  0  0  0  0  0  0  0  0  0
   -1.8094  -17.5408    8.5122 H   0  0  0  0  0  0  0  0  0  0  0  0
   -0.8587  -19.0400    8.1532 H   0  0  0  0  0  0  0  0  0  0  0  0
   -0.6071  -17.2108   10.5917 H   0  0  0  0  0  0  0  0  0  0  0  0
   -1.1605  -18.9405   10.5297 H   0  0  0  0  0  0  0  0  0  0  0  0
    1.1380  -18.5570   11.3180 H   0  0  0  0  0  0  0  0  0  0  0  0
    1.2212  -20.6883   10.9443 H   0  0  0  0  0  0  0  0  0  0  0  0
    0.2881  -20.4918    9.4220 H   0  0  0  0  0  0  0  0  0  0  0  0
    2.0679  -20.2495    9.4220 H   0  0  0  0  0  0  0  0  0  0  0  0
    1.8885  -16.7536   10.0606 H   0  0  0  0  0  0  0  0  0  0  0  0
    2.9299  -18.1906    9.6785 H   0  0  0  0  0  0  0  0  0  0  0  0
    2.2346  -16.8315    7.6561 H   0  0  0  0  0  0  0  0  0  0  0  0
    1.7672  -18.5800    7.6087 H   0  0  0  0  0  0  0  0  0  0  0  0
    1.3499  -15.1625    6.6991 H   0  0  0  0  0  0  0  0  0  0  0  0
    0.7021  -14.1300    4.5435 H   0  0  0  0  0  0  0  0  0  0  0  0
    2.4599  -12.5594    1.5165 H   0  0  0  0  0  0  0  0  0  0  0  0
    4.3579  -13.2675    0.0815 H   0  0  0  0  0  0  0  0  0  0  0  0
    6.0730  -11.3030   -1.7940 H   0  0  0  0  0  0  0  0  0  0  0  0
    6.5898  -13.2694   -0.4586 H   0  0  0  0  0  0  0  0  0  0  0  0
    7.1089  -14.1074   -1.9529 H   0  0  0  0  0  0  0  0  0  0  0  0
    8.3377  -11.5498   -0.7726 H   0  0  0  0  0  0  0  0  0  0  0  0
    9.0739  -13.2004   -0.7750 H   0  0  0  0  0  0  0  0  0  0  0  0
    8.1165  -10.3968   -2.8832 H   0  0  0  0  0  0  0  0  0  0  0  0
    8.6901  -11.2368   -4.3781 H   0  0  0  0  0  0  0  0  0  0  0  0
    6.1915  -11.2189   -4.1917 H   0  0  0  0  0  0  0  0  0  0  0  0
    6.8670  -12.8775   -4.1949 H   0  0  0  0  0  0  0  0  0  0  0  0
  1  2  1  0
  2  3  2  0
  3  4  1  0
  4  5  1  0
  5  6  2  0
  6  7  1  0
  7  8  2  0
  8  9  1  0
  9 10  1  0
 10 11  2  0
 11 12  1  0
 12 13  1  0
 13 14  2  0
 14 15  1  0
 15 16  2  0
 16 17  1  0
 17 18  1  0
 18 19  1  0
 19 20  1  0
 20 21  1  0
 20 22  1  0
 22 23  1  0
 16 24  1  0
 24 25  2  0
 11 26  1  0
 26 27  1  0
  4 28  2  0
 28 29  1  0
 29 30  2  0
 30 31  1  0
 31 32  2  0
 31 33  1  0
 33 34  1  0
 34 35  1  0
 35 36  1  0
 36 37  1  0
 37 38  1  0
 30  2  1  0
 38 33  1  0
 27  5  1  0
 27  9  2  0
 25 13  1  0
 23 17  1  0
  1 39  1  0
  1 40  1  0
  1 41  1  0
  3 42  1  0
  6 43  1  0
  7 44  1  0
  8 45  1  0
 12 46  1  0
 14 47  1  0
 15 48  1  0
 18 49  1  0
 18 50  1  0
 19 51  1  0
 19 52  1  0
 20 53  1  0
 21 54  1  0
 21 55  1  0
 21 56  1  0
 22 57  1  0
 22 58  1  0
 23 59  1  0
 23 60  1  0
 24 61  1  0
 25 62  1  0
 28 63  1  0
 29 64  1  0
 33 65  1  0
 34 66  1  0
 34 67  1  0
 35 68  1  0
 35 69  1  0
 37 70  1  0
 37 71  1  0
 38 72  1  0
 38 73  1  0
M  CHG  2  20   1  33   1
M  END
>  <meeko>  (8) 
{"is_sidechain": [false], "free_energy": -8.218, "intermolecular_energy": -11.317, "internal_energy": -0.993}

$$$$
LIB_LFIZDKRIFIBADR__M_PUB_ALL__e8__s20260927
     RDKit          3D

 73 78  0  0  0  0  0  0  0  0999 V2000
   13.5840  -12.2530   -3.2650 C   0  0  0  0  0  0  0  0  0  0  0  0
   12.7610  -13.3060   -3.9520 C   0  0  0  0  0  0  0  0  0  0  0  0
   12.8720  -13.4070   -5.3560 C   0  0  0  0  0  0  0  0  0  0  0  0
   12.0920  -14.2980   -6.1170 C   0  0  0  0  0  0  0  0  0  0  0  0
   12.1960  -14.3300   -7.5830 C   0  0  0  0  0  0  0  0  0  0  0  0
   13.4280  -14.4810   -8.2590 C   0  0  0  0  0  0  0  0  0  0  0  0
   13.5220  -14.5090   -9.6570 C   0  0  0  0  0  0  0  0  0  0  0  0
   12.3820  -14.3830  -10.4560 C   0  0  0  0  0  0  0  0  0  0  0  0
   11.1460  -14.2240   -9.8190 C   0  0  0  0  0  0  0  0  0  0  0  0
    9.8910  -14.0760  -10.3440 N   0  0  0  0  0  0  0  0  0  0  0  0
    9.1090  -13.9680   -9.2920 C   0  0  0  0  0  0  0  0  0  0  0  0
    7.7790  -13.7900   -9.1870 N   0  0  0  0  0  0  0  0  0  0  0  0
    6.9740  -13.8410   -8.0360 C   0  0  0  0  0  0  0  0  0  0  0  0
    7.0830  -14.8160   -7.0440 C   0  0  0  0  0  0  0  0  0  0  0  0
    6.2430  -14.8170   -5.9190 C   0  0  0  0  0  0  0  0  0  0  0  0
    5.2490  -13.8490   -5.7370 C   0  0  0  0  0  0  0  0  0  0  0  0
    4.4060  -13.8330   -4.6250 N   0  0  0  0  0  0  0  0  0  0  0  0
    5.0170  -13.4940   -3.3260 C   0  0  0  0  0  0  0  0  0  0  0  0
    4.1460  -13.9790   -2.1480 C   0  0  0  0  0  0  0  0  0  0  0  0
    2.6940  -13.5350   -2.2840 N   0  0  0  0  0  0  0  0  0  0  0  0
    2.4810  -12.0800   -1.9910 C   0  0  0  0  0  0  0  0  0  0  0  0
    2.1280  -13.9780   -3.6270 C   0  0  0  0  0  0  0  0  0  0  0  0
    2.9870  -13.4830   -4.8080 C   0  0  0  0  0  0  0  0  0  0  0  0
    5.1480  -12.8670   -6.7300 C   0  0  0  0  0  0  0  0  0  0  0  0
    5.9900  -12.8630   -7.8550 C   0  0  0  0  0  0  0  0  0  0  0  0
    9.7710  -14.0440   -8.0920 O   0  0  0  0  0  0  0  0  0  0  0  0
   11.0890  -14.2030   -8.4340 C   0  0  0  0  0  0  0  0  0  0  0  0
   11.1860  -15.1150   -5.4290 C   0  0  0  0  0  0  0  0  0  0  0  0
   11.0740  -15.0540   -4.0370 C   0  0  0  0  0  0  0  0  0  0  0  0
   11.8700  -14.1690   -3.2920 C   0  0  0  0  0  0  0  0  0  0  0  0
   11.6860  -14.2170   -1.8200 C   0  0  0  0  0  0  0  0  0  0  0  0
   12.2300  -15.0460   -1.1140 O   0  0  0  0  0  0  0  0  0  0  0  0
   10.9370  -13.1850   -1.0900 N   0  0  0  0  0  0  0  0  0  0  0  0
    9.4750  -13.5570   -0.9340 C   0  0  0  0  0  0  0  0  0  0  0  0
    8.7630  -12.4380   -0.1660 C   0  0  0  0  0  0  0  0  0  0  0  0
    9.3790  -12.2190    1.1080 O   0  0  0  0  0  0  0  0  0  0  0  0
   10.7590  -11.8540    0.9930 C   0  0  0  0  0  0  0  0  0  0  0  0
   11.5590  -12.9450    0.2720 C   0  0  0  0  0  0  0  0  0  0  0  0
   13.4928  -12.3696   -2.1750 H   0  0  0  0  0  0  0  0  0  0  0  0
   14.6385  -12.3624   -3.5585 H   0  0  0  0  0  0  0  0  0  0  0  0
   13.2232  -11.2562   -3.5585 H   0  0  0  0  0  0  0  0  0  0  0  0
   13.5971  -12.7636   -5.8759 H   0  0  0  0  0  0  0  0  0  0  0  0
   14.3485  -14.5804   -7.6650 H   0  0  0  0  0  0  0  0  0  0  0  0
   14.5065  -14.6318  -10.1321 H   0  0  0  0  0  0  0  0  0  0  0  0
   12.4542  -14.4081  -11.5533 H   0  0  0  0  0  0  0  0  0  0  0  0
    7.2860  -13.6010  -10.0480 H   0  0  0  0  0  0  0  0  0  0  0  0
    7.8452  -15.6026   -7.1457 H   0  0  0  0  0  0  0  0  0  0  0  0
    6.3699  -15.6016   -5.1585 H   0  0  0  0  0  0  0  0  0  0  0  0
    6.0055  -13.9720   -3.2603 H   0  0  0  0  0  0  0  0  0  0  0  0
    5.1064  -12.3995   -3.2616 H   0  0  0  0  0  0  0  0  0  0  0  0
    4.1785  -15.0779   -2.1124 H   0  0  0  0  0  0  0  0  0  0  0  0
    4.5493  -13.5363   -1.2253 H   0  0  0  0  0  0  0  0  0  0  0  0
    2.1690  -14.0520   -1.5670 H   0  0  0  0  0  0  0  0  0  0  0  0
    2.4583  -11.9247   -0.9023 H   0  0  0  0  0  0  0  0  0  0  0  0
    3.3029  -11.4938   -2.4279 H   0  0  0  0  0  0  0  0  0  0  0  0
    1.5256  -11.7540   -2.4279 H   0  0  0  0  0  0  0  0  0  0  0  0
    2.0905  -15.0771   -3.6514 H   0  0  0  0  0  0  0  0  0  0  0  0
    1.1232  -13.5429   -3.7322 H   0  0  0  0  0  0  0  0  0  0  0  0
    2.6209  -13.9468   -5.7358 H   0  0  0  0  0  0  0  0  0  0  0  0
    2.9049  -12.3873   -4.8602 H   0  0  0  0  0  0  0  0  0  0  0  0
    4.3891  -12.0774   -6.6267 H   0  0  0  0  0  0  0  0  0  0  0  0
    5.8728  -12.0726   -8.6109 H   0  0  0  0  0  0  0  0  0  0  0  0
   10.5527  -15.8156   -5.9929 H   0  0  0  0  0  0  0  0  0  0  0  0
   10.3548  -15.7061   -3.5198 H   0  0  0  0  0  0  0  0  0  0  0  0
   11.0100  -12.3180   -1.6220 H   0  0  0  0  0  0  0  0  0  0  0  0
    9.0152  -13.6756   -1.9262 H   0  0  0  0  0  0  0  0  0  0  0  0
    9.3860  -14.5051   -0.3834 H   0  0  0  0  0  0  0  0  0  0  0  0
    8.8127  -11.5098   -0.7541 H   0  0  0  0  0  0  0  0  0  0  0  0
    7.7164  -12.7349   -0.0033 H   0  0  0  0  0  0  0  0  0  0  0  0
   10.8365  -10.9159    0.4238 H   0  0  0  0  0  0  0  0  0  0  0  0
   11.1728  -11.7272    2.0043 H   0  0  0  0  0  0  0  0  0  0  0  0
   12.6025  -12.6192    0.1500 H   0  0  0  0  0  0  0  0  0  0  0  0
   11.5408  -13.8739    0.8610 H   0  0  0  0  0  0  0  0  0  0  0  0
  1  2  1  0
  2  3  2  0
  3  4  1  0
  4  5  1  0
  5  6  2  0
  6  7  1  0
  7  8  2  0
  8  9  1  0
  9 10  1  0
 10 11  2  0
 11 12  1  0
 12 13  1  0
 13 14  2  0
 14 15  1  0
 15 16  2  0
 16 17  1  0
 17 18  1  0
 18 19  1  0
 19 20  1  0
 20 21  1  0
 20 22  1  0
 22 23  1  0
 16 24  1  0
 24 25  2  0
 11 26  1  0
 26 27  1  0
  4 28  2  0
 28 29  1  0
 29 30  2  0
 30 31  1  0
 31 32  2  0
 31 33  1  0
 33 34  1  0
 34 35  1  0
 35 36  1  0
 36 37  1  0
 37 38  1  0
 30  2  1  0
 38 33  1  0
 27  5  1  0
 27  9  2  0
 25 13  1  0
 23 17  1  0
  1 39  1  0
  1 40  1  0
  1 41  1  0
  3 42  1  0
  6 43  1  0
  7 44  1  0
  8 45  1  0
 12 46  1  0
 14 47  1  0
 15 48  1  0
 18 49  1  0
 18 50  1  0
 19 51  1  0
 19 52  1  0
 20 53  1  0
 21 54  1  0
 21 55  1  0
 21 56  1  0
 22 57  1  0
 22 58  1  0
 23 59  1  0
 23 60  1  0
 24 61  1  0
 25 62  1  0
 28 63  1  0
 29 64  1  0
 33 65  1  0
 34 66  1  0
 34 67  1  0
 35 68  1  0
 35 69  1  0
 37 70  1  0
 37 71  1  0
 38 72  1  0
 38 73  1  0
M  CHG  2  20   1  33   1
M  END
>  <meeko>  (9) 
{"is_sidechain": [false], "free_energy": -8.204, "intermolecular_energy": -11.158, "internal_energy": -1.134}

$$$$
