LIB_BEYBHILIDYTJTL__M_PUB_ALL__e8__s20260927
     RDKit          3D

 80 85  0  0  0  0  0  0  0  0999 V2000
    8.8050  -14.5110   -8.4620 C   0  0  0  0  0  0  0  0  0  0  0  0
    7.7570  -13.7140   -7.7350 N   0  0  0  0  0  0  0  0  0  0  0  0
    6.7410  -13.0880   -8.6760 C   0  0  0  0  0  0  0  0  0  0  0  0
    7.4340  -12.5150   -9.9240 C   0  0  0  0  0  0  0  0  0  0  0  0
    6.9880  -13.1180  -11.1450 O   0  0  0  0  0  0  0  0  0  0  0  0
    7.9770  -13.1550  -12.1820 C   0  0  0  0  0  0  0  0  0  0  0  0
   -1.5430   -8.8760    4.2100 C   0  0  0  0  0  0  0  0  0  0  0  0
   -1.5480   -8.4620    2.8370 O   0  0  0  0  0  0  0  0  0  0  0  0
   -1.6300   -9.5420    1.9020 C   0  0  0  0  0  0  0  0  0  0  0  0
   -0.3110   -9.8860    1.1840 C   0  0  0  0  0  0  0  0  0  0  0  0
    0.2840  -11.1990    1.6640 N   0  0  0  0  0  0  0  0  0  0  0  0
   -0.7150  -12.0130    2.4440 C   0  0  0  0  0  0  0  0  0  0  0  0
    0.9610  -12.0080    0.5610 C   0  0  0  0  0  0  0  0  0  0  0  0
    0.9870  -13.5080    0.9060 C   0  0  0  0  0  0  0  0  0  0  0  0
    2.3140  -14.0610    0.6720 N   0  0  0  0  0  0  0  0  0  0  0  0
    3.5210  -13.3820    0.5940 C   0  0  0  0  0  0  0  0  0  0  0  0
    4.5390  -14.1140    0.0900 C   0  0  0  0  0  0  0  0  0  0  0  0
    3.9210  -15.4270   -0.1950 C   0  0  0  0  0  0  0  0  0  0  0  0
    4.4460  -16.5860   -0.7420 C   0  0  0  0  0  0  0  0  0  0  0  0
    3.5860  -17.6670   -0.9390 C   0  0  0  0  0  0  0  0  0  0  0  0
    2.2270  -17.5740   -0.6030 C   0  0  0  0  0  0  0  0  0  0  0  0
    1.7000  -16.3980   -0.0580 C   0  0  0  0  0  0  0  0  0  0  0  0
    2.5530  -15.3300    0.1490 C   0  0  0  0  0  0  0  0  0  0  0  0
    5.8830  -13.6680   -0.1450 C   0  0  0  0  0  0  0  0  0  0  0  0
    6.4640  -13.2290   -1.2760 C   0  0  0  0  0  0  0  0  0  0  0  0
    7.8410  -12.8020   -0.9090 C   0  0  0  0  0  0  0  0  0  0  0  0
    8.6230  -12.2200   -1.6390 O   0  0  0  0  0  0  0  0  0  0  0  0
    8.0280  -13.0980    0.3900 N   0  0  0  0  0  0  0  0  0  0  0  0
    6.8870  -13.5530    0.9400 C   0  0  0  0  0  0  0  0  0  0  0  0
    6.6890  -13.7610    2.1210 O   0  0  0  0  0  0  0  0  0  0  0  0
    5.9270  -13.0760   -2.6020 C   0  0  0  0  0  0  0  0  0  0  0  0
    6.3440  -13.7600   -3.6900 C   0  0  0  0  0  0  0  0  0  0  0  0
    5.7650  -13.3640   -4.8850 N   0  0  0  0  0  0  0  0  0  0  0  0
    4.7950  -12.4220   -4.5300 C   0  0  0  0  0  0  0  0  0  0  0  0
    3.8570  -11.7670   -5.3080 C   0  0  0  0  0  0  0  0  0  0  0  0
    2.9550  -10.9050   -4.6750 C   0  0  0  0  0  0  0  0  0  0  0  0
    2.9880  -10.7230   -3.2830 C   0  0  0  0  0  0  0  0  0  0  0  0
    3.9330  -11.3900   -2.4980 C   0  0  0  0  0  0  0  0  0  0  0  0
    4.8500  -12.2130   -3.1320 C   0  0  0  0  0  0  0  0  0  0  0  0
    5.7590  -14.0200   -6.1870 C   0  0  0  0  0  0  0  0  0  0  0  0
    7.1510  -14.5330   -6.5920 C   0  0  0  0  0  0  0  0  0  0  0  0
    9.4595  -15.0088   -7.7314 H   0  0  0  0  0  0  0  0  0  0  0  0
    8.3173  -15.2685   -9.0932 H   0  0  0  0  0  0  0  0  0  0  0  0
    9.4047  -13.8387   -9.0932 H   0  0  0  0  0  0  0  0  0  0  0  0
    8.2470  -12.9170   -7.2850 H   0  0  0  0  0  0  0  0  0  0  0  0
    6.0160  -13.8550   -8.9861 H   0  0  0  0  0  0  0  0  0  0  0  0
    6.2296  -12.2690   -8.1490 H   0  0  0  0  0  0  0  0  0  0  0  0
    7.2297  -11.4352   -9.9725 H   0  0  0  0  0  0  0  0  0  0  0  0
    8.5088  -12.7286   -9.8278 H   0  0  0  0  0  0  0  0  0  0  0  0
    8.7675  -13.9150  -12.2687 H   0  0  0  0  0  0  0  0  0  0  0  0
    8.2901  -12.8530  -13.1923 H   0  0  0  0  0  0  0  0  0  0  0  0
   -2.3175   -9.5319    4.6342 H   0  0  0  0  0  0  0  0  0  0  0  0
   -1.3861   -8.4956    5.2301 H   0  0  0  0  0  0  0  0  0  0  0  0
   -1.9663  -10.4378    2.4446 H   0  0  0  0  0  0  0  0  0  0  0  0
   -2.3297   -9.2163    1.1182 H   0  0  0  0  0  0  0  0  0  0  0  0
   -0.5056   -9.9602    0.1039 H   0  0  0  0  0  0  0  0  0  0  0  0
    0.4117   -9.0879    1.4093 H   0  0  0  0  0  0  0  0  0  0  0  0
    1.0500  -10.9900    2.3290 H   0  0  0  0  0  0  0  0  0  0  0  0
   -0.5419  -11.8719    3.5211 H   0  0  0  0  0  0  0  0  0  0  0  0
   -1.7337  -11.6845    2.1903 H   0  0  0  0  0  0  0  0  0  0  0  0
   -0.5990  -13.0770    2.1903 H   0  0  0  0  0  0  0  0  0  0  0  0
    0.4079  -11.8657   -0.3791 H   0  0  0  0  0  0  0  0  0  0  0  0
    1.9982  -11.6565    0.4582 H   0  0  0  0  0  0  0  0  0  0  0  0
    0.7208  -13.6408    1.9650 H   0  0  0  0  0  0  0  0  0  0  0  0
    0.2638  -14.0336    0.2651 H   0  0  0  0  0  0  0  0  0  0  0  0
    3.6395  -12.3366    0.9151 H   0  0  0  0  0  0  0  0  0  0  0  0
    5.5100  -16.6524   -1.0132 H   0  0  0  0  0  0  0  0  0  0  0  0
    3.9782  -18.6033   -1.3628 H   0  0  0  0  0  0  0  0  0  0  0  0
    1.5666  -18.4376   -0.7704 H   0  0  0  0  0  0  0  0  0  0  0  0
    0.6330  -16.3251    0.1995 H   0  0  0  0  0  0  0  0  0  0  0  0
    8.8710  -12.9060    0.9070 H   0  0  0  0  0  0  0  0  0  0  0  0
    7.0865  -14.5695   -3.6316 H   0  0  0  0  0  0  0  0  0  0  0  0
    3.8213  -11.9201   -6.3967 H   0  0  0  0  0  0  0  0  0  0  0  0
    2.2100  -10.3626   -5.2757 H   0  0  0  0  0  0  0  0  0  0  0  0
    2.2624  -10.0483   -2.8052 H   0  0  0  0  0  0  0  0  0  0  0  0
    3.9483  -11.2648   -1.4053 H   0  0  0  0  0  0  0  0  0  0  0  0
    5.0654  -14.8730   -6.1495 H   0  0  0  0  0  0  0  0  0  0  0  0
    5.4448  -13.2772   -6.9351 H   0  0  0  0  0  0  0  0  0  0  0  0
    7.8187  -14.4729   -5.7199 H   0  0  0  0  0  0  0  0  0  0  0  0
    7.0413  -15.5707   -6.9401 H   0  0  0  0  0  0  0  0  0  0  0  0
  1  2  1  0
  2  3  1  0
  3  4  1  0
  4  5  1  0
  5  6  1  0
  6  7  1  0
  7  8  1  0
  8  9  1  0
  9 10  1  0
 10 11  1  0
 11 12  1  0
 11 13  1  0
 13 14  1  0
 14 15  1  0
 15 16  1  0
 16 17  2  0
 17 18  1  0
 18 19  2  0
 19 20  1  0
 20 21  2  0
 21 22  1  0
 22 23  2  0
 17 24  1  0
 24 25  2  0
 25 26  1  0
 26 27  2  0
 26 28  1  0
 28 29  1  0
 29 30  2  0
 25 31  1  0
 31 32  2  0
 32 33  1  0
 33 34  1  0
 34 35  2  0
 35 36  1  0
 36 37  2  0
 37 38  1  0
 38 39  2  0
 33 40  1  0
 40 41  1  0
 41  2  1  0
 23 15  1  0
 29 24  1  0
 39 31  1  0
 23 18  1  0
 39 34  1  0
  1 42  1  0
  1 43  1  0
  1 44  1  0
  2 45  1  0
  3 46  1  0
  3 47  1  0
  4 48  1  0
  4 49  1  0
  6 50  1  0
  6 51  1  0
  7 52  1  0
  7 53  1  0
  9 54  1  0
  9 55  1  0
 10 56  1  0
 10 57  1  0
 11 58  1  0
 12 59  1  0
 12 60  1  0
 12 61  1  0
 13 62  1  0
 13 63  1  0
 14 64  1  0
 14 65  1  0
 16 66  1  0
 19 67  1  0
 20 68  1  0
 21 69  1  0
 22 70  1  0
 28 71  1  0
 32 72  1  0
 35 73  1  0
 36 74  1  0
 37 75  1  0
 38 76  1  0
 40 77  1  0
 40 78  1  0
 41 79  1  0
 41 80  1  0
M  CHG  2   2   1  11   1
M  END
>  <meeko>  (1) 
{"is_sidechain": [false], "free_energy": -6.549, "intermolecular_energy": -12.674, "internal_energy": -2.35}

$$$$
LIB_BEYBHILIDYTJTL__M_PUB_ALL__e8__s20260927
     RDKit          3D

 80 85  0  0  0  0  0  0  0  0999 V2000
    8.8670  -14.5600   -7.0900 C   0  0  0  0  0  0  0  0  0  0  0  0
    7.5690  -14.0890   -6.4940 N   0  0  0  0  0  0  0  0  0  0  0  0
    6.5240  -13.7640   -7.5490 C   0  0  0  0  0  0  0  0  0  0  0  0
    7.1910  -13.4700   -8.9040 C   0  0  0  0  0  0  0  0  0  0  0  0
    6.3330  -13.7260  -10.0230 O   0  0  0  0  0  0  0  0  0  0  0  0
    6.9210  -13.4340  -11.2980 C   0  0  0  0  0  0  0  0  0  0  0  0
    0.0010  -17.1100    7.3100 C   0  0  0  0  0  0  0  0  0  0  0  0
    1.0970  -16.3860    6.7350 O   0  0  0  0  0  0  0  0  0  0  0  0
    0.7070  -15.2140    6.0130 C   0  0  0  0  0  0  0  0  0  0  0  0
    0.9280  -15.2800    4.4900 C   0  0  0  0  0  0  0  0  0  0  0  0
    0.7690  -16.6890    3.9440 N   0  0  0  0  0  0  0  0  0  0  0  0
   -0.6010  -16.9110    3.3600 C   0  0  0  0  0  0  0  0  0  0  0  0
    1.8850  -17.1090    2.9910 C   0  0  0  0  0  0  0  0  0  0  0  0
    1.4860  -16.8620    1.5240 C   0  0  0  0  0  0  0  0  0  0  0  0
    2.0670  -15.6170    1.0420 N   0  0  0  0  0  0  0  0  0  0  0  0
    3.4050  -15.2560    1.0050 C   0  0  0  0  0  0  0  0  0  0  0  0
    3.6200  -13.9420    0.7730 C   0  0  0  0  0  0  0  0  0  0  0  0
    2.2590  -13.3790    0.6440 C   0  0  0  0  0  0  0  0  0  0  0  0
    1.8210  -12.0850    0.4240 C   0  0  0  0  0  0  0  0  0  0  0  0
    0.4460  -11.8510    0.4010 C   0  0  0  0  0  0  0  0  0  0  0  0
   -0.4640  -12.9000    0.6090 C   0  0  0  0  0  0  0  0  0  0  0  0
   -0.0160  -14.2050    0.8380 C   0  0  0  0  0  0  0  0  0  0  0  0
    1.3460  -14.4400    0.8480 C   0  0  0  0  0  0  0  0  0  0  0  0
    4.8910  -13.2760    0.7210 C   0  0  0  0  0  0  0  0  0  0  0  0
    5.6160  -12.8750   -0.3380 C   0  0  0  0  0  0  0  0  0  0  0  0
    6.7950  -12.1490    0.2020 C   0  0  0  0  0  0  0  0  0  0  0  0
    7.6060  -11.5200   -0.4550 O   0  0  0  0  0  0  0  0  0  0  0  0
    6.7520  -12.2400    1.5440 N   0  0  0  0  0  0  0  0  0  0  0  0
    5.6120  -12.8360    1.9400 C   0  0  0  0  0  0  0  0  0  0  0  0
    5.2080  -12.9310    3.0830 O   0  0  0  0  0  0  0  0  0  0  0  0
    5.3520  -12.9940   -1.7480 C   0  0  0  0  0  0  0  0  0  0  0  0
    5.8210  -13.9800   -2.5440 C   0  0  0  0  0  0  0  0  0  0  0  0
    5.5380  -13.8270   -3.8910 N   0  0  0  0  0  0  0  0  0  0  0  0
    4.7040  -12.7060   -3.9680 C   0  0  0  0  0  0  0  0  0  0  0  0
    4.0460  -12.1530   -5.0510 C   0  0  0  0  0  0  0  0  0  0  0  0
    3.2160  -11.0480   -4.8300 C   0  0  0  0  0  0  0  0  0  0  0  0
    3.0420  -10.5250   -3.5390 C   0  0  0  0  0  0  0  0  0  0  0  0
    3.7020  -11.0900   -2.4440 C   0  0  0  0  0  0  0  0  0  0  0  0
    4.5530  -12.1600   -2.6710 C   0  0  0  0  0  0  0  0  0  0  0  0
    5.6390  -14.7840   -4.9860 C   0  0  0  0  0  0  0  0  0  0  0  0
    7.0960  -15.0500   -5.3990 C   0  0  0  0  0  0  0  0  0  0  0  0
    9.5698  -14.8150   -6.2831 H   0  0  0  0  0  0  0  0  0  0  0  0
    8.6839  -15.4490   -7.7114 H   0  0  0  0  0  0  0  0  0  0  0  0
    9.2966  -13.7605   -7.7114 H   0  0  0  0  0  0  0  0  0  0  0  0
    7.7690  -13.1900   -6.0160 H   0  0  0  0  0  0  0  0  0  0  0  0
    5.8442  -14.6217   -7.6599 H   0  0  0  0  0  0  0  0  0  0  0  0
    5.9650  -12.8721   -7.2295 H   0  0  0  0  0  0  0  0  0  0  0  0
    7.4869  -12.4108   -8.9255 H   0  0  0  0  0  0  0  0  0  0  0  0
    8.0565  -14.1428   -8.9951 H   0  0  0  0  0  0  0  0  0  0  0  0
    7.4582  -14.1569  -11.9296 H   0  0  0  0  0  0  0  0  0  0  0  0
    6.5561  -12.3986  -11.2292 H   0  0  0  0  0  0  0  0  0  0  0  0
   -0.8881  -16.6073    7.7183 H   0  0  0  0  0  0  0  0  0  0  0  0
   -0.2156  -17.9392    7.9996 H   0  0  0  0  0  0  0  0  0  0  0  0
   -0.3643  -15.0428    6.1946 H   0  0  0  0  0  0  0  0  0  0  0  0
    1.3496  -14.4003    6.3804 H   0  0  0  0  0  0  0  0  0  0  0  0
    0.1942  -14.6250    3.9975 H   0  0  0  0  0  0  0  0  0  0  0  0
    1.9586  -14.9545    4.2854 H   0  0  0  0  0  0  0  0  0  0  0  0
    0.8460  -17.3590    4.7310 H   0  0  0  0  0  0  0  0  0  0  0  0
   -1.3317  -17.0294    4.1737 H   0  0  0  0  0  0  0  0  0  0  0  0
   -0.8798  -16.0463    2.7398 H   0  0  0  0  0  0  0  0  0  0  0  0
   -0.5924  -17.8195    2.7398 H   0  0  0  0  0  0  0  0  0  0  0  0
    2.7901  -16.5272    3.2196 H   0  0  0  0  0  0  0  0  0  0  0  0
    2.0716  -18.1847    3.1252 H   0  0  0  0  0  0  0  0  0  0  0  0
    1.8494  -17.6951    0.9045 H   0  0  0  0  0  0  0  0  0  0  0  0
    0.3901  -16.7925    1.4595 H   0  0  0  0  0  0  0  0  0  0  0  0
    4.2221  -15.9776    1.1520 H   0  0  0  0  0  0  0  0  0  0  0  0
    2.5369  -11.2639    0.2715 H   0  0  0  0  0  0  0  0  0  0  0  0
    0.0704  -10.8334    0.2179 H   0  0  0  0  0  0  0  0  0  0  0  0
   -1.5441  -12.6925    0.5916 H   0  0  0  0  0  0  0  0  0  0  0  0
   -0.7303  -15.0245    1.0061 H   0  0  0  0  0  0  0  0  0  0  0  0
    7.4240  -11.8260    2.1700 H   0  0  0  0  0  0  0  0  0  0  0  0
    6.3849  -14.8392   -2.1518 H   0  0  0  0  0  0  0  0  0  0  0  0
    4.1717  -12.5709   -6.0607 H   0  0  0  0  0  0  0  0  0  0  0  0
    2.6932  -10.5833   -5.6790 H   0  0  0  0  0  0  0  0  0  0  0  0
    2.3787   -9.6607   -3.3873 H   0  0  0  0  0  0  0  0  0  0  0  0
    3.5499  -10.6956   -1.4285 H   0  0  0  0  0  0  0  0  0  0  0  0
    5.1827  -15.7333   -4.6688 H   0  0  0  0  0  0  0  0  0  0  0  0
    5.1168  -14.3564   -5.8546 H   0  0  0  0  0  0  0  0  0  0  0  0
    7.7424  -14.9288   -4.5172 H   0  0  0  0  0  0  0  0  0  0  0  0
    7.1535  -16.0733   -5.7984 H   0  0  0  0  0  0  0  0  0  0  0  0
  1  2  1  0
  2  3  1  0
  3  4  1  0
  4  5  1  0
  5  6  1  0
  6  7  1  0
  7  8  1  0
  8  9  1  0
  9 10  1  0
 10 11  1  0
 11 12  1  0
 11 13  1  0
 13 14  1  0
 14 15  1  0
 15 16  1  0
 16 17  2  0
 17 18  1  0
 18 19  2  0
 19 20  1  0
 20 21  2  0
 21 22  1  0
 22 23  2  0
 17 24  1  0
 24 25  2  0
 25 26  1  0
 26 27  2  0
 26 28  1  0
 28 29  1  0
 29 30  2  0
 25 31  1  0
 31 32  2  0
 32 33  1  0
 33 34  1  0
 34 35  2  0
 35 36  1  0
 36 37  2  0
 37 38  1  0
 38 39  2  0
 33 40  1  0
 40 41  1  0
 41  2  1  0
 23 15  1  0
 29 24  1  0
 39 31  1  0
 23 18  1  0
 39 34  1  0
  1 42  1  0
  1 43  1  0
  1 44  1  0
  2 45  1  0
  3 46  1  0
  3 47  1  0
  4 48  1  0
  4 49  1  0
  6 50  1  0
  6 51  1  0
  7 52  1  0
  7 53  1  0
  9 54  1  0
  9 55  1  0
 10 56  1  0
 10 57  1  0
 11 58  1  0
 12 59  1  0
 12 60  1  0
 12 61  1  0
 13 62  1  0
 13 63  1  0
 14 64  1  0
 14 65  1  0
 16 66  1  0
 19 67  1  0
 20 68  1  0
 21 69  1  0
 22 70  1  0
 28 71  1  0
 32 72  1  0
 35 73  1  0
 36 74  1  0
 37 75  1  0
 38 76  1  0
 40 77  1  0
 40 78  1  0
 41 79  1  0
 41 80  1  0
M  CHG  2   2   1  11   1
M  END
>  <meeko>  (2) 
{"is_sidechain": [false], "free_energy": -6.447, "intermolecular_energy": -12.022, "internal_energy": -2.806}

$$$$
LIB_BEYBHILIDYTJTL__M_PUB_ALL__e8__s20260927
     RDKit          3D

 80 85  0  0  0  0  0  0  0  0999 V2000
   -0.6850   -9.8730    1.5080 C   0  0  0  0  0  0  0  0  0  0  0  0
    0.3070  -10.9920    1.6640 N   0  0  0  0  0  0  0  0  0  0  0  0
   -0.3600  -12.3300    1.9440 C   0  0  0  0  0  0  0  0  0  0  0  0
   -1.6820  -12.4520    1.1670 C   0  0  0  0  0  0  0  0  0  0  0  0
   -2.6420  -13.2970    1.8150 O   0  0  0  0  0  0  0  0  0  0  0  0
   -3.7580  -12.5980    2.3810 C   0  0  0  0  0  0  0  0  0  0  0  0
   14.3710  -11.8360   -3.2330 C   0  0  0  0  0  0  0  0  0  0  0  0
   13.2110  -11.6420   -2.4120 O   0  0  0  0  0  0  0  0  0  0  0  0
   12.1830  -12.6170   -2.6140 C   0  0  0  0  0  0  0  0  0  0  0  0
   12.1610  -13.2630   -4.0120 C   0  0  0  0  0  0  0  0  0  0  0  0
   11.8520  -14.7490   -3.9570 N   0  0  0  0  0  0  0  0  0  0  0  0
   12.3920  -15.3860   -2.7040 C   0  0  0  0  0  0  0  0  0  0  0  0
   10.3810  -15.0820   -4.1930 C   0  0  0  0  0  0  0  0  0  0  0  0
    9.8490  -16.0510   -3.1210 C   0  0  0  0  0  0  0  0  0  0  0  0
    8.8760  -15.3820   -2.2690 N   0  0  0  0  0  0  0  0  0  0  0  0
    8.9150  -14.0840   -1.7820 C   0  0  0  0  0  0  0  0  0  0  0  0
    8.0280  -13.8340   -0.7950 C   0  0  0  0  0  0  0  0  0  0  0  0
    7.3270  -15.1230   -0.6160 C   0  0  0  0  0  0  0  0  0  0  0  0
    6.3260  -15.5070    0.2610 C   0  0  0  0  0  0  0  0  0  0  0  0
    5.8940  -16.8330    0.2250 C   0  0  0  0  0  0  0  0  0  0  0  0
    6.4690  -17.7510   -0.6670 C   0  0  0  0  0  0  0  0  0  0  0  0
    7.4850  -17.3610   -1.5450 C   0  0  0  0  0  0  0  0  0  0  0  0
    7.9050  -16.0440   -1.5190 C   0  0  0  0  0  0  0  0  0  0  0  0
    7.8680  -12.6010   -0.0760 C   0  0  0  0  0  0  0  0  0  0  0  0
    6.7770  -11.8350    0.0970 C   0  0  0  0  0  0  0  0  0  0  0  0
    7.1700  -10.7340    1.0160 C   0  0  0  0  0  0  0  0  0  0  0  0
    6.4140   -9.9200    1.5150 O   0  0  0  0  0  0  0  0  0  0  0  0
    8.4880  -10.8560    1.2590 N   0  0  0  0  0  0  0  0  0  0  0  0
    8.9680  -11.9830    0.7040 C   0  0  0  0  0  0  0  0  0  0  0  0
   10.0780  -12.4520    0.8690 O   0  0  0  0  0  0  0  0  0  0  0  0
    5.4320  -12.0030   -0.3880 C   0  0  0  0  0  0  0  0  0  0  0  0
    4.3440  -12.1820    0.3910 C   0  0  0  0  0  0  0  0  0  0  0  0
    3.1690  -12.4420   -0.2970 N   0  0  0  0  0  0  0  0  0  0  0  0
    3.4950  -12.2990   -1.6490 C   0  0  0  0  0  0  0  0  0  0  0  0
    2.6920  -12.3540   -2.7740 C   0  0  0  0  0  0  0  0  0  0  0  0
    3.2790  -12.1150   -4.0210 C   0  0  0  0  0  0  0  0  0  0  0  0
    4.6440  -11.8080   -4.1270 C   0  0  0  0  0  0  0  0  0  0  0  0
    5.4530  -11.7470   -2.9900 C   0  0  0  0  0  0  0  0  0  0  0  0
    4.8790  -12.0220   -1.7590 C   0  0  0  0  0  0  0  0  0  0  0  0
    1.7880  -12.4230    0.1670 C   0  0  0  0  0  0  0  0  0  0  0  0
    1.2990  -11.0030    0.4980 C   0  0  0  0  0  0  0  0  0  0  0  0
   -0.9983   -9.5196    2.5015 H   0  0  0  0  0  0  0  0  0  0  0  0
   -0.2192   -9.0446    0.9542 H   0  0  0  0  0  0  0  0  0  0  0  0
   -1.5633  -10.2362    0.9542 H   0  0  0  0  0  0  0  0  0  0  0  0
    0.8660  -10.7790    2.5120 H   0  0  0  0  0  0  0  0  0  0  0  0
    0.3158  -13.1417    1.6365 H   0  0  0  0  0  0  0  0  0  0  0  0
   -0.5750  -12.3994    3.0206 H   0  0  0  0  0  0  0  0  0  0  0  0
   -2.1174  -11.4477    1.0580 H   0  0  0  0  0  0  0  0  0  0  0  0
   -1.4484  -12.9089    0.1940 H   0  0  0  0  0  0  0  0  0  0  0  0
   -4.5968  -12.2067    1.7866 H   0  0  0  0  0  0  0  0  0  0  0  0
   -4.4380  -12.5337    3.2433 H   0  0  0  0  0  0  0  0  0  0  0  0
   15.1003  -12.6489   -3.1019 H   0  0  0  0  0  0  0  0  0  0  0  0
   15.1216  -11.3967   -3.9065 H   0  0  0  0  0  0  0  0  0  0  0  0
   12.3209  -13.4166   -1.8713 H   0  0  0  0  0  0  0  0  0  0  0  0
   11.2279  -12.0815   -2.5089 H   0  0  0  0  0  0  0  0  0  0  0  0
   11.3917  -12.7642   -4.6198 H   0  0  0  0  0  0  0  0  0  0  0  0
   13.1618  -13.1441   -4.4528 H   0  0  0  0  0  0  0  0  0  0  0  0
   12.3440  -15.2180   -4.7390 H   0  0  0  0  0  0  0  0  0  0  0  0
   11.9654  -14.8828   -1.8237 H   0  0  0  0  0  0  0  0  0  0  0  0
   12.1174  -16.4510   -2.6865 H   0  0  0  0  0  0  0  0  0  0  0  0
   13.4876  -15.2895   -2.6865 H   0  0  0  0  0  0  0  0  0  0  0  0
    9.7932  -14.1528   -4.1598 H   0  0  0  0  0  0  0  0  0  0  0  0
   10.2875  -15.5660   -5.1764 H   0  0  0  0  0  0  0  0  0  0  0  0
    9.3692  -16.9091   -3.6144 H   0  0  0  0  0  0  0  0  0  0  0  0
   10.6905  -16.3932   -2.5006 H   0  0  0  0  0  0  0  0  0  0  0  0
    9.6095  -13.3228   -2.1671 H   0  0  0  0  0  0  0  0  0  0  0  0
    5.8843  -14.7870    0.9657 H   0  0  0  0  0  0  0  0  0  0  0  0
    5.0935  -17.1627    0.9036 H   0  0  0  0  0  0  0  0  0  0  0  0
    6.1154  -18.7926   -0.6757 H   0  0  0  0  0  0  0  0  0  0  0  0
    7.9387  -18.0839   -2.2390 H   0  0  0  0  0  0  0  0  0  0  0  0
    9.0190  -10.2480    1.8620 H   0  0  0  0  0  0  0  0  0  0  0  0
    4.3867  -12.1258    1.4887 H   0  0  0  0  0  0  0  0  0  0  0  0
    1.6187  -12.5800   -2.6901 H   0  0  0  0  0  0  0  0  0  0  0  0
    2.6624  -12.1684   -4.9304 H   0  0  0  0  0  0  0  0  0  0  0  0
    5.0821  -11.6131   -5.1170 H   0  0  0  0  0  0  0  0  0  0  0  0
    6.5189  -11.4872   -3.0697 H   0  0  0  0  0  0  0  0  0  0  0  0
    1.1452  -12.8431   -0.6205 H   0  0  0  0  0  0  0  0  0  0  0  0
    1.7367  -13.0186    1.0904 H   0  0  0  0  0  0  0  0  0  0  0  0
    2.1670  -10.3823    0.7651 H   0  0  0  0  0  0  0  0  0  0  0  0
    0.7829  -10.6074   -0.3892 H   0  0  0  0  0  0  0  0  0  0  0  0
  1  2  1  0
  2  3  1  0
  3  4  1  0
  4  5  1  0
  5  6  1  0
  6  7  1  0
  7  8  1  0
  8  9  1  0
  9 10  1  0
 10 11  1  0
 11 12  1  0
 11 13  1  0
 13 14  1  0
 14 15  1  0
 15 16  1  0
 16 17  2  0
 17 18  1  0
 18 19  2  0
 19 20  1  0
 20 21  2  0
 21 22  1  0
 22 23  2  0
 17 24  1  0
 24 25  2  0
 25 26  1  0
 26 27  2  0
 26 28  1  0
 28 29  1  0
 29 30  2  0
 25 31  1  0
 31 32  2  0
 32 33  1  0
 33 34  1  0
 34 35  2  0
 35 36  1  0
 36 37  2  0
 37 38  1  0
 38 39  2  0
 33 40  1  0
 40 41  1  0
 41  2  1  0
 23 15  1  0
 29 24  1  0
 39 31  1  0
 23 18  1  0
 39 34  1  0
  1 42  1  0
  1 43  1  0
  1 44  1  0
  2 45  1  0
  3 46  1  0
  3 47  1  0
  4 48  1  0
  4 49  1  0
  6 50  1  0
  6 51  1  0
  7 52  1  0
  7 53  1  0
  9 54  1  0
  9 55  1  0
 10 56  1  0
 10 57  1  0
 11 58  1  0
 12 59  1  0
 12 60  1  0
 12 61  1  0
 13 62  1  0
 13 63  1  0
 14 64  1  0
 14 65  1  0
 16 66  1  0
 19 67  1  0
 20 68  1  0
 21 69  1  0
 22 70  1  0
 28 71  1  0
 32 72  1  0
 35 73  1  0
 36 74  1  0
 37 75  1  0
 38 76  1  0
 40 77  1  0
 40 78  1  0
 41 79  1  0
 41 80  1  0
M  CHG  2   2   1  11   1
M  END
>  <meeko>  (3) 
{"is_sidechain": [false], "free_energy": -6.401, "intermolecular_energy": -12.319, "internal_energy": -2.419}

$$$$
LIB_BEYBHILIDYTJTL__M_PUB_ALL__e8__s20260927
     RDKit          3D

 80 85  0  0  0  0  0  0  0  0999 V2000
    2.1840  -13.3750   -4.1390 C   0  0  0  0  0  0  0  0  0  0  0  0
    2.6620  -12.4860   -3.0240 N   0  0  0  0  0  0  0  0  0  0  0  0
    1.8340  -12.6390   -1.7590 C   0  0  0  0  0  0  0  0  0  0  0  0
    2.5150  -11.9340   -0.5740 C   0  0  0  0  0  0  0  0  0  0  0  0
    1.6390  -11.7300    0.5420 O   0  0  0  0  0  0  0  0  0  0  0  0
    0.8060  -10.5680    0.4350 C   0  0  0  0  0  0  0  0  0  0  0  0
   17.9710  -16.7130  -10.3350 C   0  0  0  0  0  0  0  0  0  0  0  0
   17.3100  -16.0680   -9.2370 O   0  0  0  0  0  0  0  0  0  0  0  0
   15.8930  -15.9540   -9.3940 C   0  0  0  0  0  0  0  0  0  0  0  0
   15.1660  -15.2140   -8.2550 C   0  0  0  0  0  0  0  0  0  0  0  0
   14.2590  -14.1100   -8.7690 N   0  0  0  0  0  0  0  0  0  0  0  0
   14.5250  -13.7980  -10.2190 C   0  0  0  0  0  0  0  0  0  0  0  0
   12.7780  -14.3480   -8.4860 C   0  0  0  0  0  0  0  0  0  0  0  0
   11.8980  -13.3110   -9.2090 C   0  0  0  0  0  0  0  0  0  0  0  0
   10.4890  -13.5790   -8.9600 N   0  0  0  0  0  0  0  0  0  0  0  0
    9.9350  -14.5380   -8.1250 C   0  0  0  0  0  0  0  0  0  0  0  0
    8.6120  -14.7390   -8.3110 C   0  0  0  0  0  0  0  0  0  0  0  0
    8.2610  -13.7990   -9.3970 C   0  0  0  0  0  0  0  0  0  0  0  0
    7.0610  -13.5550  -10.0440 C   0  0  0  0  0  0  0  0  0  0  0  0
    7.0540  -12.6260  -11.0850 C   0  0  0  0  0  0  0  0  0  0  0  0
    8.2340  -11.9710  -11.4710 C   0  0  0  0  0  0  0  0  0  0  0  0
    9.4450  -12.2270  -10.8190 C   0  0  0  0  0  0  0  0  0  0  0  0
    9.4510  -13.1380   -9.7790 C   0  0  0  0  0  0  0  0  0  0  0  0
    7.7840  -15.6910   -7.6250 C   0  0  0  0  0  0  0  0  0  0  0  0
    7.0930  -15.5700   -6.4780 C   0  0  0  0  0  0  0  0  0  0  0  0
    6.3330  -16.8360   -6.3020 C   0  0  0  0  0  0  0  0  0  0  0  0
    5.4870  -17.0450   -5.4510 O   0  0  0  0  0  0  0  0  0  0  0  0
    6.6850  -17.6660   -7.3010 N   0  0  0  0  0  0  0  0  0  0  0  0
    7.4930  -17.0370   -8.1750 C   0  0  0  0  0  0  0  0  0  0  0  0
    7.8590  -17.4640   -9.2530 O   0  0  0  0  0  0  0  0  0  0  0  0
    6.9740  -14.4570   -5.5740 C   0  0  0  0  0  0  0  0  0  0  0  0
    5.8390  -13.7600   -5.3480 C   0  0  0  0  0  0  0  0  0  0  0  0
    5.9870  -12.6530   -4.5280 N   0  0  0  0  0  0  0  0  0  0  0  0
    7.3110  -12.7010   -4.0790 C   0  0  0  0  0  0  0  0  0  0  0  0
    7.9760  -11.9010   -3.1680 C   0  0  0  0  0  0  0  0  0  0  0  0
    9.3030  -12.2140   -2.8550 C   0  0  0  0  0  0  0  0  0  0  0  0
    9.9380  -13.3220   -3.4370 C   0  0  0  0  0  0  0  0  0  0  0  0
    9.2630  -14.1330   -4.3530 C   0  0  0  0  0  0  0  0  0  0  0  0
    7.9610  -13.8000   -4.6900 C   0  0  0  0  0  0  0  0  0  0  0  0
    4.9790  -11.8390   -3.8610 C   0  0  0  0  0  0  0  0  0  0  0  0
    4.1730  -12.6370   -2.8230 C   0  0  0  0  0  0  0  0  0  0  0  0
    1.7034  -14.2689   -3.7148 H   0  0  0  0  0  0  0  0  0  0  0  0
    1.4585  -12.8278   -4.7588 H   0  0  0  0  0  0  0  0  0  0  0  0
    3.0406  -13.6785   -4.7588 H   0  0  0  0  0  0  0  0  0  0  0  0
    2.5140  -11.5080   -3.3370 H   0  0  0  0  0  0  0  0  0  0  0  0
    0.8412  -12.1942   -1.9215 H   0  0  0  0  0  0  0  0  0  0  0  0
    1.7394  -13.7099   -1.5260 H   0  0  0  0  0  0  0  0  0  0  0  0
    3.3650  -12.5489   -0.2432 H   0  0  0  0  0  0  0  0  0  0  0  0
    2.8341  -10.9413   -0.9243 H   0  0  0  0  0  0  0  0  0  0  0  0
   -0.2016  -10.6151   -0.0037 H   0  0  0  0  0  0  0  0  0  0  0  0
    0.4555   -9.7252    1.0488 H   0  0  0  0  0  0  0  0  0  0  0  0
   18.3990  -17.7253  -10.2901 H   0  0  0  0  0  0  0  0  0  0  0  0
   18.5800  -16.5884  -11.2425 H   0  0  0  0  0  0  0  0  0  0  0  0
   15.6966  -15.4131  -10.3315 H   0  0  0  0  0  0  0  0  0  0  0  0
   15.5010  -16.9818   -9.3903 H   0  0  0  0  0  0  0  0  0  0  0  0
   14.5575  -15.9389   -7.6944 H   0  0  0  0  0  0  0  0  0  0  0  0
   15.9305  -14.7495   -7.6148 H   0  0  0  0  0  0  0  0  0  0  0  0
   14.4760  -13.2370   -8.2540 H   0  0  0  0  0  0  0  0  0  0  0  0
   15.2372  -12.9627  -10.2896 H   0  0  0  0  0  0  0  0  0  0  0  0
   14.9495  -14.6845  -10.7129 H   0  0  0  0  0  0  0  0  0  0  0  0
   13.5825  -13.5191  -10.7129 H   0  0  0  0  0  0  0  0  0  0  0  0
   12.5039  -15.3552   -8.8330 H   0  0  0  0  0  0  0  0  0  0  0  0
   12.6109  -14.2515   -7.4031 H   0  0  0  0  0  0  0  0  0  0  0  0
   12.1462  -12.3049   -8.8401 H   0  0  0  0  0  0  0  0  0  0  0  0
   12.0875  -13.3745  -10.2907 H   0  0  0  0  0  0  0  0  0  0  0  0
   10.5227  -15.0880   -7.3753 H   0  0  0  0  0  0  0  0  0  0  0  0
    6.1405  -14.0782   -9.7459 H   0  0  0  0  0  0  0  0  0  0  0  0
    6.1128  -12.4043  -11.6094 H   0  0  0  0  0  0  0  0  0  0  0  0
    8.2061  -11.2461  -12.2979 H   0  0  0  0  0  0  0  0  0  0  0  0
   10.3695  -11.7162  -11.1262 H   0  0  0  0  0  0  0  0  0  0  0  0
    6.3120  -18.5920   -7.4360 H   0  0  0  0  0  0  0  0  0  0  0  0
    4.8706  -14.0494   -5.7821 H   0  0  0  0  0  0  0  0  0  0  0  0
    7.4743  -11.0404   -2.7013 H   0  0  0  0  0  0  0  0  0  0  0  0
    9.8560  -11.5834   -2.1433 H   0  0  0  0  0  0  0  0  0  0  0  0
   10.9792  -13.5547   -3.1690 H   0  0  0  0  0  0  0  0  0  0  0  0
    9.7527  -15.0132   -4.7952 H   0  0  0  0  0  0  0  0  0  0  0  0
    5.4806  -11.0029   -3.3517 H   0  0  0  0  0  0  0  0  0  0  0  0
    4.2762  -11.4811   -4.6278 H   0  0  0  0  0  0  0  0  0  0  0  0
    4.4376  -13.7011   -2.9108 H   0  0  0  0  0  0  0  0  0  0  0  0
    4.4223  -12.2437   -1.8264 H   0  0  0  0  0  0  0  0  0  0  0  0
  1  2  1  0
  2  3  1  0
  3  4  1  0
  4  5  1  0
  5  6  1  0
  6  7  1  0
  7  8  1  0
  8  9  1  0
  9 10  1  0
 10 11  1  0
 11 12  1  0
 11 13  1  0
 13 14  1  0
 14 15  1  0
 15 16  1  0
 16 17  2  0
 17 18  1  0
 18 19  2  0
 19 20  1  0
 20 21  2  0
 21 22  1  0
 22 23  2  0
 17 24  1  0
 24 25  2  0
 25 26  1  0
 26 27  2  0
 26 28  1  0
 28 29  1  0
 29 30  2  0
 25 31  1  0
 31 32  2  0
 32 33  1  0
 33 34  1  0
 34 35  2  0
 35 36  1  0
 36 37  2  0
 37 38  1  0
 38 39  2  0
 33 40  1  0
 40 41  1  0
 41  2  1  0
 23 15  1  0
 29 24  1  0
 39 31  1  0
 23 18  1  0
 39 34  1  0
  1 42  1  0
  1 43  1  0
  1 44  1  0
  2 45  1  0
  3 46  1  0
  3 47  1  0
  4 48  1  0
  4 49  1  0
  6 50  1  0
  6 51  1  0
  7 52  1  0
  7 53  1  0
  9 54  1  0
  9 55  1  0
 10 56  1  0
 10 57  1  0
 11 58  1  0
 12 59  1  0
 12 60  1  0
 12 61  1  0
 13 62  1  0
 13 63  1  0
 14 64  1  0
 14 65  1  0
 16 66  1  0
 19 67  1  0
 20 68  1  0
 21 69  1  0
 22 70  1  0
 28 71  1  0
 32 72  1  0
 35 73  1  0
 36 74  1  0
 37 75  1  0
 38 76  1  0
 40 77  1  0
 40 78  1  0
 41 79  1  0
 41 80  1  0
M  CHG  2   2   1  11   1
M  END
>  <meeko>  (4) 
{"is_sidechain": [false], "free_energy": -6.4, "intermolecular_energy": -12.609, "internal_energy": -2.128}

$$$$
LIB_BEYBHILIDYTJTL__M_PUB_ALL__e8__s20260927
     RDKit          3D

 80 85  0  0  0  0  0  0  0  0999 V2000
    1.4430  -18.2040    4.3500 C   0  0  0  0  0  0  0  0  0  0  0  0
    0.9480  -17.3610    3.2080 N   0  0  0  0  0  0  0  0  0  0  0  0
    0.4130  -16.0130    3.6650 C   0  0  0  0  0  0  0  0  0  0  0  0
    1.5550  -15.1210    4.1810 C   0  0  0  0  0  0  0  0  0  0  0  0
    1.4580  -14.8320    5.5810 O   0  0  0  0  0  0  0  0  0  0  0  0
    0.1860  -15.1490    6.1630 C   0  0  0  0  0  0  0  0  0  0  0  0
   10.7610  -12.9690   -9.9590 C   0  0  0  0  0  0  0  0  0  0  0  0
    9.6240  -13.4180   -9.2080 O   0  0  0  0  0  0  0  0  0  0  0  0
    9.9430  -14.3470   -8.1670 C   0  0  0  0  0  0  0  0  0  0  0  0
    8.7320  -15.0500   -7.5250 C   0  0  0  0  0  0  0  0  0  0  0  0
    7.8540  -14.0880   -6.7420 N   0  0  0  0  0  0  0  0  0  0  0  0
    6.5330  -13.8540   -7.4260 C   0  0  0  0  0  0  0  0  0  0  0  0
    7.6910  -14.4620   -5.2710 C   0  0  0  0  0  0  0  0  0  0  0  0
    6.2050  -14.5610   -4.8820 C   0  0  0  0  0  0  0  0  0  0  0  0
    5.8880  -13.5970   -3.8380 N   0  0  0  0  0  0  0  0  0  0  0  0
    6.2530  -13.6340   -2.5000 C   0  0  0  0  0  0  0  0  0  0  0  0
    5.5830  -12.7620   -1.7160 C   0  0  0  0  0  0  0  0  0  0  0  0
    4.6710  -12.0730   -2.6540 C   0  0  0  0  0  0  0  0  0  0  0  0
    3.7180  -11.0900   -2.4480 C   0  0  0  0  0  0  0  0  0  0  0  0
    2.9630  -10.6680   -3.5430 C   0  0  0  0  0  0  0  0  0  0  0  0
    3.1590  -11.2350   -4.8120 C   0  0  0  0  0  0  0  0  0  0  0  0
    4.1180  -12.2330   -5.0130 C   0  0  0  0  0  0  0  0  0  0  0  0
    4.8750  -12.6440   -3.9320 C   0  0  0  0  0  0  0  0  0  0  0  0
    5.7190  -12.6050   -0.2960 C   0  0  0  0  0  0  0  0  0  0  0  0
    4.8880  -12.9630    0.6990 C   0  0  0  0  0  0  0  0  0  0  0  0
    5.5880  -12.6510    1.9730 C   0  0  0  0  0  0  0  0  0  0  0  0
    5.2080  -12.9630    3.0880 O   0  0  0  0  0  0  0  0  0  0  0  0
    6.7480  -12.0450    1.6640 N   0  0  0  0  0  0  0  0  0  0  0  0
    6.9390  -12.0400    0.3320 C   0  0  0  0  0  0  0  0  0  0  0  0
    7.9520  -11.7040   -0.2500 O   0  0  0  0  0  0  0  0  0  0  0  0
    3.6000  -13.6050    0.6520 C   0  0  0  0  0  0  0  0  0  0  0  0
    3.3950  -14.9370    0.7370 C   0  0  0  0  0  0  0  0  0  0  0  0
    2.0820  -15.3390    0.5490 N   0  0  0  0  0  0  0  0  0  0  0  0
    1.3450  -14.1540    0.4560 C   0  0  0  0  0  0  0  0  0  0  0  0
   -0.0210  -13.9560    0.3570 C   0  0  0  0  0  0  0  0  0  0  0  0
   -0.5010  -12.6420    0.3380 C   0  0  0  0  0  0  0  0  0  0  0  0
    0.3780  -11.5530    0.4340 C   0  0  0  0  0  0  0  0  0  0  0  0
    1.7570  -11.7540    0.5400 C   0  0  0  0  0  0  0  0  0  0  0  0
    2.2340  -13.0550    0.5210 C   0  0  0  0  0  0  0  0  0  0  0  0
    1.4460  -16.6210    0.8230 C   0  0  0  0  0  0  0  0  0  0  0  0
    1.9960  -17.2890    2.0940 C   0  0  0  0  0  0  0  0  0  0  0  0
    1.1648  -17.7302    5.3030 H   0  0  0  0  0  0  0  0  0  0  0  0
    0.9887  -19.2041    4.2913 H   0  0  0  0  0  0  0  0  0  0  0  0
    2.5377  -18.2945    4.2913 H   0  0  0  0  0  0  0  0  0  0  0  0
    0.1330  -17.8590    2.8000 H   0  0  0  0  0  0  0  0  0  0  0  0
   -0.0800  -15.5142    2.8176 H   0  0  0  0  0  0  0  0  0  0  0  0
   -0.3049  -16.1762    4.4823 H   0  0  0  0  0  0  0  0  0  0  0  0
    2.5102  -15.6340    3.9954 H   0  0  0  0  0  0  0  0  0  0  0  0
    1.4889  -14.1630    3.6445 H   0  0  0  0  0  0  0  0  0  0  0  0
   -0.0553  -16.1261    6.6068 H   0  0  0  0  0  0  0  0  0  0  0  0
   -0.6622  -14.7608    6.7459 H   0  0  0  0  0  0  0  0  0  0  0  0
   10.7779  -12.0542  -10.5696 H   0  0  0  0  0  0  0  0  0  0  0  0
   11.6714  -13.2488  -10.5094 H   0  0  0  0  0  0  0  0  0  0  0  0
   10.6010  -15.1203   -8.5902 H   0  0  0  0  0  0  0  0  0  0  0  0
   10.4161  -13.7594   -7.3664 H   0  0  0  0  0  0  0  0  0  0  0  0
    8.1286  -15.5118   -8.3204 H   0  0  0  0  0  0  0  0  0  0  0  0
    9.1150  -15.8040   -6.8216 H   0  0  0  0  0  0  0  0  0  0  0  0
    8.3200  -13.1630   -6.7160 H   0  0  0  0  0  0  0  0  0  0  0  0
    5.7475  -13.7149   -6.6686 H   0  0  0  0  0  0  0  0  0  0  0  0
    6.5999  -12.9537   -8.0545 H   0  0  0  0  0  0  0  0  0  0  0  0
    6.2866  -14.7225   -8.0545 H   0  0  0  0  0  0  0  0  0  0  0  0
    8.1739  -15.4341   -5.0925 H   0  0  0  0  0  0  0  0  0  0  0  0
    8.1593  -13.6773   -4.6586 H   0  0  0  0  0  0  0  0  0  0  0  0
    5.5844  -14.3546   -5.7664 H   0  0  0  0  0  0  0  0  0  0  0  0
    6.0016  -15.5743   -4.5055 H   0  0  0  0  0  0  0  0  0  0  0  0
    7.0232  -14.3161   -2.1106 H   0  0  0  0  0  0  0  0  0  0  0  0
    3.5606  -10.6544   -1.4503 H   0  0  0  0  0  0  0  0  0  0  0  0
    2.2053   -9.8817   -3.4102 H   0  0  0  0  0  0  0  0  0  0  0  0
    2.5498  -10.8896   -5.6603 H   0  0  0  0  0  0  0  0  0  0  0  0
    4.2662  -12.6799   -6.0071 H   0  0  0  0  0  0  0  0  0  0  0  0
    7.4300  -11.7340    2.3370 H   0  0  0  0  0  0  0  0  0  0  0  0
    4.2085  -15.6491    0.9401 H   0  0  0  0  0  0  0  0  0  0  0  0
   -0.7117  -14.8098    0.2948 H   0  0  0  0  0  0  0  0  0  0  0  0
   -1.5820  -12.4604    0.2466 H   0  0  0  0  0  0  0  0  0  0  0  0
   -0.0229  -10.5287    0.4258 H   0  0  0  0  0  0  0  0  0  0  0  0
    2.4458  -10.9017    0.6360 H   0  0  0  0  0  0  0  0  0  0  0  0
    0.3652  -16.4594    0.9484 H   0  0  0  0  0  0  0  0  0  0  0  0
    1.6583  -17.2885   -0.0251 H   0  0  0  0  0  0  0  0  0  0  0  0
    2.3201  -18.3104    1.8457 H   0  0  0  0  0  0  0  0  0  0  0  0
    2.8365  -16.6805    2.4592 H   0  0  0  0  0  0  0  0  0  0  0  0
  1  2  1  0
  2  3  1  0
  3  4  1  0
  4  5  1  0
  5  6  1  0
  6  7  1  0
  7  8  1  0
  8  9  1  0
  9 10  1  0
 10 11  1  0
 11 12  1  0
 11 13  1  0
 13 14  1  0
 14 15  1  0
 15 16  1  0
 16 17  2  0
 17 18  1  0
 18 19  2  0
 19 20  1  0
 20 21  2  0
 21 22  1  0
 22 23  2  0
 17 24  1  0
 24 25  2  0
 25 26  1  0
 26 27  2  0
 26 28  1  0
 28 29  1  0
 29 30  2  0
 25 31  1  0
 31 32  2  0
 32 33  1  0
 33 34  1  0
 34 35  2  0
 35 36  1  0
 36 37  2  0
 37 38  1  0
 38 39  2  0
 33 40  1  0
 40 41  1  0
 41  2  1  0
 23 15  1  0
 29 24  1  0
 39 31  1  0
 23 18  1  0
 39 34  1  0
  1 42  1  0
  1 43  1  0
  1 44  1  0
  2 45  1  0
  3 46  1  0
  3 47  1  0
  4 48  1  0
  4 49  1  0
  6 50  1  0
  6 51  1  0
  7 52  1  0
  7 53  1  0
  9 54  1  0
  9 55  1  0
 10 56  1  0
 10 57  1  0
 11 58  1  0
 12 59  1  0
 12 60  1  0
 12 61  1  0
 13 62  1  0
 13 63  1  0
 14 64  1  0
 14 65  1  0
 16 66  1  0
 19 67  1  0
 20 68  1  0
 21 69  1  0
 22 70  1  0
 28 71  1  0
 32 72  1  0
 35 73  1  0
 36 74  1  0
 37 75  1  0
 38 76  1  0
 40 77  1  0
 40 78  1  0
 41 79  1  0
 41 80  1  0
M  CHG  2   2   1  11   1
M  END
>  <meeko>  (5) 
{"is_sidechain": [false], "free_energy": -6.381, "intermolecular_energy": -11.911, "internal_energy": -2.787}

$$$$
LIB_BEYBHILIDYTJTL__M_PUB_ALL__e8__s20260927
     RDKit          3D

 80 85  0  0  0  0  0  0  0  0999 V2000
    6.1070  -17.4820   -4.4420 C   0  0  0  0  0  0  0  0  0  0  0  0
    6.7080  -16.6450   -5.5370 N   0  0  0  0  0  0  0  0  0  0  0  0
    6.7680  -17.3780   -6.8670 C   0  0  0  0  0  0  0  0  0  0  0  0
    7.5690  -16.5670   -7.9000 C   0  0  0  0  0  0  0  0  0  0  0  0
    7.4710  -17.0920   -9.2300 O   0  0  0  0  0  0  0  0  0  0  0  0
    8.6670  -16.9550  -10.0090 C   0  0  0  0  0  0  0  0  0  0  0  0
    1.9020  -17.7200    8.8590 C   0  0  0  0  0  0  0  0  0  0  0  0
    1.8130  -17.4780    7.4480 O   0  0  0  0  0  0  0  0  0  0  0  0
    0.6540  -16.7380    7.0540 C   0  0  0  0  0  0  0  0  0  0  0  0
    0.0980  -17.0880    5.6600 C   0  0  0  0  0  0  0  0  0  0  0  0
    0.6910  -16.2180    4.5660 N   0  0  0  0  0  0  0  0  0  0  0  0
    1.0860  -14.8600    5.0850 C   0  0  0  0  0  0  0  0  0  0  0  0
    1.8150  -16.8930    3.7840 C   0  0  0  0  0  0  0  0  0  0  0  0
    1.4970  -16.9370    2.2770 C   0  0  0  0  0  0  0  0  0  0  0  0
    2.0140  -15.7490    1.6140 N   0  0  0  0  0  0  0  0  0  0  0  0
    3.3350  -15.3420    1.4960 C   0  0  0  0  0  0  0  0  0  0  0  0
    3.4890  -14.0660    1.0790 C   0  0  0  0  0  0  0  0  0  0  0  0
    2.1020  -13.5820    0.9060 C   0  0  0  0  0  0  0  0  0  0  0  0
    1.6050  -12.3490    0.5200 C   0  0  0  0  0  0  0  0  0  0  0  0
    0.2210  -12.1760    0.4990 C   0  0  0  0  0  0  0  0  0  0  0  0
   -0.6390  -13.2220    0.8710 C   0  0  0  0  0  0  0  0  0  0  0  0
   -0.1310  -14.4640    1.2670 C   0  0  0  0  0  0  0  0  0  0  0  0
    1.2400  -14.6400    1.2770 C   0  0  0  0  0  0  0  0  0  0  0  0
    4.7280  -13.3630    0.9050 C   0  0  0  0  0  0  0  0  0  0  0  0
    5.3550  -12.9770   -0.2200 C   0  0  0  0  0  0  0  0  0  0  0  0
    6.5470  -12.1960    0.2010 C   0  0  0  0  0  0  0  0  0  0  0  0
    7.2830  -11.5660   -0.5380 O   0  0  0  0  0  0  0  0  0  0  0  0
    6.6120  -12.2420    1.5440 N   0  0  0  0  0  0  0  0  0  0  0  0
    5.5270  -12.8580    2.0490 C   0  0  0  0  0  0  0  0  0  0  0  0
    5.2170  -12.9260    3.2220 O   0  0  0  0  0  0  0  0  0  0  0  0
    4.9850  -13.1540   -1.6000 C   0  0  0  0  0  0  0  0  0  0  0  0
    5.2510  -14.2530   -2.3390 C   0  0  0  0  0  0  0  0  0  0  0  0
    4.9070  -14.1540   -3.6770 N   0  0  0  0  0  0  0  0  0  0  0  0
    4.2460  -12.9280   -3.7980 C   0  0  0  0  0  0  0  0  0  0  0  0
    3.6090  -12.3580   -4.8850 C   0  0  0  0  0  0  0  0  0  0  0  0
    2.9680  -11.1270   -4.7090 C   0  0  0  0  0  0  0  0  0  0  0  0
    2.9560  -10.4940   -3.4570 C   0  0  0  0  0  0  0  0  0  0  0  0
    3.5950  -11.0740   -2.3570 C   0  0  0  0  0  0  0  0  0  0  0  0
    4.2610  -12.2750   -2.5430 C   0  0  0  0  0  0  0  0  0  0  0  0
    4.7950  -15.1910   -4.6960 C   0  0  0  0  0  0  0  0  0  0  0  0
    6.0400  -15.2680   -5.5940 C   0  0  0  0  0  0  0  0  0  0  0  0
    6.4010  -17.0726   -3.4643 H   0  0  0  0  0  0  0  0  0  0  0  0
    5.0106  -17.4690   -4.5303 H   0  0  0  0  0  0  0  0  0  0  0  0
    6.4697  -18.5167   -4.5303 H   0  0  0  0  0  0  0  0  0  0  0  0
    7.6970  -16.4710   -5.2710 H   0  0  0  0  0  0  0  0  0  0  0  0
    7.2532  -18.3541   -6.7196 H   0  0  0  0  0  0  0  0  0  0  0  0
    5.7429  -17.5137   -7.2422 H   0  0  0  0  0  0  0  0  0  0  0  0
    7.1904  -15.5342   -7.9032 H   0  0  0  0  0  0  0  0  0  0  0  0
    8.6277  -16.6185   -7.6058 H   0  0  0  0  0  0  0  0  0  0  0  0
    9.1621  -17.8025  -10.5056 H   0  0  0  0  0  0  0  0  0  0  0  0
    9.1787  -16.3135  -10.7415 H   0  0  0  0  0  0  0  0  0  0  0  0
    1.5489  -18.6360    9.3552 H   0  0  0  0  0  0  0  0  0  0  0  0
    1.9334  -17.2901    9.8710 H   0  0  0  0  0  0  0  0  0  0  0  0
   -0.1381  -16.9258    7.7938 H   0  0  0  0  0  0  0  0  0  0  0  0
    0.9656  -15.6842    7.0040 H   0  0  0  0  0  0  0  0  0  0  0  0
    0.3316  -18.1402    5.4403 H   0  0  0  0  0  0  0  0  0  0  0  0
   -0.9876  -16.9117    5.6776 H   0  0  0  0  0  0  0  0  0  0  0  0
   -0.0390  -16.0400    3.8530 H   0  0  0  0  0  0  0  0  0  0  0  0
    1.0824  -14.8725    6.1849 H   0  0  0  0  0  0  0  0  0  0  0  0
    2.0944  -14.6088    4.7245 H   0  0  0  0  0  0  0  0  0  0  0  0
    0.3696  -14.1071    4.7245 H   0  0  0  0  0  0  0  0  0  0  0  0
    2.7474  -16.3299    3.9377 H   0  0  0  0  0  0  0  0  0  0  0  0
    1.9211  -17.9256    4.1479 H   0  0  0  0  0  0  0  0  0  0  0  0
    1.9620  -17.8303    1.8345 H   0  0  0  0  0  0  0  0  0  0  0  0
    0.4057  -16.9733    2.1437 H   0  0  0  0  0  0  0  0  0  0  0  0
    4.1851  -16.0022    1.7227 H   0  0  0  0  0  0  0  0  0  0  0  0
    2.2820  -11.5292    0.2379 H   0  0  0  0  0  0  0  0  0  0  0  0
   -0.2015  -11.2093    0.1875 H   0  0  0  0  0  0  0  0  0  0  0  0
   -1.7272  -13.0626    0.8508 H   0  0  0  0  0  0  0  0  0  0  0  0
   -0.8061  -15.2804    1.5631 H   0  0  0  0  0  0  0  0  0  0  0  0
    7.3160  -11.7860    2.1010 H   0  0  0  0  0  0  0  0  0  0  0  0
    5.7063  -15.1581   -1.9106 H   0  0  0  0  0  0  0  0  0  0  0  0
    3.6064  -12.8600   -5.8638 H   0  0  0  0  0  0  0  0  0  0  0  0
    2.4668  -10.6491   -5.5636 H   0  0  0  0  0  0  0  0  0  0  0  0
    2.4381   -9.5307   -3.3395 H   0  0  0  0  0  0  0  0  0  0  0  0
    3.5698  -10.5897   -1.3697 H   0  0  0  0  0  0  0  0  0  0  0  0
    4.6583  -16.1622   -4.1979 H   0  0  0  0  0  0  0  0  0  0  0  0
    3.9356  -14.9410   -5.3355 H   0  0  0  0  0  0  0  0  0  0  0  0
    5.7415  -15.0614   -6.6324 H   0  0  0  0  0  0  0  0  0  0  0  0
    6.7653  -14.5247   -5.2314 H   0  0  0  0  0  0  0  0  0  0  0  0
  1  2  1  0
  2  3  1  0
  3  4  1  0
  4  5  1  0
  5  6  1  0
  6  7  1  0
  7  8  1  0
  8  9  1  0
  9 10  1  0
 10 11  1  0
 11 12  1  0
 11 13  1  0
 13 14  1  0
 14 15  1  0
 15 16  1  0
 16 17  2  0
 17 18  1  0
 18 19  2  0
 19 20  1  0
 20 21  2  0
 21 22  1  0
 22 23  2  0
 17 24  1  0
 24 25  2  0
 25 26  1  0
 26 27  2  0
 26 28  1  0
 28 29  1  0
 29 30  2  0
 25 31  1  0
 31 32  2  0
 32 33  1  0
 33 34  1  0
 34 35  2  0
 35 36  1  0
 36 37  2  0
 37 38  1  0
 38 39  2  0
 33 40  1  0
 40 41  1  0
 41  2  1  0
 23 15  1  0
 29 24  1  0
 39 31  1  0
 23 18  1  0
 39 34  1  0
  1 42  1  0
  1 43  1  0
  1 44  1  0
  2 45  1  0
  3 46  1  0
  3 47  1  0
  4 48  1  0
  4 49  1  0
  6 50  1  0
  6 51  1  0
  7 52  1  0
  7 53  1  0
  9 54  1  0
  9 55  1  0
 10 56  1  0
 10 57  1  0
 11 58  1  0
 12 59  1  0
 12 60  1  0
 12 61  1  0
 13 62  1  0
 13 63  1  0
 14 64  1  0
 14 65  1  0
 16 66  1  0
 19 67  1  0
 20 68  1  0
 21 69  1  0
 22 70  1  0
 28 71  1  0
 32 72  1  0
 35 73  1  0
 36 74  1  0
 37 75  1  0
 38 76  1  0
 40 77  1  0
 40 78  1  0
 41 79  1  0
 41 80  1  0
M  CHG  2   2   1  11   1
M  END
>  <meeko>  (6) 
{"is_sidechain": [false], "free_energy": -6.356, "intermolecular_energy": -12.033, "internal_energy": -2.618}

$$$$
LIB_BEYBHILIDYTJTL__M_PUB_ALL__e8__s20260927
     RDKit          3D

 80 85  0  0  0  0  0  0  0  0999 V2000
   10.7070  -12.4650   -1.8570 C   0  0  0  0  0  0  0  0  0  0  0  0
   10.0470  -12.7530   -3.1770 N   0  0  0  0  0  0  0  0  0  0  0  0
   11.0250  -13.2710   -4.2200 C   0  0  0  0  0  0  0  0  0  0  0  0
   12.4560  -13.3010   -3.6570 C   0  0  0  0  0  0  0  0  0  0  0  0
   13.3010  -12.2840   -4.2080 O   0  0  0  0  0  0  0  0  0  0  0  0
   14.5930  -12.1910   -3.5930 C   0  0  0  0  0  0  0  0  0  0  0  0
   -4.5760  -12.5400    0.5400 C   0  0  0  0  0  0  0  0  0  0  0  0
   -4.1190  -11.3670   -0.1470 O   0  0  0  0  0  0  0  0  0  0  0  0
   -3.0850  -10.6550    0.5390 C   0  0  0  0  0  0  0  0  0  0  0  0
   -1.6490  -11.0640    0.1610 C   0  0  0  0  0  0  0  0  0  0  0  0
   -0.6830  -10.9260    1.3250 N   0  0  0  0  0  0  0  0  0  0  0  0
   -0.7340  -12.1230    2.2380 C   0  0  0  0  0  0  0  0  0  0  0  0
    0.7420  -10.5730    0.9050 C   0  0  0  0  0  0  0  0  0  0  0  0
    0.8290  -10.3210   -0.6120 C   0  0  0  0  0  0  0  0  0  0  0  0
    1.4080  -11.4740   -1.2860 N   0  0  0  0  0  0  0  0  0  0  0  0
    1.5650  -12.7620   -0.7950 C   0  0  0  0  0  0  0  0  0  0  0  0
    2.3840  -13.5430   -1.5340 C   0  0  0  0  0  0  0  0  0  0  0  0
    2.8140  -12.6580   -2.6370 C   0  0  0  0  0  0  0  0  0  0  0  0
    3.6720  -12.8740   -3.7030 C   0  0  0  0  0  0  0  0  0  0  0  0
    3.9250  -11.8100   -4.5680 C   0  0  0  0  0  0  0  0  0  0  0  0
    3.3360  -10.5540   -4.3540 C   0  0  0  0  0  0  0  0  0  0  0  0
    2.4750  -10.3390   -3.2720 C   0  0  0  0  0  0  0  0  0  0  0  0
    2.2140  -11.3960   -2.4210 C   0  0  0  0  0  0  0  0  0  0  0  0
    2.7640  -14.8980   -1.2500 C   0  0  0  0  0  0  0  0  0  0  0  0
    3.9640  -15.4120   -0.9270 C   0  0  0  0  0  0  0  0  0  0  0  0
    3.7470  -16.8550   -0.6410 C   0  0  0  0  0  0  0  0  0  0  0  0
    4.5750  -17.6210   -0.1810 O   0  0  0  0  0  0  0  0  0  0  0  0
    2.4570  -17.1330   -0.9000 N   0  0  0  0  0  0  0  0  0  0  0  0
    1.7820  -16.0080   -1.2000 C   0  0  0  0  0  0  0  0  0  0  0  0
    0.5780  -15.9040   -1.3350 O   0  0  0  0  0  0  0  0  0  0  0  0
    5.2420  -14.7690   -0.7730 C   0  0  0  0  0  0  0  0  0  0  0  0
    6.3760  -15.1360   -1.4080 C   0  0  0  0  0  0  0  0  0  0  0  0
    7.5140  -14.4500   -1.0160 N   0  0  0  0  0  0  0  0  0  0  0  0
    7.0630  -13.4620   -0.1350 C   0  0  0  0  0  0  0  0  0  0  0  0
    7.7510  -12.4360    0.4870 C   0  0  0  0  0  0  0  0  0  0  0  0
    7.0300  -11.5420    1.2860 C   0  0  0  0  0  0  0  0  0  0  0  0
    5.6400  -11.6710    1.4380 C   0  0  0  0  0  0  0  0  0  0  0  0
    4.9460  -12.7050    0.8040 C   0  0  0  0  0  0  0  0  0  0  0  0
    5.6670  -13.6120    0.0440 C   0  0  0  0  0  0  0  0  0  0  0  0
    8.8280  -14.3790   -1.6420 C   0  0  0  0  0  0  0  0  0  0  0  0
    8.8010  -13.6220   -2.9800 C   0  0  0  0  0  0  0  0  0  0  0  0
   10.0335  -12.7589   -1.0385 H   0  0  0  0  0  0  0  0  0  0  0  0
   11.6444  -13.0359   -1.7834 H   0  0  0  0  0  0  0  0  0  0  0  0
   10.9260  -11.3895   -1.7834 H   0  0  0  0  0  0  0  0  0  0  0  0
    9.7040  -11.8440   -3.5440 H   0  0  0  0  0  0  0  0  0  0  0  0
   10.7319  -14.2893   -4.5154 H   0  0  0  0  0  0  0  0  0  0  0  0
   11.0018  -12.5991   -5.0906 H   0  0  0  0  0  0  0  0  0  0  0  0
   12.4058  -13.1611   -2.5671 H   0  0  0  0  0  0  0  0  0  0  0  0
   12.8939  -14.2726   -3.9294 H   0  0  0  0  0  0  0  0  0  0  0  0
   15.2545  -13.0582   -3.4502 H   0  0  0  0  0  0  0  0  0  0  0  0
   15.5003  -11.5722   -3.5302 H   0  0  0  0  0  0  0  0  0  0  0  0
   -5.2260  -13.2525    0.0109 H   0  0  0  0  0  0  0  0  0  0  0  0
   -5.1383  -12.6899    1.4735 H   0  0  0  0  0  0  0  0  0  0  0  0
   -3.2039   -9.5841    0.3175 H   0  0  0  0  0  0  0  0  0  0  0  0
   -3.2019  -10.8971    1.6056 H   0  0  0  0  0  0  0  0  0  0  0  0
   -1.6559  -12.1130   -0.1701 H   0  0  0  0  0  0  0  0  0  0  0  0
   -1.3081  -10.3912   -0.6397 H   0  0  0  0  0  0  0  0  0  0  0  0
   -0.9790  -10.1220    1.9070 H   0  0  0  0  0  0  0  0  0  0  0  0
   -0.7197  -11.7863    3.2851 H   0  0  0  0  0  0  0  0  0  0  0  0
   -1.6571  -12.6902    2.0478 H   0  0  0  0  0  0  0  0  0  0  0  0
    0.1375  -12.7666    2.0478 H   0  0  0  0  0  0  0  0  0  0  0  0
    1.0587   -9.6646    1.4384 H   0  0  0  0  0  0  0  0  0  0  0  0
    1.3989  -11.4189    1.1559 H   0  0  0  0  0  0  0  0  0  0  0  0
   -0.1812  -10.1395   -1.0077 H   0  0  0  0  0  0  0  0  0  0  0  0
    1.4688   -9.4444   -0.7918 H   0  0  0  0  0  0  0  0  0  0  0  0
    1.0654  -13.1175    0.1182 H   0  0  0  0  0  0  0  0  0  0  0  0
    4.1402  -13.8565   -3.8625 H   0  0  0  0  0  0  0  0  0  0  0  0
    4.5943  -11.9567   -5.4285 H   0  0  0  0  0  0  0  0  0  0  0  0
    3.5542   -9.7275   -5.0462 H   0  0  0  0  0  0  0  0  0  0  0  0
    2.0173   -9.3531   -3.1031 H   0  0  0  0  0  0  0  0  0  0  0  0
    2.0300  -18.0380   -0.7800 H   0  0  0  0  0  0  0  0  0  0  0  0
    6.3947  -15.9207   -2.1786 H   0  0  0  0  0  0  0  0  0  0  0  0
    8.8377  -12.3257    0.3568 H   0  0  0  0  0  0  0  0  0  0  0  0
    7.5590  -10.7272    1.8020 H   0  0  0  0  0  0  0  0  0  0  0  0
    5.0917  -10.9505    2.0627 H   0  0  0  0  0  0  0  0  0  0  0  0
    3.8546  -12.7966    0.9057 H   0  0  0  0  0  0  0  0  0  0  0  0
    9.5175  -13.8625   -0.9580 H   0  0  0  0  0  0  0  0  0  0  0  0
    9.1577  -15.4084   -1.8462 H   0  0  0  0  0  0  0  0  0  0  0  0
    8.7455  -14.3532   -3.7999 H   0  0  0  0  0  0  0  0  0  0  0  0
    7.9234  -12.9589   -2.9758 H   0  0  0  0  0  0  0  0  0  0  0  0
  1  2  1  0
  2  3  1  0
  3  4  1  0
  4  5  1  0
  5  6  1  0
  6  7  1  0
  7  8  1  0
  8  9  1  0
  9 10  1  0
 10 11  1  0
 11 12  1  0
 11 13  1  0
 13 14  1  0
 14 15  1  0
 15 16  1  0
 16 17  2  0
 17 18  1  0
 18 19  2  0
 19 20  1  0
 20 21  2  0
 21 22  1  0
 22 23  2  0
 17 24  1  0
 24 25  2  0
 25 26  1  0
 26 27  2  0
 26 28  1  0
 28 29  1  0
 29 30  2  0
 25 31  1  0
 31 32  2  0
 32 33  1  0
 33 34  1  0
 34 35  2  0
 35 36  1  0
 36 37  2  0
 37 38  1  0
 38 39  2  0
 33 40  1  0
 40 41  1  0
 41  2  1  0
 23 15  1  0
 29 24  1  0
 39 31  1  0
 23 18  1  0
 39 34  1  0
  1 42  1  0
  1 43  1  0
  1 44  1  0
  2 45  1  0
  3 46  1  0
  3 47  1  0
  4 48  1  0
  4 49  1  0
  6 50  1  0
  6 51  1  0
  7 52  1  0
  7 53  1  0
  9 54  1  0
  9 55  1  0
 10 56  1  0
 10 57  1  0
 11 58  1  0
 12 59  1  0
 12 60  1  0
 12 61  1  0
 13 62  1  0
 13 63  1  0
 14 64  1  0
 14 65  1  0
 16 66  1  0
 19 67  1  0
 20 68  1  0
 21 69  1  0
 22 70  1  0
 28 71  1  0
 32 72  1  0
 35 73  1  0
 36 74  1  0
 37 75  1  0
 38 76  1  0
 40 77  1  0
 40 78  1  0
 41 79  1  0
 41 80  1  0
M  CHG  2   2   1  11   1
M  END
>  <meeko>  (7) 
{"is_sidechain": [false], "free_energy": -6.333, "intermolecular_energy": -12.133, "internal_energy": -2.474}

$$$$
LIB_BEYBHILIDYTJTL__M_PUB_ALL__e8__s20260927
     RDKit          3D

 80 85  0  0  0  0  0  0  0  0999 V2000
    1.7180  -16.8850    0.7570 C   0  0  0  0  0  0  0  0  0  0  0  0
    0.5340  -16.3120    0.0290 N   0  0  0  0  0  0  0  0  0  0  0  0
   -0.7050  -16.2230    0.9060 C   0  0  0  0  0  0  0  0  0  0  0  0
   -0.6440  -17.2590    2.0410 C   0  0  0  0  0  0  0  0  0  0  0  0
   -1.7720  -18.1440    2.0600 O   0  0  0  0  0  0  0  0  0  0  0  0
   -2.6270  -17.9880    3.1990 C   0  0  0  0  0  0  0  0  0  0  0  0
   13.8910  -13.7310   -4.9600 C   0  0  0  0  0  0  0  0  0  0  0  0
   13.4010  -12.4390   -4.5770 O   0  0  0  0  0  0  0  0  0  0  0  0
   13.6180  -12.1160   -3.2000 C   0  0  0  0  0  0  0  0  0  0  0  0
   12.3950  -12.3040   -2.2830 C   0  0  0  0  0  0  0  0  0  0  0  0
   12.4840  -13.5750   -1.4550 N   0  0  0  0  0  0  0  0  0  0  0  0
   11.9850  -13.3610   -0.0500 C   0  0  0  0  0  0  0  0  0  0  0  0
   11.8460  -14.7910   -2.1220 C   0  0  0  0  0  0  0  0  0  0  0  0
   10.7130  -14.3720   -3.0770 C   0  0  0  0  0  0  0  0  0  0  0  0
    9.4360  -14.3660   -2.3780 N   0  0  0  0  0  0  0  0  0  0  0  0
    8.8350  -13.3120   -1.7050 C   0  0  0  0  0  0  0  0  0  0  0  0
    7.7970  -13.6740   -0.9190 C   0  0  0  0  0  0  0  0  0  0  0  0
    7.7120  -15.1390   -1.1010 C   0  0  0  0  0  0  0  0  0  0  0  0
    6.8660  -16.0830   -0.5430 C   0  0  0  0  0  0  0  0  0  0  0  0
    7.0660  -17.4230   -0.8760 C   0  0  0  0  0  0  0  0  0  0  0  0
    8.1050  -17.8000   -1.7410 C   0  0  0  0  0  0  0  0  0  0  0  0
    8.9610  -16.8440   -2.2960 C   0  0  0  0  0  0  0  0  0  0  0  0
    8.7560  -15.5140   -1.9770 C   0  0  0  0  0  0  0  0  0  0  0  0
    7.0160  -12.8120   -0.0790 C   0  0  0  0  0  0  0  0  0  0  0  0
    5.7020  -12.5250   -0.1150 C   0  0  0  0  0  0  0  0  0  0  0  0
    5.4220  -11.6560    1.0590 C   0  0  0  0  0  0  0  0  0  0  0  0
    4.3190  -11.3070    1.4380 O   0  0  0  0  0  0  0  0  0  0  0  0
    6.5950  -11.4030    1.6680 N   0  0  0  0  0  0  0  0  0  0  0  0
    7.5870  -12.1100    1.0960 C   0  0  0  0  0  0  0  0  0  0  0  0
    8.7260  -12.2150    1.5070 O   0  0  0  0  0  0  0  0  0  0  0  0
    4.6720  -12.9840   -1.0100 C   0  0  0  0  0  0  0  0  0  0  0  0
    3.8600  -14.0380   -0.7810 C   0  0  0  0  0  0  0  0  0  0  0  0
    3.0230  -14.3700   -1.8340 N   0  0  0  0  0  0  0  0  0  0  0  0
    3.2180  -13.3670   -2.7890 C   0  0  0  0  0  0  0  0  0  0  0  0
    2.5780  -13.1430   -3.9950 C   0  0  0  0  0  0  0  0  0  0  0  0
    2.9370  -12.0130   -4.7370 C   0  0  0  0  0  0  0  0  0  0  0  0
    3.9100  -11.1190   -4.2630 C   0  0  0  0  0  0  0  0  0  0  0  0
    4.5510  -11.3430   -3.0410 C   0  0  0  0  0  0  0  0  0  0  0  0
    4.2210  -12.4830   -2.3260 C   0  0  0  0  0  0  0  0  0  0  0  0
    1.8570  -15.2450   -1.8660 C   0  0  0  0  0  0  0  0  0  0  0  0
    0.9120  -15.0070   -0.6770 C   0  0  0  0  0  0  0  0  0  0  0  0
    1.5547  -16.8060    1.8419 H   0  0  0  0  0  0  0  0  0  0  0  0
    1.8415  -17.9426    0.4809 H   0  0  0  0  0  0  0  0  0  0  0  0
    2.6240  -16.3257    0.4809 H   0  0  0  0  0  0  0  0  0  0  0  0
    0.2920  -16.9840   -0.7250 H   0  0  0  0  0  0  0  0  0  0  0  0
   -0.7678  -15.2145    1.3408 H   0  0  0  0  0  0  0  0  0  0  0  0
   -1.5912  -16.4282    0.2875 H   0  0  0  0  0  0  0  0  0  0  0  0
    0.2693  -17.8595    1.9174 H   0  0  0  0  0  0  0  0  0  0  0  0
   -0.6485  -16.7038    2.9906 H   0  0  0  0  0  0  0  0  0  0  0  0
   -3.4877  -17.3035    3.2254 H   0  0  0  0  0  0  0  0  0  0  0  0
   -3.1090  -18.5055    4.0416 H   0  0  0  0  0  0  0  0  0  0  0  0
   14.7994  -14.0857   -4.4512 H   0  0  0  0  0  0  0  0  0  0  0  0
   14.2271  -14.0360   -5.9620 H   0  0  0  0  0  0  0  0  0  0  0  0
   14.4280  -12.7578   -2.8232 H   0  0  0  0  0  0  0  0  0  0  0  0
   13.8592  -11.0431   -3.1719 H   0  0  0  0  0  0  0  0  0  0  0  0
   12.3277  -11.4425   -1.6023 H   0  0  0  0  0  0  0  0  0  0  0  0
   11.5037  -12.3814   -2.9230 H   0  0  0  0  0  0  0  0  0  0  0  0
   13.4820  -13.8360   -1.3570 H   0  0  0  0  0  0  0  0  0  0  0  0
   12.7526  -13.6902    0.6658 H   0  0  0  0  0  0  0  0  0  0  0  0
   11.7730  -12.2928    0.1051 H   0  0  0  0  0  0  0  0  0  0  0  0
   11.0650  -13.9437    0.1051 H   0  0  0  0  0  0  0  0  0  0  0  0
   12.6151  -15.3317   -2.6931 H   0  0  0  0  0  0  0  0  0  0  0  0
   11.4205  -15.4349   -1.3382 H   0  0  0  0  0  0  0  0  0  0  0  0
   10.9193  -13.3630   -3.4635 H   0  0  0  0  0  0  0  0  0  0  0  0
   10.6618  -15.0918   -3.9073 H   0  0  0  0  0  0  0  0  0  0  0  0
    9.1745  -12.2703   -1.8029 H   0  0  0  0  0  0  0  0  0  0  0  0
    6.0595  -15.7848    0.1431 H   0  0  0  0  0  0  0  0  0  0  0  0
    6.4019  -18.1927   -0.4559 H   0  0  0  0  0  0  0  0  0  0  0  0
    8.2479  -18.8629   -1.9858 H   0  0  0  0  0  0  0  0  0  0  0  0
    9.7776  -17.1424   -2.9699 H   0  0  0  0  0  0  0  0  0  0  0  0
    6.7000  -10.8470    2.5010 H   0  0  0  0  0  0  0  0  0  0  0  0
    3.8627  -14.5913    0.1697 H   0  0  0  0  0  0  0  0  0  0  0  0
    1.8063  -13.8361   -4.3611 H   0  0  0  0  0  0  0  0  0  0  0  0
    2.4504  -11.8223   -5.7049 H   0  0  0  0  0  0  0  0  0  0  0  0
    4.1709  -10.2325   -4.8597 H   0  0  0  0  0  0  0  0  0  0  0  0
    5.2980  -10.6326   -2.6571 H   0  0  0  0  0  0  0  0  0  0  0  0
    1.3037  -15.0620   -2.7989 H   0  0  0  0  0  0  0  0  0  0  0  0
    2.2155  -16.2833   -1.8065 H   0  0  0  0  0  0  0  0  0  0  0  0
    1.4111  -14.3446    0.0456 H   0  0  0  0  0  0  0  0  0  0  0  0
   -0.0115  -14.5518   -1.0643 H   0  0  0  0  0  0  0  0  0  0  0  0
  1  2  1  0
  2  3  1  0
  3  4  1  0
  4  5  1  0
  5  6  1  0
  6  7  1  0
  7  8  1  0
  8  9  1  0
  9 10  1  0
 10 11  1  0
 11 12  1  0
 11 13  1  0
 13 14  1  0
 14 15  1  0
 15 16  1  0
 16 17  2  0
 17 18  1  0
 18 19  2  0
 19 20  1  0
 20 21  2  0
 21 22  1  0
 22 23  2  0
 17 24  1  0
 24 25  2  0
 25 26  1  0
 26 27  2  0
 26 28  1  0
 28 29  1  0
 29 30  2  0
 25 31  1  0
 31 32  2  0
 32 33  1  0
 33 34  1  0
 34 35  2  0
 35 36  1  0
 36 37  2  0
 37 38  1  0
 38 39  2  0
 33 40  1  0
 40 41  1  0
 41  2  1  0
 23 15  1  0
 29 24  1  0
 39 31  1  0
 23 18  1  0
 39 34  1  0
  1 42  1  0
  1 43  1  0
  1 44  1  0
  2 45  1  0
  3 46  1  0
  3 47  1  0
  4 48  1  0
  4 49  1  0
  6 50  1  0
  6 51  1  0
  7 52  1  0
  7 53  1  0
  9 54  1  0
  9 55  1  0
 10 56  1  0
 10 57  1  0
 11 58  1  0
 12 59  1  0
 12 60  1  0
 12 61  1  0
 13 62  1  0
 13 63  1  0
 14 64  1  0
 14 65  1  0
 16 66  1  0
 19 67  1  0
 20 68  1  0
 21 69  1  0
 22 70  1  0
 28 71  1  0
 32 72  1  0
 35 73  1  0
 36 74  1  0
 37 75  1  0
 38 76  1  0
 40 77  1  0
 40 78  1  0
 41 79  1  0
 41 80  1  0
M  CHG  2   2   1  11   1
M  END
>  <meeko>  (8) 
{"is_sidechain": [false], "free_energy": -6.325, "intermolecular_energy": -12.124, "internal_energy": -2.467}

$$$$
LIB_BEYBHILIDYTJTL__M_PUB_ALL__e8__s20260927
     RDKit          3D

 80 85  0  0  0  0  0  0  0  0999 V2000
   10.0210  -12.2170    0.3570 C   0  0  0  0  0  0  0  0  0  0  0  0
   10.4410  -12.2550   -1.0860 N   0  0  0  0  0  0  0  0  0  0  0  0
   11.8650  -12.7540   -1.2690 C   0  0  0  0  0  0  0  0  0  0  0  0
   12.8000  -11.5990   -1.6660 C   0  0  0  0  0  0  0  0  0  0  0  0
   12.9560  -11.4610   -3.0850 O   0  0  0  0  0  0  0  0  0  0  0  0
   14.2260  -11.9000   -3.5850 C   0  0  0  0  0  0  0  0  0  0  0  0
   -3.0360  -18.2160    2.8680 C   0  0  0  0  0  0  0  0  0  0  0  0
   -1.6350  -18.2900    2.5710 O   0  0  0  0  0  0  0  0  0  0  0  0
   -1.1820  -17.3020    1.6400 C   0  0  0  0  0  0  0  0  0  0  0  0
   -0.8250  -15.9370    2.2580 C   0  0  0  0  0  0  0  0  0  0  0  0
    0.6690  -15.6620    2.2290 N   0  0  0  0  0  0  0  0  0  0  0  0
    1.3620  -16.2080    3.4500 C   0  0  0  0  0  0  0  0  0  0  0  0
    1.3480  -16.0920    0.9310 C   0  0  0  0  0  0  0  0  0  0  0  0
    2.8750  -15.9110    1.0150 C   0  0  0  0  0  0  0  0  0  0  0  0
    3.2520  -14.5710    0.5860 N   0  0  0  0  0  0  0  0  0  0  0  0
    2.7940  -13.8650   -0.5160 C   0  0  0  0  0  0  0  0  0  0  0  0
    3.5250  -12.7700   -0.8180 C   0  0  0  0  0  0  0  0  0  0  0  0
    4.5870  -12.7600    0.2100 C   0  0  0  0  0  0  0  0  0  0  0  0
    5.6530  -11.9010    0.4170 C   0  0  0  0  0  0  0  0  0  0  0  0
    6.5330  -12.1860    1.4610 C   0  0  0  0  0  0  0  0  0  0  0  0
    6.3470  -13.3190    2.2680 C   0  0  0  0  0  0  0  0  0  0  0  0
    5.2730  -14.1880    2.0500 C   0  0  0  0  0  0  0  0  0  0  0  0
    4.3930  -13.9000    1.0240 C   0  0  0  0  0  0  0  0  0  0  0  0
    3.3140  -11.8750   -1.9210 C   0  0  0  0  0  0  0  0  0  0  0  0
    4.0840  -11.6300   -2.9960 C   0  0  0  0  0  0  0  0  0  0  0  0
    3.3220  -10.6910   -3.8620 C   0  0  0  0  0  0  0  0  0  0  0  0
    3.6350  -10.3490   -4.9880 O   0  0  0  0  0  0  0  0  0  0  0  0
    2.1910  -10.3630   -3.2110 N   0  0  0  0  0  0  0  0  0  0  0  0
    2.0730  -11.0780   -2.0780 C   0  0  0  0  0  0  0  0  0  0  0  0
    1.1000  -11.1220   -1.3510 O   0  0  0  0  0  0  0  0  0  0  0  0
    5.3600  -12.1780   -3.3740 C   0  0  0  0  0  0  0  0  0  0  0  0
    6.5590  -11.6790   -3.0000 C   0  0  0  0  0  0  0  0  0  0  0  0
    7.6550  -12.2980   -3.5800 N   0  0  0  0  0  0  0  0  0  0  0  0
    7.1310  -13.3760   -4.3010 C   0  0  0  0  0  0  0  0  0  0  0  0
    7.7730  -14.3840   -4.9970 C   0  0  0  0  0  0  0  0  0  0  0  0
    6.9940  -15.3840   -5.5870 C   0  0  0  0  0  0  0  0  0  0  0  0
    5.5960  -15.3760   -5.4610 C   0  0  0  0  0  0  0  0  0  0  0  0
    4.9490  -14.3610   -4.7510 C   0  0  0  0  0  0  0  0  0  0  0  0
    5.7200  -13.3500   -4.2000 C   0  0  0  0  0  0  0  0  0  0  0  0
    9.0680  -12.2220   -3.2300 C   0  0  0  0  0  0  0  0  0  0  0  0
    9.3940  -12.9830   -1.9350 C   0  0  0  0  0  0  0  0  0  0  0  0
   10.9100  -12.2974    0.9999 H   0  0  0  0  0  0  0  0  0  0  0  0
    9.5038  -11.2684    0.5635 H   0  0  0  0  0  0  0  0  0  0  0  0
    9.3419  -13.0574    0.5635 H   0  0  0  0  0  0  0  0  0  0  0  0
   10.4460  -11.2720   -1.4220 H   0  0  0  0  0  0  0  0  0  0  0  0
   12.2170  -13.1951   -0.3248 H   0  0  0  0  0  0  0  0  0  0  0  0
   11.8750  -13.5078   -2.0700 H   0  0  0  0  0  0  0  0  0  0  0  0
   12.3862  -10.6612   -1.2669 H   0  0  0  0  0  0  0  0  0  0  0  0
   13.7925  -11.8234   -1.2482 H   0  0  0  0  0  0  0  0  0  0  0  0
   14.4970  -11.8706   -4.6507 H   0  0  0  0  0  0  0  0  0  0  0  0
   15.3068  -11.9062   -3.3804 H   0  0  0  0  0  0  0  0  0  0  0  0
   -3.4499  -17.9880    3.8613 H   0  0  0  0  0  0  0  0  0  0  0  0
   -4.0554  -18.5451    2.6180 H   0  0  0  0  0  0  0  0  0  0  0  0
   -0.2854  -17.6934    1.1371 H   0  0  0  0  0  0  0  0  0  0  0  0
   -2.0230  -17.1178    0.9553 H   0  0  0  0  0  0  0  0  0  0  0  0
   -1.3408  -15.1471    1.6922 H   0  0  0  0  0  0  0  0  0  0  0  0
   -1.1434  -15.9515    3.3108 H   0  0  0  0  0  0  0  0  0  0  0  0
    0.8170  -14.6370    2.2620 H   0  0  0  0  0  0  0  0  0  0  0  0
    0.8704  -15.8207    4.3546 H   0  0  0  0  0  0  0  0  0  0  0  0
    1.3050  -17.3065    3.4435 H   0  0  0  0  0  0  0  0  0  0  0  0
    2.4167  -15.8955    3.4435 H   0  0  0  0  0  0  0  0  0  0  0  0
    1.1221  -17.1518    0.7419 H   0  0  0  0  0  0  0  0  0  0  0  0
    0.9670  -15.4624    0.1134 H   0  0  0  0  0  0  0  0  0  0  0  0
    3.2015  -16.0641    2.0542 H   0  0  0  0  0  0  0  0  0  0  0  0
    3.3583  -16.6462    0.3547 H   0  0  0  0  0  0  0  0  0  0  0  0
    1.9102  -14.1707   -1.0952 H   0  0  0  0  0  0  0  0  0  0  0  0
    5.8016  -11.0191   -0.2235 H   0  0  0  0  0  0  0  0  0  0  0  0
    7.3828  -11.5148    1.6541 H   0  0  0  0  0  0  0  0  0  0  0  0
    7.0557  -13.5265    3.0833 H   0  0  0  0  0  0  0  0  0  0  0  0
    5.1322  -15.0788    2.6797 H   0  0  0  0  0  0  0  0  0  0  0  0
    1.4790   -9.7480   -3.5720 H   0  0  0  0  0  0  0  0  0  0  0  0
    6.6575  -10.8451   -2.2894 H   0  0  0  0  0  0  0  0  0  0  0  0
    8.8694  -14.3987   -5.0843 H   0  0  0  0  0  0  0  0  0  0  0  0
    7.4830  -16.1875   -6.1573 H   0  0  0  0  0  0  0  0  0  0  0  0
    5.0033  -16.1774   -5.9262 H   0  0  0  0  0  0  0  0  0  0  0  0
    3.8554  -14.3645   -4.6325 H   0  0  0  0  0  0  0  0  0  0  0  0
    9.6588  -12.6536   -4.0514 H   0  0  0  0  0  0  0  0  0  0  0  0
    9.3161  -11.1628   -3.0674 H   0  0  0  0  0  0  0  0  0  0  0  0
    8.4717  -13.0906   -1.3452 H   0  0  0  0  0  0  0  0  0  0  0  0
    9.8067  -13.9639   -2.2136 H   0  0  0  0  0  0  0  0  0  0  0  0
  1  2  1  0
  2  3  1  0
  3  4  1  0
  4  5  1  0
  5  6  1  0
  6  7  1  0
  7  8  1  0
  8  9  1  0
  9 10  1  0
 10 11  1  0
 11 12  1  0
 11 13  1  0
 13 14  1  0
 14 15  1  0
 15 16  1  0
 16 17  2  0
 17 18  1  0
 18 19  2  0
 19 20  1  0
 20 21  2  0
 21 22  1  0
 22 23  2  0
 17 24  1  0
 24 25  2  0
 25 26  1  0
 26 27  2  0
 26 28  1  0
 28 29  1  0
 29 30  2  0
 25 31  1  0
 31 32  2  0
 32 33  1  0
 33 34  1  0
 34 35  2  0
 35 36  1  0
 36 37  2  0
 37 38  1  0
 38 39  2  0
 33 40  1  0
 40 41  1  0
 41  2  1  0
 23 15  1  0
 29 24  1  0
 39 31  1  0
 23 18  1  0
 39 34  1  0
  1 42  1  0
  1 43  1  0
  1 44  1  0
  2 45  1  0
  3 46  1  0
  3 47  1  0
  4 48  1  0
  4 49  1  0
  6 50  1  0
  6 51  1  0
  7 52  1  0
  7 53  1  0
  9 54  1  0
  9 55  1  0
 10 56  1  0
 10 57  1  0
 11 58  1  0
 12 59  1  0
 12 60  1  0
 12 61  1  0
 13 62  1  0
 13 63  1  0
 14 64  1  0
 14 65  1  0
 16 66  1  0
 19 67  1  0
 20 68  1  0
 21 69  1  0
 22 70  1  0
 28 71  1  0
 32 72  1  0
 35 73  1  0
 36 74  1  0
 37 75  1  0
 38 76  1  0
 40 77  1  0
 40 78  1  0
 41 79  1  0
 41 80  1  0
M  CHG  2   2   1  11   1
M  END
>  <meeko>  (9) 
{"is_sidechain": [false], "free_energy": -6.252, "intermolecular_energy": -12.145, "internal_energy": -2.305}

$$$$
