LIB_DUSWCXDALWVDSK__M_PUB_ALL__e8__s20260927
     RDKit          3D

 82 87  0  0  0  0  0  0  0  0999 V2000
    1.8460  -10.7470   -2.2900 C   0  0  0  0  0  0  0  0  0  0  0  0
    2.5920  -11.4390   -3.4020 C   0  0  0  0  0  0  0  0  0  0  0  0
    3.1020  -10.6700   -4.4610 C   0  0  0  0  0  0  0  0  0  0  0  0
    3.8260  -11.2670   -5.4930 C   0  0  0  0  0  0  0  0  0  0  0  0
    4.0040  -12.6470   -5.5100 C   0  0  0  0  0  0  0  0  0  0  0  0
    4.7300  -13.3120   -6.5170 N   0  0  0  0  0  0  0  0  0  0  0  0
    6.0490  -13.7080   -6.4300 C   0  0  0  0  0  0  0  0  0  0  0  0
    6.7340  -13.7220   -5.4080 O   0  0  0  0  0  0  0  0  0  0  0  0
    6.6280  -14.2660   -7.6770 C   0  0  0  0  0  0  0  0  0  0  0  0
    7.1640  -15.5570   -7.6440 C   0  0  0  0  0  0  0  0  0  0  0  0
    7.6900  -16.1210   -8.8060 C   0  0  0  0  0  0  0  0  0  0  0  0
    7.6700  -15.4040  -10.0050 C   0  0  0  0  0  0  0  0  0  0  0  0
    7.1240  -14.1130  -10.0550 C   0  0  0  0  0  0  0  0  0  0  0  0
    7.0590  -13.3410  -11.3540 C   0  0  0  0  0  0  0  0  0  0  0  0
    6.1720  -13.8880  -12.2290 F   0  0  0  0  0  0  0  0  0  0  0  0
    6.7100  -12.0380  -11.2060 F   0  0  0  0  0  0  0  0  0  0  0  0
    8.2630  -13.3490  -11.9900 F   0  0  0  0  0  0  0  0  0  0  0  0
    6.5980  -13.5480   -8.8790 C   0  0  0  0  0  0  0  0  0  0  0  0
    3.4350  -13.4250   -4.4990 C   0  0  0  0  0  0  0  0  0  0  0  0
    2.7710  -12.8400   -3.4060 C   0  0  0  0  0  0  0  0  0  0  0  0
    2.3520  -13.6000   -2.2900 N   0  0  0  0  0  0  0  0  0  0  0  0
    3.0020  -14.5970   -1.6340 C   0  0  0  0  0  0  0  0  0  0  0  0
    2.5510  -15.8290   -1.6160 N   0  0  0  0  0  0  0  0  0  0  0  0
    3.5630  -16.5890   -1.0990 C   0  0  0  0  0  0  0  0  0  0  0  0
    3.6260  -17.9820   -0.9480 C   0  0  0  0  0  0  0  0  0  0  0  0
    4.7790  -18.5520   -0.3990 C   0  0  0  0  0  0  0  0  0  0  0  0
    5.8440  -17.7490    0.0010 C   0  0  0  0  0  0  0  0  0  0  0  0
    5.7940  -16.3560   -0.1330 C   0  0  0  0  0  0  0  0  0  0  0  0
    4.6360  -15.7960   -0.7000 C   0  0  0  0  0  0  0  0  0  0  0  0
    4.2040  -14.4910   -0.9240 N   0  0  0  0  0  0  0  0  0  0  0  0
    4.8810  -13.3100   -0.4900 C   0  0  0  0  0  0  0  0  0  0  0  0
    5.7480  -12.6480   -1.3390 C   0  0  0  0  0  0  0  0  0  0  0  0
    6.4260  -11.5680   -0.8120 C   0  0  0  0  0  0  0  0  0  0  0  0
    7.3630  -10.8630   -1.5580 N   0  0  0  0  0  0  0  0  0  0  0  0
    7.7550  -11.4340   -2.8490 C   0  0  0  0  0  0  0  0  0  0  0  0
    8.6980  -12.6500   -2.6860 C   0  0  0  0  0  0  0  0  0  0  0  0
   10.0300  -12.2260   -2.0680 N   0  0  0  0  0  0  0  0  0  0  0  0
   10.2900  -12.8520   -0.7150 C   0  0  0  0  0  0  0  0  0  0  0  0
   10.8050  -14.3050   -0.8290 C   0  0  0  0  0  0  0  0  0  0  0  0
   11.7650  -14.5000   -2.0140 N   0  0  0  0  0  0  0  0  0  0  0  0
   12.8410  -15.5140   -1.7000 C   0  0  0  0  0  0  0  0  0  0  0  0
   12.3430  -13.1960   -2.5470 C   0  0  0  0  0  0  0  0  0  0  0  0
   11.2210  -12.2260   -3.0050 C   0  0  0  0  0  0  0  0  0  0  0  0
    6.2890  -11.1630    0.4630 N   0  0  0  0  0  0  0  0  0  0  0  0
    5.3480  -11.8080    1.1730 C   0  0  0  0  0  0  0  0  0  0  0  0
    4.6530  -12.8710    0.7680 N   0  0  0  0  0  0  0  0  0  0  0  0
    2.2255  -11.0990   -1.3194 H   0  0  0  0  0  0  0  0  0  0  0  0
    1.9949   -9.6600   -2.3695 H   0  0  0  0  0  0  0  0  0  0  0  0
    0.7733  -10.9770   -2.3695 H   0  0  0  0  0  0  0  0  0  0  0  0
    2.9284   -9.5839   -4.4767 H   0  0  0  0  0  0  0  0  0  0  0  0
    4.2562  -10.6470   -6.2933 H   0  0  0  0  0  0  0  0  0  0  0  0
    4.2100  -13.5290   -7.3620 H   0  0  0  0  0  0  0  0  0  0  0  0
    7.1708  -16.1268   -6.7031 H   0  0  0  0  0  0  0  0  0  0  0  0
    8.1215  -17.1325   -8.7785 H   0  0  0  0  0  0  0  0  0  0  0  0
    8.0860  -15.8558  -10.9176 H   0  0  0  0  0  0  0  0  0  0  0  0
    6.1616  -12.5386   -8.9036 H   0  0  0  0  0  0  0  0  0  0  0  0
    3.5080  -14.5209   -4.5592 H   0  0  0  0  0  0  0  0  0  0  0  0
    1.3370  -13.6700   -2.2270 H   0  0  0  0  0  0  0  0  0  0  0  0
    2.7818  -18.6161   -1.2565 H   0  0  0  0  0  0  0  0  0  0  0  0
    4.8452  -19.6438   -0.2822 H   0  0  0  0  0  0  0  0  0  0  0  0
    6.7417  -18.2178    0.4304 H   0  0  0  0  0  0  0  0  0  0  0  0
    6.6315  -15.7222    0.1940 H   0  0  0  0  0  0  0  0  0  0  0  0
    5.8903  -12.9662   -2.3823 H   0  0  0  0  0  0  0  0  0  0  0  0
    7.1470   -9.8630   -1.5890 H   0  0  0  0  0  0  0  0  0  0  0  0
    6.8494  -11.7567   -3.3836 H   0  0  0  0  0  0  0  0  0  0  0  0
    8.2961  -10.6590   -3.4116 H   0  0  0  0  0  0  0  0  0  0  0  0
    8.2179  -13.3934   -2.0327 H   0  0  0  0  0  0  0  0  0  0  0  0
    8.8919  -13.0809   -3.6793 H   0  0  0  0  0  0  0  0  0  0  0  0
    9.8260  -11.2180   -1.8620 H   0  0  0  0  0  0  0  0  0  0  0  0
   11.0437  -12.2502   -0.1860 H   0  0  0  0  0  0  0  0  0  0  0  0
    9.3367  -12.8754   -0.1667 H   0  0  0  0  0  0  0  0  0  0  0  0
   11.3340  -14.5653    0.0997 H   0  0  0  0  0  0  0  0  0  0  0  0
    9.9337  -14.9556   -0.9952 H   0  0  0  0  0  0  0  0  0  0  0  0
   11.2120  -14.9280   -2.7700 H   0  0  0  0  0  0  0  0  0  0  0  0
   12.9452  -15.6122   -0.6094 H   0  0  0  0  0  0  0  0  0  0  0  0
   12.5644  -16.4875   -2.1311 H   0  0  0  0  0  0  0  0  0  0  0  0
   13.7964  -15.1802   -2.1311 H   0  0  0  0  0  0  0  0  0  0  0  0
   12.9311  -12.7137   -1.7523 H   0  0  0  0  0  0  0  0  0  0  0  0
   12.9773  -13.4272   -3.4155 H   0  0  0  0  0  0  0  0  0  0  0  0
   11.6333  -11.2072   -3.0502 H   0  0  0  0  0  0  0  0  0  0  0  0
   10.8690  -12.5663   -3.9900 H   0  0  0  0  0  0  0  0  0  0  0  0
    5.1313  -11.4237    2.1806 H   0  0  0  0  0  0  0  0  0  0  0  0
  1  2  1  0
  2  3  2  0
  3  4  1  0
  4  5  2  0
  5  6  1  0
  6  7  1  0
  7  8  2  0
  7  9  1  0
  9 10  2  0
 10 11  1  0
 11 12  2  0
 12 13  1  0
 13 14  1  0
 14 15  1  0
 14 16  1  0
 14 17  1  0
 13 18  2  0
  5 19  1  0
 19 20  2  0
 20 21  1  0
 21 22  1  0
 22 23  2  0
 23 24  1  0
 24 25  2  0
 25 26  1  0
 26 27  2  0
 27 28  1  0
 28 29  2  0
 29 30  1  0
 30 31  1  0
 31 32  2  0
 32 33  1  0
 33 34  1  0
 34 35  1  0
 35 36  1  0
 36 37  1  0
 37 38  1  0
 38 39  1  0
 39 40  1  0
 40 41  1  0
 40 42  1  0
 42 43  1  0
 33 44  2  0
 44 45  1  0
 45 46  2  0
 20  2  1  0
 30 22  1  0
 46 31  1  0
 18  9  1  0
 29 24  1  0
 43 37  1  0
  1 47  1  0
  1 48  1  0
  1 49  1  0
  3 50  1  0
  4 51  1  0
  6 52  1  0
 10 53  1  0
 11 54  1  0
 12 55  1  0
 18 56  1  0
 19 57  1  0
 21 58  1  0
 25 59  1  0
 26 60  1  0
 27 61  1  0
 28 62  1  0
 32 63  1  0
 34 64  1  0
 35 65  1  0
 35 66  1  0
 36 67  1  0
 36 68  1  0
 37 69  1  0
 38 70  1  0
 38 71  1  0
 39 72  1  0
 39 73  1  0
 40 74  1  0
 41 75  1  0
 41 76  1  0
 41 77  1  0
 42 78  1  0
 42 79  1  0
 43 80  1  0
 43 81  1  0
 45 82  1  0
M  CHG  2  37   1  40   1
M  END
>  <meeko>  (1) 
{"is_sidechain": [false], "free_energy": -9.542, "intermolecular_energy": -15.12, "internal_energy": -2.564}

$$$$
LIB_DUSWCXDALWVDSK__M_PUB_ALL__e8__s20260927
     RDKit          3D

 82 87  0  0  0  0  0  0  0  0999 V2000
    9.6080  -13.1840  -10.0960 C   0  0  0  0  0  0  0  0  0  0  0  0
   10.1250  -11.8750  -10.6350 C   0  0  0  0  0  0  0  0  0  0  0  0
    9.2590  -11.0560  -11.3770 C   0  0  0  0  0  0  0  0  0  0  0  0
    9.6890   -9.8220  -11.8670 C   0  0  0  0  0  0  0  0  0  0  0  0
   11.0050   -9.4160  -11.6690 C   0  0  0  0  0  0  0  0  0  0  0  0
   11.5020   -8.1800  -12.1290 N   0  0  0  0  0  0  0  0  0  0  0  0
   11.4210   -6.9790  -11.4560 C   0  0  0  0  0  0  0  0  0  0  0  0
   11.0850   -6.8290  -10.2810 O   0  0  0  0  0  0  0  0  0  0  0  0
   11.8940   -5.7940  -12.2130 C   0  0  0  0  0  0  0  0  0  0  0  0
   12.5330   -5.9970  -13.4400 C   0  0  0  0  0  0  0  0  0  0  0  0
   12.9640   -4.9030  -14.1890 C   0  0  0  0  0  0  0  0  0  0  0  0
   12.7460   -3.6040  -13.7220 C   0  0  0  0  0  0  0  0  0  0  0  0
   12.0960   -3.3840  -12.4990 C   0  0  0  0  0  0  0  0  0  0  0  0
   11.8180   -1.9840  -12.0000 C   0  0  0  0  0  0  0  0  0  0  0  0
   12.7880   -1.1070  -12.3750 F   0  0  0  0  0  0  0  0  0  0  0  0
   10.6380   -1.4690  -12.4270 F   0  0  0  0  0  0  0  0  0  0  0  0
   11.7870   -1.9460  -10.6390 F   0  0  0  0  0  0  0  0  0  0  0  0
   11.6670   -4.4930  -11.7460 C   0  0  0  0  0  0  0  0  0  0  0  0
   11.8920  -10.2600  -10.9960 C   0  0  0  0  0  0  0  0  0  0  0  0
   11.4610  -11.4700  -10.4230 C   0  0  0  0  0  0  0  0  0  0  0  0
   12.3010  -12.2430   -9.5870 N   0  0  0  0  0  0  0  0  0  0  0  0
   13.1130  -13.2830   -9.9080 C   0  0  0  0  0  0  0  0  0  0  0  0
   13.6520  -13.4060  -11.0980 N   0  0  0  0  0  0  0  0  0  0  0  0
   14.5870  -14.3960  -10.9850 C   0  0  0  0  0  0  0  0  0  0  0  0
   15.5010  -14.8550  -11.9450 C   0  0  0  0  0  0  0  0  0  0  0  0
   16.3840  -15.8840  -11.6020 C   0  0  0  0  0  0  0  0  0  0  0  0
   16.3490  -16.4530  -10.3300 C   0  0  0  0  0  0  0  0  0  0  0  0
   15.4360  -16.0130   -9.3640 C   0  0  0  0  0  0  0  0  0  0  0  0
   14.5640  -14.9680   -9.7150 C   0  0  0  0  0  0  0  0  0  0  0  0
   13.5080  -14.3310   -9.0680 N   0  0  0  0  0  0  0  0  0  0  0  0
   12.9640  -14.7120   -7.8020 C   0  0  0  0  0  0  0  0  0  0  0  0
   13.3230  -14.0330   -6.6540 C   0  0  0  0  0  0  0  0  0  0  0  0
   12.8200  -14.5200   -5.4650 C   0  0  0  0  0  0  0  0  0  0  0  0
   13.1590  -13.9490   -4.2430 N   0  0  0  0  0  0  0  0  0  0  0  0
   12.7710  -14.6810   -3.0350 C   0  0  0  0  0  0  0  0  0  0  0  0
   12.1610  -13.7510   -1.9590 C   0  0  0  0  0  0  0  0  0  0  0  0
   10.6910  -14.0940   -1.7140 N   0  0  0  0  0  0  0  0  0  0  0  0
    9.7410  -12.9870   -2.1180 C   0  0  0  0  0  0  0  0  0  0  0  0
    9.4820  -12.9630   -3.6420 C   0  0  0  0  0  0  0  0  0  0  0  0
    9.3940  -14.3730   -4.2490 N   0  0  0  0  0  0  0  0  0  0  0  0
    8.4020  -14.4300   -5.3870 C   0  0  0  0  0  0  0  0  0  0  0  0
    9.1450  -15.4630   -3.2140 C   0  0  0  0  0  0  0  0  0  0  0  0
   10.2590  -15.4840   -2.1350 C   0  0  0  0  0  0  0  0  0  0  0  0
   12.0330  -15.6080   -5.3880 N   0  0  0  0  0  0  0  0  0  0  0  0
   11.6610  -16.1320   -6.5670 C   0  0  0  0  0  0  0  0  0  0  0  0
   12.1020  -15.7520   -7.7670 N   0  0  0  0  0  0  0  0  0  0  0  0
    9.6185  -13.1575   -8.9964 H   0  0  0  0  0  0  0  0  0  0  0  0
    8.5787  -13.3450  -10.4491 H   0  0  0  0  0  0  0  0  0  0  0  0
   10.2494  -14.0049  -10.4491 H   0  0  0  0  0  0  0  0  0  0  0  0
    8.2299  -11.3908  -11.5744 H   0  0  0  0  0  0  0  0  0  0  0  0
    8.9879   -9.1707  -12.4095 H   0  0  0  0  0  0  0  0  0  0  0  0
   11.9770   -8.2060  -13.0270 H   0  0  0  0  0  0  0  0  0  0  0  0
   12.6954   -7.0187  -13.8139 H   0  0  0  0  0  0  0  0  0  0  0  0
   13.4765   -5.0625  -15.1491 H   0  0  0  0  0  0  0  0  0  0  0  0
   13.0875   -2.7459  -14.3195 H   0  0  0  0  0  0  0  0  0  0  0  0
   11.1514   -4.3375  -10.7869 H   0  0  0  0  0  0  0  0  0  0  0  0
   12.9503   -9.9719  -10.9125 H   0  0  0  0  0  0  0  0  0  0  0  0
   11.9690  -12.2720   -8.6240 H   0  0  0  0  0  0  0  0  0  0  0  0
   15.5229  -14.4126  -12.9519 H   0  0  0  0  0  0  0  0  0  0  0  0
   17.1121  -16.2473  -12.3422 H   0  0  0  0  0  0  0  0  0  0  0  0
   17.0512  -17.2622  -10.0807 H   0  0  0  0  0  0  0  0  0  0  0  0
   15.4023  -16.4698   -8.3639 H   0  0  0  0  0  0  0  0  0  0  0  0
   13.9767  -13.1489   -6.6860 H   0  0  0  0  0  0  0  0  0  0  0  0
   14.1240  -13.6110   -4.2380 H   0  0  0  0  0  0  0  0  0  0  0  0
   12.0269  -15.4442   -3.3068 H   0  0  0  0  0  0  0  0  0  0  0  0
   13.6772  -15.1387   -2.6116 H   0  0  0  0  0  0  0  0  0  0  0  0
   12.7206  -13.8709   -1.0196 H   0  0  0  0  0  0  0  0  0  0  0  0
   12.2259  -12.7118   -2.3137 H   0  0  0  0  0  0  0  0  0  0  0  0
   10.6730  -14.0930   -0.6650 H   0  0  0  0  0  0  0  0  0  0  0  0
    8.7828  -13.1361   -1.5987 H   0  0  0  0  0  0  0  0  0  0  0  0
   10.2037  -12.0285   -1.8402 H   0  0  0  0  0  0  0  0  0  0  0  0
    8.5334  -12.4387   -3.8300 H   0  0  0  0  0  0  0  0  0  0  0  0
   10.3308  -12.4485   -4.1162 H   0  0  0  0  0  0  0  0  0  0  0  0
   10.3080  -14.5600   -4.6850 H   0  0  0  0  0  0  0  0  0  0  0  0
    7.3813  -14.4886   -4.9811 H   0  0  0  0  0  0  0  0  0  0  0  0
    8.4997  -13.5248   -6.0043 H   0  0  0  0  0  0  0  0  0  0  0  0
    8.6027  -15.3181   -6.0043 H   0  0  0  0  0  0  0  0  0  0  0  0
    8.1770  -15.2782   -2.7254 H   0  0  0  0  0  0  0  0  0  0  0  0
    9.1432  -16.4352   -3.7287 H   0  0  0  0  0  0  0  0  0  0  0  0
    9.8823  -16.0185   -1.2505 H   0  0  0  0  0  0  0  0  0  0  0  0
   11.1349  -15.9865   -2.5712 H   0  0  0  0  0  0  0  0  0  0  0  0
   10.9253  -16.9494   -6.5408 H   0  0  0  0  0  0  0  0  0  0  0  0
  1  2  1  0
  2  3  2  0
  3  4  1  0
  4  5  2  0
  5  6  1  0
  6  7  1  0
  7  8  2  0
  7  9  1  0
  9 10  2  0
 10 11  1  0
 11 12  2  0
 12 13  1  0
 13 14  1  0
 14 15  1  0
 14 16  1  0
 14 17  1  0
 13 18  2  0
  5 19  1  0
 19 20  2  0
 20 21  1  0
 21 22  1  0
 22 23  2  0
 23 24  1  0
 24 25  2  0
 25 26  1  0
 26 27  2  0
 27 28  1  0
 28 29  2  0
 29 30  1  0
 30 31  1  0
 31 32  2  0
 32 33  1  0
 33 34  1  0
 34 35  1  0
 35 36  1  0
 36 37  1  0
 37 38  1  0
 38 39  1  0
 39 40  1  0
 40 41  1  0
 40 42  1  0
 42 43  1  0
 33 44  2  0
 44 45  1  0
 45 46  2  0
 20  2  1  0
 30 22  1  0
 46 31  1  0
 18  9  1  0
 29 24  1  0
 43 37  1  0
  1 47  1  0
  1 48  1  0
  1 49  1  0
  3 50  1  0
  4 51  1  0
  6 52  1  0
 10 53  1  0
 11 54  1  0
 12 55  1  0
 18 56  1  0
 19 57  1  0
 21 58  1  0
 25 59  1  0
 26 60  1  0
 27 61  1  0
 28 62  1  0
 32 63  1  0
 34 64  1  0
 35 65  1  0
 35 66  1  0
 36 67  1  0
 36 68  1  0
 37 69  1  0
 38 70  1  0
 38 71  1  0
 39 72  1  0
 39 73  1  0
 40 74  1  0
 41 75  1  0
 41 76  1  0
 41 77  1  0
 42 78  1  0
 42 79  1  0
 43 80  1  0
 43 81  1  0
 45 82  1  0
M  CHG  2  37   1  40   1
M  END
>  <meeko>  (2) 
{"is_sidechain": [false], "free_energy": -9.506, "intermolecular_energy": -15.14, "internal_energy": -2.488}

$$$$
LIB_DUSWCXDALWVDSK__M_PUB_ALL__e8__s20260927
     RDKit          3D

 82 87  0  0  0  0  0  0  0  0999 V2000
   13.1430  -15.8530  -12.5910 C   0  0  0  0  0  0  0  0  0  0  0  0
   13.1960  -15.3540  -11.1700 C   0  0  0  0  0  0  0  0  0  0  0  0
   14.2800  -15.7280  -10.3580 C   0  0  0  0  0  0  0  0  0  0  0  0
   14.3840  -15.2620   -9.0460 C   0  0  0  0  0  0  0  0  0  0  0  0
   13.3790  -14.4610   -8.5120 C   0  0  0  0  0  0  0  0  0  0  0  0
   13.4250  -13.9510   -7.2000 N   0  0  0  0  0  0  0  0  0  0  0  0
   12.7160  -14.4390   -6.1210 C   0  0  0  0  0  0  0  0  0  0  0  0
   12.0920  -15.4990   -6.0850 O   0  0  0  0  0  0  0  0  0  0  0  0
   12.8290  -13.6420   -4.8740 C   0  0  0  0  0  0  0  0  0  0  0  0
   14.0180  -12.9470   -4.6320 C   0  0  0  0  0  0  0  0  0  0  0  0
   14.1450  -12.1670   -3.4830 C   0  0  0  0  0  0  0  0  0  0  0  0
   13.0820  -12.0660   -2.5830 C   0  0  0  0  0  0  0  0  0  0  0  0
   11.8790  -12.7470   -2.8190 C   0  0  0  0  0  0  0  0  0  0  0  0
   10.7060  -12.6160   -1.8730 C   0  0  0  0  0  0  0  0  0  0  0  0
    9.6950  -11.8830   -2.4130 F   0  0  0  0  0  0  0  0  0  0  0  0
   10.1690  -13.8020   -1.4910 F   0  0  0  0  0  0  0  0  0  0  0  0
   11.0670  -11.9690   -0.7310 F   0  0  0  0  0  0  0  0  0  0  0  0
   11.7580  -13.5370   -3.9770 C   0  0  0  0  0  0  0  0  0  0  0  0
   12.2620  -14.1480   -9.2900 C   0  0  0  0  0  0  0  0  0  0  0  0
   12.1740  -14.5380  -10.6380 C   0  0  0  0  0  0  0  0  0  0  0  0
   11.1390  -14.0750  -11.4850 N   0  0  0  0  0  0  0  0  0  0  0  0
   10.2500  -13.0680  -11.2860 C   0  0  0  0  0  0  0  0  0  0  0  0
   10.4250  -11.8720  -11.7960 N   0  0  0  0  0  0  0  0  0  0  0  0
    9.2430  -11.2120  -11.6150 C   0  0  0  0  0  0  0  0  0  0  0  0
    8.8740   -9.9320  -12.0560 C   0  0  0  0  0  0  0  0  0  0  0  0
    7.5920   -9.4570  -11.7620 C   0  0  0  0  0  0  0  0  0  0  0  0
    6.6980  -10.2380  -11.0330 C   0  0  0  0  0  0  0  0  0  0  0  0
    7.0530  -11.5130  -10.5750 C   0  0  0  0  0  0  0  0  0  0  0  0
    8.3390  -11.9860  -10.8910 C   0  0  0  0  0  0  0  0  0  0  0  0
    9.0530  -13.1350  -10.5630 N   0  0  0  0  0  0  0  0  0  0  0  0
    8.6160  -14.1500   -9.6560 C   0  0  0  0  0  0  0  0  0  0  0  0
    9.0280  -14.1340   -8.3370 C   0  0  0  0  0  0  0  0  0  0  0  0
    8.6320  -15.1970   -7.5520 C   0  0  0  0  0  0  0  0  0  0  0  0
    9.0330  -15.3130   -6.2260 N   0  0  0  0  0  0  0  0  0  0  0  0
    7.9760  -15.3940   -5.2150 C   0  0  0  0  0  0  0  0  0  0  0  0
    7.2430  -14.0440   -5.0270 C   0  0  0  0  0  0  0  0  0  0  0  0
    5.9090  -14.0420   -5.7740 N   0  0  0  0  0  0  0  0  0  0  0  0
    4.7160  -14.2650   -4.8710 C   0  0  0  0  0  0  0  0  0  0  0  0
    4.2990  -12.9780   -4.1210 C   0  0  0  0  0  0  0  0  0  0  0  0
    4.4380  -11.7170   -4.9880 N   0  0  0  0  0  0  0  0  0  0  0  0
    3.3650  -10.7010   -4.6740 C   0  0  0  0  0  0  0  0  0  0  0  0
    4.5270  -12.0140   -6.4800 C   0  0  0  0  0  0  0  0  0  0  0  0
    5.7300  -12.9410   -6.8000 C   0  0  0  0  0  0  0  0  0  0  0  0
    7.8950  -16.2220   -8.0170 N   0  0  0  0  0  0  0  0  0  0  0  0
    7.4610  -16.0910   -9.2820 C   0  0  0  0  0  0  0  0  0  0  0  0
    7.8000  -15.1180  -10.1290 N   0  0  0  0  0  0  0  0  0  0  0  0
   13.0268  -16.9468  -12.5914 H   0  0  0  0  0  0  0  0  0  0  0  0
   12.2886  -15.3933  -13.1094 H   0  0  0  0  0  0  0  0  0  0  0  0
   14.0749  -15.5831  -13.1094 H   0  0  0  0  0  0  0  0  0  0  0  0
   15.0558  -16.3958  -10.7607 H   0  0  0  0  0  0  0  0  0  0  0  0
   15.2593  -15.5277   -8.4351 H   0  0  0  0  0  0  0  0  0  0  0  0
   14.0600  -13.1720   -7.0540 H   0  0  0  0  0  0  0  0  0  0  0  0
   14.8515  -13.0154   -5.3465 H   0  0  0  0  0  0  0  0  0  0  0  0
   15.0845  -11.6302   -3.2852 H   0  0  0  0  0  0  0  0  0  0  0  0
   13.1893  -11.4464   -1.6804 H   0  0  0  0  0  0  0  0  0  0  0  0
   10.8194  -14.0739   -4.1787 H   0  0  0  0  0  0  0  0  0  0  0  0
   11.4328  -13.5839   -8.8381 H   0  0  0  0  0  0  0  0  0  0  0  0
   10.7920  -14.8050  -12.1070 H   0  0  0  0  0  0  0  0  0  0  0  0
    9.5825   -9.3116  -12.6244 H   0  0  0  0  0  0  0  0  0  0  0  0
    7.2871   -8.4587  -12.1091 H   0  0  0  0  0  0  0  0  0  0  0  0
    5.6941   -9.8458  -10.8129 H   0  0  0  0  0  0  0  0  0  0  0  0
    6.3503  -12.1232   -9.9885 H   0  0  0  0  0  0  0  0  0  0  0  0
    9.6410  -13.3147   -7.9333 H   0  0  0  0  0  0  0  0  0  0  0  0
    9.7750  -16.0080   -6.1150 H   0  0  0  0  0  0  0  0  0  0  0  0
    7.2445  -16.1539   -5.5272 H   0  0  0  0  0  0  0  0  0  0  0  0
    8.4450  -15.6603   -4.2563 H   0  0  0  0  0  0  0  0  0  0  0  0
    7.0564  -13.8811   -3.9552 H   0  0  0  0  0  0  0  0  0  0  0  0
    7.8752  -13.2401   -5.4321 H   0  0  0  0  0  0  0  0  0  0  0  0
    6.0010  -14.9330   -6.3210 H   0  0  0  0  0  0  0  0  0  0  0  0
    3.8686  -14.6083   -5.4826 H   0  0  0  0  0  0  0  0  0  0  0  0
    4.9989  -15.0162   -4.1189 H   0  0  0  0  0  0  0  0  0  0  0  0
    3.2489  -13.0768   -3.8088 H   0  0  0  0  0  0  0  0  0  0  0  0
    4.9703  -12.8638   -3.2571 H   0  0  0  0  0  0  0  0  0  0  0  0
    5.3210  -11.2660   -4.7070 H   0  0  0  0  0  0  0  0  0  0  0  0
    3.2611  -10.6026   -3.5833 H   0  0  0  0  0  0  0  0  0  0  0  0
    3.6438   -9.7281   -5.1050 H   0  0  0  0  0  0  0  0  0  0  0  0
    2.4088  -11.0325   -5.1050 H   0  0  0  0  0  0  0  0  0  0  0  0
    3.5985  -12.5075   -6.8031 H   0  0  0  0  0  0  0  0  0  0  0  0
    4.6693  -11.0636   -7.0152 H   0  0  0  0  0  0  0  0  0  0  0  0
    5.5670  -13.4015   -7.7856 H   0  0  0  0  0  0  0  0  0  0  0  0
    6.6394  -12.3222   -6.7855 H   0  0  0  0  0  0  0  0  0  0  0  0
    6.7626  -16.8558   -9.6527 H   0  0  0  0  0  0  0  0  0  0  0  0
  1  2  1  0
  2  3  2  0
  3  4  1  0
  4  5  2  0
  5  6  1  0
  6  7  1  0
  7  8  2  0
  7  9  1  0
  9 10  2  0
 10 11  1  0
 11 12  2  0
 12 13  1  0
 13 14  1  0
 14 15  1  0
 14 16  1  0
 14 17  1  0
 13 18  2  0
  5 19  1  0
 19 20  2  0
 20 21  1  0
 21 22  1  0
 22 23  2  0
 23 24  1  0
 24 25  2  0
 25 26  1  0
 26 27  2  0
 27 28  1  0
 28 29  2  0
 29 30  1  0
 30 31  1  0
 31 32  2  0
 32 33  1  0
 33 34  1  0
 34 35  1  0
 35 36  1  0
 36 37  1  0
 37 38  1  0
 38 39  1  0
 39 40  1  0
 40 41  1  0
 40 42  1  0
 42 43  1  0
 33 44  2  0
 44 45  1  0
 45 46  2  0
 20  2  1  0
 30 22  1  0
 46 31  1  0
 18  9  1  0
 29 24  1  0
 43 37  1  0
  1 47  1  0
  1 48  1  0
  1 49  1  0
  3 50  1  0
  4 51  1  0
  6 52  1  0
 10 53  1  0
 11 54  1  0
 12 55  1  0
 18 56  1  0
 19 57  1  0
 21 58  1  0
 25 59  1  0
 26 60  1  0
 27 61  1  0
 28 62  1  0
 32 63  1  0
 34 64  1  0
 35 65  1  0
 35 66  1  0
 36 67  1  0
 36 68  1  0
 37 69  1  0
 38 70  1  0
 38 71  1  0
 39 72  1  0
 39 73  1  0
 40 74  1  0
 41 75  1  0
 41 76  1  0
 41 77  1  0
 42 78  1  0
 42 79  1  0
 43 80  1  0
 43 81  1  0
 45 82  1  0
M  CHG  2  37   1  40   1
M  END
>  <meeko>  (3) 
{"is_sidechain": [false], "free_energy": -9.223, "intermolecular_energy": -14.014, "internal_energy": -3.165}

$$$$
LIB_DUSWCXDALWVDSK__M_PUB_ALL__e8__s20260927
     RDKit          3D

 82 87  0  0  0  0  0  0  0  0999 V2000
    4.9830  -12.2500   -6.7200 C   0  0  0  0  0  0  0  0  0  0  0  0
    4.1560  -12.1760   -5.4620 C   0  0  0  0  0  0  0  0  0  0  0  0
    3.5880  -10.9460   -5.0920 C   0  0  0  0  0  0  0  0  0  0  0  0
    2.7900  -10.8420   -3.9530 C   0  0  0  0  0  0  0  0  0  0  0  0
    2.5940  -11.9530   -3.1380 C   0  0  0  0  0  0  0  0  0  0  0  0
    1.7940  -11.9190   -1.9790 N   0  0  0  0  0  0  0  0  0  0  0  0
    2.2560  -11.9700   -0.6800 C   0  0  0  0  0  0  0  0  0  0  0  0
    3.4290  -11.8550   -0.3250 O   0  0  0  0  0  0  0  0  0  0  0  0
    1.2070  -12.0600    0.3650 C   0  0  0  0  0  0  0  0  0  0  0  0
    1.1030  -13.2420    1.1050 C   0  0  0  0  0  0  0  0  0  0  0  0
    0.1460  -13.3480    2.1130 C   0  0  0  0  0  0  0  0  0  0  0  0
   -0.6990  -12.2720    2.3950 C   0  0  0  0  0  0  0  0  0  0  0  0
   -0.5980  -11.0760    1.6690 C   0  0  0  0  0  0  0  0  0  0  0  0
   -1.4790   -9.8890    1.9880 C   0  0  0  0  0  0  0  0  0  0  0  0
   -0.7590   -8.8260    2.4370 F   0  0  0  0  0  0  0  0  0  0  0  0
   -2.2160   -9.4490    0.9380 F   0  0  0  0  0  0  0  0  0  0  0  0
   -2.3620  -10.1870    2.9820 F   0  0  0  0  0  0  0  0  0  0  0  0
    0.3670  -10.9760    0.6490 C   0  0  0  0  0  0  0  0  0  0  0  0
    3.2170  -13.1610   -3.4600 C   0  0  0  0  0  0  0  0  0  0  0  0
    3.9590  -13.3110   -4.6450 C   0  0  0  0  0  0  0  0  0  0  0  0
    4.4410  -14.5710   -5.0720 N   0  0  0  0  0  0  0  0  0  0  0  0
    5.3580  -15.3840   -4.4890 C   0  0  0  0  0  0  0  0  0  0  0  0
    5.2820  -16.6920   -4.5680 N   0  0  0  0  0  0  0  0  0  0  0  0
    6.4760  -17.1650   -4.1020 C   0  0  0  0  0  0  0  0  0  0  0  0
    6.9390  -18.4880   -4.0560 C   0  0  0  0  0  0  0  0  0  0  0  0
    8.2140  -18.7430   -3.5420 C   0  0  0  0  0  0  0  0  0  0  0  0
    9.0090  -17.6990   -3.0730 C   0  0  0  0  0  0  0  0  0  0  0  0
    8.5580  -16.3740   -3.1010 C   0  0  0  0  0  0  0  0  0  0  0  0
    7.2810  -16.1290   -3.6340 C   0  0  0  0  0  0  0  0  0  0  0  0
    6.4890  -14.9910   -3.7630 N   0  0  0  0  0  0  0  0  0  0  0  0
    6.8030  -13.7010   -3.2340 C   0  0  0  0  0  0  0  0  0  0  0  0
    6.5210  -13.3970   -1.9160 C   0  0  0  0  0  0  0  0  0  0  0  0
    6.7760  -12.1030   -1.5100 C   0  0  0  0  0  0  0  0  0  0  0  0
    6.4800  -11.6720   -0.2230 N   0  0  0  0  0  0  0  0  0  0  0  0
    7.3650  -12.1280    0.8530 C   0  0  0  0  0  0  0  0  0  0  0  0
    8.7710  -11.4900    0.7610 C   0  0  0  0  0  0  0  0  0  0  0  0
    9.8560  -12.5660    0.7410 N   0  0  0  0  0  0  0  0  0  0  0  0
    9.8950  -13.3550   -0.5500 C   0  0  0  0  0  0  0  0  0  0  0  0
   10.6260  -12.5950   -1.6810 C   0  0  0  0  0  0  0  0  0  0  0  0
   11.8440  -11.8090   -1.1720 N   0  0  0  0  0  0  0  0  0  0  0  0
   12.9580  -11.7800   -2.1940 C   0  0  0  0  0  0  0  0  0  0  0  0
   12.3330  -12.2660    0.1960 C   0  0  0  0  0  0  0  0  0  0  0  0
   11.2140  -12.1450    1.2650 C   0  0  0  0  0  0  0  0  0  0  0  0
    7.2590  -11.1550   -2.3330 N   0  0  0  0  0  0  0  0  0  0  0  0
    7.5940  -11.5780   -3.5630 C   0  0  0  0  0  0  0  0  0  0  0  0
    7.3740  -12.7960   -4.0600 N   0  0  0  0  0  0  0  0  0  0  0  0
    6.0463  -12.3451   -6.4547 H   0  0  0  0  0  0  0  0  0  0  0  0
    4.6731  -13.1240   -7.3117 H   0  0  0  0  0  0  0  0  0  0  0  0
    4.8332  -11.3349   -7.3117 H   0  0  0  0  0  0  0  0  0  0  0  0
    3.7748  -10.0540   -5.7080 H   0  0  0  0  0  0  0  0  0  0  0  0
    2.3158   -9.8825   -3.6989 H   0  0  0  0  0  0  0  0  0  0  0  0
    0.7950  -11.8270   -2.1380 H   0  0  0  0  0  0  0  0  0  0  0  0
    1.7750  -14.0864    0.8921 H   0  0  0  0  0  0  0  0  0  0  0  0
    0.0560  -14.2815    2.6879 H   0  0  0  0  0  0  0  0  0  0  0  0
   -1.4502  -12.3634    3.1934 H   0  0  0  0  0  0  0  0  0  0  0  0
    0.4616  -10.0435    0.0732 H   0  0  0  0  0  0  0  0  0  0  0  0
    3.1251  -14.0138   -2.7714 H   0  0  0  0  0  0  0  0  0  0  0  0
    4.3850  -14.6850   -6.0840 H   0  0  0  0  0  0  0  0  0  0  0  0
    6.3083  -19.3129   -4.4190 H   0  0  0  0  0  0  0  0  0  0  0  0
    8.5923  -19.7753   -3.5076 H   0  0  0  0  0  0  0  0  0  0  0  0
   10.0097  -17.9202   -2.6733 H   0  0  0  0  0  0  0  0  0  0  0  0
    9.1819  -15.5526   -2.7188 H   0  0  0  0  0  0  0  0  0  0  0  0
    6.1134  -14.1492   -1.2246 H   0  0  0  0  0  0  0  0  0  0  0  0
    6.2690  -10.6710   -0.1980 H   0  0  0  0  0  0  0  0  0  0  0  0
    6.9157  -11.8578    1.8200 H   0  0  0  0  0  0  0  0  0  0  0  0
    7.4810  -13.2176    0.7567 H   0  0  0  0  0  0  0  0  0  0  0  0
    8.8369  -10.8944   -0.1615 H   0  0  0  0  0  0  0  0  0  0  0  0
    8.9257  -10.8502    1.6423 H   0  0  0  0  0  0  0  0  0  0  0  0
    9.4680  -13.2340    1.4510 H   0  0  0  0  0  0  0  0  0  0  0  0
   10.4174  -14.3058   -0.3678 H   0  0  0  0  0  0  0  0  0  0  0  0
    8.8570  -13.5222   -0.8734 H   0  0  0  0  0  0  0  0  0  0  0  0
   10.9652  -13.3229   -2.4328 H   0  0  0  0  0  0  0  0  0  0  0  0
    9.9169  -11.8711   -2.1090 H   0  0  0  0  0  0  0  0  0  0  0  0
   11.5420  -10.8280   -1.0830 H   0  0  0  0  0  0  0  0  0  0  0  0
   13.9289  -11.7547   -1.6775 H   0  0  0  0  0  0  0  0  0  0  0  0
   12.9011  -12.6799   -2.8240 H   0  0  0  0  0  0  0  0  0  0  0  0
   12.8544  -10.8842   -2.8240 H   0  0  0  0  0  0  0  0  0  0  0  0
   12.6529  -13.3164    0.1296 H   0  0  0  0  0  0  0  0  0  0  0  0
   13.1720  -11.6217    0.4976 H   0  0  0  0  0  0  0  0  0  0  0  0
   11.4746  -12.7848    2.1210 H   0  0  0  0  0  0  0  0  0  0  0  0
   11.1445  -11.0861    1.5545 H   0  0  0  0  0  0  0  0  0  0  0  0
    8.0959  -10.8533   -4.2209 H   0  0  0  0  0  0  0  0  0  0  0  0
  1  2  1  0
  2  3  2  0
  3  4  1  0
  4  5  2  0
  5  6  1  0
  6  7  1  0
  7  8  2  0
  7  9  1  0
  9 10  2  0
 10 11  1  0
 11 12  2  0
 12 13  1  0
 13 14  1  0
 14 15  1  0
 14 16  1  0
 14 17  1  0
 13 18  2  0
  5 19  1  0
 19 20  2  0
 20 21  1  0
 21 22  1  0
 22 23  2  0
 23 24  1  0
 24 25  2  0
 25 26  1  0
 26 27  2  0
 27 28  1  0
 28 29  2  0
 29 30  1  0
 30 31  1  0
 31 32  2  0
 32 33  1  0
 33 34  1  0
 34 35  1  0
 35 36  1  0
 36 37  1  0
 37 38  1  0
 38 39  1  0
 39 40  1  0
 40 41  1  0
 40 42  1  0
 42 43  1  0
 33 44  2  0
 44 45  1  0
 45 46  2  0
 20  2  1  0
 30 22  1  0
 46 31  1  0
 18  9  1  0
 29 24  1  0
 43 37  1  0
  1 47  1  0
  1 48  1  0
  1 49  1  0
  3 50  1  0
  4 51  1  0
  6 52  1  0
 10 53  1  0
 11 54  1  0
 12 55  1  0
 18 56  1  0
 19 57  1  0
 21 58  1  0
 25 59  1  0
 26 60  1  0
 27 61  1  0
 28 62  1  0
 32 63  1  0
 34 64  1  0
 35 65  1  0
 35 66  1  0
 36 67  1  0
 36 68  1  0
 37 69  1  0
 38 70  1  0
 38 71  1  0
 39 72  1  0
 39 73  1  0
 40 74  1  0
 41 75  1  0
 41 76  1  0
 41 77  1  0
 42 78  1  0
 42 79  1  0
 43 80  1  0
 43 81  1  0
 45 82  1  0
M  CHG  2  37   1  40   1
M  END
>  <meeko>  (4) 
{"is_sidechain": [false], "free_energy": -9.211, "intermolecular_energy": -14.238, "internal_energy": -2.922}

$$$$
LIB_DUSWCXDALWVDSK__M_PUB_ALL__e8__s20260927
     RDKit          3D

 82 87  0  0  0  0  0  0  0  0999 V2000
    9.7310  -13.1330  -10.0590 C   0  0  0  0  0  0  0  0  0  0  0  0
   10.2250  -11.8200  -10.6110 C   0  0  0  0  0  0  0  0  0  0  0  0
    9.3410  -11.0180  -11.3510 C   0  0  0  0  0  0  0  0  0  0  0  0
    9.7490   -9.7810  -11.8520 C   0  0  0  0  0  0  0  0  0  0  0  0
   11.0610   -9.3540  -11.6670 C   0  0  0  0  0  0  0  0  0  0  0  0
   11.5360   -8.1150  -12.1390 N   0  0  0  0  0  0  0  0  0  0  0  0
   11.4840   -6.9190  -11.4540 C   0  0  0  0  0  0  0  0  0  0  0  0
   11.2020   -6.7790  -10.2640 O   0  0  0  0  0  0  0  0  0  0  0  0
   11.9220   -5.7270  -12.2210 C   0  0  0  0  0  0  0  0  0  0  0  0
   12.5560   -5.9230  -13.4530 C   0  0  0  0  0  0  0  0  0  0  0  0
   12.9540   -4.8230  -14.2110 C   0  0  0  0  0  0  0  0  0  0  0  0
   12.7090   -3.5270  -13.7500 C   0  0  0  0  0  0  0  0  0  0  0  0
   12.0640   -3.3160  -12.5230 C   0  0  0  0  0  0  0  0  0  0  0  0
   11.7570   -1.9190  -12.0300 C   0  0  0  0  0  0  0  0  0  0  0  0
   12.7330   -1.0340  -12.3650 F   0  0  0  0  0  0  0  0  0  0  0  0
   10.5890   -1.4120  -12.4990 F   0  0  0  0  0  0  0  0  0  0  0  0
   11.6740   -1.8870  -10.6700 F   0  0  0  0  0  0  0  0  0  0  0  0
   11.6680   -4.4300  -11.7600 C   0  0  0  0  0  0  0  0  0  0  0  0
   11.9650  -10.1820  -10.9970 C   0  0  0  0  0  0  0  0  0  0  0  0
   11.5570  -11.3950  -10.4130 C   0  0  0  0  0  0  0  0  0  0  0  0
   12.4150  -12.1500   -9.5800 N   0  0  0  0  0  0  0  0  0  0  0  0
   13.1720  -13.2360   -9.8830 C   0  0  0  0  0  0  0  0  0  0  0  0
   13.7910  -13.3550  -11.0340 N   0  0  0  0  0  0  0  0  0  0  0  0
   14.6410  -14.4160  -10.8930 C   0  0  0  0  0  0  0  0  0  0  0  0
   15.5910  -14.9070  -11.8010 C   0  0  0  0  0  0  0  0  0  0  0  0
   16.3680  -16.0110  -11.4370 C   0  0  0  0  0  0  0  0  0  0  0  0
   16.1950  -16.6210  -10.1960 C   0  0  0  0  0  0  0  0  0  0  0  0
   15.2440  -16.1500   -9.2820 C   0  0  0  0  0  0  0  0  0  0  0  0
   14.4800  -15.0300   -9.6530 C   0  0  0  0  0  0  0  0  0  0  0  0
   13.4250  -14.3400   -9.0600 N   0  0  0  0  0  0  0  0  0  0  0  0
   12.7590  -14.7240   -7.8550 C   0  0  0  0  0  0  0  0  0  0  0  0
   11.9510  -15.8450   -7.8300 C   0  0  0  0  0  0  0  0  0  0  0  0
   11.2770  -16.0950   -6.6530 C   0  0  0  0  0  0  0  0  0  0  0  0
   10.3950  -17.1630   -6.5310 N   0  0  0  0  0  0  0  0  0  0  0  0
    9.4910  -17.1530   -5.3790 C   0  0  0  0  0  0  0  0  0  0  0  0
    9.4360  -18.5260   -4.6680 C   0  0  0  0  0  0  0  0  0  0  0  0
    9.8920  -18.4030   -3.2130 N   0  0  0  0  0  0  0  0  0  0  0  0
   11.1860  -19.1330   -2.9260 C   0  0  0  0  0  0  0  0  0  0  0  0
   12.4260  -18.3310   -3.3830 C   0  0  0  0  0  0  0  0  0  0  0  0
   12.2740  -16.8210   -3.1440 N   0  0  0  0  0  0  0  0  0  0  0  0
   13.5930  -16.1760   -2.7870 C   0  0  0  0  0  0  0  0  0  0  0  0
   11.1770  -16.4720   -2.1460 C   0  0  0  0  0  0  0  0  0  0  0  0
    9.7990  -17.0170   -2.6080 C   0  0  0  0  0  0  0  0  0  0  0  0
   11.3650  -15.3020   -5.5700 N   0  0  0  0  0  0  0  0  0  0  0  0
   12.2540  -14.2990   -5.6640 C   0  0  0  0  0  0  0  0  0  0  0  0
   12.9400  -13.9590   -6.7560 N   0  0  0  0  0  0  0  0  0  0  0  0
    9.7446  -13.0969   -8.9597 H   0  0  0  0  0  0  0  0  0  0  0  0
    8.7034  -13.3138  -10.4073 H   0  0  0  0  0  0  0  0  0  0  0  0
   10.3846  -13.9463  -10.4073 H   0  0  0  0  0  0  0  0  0  0  0  0
    8.3153  -11.3688  -11.5379 H   0  0  0  0  0  0  0  0  0  0  0  0
    9.0341   -9.1436  -12.3929 H   0  0  0  0  0  0  0  0  0  0  0  0
   11.9700   -8.1330  -13.0570 H   0  0  0  0  0  0  0  0  0  0  0  0
   12.7398   -6.9427  -13.8224 H   0  0  0  0  0  0  0  0  0  0  0  0
   13.4622   -4.9756  -15.1745 H   0  0  0  0  0  0  0  0  0  0  0  0
   13.0250   -2.6644  -14.3551 H   0  0  0  0  0  0  0  0  0  0  0  0
   11.1568   -4.2810  -10.7975 H   0  0  0  0  0  0  0  0  0  0  0  0
   13.0198   -9.8785  -10.9245 H   0  0  0  0  0  0  0  0  0  0  0  0
   12.1350  -12.1130   -8.6000 H   0  0  0  0  0  0  0  0  0  0  0  0
   15.7226  -14.4309  -12.7839 H   0  0  0  0  0  0  0  0  0  0  0  0
   17.1222  -16.4014  -12.1361 H   0  0  0  0  0  0  0  0  0  0  0  0
   16.8168  -17.4884   -9.9294 H   0  0  0  0  0  0  0  0  0  0  0  0
   15.1000  -16.6396   -8.3076 H   0  0  0  0  0  0  0  0  0  0  0  0
   11.8506  -16.5045   -8.7046 H   0  0  0  0  0  0  0  0  0  0  0  0
    9.9400  -17.3810   -7.4210 H   0  0  0  0  0  0  0  0  0  0  0  0
    9.8400  -16.3960   -4.6613 H   0  0  0  0  0  0  0  0  0  0  0  0
    8.4799  -16.9212   -5.7449 H   0  0  0  0  0  0  0  0  0  0  0  0
    8.4029  -18.9031   -4.6915 H   0  0  0  0  0  0  0  0  0  0  0  0
   10.1094  -19.2210   -5.1909 H   0  0  0  0  0  0  0  0  0  0  0  0
    9.1510  -18.9740   -2.7380 H   0  0  0  0  0  0  0  0  0  0  0  0
   11.2591  -19.3107   -1.8429 H   0  0  0  0  0  0  0  0  0  0  0  0
   11.1708  -20.0784   -3.4882 H   0  0  0  0  0  0  0  0  0  0  0  0
   13.3030  -18.6896   -2.8243 H   0  0  0  0  0  0  0  0  0  0  0  0
   12.5431  -18.4868   -4.4656 H   0  0  0  0  0  0  0  0  0  0  0  0
   12.0140  -16.4060   -4.0500 H   0  0  0  0  0  0  0  0  0  0  0  0
   13.6929  -16.1271   -1.6926 H   0  0  0  0  0  0  0  0  0  0  0  0
   14.4177  -16.7725   -3.2042 H   0  0  0  0  0  0  0  0  0  0  0  0
   13.6286  -15.1588   -3.2042 H   0  0  0  0  0  0  0  0  0  0  0  0
   11.4275  -16.9127   -1.1698 H   0  0  0  0  0  0  0  0  0  0  0  0
   11.1100  -15.3765   -2.0732 H   0  0  0  0  0  0  0  0  0  0  0  0
    9.1267  -17.0569   -1.7383 H   0  0  0  0  0  0  0  0  0  0  0  0
    9.4174  -16.3395   -3.3860 H   0  0  0  0  0  0  0  0  0  0  0  0
   12.4325  -13.7033   -4.7566 H   0  0  0  0  0  0  0  0  0  0  0  0
  1  2  1  0
  2  3  2  0
  3  4  1  0
  4  5  2  0
  5  6  1  0
  6  7  1  0
  7  8  2  0
  7  9  1  0
  9 10  2  0
 10 11  1  0
 11 12  2  0
 12 13  1  0
 13 14  1  0
 14 15  1  0
 14 16  1  0
 14 17  1  0
 13 18  2  0
  5 19  1  0
 19 20  2  0
 20 21  1  0
 21 22  1  0
 22 23  2  0
 23 24  1  0
 24 25  2  0
 25 26  1  0
 26 27  2  0
 27 28  1  0
 28 29  2  0
 29 30  1  0
 30 31  1  0
 31 32  2  0
 32 33  1  0
 33 34  1  0
 34 35  1  0
 35 36  1  0
 36 37  1  0
 37 38  1  0
 38 39  1  0
 39 40  1  0
 40 41  1  0
 40 42  1  0
 42 43  1  0
 33 44  2  0
 44 45  1  0
 45 46  2  0
 20  2  1  0
 30 22  1  0
 46 31  1  0
 18  9  1  0
 29 24  1  0
 43 37  1  0
  1 47  1  0
  1 48  1  0
  1 49  1  0
  3 50  1  0
  4 51  1  0
  6 52  1  0
 10 53  1  0
 11 54  1  0
 12 55  1  0
 18 56  1  0
 19 57  1  0
 21 58  1  0
 25 59  1  0
 26 60  1  0
 27 61  1  0
 28 62  1  0
 32 63  1  0
 34 64  1  0
 35 65  1  0
 35 66  1  0
 36 67  1  0
 36 68  1  0
 37 69  1  0
 38 70  1  0
 38 71  1  0
 39 72  1  0
 39 73  1  0
 40 74  1  0
 41 75  1  0
 41 76  1  0
 41 77  1  0
 42 78  1  0
 42 79  1  0
 43 80  1  0
 43 81  1  0
 45 82  1  0
M  CHG  2  37   1  40   1
M  END
>  <meeko>  (5) 
{"is_sidechain": [false], "free_energy": -9.184, "intermolecular_energy": -14.572, "internal_energy": -2.544}

$$$$
LIB_DUSWCXDALWVDSK__M_PUB_ALL__e8__s20260927
     RDKit          3D

 82 87  0  0  0  0  0  0  0  0999 V2000
    4.7950  -12.7550   -5.6150 C   0  0  0  0  0  0  0  0  0  0  0  0
    3.9240  -12.5540   -4.4020 C   0  0  0  0  0  0  0  0  0  0  0  0
    2.6300  -13.1010   -4.3950 C   0  0  0  0  0  0  0  0  0  0  0  0
    1.8030  -12.9650   -3.2800 C   0  0  0  0  0  0  0  0  0  0  0  0
    2.2370  -12.2340   -2.1780 C   0  0  0  0  0  0  0  0  0  0  0  0
    1.4570  -12.0650   -1.0170 N   0  0  0  0  0  0  0  0  0  0  0  0
    0.6750  -13.0350   -0.4240 C   0  0  0  0  0  0  0  0  0  0  0  0
    0.6860  -14.2360   -0.6910 O   0  0  0  0  0  0  0  0  0  0  0  0
   -0.1620  -12.5710    0.7100 C   0  0  0  0  0  0  0  0  0  0  0  0
   -0.6940  -13.5270    1.5810 C   0  0  0  0  0  0  0  0  0  0  0  0
   -1.4610  -13.1210    2.6720 C   0  0  0  0  0  0  0  0  0  0  0  0
   -1.6870  -11.7620    2.9050 C   0  0  0  0  0  0  0  0  0  0  0  0
   -1.1490  -10.7920    2.0470 C   0  0  0  0  0  0  0  0  0  0  0  0
   -1.3520   -9.3160    2.3080 C   0  0  0  0  0  0  0  0  0  0  0  0
   -2.4280   -8.8230    1.6390 F   0  0  0  0  0  0  0  0  0  0  0  0
   -1.5280   -9.0060    3.6170 F   0  0  0  0  0  0  0  0  0  0  0  0
   -0.2810   -8.5910    1.8800 F   0  0  0  0  0  0  0  0  0  0  0  0
   -0.3800  -11.2070    0.9440 C   0  0  0  0  0  0  0  0  0  0  0  0
    3.4940  -11.6250   -2.2080 C   0  0  0  0  0  0  0  0  0  0  0  0
    4.3760  -11.8150   -3.2860 C   0  0  0  0  0  0  0  0  0  0  0  0
    5.7140  -11.3560   -3.2490 N   0  0  0  0  0  0  0  0  0  0  0  0
    6.8470  -12.0320   -2.9280 C   0  0  0  0  0  0  0  0  0  0  0  0
    7.5560  -12.6710   -3.8280 N   0  0  0  0  0  0  0  0  0  0  0  0
    8.7290  -13.0050   -3.2120 C   0  0  0  0  0  0  0  0  0  0  0  0
    9.8640  -13.6220   -3.7590 C   0  0  0  0  0  0  0  0  0  0  0  0
   10.9690  -13.8600   -2.9350 C   0  0  0  0  0  0  0  0  0  0  0  0
   10.9390  -13.5000   -1.5890 C   0  0  0  0  0  0  0  0  0  0  0  0
    9.8100  -12.8930   -1.0250 C   0  0  0  0  0  0  0  0  0  0  0  0
    8.7120  -12.6450   -1.8670 C   0  0  0  0  0  0  0  0  0  0  0  0
    7.4310  -12.1390   -1.6600 N   0  0  0  0  0  0  0  0  0  0  0  0
    6.8640  -11.8170   -0.3880 C   0  0  0  0  0  0  0  0  0  0  0  0
    6.0720  -12.7330    0.2770 C   0  0  0  0  0  0  0  0  0  0  0  0
    5.4940  -12.3100    1.4560 C   0  0  0  0  0  0  0  0  0  0  0  0
    4.6350  -13.1280    2.1800 N   0  0  0  0  0  0  0  0  0  0  0  0
    3.5430  -13.7680    1.4420 C   0  0  0  0  0  0  0  0  0  0  0  0
    3.7060  -15.3050    1.3740 C   0  0  0  0  0  0  0  0  0  0  0  0
    3.1610  -15.8520    0.0550 N   0  0  0  0  0  0  0  0  0  0  0  0
    3.9360  -15.3820   -1.1560 C   0  0  0  0  0  0  0  0  0  0  0  0
    5.2430  -16.1830   -1.3640 C   0  0  0  0  0  0  0  0  0  0  0  0
    5.0810  -17.6740   -1.0300 N   0  0  0  0  0  0  0  0  0  0  0  0
    5.9300  -18.5430   -1.9290 C   0  0  0  0  0  0  0  0  0  0  0  0
    3.6290  -18.1330   -0.9940 C   0  0  0  0  0  0  0  0  0  0  0  0
    2.8080  -17.3260    0.0470 C   0  0  0  0  0  0  0  0  0  0  0  0
    5.6580  -11.0710    1.9540 N   0  0  0  0  0  0  0  0  0  0  0  0
    6.5260  -10.2940    1.2870 C   0  0  0  0  0  0  0  0  0  0  0  0
    7.1220  -10.5960    0.1320 N   0  0  0  0  0  0  0  0  0  0  0  0
    5.8205  -12.9916   -5.2949 H   0  0  0  0  0  0  0  0  0  0  0  0
    4.3982  -13.5852   -6.2178 H   0  0  0  0  0  0  0  0  0  0  0  0
    4.8022  -11.8349   -6.2178 H   0  0  0  0  0  0  0  0  0  0  0  0
    2.2645  -13.6432   -5.2796 H   0  0  0  0  0  0  0  0  0  0  0  0
    0.8086  -13.4351   -3.2717 H   0  0  0  0  0  0  0  0  0  0  0  0
    1.5080  -11.1480   -0.5840 H   0  0  0  0  0  0  0  0  0  0  0  0
   -0.5077  -14.5968    1.4057 H   0  0  0  0  0  0  0  0  0  0  0  0
   -1.8895  -13.8726    3.3513 H   0  0  0  0  0  0  0  0  0  0  0  0
   -2.2922  -11.4503    3.7690 H   0  0  0  0  0  0  0  0  0  0  0  0
    0.0513  -10.4581    0.2634 H   0  0  0  0  0  0  0  0  0  0  0  0
    3.8004  -10.9825   -1.3694 H   0  0  0  0  0  0  0  0  0  0  0  0
    5.7740  -10.3540   -3.0670 H   0  0  0  0  0  0  0  0  0  0  0  0
    9.8847  -13.9141   -4.8193 H   0  0  0  0  0  0  0  0  0  0  0  0
   11.8689  -14.3351   -3.3528 H   0  0  0  0  0  0  0  0  0  0  0  0
   11.8184  -13.6963   -0.9580 H   0  0  0  0  0  0  0  0  0  0  0  0
    9.7833  -12.6197    0.0402 H   0  0  0  0  0  0  0  0  0  0  0  0
    5.9104  -13.7484   -0.1139 H   0  0  0  0  0  0  0  0  0  0  0  0
    5.1470  -13.7580    2.8020 H   0  0  0  0  0  0  0  0  0  0  0  0
    2.5921  -13.5344    1.9431 H   0  0  0  0  0  0  0  0  0  0  0  0
    3.5586  -13.3808    0.4125 H   0  0  0  0  0  0  0  0  0  0  0  0
    4.7733  -15.5582    1.4556 H   0  0  0  0  0  0  0  0  0  0  0  0
    3.1404  -15.7560    2.2027 H   0  0  0  0  0  0  0  0  0  0  0  0
    2.2480  -15.3370    0.0040 H   0  0  0  0  0  0  0  0  0  0  0  0
    3.3034  -15.4994   -2.0482 H   0  0  0  0  0  0  0  0  0  0  0  0
    4.2091  -14.3290   -0.9928 H   0  0  0  0  0  0  0  0  0  0  0  0
    5.5504  -16.0889   -2.4160 H   0  0  0  0  0  0  0  0  0  0  0  0
    6.0000  -15.7688   -0.6818 H   0  0  0  0  0  0  0  0  0  0  0  0
    5.4740  -17.8070   -0.0870 H   0  0  0  0  0  0  0  0  0  0  0  0
    6.5671  -19.1951   -1.3134 H   0  0  0  0  0  0  0  0  0  0  0  0
    5.2780  -19.1608   -2.5639 H   0  0  0  0  0  0  0  0  0  0  0  0
    6.5629  -17.9055   -2.5639 H   0  0  0  0  0  0  0  0  0  0  0  0
    3.1835  -17.9909   -1.9897 H   0  0  0  0  0  0  0  0  0  0  0  0
    3.6075  -19.1944   -0.7058 H   0  0  0  0  0  0  0  0  0  0  0  0
    1.7390  -17.4306   -0.1904 H   0  0  0  0  0  0  0  0  0  0  0  0
    3.0451  -17.7298    1.0423 H   0  0  0  0  0  0  0  0  0  0  0  0
    6.7683   -9.3184    1.7338 H   0  0  0  0  0  0  0  0  0  0  0  0
  1  2  1  0
  2  3  2  0
  3  4  1  0
  4  5  2  0
  5  6  1  0
  6  7  1  0
  7  8  2  0
  7  9  1  0
  9 10  2  0
 10 11  1  0
 11 12  2  0
 12 13  1  0
 13 14  1  0
 14 15  1  0
 14 16  1  0
 14 17  1  0
 13 18  2  0
  5 19  1  0
 19 20  2  0
 20 21  1  0
 21 22  1  0
 22 23  2  0
 23 24  1  0
 24 25  2  0
 25 26  1  0
 26 27  2  0
 27 28  1  0
 28 29  2  0
 29 30  1  0
 30 31  1  0
 31 32  2  0
 32 33  1  0
 33 34  1  0
 34 35  1  0
 35 36  1  0
 36 37  1  0
 37 38  1  0
 38 39  1  0
 39 40  1  0
 40 41  1  0
 40 42  1  0
 42 43  1  0
 33 44  2  0
 44 45  1  0
 45 46  2  0
 20  2  1  0
 30 22  1  0
 46 31  1  0
 18  9  1  0
 29 24  1  0
 43 37  1  0
  1 47  1  0
  1 48  1  0
  1 49  1  0
  3 50  1  0
  4 51  1  0
  6 52  1  0
 10 53  1  0
 11 54  1  0
 12 55  1  0
 18 56  1  0
 19 57  1  0
 21 58  1  0
 25 59  1  0
 26 60  1  0
 27 61  1  0
 28 62  1  0
 32 63  1  0
 34 64  1  0
 35 65  1  0
 35 66  1  0
 36 67  1  0
 36 68  1  0
 37 69  1  0
 38 70  1  0
 38 71  1  0
 39 72  1  0
 39 73  1  0
 40 74  1  0
 41 75  1  0
 41 76  1  0
 41 77  1  0
 42 78  1  0
 42 79  1  0
 43 80  1  0
 43 81  1  0
 45 82  1  0
M  CHG  2  37   1  40   1
M  END
>  <meeko>  (6) 
{"is_sidechain": [false], "free_energy": -9.084, "intermolecular_energy": -13.713, "internal_energy": -3.246}

$$$$
LIB_DUSWCXDALWVDSK__M_PUB_ALL__e8__s20260927
     RDKit          3D

 82 87  0  0  0  0  0  0  0  0999 V2000
    1.4030  -15.5500    3.2860 C   0  0  0  0  0  0  0  0  0  0  0  0
    1.9180  -15.0290    1.9690 C   0  0  0  0  0  0  0  0  0  0  0  0
    2.8320  -15.8080    1.2400 C   0  0  0  0  0  0  0  0  0  0  0  0
    3.3090  -15.3770    0.0020 C   0  0  0  0  0  0  0  0  0  0  0  0
    2.9220  -14.1380   -0.4990 C   0  0  0  0  0  0  0  0  0  0  0  0
    3.3590  -13.6460   -1.7450 N   0  0  0  0  0  0  0  0  0  0  0  0
    2.8160  -13.9660   -2.9720 C   0  0  0  0  0  0  0  0  0  0  0  0
    1.7580  -14.5650   -3.1610 O   0  0  0  0  0  0  0  0  0  0  0  0
    3.5430  -13.4270   -4.1480 C   0  0  0  0  0  0  0  0  0  0  0  0
    3.2530  -12.1270   -4.5730 C   0  0  0  0  0  0  0  0  0  0  0  0
    3.9390  -11.5810   -5.6580 C   0  0  0  0  0  0  0  0  0  0  0  0
    4.9240  -12.3260   -6.3110 C   0  0  0  0  0  0  0  0  0  0  0  0
    5.2340  -13.6260   -5.8880 C   0  0  0  0  0  0  0  0  0  0  0  0
    6.3260  -14.4290   -6.5600 C   0  0  0  0  0  0  0  0  0  0  0  0
    6.3550  -14.2250   -7.9040 F   0  0  0  0  0  0  0  0  0  0  0  0
    7.5730  -14.1640   -6.0960 F   0  0  0  0  0  0  0  0  0  0  0  0
    6.1270  -15.7660   -6.3900 F   0  0  0  0  0  0  0  0  0  0  0  0
    4.5360  -14.1740   -4.7960 C   0  0  0  0  0  0  0  0  0  0  0  0
    2.0720  -13.3260    0.2560 C   0  0  0  0  0  0  0  0  0  0  0  0
    1.5150  -13.7720    1.4670 C   0  0  0  0  0  0  0  0  0  0  0  0
    0.5150  -13.0370    2.1470 N   0  0  0  0  0  0  0  0  0  0  0  0
   -0.6780  -12.5780    1.6880 C   0  0  0  0  0  0  0  0  0  0  0  0
   -0.8690  -11.3160    1.3840 N   0  0  0  0  0  0  0  0  0  0  0  0
   -2.0680  -11.2670    0.7300 C   0  0  0  0  0  0  0  0  0  0  0  0
   -2.6910  -10.1690    0.1190 C   0  0  0  0  0  0  0  0  0  0  0  0
   -3.9260  -10.3540   -0.5100 C   0  0  0  0  0  0  0  0  0  0  0  0
   -4.5340  -11.6080   -0.5210 C   0  0  0  0  0  0  0  0  0  0  0  0
   -3.9300  -12.7120    0.0920 C   0  0  0  0  0  0  0  0  0  0  0  0
   -2.6820  -12.5170    0.7080 C   0  0  0  0  0  0  0  0  0  0  0  0
   -1.8340  -13.3320    1.4550 N   0  0  0  0  0  0  0  0  0  0  0  0
   -2.1320  -14.6630    1.8820 C   0  0  0  0  0  0  0  0  0  0  0  0
   -2.9160  -14.8790    3.0000 C   0  0  0  0  0  0  0  0  0  0  0  0
   -3.0820  -16.1910    3.3940 C   0  0  0  0  0  0  0  0  0  0  0  0
   -3.8040  -16.5220    4.5350 N   0  0  0  0  0  0  0  0  0  0  0  0
   -5.1210  -15.9000    4.6940 C   0  0  0  0  0  0  0  0  0  0  0  0
   -6.1390  -16.8520    5.3650 C   0  0  0  0  0  0  0  0  0  0  0  0
   -7.0400  -16.0880    6.3350 N   0  0  0  0  0  0  0  0  0  0  0  0
   -7.2180  -16.7870    7.6660 C   0  0  0  0  0  0  0  0  0  0  0  0
   -6.0130  -16.5670    8.6100 C   0  0  0  0  0  0  0  0  0  0  0  0
   -5.4350  -15.1470    8.5080 N   0  0  0  0  0  0  0  0  0  0  0  0
   -4.9150  -14.6580    9.8400 C   0  0  0  0  0  0  0  0  0  0  0  0
   -6.3880  -14.1490    7.8620 C   0  0  0  0  0  0  0  0  0  0  0  0
   -6.7910  -14.5970    6.4320 C   0  0  0  0  0  0  0  0  0  0  0  0
   -2.5120  -17.2300    2.7580 N   0  0  0  0  0  0  0  0  0  0  0  0
   -1.8560  -16.9210    1.6270 C   0  0  0  0  0  0  0  0  0  0  0  0
   -1.6210  -15.6900    1.1680 N   0  0  0  0  0  0  0  0  0  0  0  0
    1.9148  -15.0322    4.1106 H   0  0  0  0  0  0  0  0  0  0  0  0
    0.3204  -15.3676    3.3544 H   0  0  0  0  0  0  0  0  0  0  0  0
    1.5979  -16.6304    3.3544 H   0  0  0  0  0  0  0  0  0  0  0  0
    3.1755  -16.7691    1.6502 H   0  0  0  0  0  0  0  0  0  0  0  0
    3.9908  -16.0164   -0.5779 H   0  0  0  0  0  0  0  0  0  0  0  0
    4.1270  -12.9830   -1.7090 H   0  0  0  0  0  0  0  0  0  0  0  0
    2.4851  -11.5357   -4.0527 H   0  0  0  0  0  0  0  0  0  0  0  0
    3.7040  -10.5623   -5.9999 H   0  0  0  0  0  0  0  0  0  0  0  0
    5.4614  -11.8883   -7.1652 H   0  0  0  0  0  0  0  0  0  0  0  0
    4.7704  -15.1915   -4.4500 H   0  0  0  0  0  0  0  0  0  0  0  0
    1.8333  -12.3149   -0.1054 H   0  0  0  0  0  0  0  0  0  0  0  0
    0.8960  -12.4800    2.9110 H   0  0  0  0  0  0  0  0  0  0  0  0
   -2.2153   -9.1773    0.1344 H   0  0  0  0  0  0  0  0  0  0  0  0
   -4.4216   -9.5030   -1.0001 H   0  0  0  0  0  0  0  0  0  0  0  0
   -5.5061  -11.7325   -1.0204 H   0  0  0  0  0  0  0  0  0  0  0  0
   -4.4158  -13.6989    0.0916 H   0  0  0  0  0  0  0  0  0  0  0  0
   -3.3836  -14.0474    3.5475 H   0  0  0  0  0  0  0  0  0  0  0  0
   -3.7910  -17.5300    4.7110 H   0  0  0  0  0  0  0  0  0  0  0  0
   -5.0147  -14.9993    5.3164 H   0  0  0  0  0  0  0  0  0  0  0  0
   -5.5005  -15.6514    3.6919 H   0  0  0  0  0  0  0  0  0  0  0  0
   -6.7610  -17.3203    4.5880 H   0  0  0  0  0  0  0  0  0  0  0  0
   -5.5863  -17.6190    5.9274 H   0  0  0  0  0  0  0  0  0  0  0  0
   -7.9660  -16.1940    5.8520 H   0  0  0  0  0  0  0  0  0  0  0  0
   -8.1242  -16.3966    8.1522 H   0  0  0  0  0  0  0  0  0  0  0  0
   -7.3001  -17.8665    7.4710 H   0  0  0  0  0  0  0  0  0  0  0  0
   -6.3403  -16.7407    9.6457 H   0  0  0  0  0  0  0  0  0  0  0  0
   -5.2224  -17.2711    8.3113 H   0  0  0  0  0  0  0  0  0  0  0  0
   -4.6000  -15.2140    7.9070 H   0  0  0  0  0  0  0  0  0  0  0  0
   -5.4547  -15.1656   10.6530 H   0  0  0  0  0  0  0  0  0  0  0  0
   -3.8406  -14.8805    9.9183 H   0  0  0  0  0  0  0  0  0  0  0  0
   -5.0712  -13.5720    9.9183 H   0  0  0  0  0  0  0  0  0  0  0  0
   -7.2941  -14.0672    8.4803 H   0  0  0  0  0  0  0  0  0  0  0  0
   -5.8765  -13.1779    7.7899 H   0  0  0  0  0  0  0  0  0  0  0  0
   -7.7107  -14.0671    6.1433 H   0  0  0  0  0  0  0  0  0  0  0  0
   -5.9543  -14.3554    5.7600 H   0  0  0  0  0  0  0  0  0  0  0  0
   -1.4778  -17.7596    1.0239 H   0  0  0  0  0  0  0  0  0  0  0  0
  1  2  1  0
  2  3  2  0
  3  4  1  0
  4  5  2  0
  5  6  1  0
  6  7  1  0
  7  8  2  0
  7  9  1  0
  9 10  2  0
 10 11  1  0
 11 12  2  0
 12 13  1  0
 13 14  1  0
 14 15  1  0
 14 16  1  0
 14 17  1  0
 13 18  2  0
  5 19  1  0
 19 20  2  0
 20 21  1  0
 21 22  1  0
 22 23  2  0
 23 24  1  0
 24 25  2  0
 25 26  1  0
 26 27  2  0
 27 28  1  0
 28 29  2  0
 29 30  1  0
 30 31  1  0
 31 32  2  0
 32 33  1  0
 33 34  1  0
 34 35  1  0
 35 36  1  0
 36 37  1  0
 37 38  1  0
 38 39  1  0
 39 40  1  0
 40 41  1  0
 40 42  1  0
 42 43  1  0
 33 44  2  0
 44 45  1  0
 45 46  2  0
 20  2  1  0
 30 22  1  0
 46 31  1  0
 18  9  1  0
 29 24  1  0
 43 37  1  0
  1 47  1  0
  1 48  1  0
  1 49  1  0
  3 50  1  0
  4 51  1  0
  6 52  1  0
 10 53  1  0
 11 54  1  0
 12 55  1  0
 18 56  1  0
 19 57  1  0
 21 58  1  0
 25 59  1  0
 26 60  1  0
 27 61  1  0
 28 62  1  0
 32 63  1  0
 34 64  1  0
 35 65  1  0
 35 66  1  0
 36 67  1  0
 36 68  1  0
 37 69  1  0
 38 70  1  0
 38 71  1  0
 39 72  1  0
 39 73  1  0
 40 74  1  0
 41 75  1  0
 41 76  1  0
 41 77  1  0
 42 78  1  0
 42 79  1  0
 43 80  1  0
 43 81  1  0
 45 82  1  0
M  CHG  2  37   1  40   1
M  END
>  <meeko>  (7) 
{"is_sidechain": [false], "free_energy": -9.052, "intermolecular_energy": -14.527, "internal_energy": -2.38}

$$$$
LIB_DUSWCXDALWVDSK__M_PUB_ALL__e8__s20260927
     RDKit          3D

 82 87  0  0  0  0  0  0  0  0999 V2000
    5.2090  -17.9030    0.5010 C   0  0  0  0  0  0  0  0  0  0  0  0
    3.9410  -17.1260    0.7470 C   0  0  0  0  0  0  0  0  0  0  0  0
    3.0710  -17.5490    1.7650 C   0  0  0  0  0  0  0  0  0  0  0  0
    1.9030  -16.8400    2.0470 C   0  0  0  0  0  0  0  0  0  0  0  0
    1.5610  -15.7310    1.2780 C   0  0  0  0  0  0  0  0  0  0  0  0
    0.4010  -14.9670    1.5140 N   0  0  0  0  0  0  0  0  0  0  0  0
   -0.8110  -15.1250    0.8740 C   0  0  0  0  0  0  0  0  0  0  0  0
   -1.1290  -16.0680    0.1500 O   0  0  0  0  0  0  0  0  0  0  0  0
   -1.8380  -14.1040    1.1980 C   0  0  0  0  0  0  0  0  0  0  0  0
   -2.8470  -14.4380    2.1060 C   0  0  0  0  0  0  0  0  0  0  0  0
   -3.8110  -13.4920    2.4530 C   0  0  0  0  0  0  0  0  0  0  0  0
   -3.7620  -12.2080    1.9060 C   0  0  0  0  0  0  0  0  0  0  0  0
   -2.7480  -11.8540    1.0040 C   0  0  0  0  0  0  0  0  0  0  0  0
   -2.6580  -10.4560    0.4350 C   0  0  0  0  0  0  0  0  0  0  0  0
   -1.4830  -10.2440   -0.2150 F   0  0  0  0  0  0  0  0  0  0  0  0
   -3.6500  -10.1500   -0.4390 F   0  0  0  0  0  0  0  0  0  0  0  0
   -2.7120   -9.5200    1.4230 F   0  0  0  0  0  0  0  0  0  0  0  0
   -1.7800  -12.8140    0.6540 C   0  0  0  0  0  0  0  0  0  0  0  0
    2.3840  -15.3500    0.2160 C   0  0  0  0  0  0  0  0  0  0  0  0
    3.6060  -15.9990   -0.0350 C   0  0  0  0  0  0  0  0  0  0  0  0
    4.5310  -15.5110   -0.9880 N   0  0  0  0  0  0  0  0  0  0  0  0
    4.3880  -14.5060   -1.8900 C   0  0  0  0  0  0  0  0  0  0  0  0
    4.0480  -14.7310   -3.1370 N   0  0  0  0  0  0  0  0  0  0  0  0
    3.7530  -13.5090   -3.6710 C   0  0  0  0  0  0  0  0  0  0  0  0
    3.2540  -13.2040   -4.9460 C   0  0  0  0  0  0  0  0  0  0  0  0
    3.0120  -11.8670   -5.2770 C   0  0  0  0  0  0  0  0  0  0  0  0
    3.2710  -10.8520   -4.3590 C   0  0  0  0  0  0  0  0  0  0  0  0
    3.7790  -11.1380   -3.0850 C   0  0  0  0  0  0  0  0  0  0  0  0
    4.0040  -12.4860   -2.7590 C   0  0  0  0  0  0  0  0  0  0  0  0
    4.5480  -13.1350   -1.6530 N   0  0  0  0  0  0  0  0  0  0  0  0
    5.1470  -12.4900   -0.5280 C   0  0  0  0  0  0  0  0  0  0  0  0
    6.4130  -11.9450   -0.6270 C   0  0  0  0  0  0  0  0  0  0  0  0
    6.9520  -11.4190    0.5290 C   0  0  0  0  0  0  0  0  0  0  0  0
    8.2390  -10.8940    0.5590 N   0  0  0  0  0  0  0  0  0  0  0  0
    9.3110  -11.7840    1.0120 C   0  0  0  0  0  0  0  0  0  0  0  0
    9.9720  -12.5460   -0.1610 C   0  0  0  0  0  0  0  0  0  0  0  0
   11.4850  -12.6410    0.0360 N   0  0  0  0  0  0  0  0  0  0  0  0
   12.1030  -13.8500   -0.6330 C   0  0  0  0  0  0  0  0  0  0  0  0
   12.3140  -13.6370   -2.1500 C   0  0  0  0  0  0  0  0  0  0  0  0
   12.7550  -12.2050   -2.4900 N   0  0  0  0  0  0  0  0  0  0  0  0
   13.7030  -12.1760   -3.6670 C   0  0  0  0  0  0  0  0  0  0  0  0
   13.3040  -11.4400   -1.2930 C   0  0  0  0  0  0  0  0  0  0  0  0
   12.2580  -11.3510   -0.1510 C   0  0  0  0  0  0  0  0  0  0  0  0
    6.3140  -11.4330    1.7130 N   0  0  0  0  0  0  0  0  0  0  0  0
    5.0510  -11.8910    1.6800 C   0  0  0  0  0  0  0  0  0  0  0  0
    4.4440  -12.4370    0.6260 N   0  0  0  0  0  0  0  0  0  0  0  0
    5.6618  -18.1804    1.4643 H   0  0  0  0  0  0  0  0  0  0  0  0
    4.9760  -18.8136   -0.0704 H   0  0  0  0  0  0  0  0  0  0  0  0
    5.9146  -17.2820   -0.0704 H   0  0  0  0  0  0  0  0  0  0  0  0
    3.3134  -18.4503    2.3471 H   0  0  0  0  0  0  0  0  0  0  0  0
    1.2531  -17.1569    2.8760 H   0  0  0  0  0  0  0  0  0  0  0  0
    0.4820  -14.2590    2.2370 H   0  0  0  0  0  0  0  0  0  0  0  0
   -2.8805  -15.4456    2.5461 H   0  0  0  0  0  0  0  0  0  0  0  0
   -4.6116  -13.7577    3.1590 H   0  0  0  0  0  0  0  0  0  0  0  0
   -4.5258  -11.4673    2.1852 H   0  0  0  0  0  0  0  0  0  0  0  0
   -0.9756  -12.5508   -0.0486 H   0  0  0  0  0  0  0  0  0  0  0  0
    2.0694  -14.5239   -0.4387 H   0  0  0  0  0  0  0  0  0  0  0  0
    5.2000  -16.2230   -1.2780 H   0  0  0  0  0  0  0  0  0  0  0  0
    3.0561  -14.0042   -5.6743 H   0  0  0  0  0  0  0  0  0  0  0  0
    2.6137  -11.6148   -6.2709 H   0  0  0  0  0  0  0  0  0  0  0  0
    3.0731   -9.8069   -4.6394 H   0  0  0  0  0  0  0  0  0  0  0  0
    3.9943  -10.3349   -2.3648 H   0  0  0  0  0  0  0  0  0  0  0  0
    6.9632  -11.9312   -1.5794 H   0  0  0  0  0  0  0  0  0  0  0  0
    8.4560  -10.3760   -0.2960 H   0  0  0  0  0  0  0  0  0  0  0  0
   10.0787  -11.1832    1.5217 H   0  0  0  0  0  0  0  0  0  0  0  0
    8.8685  -12.5275    1.6913 H   0  0  0  0  0  0  0  0  0  0  0  0
    9.5510  -13.5609   -0.2144 H   0  0  0  0  0  0  0  0  0  0  0  0
    9.7720  -11.9985   -1.0938 H   0  0  0  0  0  0  0  0  0  0  0  0
   11.5250  -12.8540    1.0630 H   0  0  0  0  0  0  0  0  0  0  0  0
   13.0776  -14.0535   -0.1654 H   0  0  0  0  0  0  0  0  0  0  0  0
   11.4116  -14.6959   -0.5048 H   0  0  0  0  0  0  0  0  0  0  0  0
   13.0878  -14.3363   -2.4997 H   0  0  0  0  0  0  0  0  0  0  0  0
   11.3500  -13.8160   -2.6488 H   0  0  0  0  0  0  0  0  0  0  0  0
   11.9130  -11.7090   -2.8170 H   0  0  0  0  0  0  0  0  0  0  0  0
   14.7401  -12.1443   -3.3018 H   0  0  0  0  0  0  0  0  0  0  0  0
   13.5568  -13.0790   -4.2779 H   0  0  0  0  0  0  0  0  0  0  0  0
   13.5019  -11.2836   -4.2779 H   0  0  0  0  0  0  0  0  0  0  0  0
   14.2000  -11.9565   -0.9184 H   0  0  0  0  0  0  0  0  0  0  0  0
   13.5500  -10.4183   -1.6179 H   0  0  0  0  0  0  0  0  0  0  0  0
   12.7809  -11.1149    0.7875 H   0  0  0  0  0  0  0  0  0  0  0  0
   11.5356  -10.5672   -0.4225 H   0  0  0  0  0  0  0  0  0  0  0  0
    4.4647  -11.8078    2.6070 H   0  0  0  0  0  0  0  0  0  0  0  0
  1  2  1  0
  2  3  2  0
  3  4  1  0
  4  5  2  0
  5  6  1  0
  6  7  1  0
  7  8  2  0
  7  9  1  0
  9 10  2  0
 10 11  1  0
 11 12  2  0
 12 13  1  0
 13 14  1  0
 14 15  1  0
 14 16  1  0
 14 17  1  0
 13 18  2  0
  5 19  1  0
 19 20  2  0
 20 21  1  0
 21 22  1  0
 22 23  2  0
 23 24  1  0
 24 25  2  0
 25 26  1  0
 26 27  2  0
 27 28  1  0
 28 29  2  0
 29 30  1  0
 30 31  1  0
 31 32  2  0
 32 33  1  0
 33 34  1  0
 34 35  1  0
 35 36  1  0
 36 37  1  0
 37 38  1  0
 38 39  1  0
 39 40  1  0
 40 41  1  0
 40 42  1  0
 42 43  1  0
 33 44  2  0
 44 45  1  0
 45 46  2  0
 20  2  1  0
 30 22  1  0
 46 31  1  0
 18  9  1  0
 29 24  1  0
 43 37  1  0
  1 47  1  0
  1 48  1  0
  1 49  1  0
  3 50  1  0
  4 51  1  0
  6 52  1  0
 10 53  1  0
 11 54  1  0
 12 55  1  0
 18 56  1  0
 19 57  1  0
 21 58  1  0
 25 59  1  0
 26 60  1  0
 27 61  1  0
 28 62  1  0
 32 63  1  0
 34 64  1  0
 35 65  1  0
 35 66  1  0
 36 67  1  0
 36 68  1  0
 37 69  1  0
 38 70  1  0
 38 71  1  0
 39 72  1  0
 39 73  1  0
 40 74  1  0
 41 75  1  0
 41 76  1  0
 41 77  1  0
 42 78  1  0
 42 79  1  0
 43 80  1  0
 43 81  1  0
 45 82  1  0
M  CHG  2  37   1  40   1
M  END
>  <meeko>  (8) 
{"is_sidechain": [false], "free_energy": -9.051, "intermolecular_energy": -14.576, "internal_energy": -2.331}

$$$$
LIB_DUSWCXDALWVDSK__M_PUB_ALL__e8__s20260927
     RDKit          3D

 82 87  0  0  0  0  0  0  0  0999 V2000
    5.1420  -12.7930   -5.2710 C   0  0  0  0  0  0  0  0  0  0  0  0
    4.1490  -12.5160   -4.1720 C   0  0  0  0  0  0  0  0  0  0  0  0
    2.8870  -13.1300   -4.2260 C   0  0  0  0  0  0  0  0  0  0  0  0
    1.9490  -12.9250   -3.2130 C   0  0  0  0  0  0  0  0  0  0  0  0
    2.2400  -12.0600   -2.1620 C   0  0  0  0  0  0  0  0  0  0  0  0
    1.3430  -11.8140   -1.1040 N   0  0  0  0  0  0  0  0  0  0  0  0
    0.7330  -10.6070   -0.8300 C   0  0  0  0  0  0  0  0  0  0  0  0
    0.7180   -9.6200   -1.5650 O   0  0  0  0  0  0  0  0  0  0  0  0
   -0.0610  -10.5670    0.4230 C   0  0  0  0  0  0  0  0  0  0  0  0
   -0.1440   -9.3590    1.1220 C   0  0  0  0  0  0  0  0  0  0  0  0
   -0.9060   -9.2810    2.2870 C   0  0  0  0  0  0  0  0  0  0  0  0
   -1.5960  -10.4030    2.7500 C   0  0  0  0  0  0  0  0  0  0  0  0
   -1.5320  -11.6190    2.0530 C   0  0  0  0  0  0  0  0  0  0  0  0
   -2.3060  -12.8310    2.5200 C   0  0  0  0  0  0  0  0  0  0  0  0
   -1.7180  -13.4310    3.5900 F   0  0  0  0  0  0  0  0  0  0  0  0
   -3.5880  -12.5660    2.8760 F   0  0  0  0  0  0  0  0  0  0  0  0
   -2.3650  -13.7810    1.5450 F   0  0  0  0  0  0  0  0  0  0  0  0
   -0.7590  -11.6930    0.8800 C   0  0  0  0  0  0  0  0  0  0  0  0
    3.4650  -11.3880   -2.1430 C   0  0  0  0  0  0  0  0  0  0  0  0
    4.4560  -11.6400   -3.1080 C   0  0  0  0  0  0  0  0  0  0  0  0
    5.7610  -11.1060   -2.9970 N   0  0  0  0  0  0  0  0  0  0  0  0
    6.9280  -11.7380   -2.7060 C   0  0  0  0  0  0  0  0  0  0  0  0
    7.9920  -11.6200   -3.4630 N   0  0  0  0  0  0  0  0  0  0  0  0
    9.0220  -12.1640   -2.7480 C   0  0  0  0  0  0  0  0  0  0  0  0
   10.3860  -12.2110   -3.0700 C   0  0  0  0  0  0  0  0  0  0  0  0
   11.2730  -12.8150   -2.1730 C   0  0  0  0  0  0  0  0  0  0  0  0
   10.8080  -13.3700   -0.9820 C   0  0  0  0  0  0  0  0  0  0  0  0
    9.4480  -13.3410   -0.6510 C   0  0  0  0  0  0  0  0  0  0  0  0
    8.5680  -12.7180   -1.5530 C   0  0  0  0  0  0  0  0  0  0  0  0
    7.1850  -12.5580   -1.6010 N   0  0  0  0  0  0  0  0  0  0  0  0
    6.2540  -13.1420   -0.6880 C   0  0  0  0  0  0  0  0  0  0  0  0
    5.8990  -14.4720   -0.8060 C   0  0  0  0  0  0  0  0  0  0  0  0
    4.9280  -14.9330    0.0600 C   0  0  0  0  0  0  0  0  0  0  0  0
    4.4550  -16.2380   -0.0040 N   0  0  0  0  0  0  0  0  0  0  0  0
    3.6490  -16.5970   -1.1740 C   0  0  0  0  0  0  0  0  0  0  0  0
    2.7590  -17.8360   -0.9100 C   0  0  0  0  0  0  0  0  0  0  0  0
    1.3290  -17.4150   -0.5690 N   0  0  0  0  0  0  0  0  0  0  0  0
    0.9020  -17.8190    0.8250 C   0  0  0  0  0  0  0  0  0  0  0  0
    1.4440  -16.8570    1.9080 C   0  0  0  0  0  0  0  0  0  0  0  0
    1.4420  -15.3900    1.4500 N   0  0  0  0  0  0  0  0  0  0  0  0
    1.1550  -14.4480    2.5950 C   0  0  0  0  0  0  0  0  0  0  0  0
    0.5360  -15.1310    0.2520 C   0  0  0  0  0  0  0  0  0  0  0  0
    0.9450  -16.0030   -0.9640 C   0  0  0  0  0  0  0  0  0  0  0  0
    4.3260  -14.1510    0.9740 N   0  0  0  0  0  0  0  0  0  0  0  0
    4.8140  -12.9040    1.0760 C   0  0  0  0  0  0  0  0  0  0  0  0
    5.7330  -12.3550    0.2800 N   0  0  0  0  0  0  0  0  0  0  0  0
    6.1122  -13.0636   -4.8289 H   0  0  0  0  0  0  0  0  0  0  0  0
    4.7780  -13.6239   -5.8932 H   0  0  0  0  0  0  0  0  0  0  0  0
    5.2607  -11.8937   -5.8932 H   0  0  0  0  0  0  0  0  0  0  0  0
    2.6349  -13.7801   -5.0767 H   0  0  0  0  0  0  0  0  0  0  0  0
    0.9809  -13.4464   -3.2452 H   0  0  0  0  0  0  0  0  0  0  0  0
    1.1240  -12.6150   -0.5200 H   0  0  0  0  0  0  0  0  0  0  0  0
    0.3911   -8.4714    0.7534 H   0  0  0  0  0  0  0  0  0  0  0  0
   -0.9637   -8.3334    2.8426 H   0  0  0  0  0  0  0  0  0  0  0  0
   -2.1953  -10.3330    3.6697 H   0  0  0  0  0  0  0  0  0  0  0  0
   -0.7022  -12.6379    0.3196 H   0  0  0  0  0  0  0  0  0  0  0  0
    3.6584  -10.6450   -1.3552 H   0  0  0  0  0  0  0  0  0  0  0  0
    5.7560  -10.1220   -2.7300 H   0  0  0  0  0  0  0  0  0  0  0  0
   10.7526  -11.7796   -4.0132 H   0  0  0  0  0  0  0  0  0  0  0  0
   12.3466  -12.8523   -2.4095 H   0  0  0  0  0  0  0  0  0  0  0  0
   11.5225  -13.8392   -0.2897 H   0  0  0  0  0  0  0  0  0  0  0  0
    9.0805  -13.7905    0.2833 H   0  0  0  0  0  0  0  0  0  0  0  0
    6.3667  -15.1306   -1.5527 H   0  0  0  0  0  0  0  0  0  0  0  0
    5.1850  -16.9170    0.2280 H   0  0  0  0  0  0  0  0  0  0  0  0
    3.0033  -15.7455   -1.4347 H   0  0  0  0  0  0  0  0  0  0  0  0
    4.3367  -16.8429   -1.9966 H   0  0  0  0  0  0  0  0  0  0  0  0
    2.7439  -18.4676   -1.8105 H   0  0  0  0  0  0  0  0  0  0  0  0
    3.1749  -18.3937   -0.0579 H   0  0  0  0  0  0  0  0  0  0  0  0
    0.7910  -18.0500   -1.2080 H   0  0  0  0  0  0  0  0  0  0  0  0
   -0.1970  -17.8206    0.8716 H   0  0  0  0  0  0  0  0  0  0  0  0
    1.3147  -18.8186    1.0264 H   0  0  0  0  0  0  0  0  0  0  0  0
    0.8146  -16.9467    2.8057 H   0  0  0  0  0  0  0  0  0  0  0  0
    2.4868  -17.1404    2.1136 H   0  0  0  0  0  0  0  0  0  0  0  0
    2.4070  -15.1720    1.1630 H   0  0  0  0  0  0  0  0  0  0  0  0
    1.3145  -14.9714    3.5492 H   0  0  0  0  0  0  0  0  0  0  0  0
    1.8299  -13.5815    2.5349 H   0  0  0  0  0  0  0  0  0  0  0  0
    0.1116  -14.1050    2.5349 H   0  0  0  0  0  0  0  0  0  0  0  0
   -0.5016  -15.3679    0.5298 H   0  0  0  0  0  0  0  0  0  0  0  0
    0.6312  -14.0727   -0.0325 H   0  0  0  0  0  0  0  0  0  0  0  0
    0.0972  -16.0515   -1.6632 H   0  0  0  0  0  0  0  0  0  0  0  0
    1.8273  -15.5358   -1.4259 H   0  0  0  0  0  0  0  0  0  0  0  0
    4.4199  -12.2782    1.8903 H   0  0  0  0  0  0  0  0  0  0  0  0
  1  2  1  0
  2  3  2  0
  3  4  1  0
  4  5  2  0
  5  6  1  0
  6  7  1  0
  7  8  2  0
  7  9  1  0
  9 10  2  0
 10 11  1  0
 11 12  2  0
 12 13  1  0
 13 14  1  0
 14 15  1  0
 14 16  1  0
 14 17  1  0
 13 18  2  0
  5 19  1  0
 19 20  2  0
 20 21  1  0
 21 22  1  0
 22 23  2  0
 23 24  1  0
 24 25  2  0
 25 26  1  0
 26 27  2  0
 27 28  1  0
 28 29  2  0
 29 30  1  0
 30 31  1  0
 31 32  2  0
 32 33  1  0
 33 34  1  0
 34 35  1  0
 35 36  1  0
 36 37  1  0
 37 38  1  0
 38 39  1  0
 39 40  1  0
 40 41  1  0
 40 42  1  0
 42 43  1  0
 33 44  2  0
 44 45  1  0
 45 46  2  0
 20  2  1  0
 30 22  1  0
 46 31  1  0
 18  9  1  0
 29 24  1  0
 43 37  1  0
  1 47  1  0
  1 48  1  0
  1 49  1  0
  3 50  1  0
  4 51  1  0
  6 52  1  0
 10 53  1  0
 11 54  1  0
 12 55  1  0
 18 56  1  0
 19 57  1  0
 21 58  1  0
 25 59  1  0
 26 60  1  0
 27 61  1  0
 28 62  1  0
 32 63  1  0
 34 64  1  0
 35 65  1  0
 35 66  1  0
 36 67  1  0
 36 68  1  0
 37 69  1  0
 38 70  1  0
 38 71  1  0
 39 72  1  0
 39 73  1  0
 40 74  1  0
 41 75  1  0
 41 76  1  0
 41 77  1  0
 42 78  1  0
 42 79  1  0
 43 80  1  0
 43 81  1  0
 45 82  1  0
M  CHG  2  37   1  40   1
M  END
>  <meeko>  (9) 
{"is_sidechain": [false], "free_energy": -8.975, "intermolecular_energy": -13.271, "internal_energy": -3.515}

$$$$
