LIB_PKEOFNLYKBPOQT__M_PUB_ALL__e8__s20260927
     RDKit          3D

 56 59  0  0  0  0  0  0  0  0999 V2000
    7.9820  -12.6320  -11.3090 C   0  0  0  0  0  0  0  0  0  0  0  0
    9.0140  -11.5600  -11.4290 C   0  0  0  0  0  0  0  0  0  0  0  0
    8.6840  -10.3130  -11.9140 C   0  0  0  0  0  0  0  0  0  0  0  0
    9.5580   -9.2990  -12.0450 N   0  0  0  0  0  0  0  0  0  0  0  0
   10.8240   -9.5250  -11.6810 C   0  0  0  0  0  0  0  0  0  0  0  0
   11.8090   -8.5480  -11.7710 N   0  0  0  0  0  0  0  0  0  0  0  0
   11.7980   -7.1730  -12.0260 C   0  0  0  0  0  0  0  0  0  0  0  0
   11.2850   -6.3120  -11.0490 C   0  0  0  0  0  0  0  0  0  0  0  0
   11.2460   -4.9210  -11.2410 C   0  0  0  0  0  0  0  0  0  0  0  0
   11.7260   -4.3270  -12.4140 C   0  0  0  0  0  0  0  0  0  0  0  0
   11.6950   -2.9540  -12.6290 N   0  0  0  0  0  0  0  0  0  0  0  0
   11.5500   -2.4720  -14.0180 C   0  0  0  0  0  0  0  0  0  0  0  0
   11.0650   -1.0150  -14.0340 C   0  0  0  0  0  0  0  0  0  0  0  0
   11.9080   -0.1610  -13.2450 O   0  0  0  0  0  0  0  0  0  0  0  0
   11.9080   -0.6080  -11.8800 C   0  0  0  0  0  0  0  0  0  0  0  0
   12.4470   -2.0410  -11.7520 C   0  0  0  0  0  0  0  0  0  0  0  0
   12.2260   -5.1980  -13.3900 C   0  0  0  0  0  0  0  0  0  0  0  0
   12.2650   -6.5900  -13.2000 C   0  0  0  0  0  0  0  0  0  0  0  0
   11.2470  -10.7060  -11.2060 N   0  0  0  0  0  0  0  0  0  0  0  0
   10.3510  -11.7150  -11.1000 C   0  0  0  0  0  0  0  0  0  0  0  0
   10.9280  -12.9680  -10.5890 C   0  0  0  0  0  0  0  0  0  0  0  0
   10.8600  -13.2750   -9.2180 C   0  0  0  0  0  0  0  0  0  0  0  0
   11.4060  -14.4600   -8.7110 C   0  0  0  0  0  0  0  0  0  0  0  0
   12.0460  -15.3560   -9.5720 C   0  0  0  0  0  0  0  0  0  0  0  0
   12.6410  -16.6320   -9.0870 C   0  0  0  0  0  0  0  0  0  0  0  0
   12.7770  -16.8340   -7.8860 O   0  0  0  0  0  0  0  0  0  0  0  0
   12.9910  -17.5540  -10.0470 N   0  0  0  0  0  0  0  0  0  0  0  0
   13.5330  -18.8480   -9.6760 C   0  0  0  0  0  0  0  0  0  0  0  0
   14.9030  -19.0350  -10.1840 C   0  0  0  0  0  0  0  0  0  0  0  0
   15.9970  -19.1650  -10.5520 N   0  0  0  0  0  0  0  0  0  0  0  0
   12.1210  -15.0680  -10.9380 C   0  0  0  0  0  0  0  0  0  0  0  0
   11.5750  -13.8810  -11.4390 C   0  0  0  0  0  0  0  0  0  0  0  0
    7.7863  -12.8352  -10.2458 H   0  0  0  0  0  0  0  0  0  0  0  0
    7.0526  -12.3024  -11.7964 H   0  0  0  0  0  0  0  0  0  0  0  0
    8.3467  -13.5482  -11.7964 H   0  0  0  0  0  0  0  0  0  0  0  0
    7.6403  -10.1358  -12.2128 H   0  0  0  0  0  0  0  0  0  0  0  0
   12.7090   -8.9780  -11.6200 H   0  0  0  0  0  0  0  0  0  0  0  0
   10.9031   -6.7348  -10.1080 H   0  0  0  0  0  0  0  0  0  0  0  0
   10.8275   -4.2822  -10.4493 H   0  0  0  0  0  0  0  0  0  0  0  0
   12.5234   -2.5351  -14.5265 H   0  0  0  0  0  0  0  0  0  0  0  0
   10.8098   -3.0990  -14.5366 H   0  0  0  0  0  0  0  0  0  0  0  0
   11.0635   -0.6521  -15.0724 H   0  0  0  0  0  0  0  0  0  0  0  0
   10.0534   -0.9878  -13.6029 H   0  0  0  0  0  0  0  0  0  0  0  0
   12.5413    0.0657  -11.2841 H   0  0  0  0  0  0  0  0  0  0  0  0
   10.8702   -0.5979  -11.5156 H   0  0  0  0  0  0  0  0  0  0  0  0
   13.5088   -2.0556  -12.0391 H   0  0  0  0  0  0  0  0  0  0  0  0
   12.3320   -2.3730  -10.7096 H   0  0  0  0  0  0  0  0  0  0  0  0
   12.6003   -4.7792  -14.3358 H   0  0  0  0  0  0  0  0  0  0  0  0
   12.6728   -7.2314  -13.9952 H   0  0  0  0  0  0  0  0  0  0  0  0
   10.3684  -12.5704   -8.5311 H   0  0  0  0  0  0  0  0  0  0  0  0
   11.3315  -14.6857   -7.6370 H   0  0  0  0  0  0  0  0  0  0  0  0
   12.7440  -17.3990  -11.0140 H   0  0  0  0  0  0  0  0  0  0  0  0
   13.5465  -18.9268   -8.5789 H   0  0  0  0  0  0  0  0  0  0  0  0
   12.8949  -19.6256  -10.1212 H   0  0  0  0  0  0  0  0  0  0  0  0
   12.6110  -15.7771  -11.6214 H   0  0  0  0  0  0  0  0  0  0  0  0
   11.6534  -13.6594  -12.5136 H   0  0  0  0  0  0  0  0  0  0  0  0
  1  2  1  0
  2  3  2  0
  3  4  1  0
  4  5  2  0
  5  6  1  0
  6  7  1  0
  7  8  2  0
  8  9  1  0
  9 10  2  0
 10 11  1  0
 11 12  1  0
 12 13  1  0
 13 14  1  0
 14 15  1  0
 15 16  1  0
 10 17  1  0
 17 18  2  0
  5 19  1  0
 19 20  2  0
 20 21  1  0
 21 22  2  0
 22 23  1  0
 23 24  2  0
 24 25  1  0
 25 26  2  0
 25 27  1  0
 27 28  1  0
 28 29  1  0
 29 30  3  0
 24 31  1  0
 31 32  2  0
 20  2  1  0
 32 21  1  0
 18  7  1  0
 16 11  1  0
  1 33  1  0
  1 34  1  0
  1 35  1  0
  3 36  1  0
  6 37  1  0
  8 38  1  0
  9 39  1  0
 12 40  1  0
 12 41  1  0
 13 42  1  0
 13 43  1  0
 15 44  1  0
 15 45  1  0
 16 46  1  0
 16 47  1  0
 17 48  1  0
 18 49  1  0
 22 50  1  0
 23 51  1  0
 27 52  1  0
 28 53  1  0
 28 54  1  0
 31 55  1  0
 32 56  1  0
M  END
>  <meeko>  (1) 
{"is_sidechain": [false], "free_energy": -8.184, "intermolecular_energy": -11.054, "internal_energy": -0.926}

$$$$
LIB_PKEOFNLYKBPOQT__M_PUB_ALL__e8__s20260927
     RDKit          3D

 56 59  0  0  0  0  0  0  0  0999 V2000
   13.4810  -11.0790   -0.5750 C   0  0  0  0  0  0  0  0  0  0  0  0
   12.0990  -11.5030   -0.2020 C   0  0  0  0  0  0  0  0  0  0  0  0
   11.4690  -10.9690    0.9000 C   0  0  0  0  0  0  0  0  0  0  0  0
   10.2250  -11.2980    1.2930 N   0  0  0  0  0  0  0  0  0  0  0  0
    9.5680  -12.2040    0.5610 C   0  0  0  0  0  0  0  0  0  0  0  0
    8.2770  -12.6160    0.8750 N   0  0  0  0  0  0  0  0  0  0  0  0
    7.1310  -12.8860    0.1220 C   0  0  0  0  0  0  0  0  0  0  0  0
    6.4450  -11.8170   -0.4670 C   0  0  0  0  0  0  0  0  0  0  0  0
    5.2880  -12.0200   -1.2360 C   0  0  0  0  0  0  0  0  0  0  0  0
    4.7680  -13.3000   -1.4610 C   0  0  0  0  0  0  0  0  0  0  0  0
    3.6230  -13.5260   -2.2150 N   0  0  0  0  0  0  0  0  0  0  0  0
    2.8920  -14.7920   -2.0060 C   0  0  0  0  0  0  0  0  0  0  0  0
    1.4540  -14.6780   -2.5330 C   0  0  0  0  0  0  0  0  0  0  0  0
    1.4190  -14.2470   -3.9030 O   0  0  0  0  0  0  0  0  0  0  0  0
    2.0340  -12.9550   -4.0200 C   0  0  0  0  0  0  0  0  0  0  0  0
    3.5050  -12.9830   -3.5780 C   0  0  0  0  0  0  0  0  0  0  0  0
    5.4550  -14.3610   -0.8570 C   0  0  0  0  0  0  0  0  0  0  0  0
    6.6120  -14.1610   -0.0860 C   0  0  0  0  0  0  0  0  0  0  0  0
   10.0970  -12.7890   -0.5240 N   0  0  0  0  0  0  0  0  0  0  0  0
   11.3560  -12.4510   -0.8870 C   0  0  0  0  0  0  0  0  0  0  0  0
   11.8410  -13.1690   -2.0770 C   0  0  0  0  0  0  0  0  0  0  0  0
   12.3190  -14.4870   -1.9640 C   0  0  0  0  0  0  0  0  0  0  0  0
   12.7880  -15.1860   -3.0830 C   0  0  0  0  0  0  0  0  0  0  0  0
   12.7990  -14.5690   -4.3370 C   0  0  0  0  0  0  0  0  0  0  0  0
   13.2820  -15.2670   -5.5590 C   0  0  0  0  0  0  0  0  0  0  0  0
   13.4430  -16.4820   -5.5550 O   0  0  0  0  0  0  0  0  0  0  0  0
   13.5010  -14.4860   -6.6710 N   0  0  0  0  0  0  0  0  0  0  0  0
   13.9260  -15.0770   -7.9270 C   0  0  0  0  0  0  0  0  0  0  0  0
   15.3530  -15.4440   -7.9060 C   0  0  0  0  0  0  0  0  0  0  0  0
   16.4670  -15.7690   -7.8740 N   0  0  0  0  0  0  0  0  0  0  0  0
   12.3230  -13.2600   -4.4660 C   0  0  0  0  0  0  0  0  0  0  0  0
   11.8580  -12.5650   -3.3450 C   0  0  0  0  0  0  0  0  0  0  0  0
   14.0681  -10.8989    0.3376 H   0  0  0  0  0  0  0  0  0  0  0  0
   13.9600  -11.8715   -1.1687 H   0  0  0  0  0  0  0  0  0  0  0  0
   13.4331  -10.1542   -1.1687 H   0  0  0  0  0  0  0  0  0  0  0  0
   12.0179  -10.2260    1.4971 H   0  0  0  0  0  0  0  0  0  0  0  0
    8.2030  -12.7210    1.8750 H   0  0  0  0  0  0  0  0  0  0  0  0
    6.8216  -10.7934   -0.3238 H   0  0  0  0  0  0  0  0  0  0  0  0
    4.7765  -11.1499   -1.6734 H   0  0  0  0  0  0  0  0  0  0  0  0
    3.4102  -15.6014   -2.5410 H   0  0  0  0  0  0  0  0  0  0  0  0
    2.8590  -15.0092   -0.9282 H   0  0  0  0  0  0  0  0  0  0  0  0
    0.9682  -15.6620   -2.4571 H   0  0  0  0  0  0  0  0  0  0  0  0
    0.9264  -13.9278   -1.9256 H   0  0  0  0  0  0  0  0  0  0  0  0
    1.9834  -12.6300   -5.0697 H   0  0  0  0  0  0  0  0  0  0  0  0
    1.4925  -12.2572   -3.3644 H   0  0  0  0  0  0  0  0  0  0  0  0
    4.0793  -13.6157   -4.2708 H   0  0  0  0  0  0  0  0  0  0  0  0
    3.8991  -11.9561   -3.5874 H   0  0  0  0  0  0  0  0  0  0  0  0
    5.0758  -15.3848   -0.9910 H   0  0  0  0  0  0  0  0  0  0  0  0
    7.1179  -15.0288    0.3622 H   0  0  0  0  0  0  0  0  0  0  0  0
   12.3245  -14.9772   -0.9793 H   0  0  0  0  0  0  0  0  0  0  0  0
   13.1475  -16.2200   -2.9752 H   0  0  0  0  0  0  0  0  0  0  0  0
   13.2330  -13.5120   -6.6690 H   0  0  0  0  0  0  0  0  0  0  0  0
   13.3288  -15.9815   -8.1146 H   0  0  0  0  0  0  0  0  0  0  0  0
   13.7771  -14.3318   -8.7223 H   0  0  0  0  0  0  0  0  0  0  0  0
   12.3144  -12.7752   -5.4534 H   0  0  0  0  0  0  0  0  0  0  0  0
   11.5006  -11.5308   -3.4579 H   0  0  0  0  0  0  0  0  0  0  0  0
  1  2  1  0
  2  3  2  0
  3  4  1  0
  4  5  2  0
  5  6  1  0
  6  7  1  0
  7  8  2  0
  8  9  1  0
  9 10  2  0
 10 11  1  0
 11 12  1  0
 12 13  1  0
 13 14  1  0
 14 15  1  0
 15 16  1  0
 10 17  1  0
 17 18  2  0
  5 19  1  0
 19 20  2  0
 20 21  1  0
 21 22  2  0
 22 23  1  0
 23 24  2  0
 24 25  1  0
 25 26  2  0
 25 27  1  0
 27 28  1  0
 28 29  1  0
 29 30  3  0
 24 31  1  0
 31 32  2  0
 20  2  1  0
 32 21  1  0
 18  7  1  0
 16 11  1  0
  1 33  1  0
  1 34  1  0
  1 35  1  0
  3 36  1  0
  6 37  1  0
  8 38  1  0
  9 39  1  0
 12 40  1  0
 12 41  1  0
 13 42  1  0
 13 43  1  0
 15 44  1  0
 15 45  1  0
 16 46  1  0
 16 47  1  0
 17 48  1  0
 18 49  1  0
 22 50  1  0
 23 51  1  0
 27 52  1  0
 28 53  1  0
 28 54  1  0
 31 55  1  0
 32 56  1  0
M  END
>  <meeko>  (2) 
{"is_sidechain": [false], "free_energy": -7.766, "intermolecular_energy": -10.492, "internal_energy": -0.923}

$$$$
LIB_PKEOFNLYKBPOQT__M_PUB_ALL__e8__s20260927
     RDKit          3D

 56 59  0  0  0  0  0  0  0  0999 V2000
    1.2060  -14.0220   -2.8730 C   0  0  0  0  0  0  0  0  0  0  0  0
    2.5610  -13.5330   -2.4770 C   0  0  0  0  0  0  0  0  0  0  0  0
    3.6940  -14.0220   -3.0880 C   0  0  0  0  0  0  0  0  0  0  0  0
    4.9440  -13.6260   -2.7880 N   0  0  0  0  0  0  0  0  0  0  0  0
    5.0850  -12.7000   -1.8340 C   0  0  0  0  0  0  0  0  0  0  0  0
    6.3300  -12.2160   -1.4460 N   0  0  0  0  0  0  0  0  0  0  0  0
    7.6200  -12.3130   -1.9730 C   0  0  0  0  0  0  0  0  0  0  0  0
    8.5320  -13.1850   -1.3660 C   0  0  0  0  0  0  0  0  0  0  0  0
    9.8430  -13.3310   -1.8460 C   0  0  0  0  0  0  0  0  0  0  0  0
   10.3010  -12.6200   -2.9620 C   0  0  0  0  0  0  0  0  0  0  0  0
   11.5950  -12.7450   -3.4540 N   0  0  0  0  0  0  0  0  0  0  0  0
   11.9090  -13.9180   -4.2940 C   0  0  0  0  0  0  0  0  0  0  0  0
   13.1790  -13.6650   -5.1190 C   0  0  0  0  0  0  0  0  0  0  0  0
   14.2860  -13.2750   -4.2910 O   0  0  0  0  0  0  0  0  0  0  0  0
   13.9660  -12.0600   -3.5950 C   0  0  0  0  0  0  0  0  0  0  0  0
   12.7410  -12.2330   -2.6840 C   0  0  0  0  0  0  0  0  0  0  0  0
    9.3850  -11.7420   -3.5550 C   0  0  0  0  0  0  0  0  0  0  0  0
    8.0730  -11.5930   -3.0750 C   0  0  0  0  0  0  0  0  0  0  0  0
    4.0440  -12.1680   -1.1740 N   0  0  0  0  0  0  0  0  0  0  0  0
    2.7990  -12.5970   -1.4840 C   0  0  0  0  0  0  0  0  0  0  0  0
    1.7390  -11.9620   -0.6850 C   0  0  0  0  0  0  0  0  0  0  0  0
    1.2420  -10.6960   -1.0410 C   0  0  0  0  0  0  0  0  0  0  0  0
    0.2370  -10.0730   -0.2920 C   0  0  0  0  0  0  0  0  0  0  0  0
   -0.2810  -10.7070    0.8410 C   0  0  0  0  0  0  0  0  0  0  0  0
   -1.3530  -10.0930    1.6720 C   0  0  0  0  0  0  0  0  0  0  0  0
   -2.5300  -10.3580    1.4560 O   0  0  0  0  0  0  0  0  0  0  0  0
   -0.9460   -9.2570    2.6860 N   0  0  0  0  0  0  0  0  0  0  0  0
   -1.9110   -8.6470    3.5830 C   0  0  0  0  0  0  0  0  0  0  0  0
   -1.4730   -8.7160    4.9880 C   0  0  0  0  0  0  0  0  0  0  0  0
   -1.1090   -8.7350    6.0910 N   0  0  0  0  0  0  0  0  0  0  0  0
    0.2000  -11.9680    1.2080 C   0  0  0  0  0  0  0  0  0  0  0  0
    1.2070  -12.5840    0.4570 C   0  0  0  0  0  0  0  0  0  0  0  0
    0.6149  -14.2353   -1.9702 H   0  0  0  0  0  0  0  0  0  0  0  0
    0.6978  -13.2505   -3.4702 H   0  0  0  0  0  0  0  0  0  0  0  0
    1.3076  -14.9402   -3.4702 H   0  0  0  0  0  0  0  0  0  0  0  0
    3.5690  -14.7846   -3.8708 H   0  0  0  0  0  0  0  0  0  0  0  0
    6.2230  -11.6940   -0.5890 H   0  0  0  0  0  0  0  0  0  0  0  0
    8.2131  -13.7704   -0.4910 H   0  0  0  0  0  0  0  0  0  0  0  0
   10.5280  -14.0216   -1.3323 H   0  0  0  0  0  0  0  0  0  0  0  0
   12.0658  -14.7943   -3.6478 H   0  0  0  0  0  0  0  0  0  0  0  0
   11.0690  -14.0984   -4.9809 H   0  0  0  0  0  0  0  0  0  0  0  0
   13.4441  -14.5877   -5.6559 H   0  0  0  0  0  0  0  0  0  0  0  0
   12.9719  -12.8437   -5.8209 H   0  0  0  0  0  0  0  0  0  0  0  0
   14.8286  -11.7636   -2.9801 H   0  0  0  0  0  0  0  0  0  0  0  0
   13.7312  -11.2881   -4.3427 H   0  0  0  0  0  0  0  0  0  0  0  0
   12.9845  -12.9441   -1.8809 H   0  0  0  0  0  0  0  0  0  0  0  0
   12.4744  -11.2553   -2.2562 H   0  0  0  0  0  0  0  0  0  0  0  0
    9.7033  -11.1495   -4.4254 H   0  0  0  0  0  0  0  0  0  0  0  0
    7.3903  -10.8937   -3.5799 H   0  0  0  0  0  0  0  0  0  0  0  0
    1.6508  -10.1852   -1.9253 H   0  0  0  0  0  0  0  0  0  0  0  0
   -0.1444   -9.0865   -0.5943 H   0  0  0  0  0  0  0  0  0  0  0  0
    0.0350   -9.1680    2.9090 H   0  0  0  0  0  0  0  0  0  0  0  0
   -2.0404   -7.5914    3.3020 H   0  0  0  0  0  0  0  0  0  0  0  0
   -2.8579   -9.1995    3.4929 H   0  0  0  0  0  0  0  0  0  0  0  0
   -0.2149  -12.4773    2.0903 H   0  0  0  0  0  0  0  0  0  0  0  0
    1.5875  -13.5691    0.7649 H   0  0  0  0  0  0  0  0  0  0  0  0
  1  2  1  0
  2  3  2  0
  3  4  1  0
  4  5  2  0
  5  6  1  0
  6  7  1  0
  7  8  2  0
  8  9  1  0
  9 10  2  0
 10 11  1  0
 11 12  1  0
 12 13  1  0
 13 14  1  0
 14 15  1  0
 15 16  1  0
 10 17  1  0
 17 18  2  0
  5 19  1  0
 19 20  2  0
 20 21  1  0
 21 22  2  0
 22 23  1  0
 23 24  2  0
 24 25  1  0
 25 26  2  0
 25 27  1  0
 27 28  1  0
 28 29  1  0
 29 30  3  0
 24 31  1  0
 31 32  2  0
 20  2  1  0
 32 21  1  0
 18  7  1  0
 16 11  1  0
  1 33  1  0
  1 34  1  0
  1 35  1  0
  3 36  1  0
  6 37  1  0
  8 38  1  0
  9 39  1  0
 12 40  1  0
 12 41  1  0
 13 42  1  0
 13 43  1  0
 15 44  1  0
 15 45  1  0
 16 46  1  0
 16 47  1  0
 17 48  1  0
 18 49  1  0
 22 50  1  0
 23 51  1  0
 27 52  1  0
 28 53  1  0
 28 54  1  0
 31 55  1  0
 32 56  1  0
M  END
>  <meeko>  (3) 
{"is_sidechain": [false], "free_energy": -7.751, "intermolecular_energy": -10.511, "internal_energy": -0.885}

$$$$
LIB_PKEOFNLYKBPOQT__M_PUB_ALL__e8__s20260927
     RDKit          3D

 56 59  0  0  0  0  0  0  0  0999 V2000
   10.0660  -13.6160   11.8390 C   0  0  0  0  0  0  0  0  0  0  0  0
   11.1910  -14.5540   12.1320 C   0  0  0  0  0  0  0  0  0  0  0  0
   10.9870  -15.9160   12.1550 C   0  0  0  0  0  0  0  0  0  0  0  0
   11.9510  -16.8200   12.4060 N   0  0  0  0  0  0  0  0  0  0  0  0
   13.1810  -16.3570   12.6490 C   0  0  0  0  0  0  0  0  0  0  0  0
   14.2530  -17.2010   12.9180 N   0  0  0  0  0  0  0  0  0  0  0  0
   15.2600  -17.7770   12.1380 C   0  0  0  0  0  0  0  0  0  0  0  0
   14.8990  -18.6880   11.1380 C   0  0  0  0  0  0  0  0  0  0  0  0
   15.8620  -19.3000   10.3190 C   0  0  0  0  0  0  0  0  0  0  0  0
   17.2260  -19.0230   10.4530 C   0  0  0  0  0  0  0  0  0  0  0  0
   18.1980  -19.6190    9.6570 N   0  0  0  0  0  0  0  0  0  0  0  0
   19.5820  -19.1130    9.7560 C   0  0  0  0  0  0  0  0  0  0  0  0
   20.5740  -20.1490    9.2040 C   0  0  0  0  0  0  0  0  0  0  0  0
   20.2350  -20.5560    7.8690 O   0  0  0  0  0  0  0  0  0  0  0  0
   18.9280  -21.1520    7.8620 C   0  0  0  0  0  0  0  0  0  0  0  0
   17.8500  -20.1650    8.3350 C   0  0  0  0  0  0  0  0  0  0  0  0
   17.5780  -18.1190   11.4640 C   0  0  0  0  0  0  0  0  0  0  0  0
   16.6170  -17.5060   12.2870 C   0  0  0  0  0  0  0  0  0  0  0  0
   13.4800  -15.0490   12.6580 N   0  0  0  0  0  0  0  0  0  0  0  0
   12.4880  -14.1600   12.4190 C   0  0  0  0  0  0  0  0  0  0  0  0
   12.9250  -12.7560   12.4750 C   0  0  0  0  0  0  0  0  0  0  0  0
   13.7420  -12.2260   11.4610 C   0  0  0  0  0  0  0  0  0  0  0  0
   14.1710  -10.8940   11.4980 C   0  0  0  0  0  0  0  0  0  0  0  0
   13.7990  -10.0710   12.5640 C   0  0  0  0  0  0  0  0  0  0  0  0
   14.2230   -8.6470   12.6510 C   0  0  0  0  0  0  0  0  0  0  0  0
   14.3320   -8.1000   13.7420 O   0  0  0  0  0  0  0  0  0  0  0  0
   14.5060   -8.0120   11.4630 N   0  0  0  0  0  0  0  0  0  0  0  0
   14.9750   -6.6390   11.4430 C   0  0  0  0  0  0  0  0  0  0  0  0
   16.3860   -6.5470   11.0300 C   0  0  0  0  0  0  0  0  0  0  0  0
   17.4870   -6.4730   10.6660 N   0  0  0  0  0  0  0  0  0  0  0  0
   12.9840  -10.5820   13.5790 C   0  0  0  0  0  0  0  0  0  0  0  0
   12.5590  -11.9140   13.5390 C   0  0  0  0  0  0  0  0  0  0  0  0
    9.6336  -13.2555   12.7840 H   0  0  0  0  0  0  0  0  0  0  0  0
   10.4431  -12.7611   11.2586 H   0  0  0  0  0  0  0  0  0  0  0  0
    9.2928  -14.1407   11.2586 H   0  0  0  0  0  0  0  0  0  0  0  0
    9.9713  -16.2881   11.9554 H   0  0  0  0  0  0  0  0  0  0  0  0
   14.2540  -17.4220   13.9030 H   0  0  0  0  0  0  0  0  0  0  0  0
   13.8362  -18.9301   10.9903 H   0  0  0  0  0  0  0  0  0  0  0  0
   15.5343  -20.0166    9.5514 H   0  0  0  0  0  0  0  0  0  0  0  0
   19.6698  -18.1826    9.1758 H   0  0  0  0  0  0  0  0  0  0  0  0
   19.8170  -18.9235   10.8138 H   0  0  0  0  0  0  0  0  0  0  0  0
   21.5816  -19.7078    9.1963 H   0  0  0  0  0  0  0  0  0  0  0  0
   20.5353  -21.0373    9.8517 H   0  0  0  0  0  0  0  0  0  0  0  0
   18.6897  -21.4763    6.8382 H   0  0  0  0  0  0  0  0  0  0  0  0
   18.9375  -22.0066    8.5545 H   0  0  0  0  0  0  0  0  0  0  0  0
   17.7714  -19.3401    7.6115 H   0  0  0  0  0  0  0  0  0  0  0  0
   16.8892  -20.6953    8.4099 H   0  0  0  0  0  0  0  0  0  0  0  0
   18.6408  -17.8812   11.6188 H   0  0  0  0  0  0  0  0  0  0  0  0
   16.9438  -16.7987   13.0635 H   0  0  0  0  0  0  0  0  0  0  0  0
   14.0496  -12.8695   10.6236 H   0  0  0  0  0  0  0  0  0  0  0  0
   14.8004  -10.4957   10.6886 H   0  0  0  0  0  0  0  0  0  0  0  0
   14.5280   -8.5360   10.5990 H   0  0  0  0  0  0  0  0  0  0  0  0
   14.3593   -6.0630   10.7365 H   0  0  0  0  0  0  0  0  0  0  0  0
   14.8910   -6.2349   12.4626 H   0  0  0  0  0  0  0  0  0  0  0  0
   12.6758   -9.9336   14.4125 H   0  0  0  0  0  0  0  0  0  0  0  0
   11.9300  -12.3076   14.3510 H   0  0  0  0  0  0  0  0  0  0  0  0
  1  2  1  0
  2  3  2  0
  3  4  1  0
  4  5  2  0
  5  6  1  0
  6  7  1  0
  7  8  2  0
  8  9  1  0
  9 10  2  0
 10 11  1  0
 11 12  1  0
 12 13  1  0
 13 14  1  0
 14 15  1  0
 15 16  1  0
 10 17  1  0
 17 18  2  0
  5 19  1  0
 19 20  2  0
 20 21  1  0
 21 22  2  0
 22 23  1  0
 23 24  2  0
 24 25  1  0
 25 26  2  0
 25 27  1  0
 27 28  1  0
 28 29  1  0
 29 30  3  0
 24 31  1  0
 31 32  2  0
 20  2  1  0
 32 21  1  0
 18  7  1  0
 16 11  1  0
  1 33  1  0
  1 34  1  0
  1 35  1  0
  3 36  1  0
  6 37  1  0
  8 38  1  0
  9 39  1  0
 12 40  1  0
 12 41  1  0
 13 42  1  0
 13 43  1  0
 15 44  1  0
 15 45  1  0
 16 46  1  0
 16 47  1  0
 17 48  1  0
 18 49  1  0
 22 50  1  0
 23 51  1  0
 27 52  1  0
 28 53  1  0
 28 54  1  0
 31 55  1  0
 32 56  1  0
M  END
>  <meeko>  (4) 
{"is_sidechain": [false], "free_energy": -7.662, "intermolecular_energy": -10.332, "internal_energy": -0.943}

$$$$
LIB_PKEOFNLYKBPOQT__M_PUB_ALL__e8__s20260927
     RDKit          3D

 56 59  0  0  0  0  0  0  0  0999 V2000
   15.2150  -14.4910  -11.0270 C   0  0  0  0  0  0  0  0  0  0  0  0
   15.0510  -14.7880   -9.5730 C   0  0  0  0  0  0  0  0  0  0  0  0
   16.0770  -15.3500   -8.8460 C   0  0  0  0  0  0  0  0  0  0  0  0
   16.0040  -15.6400   -7.5350 N   0  0  0  0  0  0  0  0  0  0  0  0
   14.8570  -15.3620   -6.9060 C   0  0  0  0  0  0  0  0  0  0  0  0
   14.6720  -15.6180   -5.5520 N   0  0  0  0  0  0  0  0  0  0  0  0
   13.9040  -15.0270   -4.5440 C   0  0  0  0  0  0  0  0  0  0  0  0
   13.2850  -15.8530   -3.5980 C   0  0  0  0  0  0  0  0  0  0  0  0
   12.5010  -15.3230   -2.5610 C   0  0  0  0  0  0  0  0  0  0  0  0
   12.3070  -13.9450   -2.4150 C   0  0  0  0  0  0  0  0  0  0  0  0
   11.5330  -13.3970   -1.3990 N   0  0  0  0  0  0  0  0  0  0  0  0
   12.1320  -13.2820   -0.0530 C   0  0  0  0  0  0  0  0  0  0  0  0
   11.3600  -12.2600    0.7940 C   0  0  0  0  0  0  0  0  0  0  0  0
    9.9570  -12.5580    0.8460 O   0  0  0  0  0  0  0  0  0  0  0  0
    9.4070  -12.5320   -0.4810 C   0  0  0  0  0  0  0  0  0  0  0  0
   10.0720  -13.5750   -1.3920 C   0  0  0  0  0  0  0  0  0  0  0  0
   12.9210  -13.1290   -3.3730 C   0  0  0  0  0  0  0  0  0  0  0  0
   13.7050  -13.6560   -4.4140 C   0  0  0  0  0  0  0  0  0  0  0  0
   13.7970  -14.8230   -7.5260 N   0  0  0  0  0  0  0  0  0  0  0  0
   13.8920  -14.5560   -8.8500 C   0  0  0  0  0  0  0  0  0  0  0  0
   12.6650  -13.9880   -9.4280 C   0  0  0  0  0  0  0  0  0  0  0  0
   11.6010  -14.8280   -9.8030 C   0  0  0  0  0  0  0  0  0  0  0  0
   10.4260  -14.3070  -10.3580 C   0  0  0  0  0  0  0  0  0  0  0  0
   10.3020  -12.9300  -10.5620 C   0  0  0  0  0  0  0  0  0  0  0  0
    9.0740  -12.3220  -11.1440 C   0  0  0  0  0  0  0  0  0  0  0  0
    8.3050  -13.0030  -11.8130 O   0  0  0  0  0  0  0  0  0  0  0  0
    8.8510  -10.9940  -10.8670 N   0  0  0  0  0  0  0  0  0  0  0  0
    7.6580  -10.3200  -11.3470 C   0  0  0  0  0  0  0  0  0  0  0  0
    6.7050  -10.0480  -10.2560 C   0  0  0  0  0  0  0  0  0  0  0  0
    5.9730   -9.7980   -9.3900 N   0  0  0  0  0  0  0  0  0  0  0  0
   11.3490  -12.0800  -10.1920 C   0  0  0  0  0  0  0  0  0  0  0  0
   12.5230  -12.6060   -9.6390 C   0  0  0  0  0  0  0  0  0  0  0  0
   15.7435  -13.5339  -11.1484 H   0  0  0  0  0  0  0  0  0  0  0  0
   15.7974  -15.2943  -11.5019 H   0  0  0  0  0  0  0  0  0  0  0  0
   14.2249  -14.4260  -11.5019 H   0  0  0  0  0  0  0  0  0  0  0  0
   17.0165  -15.5761   -9.3716 H   0  0  0  0  0  0  0  0  0  0  0  0
   15.2450  -16.4060   -5.2880 H   0  0  0  0  0  0  0  0  0  0  0  0
   13.4161  -16.9429   -3.6690 H   0  0  0  0  0  0  0  0  0  0  0  0
   12.0266  -16.0093   -1.8441 H   0  0  0  0  0  0  0  0  0  0  0  0
   12.0978  -14.2630    0.4434 H   0  0  0  0  0  0  0  0  0  0  0  0
   13.1740  -12.9446   -0.1551 H   0  0  0  0  0  0  0  0  0  0  0  0
   11.7635  -12.2691    1.8173 H   0  0  0  0  0  0  0  0  0  0  0  0
   11.4811  -11.2708    0.3284 H   0  0  0  0  0  0  0  0  0  0  0  0
    8.3290  -12.7436   -0.4244 H   0  0  0  0  0  0  0  0  0  0  0  0
    9.5910  -11.5356   -0.9091 H   0  0  0  0  0  0  0  0  0  0  0  0
    9.8320  -14.5832   -1.0233 H   0  0  0  0  0  0  0  0  0  0  0  0
    9.6930  -13.4456   -2.4165 H   0  0  0  0  0  0  0  0  0  0  0  0
   12.7853  -12.0393   -3.3089 H   0  0  0  0  0  0  0  0  0  0  0  0
   14.1698  -12.9719   -5.1392 H   0  0  0  0  0  0  0  0  0  0  0  0
   11.6938  -15.9144   -9.6575 H   0  0  0  0  0  0  0  0  0  0  0  0
    9.6012  -14.9808  -10.6332 H   0  0  0  0  0  0  0  0  0  0  0  0
    9.4410  -10.5050  -10.2070 H   0  0  0  0  0  0  0  0  0  0  0  0
    7.9503   -9.3661  -11.8102 H   0  0  0  0  0  0  0  0  0  0  0  0
    7.1635  -10.9790  -12.0758 H   0  0  0  0  0  0  0  0  0  0  0  0
   11.2499  -10.9940  -10.3359 H   0  0  0  0  0  0  0  0  0  0  0  0
   13.3452  -11.9282   -9.3661 H   0  0  0  0  0  0  0  0  0  0  0  0
  1  2  1  0
  2  3  2  0
  3  4  1  0
  4  5  2  0
  5  6  1  0
  6  7  1  0
  7  8  2  0
  8  9  1  0
  9 10  2  0
 10 11  1  0
 11 12  1  0
 12 13  1  0
 13 14  1  0
 14 15  1  0
 15 16  1  0
 10 17  1  0
 17 18  2  0
  5 19  1  0
 19 20  2  0
 20 21  1  0
 21 22  2  0
 22 23  1  0
 23 24  2  0
 24 25  1  0
 25 26  2  0
 25 27  1  0
 27 28  1  0
 28 29  1  0
 29 30  3  0
 24 31  1  0
 31 32  2  0
 20  2  1  0
 32 21  1  0
 18  7  1  0
 16 11  1  0
  1 33  1  0
  1 34  1  0
  1 35  1  0
  3 36  1  0
  6 37  1  0
  8 38  1  0
  9 39  1  0
 12 40  1  0
 12 41  1  0
 13 42  1  0
 13 43  1  0
 15 44  1  0
 15 45  1  0
 16 46  1  0
 16 47  1  0
 17 48  1  0
 18 49  1  0
 22 50  1  0
 23 51  1  0
 27 52  1  0
 28 53  1  0
 28 54  1  0
 31 55  1  0
 32 56  1  0
M  END
>  <meeko>  (5) 
{"is_sidechain": [false], "free_energy": -7.658, "intermolecular_energy": -10.397, "internal_energy": -0.873}

$$$$
LIB_PKEOFNLYKBPOQT__M_PUB_ALL__e8__s20260927
     RDKit          3D

 56 59  0  0  0  0  0  0  0  0999 V2000
   13.6170  -14.3910  -12.1380 C   0  0  0  0  0  0  0  0  0  0  0  0
   13.3470  -14.7310  -10.7080 C   0  0  0  0  0  0  0  0  0  0  0  0
   13.5670  -16.0040  -10.2310 C   0  0  0  0  0  0  0  0  0  0  0  0
   13.3520  -16.3800   -8.9580 N   0  0  0  0  0  0  0  0  0  0  0  0
   12.8940  -15.4530   -8.1100 C   0  0  0  0  0  0  0  0  0  0  0  0
   12.6390  -15.7320   -6.7710 N   0  0  0  0  0  0  0  0  0  0  0  0
   12.6180  -14.9650   -5.6030 C   0  0  0  0  0  0  0  0  0  0  0  0
   11.5110  -15.0640   -4.7520 C   0  0  0  0  0  0  0  0  0  0  0  0
   11.4290  -14.3220   -3.5630 C   0  0  0  0  0  0  0  0  0  0  0  0
   12.4520  -13.4560   -3.1640 C   0  0  0  0  0  0  0  0  0  0  0  0
   12.3920  -12.7080   -1.9940 N   0  0  0  0  0  0  0  0  0  0  0  0
   11.1140  -12.6770   -1.2540 C   0  0  0  0  0  0  0  0  0  0  0  0
   11.3420  -12.2300    0.1970 C   0  0  0  0  0  0  0  0  0  0  0  0
   12.0440  -10.9790    0.2680 O   0  0  0  0  0  0  0  0  0  0  0  0
   13.3300  -11.1090   -0.3580 C   0  0  0  0  0  0  0  0  0  0  0  0
   13.2030  -11.4890   -1.8420 C   0  0  0  0  0  0  0  0  0  0  0  0
   13.5500  -13.3540   -4.0280 C   0  0  0  0  0  0  0  0  0  0  0  0
   13.6340  -14.0950   -5.2200 C   0  0  0  0  0  0  0  0  0  0  0  0
   12.6400  -14.1890   -8.4790 N   0  0  0  0  0  0  0  0  0  0  0  0
   12.8500  -13.8410   -9.7700 C   0  0  0  0  0  0  0  0  0  0  0  0
   12.5180  -12.4380  -10.0660 C   0  0  0  0  0  0  0  0  0  0  0  0
   13.3780  -11.4040   -9.6550 C   0  0  0  0  0  0  0  0  0  0  0  0
   13.0800  -10.0620   -9.9240 C   0  0  0  0  0  0  0  0  0  0  0  0
   11.9010   -9.7320  -10.5980 C   0  0  0  0  0  0  0  0  0  0  0  0
   11.5360   -8.3240  -10.9130 C   0  0  0  0  0  0  0  0  0  0  0  0
   11.0960   -7.5890  -10.0370 O   0  0  0  0  0  0  0  0  0  0  0  0
   11.7470   -7.9050  -12.2060 N   0  0  0  0  0  0  0  0  0  0  0  0
   11.4700   -6.5370  -12.6030 C   0  0  0  0  0  0  0  0  0  0  0  0
   12.6250   -5.6530  -12.3680 C   0  0  0  0  0  0  0  0  0  0  0  0
   13.5490   -4.9650  -12.2200 N   0  0  0  0  0  0  0  0  0  0  0  0
   11.0360  -10.7490  -11.0160 C   0  0  0  0  0  0  0  0  0  0  0  0
   11.3380  -12.0880  -10.7430 C   0  0  0  0  0  0  0  0  0  0  0  0
   14.3004  -13.5305  -12.1876 H   0  0  0  0  0  0  0  0  0  0  0  0
   14.0780  -15.2547  -12.6395 H   0  0  0  0  0  0  0  0  0  0  0  0
   12.6713  -14.1376  -12.6395 H   0  0  0  0  0  0  0  0  0  0  0  0
   13.9422  -16.7608  -10.9356 H   0  0  0  0  0  0  0  0  0  0  0  0
   12.4390  -16.7170   -6.6770 H   0  0  0  0  0  0  0  0  0  0  0  0
   10.6856  -15.7394   -5.0213 H   0  0  0  0  0  0  0  0  0  0  0  0
   10.5364  -14.4245   -2.9284 H   0  0  0  0  0  0  0  0  0  0  0  0
   10.4280  -11.9719   -1.7462 H   0  0  0  0  0  0  0  0  0  0  0  0
   10.6811  -13.6882   -1.2503 H   0  0  0  0  0  0  0  0  0  0  0  0
   10.3662  -12.1188    0.6924 H   0  0  0  0  0  0  0  0  0  0  0  0
   11.9556  -12.9941    0.6967 H   0  0  0  0  0  0  0  0  0  0  0  0
   13.8633  -10.1501   -0.2797 H   0  0  0  0  0  0  0  0  0  0  0  0
   13.8824  -11.9098    0.1554 H   0  0  0  0  0  0  0  0  0  0  0  0
   12.7218  -10.6637   -2.3872 H   0  0  0  0  0  0  0  0  0  0  0  0
   14.2077  -11.6769   -2.2486 H   0  0  0  0  0  0  0  0  0  0  0  0
   14.3726  -12.6725   -3.7655 H   0  0  0  0  0  0  0  0  0  0  0  0
   14.5202  -13.9847   -5.8622 H   0  0  0  0  0  0  0  0  0  0  0  0
   14.3017  -11.6537   -9.1123 H   0  0  0  0  0  0  0  0  0  0  0  0
   13.7728   -9.2692   -9.6053 H   0  0  0  0  0  0  0  0  0  0  0  0
   12.2300   -8.5030  -12.8620 H   0  0  0  0  0  0  0  0  0  0  0  0
   11.2218   -6.5208  -13.6745 H   0  0  0  0  0  0  0  0  0  0  0  0
   10.6296   -6.1691  -11.9961 H   0  0  0  0  0  0  0  0  0  0  0  0
   10.1150  -10.4952  -11.5613 H   0  0  0  0  0  0  0  0  0  0  0  0
   10.6418  -12.8772  -11.0630 H   0  0  0  0  0  0  0  0  0  0  0  0
  1  2  1  0
  2  3  2  0
  3  4  1  0
  4  5  2  0
  5  6  1  0
  6  7  1  0
  7  8  2  0
  8  9  1  0
  9 10  2  0
 10 11  1  0
 11 12  1  0
 12 13  1  0
 13 14  1  0
 14 15  1  0
 15 16  1  0
 10 17  1  0
 17 18  2  0
  5 19  1  0
 19 20  2  0
 20 21  1  0
 21 22  2  0
 22 23  1  0
 23 24  2  0
 24 25  1  0
 25 26  2  0
 25 27  1  0
 27 28  1  0
 28 29  1  0
 29 30  3  0
 24 31  1  0
 31 32  2  0
 20  2  1  0
 32 21  1  0
 18  7  1  0
 16 11  1  0
  1 33  1  0
  1 34  1  0
  1 35  1  0
  3 36  1  0
  6 37  1  0
  8 38  1  0
  9 39  1  0
 12 40  1  0
 12 41  1  0
 13 42  1  0
 13 43  1  0
 15 44  1  0
 15 45  1  0
 16 46  1  0
 16 47  1  0
 17 48  1  0
 18 49  1  0
 22 50  1  0
 23 51  1  0
 27 52  1  0
 28 53  1  0
 28 54  1  0
 31 55  1  0
 32 56  1  0
M  END
>  <meeko>  (6) 
{"is_sidechain": [false], "free_energy": -7.58, "intermolecular_energy": -10.251, "internal_energy": -0.914}

$$$$
LIB_PKEOFNLYKBPOQT__M_PUB_ALL__e8__s20260927
     RDKit          3D

 56 59  0  0  0  0  0  0  0  0999 V2000
    1.7530  -14.1010   -4.6910 C   0  0  0  0  0  0  0  0  0  0  0  0
    2.7770  -14.0900   -3.6030 C   0  0  0  0  0  0  0  0  0  0  0  0
    2.4060  -14.2280   -2.2840 C   0  0  0  0  0  0  0  0  0  0  0  0
    3.2710  -14.2340   -1.2530 N   0  0  0  0  0  0  0  0  0  0  0  0
    4.5700  -14.0930   -1.5380 C   0  0  0  0  0  0  0  0  0  0  0  0
    5.5500  -14.0870   -0.5520 N   0  0  0  0  0  0  0  0  0  0  0  0
    6.8200  -13.5130   -0.4430 C   0  0  0  0  0  0  0  0  0  0  0  0
    7.8540  -14.0090   -1.2460 C   0  0  0  0  0  0  0  0  0  0  0  0
    9.1520  -13.4760   -1.1870 C   0  0  0  0  0  0  0  0  0  0  0  0
    9.4740  -12.4170   -0.3300 C   0  0  0  0  0  0  0  0  0  0  0  0
   10.7510  -11.8750   -0.2510 N   0  0  0  0  0  0  0  0  0  0  0  0
   11.8350  -12.5370   -1.0060 C   0  0  0  0  0  0  0  0  0  0  0  0
   13.0210  -11.5790   -1.1960 C   0  0  0  0  0  0  0  0  0  0  0  0
   13.4780  -11.0400    0.0540 O   0  0  0  0  0  0  0  0  0  0  0  0
   12.4160  -10.3040    0.6810 C   0  0  0  0  0  0  0  0  0  0  0  0
   11.2020  -11.1980    0.9770 C   0  0  0  0  0  0  0  0  0  0  0  0
    8.4360  -11.9370    0.4780 C   0  0  0  0  0  0  0  0  0  0  0  0
    7.1360  -12.4690    0.4210 C   0  0  0  0  0  0  0  0  0  0  0  0
    5.0300  -13.9440   -2.7890 N   0  0  0  0  0  0  0  0  0  0  0  0
    4.1370  -13.9250   -3.8060 C   0  0  0  0  0  0  0  0  0  0  0  0
    4.7520  -13.7340   -5.1290 C   0  0  0  0  0  0  0  0  0  0  0  0
    4.4280  -12.6080   -5.9060 C   0  0  0  0  0  0  0  0  0  0  0  0
    4.9980  -12.4090   -7.1690 C   0  0  0  0  0  0  0  0  0  0  0  0
    5.8970  -13.3480   -7.6840 C   0  0  0  0  0  0  0  0  0  0  0  0
    6.5360  -13.1850   -9.0180 C   0  0  0  0  0  0  0  0  0  0  0  0
    6.3360  -14.0090   -9.9040 O   0  0  0  0  0  0  0  0  0  0  0  0
    7.3170  -12.0670   -9.1960 N   0  0  0  0  0  0  0  0  0  0  0  0
    7.9450  -11.7910  -10.4760 C   0  0  0  0  0  0  0  0  0  0  0  0
    7.4440  -10.5410  -11.0740 C   0  0  0  0  0  0  0  0  0  0  0  0
    7.0780   -9.5350  -11.5250 N   0  0  0  0  0  0  0  0  0  0  0  0
    6.2320  -14.4720   -6.9220 C   0  0  0  0  0  0  0  0  0  0  0  0
    5.6570  -14.6680   -5.6620 C   0  0  0  0  0  0  0  0  0  0  0  0
    0.7466  -14.1118   -4.2472 H   0  0  0  0  0  0  0  0  0  0  0  0
    1.8696  -13.2016   -5.3134 H   0  0  0  0  0  0  0  0  0  0  0  0
    1.8889  -14.9977   -5.3134 H   0  0  0  0  0  0  0  0  0  0  0  0
    1.3352  -14.3404   -2.0589 H   0  0  0  0  0  0  0  0  0  0  0  0
    5.2270  -14.6360    0.2310 H   0  0  0  0  0  0  0  0  0  0  0  0
    7.6447  -14.8363   -1.9400 H   0  0  0  0  0  0  0  0  0  0  0  0
    9.9358  -13.9016   -1.8308 H   0  0  0  0  0  0  0  0  0  0  0  0
   12.1723  -13.4251   -0.4515 H   0  0  0  0  0  0  0  0  0  0  0  0
   11.4524  -12.8300   -1.9948 H   0  0  0  0  0  0  0  0  0  0  0  0
   13.8483  -12.1267   -1.6711 H   0  0  0  0  0  0  0  0  0  0  0  0
   12.6863  -10.7422   -1.8267 H   0  0  0  0  0  0  0  0  0  0  0  0
   12.7857   -9.8805    1.6265 H   0  0  0  0  0  0  0  0  0  0  0  0
   12.0962   -9.5091   -0.0088 H   0  0  0  0  0  0  0  0  0  0  0  0
   11.4824  -11.9538    1.7254 H   0  0  0  0  0  0  0  0  0  0  0  0
   10.3829  -10.5719    1.3605 H   0  0  0  0  0  0  0  0  0  0  0  0
    8.6447  -11.1166    1.1805 H   0  0  0  0  0  0  0  0  0  0  0  0
    6.3535  -12.0519    1.0720 H   0  0  0  0  0  0  0  0  0  0  0  0
    3.7132  -11.8695   -5.5141 H   0  0  0  0  0  0  0  0  0  0  0  0
    4.7390  -11.5152   -7.7555 H   0  0  0  0  0  0  0  0  0  0  0  0
    7.3500  -11.3510   -8.4840 H   0  0  0  0  0  0  0  0  0  0  0  0
    9.0315  -11.7042  -10.3280 H   0  0  0  0  0  0  0  0  0  0  0  0
    7.7035  -12.6177  -11.1602 H   0  0  0  0  0  0  0  0  0  0  0  0
    6.9512  -15.2055   -7.3155 H   0  0  0  0  0  0  0  0  0  0  0  0
    5.9165  -15.5650   -5.0806 H   0  0  0  0  0  0  0  0  0  0  0  0
  1  2  1  0
  2  3  2  0
  3  4  1  0
  4  5  2  0
  5  6  1  0
  6  7  1  0
  7  8  2  0
  8  9  1  0
  9 10  2  0
 10 11  1  0
 11 12  1  0
 12 13  1  0
 13 14  1  0
 14 15  1  0
 15 16  1  0
 10 17  1  0
 17 18  2  0
  5 19  1  0
 19 20  2  0
 20 21  1  0
 21 22  2  0
 22 23  1  0
 23 24  2  0
 24 25  1  0
 25 26  2  0
 25 27  1  0
 27 28  1  0
 28 29  1  0
 29 30  3  0
 24 31  1  0
 31 32  2  0
 20  2  1  0
 32 21  1  0
 18  7  1  0
 16 11  1  0
  1 33  1  0
  1 34  1  0
  1 35  1  0
  3 36  1  0
  6 37  1  0
  8 38  1  0
  9 39  1  0
 12 40  1  0
 12 41  1  0
 13 42  1  0
 13 43  1  0
 15 44  1  0
 15 45  1  0
 16 46  1  0
 16 47  1  0
 17 48  1  0
 18 49  1  0
 22 50  1  0
 23 51  1  0
 27 52  1  0
 28 53  1  0
 28 54  1  0
 31 55  1  0
 32 56  1  0
M  END
>  <meeko>  (7) 
{"is_sidechain": [false], "free_energy": -7.537, "intermolecular_energy": -10.461, "internal_energy": -0.645}

$$$$
LIB_PKEOFNLYKBPOQT__M_PUB_ALL__e8__s20260927
     RDKit          3D

 56 59  0  0  0  0  0  0  0  0999 V2000
    6.0110  -12.6590   -6.8530 C   0  0  0  0  0  0  0  0  0  0  0  0
    5.1590  -13.0770   -5.7000 C   0  0  0  0  0  0  0  0  0  0  0  0
    3.8200  -13.3490   -5.8740 C   0  0  0  0  0  0  0  0  0  0  0  0
    2.9930  -13.7350   -4.8860 N   0  0  0  0  0  0  0  0  0  0  0  0
    3.5140  -13.8590   -3.6600 C   0  0  0  0  0  0  0  0  0  0  0  0
    2.7510  -14.2540   -2.5660 N   0  0  0  0  0  0  0  0  0  0  0  0
    1.9400  -13.5800   -1.6490 C   0  0  0  0  0  0  0  0  0  0  0  0
    1.8730  -12.1830   -1.7090 C   0  0  0  0  0  0  0  0  0  0  0  0
    1.0760  -11.4460   -0.8180 C   0  0  0  0  0  0  0  0  0  0  0  0
    0.3020  -12.0710    0.1660 C   0  0  0  0  0  0  0  0  0  0  0  0
   -0.4910  -11.3630    1.0620 N   0  0  0  0  0  0  0  0  0  0  0  0
   -0.1640   -9.9440    1.3090 C   0  0  0  0  0  0  0  0  0  0  0  0
   -1.3690   -9.2110    1.9170 C   0  0  0  0  0  0  0  0  0  0  0  0
   -1.8590   -9.8710    3.0940 O   0  0  0  0  0  0  0  0  0  0  0  0
   -2.2770  -11.2050    2.7630 C   0  0  0  0  0  0  0  0  0  0  0  0
   -1.1160  -12.0440    2.2090 C   0  0  0  0  0  0  0  0  0  0  0  0
    0.3860  -13.4670    0.2260 C   0  0  0  0  0  0  0  0  0  0  0  0
    1.1840  -14.2080   -0.6630 C   0  0  0  0  0  0  0  0  0  0  0  0
    4.8030  -13.6100   -3.3860 N   0  0  0  0  0  0  0  0  0  0  0  0
    5.6090  -13.2060   -4.3960 C   0  0  0  0  0  0  0  0  0  0  0  0
    6.9940  -12.9410   -3.9770 C   0  0  0  0  0  0  0  0  0  0  0  0
    8.0100  -13.8750   -4.2510 C   0  0  0  0  0  0  0  0  0  0  0  0
    9.3340  -13.6440   -3.8580 C   0  0  0  0  0  0  0  0  0  0  0  0
    9.6610  -12.4730   -3.1680 C   0  0  0  0  0  0  0  0  0  0  0  0
   11.0520  -12.1750   -2.7300 C   0  0  0  0  0  0  0  0  0  0  0  0
   11.9030  -11.8540   -3.5510 O   0  0  0  0  0  0  0  0  0  0  0  0
   11.3050  -12.2510   -1.3800 N   0  0  0  0  0  0  0  0  0  0  0  0
   12.6160  -11.9310   -0.8460 C   0  0  0  0  0  0  0  0  0  0  0  0
   12.6020  -10.6790   -0.0690 C   0  0  0  0  0  0  0  0  0  0  0  0
   12.5810   -9.7140    0.5760 N   0  0  0  0  0  0  0  0  0  0  0  0
    8.6640  -11.5330   -2.8900 C   0  0  0  0  0  0  0  0  0  0  0  0
    7.3420  -11.7700   -3.2830 C   0  0  0  0  0  0  0  0  0  0  0  0
    6.9391  -12.2037   -6.4770 H   0  0  0  0  0  0  0  0  0  0  0  0
    6.2564  -13.5390   -7.4656 H   0  0  0  0  0  0  0  0  0  0  0  0
    5.4652  -11.9264   -7.4656 H   0  0  0  0  0  0  0  0  0  0  0  0
    3.4003  -13.2438   -6.8853 H   0  0  0  0  0  0  0  0  0  0  0  0
    2.8450  -15.2520   -2.4480 H   0  0  0  0  0  0  0  0  0  0  0  0
    2.4587  -11.6498   -2.4723 H   0  0  0  0  0  0  0  0  0  0  0  0
    1.0598  -10.3489   -0.8957 H   0  0  0  0  0  0  0  0  0  0  0  0
    0.6850   -9.8844    2.0059 H   0  0  0  0  0  0  0  0  0  0  0  0
    0.0958   -9.4676    0.3522 H   0  0  0  0  0  0  0  0  0  0  0  0
   -1.0655   -8.1878    2.1834 H   0  0  0  0  0  0  0  0  0  0  0  0
   -2.1760   -9.2034    1.1695 H   0  0  0  0  0  0  0  0  0  0  0  0
   -2.6673  -11.6913    3.6692 H   0  0  0  0  0  0  0  0  0  0  0  0
   -3.0526  -11.1380    1.9858 H   0  0  0  0  0  0  0  0  0  0  0  0
   -0.3639  -12.1879    2.9987 H   0  0  0  0  0  0  0  0  0  0  0  0
   -1.5063  -13.0171    1.8764 H   0  0  0  0  0  0  0  0  0  0  0  0
   -0.1916  -14.0019    0.9943 H   0  0  0  0  0  0  0  0  0  0  0  0
    1.2116  -15.3044   -0.5780 H   0  0  0  0  0  0  0  0  0  0  0  0
    7.7595  -14.8041   -4.7839 H   0  0  0  0  0  0  0  0  0  0  0  0
   10.1151  -14.3824   -4.0917 H   0  0  0  0  0  0  0  0  0  0  0  0
   10.5460  -12.3920   -0.7270 H   0  0  0  0  0  0  0  0  0  0  0  0
   12.9435  -12.7522   -0.1915 H   0  0  0  0  0  0  0  0  0  0  0  0
   13.3061  -11.7993   -1.6924 H   0  0  0  0  0  0  0  0  0  0  0  0
    8.9198  -10.6035   -2.3603 H   0  0  0  0  0  0  0  0  0  0  0  0
    6.5644  -11.0291   -3.0452 H   0  0  0  0  0  0  0  0  0  0  0  0
  1  2  1  0
  2  3  2  0
  3  4  1  0
  4  5  2  0
  5  6  1  0
  6  7  1  0
  7  8  2  0
  8  9  1  0
  9 10  2  0
 10 11  1  0
 11 12  1  0
 12 13  1  0
 13 14  1  0
 14 15  1  0
 15 16  1  0
 10 17  1  0
 17 18  2  0
  5 19  1  0
 19 20  2  0
 20 21  1  0
 21 22  2  0
 22 23  1  0
 23 24  2  0
 24 25  1  0
 25 26  2  0
 25 27  1  0
 27 28  1  0
 28 29  1  0
 29 30  3  0
 24 31  1  0
 31 32  2  0
 20  2  1  0
 32 21  1  0
 18  7  1  0
 16 11  1  0
  1 33  1  0
  1 34  1  0
  1 35  1  0
  3 36  1  0
  6 37  1  0
  8 38  1  0
  9 39  1  0
 12 40  1  0
 12 41  1  0
 13 42  1  0
 13 43  1  0
 15 44  1  0
 15 45  1  0
 16 46  1  0
 16 47  1  0
 17 48  1  0
 18 49  1  0
 22 50  1  0
 23 51  1  0
 27 52  1  0
 28 53  1  0
 28 54  1  0
 31 55  1  0
 32 56  1  0
M  END
>  <meeko>  (8) 
{"is_sidechain": [false], "free_energy": -7.532, "intermolecular_energy": -10.16, "internal_energy": -0.94}

$$$$
LIB_PKEOFNLYKBPOQT__M_PUB_ALL__e8__s20260927
     RDKit          3D

 56 59  0  0  0  0  0  0  0  0999 V2000
   13.8950  -15.3500  -11.5830 C   0  0  0  0  0  0  0  0  0  0  0  0
   13.9450  -15.3810  -10.0900 C   0  0  0  0  0  0  0  0  0  0  0  0
   14.4280  -16.4850   -9.4230 C   0  0  0  0  0  0  0  0  0  0  0  0
   14.5090  -16.5830   -8.0840 N   0  0  0  0  0  0  0  0  0  0  0  0
   14.0890  -15.5370   -7.3640 C   0  0  0  0  0  0  0  0  0  0  0  0
   14.1290  -15.5290   -5.9740 N   0  0  0  0  0  0  0  0  0  0  0  0
   13.2210  -15.1670   -4.9750 C   0  0  0  0  0  0  0  0  0  0  0  0
   11.8980  -15.6130   -5.0730 C   0  0  0  0  0  0  0  0  0  0  0  0
   10.9370  -15.2860   -4.1030 C   0  0  0  0  0  0  0  0  0  0  0  0
   11.2550  -14.5070   -2.9850 C   0  0  0  0  0  0  0  0  0  0  0  0
   10.3210  -14.1660   -2.0140 N   0  0  0  0  0  0  0  0  0  0  0  0
   10.6760  -13.1040   -1.0510 C   0  0  0  0  0  0  0  0  0  0  0  0
    9.4130  -12.5370   -0.3850 C   0  0  0  0  0  0  0  0  0  0  0  0
    8.6130  -13.5690    0.2120 O   0  0  0  0  0  0  0  0  0  0  0  0
    8.1960  -14.5030   -0.7970 C   0  0  0  0  0  0  0  0  0  0  0  0
    9.3970  -15.1790   -1.4770 C   0  0  0  0  0  0  0  0  0  0  0  0
   12.5790  -14.0550   -2.9020 C   0  0  0  0  0  0  0  0  0  0  0  0
   13.5420  -14.3790   -3.8730 C   0  0  0  0  0  0  0  0  0  0  0  0
   13.5940  -14.4200   -7.9180 N   0  0  0  0  0  0  0  0  0  0  0  0
   13.5090  -14.3550   -9.2680 C   0  0  0  0  0  0  0  0  0  0  0  0
   12.9330  -13.0950   -9.7640 C   0  0  0  0  0  0  0  0  0  0  0  0
   11.6040  -13.0550  -10.2210 C   0  0  0  0  0  0  0  0  0  0  0  0
   11.0370  -11.8670  -10.7000 C   0  0  0  0  0  0  0  0  0  0  0  0
   11.8020  -10.6980  -10.7430 C   0  0  0  0  0  0  0  0  0  0  0  0
   11.2500   -9.4080  -11.2380 C   0  0  0  0  0  0  0  0  0  0  0  0
   10.1930   -9.3850  -11.8590 O   0  0  0  0  0  0  0  0  0  0  0  0
   11.9660   -8.2730  -10.9370 N   0  0  0  0  0  0  0  0  0  0  0  0
   11.4870   -6.9600  -11.3320 C   0  0  0  0  0  0  0  0  0  0  0  0
   12.1060   -6.5060  -12.5890 C   0  0  0  0  0  0  0  0  0  0  0  0
   12.5650   -6.1670  -13.6010 N   0  0  0  0  0  0  0  0  0  0  0  0
   13.1240  -10.7210  -10.2890 C   0  0  0  0  0  0  0  0  0  0  0  0
   13.6870  -11.9110   -9.8130 C   0  0  0  0  0  0  0  0  0  0  0  0
   13.0020  -14.7963  -11.9085 H   0  0  0  0  0  0  0  0  0  0  0  0
   14.7964  -14.8521  -11.9698 H   0  0  0  0  0  0  0  0  0  0  0  0
   13.8498  -16.3788  -11.9698 H   0  0  0  0  0  0  0  0  0  0  0  0
   14.7692  -17.3411  -10.0236 H   0  0  0  0  0  0  0  0  0  0  0  0
   15.0340  -15.8580   -5.6730 H   0  0  0  0  0  0  0  0  0  0  0  0
   11.6038  -16.2351   -5.9312 H   0  0  0  0  0  0  0  0  0  0  0  0
    9.9069  -15.6519   -4.2252 H   0  0  0  0  0  0  0  0  0  0  0  0
   11.3362  -13.5229   -0.2773 H   0  0  0  0  0  0  0  0  0  0  0  0
   11.1889  -12.2931   -1.5889 H   0  0  0  0  0  0  0  0  0  0  0  0
    9.7129  -11.8229    0.3961 H   0  0  0  0  0  0  0  0  0  0  0  0
    8.8097  -12.0447   -1.1620 H   0  0  0  0  0  0  0  0  0  0  0  0
    7.5691  -15.2766   -0.3295 H   0  0  0  0  0  0  0  0  0  0  0  0
    7.6337  -13.9506   -1.5643 H   0  0  0  0  0  0  0  0  0  0  0  0
    9.9282  -15.7997   -0.7405 H   0  0  0  0  0  0  0  0  0  0  0  0
    9.0323  -15.8038   -2.3056 H   0  0  0  0  0  0  0  0  0  0  0  0
   12.8741  -13.4262   -2.0491 H   0  0  0  0  0  0  0  0  0  0  0  0
   14.5694  -14.0026   -3.7601 H   0  0  0  0  0  0  0  0  0  0  0  0
   10.9985  -13.9732  -10.2021 H   0  0  0  0  0  0  0  0  0  0  0  0
    9.9915  -11.8541  -11.0417 H   0  0  0  0  0  0  0  0  0  0  0  0
   12.7610   -8.3230  -10.3140 H   0  0  0  0  0  0  0  0  0  0  0  0
   10.3964   -7.0053  -11.4685 H   0  0  0  0  0  0  0  0  0  0  0  0
   11.7577   -6.2455  -10.5406 H   0  0  0  0  0  0  0  0  0  0  0  0
   13.7247   -9.7996  -10.3059 H   0  0  0  0  0  0  0  0  0  0  0  0
   14.7331  -11.9189   -9.4730 H   0  0  0  0  0  0  0  0  0  0  0  0
  1  2  1  0
  2  3  2  0
  3  4  1  0
  4  5  2  0
  5  6  1  0
  6  7  1  0
  7  8  2  0
  8  9  1  0
  9 10  2  0
 10 11  1  0
 11 12  1  0
 12 13  1  0
 13 14  1  0
 14 15  1  0
 15 16  1  0
 10 17  1  0
 17 18  2  0
  5 19  1  0
 19 20  2  0
 20 21  1  0
 21 22  2  0
 22 23  1  0
 23 24  2  0
 24 25  1  0
 25 26  2  0
 25 27  1  0
 27 28  1  0
 28 29  1  0
 29 30  3  0
 24 31  1  0
 31 32  2  0
 20  2  1  0
 32 21  1  0
 18  7  1  0
 16 11  1  0
  1 33  1  0
  1 34  1  0
  1 35  1  0
  3 36  1  0
  6 37  1  0
  8 38  1  0
  9 39  1  0
 12 40  1  0
 12 41  1  0
 13 42  1  0
 13 43  1  0
 15 44  1  0
 15 45  1  0
 16 46  1  0
 16 47  1  0
 17 48  1  0
 18 49  1  0
 22 50  1  0
 23 51  1  0
 27 52  1  0
 28 53  1  0
 28 54  1  0
 31 55  1  0
 32 56  1  0
M  END
>  <meeko>  (9) 
{"is_sidechain": [false], "free_energy": -7.486, "intermolecular_energy": -10.05, "internal_energy": -0.988}

$$$$
