LIB_CTJUVPHBVVMJHR__M_PUB_ALL__e8__s20260927
     RDKit          3D

 70 76  0  0  0  0  0  0  0  0999 V2000
    4.0390  -11.8120    0.8230 O   0  0  0  0  0  0  0  0  0  0  0  0
    4.2260  -12.9960    0.5770 C   0  0  0  0  0  0  0  0  0  0  0  0
    3.2550  -13.9570    0.6510 N   0  0  0  0  0  0  0  0  0  0  0  0
    1.8880  -13.7060    1.1200 C   0  0  1  0  0  0  0  0  0  0  0  0
    0.9050  -13.6090   -0.0650 C   0  0  0  0  0  0  0  0  0  0  0  0
    1.4810  -13.9220   -1.4160 C   0  0  0  0  0  0  0  0  0  0  0  0
    1.5640  -15.1810   -1.9850 C   0  0  0  0  0  0  0  0  0  0  0  0
    2.1050  -15.0510   -3.2340 N   0  0  0  0  0  0  0  0  0  0  0  0
    2.3660  -13.7320   -3.5050 C   0  0  0  0  0  0  0  0  0  0  0  0
    2.8740  -13.1300   -4.6550 C   0  0  0  0  0  0  0  0  0  0  0  0
    3.0130  -11.7320   -4.6440 C   0  0  0  0  0  0  0  0  0  0  0  0
    2.6940  -10.9110   -3.5470 C   0  0  0  0  0  0  0  0  0  0  0  0
    2.8200   -9.6430   -3.5820 O   0  0  0  0  0  0  0  0  0  0  0  0
    2.2180  -11.5970   -2.4090 C   0  0  0  0  0  0  0  0  0  0  0  0
    2.0220  -13.0000   -2.3740 C   0  0  0  0  0  0  0  0  0  0  0  0
    1.5820  -14.8510    2.0690 C   0  0  0  0  0  0  0  0  0  0  0  0
    1.6390  -14.8070    3.4520 C   0  0  0  0  0  0  0  0  0  0  0  0
    1.2180  -16.3280    4.1160 S   0  0  0  0  0  0  0  0  0  0  0  0
    1.0190  -16.9430    2.5310 C   0  0  0  0  0  0  0  0  0  0  0  0
    1.2480  -16.1080    1.5420 N   0  0  0  0  0  0  0  0  0  0  0  0
    5.5670  -13.4620    0.1240 C   0  0  0  0  0  0  0  0  0  0  0  0
    5.9130  -14.8200    0.1370 C   0  0  0  0  0  0  0  0  0  0  0  0
    7.1720  -15.2520   -0.2970 C   0  0  0  0  0  0  0  0  0  0  0  0
    8.0740  -14.2730   -0.7370 C   0  0  0  0  0  0  0  0  0  0  0  0
    7.7560  -12.9210   -0.7340 C   0  0  0  0  0  0  0  0  0  0  0  0
    6.4930  -12.4980   -0.2970 C   0  0  0  0  0  0  0  0  0  0  0  0
    8.8050  -12.1780   -1.1890 N   0  0  0  0  0  0  0  0  0  0  0  0
    9.8000  -13.0200   -1.4360 C   0  0  0  0  0  0  0  0  0  0  0  0
   11.1270  -12.5530   -1.8650 C   0  0  0  0  0  0  0  0  0  0  0  0
   11.5190  -12.6850   -3.1960 C   0  0  0  0  0  0  0  0  0  0  0  0
   12.7610  -12.1960   -3.5890 C   0  0  0  0  0  0  0  0  0  0  0  0
   13.5740  -11.5770   -2.6490 C   0  0  0  0  0  0  0  0  0  0  0  0
   13.1050  -11.4740   -1.3510 C   0  0  0  0  0  0  0  0  0  0  0  0
   11.9060  -11.9460   -0.9390 N   0  0  0  0  0  0  0  0  0  0  0  0
    9.3680  -14.3270   -1.2470 N   0  0  0  0  0  0  0  0  0  0  0  0
   10.0360  -15.5870   -1.5670 C   0  0  0  0  0  0  0  0  0  0  0  0
   10.0030  -15.9860   -3.0540 C   0  0  0  0  0  0  0  0  0  0  0  0
   10.6440  -17.3550   -3.2770 C   0  0  0  0  0  0  0  0  0  0  0  0
   12.0480  -17.4220   -2.6830 C   0  0  0  0  0  0  0  0  0  0  0  0
   12.0410  -17.0920   -1.1930 C   0  0  0  0  0  0  0  0  0  0  0  0
   11.4190  -15.7250   -0.9140 C   0  0  0  0  0  0  0  0  0  0  0  0
    3.4150  -14.9030    0.3250 H   0  0  0  0  0  0  0  0  0  0  0  0
    1.7837  -12.7411    1.6378 H   0  0  0  0  0  0  0  0  0  0  0  0
    0.0800  -14.3122    0.1218 H   0  0  0  0  0  0  0  0  0  0  0  0
    0.5917  -12.5555   -0.1093 H   0  0  0  0  0  0  0  0  0  0  0  0
    1.2490  -16.1237   -1.5137 H   0  0  0  0  0  0  0  0  0  0  0  0
    2.2720  -15.8040   -3.8830 H   0  0  0  0  0  0  0  0  0  0  0  0
    3.1549  -13.7258   -5.5360 H   0  0  0  0  0  0  0  0  0  0  0  0
    3.3968  -11.2471   -5.5537 H   0  0  0  0  0  0  0  0  0  0  0  0
    1.9879  -11.0140   -1.5050 H   0  0  0  0  0  0  0  0  0  0  0  0
    1.9157  -13.9200    4.0408 H   0  0  0  0  0  0  0  0  0  0  0  0
    0.7148  -17.9844    2.3493 H   0  0  0  0  0  0  0  0  0  0  0  0
    5.1820  -15.5600    0.4947 H   0  0  0  0  0  0  0  0  0  0  0  0
    7.4430  -16.3181   -0.2929 H   0  0  0  0  0  0  0  0  0  0  0  0
    6.2335  -11.4291   -0.2848 H   0  0  0  0  0  0  0  0  0  0  0  0
   10.8548  -13.1697   -3.9267 H   0  0  0  0  0  0  0  0  0  0  0  0
   13.0948  -12.2986   -4.6321 H   0  0  0  0  0  0  0  0  0  0  0  0
   14.5614  -11.1803   -2.9276 H   0  0  0  0  0  0  0  0  0  0  0  0
   13.7469  -10.9776   -0.6083 H   0  0  0  0  0  0  0  0  0  0  0  0
    9.4069  -16.3517   -1.0880 H   0  0  0  0  0  0  0  0  0  0  0  0
    8.9569  -16.0210   -3.3923 H   0  0  0  0  0  0  0  0  0  0  0  0
   10.5728  -15.2390   -3.6261 H   0  0  0  0  0  0  0  0  0  0  0  0
   10.0180  -18.1240   -2.8008 H   0  0  0  0  0  0  0  0  0  0  0  0
   10.7207  -17.5262   -4.3609 H   0  0  0  0  0  0  0  0  0  0  0  0
   12.4470  -18.4376   -2.8223 H   0  0  0  0  0  0  0  0  0  0  0  0
   12.6764  -16.6804   -3.1979 H   0  0  0  0  0  0  0  0  0  0  0  0
   11.4617  -17.8612   -0.6613 H   0  0  0  0  0  0  0  0  0  0  0  0
   13.0841  -17.0688   -0.8446 H   0  0  0  0  0  0  0  0  0  0  0  0
   11.3144  -15.5961    0.1734 H   0  0  0  0  0  0  0  0  0  0  0  0
   12.0782  -14.9545   -1.3404 H   0  0  0  0  0  0  0  0  0  0  0  0
  1  2  2  0
  2  3  1  0
  3  4  1  0
  4  5  1  0
  5  6  1  0
  6  7  2  0
  7  8  1  0
  8  9  1  0
  9 10  2  0
 10 11  1  0
 11 12  2  0
 12 13  1  0
 12 14  1  0
 14 15  2  0
  4 16  1  0
 16 17  2  0
 17 18  1  0
 18 19  1  0
 19 20  2  0
  2 21  1  0
 21 22  2  0
 22 23  1  0
 23 24  2  0
 24 25  1  0
 25 26  2  0
 25 27  1  0
 27 28  2  0
 28 29  1  0
 29 30  2  0
 30 31  1  0
 31 32  2  0
 32 33  1  0
 33 34  2  0
 28 35  1  0
 35 36  1  0
 36 37  1  0
 37 38  1  0
 38 39  1  0
 39 40  1  0
 40 41  1  0
 15  6  1  0
 20 16  1  0
 26 21  1  0
 34 29  1  0
 41 36  1  0
 15  9  1  0
 35 24  1  0
  3 42  1  0
  4 43  1  1
  5 44  1  0
  5 45  1  0
  7 46  1  0
  8 47  1  0
 10 48  1  0
 11 49  1  0
 14 50  1  0
 17 51  1  0
 19 52  1  0
 22 53  1  0
 23 54  1  0
 26 55  1  0
 30 56  1  0
 31 57  1  0
 32 58  1  0
 33 59  1  0
 36 60  1  0
 37 61  1  0
 37 62  1  0
 38 63  1  0
 38 64  1  0
 39 65  1  0
 39 66  1  0
 40 67  1  0
 40 68  1  0
 41 69  1  0
 41 70  1  0
M  CHG  1  13  -1
M  END
>  <meeko>  (1) 
{"is_sidechain": [false], "free_energy": -8.68, "intermolecular_energy": -12.233, "internal_energy": -1.966}

$$$$
LIB_CTJUVPHBVVMJHR__M_PUB_ALL__e8__s20260927
     RDKit          3D

 70 76  0  0  0  0  0  0  0  0999 V2000
    6.1910  -11.2850   -0.4500 O   0  0  0  0  0  0  0  0  0  0  0  0
    5.7310  -12.3930   -0.6910 C   0  0  0  0  0  0  0  0  0  0  0  0
    6.2560  -13.2580   -1.6120 N   0  0  0  0  0  0  0  0  0  0  0  0
    7.3850  -12.9330   -2.4910 C   0  0  1  0  0  0  0  0  0  0  0  0
    8.6410  -13.7390   -2.1000 C   0  0  0  0  0  0  0  0  0  0  0  0
    9.7340  -12.9570   -1.4300 C   0  0  0  0  0  0  0  0  0  0  0  0
    9.7330  -12.5390   -0.1100 C   0  0  0  0  0  0  0  0  0  0  0  0
   10.9160  -11.8990    0.1370 N   0  0  0  0  0  0  0  0  0  0  0  0
   11.7010  -11.8980   -0.9880 C   0  0  0  0  0  0  0  0  0  0  0  0
   12.9880  -11.4020   -1.1910 C   0  0  0  0  0  0  0  0  0  0  0  0
   13.5510  -11.5710   -2.4680 C   0  0  0  0  0  0  0  0  0  0  0  0
   12.8940  -12.1840   -3.5490 C   0  0  0  0  0  0  0  0  0  0  0  0
   13.4450  -12.3310   -4.6900 O   0  0  0  0  0  0  0  0  0  0  0  0
   11.5830  -12.6280   -3.2760 C   0  0  0  0  0  0  0  0  0  0  0  0
   10.9770  -12.5200   -2.0000 C   0  0  0  0  0  0  0  0  0  0  0  0
    6.8880  -13.2280   -3.8950 C   0  0  0  0  0  0  0  0  0  0  0  0
    7.4450  -14.1260   -4.7890 C   0  0  0  0  0  0  0  0  0  0  0  0
    6.5610  -14.1330   -6.2560 S   0  0  0  0  0  0  0  0  0  0  0  0
    5.5250  -12.9300   -5.6150 C   0  0  0  0  0  0  0  0  0  0  0  0
    5.7880  -12.5150   -4.3960 N   0  0  0  0  0  0  0  0  0  0  0  0
    4.5510  -12.8930    0.0690 C   0  0  0  0  0  0  0  0  0  0  0  0
    4.6740  -13.9070    1.0280 C   0  0  0  0  0  0  0  0  0  0  0  0
    3.5620  -14.3670    1.7440 C   0  0  0  0  0  0  0  0  0  0  0  0
    2.3210  -13.7790    1.4580 C   0  0  0  0  0  0  0  0  0  0  0  0
    2.1780  -12.7910    0.4940 C   0  0  0  0  0  0  0  0  0  0  0  0
    3.2970  -12.3360   -0.2180 C   0  0  0  0  0  0  0  0  0  0  0  0
    0.8750  -12.3990    0.3940 N   0  0  0  0  0  0  0  0  0  0  0  0
    0.1780  -13.1500    1.2370 C   0  0  0  0  0  0  0  0  0  0  0  0
   -1.2860  -13.0590    1.3330 C   0  0  0  0  0  0  0  0  0  0  0  0
   -1.8760  -12.3260    2.3620 C   0  0  0  0  0  0  0  0  0  0  0  0
   -3.2630  -12.2160    2.4080 C   0  0  0  0  0  0  0  0  0  0  0  0
   -4.0240  -12.8280    1.4220 C   0  0  0  0  0  0  0  0  0  0  0  0
   -3.3600  -13.5260    0.4270 C   0  0  0  0  0  0  0  0  0  0  0  0
   -2.0150  -13.6550    0.3610 N   0  0  0  0  0  0  0  0  0  0  0  0
    1.0400  -13.9580    1.9690 N   0  0  0  0  0  0  0  0  0  0  0  0
    0.7660  -14.8070    3.1270 C   0  0  0  0  0  0  0  0  0  0  0  0
    0.5640  -14.0570    4.4570 C   0  0  0  0  0  0  0  0  0  0  0  0
    0.3740  -15.0290    5.6210 C   0  0  0  0  0  0  0  0  0  0  0  0
   -0.7410  -16.0320    5.3390 C   0  0  0  0  0  0  0  0  0  0  0  0
   -0.4790  -16.8110    4.0540 C   0  0  0  0  0  0  0  0  0  0  0  0
   -0.2920  -15.8870    2.8530 C   0  0  0  0  0  0  0  0  0  0  0  0
    5.9230  -14.2110   -1.6990 H   0  0  0  0  0  0  0  0  0  0  0  0
    7.7014  -11.8826   -2.4102 H   0  0  0  0  0  0  0  0  0  0  0  0
    8.3286  -14.5396   -1.4134 H   0  0  0  0  0  0  0  0  0  0  0  0
    9.0694  -14.1039   -3.0452 H   0  0  0  0  0  0  0  0  0  0  0  0
    8.9206  -12.6949    0.6151 H   0  0  0  0  0  0  0  0  0  0  0  0
   11.1940  -11.4990    1.0190 H   0  0  0  0  0  0  0  0  0  0  0  0
   13.5408  -10.8985   -0.3842 H   0  0  0  0  0  0  0  0  0  0  0  0
   14.5731  -11.1990   -2.6321 H   0  0  0  0  0  0  0  0  0  0  0  0
   11.0029  -13.0802   -4.0940 H   0  0  0  0  0  0  0  0  0  0  0  0
    8.3299  -14.7471   -4.5861 H   0  0  0  0  0  0  0  0  0  0  0  0
    4.6820  -12.5250   -6.1941 H   0  0  0  0  0  0  0  0  0  0  0  0
    5.6621  -14.3498    1.2220 H   0  0  0  0  0  0  0  0  0  0  0  0
    3.6579  -15.1589    2.5015 H   0  0  0  0  0  0  0  0  0  0  0  0
    3.1928  -11.5567   -0.9873 H   0  0  0  0  0  0  0  0  0  0  0  0
   -1.2532  -11.8407    3.1279 H   0  0  0  0  0  0  0  0  0  0  0  0
   -3.7500  -11.6507    3.2163 H   0  0  0  0  0  0  0  0  0  0  0  0
   -5.1219  -12.7607    1.4305 H   0  0  0  0  0  0  0  0  0  0  0  0
   -3.9635  -14.0050   -0.3580 H   0  0  0  0  0  0  0  0  0  0  0  0
    1.7087  -15.3510    3.2865 H   0  0  0  0  0  0  0  0  0  0  0  0
    1.4475  -13.4317    4.6532 H   0  0  0  0  0  0  0  0  0  0  0  0
   -0.3409  -13.4375    4.3716 H   0  0  0  0  0  0  0  0  0  0  0  0
    1.3136  -15.5767    5.7857 H   0  0  0  0  0  0  0  0  0  0  0  0
    0.0966  -14.4478    6.5128 H   0  0  0  0  0  0  0  0  0  0  0  0
   -0.8066  -16.7393    6.1789 H   0  0  0  0  0  0  0  0  0  0  0  0
   -1.6833  -15.4769    5.2206 H   0  0  0  0  0  0  0  0  0  0  0  0
    0.4320  -17.4137    4.1836 H   0  0  0  0  0  0  0  0  0  0  0  0
   -1.3537  -17.4488    3.8590 H   0  0  0  0  0  0  0  0  0  0  0  0
    0.0266  -16.4869    1.9877 H   0  0  0  0  0  0  0  0  0  0  0  0
   -1.2505  -15.3856    2.6532 H   0  0  0  0  0  0  0  0  0  0  0  0
  1  2  2  0
  2  3  1  0
  3  4  1  0
  4  5  1  0
  5  6  1  0
  6  7  2  0
  7  8  1  0
  8  9  1  0
  9 10  2  0
 10 11  1  0
 11 12  2  0
 12 13  1  0
 12 14  1  0
 14 15  2  0
  4 16  1  0
 16 17  2  0
 17 18  1  0
 18 19  1  0
 19 20  2  0
  2 21  1  0
 21 22  2  0
 22 23  1  0
 23 24  2  0
 24 25  1  0
 25 26  2  0
 25 27  1  0
 27 28  2  0
 28 29  1  0
 29 30  2  0
 30 31  1  0
 31 32  2  0
 32 33  1  0
 33 34  2  0
 28 35  1  0
 35 36  1  0
 36 37  1  0
 37 38  1  0
 38 39  1  0
 39 40  1  0
 40 41  1  0
 15  6  1  0
 20 16  1  0
 26 21  1  0
 34 29  1  0
 41 36  1  0
 15  9  1  0
 35 24  1  0
  3 42  1  0
  4 43  1  6
  5 44  1  0
  5 45  1  0
  7 46  1  0
  8 47  1  0
 10 48  1  0
 11 49  1  0
 14 50  1  0
 17 51  1  0
 19 52  1  0
 22 53  1  0
 23 54  1  0
 26 55  1  0
 30 56  1  0
 31 57  1  0
 32 58  1  0
 33 59  1  0
 36 60  1  0
 37 61  1  0
 37 62  1  0
 38 63  1  0
 38 64  1  0
 39 65  1  0
 39 66  1  0
 40 67  1  0
 40 68  1  0
 41 69  1  0
 41 70  1  0
M  CHG  1  13  -1
M  END
>  <meeko>  (2) 
{"is_sidechain": [false], "free_energy": -8.571, "intermolecular_energy": -12.37, "internal_energy": -1.675}

$$$$
LIB_CTJUVPHBVVMJHR__M_PUB_ALL__e8__s20260927
     RDKit          3D

 70 76  0  0  0  0  0  0  0  0999 V2000
    0.2270  -13.9150    4.0200 O   0  0  0  0  0  0  0  0  0  0  0  0
   -0.0990  -14.1800    2.8700 C   0  0  0  0  0  0  0  0  0  0  0  0
   -1.3610  -14.5560    2.5000 N   0  0  0  0  0  0  0  0  0  0  0  0
   -2.4620  -14.7750    3.4440 C   0  0  1  0  0  0  0  0  0  0  0  0
   -3.7920  -14.2340    2.8790 C   0  0  0  0  0  0  0  0  0  0  0  0
   -3.6700  -13.2850    1.7210 C   0  0  0  0  0  0  0  0  0  0  0  0
   -4.1170  -13.5240    0.4330 C   0  0  0  0  0  0  0  0  0  0  0  0
   -3.8660  -12.4110   -0.3200 N   0  0  0  0  0  0  0  0  0  0  0  0
   -3.2750  -11.4390    0.4470 C   0  0  0  0  0  0  0  0  0  0  0  0
   -2.8830  -10.1430    0.1190 C   0  0  0  0  0  0  0  0  0  0  0  0
   -2.3160   -9.3620    1.1400 C   0  0  0  0  0  0  0  0  0  0  0  0
   -2.1020   -9.8100    2.4560 C   0  0  0  0  0  0  0  0  0  0  0  0
   -1.5980   -9.0640    3.3590 O   0  0  0  0  0  0  0  0  0  0  0  0
   -2.4930  -11.1430    2.7010 C   0  0  0  0  0  0  0  0  0  0  0  0
   -3.1030  -11.9670    1.7230 C   0  0  0  0  0  0  0  0  0  0  0  0
   -2.4740  -16.2720    3.6940 C   0  0  0  0  0  0  0  0  0  0  0  0
   -1.9440  -16.9230    4.7950 C   0  0  0  0  0  0  0  0  0  0  0  0
   -2.1790  -18.6140    4.6590 S   0  0  0  0  0  0  0  0  0  0  0  0
   -2.9370  -18.3670    3.1430 C   0  0  0  0  0  0  0  0  0  0  0  0
   -3.0240  -17.1240    2.7240 N   0  0  0  0  0  0  0  0  0  0  0  0
    0.8940  -14.0610    1.7660 C   0  0  0  0  0  0  0  0  0  0  0  0
    0.5070  -13.6910    0.4710 C   0  0  0  0  0  0  0  0  0  0  0  0
    1.4470  -13.5730   -0.5610 C   0  0  0  0  0  0  0  0  0  0  0  0
    2.7860  -13.8480   -0.2490 C   0  0  0  0  0  0  0  0  0  0  0  0
    3.1820  -14.2400    1.0220 C   0  0  0  0  0  0  0  0  0  0  0  0
    2.2340  -14.3550    2.0490 C   0  0  0  0  0  0  0  0  0  0  0  0
    4.5270  -14.4640    1.0610 N   0  0  0  0  0  0  0  0  0  0  0  0
    4.9880  -14.2720   -0.1690 C   0  0  0  0  0  0  0  0  0  0  0  0
    6.3960  -14.5110   -0.5180 C   0  0  0  0  0  0  0  0  0  0  0  0
    7.3070  -13.4550   -0.5130 C   0  0  0  0  0  0  0  0  0  0  0  0
    8.6440  -13.7110   -0.8040 C   0  0  0  0  0  0  0  0  0  0  0  0
    9.0400  -15.0130   -1.0780 C   0  0  0  0  0  0  0  0  0  0  0  0
    8.0760  -16.0060   -1.0490 C   0  0  0  0  0  0  0  0  0  0  0  0
    6.7690  -15.7860   -0.7770 N   0  0  0  0  0  0  0  0  0  0  0  0
    3.9640  -13.8150   -0.9890 N   0  0  0  0  0  0  0  0  0  0  0  0
    4.0220  -13.2970   -2.3540 C   0  0  0  0  0  0  0  0  0  0  0  0
    3.2010  -14.0860   -3.3900 C   0  0  0  0  0  0  0  0  0  0  0  0
    3.3950  -13.5260   -4.7990 C   0  0  0  0  0  0  0  0  0  0  0  0
    3.1170  -12.0260   -4.8500 C   0  0  0  0  0  0  0  0  0  0  0  0
    3.9950  -11.2610   -3.8650 C   0  0  0  0  0  0  0  0  0  0  0  0
    3.8320  -11.7740   -2.4350 C   0  0  0  0  0  0  0  0  0  0  0  0
   -1.6240  -14.6510    1.5260 H   0  0  0  0  0  0  0  0  0  0  0  0
   -2.3285  -14.2303    4.3903 H   0  0  0  0  0  0  0  0  0  0  0  0
   -4.3937  -15.0938    2.5493 H   0  0  0  0  0  0  0  0  0  0  0  0
   -4.2504  -13.6549    3.6941 H   0  0  0  0  0  0  0  0  0  0  0  0
   -4.5923  -14.4499    0.0768 H   0  0  0  0  0  0  0  0  0  0  0  0
   -4.0960  -12.2980   -1.2950 H   0  0  0  0  0  0  0  0  0  0  0  0
   -3.0123   -9.7469   -0.8990 H   0  0  0  0  0  0  0  0  0  0  0  0
   -2.0197   -8.3316    0.8938 H   0  0  0  0  0  0  0  0  0  0  0  0
   -2.3154  -11.5639    3.7016 H   0  0  0  0  0  0  0  0  0  0  0  0
   -1.4429  -16.4246    5.6379 H   0  0  0  0  0  0  0  0  0  0  0  0
   -3.3309  -19.2057    2.5502 H   0  0  0  0  0  0  0  0  0  0  0  0
   -0.5538  -13.4896    0.2610 H   0  0  0  0  0  0  0  0  0  0  0  0
    1.1463  -13.2761   -1.5766 H   0  0  0  0  0  0  0  0  0  0  0  0
    2.5371  -14.6703    3.0583 H   0  0  0  0  0  0  0  0  0  0  0  0
    6.9732  -12.4326   -0.2820 H   0  0  0  0  0  0  0  0  0  0  0  0
    9.3778  -12.8916   -0.8167 H   0  0  0  0  0  0  0  0  0  0  0  0
   10.0888  -15.2486   -1.3113 H   0  0  0  0  0  0  0  0  0  0  0  0
    8.3922  -17.0382   -1.2602 H   0  0  0  0  0  0  0  0  0  0  0  0
    5.0608  -13.4817   -2.6650 H   0  0  0  0  0  0  0  0  0  0  0  0
    3.5225  -15.1379   -3.3755 H   0  0  0  0  0  0  0  0  0  0  0  0
    2.1365  -13.9996   -3.1267 H   0  0  0  0  0  0  0  0  0  0  0  0
    4.4326  -13.7078   -5.1158 H   0  0  0  0  0  0  0  0  0  0  0  0
    2.6852  -14.0308   -5.4709 H   0  0  0  0  0  0  0  0  0  0  0  0
    3.3183  -11.6596   -5.8675 H   0  0  0  0  0  0  0  0  0  0  0  0
    2.0648  -11.8604   -4.5751 H   0  0  0  0  0  0  0  0  0  0  0  0
    5.0472  -11.3741   -4.1651 H   0  0  0  0  0  0  0  0  0  0  0  0
    3.6870  -10.2052   -3.8844 H   0  0  0  0  0  0  0  0  0  0  0  0
    4.5808  -11.2864   -1.7935 H   0  0  0  0  0  0  0  0  0  0  0  0
    2.8118  -11.5367   -2.0990 H   0  0  0  0  0  0  0  0  0  0  0  0
  1  2  2  0
  2  3  1  0
  3  4  1  0
  4  5  1  0
  5  6  1  0
  6  7  2  0
  7  8  1  0
  8  9  1  0
  9 10  2  0
 10 11  1  0
 11 12  2  0
 12 13  1  0
 12 14  1  0
 14 15  2  0
  4 16  1  0
 16 17  2  0
 17 18  1  0
 18 19  1  0
 19 20  2  0
  2 21  1  0
 21 22  2  0
 22 23  1  0
 23 24  2  0
 24 25  1  0
 25 26  2  0
 25 27  1  0
 27 28  2  0
 28 29  1  0
 29 30  2  0
 30 31  1  0
 31 32  2  0
 32 33  1  0
 33 34  2  0
 28 35  1  0
 35 36  1  0
 36 37  1  0
 37 38  1  0
 38 39  1  0
 39 40  1  0
 40 41  1  0
 15  6  1  0
 20 16  1  0
 26 21  1  0
 34 29  1  0
 41 36  1  0
 15  9  1  0
 35 24  1  0
  3 42  1  0
  4 43  1  1
  5 44  1  0
  5 45  1  0
  7 46  1  0
  8 47  1  0
 10 48  1  0
 11 49  1  0
 14 50  1  0
 17 51  1  0
 19 52  1  0
 22 53  1  0
 23 54  1  0
 26 55  1  0
 30 56  1  0
 31 57  1  0
 32 58  1  0
 33 59  1  0
 36 60  1  0
 37 61  1  0
 37 62  1  0
 38 63  1  0
 38 64  1  0
 39 65  1  0
 39 66  1  0
 40 67  1  0
 40 68  1  0
 41 69  1  0
 41 70  1  0
M  CHG  1  13  -1
M  END
>  <meeko>  (3) 
{"is_sidechain": [false], "free_energy": -8.5, "intermolecular_energy": -12.049, "internal_energy": -1.895}

$$$$
LIB_CTJUVPHBVVMJHR__M_PUB_ALL__e8__s20260927
     RDKit          3D

 70 76  0  0  0  0  0  0  0  0999 V2000
    6.2700  -11.1850   -0.9020 O   0  0  0  0  0  0  0  0  0  0  0  0
    5.7030  -12.2310   -1.1850 C   0  0  0  0  0  0  0  0  0  0  0  0
    6.1610  -13.1220   -2.1180 N   0  0  0  0  0  0  0  0  0  0  0  0
    7.3400  -12.8940   -2.9600 C   0  0  1  0  0  0  0  0  0  0  0  0
    8.5310  -13.7550   -2.4890 C   0  0  0  0  0  0  0  0  0  0  0  0
    9.5980  -13.0280   -1.7220 C   0  0  0  0  0  0  0  0  0  0  0  0
    9.5260  -12.6660   -0.3880 C   0  0  0  0  0  0  0  0  0  0  0  0
   10.7050  -12.0640   -0.0450 N   0  0  0  0  0  0  0  0  0  0  0  0
   11.5560  -12.0350   -1.1200 C   0  0  0  0  0  0  0  0  0  0  0  0
   12.8630  -11.5610   -1.2240 C   0  0  0  0  0  0  0  0  0  0  0  0
   13.4970  -11.6880   -2.4720 C   0  0  0  0  0  0  0  0  0  0  0  0
   12.8950  -12.2400   -3.6160 C   0  0  0  0  0  0  0  0  0  0  0  0
   13.5100  -12.3530   -4.7270 O   0  0  0  0  0  0  0  0  0  0  0  0
   11.5600  -12.6650   -3.4400 C   0  0  0  0  0  0  0  0  0  0  0  0
   10.8810  -12.5970   -2.1980 C   0  0  0  0  0  0  0  0  0  0  0  0
    6.8830  -13.2130   -4.3720 C   0  0  0  0  0  0  0  0  0  0  0  0
    5.9130  -12.5350   -5.0920 C   0  0  0  0  0  0  0  0  0  0  0  0
    5.7170  -13.2400   -6.6400 S   0  0  0  0  0  0  0  0  0  0  0  0
    6.9050  -14.4060   -6.2380 C   0  0  0  0  0  0  0  0  0  0  0  0
    7.4330  -14.3190   -5.0380 N   0  0  0  0  0  0  0  0  0  0  0  0
    4.4580  -12.6250   -0.4690 C   0  0  0  0  0  0  0  0  0  0  0  0
    3.1980  -12.1830   -0.8940 C   0  0  0  0  0  0  0  0  0  0  0  0
    2.0310  -12.5630   -0.2200 C   0  0  0  0  0  0  0  0  0  0  0  0
    2.1740  -13.3940    0.9000 C   0  0  0  0  0  0  0  0  0  0  0  0
    3.4160  -13.8200    1.3490 C   0  0  0  0  0  0  0  0  0  0  0  0
    4.5790  -13.4350    0.6680 C   0  0  0  0  0  0  0  0  0  0  0  0
    3.2860  -14.6000    2.4610 N   0  0  0  0  0  0  0  0  0  0  0  0
    1.9930  -14.6400    2.7590 C   0  0  0  0  0  0  0  0  0  0  0  0
    1.4910  -15.3260    3.9580 C   0  0  0  0  0  0  0  0  0  0  0  0
    0.9660  -14.5890    5.0180 C   0  0  0  0  0  0  0  0  0  0  0  0
    0.4550  -15.2610    6.1250 C   0  0  0  0  0  0  0  0  0  0  0  0
    0.4680  -16.6490    6.1400 C   0  0  0  0  0  0  0  0  0  0  0  0
    0.9940  -17.3060    5.0410 C   0  0  0  0  0  0  0  0  0  0  0  0
    1.5040  -16.6800    3.9560 N   0  0  0  0  0  0  0  0  0  0  0  0
    1.2650  -13.9760    1.7790 N   0  0  0  0  0  0  0  0  0  0  0  0
   -0.1810  -13.9110    1.5740 C   0  0  0  0  0  0  0  0  0  0  0  0
   -0.8250  -12.5460    1.8770 C   0  0  0  0  0  0  0  0  0  0  0  0
   -2.3450  -12.6000    1.7210 C   0  0  0  0  0  0  0  0  0  0  0  0
   -2.7500  -13.1500    0.3560 C   0  0  0  0  0  0  0  0  0  0  0  0
   -2.1570  -14.5340    0.1120 C   0  0  0  0  0  0  0  0  0  0  0  0
   -0.6350  -14.5350    0.2450 C   0  0  0  0  0  0  0  0  0  0  0  0
    5.7320  -14.0320   -2.2410 H   0  0  0  0  0  0  0  0  0  0  0  0
    7.7128  -11.8607   -2.9031 H   0  0  0  0  0  0  0  0  0  0  0  0
    8.1362  -14.5538   -1.8440 H   0  0  0  0  0  0  0  0  0  0  0  0
    9.0173  -14.1205   -3.4055 H   0  0  0  0  0  0  0  0  0  0  0  0
    8.6687  -12.8336    0.2806 H   0  0  0  0  0  0  0  0  0  0  0  0
   10.9380  -11.7080    0.8700 H   0  0  0  0  0  0  0  0  0  0  0  0
   13.3771  -11.1062   -0.3644 H   0  0  0  0  0  0  0  0  0  0  0  0
   14.5339  -11.3315   -2.5593 H   0  0  0  0  0  0  0  0  0  0  0  0
   11.0206  -13.0686   -4.3096 H   0  0  0  0  0  0  0  0  0  0  0  0
    5.3485  -11.6666   -4.7216 H   0  0  0  0  0  0  0  0  0  0  0  0
    7.2106  -15.1882   -6.9484 H   0  0  0  0  0  0  0  0  0  0  0  0
    3.1244  -11.5257   -1.7729 H   0  0  0  0  0  0  0  0  0  0  0  0
    1.0405  -12.2227   -0.5562 H   0  0  0  0  0  0  0  0  0  0  0  0
    5.5684  -13.7627    1.0196 H   0  0  0  0  0  0  0  0  0  0  0  0
    0.9555  -13.4897    4.9804 H   0  0  0  0  0  0  0  0  0  0  0  0
    0.0459  -14.6989    6.9775 H   0  0  0  0  0  0  0  0  0  0  0  0
    0.0722  -17.2100    6.9994 H   0  0  0  0  0  0  0  0  0  0  0  0
    0.9974  -18.4060    5.0507 H   0  0  0  0  0  0  0  0  0  0  0  0
   -0.5914  -14.5612    2.3606 H   0  0  0  0  0  0  0  0  0  0  0  0
   -0.5812  -12.2565    2.9098 H   0  0  0  0  0  0  0  0  0  0  0  0
   -0.4293  -11.8098    1.1618 H   0  0  0  0  0  0  0  0  0  0  0  0
   -2.7616  -13.2490    2.5054 H   0  0  0  0  0  0  0  0  0  0  0  0
   -2.7368  -11.5760    1.8096 H   0  0  0  0  0  0  0  0  0  0  0  0
   -3.8469  -13.2179    0.3093 H   0  0  0  0  0  0  0  0  0  0  0  0
   -2.3662  -12.4690   -0.4179 H   0  0  0  0  0  0  0  0  0  0  0  0
   -2.5784  -15.2357    0.8469 H   0  0  0  0  0  0  0  0  0  0  0  0
   -2.4089  -14.8357   -0.9154 H   0  0  0  0  0  0  0  0  0  0  0  0
   -0.2734  -15.5727    0.1963 H   0  0  0  0  0  0  0  0  0  0  0  0
   -0.2182  -13.9339   -0.5766 H   0  0  0  0  0  0  0  0  0  0  0  0
  1  2  2  0
  2  3  1  0
  3  4  1  0
  4  5  1  0
  5  6  1  0
  6  7  2  0
  7  8  1  0
  8  9  1  0
  9 10  2  0
 10 11  1  0
 11 12  2  0
 12 13  1  0
 12 14  1  0
 14 15  2  0
  4 16  1  0
 16 17  2  0
 17 18  1  0
 18 19  1  0
 19 20  2  0
  2 21  1  0
 21 22  2  0
 22 23  1  0
 23 24  2  0
 24 25  1  0
 25 26  2  0
 25 27  1  0
 27 28  2  0
 28 29  1  0
 29 30  2  0
 30 31  1  0
 31 32  2  0
 32 33  1  0
 33 34  2  0
 28 35  1  0
 35 36  1  0
 36 37  1  0
 37 38  1  0
 38 39  1  0
 39 40  1  0
 40 41  1  0
 15  6  1  0
 20 16  1  0
 26 21  1  0
 34 29  1  0
 41 36  1  0
 15  9  1  0
 35 24  1  0
  3 42  1  0
  4 43  1  6
  5 44  1  0
  5 45  1  0
  7 46  1  0
  8 47  1  0
 10 48  1  0
 11 49  1  0
 14 50  1  0
 17 51  1  0
 19 52  1  0
 22 53  1  0
 23 54  1  0
 26 55  1  0
 30 56  1  0
 31 57  1  0
 32 58  1  0
 33 59  1  0
 36 60  1  0
 37 61  1  0
 37 62  1  0
 38 63  1  0
 38 64  1  0
 39 65  1  0
 39 66  1  0
 40 67  1  0
 40 68  1  0
 41 69  1  0
 41 70  1  0
M  CHG  1  13  -1
M  END
>  <meeko>  (4) 
{"is_sidechain": [false], "free_energy": -8.487, "intermolecular_energy": -12.356, "internal_energy": -1.571}

$$$$
LIB_CTJUVPHBVVMJHR__M_PUB_ALL__e8__s20260927
     RDKit          3D

 70 76  0  0  0  0  0  0  0  0999 V2000
    4.5030  -13.0000   -4.4300 O   0  0  0  0  0  0  0  0  0  0  0  0
    4.5080  -13.7100   -3.4320 C   0  0  0  0  0  0  0  0  0  0  0  0
    5.5740  -14.4760   -3.0430 N   0  0  0  0  0  0  0  0  0  0  0  0
    6.8120  -14.6120   -3.8180 C   0  0  1  0  0  0  0  0  0  0  0  0
    7.9850  -13.8940   -3.1190 C   0  0  0  0  0  0  0  0  0  0  0  0
    7.6170  -12.6840   -2.3090 C   0  0  0  0  0  0  0  0  0  0  0  0
    7.4940  -11.3950   -2.7970 C   0  0  0  0  0  0  0  0  0  0  0  0
    7.1030  -10.5830   -1.7670 N   0  0  0  0  0  0  0  0  0  0  0  0
    6.9540  -11.3140   -0.6160 C   0  0  0  0  0  0  0  0  0  0  0  0
    6.5380  -10.9210    0.6550 C   0  0  0  0  0  0  0  0  0  0  0  0
    6.4620  -11.9150    1.6460 C   0  0  0  0  0  0  0  0  0  0  0  0
    6.7960  -13.2650    1.4420 C   0  0  0  0  0  0  0  0  0  0  0  0
    6.6990  -14.1420    2.3630 O   0  0  0  0  0  0  0  0  0  0  0  0
    7.2420  -13.5780    0.1390 C   0  0  0  0  0  0  0  0  0  0  0  0
    7.3040  -12.6280   -0.9090 C   0  0  0  0  0  0  0  0  0  0  0  0
    7.0190  -16.1090   -3.9660 C   0  0  0  0  0  0  0  0  0  0  0  0
    6.1670  -17.1030   -3.5150 C   0  0  0  0  0  0  0  0  0  0  0  0
    6.7990  -18.6480   -3.8950 S   0  0  0  0  0  0  0  0  0  0  0  0
    8.1640  -17.8950   -4.6030 C   0  0  0  0  0  0  0  0  0  0  0  0
    8.1940  -16.5810   -4.5730 N   0  0  0  0  0  0  0  0  0  0  0  0
    3.3220  -13.7440   -2.5330 C   0  0  0  0  0  0  0  0  0  0  0  0
    2.5080  -14.8800   -2.4370 C   0  0  0  0  0  0  0  0  0  0  0  0
    1.3980  -14.9070   -1.5830 C   0  0  0  0  0  0  0  0  0  0  0  0
    1.1300  -13.7520   -0.8350 C   0  0  0  0  0  0  0  0  0  0  0  0
    1.9120  -12.6090   -0.9360 C   0  0  0  0  0  0  0  0  0  0  0  0
    3.0210  -12.5910   -1.7940 C   0  0  0  0  0  0  0  0  0  0  0  0
    1.4340  -11.6230   -0.1240 N   0  0  0  0  0  0  0  0  0  0  0  0
    0.3370  -12.0950    0.4550 C   0  0  0  0  0  0  0  0  0  0  0  0
   -0.4960  -11.2650    1.3390 C   0  0  0  0  0  0  0  0  0  0  0  0
   -0.8030  -11.7050    2.6250 C   0  0  0  0  0  0  0  0  0  0  0  0
   -1.5540  -10.8840    3.4610 C   0  0  0  0  0  0  0  0  0  0  0  0
   -1.9680   -9.6430    2.9980 C   0  0  0  0  0  0  0  0  0  0  0  0
   -1.6090   -9.2760    1.7120 C   0  0  0  0  0  0  0  0  0  0  0  0
   -0.8860  -10.0550    0.8760 N   0  0  0  0  0  0  0  0  0  0  0  0
    0.1580  -13.4280    0.1060 N   0  0  0  0  0  0  0  0  0  0  0  0
   -0.7890  -14.4110    0.6300 C   0  0  0  0  0  0  0  0  0  0  0  0
   -1.6800  -15.0900   -0.4250 C   0  0  0  0  0  0  0  0  0  0  0  0
   -2.6950  -16.0310    0.2250 C   0  0  0  0  0  0  0  0  0  0  0  0
   -2.0150  -17.0350    1.1520 C   0  0  0  0  0  0  0  0  0  0  0  0
   -1.1970  -16.3340    2.2320 C   0  0  0  0  0  0  0  0  0  0  0  0
   -0.1570  -15.3860    1.6360 C   0  0  0  0  0  0  0  0  0  0  0  0
    5.5870  -14.9550   -2.1510 H   0  0  0  0  0  0  0  0  0  0  0  0
    6.7531  -14.1336   -4.8067 H   0  0  0  0  0  0  0  0  0  0  0  0
    8.4710  -14.6161   -2.4464 H   0  0  0  0  0  0  0  0  0  0  0  0
    8.6369  -13.5282   -3.9260 H   0  0  0  0  0  0  0  0  0  0  0  0
    7.6786  -11.0777   -3.8339 H   0  0  0  0  0  0  0  0  0  0  0  0
    6.9250   -9.5940   -1.8350 H   0  0  0  0  0  0  0  0  0  0  0  0
    6.2794   -9.8745    0.8738 H   0  0  0  0  0  0  0  0  0  0  0  0
    6.1184  -11.6166    2.6474 H   0  0  0  0  0  0  0  0  0  0  0  0
    7.5567  -14.6107   -0.0720 H   0  0  0  0  0  0  0  0  0  0  0  0
    5.2184  -16.9251   -2.9873 H   0  0  0  0  0  0  0  0  0  0  0  0
    8.9750  -18.4811   -5.0599 H   0  0  0  0  0  0  0  0  0  0  0  0
    2.7447  -15.7668   -3.0432 H   0  0  0  0  0  0  0  0  0  0  0  0
    0.7611  -15.8002   -1.5024 H   0  0  0  0  0  0  0  0  0  0  0  0
    3.6435  -11.6887   -1.8857 H   0  0  0  0  0  0  0  0  0  0  0  0
   -0.4563  -12.6885    2.9749 H   0  0  0  0  0  0  0  0  0  0  0  0
   -1.8163  -11.2149    4.4767 H   0  0  0  0  0  0  0  0  0  0  0  0
   -2.5635   -8.9710    3.6335 H   0  0  0  0  0  0  0  0  0  0  0  0
   -1.9320   -8.2895    1.3479 H   0  0  0  0  0  0  0  0  0  0  0  0
   -1.5043  -13.8098    1.2105 H   0  0  0  0  0  0  0  0  0  0  0  0
   -2.2201  -14.3156   -0.9895 H   0  0  0  0  0  0  0  0  0  0  0  0
   -1.0367  -15.6820   -1.0926 H   0  0  0  0  0  0  0  0  0  0  0  0
   -3.4121  -15.4349    0.8085 H   0  0  0  0  0  0  0  0  0  0  0  0
   -3.2067  -16.5899   -0.5724 H   0  0  0  0  0  0  0  0  0  0  0  0
   -2.7852  -17.6556    1.6333 H   0  0  0  0  0  0  0  0  0  0  0  0
   -1.3333  -17.6537    0.5499 H   0  0  0  0  0  0  0  0  0  0  0  0
   -1.8777  -15.7562    2.8744 H   0  0  0  0  0  0  0  0  0  0  0  0
   -0.6642  -17.1042    2.8090 H   0  0  0  0  0  0  0  0  0  0  0  0
    0.3069  -14.8085    2.4492 H   0  0  0  0  0  0  0  0  0  0  0  0
    0.5933  -15.9896    1.1044 H   0  0  0  0  0  0  0  0  0  0  0  0
  1  2  2  0
  2  3  1  0
  3  4  1  0
  4  5  1  0
  5  6  1  0
  6  7  2  0
  7  8  1  0
  8  9  1  0
  9 10  2  0
 10 11  1  0
 11 12  2  0
 12 13  1  0
 12 14  1  0
 14 15  2  0
  4 16  1  0
 16 17  2  0
 17 18  1  0
 18 19  1  0
 19 20  2  0
  2 21  1  0
 21 22  2  0
 22 23  1  0
 23 24  2  0
 24 25  1  0
 25 26  2  0
 25 27  1  0
 27 28  2  0
 28 29  1  0
 29 30  2  0
 30 31  1  0
 31 32  2  0
 32 33  1  0
 33 34  2  0
 28 35  1  0
 35 36  1  0
 36 37  1  0
 37 38  1  0
 38 39  1  0
 39 40  1  0
 40 41  1  0
 15  6  1  0
 20 16  1  0
 26 21  1  0
 34 29  1  0
 41 36  1  0
 15  9  1  0
 35 24  1  0
  3 42  1  0
  4 43  1  6
  5 44  1  0
  5 45  1  0
  7 46  1  0
  8 47  1  0
 10 48  1  0
 11 49  1  0
 14 50  1  0
 17 51  1  0
 19 52  1  0
 22 53  1  0
 23 54  1  0
 26 55  1  0
 30 56  1  0
 31 57  1  0
 32 58  1  0
 33 59  1  0
 36 60  1  0
 37 61  1  0
 37 62  1  0
 38 63  1  0
 38 64  1  0
 39 65  1  0
 39 66  1  0
 40 67  1  0
 40 68  1  0
 41 69  1  0
 41 70  1  0
M  CHG  1  13  -1
M  END
>  <meeko>  (5) 
{"is_sidechain": [false], "free_energy": -8.451, "intermolecular_energy": -12.015, "internal_energy": -1.86}

$$$$
LIB_CTJUVPHBVVMJHR__M_PUB_ALL__e8__s20260927
     RDKit          3D

 70 76  0  0  0  0  0  0  0  0999 V2000
    1.1110  -15.2050    6.7940 O   0  0  0  0  0  0  0  0  0  0  0  0
    1.1070  -15.8370    5.7460 C   0  0  0  0  0  0  0  0  0  0  0  0
    1.2860  -17.1910    5.6670 N   0  0  0  0  0  0  0  0  0  0  0  0
    1.5950  -18.0450    6.8190 C   0  0  1  0  0  0  0  0  0  0  0  0
    0.3290  -18.7650    7.3300 C   0  0  0  0  0  0  0  0  0  0  0  0
   -0.9620  -18.0220    7.1430 C   0  0  0  0  0  0  0  0  0  0  0  0
   -1.5820  -17.2310    8.0950 C   0  0  0  0  0  0  0  0  0  0  0  0
   -2.7080  -16.6920    7.5360 N   0  0  0  0  0  0  0  0  0  0  0  0
   -2.8340  -17.0980    6.2320 C   0  0  0  0  0  0  0  0  0  0  0  0
   -3.7910  -16.7720    5.2730 C   0  0  0  0  0  0  0  0  0  0  0  0
   -3.6430  -17.3380    3.9950 C   0  0  0  0  0  0  0  0  0  0  0  0
   -2.6110  -18.2210    3.6330 C   0  0  0  0  0  0  0  0  0  0  0  0
   -2.5020  -18.7020    2.4570 O   0  0  0  0  0  0  0  0  0  0  0  0
   -1.7020  -18.5300    4.6670 C   0  0  0  0  0  0  0  0  0  0  0  0
   -1.7780  -17.9630    5.9630 C   0  0  0  0  0  0  0  0  0  0  0  0
    2.6750  -18.9930    6.3270 C   0  0  0  0  0  0  0  0  0  0  0  0
    2.5870  -19.8380    5.2340 C   0  0  0  0  0  0  0  0  0  0  0  0
    4.0380  -20.7280    5.0510 S   0  0  0  0  0  0  0  0  0  0  0  0
    4.6660  -19.9560    6.4440 C   0  0  0  0  0  0  0  0  0  0  0  0
    3.8780  -19.0900    7.0430 N   0  0  0  0  0  0  0  0  0  0  0  0
    0.8520  -15.1400    4.4540 C   0  0  0  0  0  0  0  0  0  0  0  0
    1.8630  -14.9800    3.4970 C   0  0  0  0  0  0  0  0  0  0  0  0
    1.6150  -14.3300    2.2820 C   0  0  0  0  0  0  0  0  0  0  0  0
    0.3190  -13.8410    2.0640 C   0  0  0  0  0  0  0  0  0  0  0  0
   -0.6870  -13.9690    3.0110 C   0  0  0  0  0  0  0  0  0  0  0  0
   -0.4300  -14.6210    4.2250 C   0  0  0  0  0  0  0  0  0  0  0  0
   -1.8430  -13.3970    2.5680 N   0  0  0  0  0  0  0  0  0  0  0  0
   -1.5830  -12.8630    1.3810 C   0  0  0  0  0  0  0  0  0  0  0  0
   -2.5860  -12.0840    0.6400 C   0  0  0  0  0  0  0  0  0  0  0  0
   -2.4090  -10.7140    0.4540 C   0  0  0  0  0  0  0  0  0  0  0  0
   -3.3470  -10.0030   -0.2890 C   0  0  0  0  0  0  0  0  0  0  0  0
   -4.4290  -10.6790   -0.8370 C   0  0  0  0  0  0  0  0  0  0  0  0
   -4.5240  -12.0430   -0.6170 C   0  0  0  0  0  0  0  0  0  0  0  0
   -3.6310  -12.7570    0.1060 N   0  0  0  0  0  0  0  0  0  0  0  0
   -0.2860  -13.1810    0.9980 N   0  0  0  0  0  0  0  0  0  0  0  0
    0.3850  -12.9800   -0.2860 C   0  0  0  0  0  0  0  0  0  0  0  0
    1.4530  -11.8710   -0.3010 C   0  0  0  0  0  0  0  0  0  0  0  0
    2.0310  -11.6740   -1.7010 C   0  0  0  0  0  0  0  0  0  0  0  0
    2.5410  -12.9880   -2.2880 C   0  0  0  0  0  0  0  0  0  0  0  0
    1.4430  -14.0460   -2.3280 C   0  0  0  0  0  0  0  0  0  0  0  0
    0.8360  -14.2910   -0.9480 C   0  0  0  0  0  0  0  0  0  0  0  0
    1.1570  -17.6960    4.7980 H   0  0  0  0  0  0  0  0  0  0  0  0
    1.9529  -17.4761    7.6897 H   0  0  0  0  0  0  0  0  0  0  0  0
    0.2473  -19.7240    6.7975 H   0  0  0  0  0  0  0  0  0  0  0  0
    0.4609  -18.8686    8.4171 H   0  0  0  0  0  0  0  0  0  0  0  0
   -1.2298  -17.0646    9.1237 H   0  0  0  0  0  0  0  0  0  0  0  0
   -3.3490  -16.0650    7.9960 H   0  0  0  0  0  0  0  0  0  0  0  0
   -4.6288  -16.0986    5.5068 H   0  0  0  0  0  0  0  0  0  0  0  0
   -4.3842  -17.0722    3.2269 H   0  0  0  0  0  0  0  0  0  0  0  0
   -0.8944  -19.2466    4.4564 H   0  0  0  0  0  0  0  0  0  0  0  0
    1.7095  -19.9252    4.5765 H   0  0  0  0  0  0  0  0  0  0  0  0
    5.6771  -20.1732    6.8189 H   0  0  0  0  0  0  0  0  0  0  0  0
    2.8696  -15.3722    3.7041 H   0  0  0  0  0  0  0  0  0  0  0  0
    2.4062  -14.2077    1.5276 H   0  0  0  0  0  0  0  0  0  0  0  0
   -1.2196  -14.7235    4.9839 H   0  0  0  0  0  0  0  0  0  0  0  0
   -1.5387  -10.2010    0.8891 H   0  0  0  0  0  0  0  0  0  0  0  0
   -3.2326   -8.9195   -0.4401 H   0  0  0  0  0  0  0  0  0  0  0  0
   -5.1885  -10.1467   -1.4285 H   0  0  0  0  0  0  0  0  0  0  0  0
   -5.3780  -12.5787   -1.0572 H   0  0  0  0  0  0  0  0  0  0  0  0
   -0.4034  -12.5764   -0.9383 H   0  0  0  0  0  0  0  0  0  0  0  0
    0.9950  -10.9284    0.0332 H   0  0  0  0  0  0  0  0  0  0  0  0
    2.2703  -12.1678    0.3727 H   0  0  0  0  0  0  0  0  0  0  0  0
    1.2463  -11.2703   -2.3577 H   0  0  0  0  0  0  0  0  0  0  0  0
    2.8791  -10.9772   -1.6284 H   0  0  0  0  0  0  0  0  0  0  0  0
    2.9000  -12.8066   -3.3118 H   0  0  0  0  0  0  0  0  0  0  0  0
    3.3547  -13.3592   -1.6476 H   0  0  0  0  0  0  0  0  0  0  0  0
    0.6491  -13.7087   -3.0107 H   0  0  0  0  0  0  0  0  0  0  0  0
    1.8912  -14.9887   -2.6750 H   0  0  0  0  0  0  0  0  0  0  0  0
   -0.0346  -14.9550   -1.0540 H   0  0  0  0  0  0  0  0  0  0  0  0
    1.6060  -14.7503   -0.3108 H   0  0  0  0  0  0  0  0  0  0  0  0
  1  2  2  0
  2  3  1  0
  3  4  1  0
  4  5  1  0
  5  6  1  0
  6  7  2  0
  7  8  1  0
  8  9  1  0
  9 10  2  0
 10 11  1  0
 11 12  2  0
 12 13  1  0
 12 14  1  0
 14 15  2  0
  4 16  1  0
 16 17  2  0
 17 18  1  0
 18 19  1  0
 19 20  2  0
  2 21  1  0
 21 22  2  0
 22 23  1  0
 23 24  2  0
 24 25  1  0
 25 26  2  0
 25 27  1  0
 27 28  2  0
 28 29  1  0
 29 30  2  0
 30 31  1  0
 31 32  2  0
 32 33  1  0
 33 34  2  0
 28 35  1  0
 35 36  1  0
 36 37  1  0
 37 38  1  0
 38 39  1  0
 39 40  1  0
 40 41  1  0
 15  6  1  0
 20 16  1  0
 26 21  1  0
 34 29  1  0
 41 36  1  0
 15  9  1  0
 35 24  1  0
  3 42  1  0
  4 43  1  1
  5 44  1  0
  5 45  1  0
  7 46  1  0
  8 47  1  0
 10 48  1  0
 11 49  1  0
 14 50  1  0
 17 51  1  0
 19 52  1  0
 22 53  1  0
 23 54  1  0
 26 55  1  0
 30 56  1  0
 31 57  1  0
 32 58  1  0
 33 59  1  0
 36 60  1  0
 37 61  1  0
 37 62  1  0
 38 63  1  0
 38 64  1  0
 39 65  1  0
 39 66  1  0
 40 67  1  0
 40 68  1  0
 41 69  1  0
 41 70  1  0
M  CHG  1  13  -1
M  END
>  <meeko>  (6) 
{"is_sidechain": [false], "free_energy": -8.315, "intermolecular_energy": -11.717, "internal_energy": -1.967}

$$$$
LIB_CTJUVPHBVVMJHR__M_PUB_ALL__e8__s20260927
     RDKit          3D

 70 76  0  0  0  0  0  0  0  0999 V2000
    6.1990  -12.2740   -2.9610 O   0  0  0  0  0  0  0  0  0  0  0  0
    6.0400  -13.2210   -2.2020 C   0  0  0  0  0  0  0  0  0  0  0  0
    7.0540  -14.0240   -1.7570 N   0  0  0  0  0  0  0  0  0  0  0  0
    8.4480  -13.9070   -2.2010 C   0  0  1  0  0  0  0  0  0  0  0  0
    9.4230  -14.1330   -1.0270 C   0  0  0  0  0  0  0  0  0  0  0  0
   10.5000  -13.0990   -0.8660 C   0  0  0  0  0  0  0  0  0  0  0  0
   10.7030  -12.3150    0.2560 C   0  0  0  0  0  0  0  0  0  0  0  0
   11.8030  -11.5310    0.0370 N   0  0  0  0  0  0  0  0  0  0  0  0
   12.3350  -11.7930   -1.1990 C   0  0  0  0  0  0  0  0  0  0  0  0
   13.4660  -11.2700   -1.8240 C   0  0  0  0  0  0  0  0  0  0  0  0
   13.7780  -11.7550   -3.1060 C   0  0  0  0  0  0  0  0  0  0  0  0
   13.0150  -12.7120   -3.7990 C   0  0  0  0  0  0  0  0  0  0  0  0
   13.3400  -13.1390   -4.9560 O   0  0  0  0  0  0  0  0  0  0  0  0
   11.8680  -13.1680   -3.1150 C   0  0  0  0  0  0  0  0  0  0  0  0
   11.5230  -12.7430   -1.8080 C   0  0  0  0  0  0  0  0  0  0  0  0
    8.5920  -14.9280   -3.3150 C   0  0  0  0  0  0  0  0  0  0  0  0
    8.8970  -16.2700   -3.1620 C   0  0  0  0  0  0  0  0  0  0  0  0
    8.9630  -17.0450   -4.6870 S   0  0  0  0  0  0  0  0  0  0  0  0
    8.6130  -15.5480   -5.4410 C   0  0  0  0  0  0  0  0  0  0  0  0
    8.4580  -14.5110   -4.6480 N   0  0  0  0  0  0  0  0  0  0  0  0
    4.6840  -13.5330   -1.6710 C   0  0  0  0  0  0  0  0  0  0  0  0
    4.0790  -14.7770   -1.8940 C   0  0  0  0  0  0  0  0  0  0  0  0
    2.8070  -15.0660   -1.3850 C   0  0  0  0  0  0  0  0  0  0  0  0
    2.1610  -14.0610   -0.6510 C   0  0  0  0  0  0  0  0  0  0  0  0
    2.7360  -12.8150   -0.4420 C   0  0  0  0  0  0  0  0  0  0  0  0
    4.0100  -12.5350   -0.9550 C   0  0  0  0  0  0  0  0  0  0  0  0
    1.9020  -12.0150    0.2820 N   0  0  0  0  0  0  0  0  0  0  0  0
    0.7890  -12.7050    0.4960 C   0  0  0  0  0  0  0  0  0  0  0  0
   -0.3730  -12.1170    1.1780 C   0  0  0  0  0  0  0  0  0  0  0  0
   -0.5920  -12.3700    2.5310 C   0  0  0  0  0  0  0  0  0  0  0  0
   -1.6730  -11.7680    3.1680 C   0  0  0  0  0  0  0  0  0  0  0  0
   -2.4990  -10.9190    2.4440 C   0  0  0  0  0  0  0  0  0  0  0  0
   -2.2050  -10.7100    1.1070 C   0  0  0  0  0  0  0  0  0  0  0  0
   -1.1660  -11.2870    0.4610 N   0  0  0  0  0  0  0  0  0  0  0  0
    0.9360  -13.9970    0.0070 N   0  0  0  0  0  0  0  0  0  0  0  0
    0.0680  -15.1620    0.1700 C   0  0  0  0  0  0  0  0  0  0  0  0
    0.1440  -15.8490    1.5460 C   0  0  0  0  0  0  0  0  0  0  0  0
   -0.7260  -17.1040    1.5910 C   0  0  0  0  0  0  0  0  0  0  0  0
   -2.1610  -16.8080    1.1620 C   0  0  0  0  0  0  0  0  0  0  0  0
   -2.2110  -16.1950   -0.2340 C   0  0  0  0  0  0  0  0  0  0  0  0
   -1.3640  -14.9270   -0.3330 C   0  0  0  0  0  0  0  0  0  0  0  0
    6.9050  -14.7220   -1.0380 H   0  0  0  0  0  0  0  0  0  0  0  0
    8.6975  -12.9012   -2.5699 H   0  0  0  0  0  0  0  0  0  0  0  0
    8.8341  -14.1549   -0.0982 H   0  0  0  0  0  0  0  0  0  0  0  0
    9.9440  -15.0764   -1.2476 H   0  0  0  0  0  0  0  0  0  0  0  0
   10.0864  -12.3209    1.1669 H   0  0  0  0  0  0  0  0  0  0  0  0
   12.1910  -10.8690    0.6910 H   0  0  0  0  0  0  0  0  0  0  0  0
   14.0895  -10.5080   -1.3335 H   0  0  0  0  0  0  0  0  0  0  0  0
   14.6782  -11.3601   -3.5997 H   0  0  0  0  0  0  0  0  0  0  0  0
   11.2093  -13.8889   -3.6214 H   0  0  0  0  0  0  0  0  0  0  0  0
    9.0721  -16.7678   -2.1968 H   0  0  0  0  0  0  0  0  0  0  0  0
    8.5224  -15.4585   -6.5336 H   0  0  0  0  0  0  0  0  0  0  0  0
    4.6128  -15.5402   -2.4794 H   0  0  0  0  0  0  0  0  0  0  0  0
    2.3327  -16.0439   -1.5544 H   0  0  0  0  0  0  0  0  0  0  0  0
    4.4724  -11.5493   -0.7982 H   0  0  0  0  0  0  0  0  0  0  0  0
    0.0815  -13.0375    3.0886 H   0  0  0  0  0  0  0  0  0  0  0  0
   -1.8706  -11.9626    4.2325 H   0  0  0  0  0  0  0  0  0  0  0  0
   -3.3611  -10.4271    2.9181 H   0  0  0  0  0  0  0  0  0  0  0  0
   -2.8566  -10.0330    0.5350 H   0  0  0  0  0  0  0  0  0  0  0  0
    0.4994  -15.9132   -0.5079 H   0  0  0  0  0  0  0  0  0  0  0  0
    1.1881  -16.1298    1.7487 H   0  0  0  0  0  0  0  0  0  0  0  0
   -0.2251  -15.1443    2.3057 H   0  0  0  0  0  0  0  0  0  0  0  0
   -0.2994  -17.8587    0.9140 H   0  0  0  0  0  0  0  0  0  0  0  0
   -0.7455  -17.4725    2.6273 H   0  0  0  0  0  0  0  0  0  0  0  0
   -2.7348  -17.7465    1.1612 H   0  0  0  0  0  0  0  0  0  0  0  0
   -2.5920  -16.0866    1.8718 H   0  0  0  0  0  0  0  0  0  0  0  0
   -1.8340  -16.9314   -0.9590 H   0  0  0  0  0  0  0  0  0  0  0  0
   -3.2552  -15.9238   -0.4488 H   0  0  0  0  0  0  0  0  0  0  0  0
   -1.3247  -14.6053   -1.3842 H   0  0  0  0  0  0  0  0  0  0  0  0
   -1.8273  -14.1540    0.2977 H   0  0  0  0  0  0  0  0  0  0  0  0
  1  2  2  0
  2  3  1  0
  3  4  1  0
  4  5  1  0
  5  6  1  0
  6  7  2  0
  7  8  1  0
  8  9  1  0
  9 10  2  0
 10 11  1  0
 11 12  2  0
 12 13  1  0
 12 14  1  0
 14 15  2  0
  4 16  1  0
 16 17  2  0
 17 18  1  0
 18 19  1  0
 19 20  2  0
  2 21  1  0
 21 22  2  0
 22 23  1  0
 23 24  2  0
 24 25  1  0
 25 26  2  0
 25 27  1  0
 27 28  2  0
 28 29  1  0
 29 30  2  0
 30 31  1  0
 31 32  2  0
 32 33  1  0
 33 34  2  0
 28 35  1  0
 35 36  1  0
 36 37  1  0
 37 38  1  0
 38 39  1  0
 39 40  1  0
 40 41  1  0
 15  6  1  0
 20 16  1  0
 26 21  1  0
 34 29  1  0
 41 36  1  0
 15  9  1  0
 35 24  1  0
  3 42  1  0
  4 43  1  6
  5 44  1  0
  5 45  1  0
  7 46  1  0
  8 47  1  0
 10 48  1  0
 11 49  1  0
 14 50  1  0
 17 51  1  0
 19 52  1  0
 22 53  1  0
 23 54  1  0
 26 55  1  0
 30 56  1  0
 31 57  1  0
 32 58  1  0
 33 59  1  0
 36 60  1  0
 37 61  1  0
 37 62  1  0
 38 63  1  0
 38 64  1  0
 39 65  1  0
 39 66  1  0
 40 67  1  0
 40 68  1  0
 41 69  1  0
 41 70  1  0
M  CHG  1  13  -1
M  END
>  <meeko>  (7) 
{"is_sidechain": [false], "free_energy": -8.185, "intermolecular_energy": -11.863, "internal_energy": -1.637}

$$$$
LIB_CTJUVPHBVVMJHR__M_PUB_ALL__e8__s20260927
     RDKit          3D

 70 76  0  0  0  0  0  0  0  0999 V2000
    6.4350  -11.9770   -1.5510 O   0  0  0  0  0  0  0  0  0  0  0  0
    6.3080  -13.1160   -1.1230 C   0  0  0  0  0  0  0  0  0  0  0  0
    7.2390  -14.1050   -1.2910 N   0  0  0  0  0  0  0  0  0  0  0  0
    8.4660  -13.9510   -2.0800 C   0  0  1  0  0  0  0  0  0  0  0  0
    9.6910  -14.4880   -1.3110 C   0  0  0  0  0  0  0  0  0  0  0  0
   10.9760  -13.7420   -1.5290 C   0  0  0  0  0  0  0  0  0  0  0  0
   11.9100  -14.0180   -2.5120 C   0  0  0  0  0  0  0  0  0  0  0  0
   12.9160  -13.0960   -2.4160 N   0  0  0  0  0  0  0  0  0  0  0  0
   12.6560  -12.2110   -1.4010 C   0  0  0  0  0  0  0  0  0  0  0  0
   13.3730  -11.0960   -0.9690 C   0  0  0  0  0  0  0  0  0  0  0  0
   12.8360  -10.3590    0.1000 C   0  0  0  0  0  0  0  0  0  0  0  0
   11.6440  -10.6850    0.7690 C   0  0  0  0  0  0  0  0  0  0  0  0
   11.1810   -9.9810    1.7270 O   0  0  0  0  0  0  0  0  0  0  0  0
   10.9950  -11.8460    0.2980 C   0  0  0  0  0  0  0  0  0  0  0  0
   11.4670  -12.6090   -0.7990 C   0  0  0  0  0  0  0  0  0  0  0  0
    8.1940  -14.6900   -3.3780 C   0  0  0  0  0  0  0  0  0  0  0  0
    7.6220  -15.9450   -3.5020 C   0  0  0  0  0  0  0  0  0  0  0  0
    7.5090  -16.3890   -5.1520 S   0  0  0  0  0  0  0  0  0  0  0  0
    8.2480  -14.9050   -5.5820 C   0  0  0  0  0  0  0  0  0  0  0  0
    8.5810  -14.1050   -4.5940 N   0  0  0  0  0  0  0  0  0  0  0  0
    5.1040  -13.4870   -0.3290 C   0  0  0  0  0  0  0  0  0  0  0  0
    5.0640  -14.6600    0.4350 C   0  0  0  0  0  0  0  0  0  0  0  0
    3.9310  -14.9980    1.1860 C   0  0  0  0  0  0  0  0  0  0  0  0
    2.8380  -14.1220    1.1360 C   0  0  0  0  0  0  0  0  0  0  0  0
    2.8520  -12.9680    0.3650 C   0  0  0  0  0  0  0  0  0  0  0  0
    3.9910  -12.6370   -0.3830 C   0  0  0  0  0  0  0  0  0  0  0  0
    1.6670  -12.3000    0.4730 N   0  0  0  0  0  0  0  0  0  0  0  0
    0.8810  -13.0280    1.2560 C   0  0  0  0  0  0  0  0  0  0  0  0
   -0.5140  -12.6510    1.5250 C   0  0  0  0  0  0  0  0  0  0  0  0
   -0.8220  -11.8460    2.6210 C   0  0  0  0  0  0  0  0  0  0  0  0
   -2.1440  -11.4640    2.8320 C   0  0  0  0  0  0  0  0  0  0  0  0
   -3.1210  -11.8830    1.9390 C   0  0  0  0  0  0  0  0  0  0  0  0
   -2.7300  -12.6690    0.8680 C   0  0  0  0  0  0  0  0  0  0  0  0
   -1.4550  -13.0610    0.6430 N   0  0  0  0  0  0  0  0  0  0  0  0
    1.5890  -14.1170    1.7500 N   0  0  0  0  0  0  0  0  0  0  0  0
    1.2140  -15.0850    2.7790 C   0  0  0  0  0  0  0  0  0  0  0  0
    1.1540  -14.5270    4.2130 C   0  0  0  0  0  0  0  0  0  0  0  0
    0.8450  -15.6280    5.2270 C   0  0  0  0  0  0  0  0  0  0  0  0
   -0.4140  -16.4030    4.8470 C   0  0  0  0  0  0  0  0  0  0  0  0
   -0.2990  -17.0060    3.4500 C   0  0  0  0  0  0  0  0  0  0  0  0
    0.0010  -15.9450    2.3930 C   0  0  0  0  0  0  0  0  0  0  0  0
    7.1570  -15.0000   -0.8220 H   0  0  0  0  0  0  0  0  0  0  0  0
    8.7141  -12.8988   -2.2830 H   0  0  0  0  0  0  0  0  0  0  0  0
    9.4577  -14.4522   -0.2366 H   0  0  0  0  0  0  0  0  0  0  0  0
    9.8651  -15.5034   -1.6965 H   0  0  0  0  0  0  0  0  0  0  0  0
   11.8533  -14.8371   -3.2440 H   0  0  0  0  0  0  0  0  0  0  0  0
   13.7270  -13.0480   -3.0130 H   0  0  0  0  0  0  0  0  0  0  0  0
   14.3207  -10.8051   -1.4457 H   0  0  0  0  0  0  0  0  0  0  0  0
   13.3855   -9.4671    0.4357 H   0  0  0  0  0  0  0  0  0  0  0  0
   10.0773  -12.1751    0.8075 H   0  0  0  0  0  0  0  0  0  0  0  0
    7.2875  -16.5685   -2.6598 H   0  0  0  0  0  0  0  0  0  0  0  0
    8.4345  -14.6352   -6.6320 H   0  0  0  0  0  0  0  0  0  0  0  0
    5.9380  -15.3279    0.4455 H   0  0  0  0  0  0  0  0  0  0  0  0
    3.9002  -15.9157    1.7917 H   0  0  0  0  0  0  0  0  0  0  0  0
    4.0105  -11.7270   -1.0007 H   0  0  0  0  0  0  0  0  0  0  0  0
   -0.0304  -11.5169    3.3103 H   0  0  0  0  0  0  0  0  0  0  0  0
   -2.4113  -10.8377    3.6959 H   0  0  0  0  0  0  0  0  0  0  0  0
   -4.1746  -11.5990    2.0781 H   0  0  0  0  0  0  0  0  0  0  0  0
   -3.5035  -12.9945    0.1568 H   0  0  0  0  0  0  0  0  0  0  0  0
    2.0672  -15.7783    2.8148 H   0  0  0  0  0  0  0  0  0  0  0  0
    2.1249  -14.0737    4.4616 H   0  0  0  0  0  0  0  0  0  0  0  0
    0.3501  -13.7776    4.2597 H   0  0  0  0  0  0  0  0  0  0  0  0
    1.6950  -16.3251    5.2675 H   0  0  0  0  0  0  0  0  0  0  0  0
    0.6771  -15.1569    6.2067 H   0  0  0  0  0  0  0  0  0  0  0  0
   -0.5681  -17.2135    5.5746 H   0  0  0  0  0  0  0  0  0  0  0  0
   -1.2640  -15.7048    4.8527 H   0  0  0  0  0  0  0  0  0  0  0  0
    0.5130  -17.7481    3.4490 H   0  0  0  0  0  0  0  0  0  0  0  0
   -1.2635  -17.4721    3.2001 H   0  0  0  0  0  0  0  0  0  0  0  0
    0.2086  -16.4447    1.4353 H   0  0  0  0  0  0  0  0  0  0  0  0
   -0.8752  -15.2849    2.3116 H   0  0  0  0  0  0  0  0  0  0  0  0
  1  2  2  0
  2  3  1  0
  3  4  1  0
  4  5  1  0
  5  6  1  0
  6  7  2  0
  7  8  1  0
  8  9  1  0
  9 10  2  0
 10 11  1  0
 11 12  2  0
 12 13  1  0
 12 14  1  0
 14 15  2  0
  4 16  1  0
 16 17  2  0
 17 18  1  0
 18 19  1  0
 19 20  2  0
  2 21  1  0
 21 22  2  0
 22 23  1  0
 23 24  2  0
 24 25  1  0
 25 26  2  0
 25 27  1  0
 27 28  2  0
 28 29  1  0
 29 30  2  0
 30 31  1  0
 31 32  2  0
 32 33  1  0
 33 34  2  0
 28 35  1  0
 35 36  1  0
 36 37  1  0
 37 38  1  0
 38 39  1  0
 39 40  1  0
 40 41  1  0
 15  6  1  0
 20 16  1  0
 26 21  1  0
 34 29  1  0
 41 36  1  0
 15  9  1  0
 35 24  1  0
  3 42  1  0
  4 43  1  6
  5 44  1  0
  5 45  1  0
  7 46  1  0
  8 47  1  0
 10 48  1  0
 11 49  1  0
 14 50  1  0
 17 51  1  0
 19 52  1  0
 22 53  1  0
 23 54  1  0
 26 55  1  0
 30 56  1  0
 31 57  1  0
 32 58  1  0
 33 59  1  0
 36 60  1  0
 37 61  1  0
 37 62  1  0
 38 63  1  0
 38 64  1  0
 39 65  1  0
 39 66  1  0
 40 67  1  0
 40 68  1  0
 41 69  1  0
 41 70  1  0
M  CHG  1  13  -1
M  END
>  <meeko>  (8) 
{"is_sidechain": [false], "free_energy": -8.169, "intermolecular_energy": -11.829, "internal_energy": -1.649}

$$$$
LIB_CTJUVPHBVVMJHR__M_PUB_ALL__e8__s20260927
     RDKit          3D

 70 76  0  0  0  0  0  0  0  0999 V2000
    5.2410  -16.3700   -0.3140 O   0  0  0  0  0  0  0  0  0  0  0  0
    4.8530  -15.2110   -0.2430 C   0  0  0  0  0  0  0  0  0  0  0  0
    5.5760  -14.1330   -0.6790 N   0  0  0  0  0  0  0  0  0  0  0  0
    6.9420  -14.2210   -1.2050 C   0  0  1  0  0  0  0  0  0  0  0  0
    6.9760  -13.8990   -2.7130 C   0  0  0  0  0  0  0  0  0  0  0  0
    5.7040  -14.1660   -3.4650 C   0  0  0  0  0  0  0  0  0  0  0  0
    5.3440  -15.3740   -4.0370 C   0  0  0  0  0  0  0  0  0  0  0  0
    4.1010  -15.2320   -4.5900 N   0  0  0  0  0  0  0  0  0  0  0  0
    3.6290  -13.9610   -4.3810 C   0  0  0  0  0  0  0  0  0  0  0  0
    2.4090  -13.3830   -4.7270 C   0  0  0  0  0  0  0  0  0  0  0  0
    2.2010  -12.0440   -4.3540 C   0  0  0  0  0  0  0  0  0  0  0  0
    3.1460  -11.2520   -3.6790 C   0  0  0  0  0  0  0  0  0  0  0  0
    2.9130  -10.0440   -3.3440 O   0  0  0  0  0  0  0  0  0  0  0  0
    4.3690  -11.8970   -3.3950 C   0  0  0  0  0  0  0  0  0  0  0  0
    4.6230  -13.2540   -3.7120 C   0  0  0  0  0  0  0  0  0  0  0  0
    7.7510  -13.2530   -0.3600 C   0  0  0  0  0  0  0  0  0  0  0  0
    9.1000  -12.9750   -0.4970 C   0  0  0  0  0  0  0  0  0  0  0  0
    9.5950  -11.8250    0.6710 S   0  0  0  0  0  0  0  0  0  0  0  0
    8.0000  -11.7990    1.2920 C   0  0  0  0  0  0  0  0  0  0  0  0
    7.1250  -12.5850    0.7040 N   0  0  0  0  0  0  0  0  0  0  0  0
    3.5020  -14.9080    0.3050 C   0  0  0  0  0  0  0  0  0  0  0  0
    2.9870  -13.6050    0.3030 C   0  0  0  0  0  0  0  0  0  0  0  0
    1.7120  -13.3290    0.8130 C   0  0  0  0  0  0  0  0  0  0  0  0
    0.9760  -14.4040    1.3320 C   0  0  0  0  0  0  0  0  0  0  0  0
    1.4820  -15.6960    1.3630 C   0  0  0  0  0  0  0  0  0  0  0  0
    2.7590  -15.9640    0.8510 C   0  0  0  0  0  0  0  0  0  0  0  0
    0.5840  -16.5520    1.9310 N   0  0  0  0  0  0  0  0  0  0  0  0
   -0.4620  -15.8250    2.3060 C   0  0  0  0  0  0  0  0  0  0  0  0
   -1.5950  -16.4110    3.0360 C   0  0  0  0  0  0  0  0  0  0  0  0
   -2.3970  -17.3740    2.4260 C   0  0  0  0  0  0  0  0  0  0  0  0
   -3.4380  -17.9490    3.1510 C   0  0  0  0  0  0  0  0  0  0  0  0
   -3.6430  -17.5570    4.4670 C   0  0  0  0  0  0  0  0  0  0  0  0
   -2.7930  -16.6050    5.0030 C   0  0  0  0  0  0  0  0  0  0  0  0
   -1.7790  -16.0250    4.3200 N   0  0  0  0  0  0  0  0  0  0  0  0
   -0.2960  -14.5120    1.8850 N   0  0  0  0  0  0  0  0  0  0  0  0
   -1.2440  -13.4000    1.9000 C   0  0  0  0  0  0  0  0  0  0  0  0
   -0.8390  -12.2040    2.7820 C   0  0  0  0  0  0  0  0  0  0  0  0
   -1.9310  -11.1340    2.8060 C   0  0  0  0  0  0  0  0  0  0  0  0
   -2.3340  -10.7130    1.3950 C   0  0  0  0  0  0  0  0  0  0  0  0
   -2.7990  -11.9060    0.5670 C   0  0  0  0  0  0  0  0  0  0  0  0
   -1.7390  -13.0040    0.5000 C   0  0  0  0  0  0  0  0  0  0  0  0
    5.1750  -13.2030   -0.7150 H   0  0  0  0  0  0  0  0  0  0  0  0
    7.3633  -15.2347   -1.1351 H   0  0  0  0  0  0  0  0  0  0  0  0
    7.2172  -12.8317   -2.8253 H   0  0  0  0  0  0  0  0  0  0  0  0
    7.7280  -14.5745   -3.1468 H   0  0  0  0  0  0  0  0  0  0  0  0
    5.9526  -16.2902   -4.0454 H   0  0  0  0  0  0  0  0  0  0  0  0
    3.5840  -15.9550   -5.0650 H   0  0  0  0  0  0  0  0  0  0  0  0
    1.6399  -13.9518   -5.2701 H   0  0  0  0  0  0  0  0  0  0  0  0
    1.2339  -11.5850   -4.6072 H   0  0  0  0  0  0  0  0  0  0  0  0
    5.1640  -11.3173   -2.9033 H   0  0  0  0  0  0  0  0  0  0  0  0
    9.7609  -13.4289   -1.2501 H   0  0  0  0  0  0  0  0  0  0  0  0
    7.7210  -11.1569    2.1405 H   0  0  0  0  0  0  0  0  0  0  0  0
    3.5946  -12.7844   -0.1062 H   0  0  0  0  0  0  0  0  0  0  0  0
    1.3035  -12.3077    0.8067 H   0  0  0  0  0  0  0  0  0  0  0  0
    3.1705  -16.9838    0.8771 H   0  0  0  0  0  0  0  0  0  0  0  0
   -2.2101  -17.6761    1.3849 H   0  0  0  0  0  0  0  0  0  0  0  0
   -4.0894  -18.7041    2.6868 H   0  0  0  0  0  0  0  0  0  0  0  0
   -4.4572  -17.9904    5.0663 H   0  0  0  0  0  0  0  0  0  0  0  0
   -2.9515  -16.3013    6.0483 H   0  0  0  0  0  0  0  0  0  0  0  0
   -2.1235  -13.8076    2.4200 H   0  0  0  0  0  0  0  0  0  0  0  0
   -0.6633  -12.5592    3.8081 H   0  0  0  0  0  0  0  0  0  0  0  0
    0.0743  -11.7574    2.3620 H   0  0  0  0  0  0  0  0  0  0  0  0
   -2.8138  -11.5360    3.3248 H   0  0  0  0  0  0  0  0  0  0  0  0
   -1.5368  -10.2508    3.3300 H   0  0  0  0  0  0  0  0  0  0  0  0
   -3.1535   -9.9822    1.4604 H   0  0  0  0  0  0  0  0  0  0  0  0
   -1.4548  -10.2725    0.9020 H   0  0  0  0  0  0  0  0  0  0  0  0
   -3.7110  -12.3201    1.0217 H   0  0  0  0  0  0  0  0  0  0  0  0
   -2.9896  -11.5547   -0.4578 H   0  0  0  0  0  0  0  0  0  0  0  0
   -2.1724  -13.8890    0.0112 H   0  0  0  0  0  0  0  0  0  0  0  0
   -0.8815  -12.6194   -0.0716 H   0  0  0  0  0  0  0  0  0  0  0  0
  1  2  2  0
  2  3  1  0
  3  4  1  0
  4  5  1  0
  5  6  1  0
  6  7  2  0
  7  8  1  0
  8  9  1  0
  9 10  2  0
 10 11  1  0
 11 12  2  0
 12 13  1  0
 12 14  1  0
 14 15  2  0
  4 16  1  0
 16 17  2  0
 17 18  1  0
 18 19  1  0
 19 20  2  0
  2 21  1  0
 21 22  2  0
 22 23  1  0
 23 24  2  0
 24 25  1  0
 25 26  2  0
 25 27  1  0
 27 28  2  0
 28 29  1  0
 29 30  2  0
 30 31  1  0
 31 32  2  0
 32 33  1  0
 33 34  2  0
 28 35  1  0
 35 36  1  0
 36 37  1  0
 37 38  1  0
 38 39  1  0
 39 40  1  0
 40 41  1  0
 15  6  1  0
 20 16  1  0
 26 21  1  0
 34 29  1  0
 41 36  1  0
 15  9  1  0
 35 24  1  0
  3 42  1  0
  4 43  1  6
  5 44  1  0
  5 45  1  0
  7 46  1  0
  8 47  1  0
 10 48  1  0
 11 49  1  0
 14 50  1  0
 17 51  1  0
 19 52  1  0
 22 53  1  0
 23 54  1  0
 26 55  1  0
 30 56  1  0
 31 57  1  0
 32 58  1  0
 33 59  1  0
 36 60  1  0
 37 61  1  0
 37 62  1  0
 38 63  1  0
 38 64  1  0
 39 65  1  0
 39 66  1  0
 40 67  1  0
 40 68  1  0
 41 69  1  0
 41 70  1  0
M  CHG  1  13  -1
M  END
>  <meeko>  (9) 
{"is_sidechain": [false], "free_energy": -8.091, "intermolecular_energy": -11.409, "internal_energy": -1.959}

$$$$
