LIB_UVFOPYBSQPAXJS__M_PUB_ALL__e8__s20260927
     RDKit          3D

 63 67  0  0  0  0  0  0  0  0999 V2000
    4.4220  -11.4710   -3.4910 C   0  0  0  0  0  0  0  0  0  0  0  0
    5.4400  -12.4730   -2.9690 C   0  0  0  0  0  0  0  0  0  0  0  0
    5.7980  -12.1990   -1.5430 C   0  0  0  0  0  0  0  0  0  0  0  0
    6.4240  -11.1170   -1.1360 N   0  0  0  0  0  0  0  0  0  0  0  0
    6.5980  -11.2710    0.2090 C   0  0  0  0  0  0  0  0  0  0  0  0
    7.3800  -10.2160    1.0370 C   0  0  0  0  0  0  0  0  0  0  0  0
    7.4010   -8.7770    0.5880 C   0  0  0  0  0  0  0  0  0  0  0  0
    6.5890   -9.1720    1.7850 C   0  0  0  0  0  0  0  0  0  0  0  0
    6.0470  -12.4510    0.6730 C   0  0  0  0  0  0  0  0  0  0  0  0
    6.0020  -13.0330    1.9910 C   0  0  0  0  0  0  0  0  0  0  0  0
    5.1150  -12.4850    2.8660 N   0  0  0  0  0  0  0  0  0  0  0  0
    6.6800  -13.9910    2.3490 O   0  0  0  0  0  0  0  0  0  0  0  0
    5.5280  -13.0340   -0.4770 N   0  0  0  0  0  0  0  0  0  0  0  0
    4.8210  -14.3080   -0.5410 C   0  0  0  0  0  0  0  0  0  0  0  0
    3.3210  -14.1450   -0.3960 C   0  0  0  0  0  0  0  0  0  0  0  0
    2.5020  -13.9330   -1.5190 C   0  0  0  0  0  0  0  0  0  0  0  0
    1.1150  -13.7900   -1.4000 C   0  0  0  0  0  0  0  0  0  0  0  0
    0.5890  -13.8730   -0.1160 C   0  0  0  0  0  0  0  0  0  0  0  0
   -0.7260  -13.7600    0.2000 O   0  0  0  0  0  0  0  0  0  0  0  0
   -0.8400  -13.8840    1.5560 C   0  0  0  0  0  0  0  0  0  0  0  0
   -2.2070  -13.7650    2.0710 C   0  0  0  0  0  0  0  0  0  0  0  0
   -2.7420  -14.8000    2.8560 C   0  0  0  0  0  0  0  0  0  0  0  0
   -4.0460  -14.7270    3.3520 C   0  0  0  0  0  0  0  0  0  0  0  0
   -4.8340  -13.6140    3.0790 C   0  0  0  0  0  0  0  0  0  0  0  0
   -4.3200  -12.5700    2.3120 C   0  0  0  0  0  0  0  0  0  0  0  0
   -3.0170  -12.6370    1.8090 C   0  0  0  0  0  0  0  0  0  0  0  0
   -2.5370  -11.5480    1.0060 N   0  0  0  0  0  0  0  0  0  0  0  0
   -1.7440  -10.2590    1.7870 S   0  0  0  0  0  0  0  0  0  0  0  0
   -2.5560   -9.0680    1.6080 O   0  0  0  0  0  0  0  0  0  0  0  0
   -1.5020  -10.7550    3.1320 O   0  0  0  0  0  0  0  0  0  0  0  0
   -0.1170  -10.0770    0.8920 C   0  0  0  0  0  0  0  0  0  0  0  0
    0.3600   -8.8010    0.9340 F   0  0  0  0  0  0  0  0  0  0  0  0
   -0.2280  -10.4050   -0.4270 F   0  0  0  0  0  0  0  0  0  0  0  0
    0.8530  -10.8790    1.4160 F   0  0  0  0  0  0  0  0  0  0  0  0
    0.4110  -14.1100    2.1170 C   0  0  0  0  0  0  0  0  0  0  0  0
    0.7210  -14.3450    3.5440 C   0  0  0  0  0  0  0  0  0  0  0  0
    0.2540  -15.5460    3.9730 F   0  0  0  0  0  0  0  0  0  0  0  0
    2.0520  -14.3370    3.8040 F   0  0  0  0  0  0  0  0  0  0  0  0
    0.1580  -13.3990    4.3390 F   0  0  0  0  0  0  0  0  0  0  0  0
    1.3410  -14.0880    1.0280 C   0  0  0  0  0  0  0  0  0  0  0  0
    2.7350  -14.2330    0.8840 C   0  0  0  0  0  0  0  0  0  0  0  0
    3.9229  -10.9797   -2.6428 H   0  0  0  0  0  0  0  0  0  0  0  0
    4.9334  -10.7142   -4.1039 H   0  0  0  0  0  0  0  0  0  0  0  0
    3.6734  -11.9944   -4.1039 H   0  0  0  0  0  0  0  0  0  0  0  0
    5.0155  -13.4851   -3.0427 H   0  0  0  0  0  0  0  0  0  0  0  0
    6.3528  -12.3857   -3.5767 H   0  0  0  0  0  0  0  0  0  0  0  0
    8.1542  -10.9543    1.2929 H   0  0  0  0  0  0  0  0  0  0  0  0
    8.3123   -8.1745    0.7168 H   0  0  0  0  0  0  0  0  0  0  0  0
    7.1885   -8.2551   -0.3567 H   0  0  0  0  0  0  0  0  0  0  0  0
    6.9052   -8.8593    2.7911 H   0  0  0  0  0  0  0  0  0  0  0  0
    5.5354   -9.0596    2.0805 H   0  0  0  0  0  0  0  0  0  0  0  0
    4.4870  -11.7370    2.6160 H   0  0  0  0  0  0  0  0  0  0  0  0
    5.0640  -12.8820    3.7940 H   0  0  0  0  0  0  0  0  0  0  0  0
    5.0327  -14.7810   -1.5113 H   0  0  0  0  0  0  0  0  0  0  0  0
    5.1731  -14.9291    0.2959 H   0  0  0  0  0  0  0  0  0  0  0  0
    2.9631  -13.8782   -2.5162 H   0  0  0  0  0  0  0  0  0  0  0  0
    0.4738  -13.6206   -2.2776 H   0  0  0  0  0  0  0  0  0  0  0  0
   -2.1246  -15.6815    3.0836 H   0  0  0  0  0  0  0  0  0  0  0  0
   -4.4499  -15.5506    3.9591 H   0  0  0  0  0  0  0  0  0  0  0  0
   -5.8614  -13.5578    3.4679 H   0  0  0  0  0  0  0  0  0  0  0  0
   -4.9429  -11.6882    2.1011 H   0  0  0  0  0  0  0  0  0  0  0  0
   -3.2100  -11.2060    0.3110 H   0  0  0  0  0  0  0  0  0  0  0  0
    3.3647  -14.4144    1.7675 H   0  0  0  0  0  0  0  0  0  0  0  0
  1  2  1  0
  2  3  1  0
  3  4  2  0
  4  5  1  0
  5  6  1  0
  6  7  1  0
  7  8  1  0
  5  9  2  0
  9 10  1  0
 10 11  1  0
 10 12  2  0
  9 13  1  0
 13 14  1  0
 14 15  1  0
 15 16  2  0
 16 17  1  0
 17 18  2  0
 18 19  1  0
 19 20  1  0
 20 21  1  0
 21 22  2  0
 22 23  1  0
 23 24  2  0
 24 25  1  0
 25 26  2  0
 26 27  1  0
 27 28  1  0
 28 29  2  0
 28 30  2  0
 28 31  1  0
 31 32  1  0
 31 33  1  0
 31 34  1  0
 20 35  2  0
 35 36  1  0
 36 37  1  0
 36 38  1  0
 36 39  1  0
 35 40  1  0
 40 41  2  0
 13  3  1  0
 41 15  1  0
  8  6  1  0
 40 18  1  0
 26 21  1  0
  1 42  1  0
  1 43  1  0
  1 44  1  0
  2 45  1  0
  2 46  1  0
  6 47  1  0
  7 48  1  0
  7 49  1  0
  8 50  1  0
  8 51  1  0
 11 52  1  0
 11 53  1  0
 14 54  1  0
 14 55  1  0
 16 56  1  0
 17 57  1  0
 22 58  1  0
 23 59  1  0
 24 60  1  0
 25 61  1  0
 27 62  1  0
 41 63  1  0
M  END
>  <meeko>  (1) 
{"is_sidechain": [false], "free_energy": -8.191, "intermolecular_energy": -12.979, "internal_energy": -3.61}

$$$$
LIB_UVFOPYBSQPAXJS__M_PUB_ALL__e8__s20260927
     RDKit          3D

 63 67  0  0  0  0  0  0  0  0999 V2000
   -1.6720  -18.4270    9.1950 C   0  0  0  0  0  0  0  0  0  0  0  0
   -1.5450  -17.0470    8.5710 C   0  0  0  0  0  0  0  0  0  0  0  0
   -2.8120  -16.6320    7.8920 C   0  0  0  0  0  0  0  0  0  0  0  0
   -3.7900  -15.9870    8.4900 N   0  0  0  0  0  0  0  0  0  0  0  0
   -4.7680  -15.8400    7.5500 C   0  0  0  0  0  0  0  0  0  0  0  0
   -6.1290  -15.1860    7.9130 C   0  0  0  0  0  0  0  0  0  0  0  0
   -6.1560  -13.8710    8.6480 C   0  0  0  0  0  0  0  0  0  0  0  0
   -6.5210  -13.9190    7.1950 C   0  0  0  0  0  0  0  0  0  0  0  0
   -4.3980  -16.3670    6.3270 C   0  0  0  0  0  0  0  0  0  0  0  0
   -5.0990  -16.4540    5.0710 C   0  0  0  0  0  0  0  0  0  0  0  0
   -5.9520  -17.5060    4.9240 N   0  0  0  0  0  0  0  0  0  0  0  0
   -4.9970  -15.6370    4.1610 O   0  0  0  0  0  0  0  0  0  0  0  0
   -3.1250  -16.8710    6.5690 N   0  0  0  0  0  0  0  0  0  0  0  0
   -2.2700  -17.5330    5.5900 C   0  0  0  0  0  0  0  0  0  0  0  0
   -1.4250  -16.5530    4.8030 C   0  0  0  0  0  0  0  0  0  0  0  0
   -0.4100  -15.8050    5.4260 C   0  0  0  0  0  0  0  0  0  0  0  0
    0.3850  -14.9030    4.7090 C   0  0  0  0  0  0  0  0  0  0  0  0
    0.1210  -14.7880    3.3480 C   0  0  0  0  0  0  0  0  0  0  0  0
    0.7820  -13.9700    2.4910 O   0  0  0  0  0  0  0  0  0  0  0  0
    0.2270  -14.1320    1.2520 C   0  0  0  0  0  0  0  0  0  0  0  0
    0.8170  -13.2980    0.2010 C   0  0  0  0  0  0  0  0  0  0  0  0
    1.2260  -13.8920   -1.0040 C   0  0  0  0  0  0  0  0  0  0  0  0
    1.8060  -13.1300   -2.0220 C   0  0  0  0  0  0  0  0  0  0  0  0
    1.9770  -11.7590   -1.8560 C   0  0  0  0  0  0  0  0  0  0  0  0
    1.5670  -11.1470   -0.6730 C   0  0  0  0  0  0  0  0  0  0  0  0
    0.9900  -11.9030    0.3520 C   0  0  0  0  0  0  0  0  0  0  0  0
    0.6030  -11.2330    1.5610 N   0  0  0  0  0  0  0  0  0  0  0  0
   -0.7900  -10.2540    1.5310 S   0  0  0  0  0  0  0  0  0  0  0  0
   -0.3560   -8.8680    1.5400 O   0  0  0  0  0  0  0  0  0  0  0  0
   -1.5460  -10.7510    0.3920 O   0  0  0  0  0  0  0  0  0  0  0  0
   -1.7040  -10.6600    3.1050 C   0  0  0  0  0  0  0  0  0  0  0  0
   -1.6920   -9.6280    3.9950 F   0  0  0  0  0  0  0  0  0  0  0  0
   -1.1510  -11.7300    3.7460 F   0  0  0  0  0  0  0  0  0  0  0  0
   -3.0120  -10.9710    2.8780 F   0  0  0  0  0  0  0  0  0  0  0  0
   -0.7810  -15.0860    1.3060 C   0  0  0  0  0  0  0  0  0  0  0  0
   -1.5980  -15.5870    0.1810 C   0  0  0  0  0  0  0  0  0  0  0  0
   -0.8950  -16.4270   -0.6220 F   0  0  0  0  0  0  0  0  0  0  0  0
   -2.6940  -16.2750    0.5870 F   0  0  0  0  0  0  0  0  0  0  0  0
   -2.0400  -14.5720   -0.6060 F   0  0  0  0  0  0  0  0  0  0  0  0
   -0.8580  -15.5010    2.6750 C   0  0  0  0  0  0  0  0  0  0  0  0
   -1.6430  -16.4060    3.4160 C   0  0  0  0  0  0  0  0  0  0  0  0
   -1.6636  -18.3359   10.2912 H   0  0  0  0  0  0  0  0  0  0  0  0
   -2.6165  -18.8896    8.8727 H   0  0  0  0  0  0  0  0  0  0  0  0
   -0.8278  -19.0542    8.8727 H   0  0  0  0  0  0  0  0  0  0  0  0
   -1.3076  -16.3186    9.3603 H   0  0  0  0  0  0  0  0  0  0  0  0
   -0.7454  -17.0824    7.8164 H   0  0  0  0  0  0  0  0  0  0  0  0
   -6.5859  -16.1721    8.0825 H   0  0  0  0  0  0  0  0  0  0  0  0
   -6.9324  -13.6797    9.4034 H   0  0  0  0  0  0  0  0  0  0  0  0
   -5.4307  -13.3018    9.2480 H   0  0  0  0  0  0  0  0  0  0  0  0
   -7.5649  -13.7634    6.8851 H   0  0  0  0  0  0  0  0  0  0  0  0
   -6.1742  -13.4001    6.2892 H   0  0  0  0  0  0  0  0  0  0  0  0
   -6.1260  -18.1780    5.6550 H   0  0  0  0  0  0  0  0  0  0  0  0
   -6.4570  -17.5830    4.0530 H   0  0  0  0  0  0  0  0  0  0  0  0
   -1.6026  -18.2299    6.1182 H   0  0  0  0  0  0  0  0  0  0  0  0
   -2.9222  -18.0599    4.8779 H   0  0  0  0  0  0  0  0  0  0  0  0
   -0.2363  -15.9320    6.5047 H   0  0  0  0  0  0  0  0  0  0  0  0
    1.1772  -14.3157    5.1964 H   0  0  0  0  0  0  0  0  0  0  0  0
    1.0878  -14.9736   -1.1489 H   0  0  0  0  0  0  0  0  0  0  0  0
    2.1277  -13.6146   -2.9556 H   0  0  0  0  0  0  0  0  0  0  0  0
    2.4348  -11.1596   -2.6568 H   0  0  0  0  0  0  0  0  0  0  0  0
    1.6981  -10.0624   -0.5448 H   0  0  0  0  0  0  0  0  0  0  0  0
    1.3750  -10.7690    2.0540 H   0  0  0  0  0  0  0  0  0  0  0  0
   -2.4240  -16.9968    2.9150 H   0  0  0  0  0  0  0  0  0  0  0  0
  1  2  1  0
  2  3  1  0
  3  4  2  0
  4  5  1  0
  5  6  1  0
  6  7  1  0
  7  8  1  0
  5  9  2  0
  9 10  1  0
 10 11  1  0
 10 12  2  0
  9 13  1  0
 13 14  1  0
 14 15  1  0
 15 16  2  0
 16 17  1  0
 17 18  2  0
 18 19  1  0
 19 20  1  0
 20 21  1  0
 21 22  2  0
 22 23  1  0
 23 24  2  0
 24 25  1  0
 25 26  2  0
 26 27  1  0
 27 28  1  0
 28 29  2  0
 28 30  2  0
 28 31  1  0
 31 32  1  0
 31 33  1  0
 31 34  1  0
 20 35  2  0
 35 36  1  0
 36 37  1  0
 36 38  1  0
 36 39  1  0
 35 40  1  0
 40 41  2  0
 13  3  1  0
 41 15  1  0
  8  6  1  0
 40 18  1  0
 26 21  1  0
  1 42  1  0
  1 43  1  0
  1 44  1  0
  2 45  1  0
  2 46  1  0
  6 47  1  0
  7 48  1  0
  7 49  1  0
  8 50  1  0
  8 51  1  0
 11 52  1  0
 11 53  1  0
 14 54  1  0
 14 55  1  0
 16 56  1  0
 17 57  1  0
 22 58  1  0
 23 59  1  0
 24 60  1  0
 25 61  1  0
 27 62  1  0
 41 63  1  0
M  END
>  <meeko>  (2) 
{"is_sidechain": [false], "free_energy": -7.968, "intermolecular_energy": -13.348, "internal_energy": -2.889}

$$$$
LIB_UVFOPYBSQPAXJS__M_PUB_ALL__e8__s20260927
     RDKit          3D

 63 67  0  0  0  0  0  0  0  0999 V2000
   10.1410  -16.5770   -1.3820 C   0  0  0  0  0  0  0  0  0  0  0  0
   11.5730  -16.2010   -1.0360 C   0  0  0  0  0  0  0  0  0  0  0  0
   12.1520  -15.2600   -2.0450 C   0  0  0  0  0  0  0  0  0  0  0  0
   12.5000  -15.6110   -3.2630 N   0  0  0  0  0  0  0  0  0  0  0  0
   13.0190  -14.4880   -3.8400 C   0  0  0  0  0  0  0  0  0  0  0  0
   13.6180  -14.5330   -5.2720 C   0  0  0  0  0  0  0  0  0  0  0  0
   13.1490  -15.5800   -6.2480 C   0  0  0  0  0  0  0  0  0  0  0  0
   12.7250  -14.1540   -6.4270 C   0  0  0  0  0  0  0  0  0  0  0  0
   12.9700  -13.3980   -2.9920 C   0  0  0  0  0  0  0  0  0  0  0  0
   13.4080  -12.0350   -3.1590 C   0  0  0  0  0  0  0  0  0  0  0  0
   14.7080  -11.7740   -2.8500 N   0  0  0  0  0  0  0  0  0  0  0  0
   12.7020  -11.1260   -3.5850 O   0  0  0  0  0  0  0  0  0  0  0  0
   12.3990  -13.9180   -1.8360 N   0  0  0  0  0  0  0  0  0  0  0  0
   12.1120  -13.1700   -0.6170 C   0  0  0  0  0  0  0  0  0  0  0  0
   10.6510  -12.7840   -0.5070 C   0  0  0  0  0  0  0  0  0  0  0  0
   10.1390  -12.2090    0.6690 C   0  0  0  0  0  0  0  0  0  0  0  0
    8.7940  -11.8390    0.7820 C   0  0  0  0  0  0  0  0  0  0  0  0
    7.9910  -12.0670   -0.3310 C   0  0  0  0  0  0  0  0  0  0  0  0
    6.6680  -11.7760   -0.4150 O   0  0  0  0  0  0  0  0  0  0  0  0
    6.2370  -12.1560   -1.6540 C   0  0  0  0  0  0  0  0  0  0  0  0
    4.8110  -11.9280   -1.9050 C   0  0  0  0  0  0  0  0  0  0  0  0
    4.4200  -11.1100   -2.9770 C   0  0  0  0  0  0  0  0  0  0  0  0
    3.0700  -10.8590   -3.2370 C   0  0  0  0  0  0  0  0  0  0  0  0
    2.0880  -11.4300   -2.4340 C   0  0  0  0  0  0  0  0  0  0  0  0
    2.4520  -12.2550   -1.3710 C   0  0  0  0  0  0  0  0  0  0  0  0
    3.8010  -12.5070   -1.1020 C   0  0  0  0  0  0  0  0  0  0  0  0
    4.1310  -13.3460    0.0150 N   0  0  0  0  0  0  0  0  0  0  0  0
    4.3200  -15.0160   -0.2570 S   0  0  0  0  0  0  0  0  0  0  0  0
    3.3140  -15.7090    0.5290 O   0  0  0  0  0  0  0  0  0  0  0  0
    4.2970  -15.1430   -1.7060 O   0  0  0  0  0  0  0  0  0  0  0  0
    6.0290  -15.4190    0.3720 C   0  0  0  0  0  0  0  0  0  0  0  0
    6.4740  -14.5140    1.2890 F   0  0  0  0  0  0  0  0  0  0  0  0
    6.9470  -15.4310   -0.6370 F   0  0  0  0  0  0  0  0  0  0  0  0
    6.0850  -16.6440    0.9680 F   0  0  0  0  0  0  0  0  0  0  0  0
    7.2990  -12.6680   -2.3890 C   0  0  0  0  0  0  0  0  0  0  0  0
    7.2690  -13.1460   -3.7880 C   0  0  0  0  0  0  0  0  0  0  0  0
    6.7580  -12.2130   -4.6320 F   0  0  0  0  0  0  0  0  0  0  0  0
    8.4990  -13.4600   -4.2650 F   0  0  0  0  0  0  0  0  0  0  0  0
    6.5000  -14.2570   -3.9190 F   0  0  0  0  0  0  0  0  0  0  0  0
    8.4370  -12.6220   -1.5200 C   0  0  0  0  0  0  0  0  0  0  0  0
    9.7960  -12.9830   -1.6120 C   0  0  0  0  0  0  0  0  0  0  0  0
    9.5674  -16.7276   -0.4556 H   0  0  0  0  0  0  0  0  0  0  0  0
    9.6817  -15.7690   -1.9704 H   0  0  0  0  0  0  0  0  0  0  0  0
   10.1379  -17.5064   -1.9704 H   0  0  0  0  0  0  0  0  0  0  0  0
   11.5869  -15.7182   -0.0477 H   0  0  0  0  0  0  0  0  0  0  0  0
   12.1794  -17.1187   -1.0321 H   0  0  0  0  0  0  0  0  0  0  0  0
   14.6023  -14.2162   -4.8967 H   0  0  0  0  0  0  0  0  0  0  0  0
   13.8623  -16.0334   -6.9520 H   0  0  0  0  0  0  0  0  0  0  0  0
   12.6218  -16.5415   -6.1612 H   0  0  0  0  0  0  0  0  0  0  0  0
   13.1277  -13.5615   -7.2617 H   0  0  0  0  0  0  0  0  0  0  0  0
   11.7591  -13.6370   -6.5253 H   0  0  0  0  0  0  0  0  0  0  0  0
   15.3560  -12.4870   -2.5530 H   0  0  0  0  0  0  0  0  0  0  0  0
   15.0370  -10.8260   -2.9650 H   0  0  0  0  0  0  0  0  0  0  0  0
   12.3795  -13.7916    0.2502 H   0  0  0  0  0  0  0  0  0  0  0  0
   12.7028  -12.2426   -0.6455 H   0  0  0  0  0  0  0  0  0  0  0  0
   10.8131  -12.0456    1.5228 H   0  0  0  0  0  0  0  0  0  0  0  0
    8.3926  -11.3912    1.7030 H   0  0  0  0  0  0  0  0  0  0  0  0
    5.1884  -10.6595   -3.6225 H   0  0  0  0  0  0  0  0  0  0  0  0
    2.7837  -10.2094   -4.0773 H   0  0  0  0  0  0  0  0  0  0  0  0
    1.0255  -11.2307   -2.6376 H   0  0  0  0  0  0  0  0  0  0  0  0
    1.6741  -12.7102   -0.7404 H   0  0  0  0  0  0  0  0  0  0  0  0
    3.5730  -13.1660    0.8580 H   0  0  0  0  0  0  0  0  0  0  0  0
   10.1893  -13.4186   -2.5424 H   0  0  0  0  0  0  0  0  0  0  0  0
  1  2  1  0
  2  3  1  0
  3  4  2  0
  4  5  1  0
  5  6  1  0
  6  7  1  0
  7  8  1  0
  5  9  2  0
  9 10  1  0
 10 11  1  0
 10 12  2  0
  9 13  1  0
 13 14  1  0
 14 15  1  0
 15 16  2  0
 16 17  1  0
 17 18  2  0
 18 19  1  0
 19 20  1  0
 20 21  1  0
 21 22  2  0
 22 23  1  0
 23 24  2  0
 24 25  1  0
 25 26  2  0
 26 27  1  0
 27 28  1  0
 28 29  2  0
 28 30  2  0
 28 31  1  0
 31 32  1  0
 31 33  1  0
 31 34  1  0
 20 35  2  0
 35 36  1  0
 36 37  1  0
 36 38  1  0
 36 39  1  0
 35 40  1  0
 40 41  2  0
 13  3  1  0
 41 15  1  0
  8  6  1  0
 40 18  1  0
 26 21  1  0
  1 42  1  0
  1 43  1  0
  1 44  1  0
  2 45  1  0
  2 46  1  0
  6 47  1  0
  7 48  1  0
  7 49  1  0
  8 50  1  0
  8 51  1  0
 11 52  1  0
 11 53  1  0
 14 54  1  0
 14 55  1  0
 16 56  1  0
 17 57  1  0
 22 58  1  0
 23 59  1  0
 24 60  1  0
 25 61  1  0
 27 62  1  0
 41 63  1  0
M  END
>  <meeko>  (3) 
{"is_sidechain": [false], "free_energy": -7.753, "intermolecular_energy": -12.43, "internal_energy": -3.466}

$$$$
LIB_UVFOPYBSQPAXJS__M_PUB_ALL__e8__s20260927
     RDKit          3D

 63 67  0  0  0  0  0  0  0  0999 V2000
   10.3200  -14.4100   -6.4950 C   0  0  0  0  0  0  0  0  0  0  0  0
   10.6200  -15.0370   -7.8480 C   0  0  0  0  0  0  0  0  0  0  0  0
   10.7760  -13.9970   -8.9110 C   0  0  0  0  0  0  0  0  0  0  0  0
   11.8640  -13.2790   -9.0840 N   0  0  0  0  0  0  0  0  0  0  0  0
   11.5880  -12.4270  -10.1150 C   0  0  0  0  0  0  0  0  0  0  0  0
   12.6200  -11.3570  -10.5610 C   0  0  0  0  0  0  0  0  0  0  0  0
   13.8230  -11.0720   -9.7000 C   0  0  0  0  0  0  0  0  0  0  0  0
   13.9900  -11.8240  -10.9860 C   0  0  0  0  0  0  0  0  0  0  0  0
   10.3210  -12.6270  -10.6300 C   0  0  0  0  0  0  0  0  0  0  0  0
    9.6040  -11.9660  -11.6900 C   0  0  0  0  0  0  0  0  0  0  0  0
    9.0930  -10.7370  -11.4030 N   0  0  0  0  0  0  0  0  0  0  0  0
    9.4600  -12.4230  -12.8200 O   0  0  0  0  0  0  0  0  0  0  0  0
    9.8140  -13.6530   -9.8400 N   0  0  0  0  0  0  0  0  0  0  0  0
    8.4940  -14.2580   -9.9740 C   0  0  0  0  0  0  0  0  0  0  0  0
    7.4840  -13.6620   -9.0140 C   0  0  0  0  0  0  0  0  0  0  0  0
    6.9160  -12.3990   -9.2490 C   0  0  0  0  0  0  0  0  0  0  0  0
    5.9750  -11.8410   -8.3750 C   0  0  0  0  0  0  0  0  0  0  0  0
    5.6290  -12.6040   -7.2650 C   0  0  0  0  0  0  0  0  0  0  0  0
    4.7390  -12.2350   -6.3100 O   0  0  0  0  0  0  0  0  0  0  0  0
    4.6820  -13.2400   -5.3860 C   0  0  0  0  0  0  0  0  0  0  0  0
    3.7720  -12.9920   -4.2630 C   0  0  0  0  0  0  0  0  0  0  0  0
    2.5420  -13.6670   -4.2080 C   0  0  0  0  0  0  0  0  0  0  0  0
    1.6450  -13.4440   -3.1610 C   0  0  0  0  0  0  0  0  0  0  0  0
    1.9670  -12.5490   -2.1450 C   0  0  0  0  0  0  0  0  0  0  0  0
    3.1870  -11.8770   -2.1730 C   0  0  0  0  0  0  0  0  0  0  0  0
    4.0890  -12.0910   -3.2210 C   0  0  0  0  0  0  0  0  0  0  0  0
    5.3250  -11.3610   -3.2190 N   0  0  0  0  0  0  0  0  0  0  0  0
    6.5530  -11.8550   -2.1480 S   0  0  0  0  0  0  0  0  0  0  0  0
    6.7300  -10.8030   -1.1630 O   0  0  0  0  0  0  0  0  0  0  0  0
    6.1270  -13.1740   -1.7070 O   0  0  0  0  0  0  0  0  0  0  0  0
    8.0810  -12.0200   -3.2060 C   0  0  0  0  0  0  0  0  0  0  0  0
    8.5370  -10.8160   -3.6540 F   0  0  0  0  0  0  0  0  0  0  0  0
    7.8470  -12.7820   -4.3130 F   0  0  0  0  0  0  0  0  0  0  0  0
    9.1120  -12.6090   -2.5350 F   0  0  0  0  0  0  0  0  0  0  0  0
    5.5200  -14.2810   -5.7660 C   0  0  0  0  0  0  0  0  0  0  0  0
    5.7140  -15.5710   -5.0700 C   0  0  0  0  0  0  0  0  0  0  0  0
    7.0270  -15.8260   -4.8320 F   0  0  0  0  0  0  0  0  0  0  0  0
    5.0910  -15.6220   -3.8670 F   0  0  0  0  0  0  0  0  0  0  0  0
    5.2390  -16.6100   -5.8030 F   0  0  0  0  0  0  0  0  0  0  0  0
    6.1460  -13.8580   -6.9820 C   0  0  0  0  0  0  0  0  0  0  0  0
    7.0890  -14.4010   -7.8780 C   0  0  0  0  0  0  0  0  0  0  0  0
   10.6458  -15.0910   -5.6950 H   0  0  0  0  0  0  0  0  0  0  0  0
   10.8588  -13.4551   -6.4058 H   0  0  0  0  0  0  0  0  0  0  0  0
    9.2384  -14.2304   -6.4058 H   0  0  0  0  0  0  0  0  0  0  0  0
   11.5524  -15.6161   -7.7748 H   0  0  0  0  0  0  0  0  0  0  0  0
    9.7760  -15.6870   -8.1221 H   0  0  0  0  0  0  0  0  0  0  0  0
   11.8243  -10.7385  -11.0018 H   0  0  0  0  0  0  0  0  0  0  0  0
   14.2040  -10.0439   -9.6114 H   0  0  0  0  0  0  0  0  0  0  0  0
   14.0884  -11.2619   -8.6495 H   0  0  0  0  0  0  0  0  0  0  0  0
   14.4928  -11.3471  -11.8403 H   0  0  0  0  0  0  0  0  0  0  0  0
   14.4278  -12.7928  -11.2685 H   0  0  0  0  0  0  0  0  0  0  0  0
    9.2280  -10.2800  -10.5140 H   0  0  0  0  0  0  0  0  0  0  0  0
    8.5910  -10.2540  -12.1340 H   0  0  0  0  0  0  0  0  0  0  0  0
    8.1373  -14.1029  -11.0029 H   0  0  0  0  0  0  0  0  0  0  0  0
    8.5903  -15.3279   -9.7372 H   0  0  0  0  0  0  0  0  0  0  0  0
    7.2183  -11.8336  -10.1428 H   0  0  0  0  0  0  0  0  0  0  0  0
    5.5324  -10.8505   -8.5570 H   0  0  0  0  0  0  0  0  0  0  0  0
    2.2809  -14.3824   -5.0017 H   0  0  0  0  0  0  0  0  0  0  0  0
    0.6827  -13.9765   -3.1394 H   0  0  0  0  0  0  0  0  0  0  0  0
    1.2595  -12.3726   -1.3214 H   0  0  0  0  0  0  0  0  0  0  0  0
    3.4427  -11.1740   -1.3665 H   0  0  0  0  0  0  0  0  0  0  0  0
    5.2130  -10.3410   -3.2140 H   0  0  0  0  0  0  0  0  0  0  0  0
    7.5158  -15.3977   -7.6925 H   0  0  0  0  0  0  0  0  0  0  0  0
  1  2  1  0
  2  3  1  0
  3  4  2  0
  4  5  1  0
  5  6  1  0
  6  7  1  0
  7  8  1  0
  5  9  2  0
  9 10  1  0
 10 11  1  0
 10 12  2  0
  9 13  1  0
 13 14  1  0
 14 15  1  0
 15 16  2  0
 16 17  1  0
 17 18  2  0
 18 19  1  0
 19 20  1  0
 20 21  1  0
 21 22  2  0
 22 23  1  0
 23 24  2  0
 24 25  1  0
 25 26  2  0
 26 27  1  0
 27 28  1  0
 28 29  2  0
 28 30  2  0
 28 31  1  0
 31 32  1  0
 31 33  1  0
 31 34  1  0
 20 35  2  0
 35 36  1  0
 36 37  1  0
 36 38  1  0
 36 39  1  0
 35 40  1  0
 40 41  2  0
 13  3  1  0
 41 15  1  0
  8  6  1  0
 40 18  1  0
 26 21  1  0
  1 42  1  0
  1 43  1  0
  1 44  1  0
  2 45  1  0
  2 46  1  0
  6 47  1  0
  7 48  1  0
  7 49  1  0
  8 50  1  0
  8 51  1  0
 11 52  1  0
 11 53  1  0
 14 54  1  0
 14 55  1  0
 16 56  1  0
 17 57  1  0
 22 58  1  0
 23 59  1  0
 24 60  1  0
 25 61  1  0
 27 62  1  0
 41 63  1  0
M  END
>  <meeko>  (4) 
{"is_sidechain": [false], "free_energy": -7.716, "intermolecular_energy": -12.807, "internal_energy": -3.031}

$$$$
LIB_UVFOPYBSQPAXJS__M_PUB_ALL__e8__s20260927
     RDKit          3D

 63 67  0  0  0  0  0  0  0  0999 V2000
   -3.3950  -12.9090    0.0450 C   0  0  0  0  0  0  0  0  0  0  0  0
   -3.6770  -12.6610    1.5190 C   0  0  0  0  0  0  0  0  0  0  0  0
   -2.7980  -13.4970    2.3930 C   0  0  0  0  0  0  0  0  0  0  0  0
   -3.0090  -14.7700    2.6480 N   0  0  0  0  0  0  0  0  0  0  0  0
   -2.0210  -15.1460    3.5110 C   0  0  0  0  0  0  0  0  0  0  0  0
   -1.9860  -16.5800    4.1050 C   0  0  0  0  0  0  0  0  0  0  0  0
   -2.8650  -17.6550    3.5200 C   0  0  0  0  0  0  0  0  0  0  0  0
   -1.3880  -17.6820    3.2670 C   0  0  0  0  0  0  0  0  0  0  0  0
   -1.1470  -14.1100    3.7850 C   0  0  0  0  0  0  0  0  0  0  0  0
    0.0130  -14.0380    4.6360 C   0  0  0  0  0  0  0  0  0  0  0  0
    1.2200  -14.2280    4.0340 N   0  0  0  0  0  0  0  0  0  0  0  0
   -0.0220  -13.7890    5.8380 O   0  0  0  0  0  0  0  0  0  0  0  0
   -1.6650  -13.0530    3.0470 N   0  0  0  0  0  0  0  0  0  0  0  0
   -1.1040  -11.7080    2.9760 C   0  0  0  0  0  0  0  0  0  0  0  0
   -0.3210  -11.4750    1.7000 C   0  0  0  0  0  0  0  0  0  0  0  0
   -0.2310  -10.1950    1.1270 C   0  0  0  0  0  0  0  0  0  0  0  0
    0.4960   -9.9630   -0.0460 C   0  0  0  0  0  0  0  0  0  0  0  0
    1.1280  -11.0640   -0.6130 C   0  0  0  0  0  0  0  0  0  0  0  0
    1.8760  -11.0400   -1.7450 O   0  0  0  0  0  0  0  0  0  0  0  0
    2.3130  -12.3130   -1.9820 C   0  0  0  0  0  0  0  0  0  0  0  0
    3.1270  -12.4680   -3.1900 C   0  0  0  0  0  0  0  0  0  0  0  0
    2.5810  -13.1090   -4.3140 C   0  0  0  0  0  0  0  0  0  0  0  0
    3.3330  -13.2870   -5.4790 C   0  0  0  0  0  0  0  0  0  0  0  0
    4.6420  -12.8190   -5.5420 C   0  0  0  0  0  0  0  0  0  0  0  0
    5.2000  -12.1690   -4.4420 C   0  0  0  0  0  0  0  0  0  0  0  0
    4.4550  -11.9910   -3.2720 C   0  0  0  0  0  0  0  0  0  0  0  0
    5.0790  -11.3350   -2.1580 N   0  0  0  0  0  0  0  0  0  0  0  0
    6.1260  -12.2440   -1.1690 S   0  0  0  0  0  0  0  0  0  0  0  0
    6.1990  -13.5860   -1.7190 O   0  0  0  0  0  0  0  0  0  0  0  0
    7.3350  -11.4400   -1.1020 O   0  0  0  0  0  0  0  0  0  0  0  0
    5.3080  -12.2720    0.5080 C   0  0  0  0  0  0  0  0  0  0  0  0
    6.1550  -11.8910    1.5060 F   0  0  0  0  0  0  0  0  0  0  0  0
    4.8650  -13.5210    0.8310 F   0  0  0  0  0  0  0  0  0  0  0  0
    4.2270  -11.4430    0.5690 F   0  0  0  0  0  0  0  0  0  0  0  0
    1.8670  -13.1610   -0.9760 C   0  0  0  0  0  0  0  0  0  0  0  0
    2.1560  -14.6040   -0.8310 C   0  0  0  0  0  0  0  0  0  0  0  0
    1.2420  -15.3710   -1.4790 F   0  0  0  0  0  0  0  0  0  0  0  0
    3.3690  -14.9530   -1.3250 F   0  0  0  0  0  0  0  0  0  0  0  0
    2.1370  -14.9880    0.4720 F   0  0  0  0  0  0  0  0  0  0  0  0
    1.0840  -12.3480   -0.0940 C   0  0  0  0  0  0  0  0  0  0  0  0
    0.3500  -12.5570    1.0900 C   0  0  0  0  0  0  0  0  0  0  0  0
   -2.5724  -13.6325   -0.0543 H   0  0  0  0  0  0  0  0  0  0  0  0
   -4.2975  -13.3114   -0.4383 H   0  0  0  0  0  0  0  0  0  0  0  0
   -3.1112  -11.9625   -0.4383 H   0  0  0  0  0  0  0  0  0  0  0  0
   -3.4982  -11.5991    1.7434 H   0  0  0  0  0  0  0  0  0  0  0  0
   -4.7236  -12.9330    1.7208 H   0  0  0  0  0  0  0  0  0  0  0  0
   -1.8261  -16.1825    5.1181 H   0  0  0  0  0  0  0  0  0  0  0  0
   -3.3235  -18.4080    4.1778 H   0  0  0  0  0  0  0  0  0  0  0  0
   -3.7621  -17.6634    2.8835 H   0  0  0  0  0  0  0  0  0  0  0  0
   -0.7635  -18.4545    3.7395 H   0  0  0  0  0  0  0  0  0  0  0  0
   -0.7541  -17.7182    2.3687 H   0  0  0  0  0  0  0  0  0  0  0  0
    1.3210  -14.3770    3.0420 H   0  0  0  0  0  0  0  0  0  0  0  0
    2.0460  -14.1760    4.6120 H   0  0  0  0  0  0  0  0  0  0  0  0
   -1.9266  -10.9793    3.0237 H   0  0  0  0  0  0  0  0  0  0  0  0
   -0.4104  -11.5890    3.8214 H   0  0  0  0  0  0  0  0  0  0  0  0
   -0.7456   -9.3532    1.6134 H   0  0  0  0  0  0  0  0  0  0  0  0
    0.5639   -8.9616   -0.4961 H   0  0  0  0  0  0  0  0  0  0  0  0
    1.5450  -13.4769   -4.2771 H   0  0  0  0  0  0  0  0  0  0  0  0
    2.8896  -13.7975   -6.3466 H   0  0  0  0  0  0  0  0  0  0  0  0
    5.2350  -12.9615   -6.4574 H   0  0  0  0  0  0  0  0  0  0  0  0
    6.2327  -11.7938   -4.4948 H   0  0  0  0  0  0  0  0  0  0  0  0
    4.4420  -10.7580   -1.5960 H   0  0  0  0  0  0  0  0  0  0  0  0
    0.2998  -13.5604    1.5380 H   0  0  0  0  0  0  0  0  0  0  0  0
  1  2  1  0
  2  3  1  0
  3  4  2  0
  4  5  1  0
  5  6  1  0
  6  7  1  0
  7  8  1  0
  5  9  2  0
  9 10  1  0
 10 11  1  0
 10 12  2  0
  9 13  1  0
 13 14  1  0
 14 15  1  0
 15 16  2  0
 16 17  1  0
 17 18  2  0
 18 19  1  0
 19 20  1  0
 20 21  1  0
 21 22  2  0
 22 23  1  0
 23 24  2  0
 24 25  1  0
 25 26  2  0
 26 27  1  0
 27 28  1  0
 28 29  2  0
 28 30  2  0
 28 31  1  0
 31 32  1  0
 31 33  1  0
 31 34  1  0
 20 35  2  0
 35 36  1  0
 36 37  1  0
 36 38  1  0
 36 39  1  0
 35 40  1  0
 40 41  2  0
 13  3  1  0
 41 15  1  0
  8  6  1  0
 40 18  1  0
 26 21  1  0
  1 42  1  0
  1 43  1  0
  1 44  1  0
  2 45  1  0
  2 46  1  0
  6 47  1  0
  7 48  1  0
  7 49  1  0
  8 50  1  0
  8 51  1  0
 11 52  1  0
 11 53  1  0
 14 54  1  0
 14 55  1  0
 16 56  1  0
 17 57  1  0
 22 58  1  0
 23 59  1  0
 24 60  1  0
 25 61  1  0
 27 62  1  0
 41 63  1  0
M  END
>  <meeko>  (5) 
{"is_sidechain": [false], "free_energy": -7.666, "intermolecular_energy": -12.112, "internal_energy": -3.645}

$$$$
LIB_UVFOPYBSQPAXJS__M_PUB_ALL__e8__s20260927
     RDKit          3D

 63 67  0  0  0  0  0  0  0  0999 V2000
    6.9750  -15.5270   -3.3610 C   0  0  0  0  0  0  0  0  0  0  0  0
    7.9210  -14.7890   -4.2950 C   0  0  0  0  0  0  0  0  0  0  0  0
    9.2070  -14.4460   -3.6140 C   0  0  0  0  0  0  0  0  0  0  0  0
   10.1780  -15.3070   -3.3980 N   0  0  0  0  0  0  0  0  0  0  0  0
   11.1430  -14.6190   -2.7210 C   0  0  0  0  0  0  0  0  0  0  0  0
   12.4250  -15.3330   -2.2170 C   0  0  0  0  0  0  0  0  0  0  0  0
   12.7910  -16.6890   -2.7620 C   0  0  0  0  0  0  0  0  0  0  0  0
   13.5790  -15.4830   -3.1770 C   0  0  0  0  0  0  0  0  0  0  0  0
   10.8000  -13.2930   -2.5320 C   0  0  0  0  0  0  0  0  0  0  0  0
   11.4860  -12.2120   -1.8700 C   0  0  0  0  0  0  0  0  0  0  0  0
   11.1380  -11.9760   -0.5750 N   0  0  0  0  0  0  0  0  0  0  0  0
   12.3660  -11.5300   -2.3860 O   0  0  0  0  0  0  0  0  0  0  0  0
    9.5450  -13.2010   -3.1230 N   0  0  0  0  0  0  0  0  0  0  0  0
    8.7300  -11.9940   -3.2100 C   0  0  0  0  0  0  0  0  0  0  0  0
    7.4990  -12.0630   -2.3300 C   0  0  0  0  0  0  0  0  0  0  0  0
    7.6000  -12.3620   -0.9610 C   0  0  0  0  0  0  0  0  0  0  0  0
    6.4720  -12.4190   -0.1340 C   0  0  0  0  0  0  0  0  0  0  0  0
    5.2460  -12.1620   -0.7380 C   0  0  0  0  0  0  0  0  0  0  0  0
    4.0460  -12.1700   -0.1060 O   0  0  0  0  0  0  0  0  0  0  0  0
    3.0850  -11.8850   -1.0340 C   0  0  0  0  0  0  0  0  0  0  0  0
    1.7140  -11.8730   -0.5160 C   0  0  0  0  0  0  0  0  0  0  0  0
    0.9820  -10.6750   -0.5240 C   0  0  0  0  0  0  0  0  0  0  0  0
   -0.3230  -10.6240   -0.0250 C   0  0  0  0  0  0  0  0  0  0  0  0
   -0.9210  -11.7740    0.4810 C   0  0  0  0  0  0  0  0  0  0  0  0
   -0.2170  -12.9770    0.4880 C   0  0  0  0  0  0  0  0  0  0  0  0
    1.0900  -13.0350   -0.0050 C   0  0  0  0  0  0  0  0  0  0  0  0
    1.7840  -14.2910    0.0410 N   0  0  0  0  0  0  0  0  0  0  0  0
    1.6600  -15.3310   -1.3020 S   0  0  0  0  0  0  0  0  0  0  0  0
    1.1010  -16.5890   -0.8360 O   0  0  0  0  0  0  0  0  0  0  0  0
    0.9260  -14.5520   -2.2860 O   0  0  0  0  0  0  0  0  0  0  0  0
    3.4140  -15.5760   -1.8890 C   0  0  0  0  0  0  0  0  0  0  0  0
    4.3330  -15.1780   -0.9640 F   0  0  0  0  0  0  0  0  0  0  0  0
    3.6690  -14.8600   -3.0220 F   0  0  0  0  0  0  0  0  0  0  0  0
    3.6840  -16.8800   -2.1790 F   0  0  0  0  0  0  0  0  0  0  0  0
    3.6750  -11.6590   -2.2710 C   0  0  0  0  0  0  0  0  0  0  0  0
    2.9960  -11.2770   -3.5280 C   0  0  0  0  0  0  0  0  0  0  0  0
    2.5750   -9.9860   -3.5050 F   0  0  0  0  0  0  0  0  0  0  0  0
    3.7940  -11.3990   -4.6180 F   0  0  0  0  0  0  0  0  0  0  0  0
    1.8980  -12.0430   -3.7560 F   0  0  0  0  0  0  0  0  0  0  0  0
    5.0800  -11.8540   -2.0790 C   0  0  0  0  0  0  0  0  0  0  0  0
    6.2310  -11.7970   -2.8910 C   0  0  0  0  0  0  0  0  0  0  0  0
    7.2492  -15.3131   -2.3174 H   0  0  0  0  0  0  0  0  0  0  0  0
    5.9433  -15.1927   -3.5449 H   0  0  0  0  0  0  0  0  0  0  0  0
    7.0482  -16.6090   -3.5449 H   0  0  0  0  0  0  0  0  0  0  0  0
    8.1362  -15.4283   -5.1639 H   0  0  0  0  0  0  0  0  0  0  0  0
    7.4360  -13.8526   -4.6080 H   0  0  0  0  0  0  0  0  0  0  0  0
   12.2863  -14.9211   -1.2065 H   0  0  0  0  0  0  0  0  0  0  0  0
   13.2460  -17.4419   -2.1016 H   0  0  0  0  0  0  0  0  0  0  0  0
   12.2487  -17.4834   -3.2957 H   0  0  0  0  0  0  0  0  0  0  0  0
   14.6113  -15.3515   -2.8205 H   0  0  0  0  0  0  0  0  0  0  0  0
   13.8531  -15.0274   -4.1400 H   0  0  0  0  0  0  0  0  0  0  0  0
   10.4670  -12.5380   -0.0750 H   0  0  0  0  0  0  0  0  0  0  0  0
   11.6110  -11.2260   -0.0910 H   0  0  0  0  0  0  0  0  0  0  0  0
    9.3395  -11.1331   -2.8978 H   0  0  0  0  0  0  0  0  0  0  0  0
    8.3919  -11.8923   -4.2518 H   0  0  0  0  0  0  0  0  0  0  0  0
    8.5920  -12.5565   -0.5274 H   0  0  0  0  0  0  0  0  0  0  0  0
    6.5512  -12.6547    0.9375 H   0  0  0  0  0  0  0  0  0  0  0  0
    1.4426   -9.7620   -0.9293 H   0  0  0  0  0  0  0  0  0  0  0  0
   -0.8775   -9.6740   -0.0324 H   0  0  0  0  0  0  0  0  0  0  0  0
   -1.9473  -11.7338    0.8747 H   0  0  0  0  0  0  0  0  0  0  0  0
   -0.6927  -13.8864    0.8839 H   0  0  0  0  0  0  0  0  0  0  0  0
    1.6700  -14.8040    0.9230 H   0  0  0  0  0  0  0  0  0  0  0  0
    6.1415  -11.5461   -3.9583 H   0  0  0  0  0  0  0  0  0  0  0  0
  1  2  1  0
  2  3  1  0
  3  4  2  0
  4  5  1  0
  5  6  1  0
  6  7  1  0
  7  8  1  0
  5  9  2  0
  9 10  1  0
 10 11  1  0
 10 12  2  0
  9 13  1  0
 13 14  1  0
 14 15  1  0
 15 16  2  0
 16 17  1  0
 17 18  2  0
 18 19  1  0
 19 20  1  0
 20 21  1  0
 21 22  2  0
 22 23  1  0
 23 24  2  0
 24 25  1  0
 25 26  2  0
 26 27  1  0
 27 28  1  0
 28 29  2  0
 28 30  2  0
 28 31  1  0
 31 32  1  0
 31 33  1  0
 31 34  1  0
 20 35  2  0
 35 36  1  0
 36 37  1  0
 36 38  1  0
 36 39  1  0
 35 40  1  0
 40 41  2  0
 13  3  1  0
 41 15  1  0
  8  6  1  0
 40 18  1  0
 26 21  1  0
  1 42  1  0
  1 43  1  0
  1 44  1  0
  2 45  1  0
  2 46  1  0
  6 47  1  0
  7 48  1  0
  7 49  1  0
  8 50  1  0
  8 51  1  0
 11 52  1  0
 11 53  1  0
 14 54  1  0
 14 55  1  0
 16 56  1  0
 17 57  1  0
 22 58  1  0
 23 59  1  0
 24 60  1  0
 25 61  1  0
 27 62  1  0
 41 63  1  0
M  END
>  <meeko>  (6) 
{"is_sidechain": [false], "free_energy": -7.654, "intermolecular_energy": -11.878, "internal_energy": -3.861}

$$$$
LIB_UVFOPYBSQPAXJS__M_PUB_ALL__e8__s20260927
     RDKit          3D

 63 67  0  0  0  0  0  0  0  0999 V2000
    2.0150  -13.6730   -2.8810 C   0  0  0  0  0  0  0  0  0  0  0  0
    2.9230  -12.7730   -2.0580 C   0  0  0  0  0  0  0  0  0  0  0  0
    3.4680  -13.4900   -0.8640 C   0  0  0  0  0  0  0  0  0  0  0  0
    3.0500  -14.6690   -0.4580 N   0  0  0  0  0  0  0  0  0  0  0  0
    3.7600  -14.9460    0.6740 C   0  0  0  0  0  0  0  0  0  0  0  0
    3.4820  -16.2360    1.4930 C   0  0  0  0  0  0  0  0  0  0  0  0
    2.7520  -17.3870    0.8510 C   0  0  0  0  0  0  0  0  0  0  0  0
    4.2240  -17.4930    1.1130 C   0  0  0  0  0  0  0  0  0  0  0  0
    4.6680  -13.9490    0.9770 C   0  0  0  0  0  0  0  0  0  0  0  0
    5.6030  -13.8030    2.0630 C   0  0  0  0  0  0  0  0  0  0  0  0
    5.2030  -13.0250    3.1070 N   0  0  0  0  0  0  0  0  0  0  0  0
    6.7000  -14.3520    2.1140 O   0  0  0  0  0  0  0  0  0  0  0  0
    4.4670  -13.0170   -0.0360 N   0  0  0  0  0  0  0  0  0  0  0  0
    5.1900  -11.7600   -0.1920 C   0  0  0  0  0  0  0  0  0  0  0  0
    6.4050  -11.8990   -1.0870 C   0  0  0  0  0  0  0  0  0  0  0  0
    6.2850  -11.8540   -2.4860 C   0  0  0  0  0  0  0  0  0  0  0  0
    7.4000  -11.9720   -3.3240 C   0  0  0  0  0  0  0  0  0  0  0  0
    8.6320  -12.1320   -2.7000 C   0  0  0  0  0  0  0  0  0  0  0  0
    9.8220  -12.2610   -3.3400 O   0  0  0  0  0  0  0  0  0  0  0  0
   10.7910  -12.4080   -2.3880 C   0  0  0  0  0  0  0  0  0  0  0  0
   12.1480  -12.5820   -2.9140 C   0  0  0  0  0  0  0  0  0  0  0  0
   13.1060  -11.5770   -2.7040 C   0  0  0  0  0  0  0  0  0  0  0  0
   14.4040  -11.7030   -3.2040 C   0  0  0  0  0  0  0  0  0  0  0  0
   14.7700  -12.8410   -3.9150 C   0  0  0  0  0  0  0  0  0  0  0  0
   13.8400  -13.8570   -4.1260 C   0  0  0  0  0  0  0  0  0  0  0  0
   12.5370  -13.7370   -3.6320 C   0  0  0  0  0  0  0  0  0  0  0  0
   11.6060  -14.7980   -3.8920 N   0  0  0  0  0  0  0  0  0  0  0  0
   11.5080  -16.0770   -2.7720 S   0  0  0  0  0  0  0  0  0  0  0  0
   11.7710  -17.3130   -3.4880 O   0  0  0  0  0  0  0  0  0  0  0  0
   12.4030  -15.6760   -1.6980 O   0  0  0  0  0  0  0  0  0  0  0  0
    9.7480  -16.0460   -2.1530 C   0  0  0  0  0  0  0  0  0  0  0  0
    8.9200  -15.3420   -2.9750 F   0  0  0  0  0  0  0  0  0  0  0  0
    9.6580  -15.4640   -0.9220 F   0  0  0  0  0  0  0  0  0  0  0  0
    9.2200  -17.2970   -2.0360 F   0  0  0  0  0  0  0  0  0  0  0  0
   10.2250  -12.3410   -1.1210 C   0  0  0  0  0  0  0  0  0  0  0  0
   10.9290  -12.4070    0.1770 C   0  0  0  0  0  0  0  0  0  0  0  0
   11.8950  -11.4580    0.2790 F   0  0  0  0  0  0  0  0  0  0  0  0
   10.1030  -12.2280    1.2370 F   0  0  0  0  0  0  0  0  0  0  0  0
   11.5390  -13.6080    0.3530 F   0  0  0  0  0  0  0  0  0  0  0  0
    8.8170  -12.1750   -1.3280 C   0  0  0  0  0  0  0  0  0  0  0  0
    7.6810  -12.0500   -0.5040 C   0  0  0  0  0  0  0  0  0  0  0  0
    1.3973  -14.2852   -2.2074 H   0  0  0  0  0  0  0  0  0  0  0  0
    1.3631  -13.0546   -3.5155 H   0  0  0  0  0  0  0  0  0  0  0  0
    2.6276  -14.3303   -3.5155 H   0  0  0  0  0  0  0  0  0  0  0  0
    3.7608  -12.4385   -2.6875 H   0  0  0  0  0  0  0  0  0  0  0  0
    2.3316  -11.9150   -1.7056 H   0  0  0  0  0  0  0  0  0  0  0  0
    3.3397  -15.6506    2.4133 H   0  0  0  0  0  0  0  0  0  0  0  0
    2.0443  -17.9868    1.4420 H   0  0  0  0  0  0  0  0  0  0  0  0
    2.1109  -17.5022   -0.0354 H   0  0  0  0  0  0  0  0  0  0  0  0
    4.5955  -18.1700    1.8963 H   0  0  0  0  0  0  0  0  0  0  0  0
    5.1084  -17.7176    0.4987 H   0  0  0  0  0  0  0  0  0  0  0  0
    4.2930  -12.5950    3.1540 H   0  0  0  0  0  0  0  0  0  0  0  0
    5.8420  -12.9140    3.8820 H   0  0  0  0  0  0  0  0  0  0  0  0
    4.5111  -11.0143   -0.6314 H   0  0  0  0  0  0  0  0  0  0  0  0
    5.5406  -11.4493    0.8032 H   0  0  0  0  0  0  0  0  0  0  0  0
    5.2892  -11.7227   -2.9344 H   0  0  0  0  0  0  0  0  0  0  0  0
    7.3063  -11.9398   -4.4195 H   0  0  0  0  0  0  0  0  0  0  0  0
   12.8297  -10.6760   -2.1366 H   0  0  0  0  0  0  0  0  0  0  0  0
   15.1378  -10.9011   -3.0353 H   0  0  0  0  0  0  0  0  0  0  0  0
   15.7919  -12.9388   -4.3101 H   0  0  0  0  0  0  0  0  0  0  0  0
   14.1323  -14.7586   -4.6843 H   0  0  0  0  0  0  0  0  0  0  0  0
   11.6220  -15.1480   -4.8570 H   0  0  0  0  0  0  0  0  0  0  0  0
    7.7885  -12.0701    0.5905 H   0  0  0  0  0  0  0  0  0  0  0  0
  1  2  1  0
  2  3  1  0
  3  4  2  0
  4  5  1  0
  5  6  1  0
  6  7  1  0
  7  8  1  0
  5  9  2  0
  9 10  1  0
 10 11  1  0
 10 12  2  0
  9 13  1  0
 13 14  1  0
 14 15  1  0
 15 16  2  0
 16 17  1  0
 17 18  2  0
 18 19  1  0
 19 20  1  0
 20 21  1  0
 21 22  2  0
 22 23  1  0
 23 24  2  0
 24 25  1  0
 25 26  2  0
 26 27  1  0
 27 28  1  0
 28 29  2  0
 28 30  2  0
 28 31  1  0
 31 32  1  0
 31 33  1  0
 31 34  1  0
 20 35  2  0
 35 36  1  0
 36 37  1  0
 36 38  1  0
 36 39  1  0
 35 40  1  0
 40 41  2  0
 13  3  1  0
 41 15  1  0
  8  6  1  0
 40 18  1  0
 26 21  1  0
  1 42  1  0
  1 43  1  0
  1 44  1  0
  2 45  1  0
  2 46  1  0
  6 47  1  0
  7 48  1  0
  7 49  1  0
  8 50  1  0
  8 51  1  0
 11 52  1  0
 11 53  1  0
 14 54  1  0
 14 55  1  0
 16 56  1  0
 17 57  1  0
 22 58  1  0
 23 59  1  0
 24 60  1  0
 25 61  1  0
 27 62  1  0
 41 63  1  0
M  END
>  <meeko>  (7) 
{"is_sidechain": [false], "free_energy": -7.515, "intermolecular_energy": -12.002, "internal_energy": -3.517}

$$$$
LIB_UVFOPYBSQPAXJS__M_PUB_ALL__e8__s20260927
     RDKit          3D

 63 67  0  0  0  0  0  0  0  0999 V2000
   -2.1680  -17.0040    1.1930 C   0  0  0  0  0  0  0  0  0  0  0  0
   -1.8890  -16.0750    0.0240 C   0  0  0  0  0  0  0  0  0  0  0  0
   -1.9580  -14.6390    0.4350 C   0  0  0  0  0  0  0  0  0  0  0  0
   -3.0070  -13.8680    0.2480 N   0  0  0  0  0  0  0  0  0  0  0  0
   -2.6530  -12.6360    0.7170 C   0  0  0  0  0  0  0  0  0  0  0  0
   -3.6210  -11.4290    0.5910 C   0  0  0  0  0  0  0  0  0  0  0  0
   -3.1770  -10.1850   -0.1350 C   0  0  0  0  0  0  0  0  0  0  0  0
   -4.1770  -11.1030   -0.7730 C   0  0  0  0  0  0  0  0  0  0  0  0
   -1.3750  -12.6270    1.2420 C   0  0  0  0  0  0  0  0  0  0  0  0
   -0.5870  -11.5700    1.8230 C   0  0  0  0  0  0  0  0  0  0  0  0
   -0.7260  -11.3770    3.1640 N   0  0  0  0  0  0  0  0  0  0  0  0
    0.2070  -10.8710    1.1990 O   0  0  0  0  0  0  0  0  0  0  0  0
   -0.9440  -13.9360    1.0550 N   0  0  0  0  0  0  0  0  0  0  0  0
    0.3550  -14.4690    1.4490 C   0  0  0  0  0  0  0  0  0  0  0  0
    1.2800  -14.6710    0.2660 C   0  0  0  0  0  0  0  0  0  0  0  0
    1.8220  -15.9350   -0.0240 C   0  0  0  0  0  0  0  0  0  0  0  0
    2.6700  -16.1380   -1.1190 C   0  0  0  0  0  0  0  0  0  0  0  0
    2.9470  -15.0250   -1.9060 C   0  0  0  0  0  0  0  0  0  0  0  0
    3.7420  -15.0220   -3.0050 O   0  0  0  0  0  0  0  0  0  0  0  0
    3.7740  -13.7460   -3.4920 C   0  0  0  0  0  0  0  0  0  0  0  0
    4.6130  -13.5620   -4.6790 C   0  0  0  0  0  0  0  0  0  0  0  0
    4.0150  -13.2200   -5.9030 C   0  0  0  0  0  0  0  0  0  0  0  0
    4.7830  -13.0500   -7.0580 C   0  0  0  0  0  0  0  0  0  0  0  0
    6.1640  -13.2100   -7.0060 C   0  0  0  0  0  0  0  0  0  0  0  0
    6.7810  -13.5380   -5.8000 C   0  0  0  0  0  0  0  0  0  0  0  0
    6.0180  -13.7140   -4.6410 C   0  0  0  0  0  0  0  0  0  0  0  0
    6.6940  -14.0720   -3.4260 N   0  0  0  0  0  0  0  0  0  0  0  0
    7.2690  -12.8210   -2.4230 S   0  0  0  0  0  0  0  0  0  0  0  0
    8.6880  -13.0450   -2.2080 O   0  0  0  0  0  0  0  0  0  0  0  0
    6.8390  -11.6040   -3.0940 O   0  0  0  0  0  0  0  0  0  0  0  0
    6.3290  -13.0100   -0.8230 C   0  0  0  0  0  0  0  0  0  0  0  0
    7.1220  -12.8270    0.2710 F   0  0  0  0  0  0  0  0  0  0  0  0
    5.7860  -14.2560   -0.7030 F   0  0  0  0  0  0  0  0  0  0  0  0
    5.3010  -12.1210   -0.7200 F   0  0  0  0  0  0  0  0  0  0  0  0
    2.9640  -12.9240   -2.7180 C   0  0  0  0  0  0  0  0  0  0  0  0
    2.6850  -11.4880   -2.9320 C   0  0  0  0  0  0  0  0  0  0  0  0
    1.8100  -11.0000   -2.0150 F   0  0  0  0  0  0  0  0  0  0  0  0
    3.7960  -10.7150   -2.8490 F   0  0  0  0  0  0  0  0  0  0  0  0
    2.1380  -11.2620   -4.1540 F   0  0  0  0  0  0  0  0  0  0  0  0
    2.4380  -13.7570   -1.6780 C   0  0  0  0  0  0  0  0  0  0  0  0
    1.5830  -13.5770   -0.5730 C   0  0  0  0  0  0  0  0  0  0  0  0
   -2.0058  -16.4639    2.1374 H   0  0  0  0  0  0  0  0  0  0  0  0
   -3.2103  -17.3521    1.1441 H   0  0  0  0  0  0  0  0  0  0  0  0
   -1.4899  -17.8688    1.1441 H   0  0  0  0  0  0  0  0  0  0  0  0
   -0.8832  -16.2864   -0.3681 H   0  0  0  0  0  0  0  0  0  0  0  0
   -2.6549  -16.2503   -0.7458 H   0  0  0  0  0  0  0  0  0  0  0  0
   -4.0408  -11.6306    1.5876 H   0  0  0  0  0  0  0  0  0  0  0  0
   -3.4925   -9.1954    0.2272 H   0  0  0  0  0  0  0  0  0  0  0  0
   -2.2051   -9.7663   -0.4352 H   0  0  0  0  0  0  0  0  0  0  0  0
   -5.2252  -10.7863   -0.8780 H   0  0  0  0  0  0  0  0  0  0  0  0
   -4.2411  -11.6353   -1.7335 H   0  0  0  0  0  0  0  0  0  0  0  0
   -1.3150  -11.9550    3.7440 H   0  0  0  0  0  0  0  0  0  0  0  0
   -0.1790  -10.6440    3.5930 H   0  0  0  0  0  0  0  0  0  0  0  0
    0.8273  -13.7656    2.1505 H   0  0  0  0  0  0  0  0  0  0  0  0
    0.1870  -15.4513    1.9146 H   0  0  0  0  0  0  0  0  0  0  0  0
    1.5734  -16.7866    0.6263 H   0  0  0  0  0  0  0  0  0  0  0  0
    3.0954  -17.1268   -1.3455 H   0  0  0  0  0  0  0  0  0  0  0  0
    2.9246  -13.0838   -5.9532 H   0  0  0  0  0  0  0  0  0  0  0  0
    4.2953  -12.7895   -8.0089 H   0  0  0  0  0  0  0  0  0  0  0  0
    6.7683  -13.0778   -7.9156 H   0  0  0  0  0  0  0  0  0  0  0  0
    7.8736  -13.6591   -5.7595 H   0  0  0  0  0  0  0  0  0  0  0  0
    7.3940  -14.8150   -3.5340 H   0  0  0  0  0  0  0  0  0  0  0  0
    1.1526  -12.5864   -0.3645 H   0  0  0  0  0  0  0  0  0  0  0  0
  1  2  1  0
  2  3  1  0
  3  4  2  0
  4  5  1  0
  5  6  1  0
  6  7  1  0
  7  8  1  0
  5  9  2  0
  9 10  1  0
 10 11  1  0
 10 12  2  0
  9 13  1  0
 13 14  1  0
 14 15  1  0
 15 16  2  0
 16 17  1  0
 17 18  2  0
 18 19  1  0
 19 20  1  0
 20 21  1  0
 21 22  2  0
 22 23  1  0
 23 24  2  0
 24 25  1  0
 25 26  2  0
 26 27  1  0
 27 28  1  0
 28 29  2  0
 28 30  2  0
 28 31  1  0
 31 32  1  0
 31 33  1  0
 31 34  1  0
 20 35  2  0
 35 36  1  0
 36 37  1  0
 36 38  1  0
 36 39  1  0
 35 40  1  0
 40 41  2  0
 13  3  1  0
 41 15  1  0
  8  6  1  0
 40 18  1  0
 26 21  1  0
  1 42  1  0
  1 43  1  0
  1 44  1  0
  2 45  1  0
  2 46  1  0
  6 47  1  0
  7 48  1  0
  7 49  1  0
  8 50  1  0
  8 51  1  0
 11 52  1  0
 11 53  1  0
 14 54  1  0
 14 55  1  0
 16 56  1  0
 17 57  1  0
 22 58  1  0
 23 59  1  0
 24 60  1  0
 25 61  1  0
 27 62  1  0
 41 63  1  0
M  END
>  <meeko>  (8) 
{"is_sidechain": [false], "free_energy": -7.503, "intermolecular_energy": -12.142, "internal_energy": -3.358}

$$$$
LIB_UVFOPYBSQPAXJS__M_PUB_ALL__e8__s20260927
     RDKit          3D

 63 67  0  0  0  0  0  0  0  0999 V2000
    1.7570  -14.8430    3.9670 C   0  0  0  0  0  0  0  0  0  0  0  0
    0.5610  -14.1540    4.6040 C   0  0  0  0  0  0  0  0  0  0  0  0
   -0.7100  -14.4920    3.8930 C   0  0  0  0  0  0  0  0  0  0  0  0
   -1.2380  -15.6960    3.8620 N   0  0  0  0  0  0  0  0  0  0  0  0
   -2.3550  -15.5930    3.0840 C   0  0  0  0  0  0  0  0  0  0  0  0
   -3.2090  -16.8450    2.7480 C   0  0  0  0  0  0  0  0  0  0  0  0
   -2.6860  -18.2190    3.0770 C   0  0  0  0  0  0  0  0  0  0  0  0
   -3.7980  -17.6310    3.8920 C   0  0  0  0  0  0  0  0  0  0  0  0
   -2.5620  -14.3000    2.6400 C   0  0  0  0  0  0  0  0  0  0  0  0
   -3.5830  -13.7310    1.7980 C   0  0  0  0  0  0  0  0  0  0  0  0
   -4.6950  -13.2580    2.4260 N   0  0  0  0  0  0  0  0  0  0  0  0
   -3.4940  -13.6210    0.5780 O   0  0  0  0  0  0  0  0  0  0  0  0
   -1.4890  -13.6020    3.1810 N   0  0  0  0  0  0  0  0  0  0  0  0
   -1.2350  -12.1740    3.0210 C   0  0  0  0  0  0  0  0  0  0  0  0
   -0.4190  -11.8670    1.7830 C   0  0  0  0  0  0  0  0  0  0  0  0
   -0.2640  -10.5470    1.3250 C   0  0  0  0  0  0  0  0  0  0  0  0
    0.4950  -10.2480    0.1870 C   0  0  0  0  0  0  0  0  0  0  0  0
    1.0900  -11.3230   -0.4640 C   0  0  0  0  0  0  0  0  0  0  0  0
    1.8600  -11.2340   -1.5780 O   0  0  0  0  0  0  0  0  0  0  0  0
    2.2460  -12.5010   -1.9180 C   0  0  0  0  0  0  0  0  0  0  0  0
    3.0750  -12.5870   -3.1230 C   0  0  0  0  0  0  0  0  0  0  0  0
    2.5470  -13.1720   -4.2850 C   0  0  0  0  0  0  0  0  0  0  0  0
    3.3140  -13.2840   -5.4480 C   0  0  0  0  0  0  0  0  0  0  0  0
    4.6190  -12.8040   -5.4710 C   0  0  0  0  0  0  0  0  0  0  0  0
    5.1600  -12.2090   -4.3330 C   0  0  0  0  0  0  0  0  0  0  0  0
    4.4010  -12.0970   -3.1640 C   0  0  0  0  0  0  0  0  0  0  0  0
    5.0060  -11.4960   -2.0090 N   0  0  0  0  0  0  0  0  0  0  0  0
    5.9480  -12.4800   -0.9880 S   0  0  0  0  0  0  0  0  0  0  0  0
    5.9590  -13.8190   -1.5510 O   0  0  0  0  0  0  0  0  0  0  0  0
    7.2030  -11.7570   -0.8590 O   0  0  0  0  0  0  0  0  0  0  0  0
    5.0580  -12.4710    0.6520 C   0  0  0  0  0  0  0  0  0  0  0  0
    4.4530  -13.6610    0.9230 F   0  0  0  0  0  0  0  0  0  0  0  0
    4.0780  -11.5220    0.6860 F   0  0  0  0  0  0  0  0  0  0  0  0
    5.8970  -12.2070    1.6930 F   0  0  0  0  0  0  0  0  0  0  0  0
    1.7460  -13.4110   -0.9960 C   0  0  0  0  0  0  0  0  0  0  0  0
    1.9690  -14.8730   -0.9720 C   0  0  0  0  0  0  0  0  0  0  0  0
    1.0530  -15.5380   -1.7220 F   0  0  0  0  0  0  0  0  0  0  0  0
    3.1870  -15.2290   -1.4520 F   0  0  0  0  0  0  0  0  0  0  0  0
    1.8810  -15.3710    0.2880 F   0  0  0  0  0  0  0  0  0  0  0  0
    0.9820  -12.6440   -0.0590 C   0  0  0  0  0  0  0  0  0  0  0  0
    0.2170  -12.9210    1.0920 C   0  0  0  0  0  0  0  0  0  0  0  0
    2.4220  -15.2261    4.7550 H   0  0  0  0  0  0  0  0  0  0  0  0
    1.4089  -15.6790    3.3425 H   0  0  0  0  0  0  0  0  0  0  0  0
    2.3055  -14.1225    3.3425 H   0  0  0  0  0  0  0  0  0  0  0  0
    0.4801  -14.4758    5.6528 H   0  0  0  0  0  0  0  0  0  0  0  0
    0.7142  -13.0667    4.5382 H   0  0  0  0  0  0  0  0  0  0  0  0
   -3.5960  -16.3663    1.8364 H   0  0  0  0  0  0  0  0  0  0  0  0
   -2.8880  -19.0608    2.3983 H   0  0  0  0  0  0  0  0  0  0  0  0
   -1.6949  -18.6388    3.3041 H   0  0  0  0  0  0  0  0  0  0  0  0
   -4.8154  -18.0413    3.8107 H   0  0  0  0  0  0  0  0  0  0  0  0
   -3.9596  -17.4411    4.9634 H   0  0  0  0  0  0  0  0  0  0  0  0
   -4.8030  -13.2640    3.4280 H   0  0  0  0  0  0  0  0  0  0  0  0
   -5.4200  -12.8500    1.8540 H   0  0  0  0  0  0  0  0  0  0  0  0
   -2.1993  -11.6500    2.9472 H   0  0  0  0  0  0  0  0  0  0  0  0
   -0.6581  -11.8365    3.8946 H   0  0  0  0  0  0  0  0  0  0  0  0
   -0.7514   -9.7282    1.8746 H   0  0  0  0  0  0  0  0  0  0  0  0
    0.6144   -9.2156   -0.1735 H   0  0  0  0  0  0  0  0  0  0  0  0
    1.5133  -13.5481   -4.2800 H   0  0  0  0  0  0  0  0  0  0  0  0
    2.8850  -13.7523   -6.3461 H   0  0  0  0  0  0  0  0  0  0  0  0
    5.2231  -12.8939   -6.3859 H   0  0  0  0  0  0  0  0  0  0  0  0
    6.1906  -11.8250   -4.3544 H   0  0  0  0  0  0  0  0  0  0  0  0
    4.3770  -10.8910   -1.4690 H   0  0  0  0  0  0  0  0  0  0  0  0
    0.1158  -13.9559    1.4509 H   0  0  0  0  0  0  0  0  0  0  0  0
  1  2  1  0
  2  3  1  0
  3  4  2  0
  4  5  1  0
  5  6  1  0
  6  7  1  0
  7  8  1  0
  5  9  2  0
  9 10  1  0
 10 11  1  0
 10 12  2  0
  9 13  1  0
 13 14  1  0
 14 15  1  0
 15 16  2  0
 16 17  1  0
 17 18  2  0
 18 19  1  0
 19 20  1  0
 20 21  1  0
 21 22  2  0
 22 23  1  0
 23 24  2  0
 24 25  1  0
 25 26  2  0
 26 27  1  0
 27 28  1  0
 28 29  2  0
 28 30  2  0
 28 31  1  0
 31 32  1  0
 31 33  1  0
 31 34  1  0
 20 35  2  0
 35 36  1  0
 36 37  1  0
 36 38  1  0
 36 39  1  0
 35 40  1  0
 40 41  2  0
 13  3  1  0
 41 15  1  0
  8  6  1  0
 40 18  1  0
 26 21  1  0
  1 42  1  0
  1 43  1  0
  1 44  1  0
  2 45  1  0
  2 46  1  0
  6 47  1  0
  7 48  1  0
  7 49  1  0
  8 50  1  0
  8 51  1  0
 11 52  1  0
 11 53  1  0
 14 54  1  0
 14 55  1  0
 16 56  1  0
 17 57  1  0
 22 58  1  0
 23 59  1  0
 24 60  1  0
 25 61  1  0
 27 62  1  0
 41 63  1  0
M  END
>  <meeko>  (9) 
{"is_sidechain": [false], "free_energy": -7.398, "intermolecular_energy": -11.788, "internal_energy": -3.545}

$$$$
