LIB_VPYOIPWGVNGDBV__M_PUB_ALL__e8__s20260927
     RDKit          3D

 79 83  0  0  0  0  0  0  0  0999 V2000
   -2.2990  -15.6870    3.0060 C   0  0  0  0  0  0  0  0  0  0  0  0
   -1.6000  -15.2200    1.9590 C   0  0  0  0  0  0  0  0  0  0  0  0
   -2.0650  -14.1330    1.0980 C   0  0  0  0  0  0  0  0  0  0  0  0
   -2.8000  -12.9390    1.7070 C   0  0  1  0  0  0  0  0  0  0  0  0
   -4.1510  -13.4050    2.2810 C   0  0  0  0  0  0  0  0  0  0  0  0
   -1.9810  -12.1720    2.7900 C   0  0  1  0  0  0  0  0  0  0  0  0
   -0.4610  -12.3360    2.7010 C   0  0  0  0  0  0  0  0  0  0  0  0
    0.0940  -11.5040    1.5930 C   0  0  0  0  0  0  0  0  0  0  0  0
   -0.5390  -10.4030    1.1570 C   0  0  0  0  0  0  0  0  0  0  0  0
   -0.0210   -9.5410    0.0490 C   0  0  0  0  0  0  0  0  0  0  0  0
   -1.7870   -9.9410    1.8220 C   0  0  0  0  0  0  0  0  0  0  0  0
   -2.2900   -8.8580    1.5550 O   0  0  0  0  0  0  0  0  0  0  0  0
   -2.3230  -10.7630    2.7600 O   0  0  0  0  0  0  0  0  0  0  0  0
   -1.7950  -14.2160   -0.2190 C   0  0  0  0  0  0  0  0  0  0  0  0
   -1.0920  -15.3960   -0.8200 C   0  0  0  0  0  0  0  0  0  0  0  0
    0.0480  -15.9550    0.0670 C   0  0  2  0  0  0  0  0  0  0  0  0
    0.2150  -17.4490   -0.2900 C   0  0  0  0  0  0  0  0  0  0  0  0
   -0.2520  -15.8260    1.5990 C   0  0  1  0  0  0  0  0  0  0  0  0
    0.8890  -14.9780    2.1940 C   0  0  0  0  0  0  0  0  0  0  0  0
    2.0670  -15.1430    1.2330 C   0  0  2  0  0  0  0  0  0  0  0  0
    2.6920  -16.3960    1.4750 O   0  0  0  0  0  0  0  0  0  0  0  0
    3.0850  -14.0480    1.4120 C   0  0  0  0  0  0  0  0  0  0  0  0
    4.1370  -13.7940    0.6050 C   0  0  0  0  0  0  0  0  0  0  0  0
    4.8410  -12.5410    0.8110 C   0  0  0  0  0  0  0  0  0  0  0  0
    5.6890  -11.8990   -0.0020 C   0  0  0  0  0  0  0  0  0  0  0  0
    6.1880  -12.2080   -1.3350 C   0  0  0  0  0  0  0  0  0  0  0  0
    6.5750  -11.2810   -2.0390 O   0  0  0  0  0  0  0  0  0  0  0  0
    6.2800  -13.4810   -1.7540 O   0  0  0  0  0  0  0  0  0  0  0  0
    6.0260  -14.6730   -0.9770 C   0  0  0  0  0  0  0  0  0  0  0  0
    6.3540  -15.8280   -1.9570 C   0  0  0  0  0  0  0  0  0  0  0  0
    7.0460  -14.8290    0.1730 C   0  0  0  0  0  0  0  0  0  0  0  0
    4.5300  -14.7530   -0.5190 C   0  0  2  0  0  0  0  0  0  0  0  0
    3.4590  -14.7140   -1.6680 C   0  0  2  0  0  0  0  0  0  0  0  0
    3.0800  -13.3530   -1.9650 O   0  0  0  0  0  0  0  0  0  0  0  0
    3.1780  -12.9590   -3.2630 C   0  0  0  0  0  0  0  0  0  0  0  0
    3.0720  -11.4680   -3.3510 C   0  0  0  0  0  0  0  0  0  0  0  0
    3.3190  -13.7000   -4.2250 O   0  0  0  0  0  0  0  0  0  0  0  0
    2.2210  -15.5730   -1.3320 C   0  0  0  0  0  0  0  0  0  0  0  0
    1.3640  -15.1120   -0.1400 C   0  0  1  0  0  0  0  0  0  0  0  0
   -1.8938  -16.5080    3.6157 H   0  0  0  0  0  0  0  0  0  0  0  0
   -3.2769  -15.2485    3.2541 H   0  0  0  0  0  0  0  0  0  0  0  0
   -2.9570  -12.2175    0.8917 H   0  0  0  0  0  0  0  0  0  0  0  0
   -4.1072  -13.3899    3.3800 H   0  0  0  0  0  0  0  0  0  0  0  0
   -4.9482  -12.7299    1.9365 H   0  0  0  0  0  0  0  0  0  0  0  0
   -4.3625  -14.4280    1.9365 H   0  0  0  0  0  0  0  0  0  0  0  0
   -2.2675  -12.6331    3.7467 H   0  0  0  0  0  0  0  0  0  0  0  0
   -0.0072  -12.0205    3.6520 H   0  0  0  0  0  0  0  0  0  0  0  0
   -0.2298  -13.3926    2.5007 H   0  0  0  0  0  0  0  0  0  0  0  0
    1.0435  -11.7996    1.1228 H   0  0  0  0  0  0  0  0  0  0  0  0
    0.5015   -8.6715    0.4745 H   0  0  0  0  0  0  0  0  0  0  0  0
    0.6780  -10.1215   -0.5710 H   0  0  0  0  0  0  0  0  0  0  0  0
   -0.8617   -9.1963   -0.5710 H   0  0  0  0  0  0  0  0  0  0  0  0
   -2.1010  -13.3890   -0.8766 H   0  0  0  0  0  0  0  0  0  0  0  0
   -1.8302  -16.1952   -0.9825 H   0  0  0  0  0  0  0  0  0  0  0  0
   -0.6326  -15.0544   -1.7593 H   0  0  0  0  0  0  0  0  0  0  0  0
    0.2812  -18.0417    0.6343 H   0  0  0  0  0  0  0  0  0  0  0  0
   -0.6513  -17.7842   -0.8792 H   0  0  0  0  0  0  0  0  0  0  0  0
    1.1339  -17.5847   -0.8792 H   0  0  0  0  0  0  0  0  0  0  0  0
   -0.3057  -16.8425    2.0159 H   0  0  0  0  0  0  0  0  0  0  0  0
    0.5897  -13.9214    2.2569 H   0  0  0  0  0  0  0  0  0  0  0  0
    1.1469  -15.3001    3.2137 H   0  0  0  0  0  0  0  0  0  0  0  0
    2.8770  -16.4490    2.4290 H   0  0  0  0  0  0  0  0  0  0  0  0
    2.9592  -13.3911    2.2853 H   0  0  0  0  0  0  0  0  0  0  0  0
    4.6498  -12.0475    1.7753 H   0  0  0  0  0  0  0  0  0  0  0  0
    6.0834  -10.9609    0.4156 H   0  0  0  0  0  0  0  0  0  0  0  0
    6.6107  -16.7321   -1.3854 H   0  0  0  0  0  0  0  0  0  0  0  0
    5.4780  -16.0312   -2.5906 H   0  0  0  0  0  0  0  0  0  0  0  0
    7.2060  -15.5405   -2.5906 H   0  0  0  0  0  0  0  0  0  0  0  0
    6.5250  -14.7493    1.1385 H   0  0  0  0  0  0  0  0  0  0  0  0
    7.5338  -15.8122    0.0996 H   0  0  0  0  0  0  0  0  0  0  0  0
    7.8054  -14.0366    0.0996 H   0  0  0  0  0  0  0  0  0  0  0  0
    4.5065  -15.7705   -0.1016 H   0  0  0  0  0  0  0  0  0  0  0  0
    3.9213  -15.1506   -2.5656 H   0  0  0  0  0  0  0  0  0  0  0  0
    3.0417  -11.0421   -2.3373 H   0  0  0  0  0  0  0  0  0  0  0  0
    3.9441  -11.0696   -3.8902 H   0  0  0  0  0  0  0  0  0  0  0  0
    2.1523  -11.1970   -3.8902 H   0  0  0  0  0  0  0  0  0  0  0  0
    1.5742  -15.5882   -2.2216 H   0  0  0  0  0  0  0  0  0  0  0  0
    2.6209  -16.5548   -1.0385 H   0  0  0  0  0  0  0  0  0  0  0  0
    1.1483  -14.0757   -0.4391 H   0  0  0  0  0  0  0  0  0  0  0  0
  1  2  2  0
  2  3  1  0
  3  4  1  0
  4  5  1  0
  4  6  1  0
  6  7  1  0
  7  8  1  0
  8  9  2  0
  9 10  1  0
  9 11  1  0
 11 12  2  0
 11 13  1  0
  3 14  2  0
 14 15  1  0
 15 16  1  0
 16 17  1  6
 16 18  1  0
 18 19  1  0
 19 20  1  0
 20 21  1  1
 20 22  1  0
 22 23  2  0
 23 24  1  0
 24 25  2  0
 25 26  1  0
 26 27  2  0
 26 28  1  0
 28 29  1  0
 29 30  1  0
 29 31  1  0
 29 32  1  0
 32 33  1  0
 33 34  1  0
 34 35  1  0
 35 36  1  0
 35 37  2  0
 33 38  1  0
 38 39  1  0
 18  2  1  0
 39 20  1  0
 13  6  1  0
 39 16  1  0
 32 23  1  0
  1 40  1  0
  1 41  1  0
  4 42  1  6
  5 43  1  0
  5 44  1  0
  5 45  1  0
  6 46  1  1
  7 47  1  0
  7 48  1  0
  8 49  1  0
 10 50  1  0
 10 51  1  0
 10 52  1  0
 14 53  1  0
 15 54  1  0
 15 55  1  0
 17 56  1  0
 17 57  1  0
 17 58  1  0
 18 59  1  1
 19 60  1  0
 19 61  1  0
 21 62  1  0
 22 63  1  0
 24 64  1  0
 25 65  1  0
 30 66  1  0
 30 67  1  0
 30 68  1  0
 31 69  1  0
 31 70  1  0
 31 71  1  0
 32 72  1  1
 33 73  1  6
 36 74  1  0
 36 75  1  0
 36 76  1  0
 38 77  1  0
 38 78  1  0
 39 79  1  6
M  END
>  <meeko>  (1) 
{"is_sidechain": [false], "free_energy": -6.031, "intermolecular_energy": -10.439, "internal_energy": 0.921}

$$$$
LIB_VPYOIPWGVNGDBV__M_PUB_ALL__e8__s20260927
     RDKit          3D

 79 83  0  0  0  0  0  0  0  0999 V2000
    6.0750  -12.0660   -2.8920 C   0  0  0  0  0  0  0  0  0  0  0  0
    4.9180  -12.7030   -2.6490 C   0  0  0  0  0  0  0  0  0  0  0  0
    4.4600  -13.8630   -3.4150 C   0  0  0  0  0  0  0  0  0  0  0  0
    5.4650  -14.9240   -3.8670 C   0  0  1  0  0  0  0  0  0  0  0  0
    5.3310  -16.1720   -2.9750 C   0  0  0  0  0  0  0  0  0  0  0  0
    5.3450  -15.3110   -5.3720 C   0  0  1  0  0  0  0  0  0  0  0  0
    5.8960  -14.2800   -6.3610 C   0  0  0  0  0  0  0  0  0  0  0  0
    7.3880  -14.3300   -6.3950 C   0  0  0  0  0  0  0  0  0  0  0  0
    8.0610  -15.4430   -6.0650 C   0  0  0  0  0  0  0  0  0  0  0  0
    9.5550  -15.5370   -6.0830 C   0  0  0  0  0  0  0  0  0  0  0  0
    7.3280  -16.6900   -5.7200 C   0  0  0  0  0  0  0  0  0  0  0  0
    7.9110  -17.7570   -5.5770 O   0  0  0  0  0  0  0  0  0  0  0  0
    5.9780  -16.5960   -5.6020 O   0  0  0  0  0  0  0  0  0  0  0  0
    3.1420  -13.9660   -3.6690 C   0  0  0  0  0  0  0  0  0  0  0  0
    2.1590  -12.9160   -3.2450 C   0  0  0  0  0  0  0  0  0  0  0  0
    2.4600  -12.3170   -1.8490 C   0  0  2  0  0  0  0  0  0  0  0  0
    1.8580  -10.8930   -1.8250 C   0  0  0  0  0  0  0  0  0  0  0  0
    3.9920  -12.2290   -1.5400 C   0  0  1  0  0  0  0  0  0  0  0  0
    4.2250  -13.0590   -0.2620 C   0  0  0  0  0  0  0  0  0  0  0  0
    2.8760  -13.0880    0.4590 C   0  0  2  0  0  0  0  0  0  0  0  0
    2.6840  -11.8540    1.1350 O   0  0  0  0  0  0  0  0  0  0  0  0
    2.8090  -14.2090    1.4620 C   0  0  0  0  0  0  0  0  0  0  0  0
    1.7060  -14.6340    2.1140 C   0  0  0  0  0  0  0  0  0  0  0  0
    1.8080  -15.8880    2.8380 C   0  0  0  0  0  0  0  0  0  0  0  0
    0.8360  -16.6940    3.2840 C   0  0  0  0  0  0  0  0  0  0  0  0
   -0.6180  -16.6000    3.2040 C   0  0  0  0  0  0  0  0  0  0  0  0
   -1.2700  -17.6390    3.2450 O   0  0  0  0  0  0  0  0  0  0  0  0
   -1.2260  -15.4040    3.1460 O   0  0  0  0  0  0  0  0  0  0  0  0
   -0.5990  -14.1040    3.2320 C   0  0  0  0  0  0  0  0  0  0  0  0
   -1.7900  -13.1150    3.1570 C   0  0  0  0  0  0  0  0  0  0  0  0
    0.0250  -13.8650    4.6250 C   0  0  0  0  0  0  0  0  0  0  0  0
    0.3880  -13.8630    2.0400 C   0  0  2  0  0  0  0  0  0  0  0  0
   -0.2440  -13.9690    0.6290 C   0  0  2  0  0  0  0  0  0  0  0  0
   -0.2000  -15.3290    0.1460 O   0  0  0  0  0  0  0  0  0  0  0  0
   -1.1240  -15.6780   -0.7890 C   0  0  0  0  0  0  0  0  0  0  0  0
   -2.1900  -16.5210   -0.1600 C   0  0  0  0  0  0  0  0  0  0  0  0
   -1.0950  -15.3680   -1.9710 O   0  0  0  0  0  0  0  0  0  0  0  0
    0.4110  -13.0020   -0.3800 C   0  0  0  0  0  0  0  0  0  0  0  0
    1.8910  -13.2540   -0.7170 C   0  0  1  0  0  0  0  0  0  0  0  0
    6.3643  -11.1987   -2.2804 H   0  0  0  0  0  0  0  0  0  0  0  0
    6.7334  -12.4115   -3.7027 H   0  0  0  0  0  0  0  0  0  0  0  0
    6.4650  -14.4792   -3.7563 H   0  0  0  0  0  0  0  0  0  0  0  0
    5.3632  -15.8718   -1.9172 H   0  0  0  0  0  0  0  0  0  0  0  0
    4.3740  -16.6720   -3.1853 H   0  0  0  0  0  0  0  0  0  0  0  0
    6.1600  -16.8637   -3.1853 H   0  0  0  0  0  0  0  0  0  0  0  0
    4.2642  -15.3554   -5.5715 H   0  0  0  0  0  0  0  0  0  0  0  0
    5.5040  -14.4971   -7.3656 H   0  0  0  0  0  0  0  0  0  0  0  0
    5.5819  -13.2762   -6.0389 H   0  0  0  0  0  0  0  0  0  0  0  0
    7.9486  -13.4333   -6.6977 H   0  0  0  0  0  0  0  0  0  0  0  0
    9.9334  -15.5608   -5.0504 H   0  0  0  0  0  0  0  0  0  0  0  0
    9.8583  -16.4560   -6.6059 H   0  0  0  0  0  0  0  0  0  0  0  0
    9.9711  -14.6633   -6.6059 H   0  0  0  0  0  0  0  0  0  0  0  0
    2.7730  -14.8519   -4.2067 H   0  0  0  0  0  0  0  0  0  0  0  0
    2.1779  -12.1021   -3.9847 H   0  0  0  0  0  0  0  0  0  0  0  0
    1.1735  -13.4007   -3.1839 H   0  0  0  0  0  0  0  0  0  0  0  0
    1.7215  -10.5701   -0.7823 H   0  0  0  0  0  0  0  0  0  0  0  0
    2.5394  -10.1982   -2.3378 H   0  0  0  0  0  0  0  0  0  0  0  0
    0.8848  -10.8976   -2.3378 H   0  0  0  0  0  0  0  0  0  0  0  0
    4.2485  -11.1655   -1.4253 H   0  0  0  0  0  0  0  0  0  0  0  0
    4.5451  -14.0794   -0.5195 H   0  0  0  0  0  0  0  0  0  0  0  0
    5.0149  -12.6244    0.3682 H   0  0  0  0  0  0  0  0  0  0  0  0
    2.9280  -11.9920    2.0670 H   0  0  0  0  0  0  0  0  0  0  0  0
    3.7503  -14.7325    1.6852 H   0  0  0  0  0  0  0  0  0  0  0  0
    2.8330  -16.2254    3.0514 H   0  0  0  0  0  0  0  0  0  0  0  0
    1.2003  -17.5910    3.8062 H   0  0  0  0  0  0  0  0  0  0  0  0
   -2.1104  -12.8490    4.1751 H   0  0  0  0  0  0  0  0  0  0  0  0
   -1.4787  -12.2061    2.6213 H   0  0  0  0  0  0  0  0  0  0  0  0
   -2.6262  -13.5880    2.6213 H   0  0  0  0  0  0  0  0  0  0  0  0
   -0.7001  -14.1427    5.4041 H   0  0  0  0  0  0  0  0  0  0  0  0
    0.9309  -14.4798    4.7313 H   0  0  0  0  0  0  0  0  0  0  0  0
    0.2885  -12.8023    4.7313 H   0  0  0  0  0  0  0  0  0  0  0  0
    0.6444  -12.8035    2.1873 H   0  0  0  0  0  0  0  0  0  0  0  0
   -1.2976  -13.6674    0.7240 H   0  0  0  0  0  0  0  0  0  0  0  0
   -2.1093  -16.4572    0.9352 H   0  0  0  0  0  0  0  0  0  0  0  0
   -3.1790  -16.1580   -0.4766 H   0  0  0  0  0  0  0  0  0  0  0  0
   -2.0647  -17.5670   -0.4766 H   0  0  0  0  0  0  0  0  0  0  0  0
   -0.1596  -13.0625   -1.3185 H   0  0  0  0  0  0  0  0  0  0  0  0
    0.3891  -12.0164    0.1079 H   0  0  0  0  0  0  0  0  0  0  0  0
    1.8454  -14.3057   -1.0362 H   0  0  0  0  0  0  0  0  0  0  0  0
  1  2  2  0
  2  3  1  0
  3  4  1  0
  4  5  1  0
  4  6  1  0
  6  7  1  0
  7  8  1  0
  8  9  2  0
  9 10  1  0
  9 11  1  0
 11 12  2  0
 11 13  1  0
  3 14  2  0
 14 15  1  0
 15 16  1  0
 16 17  1  6
 16 18  1  0
 18 19  1  0
 19 20  1  0
 20 21  1  1
 20 22  1  0
 22 23  2  0
 23 24  1  0
 24 25  2  0
 25 26  1  0
 26 27  2  0
 26 28  1  0
 28 29  1  0
 29 30  1  0
 29 31  1  0
 29 32  1  0
 32 33  1  0
 33 34  1  0
 34 35  1  0
 35 36  1  0
 35 37  2  0
 33 38  1  0
 38 39  1  0
 18  2  1  0
 39 20  1  0
 13  6  1  0
 39 16  1  0
 32 23  1  0
  1 40  1  0
  1 41  1  0
  4 42  1  6
  5 43  1  0
  5 44  1  0
  5 45  1  0
  6 46  1  6
  7 47  1  0
  7 48  1  0
  8 49  1  0
 10 50  1  0
 10 51  1  0
 10 52  1  0
 14 53  1  0
 15 54  1  0
 15 55  1  0
 17 56  1  0
 17 57  1  0
 17 58  1  0
 18 59  1  1
 19 60  1  0
 19 61  1  0
 21 62  1  0
 22 63  1  0
 24 64  1  0
 25 65  1  0
 30 66  1  0
 30 67  1  0
 30 68  1  0
 31 69  1  0
 31 70  1  0
 31 71  1  0
 32 72  1  1
 33 73  1  1
 36 74  1  0
 36 75  1  0
 36 76  1  0
 38 77  1  0
 38 78  1  0
 39 79  1  6
M  END
>  <meeko>  (2) 
{"is_sidechain": [false], "free_energy": -5.892, "intermolecular_energy": -9.896, "internal_energy": 0.619}

$$$$
LIB_VPYOIPWGVNGDBV__M_PUB_ALL__e8__s20260927
     RDKit          3D

 79 83  0  0  0  0  0  0  0  0999 V2000
    6.7040  -10.6240   -1.8760 C   0  0  0  0  0  0  0  0  0  0  0  0
    6.2660  -11.8790   -1.6870 C   0  0  0  0  0  0  0  0  0  0  0  0
    7.1550  -13.0350   -1.5720 C   0  0  0  0  0  0  0  0  0  0  0  0
    8.4770  -12.9080   -0.8140 C   0  0  1  0  0  0  0  0  0  0  0  0
    8.2280  -13.1140    0.6920 C   0  0  0  0  0  0  0  0  0  0  0  0
    9.5950  -13.8690   -1.3210 C   0  0  1  0  0  0  0  0  0  0  0  0
   10.3050  -13.4310   -2.6040 C   0  0  0  0  0  0  0  0  0  0  0  0
   11.2800  -12.3380   -2.3170 C   0  0  0  0  0  0  0  0  0  0  0  0
   11.8290  -12.1870   -1.1020 C   0  0  0  0  0  0  0  0  0  0  0  0
   12.8080  -11.1050   -0.7690 C   0  0  0  0  0  0  0  0  0  0  0  0
   11.5310  -13.1600   -0.0170 C   0  0  0  0  0  0  0  0  0  0  0  0
   12.1420  -13.1430    1.0440 O   0  0  0  0  0  0  0  0  0  0  0  0
   10.5710  -14.0860   -0.2710 O   0  0  0  0  0  0  0  0  0  0  0  0
    6.7510  -14.1950   -2.1240 C   0  0  0  0  0  0  0  0  0  0  0  0
    5.4650  -14.3150   -2.8850 C   0  0  0  0  0  0  0  0  0  0  0  0
    4.3010  -13.5030   -2.2650 C   0  0  2  0  0  0  0  0  0  0  0  0
    3.3170  -13.1680   -3.4090 C   0  0  0  0  0  0  0  0  0  0  0  0
    4.7760  -12.1710   -1.5920 C   0  0  1  0  0  0  0  0  0  0  0  0
    4.3430  -12.2520   -0.1160 C   0  0  0  0  0  0  0  0  0  0  0  0
    3.1720  -13.2360   -0.0860 C   0  0  2  0  0  0  0  0  0  0  0  0
    1.9970  -12.5750   -0.5330 O   0  0  0  0  0  0  0  0  0  0  0  0
    2.9320  -13.7700    1.3020 C   0  0  0  0  0  0  0  0  0  0  0  0
    2.1070  -14.7840    1.6380 C   0  0  0  0  0  0  0  0  0  0  0  0
    2.2190  -15.3070    2.9890 C   0  0  0  0  0  0  0  0  0  0  0  0
    1.7980  -16.4780    3.4840 C   0  0  0  0  0  0  0  0  0  0  0  0
    1.0900  -17.6000    2.8490 C   0  0  0  0  0  0  0  0  0  0  0  0
    1.2470  -18.7230    3.3200 O   0  0  0  0  0  0  0  0  0  0  0  0
    0.2510  -17.3910    1.8220 O   0  0  0  0  0  0  0  0  0  0  0  0
   -0.1050  -16.1200    1.2350 C   0  0  0  0  0  0  0  0  0  0  0  0
   -1.1110  -16.4990    0.1170 C   0  0  0  0  0  0  0  0  0  0  0  0
   -0.9170  -15.2480    2.2170 C   0  0  0  0  0  0  0  0  0  0  0  0
    1.1440  -15.3990    0.6230 C   0  0  2  0  0  0  0  0  0  0  0  0
    1.9510  -16.2230   -0.4580 C   0  0  2  0  0  0  0  0  0  0  0  0
    2.9800  -17.0040    0.1860 O   0  0  0  0  0  0  0  0  0  0  0  0
    3.2500  -18.2240   -0.3500 C   0  0  0  0  0  0  0  0  0  0  0  0
    4.4550  -18.8160    0.3140 C   0  0  0  0  0  0  0  0  0  0  0  0
    2.6200  -18.7640   -1.2470 O   0  0  0  0  0  0  0  0  0  0  0  0
    2.5510  -15.3040   -1.5430 C   0  0  0  0  0  0  0  0  0  0  0  0
    3.6360  -14.3140   -1.0870 C   0  0  1  0  0  0  0  0  0  0  0  0
    5.9840   -9.7961   -1.9545 H   0  0  0  0  0  0  0  0  0  0  0  0
    7.7829  -10.4236   -1.9523 H   0  0  0  0  0  0  0  0  0  0  0  0
    8.8537  -11.8924   -1.0052 H   0  0  0  0  0  0  0  0  0  0  0  0
    8.9500  -12.5167    1.2681 H   0  0  0  0  0  0  0  0  0  0  0  0
    7.2056  -12.7942    0.9417 H   0  0  0  0  0  0  0  0  0  0  0  0
    8.3506  -14.1782    0.9417 H   0  0  0  0  0  0  0  0  0  0  0  0
    9.0745  -14.8021   -1.5825 H   0  0  0  0  0  0  0  0  0  0  0  0
   10.8412  -14.2907   -3.0322 H   0  0  0  0  0  0  0  0  0  0  0  0
    9.5538  -13.0586   -3.3160 H   0  0  0  0  0  0  0  0  0  0  0  0
   11.5551  -11.6394   -3.1209 H   0  0  0  0  0  0  0  0  0  0  0  0
   12.8930  -11.0110    0.3237 H   0  0  0  0  0  0  0  0  0  0  0  0
   13.7912  -11.3570   -1.1930 H   0  0  0  0  0  0  0  0  0  0  0  0
   12.4593  -10.1518   -1.1930 H   0  0  0  0  0  0  0  0  0  0  0  0
    7.3869  -15.0856   -2.0126 H   0  0  0  0  0  0  0  0  0  0  0  0
    5.6328  -13.9550   -3.9108 H   0  0  0  0  0  0  0  0  0  0  0  0
    5.1707  -15.3745   -2.8571 H   0  0  0  0  0  0  0  0  0  0  0  0
    2.3570  -12.8412   -2.9829 H   0  0  0  0  0  0  0  0  0  0  0  0
    3.7363  -12.3620   -4.0291 H   0  0  0  0  0  0  0  0  0  0  0  0
    3.1574  -14.0624   -4.0291 H   0  0  0  0  0  0  0  0  0  0  0  0
    4.3125  -11.3366   -2.1388 H   0  0  0  0  0  0  0  0  0  0  0  0
    5.1708  -12.6206    0.5076 H   0  0  0  0  0  0  0  0  0  0  0  0
    4.0574  -11.2662    0.2798 H   0  0  0  0  0  0  0  0  0  0  0  0
    1.9960  -11.6860   -0.1360 H   0  0  0  0  0  0  0  0  0  0  0  0
    3.4830  -13.2862    2.1219 H   0  0  0  0  0  0  0  0  0  0  0  0
    2.7224  -14.6454    3.7094 H   0  0  0  0  0  0  0  0  0  0  0  0
    2.0204  -16.6265    4.5510 H   0  0  0  0  0  0  0  0  0  0  0  0
   -2.0484  -16.8522    0.5715 H   0  0  0  0  0  0  0  0  0  0  0  0
   -1.3157  -15.6163   -0.5067 H   0  0  0  0  0  0  0  0  0  0  0  0
   -0.6824  -17.2973   -0.5067 H   0  0  0  0  0  0  0  0  0  0  0  0
   -0.6603  -15.5236    3.2505 H   0  0  0  0  0  0  0  0  0  0  0  0
   -0.6773  -14.1875    2.0500 H   0  0  0  0  0  0  0  0  0  0  0  0
   -1.9919  -15.4116    2.0500 H   0  0  0  0  0  0  0  0  0  0  0  0
    0.6526  -14.5703    0.0922 H   0  0  0  0  0  0  0  0  0  0  0  0
    1.2511  -16.9046   -0.9635 H   0  0  0  0  0  0  0  0  0  0  0  0
    4.3373  -18.7582    1.4062 H   0  0  0  0  0  0  0  0  0  0  0  0
    4.5603  -19.8684    0.0117 H   0  0  0  0  0  0  0  0  0  0  0  0
    5.3524  -18.2562    0.0117 H   0  0  0  0  0  0  0  0  0  0  0  0
    2.9918  -15.9477   -2.3185 H   0  0  0  0  0  0  0  0  0  0  0  0
    1.7143  -14.6779   -1.8865 H   0  0  0  0  0  0  0  0  0  0  0  0
    4.3455  -15.0049   -0.6083 H   0  0  0  0  0  0  0  0  0  0  0  0
  1  2  2  0
  2  3  1  0
  3  4  1  0
  4  5  1  0
  4  6  1  0
  6  7  1  0
  7  8  1  0
  8  9  2  0
  9 10  1  0
  9 11  1  0
 11 12  2  0
 11 13  1  0
  3 14  2  0
 14 15  1  0
 15 16  1  0
 16 17  1  6
 16 18  1  0
 18 19  1  0
 19 20  1  0
 20 21  1  6
 20 22  1  0
 22 23  2  0
 23 24  1  0
 24 25  2  0
 25 26  1  0
 26 27  2  0
 26 28  1  0
 28 29  1  0
 29 30  1  0
 29 31  1  0
 29 32  1  0
 32 33  1  0
 33 34  1  0
 34 35  1  0
 35 36  1  0
 35 37  2  0
 33 38  1  0
 38 39  1  0
 18  2  1  0
 39 20  1  0
 13  6  1  0
 39 16  1  0
 32 23  1  0
  1 40  1  0
  1 41  1  0
  4 42  1  1
  5 43  1  0
  5 44  1  0
  5 45  1  0
  6 46  1  6
  7 47  1  0
  7 48  1  0
  8 49  1  0
 10 50  1  0
 10 51  1  0
 10 52  1  0
 14 53  1  0
 15 54  1  0
 15 55  1  0
 17 56  1  0
 17 57  1  0
 17 58  1  0
 18 59  1  6
 19 60  1  0
 19 61  1  0
 21 62  1  0
 22 63  1  0
 24 64  1  0
 25 65  1  0
 30 66  1  0
 30 67  1  0
 30 68  1  0
 31 69  1  0
 31 70  1  0
 31 71  1  0
 32 72  1  6
 33 73  1  6
 36 74  1  0
 36 75  1  0
 36 76  1  0
 38 77  1  0
 38 78  1  0
 39 79  1  1
M  END
>  <meeko>  (3) 
{"is_sidechain": [false], "free_energy": -5.843, "intermolecular_energy": -9.846, "internal_energy": 0.654}

$$$$
LIB_VPYOIPWGVNGDBV__M_PUB_ALL__e8__s20260927
     RDKit          3D

 79 83  0  0  0  0  0  0  0  0999 V2000
    6.3650  -13.1610   -7.5370 C   0  0  0  0  0  0  0  0  0  0  0  0
    7.1230  -14.2650   -7.4470 C   0  0  0  0  0  0  0  0  0  0  0  0
    7.9780  -14.7470   -8.5310 C   0  0  0  0  0  0  0  0  0  0  0  0
    8.7510  -13.7500   -9.3940 C   0  0  1  0  0  0  0  0  0  0  0  0
   10.2630  -13.9760   -9.2130 C   0  0  0  0  0  0  0  0  0  0  0  0
    8.3690  -13.7870  -10.9050 C   0  0  1  0  0  0  0  0  0  0  0  0
    6.8770  -13.6260  -11.2100 C   0  0  0  0  0  0  0  0  0  0  0  0
    6.4640  -12.1980  -11.0700 C   0  0  0  0  0  0  0  0  0  0  0  0
    7.3430  -11.1940  -11.2190 C   0  0  0  0  0  0  0  0  0  0  0  0
    6.9730   -9.7500  -11.0860 C   0  0  0  0  0  0  0  0  0  0  0  0
    8.7510  -11.4810  -11.6020 C   0  0  0  0  0  0  0  0  0  0  0  0
    9.5260  -10.5830  -11.9060 O   0  0  0  0  0  0  0  0  0  0  0  0
    9.1270  -12.7850  -11.6300 O   0  0  0  0  0  0  0  0  0  0  0  0
    8.0750  -16.0790   -8.7090 C   0  0  0  0  0  0  0  0  0  0  0  0
    7.3020  -17.0570   -7.8780 C   0  0  0  0  0  0  0  0  0  0  0  0
    7.1970  -16.6540   -6.3860 C   0  0  2  0  0  0  0  0  0  0  0  0
    5.9110  -17.3030   -5.8260 C   0  0  0  0  0  0  0  0  0  0  0  0
    7.1190  -15.1040   -6.1770 C   0  0  1  0  0  0  0  0  0  0  0  0
    8.3190  -14.7250   -5.2870 C   0  0  0  0  0  0  0  0  0  0  0  0
    8.6820  -16.0010   -4.5250 C   0  0  2  0  0  0  0  0  0  0  0  0
    7.7700  -16.1770   -3.4510 O   0  0  0  0  0  0  0  0  0  0  0  0
   10.0810  -15.9350   -3.9710 C   0  0  0  0  0  0  0  0  0  0  0  0
   10.7770  -16.9590   -3.4330 C   0  0  0  0  0  0  0  0  0  0  0  0
   12.1940  -16.7420   -3.1970 C   0  0  0  0  0  0  0  0  0  0  0  0
   13.1680  -17.6390   -2.9970 C   0  0  0  0  0  0  0  0  0  0  0  0
   13.1550  -19.1010   -2.9740 C   0  0  0  0  0  0  0  0  0  0  0  0
   14.1770  -19.7040   -3.2880 O   0  0  0  0  0  0  0  0  0  0  0  0
   12.0580  -19.7620   -2.5700 O   0  0  0  0  0  0  0  0  0  0  0  0
   10.8340  -19.1860   -2.0630 C   0  0  0  0  0  0  0  0  0  0  0  0
    9.9650  -20.4200   -1.7080 C   0  0  0  0  0  0  0  0  0  0  0  0
   11.0610  -18.4640   -0.7160 C   0  0  0  0  0  0  0  0  0  0  0  0
   10.1190  -18.3070   -3.1450 C   0  0  2  0  0  0  0  0  0  0  0  0
    9.7840  -19.0690   -4.4770 C   0  0  2  0  0  0  0  0  0  0  0  0
   10.8800  -18.9810   -5.4130 O   0  0  0  0  0  0  0  0  0  0  0  0
   11.2510  -20.1340   -6.0320 C   0  0  0  0  0  0  0  0  0  0  0  0
   12.5070  -19.9070   -6.8160 C   0  0  0  0  0  0  0  0  0  0  0  0
   10.6530  -21.1980   -5.9770 O   0  0  0  0  0  0  0  0  0  0  0  0
    8.4780  -18.5330   -5.1020 C   0  0  0  0  0  0  0  0  0  0  0  0
    8.5010  -17.0820   -5.6110 C   0  0  1  0  0  0  0  0  0  0  0  0
    5.7424  -12.8503   -6.6850 H   0  0  0  0  0  0  0  0  0  0  0  0
    6.3664  -12.5669   -8.4627 H   0  0  0  0  0  0  0  0  0  0  0  0
    8.4687  -12.7462   -9.0438 H   0  0  0  0  0  0  0  0  0  0  0  0
   10.5025  -14.0118   -8.1400 H   0  0  0  0  0  0  0  0  0  0  0  0
   10.5506  -14.9271   -9.6848 H   0  0  0  0  0  0  0  0  0  0  0  0
   10.8162  -13.1506   -9.6848 H   0  0  0  0  0  0  0  0  0  0  0  0
    8.6252  -14.8029  -11.2400 H   0  0  0  0  0  0  0  0  0  0  0  0
    6.6802  -13.9602  -12.2394 H   0  0  0  0  0  0  0  0  0  0  0  0
    6.3012  -14.2337  -10.4964 H   0  0  0  0  0  0  0  0  0  0  0  0
    5.4145  -11.9628  -10.8393 H   0  0  0  0  0  0  0  0  0  0  0  0
    6.9052   -9.4855  -10.0204 H   0  0  0  0  0  0  0  0  0  0  0  0
    7.7409   -9.1286  -11.5699 H   0  0  0  0  0  0  0  0  0  0  0  0
    6.0009   -9.5745  -11.5699 H   0  0  0  0  0  0  0  0  0  0  0  0
    8.7456  -16.4620   -9.4923 H   0  0  0  0  0  0  0  0  0  0  0  0
    6.2850  -17.1360   -8.2896 H   0  0  0  0  0  0  0  0  0  0  0  0
    7.8438  -18.0135   -7.9171 H   0  0  0  0  0  0  0  0  0  0  0  0
    5.9414  -17.2877   -4.7265 H   0  0  0  0  0  0  0  0  0  0  0  0
    5.0335  -16.7398   -6.1764 H   0  0  0  0  0  0  0  0  0  0  0  0
    5.8428  -18.3434   -6.1764 H   0  0  0  0  0  0  0  0  0  0  0  0
    6.1446  -14.8780   -5.7192 H   0  0  0  0  0  0  0  0  0  0  0  0
    9.1660  -14.3922   -5.9050 H   0  0  0  0  0  0  0  0  0  0  0  0
    8.0755  -13.8974   -4.6045 H   0  0  0  0  0  0  0  0  0  0  0  0
    7.6130  -17.1330   -3.3570 H   0  0  0  0  0  0  0  0  0  0  0  0
   10.5844  -14.9577   -4.0084 H   0  0  0  0  0  0  0  0  0  0  0  0
   12.5127  -15.6893   -3.1802 H   0  0  0  0  0  0  0  0  0  0  0  0
   14.1583  -17.1951   -2.8173 H   0  0  0  0  0  0  0  0  0  0  0  0
    9.8962  -20.5177   -0.6145 H   0  0  0  0  0  0  0  0  0  0  0  0
    8.9568  -20.2918   -2.1288 H   0  0  0  0  0  0  0  0  0  0  0  0
   10.4255  -21.3260   -2.1288 H   0  0  0  0  0  0  0  0  0  0  0  0
   10.8437  -19.1552    0.1117 H   0  0  0  0  0  0  0  0  0  0  0  0
   12.1073  -18.1308   -0.6503 H   0  0  0  0  0  0  0  0  0  0  0  0
   10.3937  -17.5920   -0.6503 H   0  0  0  0  0  0  0  0  0  0  0  0
    9.1625  -18.0747   -2.6539 H   0  0  0  0  0  0  0  0  0  0  0  0
    9.6337  -20.1311   -4.2332 H   0  0  0  0  0  0  0  0  0  0  0  0
   13.3486  -19.7549   -6.1242 H   0  0  0  0  0  0  0  0  0  0  0  0
   12.7071  -20.7835   -7.4498 H   0  0  0  0  0  0  0  0  0  0  0  0
   12.3876  -19.0159   -7.4498 H   0  0  0  0  0  0  0  0  0  0  0  0
    8.2256  -19.1812   -5.9541 H   0  0  0  0  0  0  0  0  0  0  0  0
    7.7417  -18.5412   -4.2848 H   0  0  0  0  0  0  0  0  0  0  0  0
    9.3809  -17.1168   -6.2702 H   0  0  0  0  0  0  0  0  0  0  0  0
  1  2  2  0
  2  3  1  0
  3  4  1  0
  4  5  1  0
  4  6  1  0
  6  7  1  0
  7  8  1  0
  8  9  2  0
  9 10  1  0
  9 11  1  0
 11 12  2  0
 11 13  1  0
  3 14  2  0
 14 15  1  0
 15 16  1  0
 16 17  1  1
 16 18  1  0
 18 19  1  0
 19 20  1  0
 20 21  1  1
 20 22  1  0
 22 23  2  0
 23 24  1  0
 24 25  2  0
 25 26  1  0
 26 27  2  0
 26 28  1  0
 28 29  1  0
 29 30  1  0
 29 31  1  0
 29 32  1  0
 32 33  1  0
 33 34  1  0
 34 35  1  0
 35 36  1  0
 35 37  2  0
 33 38  1  0
 38 39  1  0
 18  2  1  0
 39 20  1  0
 13  6  1  0
 39 16  1  0
 32 23  1  0
  1 40  1  0
  1 41  1  0
  4 42  1  1
  5 43  1  0
  5 44  1  0
  5 45  1  0
  6 46  1  6
  7 47  1  0
  7 48  1  0
  8 49  1  0
 10 50  1  0
 10 51  1  0
 10 52  1  0
 14 53  1  0
 15 54  1  0
 15 55  1  0
 17 56  1  0
 17 57  1  0
 17 58  1  0
 18 59  1  1
 19 60  1  0
 19 61  1  0
 21 62  1  0
 22 63  1  0
 24 64  1  0
 25 65  1  0
 30 66  1  0
 30 67  1  0
 30 68  1  0
 31 69  1  0
 31 70  1  0
 31 71  1  0
 32 72  1  1
 33 73  1  1
 36 74  1  0
 36 75  1  0
 36 76  1  0
 38 77  1  0
 38 78  1  0
 39 79  1  6
M  END
>  <meeko>  (4) 
{"is_sidechain": [false], "free_energy": -5.785, "intermolecular_energy": -9.418, "internal_energy": 0.326}

$$$$
LIB_VPYOIPWGVNGDBV__M_PUB_ALL__e8__s20260927
     RDKit          3D

 79 83  0  0  0  0  0  0  0  0999 V2000
    1.1370  -10.7920   -0.6640 C   0  0  0  0  0  0  0  0  0  0  0  0
    1.9400  -11.8680   -0.6430 C   0  0  0  0  0  0  0  0  0  0  0  0
    1.5520  -13.1540   -0.0650 C   0  0  0  0  0  0  0  0  0  0  0  0
    0.1240  -13.6710   -0.2440 C   0  0  1  0  0  0  0  0  0  0  0  0
    0.1480  -14.9750   -1.0620 C   0  0  0  0  0  0  0  0  0  0  0  0
   -0.6490  -13.8770    1.0940 C   0  0  1  0  0  0  0  0  0  0  0  0
   -1.0170  -12.5950    1.8450 C   0  0  0  0  0  0  0  0  0  0  0  0
   -2.1810  -11.9210    1.1960 C   0  0  0  0  0  0  0  0  0  0  0  0
   -3.0720  -12.6090    0.4650 C   0  0  0  0  0  0  0  0  0  0  0  0
   -4.2510  -11.9750   -0.2040 C   0  0  0  0  0  0  0  0  0  0  0  0
   -2.9600  -14.0870    0.3390 C   0  0  0  0  0  0  0  0  0  0  0  0
   -3.8460  -14.7530   -0.1800 O   0  0  0  0  0  0  0  0  0  0  0  0
   -1.8450  -14.6640    0.8550 O   0  0  0  0  0  0  0  0  0  0  0  0
    2.4950  -13.8570    0.5910 C   0  0  0  0  0  0  0  0  0  0  0  0
    3.8890  -13.3420    0.7850 C   0  0  0  0  0  0  0  0  0  0  0  0
    4.4460  -12.5870   -0.4470 C   0  0  2  0  0  0  0  0  0  0  0  0
    5.5090  -11.5910    0.0710 C   0  0  0  0  0  0  0  0  0  0  0  0
    3.3430  -11.7960   -1.2280 C   0  0  1  0  0  0  0  0  0  0  0  0
    3.3490  -12.3500   -2.6660 C   0  0  0  0  0  0  0  0  0  0  0  0
    4.7440  -12.9430   -2.8710 C   0  0  2  0  0  0  0  0  0  0  0  0
    5.6620  -11.8900   -3.1310 O   0  0  0  0  0  0  0  0  0  0  0  0
    4.7710  -13.9080   -4.0260 C   0  0  0  0  0  0  0  0  0  0  0  0
    5.7800  -14.7470   -4.3440 C   0  0  0  0  0  0  0  0  0  0  0  0
    5.5010  -15.7710   -5.3350 C   0  0  0  0  0  0  0  0  0  0  0  0
    6.1610  -16.9070   -5.5920 C   0  0  0  0  0  0  0  0  0  0  0  0
    7.3530  -17.5010   -4.9990 C   0  0  0  0  0  0  0  0  0  0  0  0
    7.5120  -18.7140   -5.0950 O   0  0  0  0  0  0  0  0  0  0  0  0
    8.2940  -16.7220   -4.4400 O   0  0  0  0  0  0  0  0  0  0  0  0
    8.3400  -15.2780   -4.4400 C   0  0  0  0  0  0  0  0  0  0  0  0
    9.6790  -14.9520   -3.7310 C   0  0  0  0  0  0  0  0  0  0  0  0
    8.5030  -14.7150   -5.8690 C   0  0  0  0  0  0  0  0  0  0  0  0
    7.1370  -14.6640   -3.6460 C   0  0  2  0  0  0  0  0  0  0  0  0
    7.0360  -15.1420   -2.1610 C   0  0  2  0  0  0  0  0  0  0  0  0
    6.2550  -16.3520   -2.0510 O   0  0  0  0  0  0  0  0  0  0  0  0
    6.5760  -17.1990   -1.0370 C   0  0  0  0  0  0  0  0  0  0  0  0
    8.0190  -17.5880   -1.1370 C   0  0  0  0  0  0  0  0  0  0  0  0
    5.8090  -17.6010   -0.1740 O   0  0  0  0  0  0  0  0  0  0  0  0
    6.4670  -14.0330   -1.2500 C   0  0  0  0  0  0  0  0  0  0  0  0
    5.0110  -13.6080   -1.5060 C   0  0  1  0  0  0  0  0  0  0  0  0
    1.4886   -9.8520   -1.1144 H   0  0  0  0  0  0  0  0  0  0  0  0
    0.1276  -10.8505   -0.2308 H   0  0  0  0  0  0  0  0  0  0  0  0
   -0.4290  -12.8893   -0.7854 H   0  0  0  0  0  0  0  0  0  0  0  0
    0.1639  -15.8365   -0.3782 H   0  0  0  0  0  0  0  0  0  0  0  0
   -0.7493  -15.0266   -1.6961 H   0  0  0  0  0  0  0  0  0  0  0  0
    1.0466  -14.9936   -1.6961 H   0  0  0  0  0  0  0  0  0  0  0  0
    0.0549  -14.4063    1.7531 H   0  0  0  0  0  0  0  0  0  0  0  0
   -1.2780  -12.8467    2.8835 H   0  0  0  0  0  0  0  0  0  0  0  0
   -0.1550  -11.9120    1.8240 H   0  0  0  0  0  0  0  0  0  0  0  0
   -2.3111  -10.8358    1.3199 H   0  0  0  0  0  0  0  0  0  0  0  0
   -4.9482  -11.6001    0.5598 H   0  0  0  0  0  0  0  0  0  0  0  0
   -3.9103  -11.1384   -0.8318 H   0  0  0  0  0  0  0  0  0  0  0  0
   -4.7611  -12.7205   -0.8318 H   0  0  0  0  0  0  0  0  0  0  0  0
    2.2327  -14.8443    0.9989 H   0  0  0  0  0  0  0  0  0  0  0  0
    3.8899  -12.6549    1.6440 H   0  0  0  0  0  0  0  0  0  0  0  0
    4.5367  -14.2158    0.9488 H   0  0  0  0  0  0  0  0  0  0  0  0
    5.5075  -11.5924    1.1710 H   0  0  0  0  0  0  0  0  0  0  0  0
    6.5020  -11.8914   -0.2947 H   0  0  0  0  0  0  0  0  0  0  0  0
    5.2738  -10.5806   -0.2947 H   0  0  0  0  0  0  0  0  0  0  0  0
    3.5936  -10.7265   -1.1694 H   0  0  0  0  0  0  0  0  0  0  0  0
    2.5800  -13.1281   -2.7812 H   0  0  0  0  0  0  0  0  0  0  0  0
    3.1264  -11.5667   -3.4055 H   0  0  0  0  0  0  0  0  0  0  0  0
    5.1410  -11.0910   -3.3220 H   0  0  0  0  0  0  0  0  0  0  0  0
    3.8824  -13.9320   -4.6739 H   0  0  0  0  0  0  0  0  0  0  0  0
    4.6192  -15.5865   -5.9662 H   0  0  0  0  0  0  0  0  0  0  0  0
    5.7209  -17.5050   -6.4036 H   0  0  0  0  0  0  0  0  0  0  0  0
    9.5348  -14.9871   -2.6411 H   0  0  0  0  0  0  0  0  0  0  0  0
   10.4387  -15.6914   -4.0244 H   0  0  0  0  0  0  0  0  0  0  0  0
   10.0138  -13.9461   -4.0244 H   0  0  0  0  0  0  0  0  0  0  0  0
    8.8085  -13.6597   -5.8147 H   0  0  0  0  0  0  0  0  0  0  0  0
    9.2710  -15.2920   -6.4050 H   0  0  0  0  0  0  0  0  0  0  0  0
    7.5456  -14.7924   -6.4050 H   0  0  0  0  0  0  0  0  0  0  0  0
    7.3994  -13.5959   -3.6267 H   0  0  0  0  0  0  0  0  0  0  0  0
    8.0567  -15.3672   -1.8182 H   0  0  0  0  0  0  0  0  0  0  0  0
    8.4391  -17.7012   -0.1267 H   0  0  0  0  0  0  0  0  0  0  0  0
    8.1050  -18.5414   -1.6789 H   0  0  0  0  0  0  0  0  0  0  0  0
    8.5726  -16.8070   -1.6789 H   0  0  0  0  0  0  0  0  0  0  0  0
    6.5327  -14.3887   -0.2112 H   0  0  0  0  0  0  0  0  0  0  0  0
    7.0714  -13.1405   -1.4691 H   0  0  0  0  0  0  0  0  0  0  0  0
    4.5068  -14.5840   -1.4489 H   0  0  0  0  0  0  0  0  0  0  0  0
  1  2  2  0
  2  3  1  0
  3  4  1  0
  4  5  1  0
  4  6  1  0
  6  7  1  0
  7  8  1  0
  8  9  2  0
  9 10  1  0
  9 11  1  0
 11 12  2  0
 11 13  1  0
  3 14  2  0
 14 15  1  0
 15 16  1  0
 16 17  1  1
 16 18  1  0
 18 19  1  0
 19 20  1  0
 20 21  1  6
 20 22  1  0
 22 23  2  0
 23 24  1  0
 24 25  2  0
 25 26  1  0
 26 27  2  0
 26 28  1  0
 28 29  1  0
 29 30  1  0
 29 31  1  0
 29 32  1  0
 32 33  1  0
 33 34  1  0
 34 35  1  0
 35 36  1  0
 35 37  2  0
 33 38  1  0
 38 39  1  0
 18  2  1  0
 39 20  1  0
 13  6  1  0
 39 16  1  0
 32 23  1  0
  1 40  1  0
  1 41  1  0
  4 42  1  6
  5 43  1  0
  5 44  1  0
  5 45  1  0
  6 46  1  1
  7 47  1  0
  7 48  1  0
  8 49  1  0
 10 50  1  0
 10 51  1  0
 10 52  1  0
 14 53  1  0
 15 54  1  0
 15 55  1  0
 17 56  1  0
 17 57  1  0
 17 58  1  0
 18 59  1  6
 19 60  1  0
 19 61  1  0
 21 62  1  0
 22 63  1  0
 24 64  1  0
 25 65  1  0
 30 66  1  0
 30 67  1  0
 30 68  1  0
 31 69  1  0
 31 70  1  0
 31 71  1  0
 32 72  1  1
 33 73  1  1
 36 74  1  0
 36 75  1  0
 36 76  1  0
 38 77  1  0
 38 78  1  0
 39 79  1  6
M  END
>  <meeko>  (5) 
{"is_sidechain": [false], "free_energy": -5.621, "intermolecular_energy": -9.182, "internal_energy": 0.374}

$$$$
LIB_VPYOIPWGVNGDBV__M_PUB_ALL__e8__s20260927
     RDKit          3D

 79 83  0  0  0  0  0  0  0  0999 V2000
    0.9720  -11.0800   -0.5430 C   0  0  0  0  0  0  0  0  0  0  0  0
    0.7010  -12.3130   -0.0870 C   0  0  0  0  0  0  0  0  0  0  0  0
    1.3720  -13.5180   -0.5730 C   0  0  0  0  0  0  0  0  0  0  0  0
    2.8670  -13.4830   -0.8940 C   0  0  1  0  0  0  0  0  0  0  0  0
    3.6500  -14.1930    0.2250 C   0  0  0  0  0  0  0  0  0  0  0  0
    3.2320  -14.0850   -2.2850 C   0  0  1  0  0  0  0  0  0  0  0  0
    2.1530  -13.9510   -3.3630 C   0  0  0  0  0  0  0  0  0  0  0  0
    2.1150  -12.5580   -3.8990 C   0  0  0  0  0  0  0  0  0  0  0  0
    3.1920  -11.7590   -3.8550 C   0  0  0  0  0  0  0  0  0  0  0  0
    3.1980  -10.3570   -4.3780 C   0  0  0  0  0  0  0  0  0  0  0  0
    4.4860  -12.2710   -3.3300 C   0  0  0  0  0  0  0  0  0  0  0  0
    5.5200  -11.6230   -3.4320 O   0  0  0  0  0  0  0  0  0  0  0  0
    4.4730  -13.5040   -2.7620 O   0  0  0  0  0  0  0  0  0  0  0  0
    0.6370  -14.6410   -0.6930 C   0  0  0  0  0  0  0  0  0  0  0  0
   -0.8320  -14.6720   -0.3990 C   0  0  0  0  0  0  0  0  0  0  0  0
   -1.2360  -13.8130    0.8260 C   0  0  2  0  0  0  0  0  0  0  0  0
   -2.7110  -13.3970    0.6250 C   0  0  0  0  0  0  0  0  0  0  0  0
   -0.3580  -12.5260    0.9840 C   0  0  1  0  0  0  0  0  0  0  0  0
    0.3010  -12.6190    2.3730 C   0  0  0  0  0  0  0  0  0  0  0  0
   -0.6040  -13.5380    3.1960 C   0  0  2  0  0  0  0  0  0  0  0  0
   -1.7370  -12.8020    3.6350 O   0  0  0  0  0  0  0  0  0  0  0  0
    0.1140  -14.0900    4.3980 C   0  0  0  0  0  0  0  0  0  0  0  0
   -0.3240  -15.0780    5.2080 C   0  0  0  0  0  0  0  0  0  0  0  0
    0.6320  -15.6330    6.1500 C   0  0  0  0  0  0  0  0  0  0  0  0
    0.5980  -16.8000    6.8060 C   0  0  0  0  0  0  0  0  0  0  0  0
   -0.3740  -17.8810    6.8230 C   0  0  0  0  0  0  0  0  0  0  0  0
    0.0130  -19.0110    7.1030 O   0  0  0  0  0  0  0  0  0  0  0  0
   -1.6710  -17.6370    6.5710 O   0  0  0  0  0  0  0  0  0  0  0  0
   -2.2900  -16.3460    6.3780 C   0  0  0  0  0  0  0  0  0  0  0  0
   -3.7950  -16.6810    6.2110 C   0  0  0  0  0  0  0  0  0  0  0  0
   -2.2180  -15.4840    7.6580 C   0  0  0  0  0  0  0  0  0  0  0  0
   -1.7440  -15.6310    5.0950 C   0  0  2  0  0  0  0  0  0  0  0  0
   -1.9240  -16.4530    3.7810 C   0  0  2  0  0  0  0  0  0  0  0  0
   -0.7760  -17.3050    3.5740 O   0  0  0  0  0  0  0  0  0  0  0  0
   -0.5620  -17.7490    2.3060 C   0  0  0  0  0  0  0  0  0  0  0  0
    0.8820  -17.5820    1.9460 C   0  0  0  0  0  0  0  0  0  0  0  0
   -1.4130  -18.2070    1.5580 O   0  0  0  0  0  0  0  0  0  0  0  0
   -2.1560  -15.5330    2.5640 C   0  0  0  0  0  0  0  0  0  0  0  0
   -0.9890  -14.6140    2.1600 C   0  0  1  0  0  0  0  0  0  0  0  0
    0.4320  -10.2122   -0.1364 H   0  0  0  0  0  0  0  0  0  0  0  0
    1.7341  -10.9373   -1.3233 H   0  0  0  0  0  0  0  0  0  0  0  0
    3.1530  -12.4222   -0.9484 H   0  0  0  0  0  0  0  0  0  0  0  0
    3.2780  -13.8557    1.2037 H   0  0  0  0  0  0  0  0  0  0  0  0
    3.5125  -15.2807    0.1355 H   0  0  0  0  0  0  0  0  0  0  0  0
    4.7191  -13.9500    0.1355 H   0  0  0  0  0  0  0  0  0  0  0  0
    3.3353  -15.1662   -2.1111 H   0  0  0  0  0  0  0  0  0  0  0  0
    2.3742  -14.6484   -4.1844 H   0  0  0  0  0  0  0  0  0  0  0  0
    1.1753  -14.1859   -2.9169 H   0  0  0  0  0  0  0  0  0  0  0  0
    1.1820  -12.1778   -4.3404 H   0  0  0  0  0  0  0  0  0  0  0  0
    3.2010   -9.6510   -3.5345 H   0  0  0  0  0  0  0  0  0  0  0  0
    4.0968  -10.1985   -4.9920 H   0  0  0  0  0  0  0  0  0  0  0  0
    2.3006  -10.1909   -4.9920 H   0  0  0  0  0  0  0  0  0  0  0  0
    1.1328  -15.5675   -1.0182 H   0  0  0  0  0  0  0  0  0  0  0  0
   -1.3715  -14.2961   -1.2809 H   0  0  0  0  0  0  0  0  0  0  0  0
   -1.0926  -15.7143   -0.1631 H   0  0  0  0  0  0  0  0  0  0  0  0
   -3.1907  -13.2617    1.6056 H   0  0  0  0  0  0  0  0  0  0  0  0
   -2.7522  -12.4522    0.0632 H   0  0  0  0  0  0  0  0  0  0  0  0
   -3.2398  -14.1810    0.0632 H   0  0  0  0  0  0  0  0  0  0  0  0
   -1.0195  -11.6545    0.8703 H   0  0  0  0  0  0  0  0  0  0  0  0
    1.3109  -13.0473    2.2911 H   0  0  0  0  0  0  0  0  0  0  0  0
    0.4089  -11.6289    2.8399 H   0  0  0  0  0  0  0  0  0  0  0  0
   -1.4230  -11.9240    3.9140 H   0  0  0  0  0  0  0  0  0  0  0  0
    1.0906  -13.6455    4.6404 H   0  0  0  0  0  0  0  0  0  0  0  0
    1.5110  -15.0039    6.3541 H   0  0  0  0  0  0  0  0  0  0  0  0
    1.4697  -16.9733    7.4541 H   0  0  0  0  0  0  0  0  0  0  0  0
   -4.2598  -16.7845    7.2026 H   0  0  0  0  0  0  0  0  0  0  0  0
   -4.2915  -15.8714    5.6560 H   0  0  0  0  0  0  0  0  0  0  0  0
   -3.9012  -17.6248    5.6560 H   0  0  0  0  0  0  0  0  0  0  0  0
   -2.2724  -16.1357    8.5425 H   0  0  0  0  0  0  0  0  0  0  0  0
   -1.2701  -14.9260    7.6715 H   0  0  0  0  0  0  0  0  0  0  0  0
   -3.0602  -14.7765    7.6715 H   0  0  0  0  0  0  0  0  0  0  0  0
   -2.4022  -14.7526    5.0234 H   0  0  0  0  0  0  0  0  0  0  0  0
   -2.8202  -17.0819    3.8870 H   0  0  0  0  0  0  0  0  0  0  0  0
    1.4832  -17.5125    2.8645 H   0  0  0  0  0  0  0  0  0  0  0  0
    1.2149  -18.4476    1.3545 H   0  0  0  0  0  0  0  0  0  0  0  0
    1.0085  -16.6632    1.3545 H   0  0  0  0  0  0  0  0  0  0  0  0
   -2.3896  -16.1741    1.7012 H   0  0  0  0  0  0  0  0  0  0  0  0
   -2.9677  -14.8544    2.8650 H   0  0  0  0  0  0  0  0  0  0  0  0
   -0.1814  -15.3533    2.0539 H   0  0  0  0  0  0  0  0  0  0  0  0
  1  2  2  0
  2  3  1  0
  3  4  1  0
  4  5  1  0
  4  6  1  0
  6  7  1  0
  7  8  1  0
  8  9  2  0
  9 10  1  0
  9 11  1  0
 11 12  2  0
 11 13  1  0
  3 14  2  0
 14 15  1  0
 15 16  1  0
 16 17  1  6
 16 18  1  0
 18 19  1  0
 19 20  1  0
 20 21  1  1
 20 22  1  0
 22 23  2  0
 23 24  1  0
 24 25  2  0
 25 26  1  0
 26 27  2  0
 26 28  1  0
 28 29  1  0
 29 30  1  0
 29 31  1  0
 29 32  1  0
 32 33  1  0
 33 34  1  0
 34 35  1  0
 35 36  1  0
 35 37  2  0
 33 38  1  0
 38 39  1  0
 18  2  1  0
 39 20  1  0
 13  6  1  0
 39 16  1  0
 32 23  1  0
  1 40  1  0
  1 41  1  0
  4 42  1  6
  5 43  1  0
  5 44  1  0
  5 45  1  0
  6 46  1  1
  7 47  1  0
  7 48  1  0
  8 49  1  0
 10 50  1  0
 10 51  1  0
 10 52  1  0
 14 53  1  0
 15 54  1  0
 15 55  1  0
 17 56  1  0
 17 57  1  0
 17 58  1  0
 18 59  1  1
 19 60  1  0
 19 61  1  0
 21 62  1  0
 22 63  1  0
 24 64  1  0
 25 65  1  0
 30 66  1  0
 30 67  1  0
 30 68  1  0
 31 69  1  0
 31 70  1  0
 31 71  1  0
 32 72  1  6
 33 73  1  1
 36 74  1  0
 36 75  1  0
 36 76  1  0
 38 77  1  0
 38 78  1  0
 39 79  1  6
M  END
>  <meeko>  (6) 
{"is_sidechain": [false], "free_energy": -5.605, "intermolecular_energy": -9.899, "internal_energy": 1.119}

$$$$
LIB_VPYOIPWGVNGDBV__M_PUB_ALL__e8__s20260927
     RDKit          3D

 79 83  0  0  0  0  0  0  0  0999 V2000
    2.3460  -12.0250    0.0980 C   0  0  0  0  0  0  0  0  0  0  0  0
    1.5050  -13.0160    0.4340 C   0  0  0  0  0  0  0  0  0  0  0  0
    1.0560  -14.0460   -0.5030 C   0  0  0  0  0  0  0  0  0  0  0  0
    2.0330  -14.6220   -1.5290 C   0  0  1  0  0  0  0  0  0  0  0  0
    2.1430  -16.1460   -1.3350 C   0  0  0  0  0  0  0  0  0  0  0  0
    1.6750  -14.2820   -3.0080 C   0  0  1  0  0  0  0  0  0  0  0  0
    1.4670  -12.7960   -3.3080 C   0  0  0  0  0  0  0  0  0  0  0  0
    2.7780  -12.0880   -3.3910 C   0  0  0  0  0  0  0  0  0  0  0  0
    3.9080  -12.7370   -3.7150 C   0  0  0  0  0  0  0  0  0  0  0  0
    5.2440  -12.0690   -3.8070 C   0  0  0  0  0  0  0  0  0  0  0  0
    3.8680  -14.1810   -4.0710 C   0  0  0  0  0  0  0  0  0  0  0  0
    4.8490  -14.7540   -4.5270 O   0  0  0  0  0  0  0  0  0  0  0  0
    2.6850  -14.8240   -3.8960 O   0  0  0  0  0  0  0  0  0  0  0  0
   -0.2170  -14.4740   -0.4030 C   0  0  0  0  0  0  0  0  0  0  0  0
   -1.1810  -13.8950    0.5880 C   0  0  0  0  0  0  0  0  0  0  0  0
   -0.5400  -13.5790    1.9620 C   0  0  2  0  0  0  0  0  0  0  0  0
   -1.3730  -12.4460    2.6050 C   0  0  0  0  0  0  0  0  0  0  0  0
    0.9510  -13.1140    1.8470 C   0  0  1  0  0  0  0  0  0  0  0  0
    1.7810  -14.1130    2.6760 C   0  0  0  0  0  0  0  0  0  0  0  0
    0.8070  -14.7110    3.6930 C   0  0  2  0  0  0  0  0  0  0  0  0
    0.6150  -13.7850    4.7530 O   0  0  0  0  0  0  0  0  0  0  0  0
    1.3270  -16.0040    4.2630 C   0  0  0  0  0  0  0  0  0  0  0  0
    0.6390  -16.8730    5.0340 C   0  0  0  0  0  0  0  0  0  0  0  0
    1.2400  -18.1750    5.2620 C   0  0  0  0  0  0  0  0  0  0  0  0
    0.6680  -19.3150    5.6680 C   0  0  0  0  0  0  0  0  0  0  0  0
   -0.7310  -19.6300    6.0020 C   0  0  0  0  0  0  0  0  0  0  0  0
   -1.1290  -20.7800    5.8370 O   0  0  0  0  0  0  0  0  0  0  0  0
   -1.5320  -18.6910    6.5330 O   0  0  0  0  0  0  0  0  0  0  0  0
   -1.1750  -17.3300    6.8620 C   0  0  0  0  0  0  0  0  0  0  0  0
   -2.4810  -16.7410    7.4560 C   0  0  0  0  0  0  0  0  0  0  0  0
   -0.1550  -17.2750    8.0210 C   0  0  0  0  0  0  0  0  0  0  0  0
   -0.7410  -16.5250    5.5900 C   0  0  2  0  0  0  0  0  0  0  0  0
   -1.8110  -16.5030    4.4140 C   0  0  2  0  0  0  0  0  0  0  0  0
   -1.6130  -17.6240    3.5250 O   0  0  0  0  0  0  0  0  0  0  0  0
   -2.6410  -17.9340    2.6910 C   0  0  0  0  0  0  0  0  0  0  0  0
   -2.3270  -17.4670    1.3030 C   0  0  0  0  0  0  0  0  0  0  0  0
   -3.6760  -18.4980    3.0130 O   0  0  0  0  0  0  0  0  0  0  0  0
   -1.7570  -15.1680    3.6400 C   0  0  0  0  0  0  0  0  0  0  0  0
   -0.4710  -14.8820    2.8460 C   0  0  1  0  0  0  0  0  0  0  0  0
    2.6464  -11.2800    0.8495 H   0  0  0  0  0  0  0  0  0  0  0  0
    2.7347  -11.9580   -0.9288 H   0  0  0  0  0  0  0  0  0  0  0  0
    3.0047  -14.1407   -1.3440 H   0  0  0  0  0  0  0  0  0  0  0  0
    2.1598  -16.3785   -0.2600 H   0  0  0  0  0  0  0  0  0  0  0  0
    1.2781  -16.6386   -1.8032 H   0  0  0  0  0  0  0  0  0  0  0  0
    3.0697  -16.5093   -1.8032 H   0  0  0  0  0  0  0  0  0  0  0  0
    0.6957  -14.7520   -3.1816 H   0  0  0  0  0  0  0  0  0  0  0  0
    0.9384  -12.6914   -4.2670 H   0  0  0  0  0  0  0  0  0  0  0  0
    0.8741  -12.3500   -2.4958 H   0  0  0  0  0  0  0  0  0  0  0  0
    2.8197  -11.0089   -3.1818 H   0  0  0  0  0  0  0  0  0  0  0  0
    5.6284  -11.8768   -2.7944 H   0  0  0  0  0  0  0  0  0  0  0  0
    5.9445  -12.7229   -4.3471 H   0  0  0  0  0  0  0  0  0  0  0  0
    5.1412  -11.1163   -4.3471 H   0  0  0  0  0  0  0  0  0  0  0  0
   -0.5613  -15.2765   -1.0719 H   0  0  0  0  0  0  0  0  0  0  0  0
   -1.5898  -12.9624    0.1719 H   0  0  0  0  0  0  0  0  0  0  0  0
   -1.9603  -14.6518    0.7611 H   0  0  0  0  0  0  0  0  0  0  0  0
   -1.3151  -12.5248    3.7006 H   0  0  0  0  0  0  0  0  0  0  0  0
   -0.9746  -11.4716    2.2859 H   0  0  0  0  0  0  0  0  0  0  0  0
   -2.4219  -12.5356    2.2859 H   0  0  0  0  0  0  0  0  0  0  0  0
    1.0086  -12.0806    2.2196 H   0  0  0  0  0  0  0  0  0  0  0  0
    2.1922  -14.9013    2.0284 H   0  0  0  0  0  0  0  0  0  0  0  0
    2.6346  -13.6239    3.1681 H   0  0  0  0  0  0  0  0  0  0  0  0
   -0.2680  -13.9510    5.1270 H   0  0  0  0  0  0  0  0  0  0  0  0
    2.3692  -16.2662    4.0284 H   0  0  0  0  0  0  0  0  0  0  0  0
    2.3222  -18.2329    5.0738 H   0  0  0  0  0  0  0  0  0  0  0  0
    1.3624  -20.1621    5.7696 H   0  0  0  0  0  0  0  0  0  0  0  0
   -2.4277  -16.7650    8.5544 H   0  0  0  0  0  0  0  0  0  0  0  0
   -2.6016  -15.7014    7.1174 H   0  0  0  0  0  0  0  0  0  0  0  0
   -3.3400  -17.3388    7.1174 H   0  0  0  0  0  0  0  0  0  0  0  0
   -0.6898  -17.3038    8.9818 H   0  0  0  0  0  0  0  0  0  0  0  0
    0.5239  -18.1378    7.9532 H   0  0  0  0  0  0  0  0  0  0  0  0
    0.4272  -16.3442    7.9532 H   0  0  0  0  0  0  0  0  0  0  0  0
   -0.6755  -15.5057    5.9983 H   0  0  0  0  0  0  0  0  0  0  0  0
   -2.8122  -16.5914    4.8609 H   0  0  0  0  0  0  0  0  0  0  0  0
   -1.7139  -16.5551    1.3529 H   0  0  0  0  0  0  0  0  0  0  0  0
   -1.7729  -18.2526    0.7684 H   0  0  0  0  0  0  0  0  0  0  0  0
   -3.2636  -17.2503    0.7684 H   0  0  0  0  0  0  0  0  0  0  0  0
   -2.5964  -15.1606    2.9291 H   0  0  0  0  0  0  0  0  0  0  0  0
   -1.8013  -14.3846    4.4109 H   0  0  0  0  0  0  0  0  0  0  0  0
   -0.4086  -15.7940    2.2341 H   0  0  0  0  0  0  0  0  0  0  0  0
  1  2  2  0
  2  3  1  0
  3  4  1  0
  4  5  1  0
  4  6  1  0
  6  7  1  0
  7  8  1  0
  8  9  2  0
  9 10  1  0
  9 11  1  0
 11 12  2  0
 11 13  1  0
  3 14  2  0
 14 15  1  0
 15 16  1  0
 16 17  1  1
 16 18  1  0
 18 19  1  0
 19 20  1  0
 20 21  1  1
 20 22  1  0
 22 23  2  0
 23 24  1  0
 24 25  2  0
 25 26  1  0
 26 27  2  0
 26 28  1  0
 28 29  1  0
 29 30  1  0
 29 31  1  0
 29 32  1  0
 32 33  1  0
 33 34  1  0
 34 35  1  0
 35 36  1  0
 35 37  2  0
 33 38  1  0
 38 39  1  0
 18  2  1  0
 39 20  1  0
 13  6  1  0
 39 16  1  0
 32 23  1  0
  1 40  1  0
  1 41  1  0
  4 42  1  1
  5 43  1  0
  5 44  1  0
  5 45  1  0
  6 46  1  6
  7 47  1  0
  7 48  1  0
  8 49  1  0
 10 50  1  0
 10 51  1  0
 10 52  1  0
 14 53  1  0
 15 54  1  0
 15 55  1  0
 17 56  1  0
 17 57  1  0
 17 58  1  0
 18 59  1  1
 19 60  1  0
 19 61  1  0
 21 62  1  0
 22 63  1  0
 24 64  1  0
 25 65  1  0
 30 66  1  0
 30 67  1  0
 30 68  1  0
 31 69  1  0
 31 70  1  0
 31 71  1  0
 32 72  1  1
 33 73  1  1
 36 74  1  0
 36 75  1  0
 36 76  1  0
 38 77  1  0
 38 78  1  0
 39 79  1  6
M  END
>  <meeko>  (7) 
{"is_sidechain": [false], "free_energy": -5.577, "intermolecular_energy": -9.234, "internal_energy": 0.503}

$$$$
LIB_VPYOIPWGVNGDBV__M_PUB_ALL__e8__s20260927
     RDKit          3D

 79 83  0  0  0  0  0  0  0  0999 V2000
   -2.9010  -15.0140    1.4240 C   0  0  0  0  0  0  0  0  0  0  0  0
   -1.6320  -14.6370    1.6450 C   0  0  0  0  0  0  0  0  0  0  0  0
   -0.9790  -14.7280    2.9510 C   0  0  0  0  0  0  0  0  0  0  0  0
   -1.2480  -15.9290    3.8570 C   0  0  1  0  0  0  0  0  0  0  0  0
   -2.7550  -16.0170    4.1610 C   0  0  0  0  0  0  0  0  0  0  0  0
   -0.7250  -17.2840    3.2890 C   0  0  1  0  0  0  0  0  0  0  0  0
    0.7980  -17.4320    3.2430 C   0  0  0  0  0  0  0  0  0  0  0  0
    1.3390  -17.7160    4.6050 C   0  0  0  0  0  0  0  0  0  0  0  0
    0.5860  -18.2960    5.5530 C   0  0  0  0  0  0  0  0  0  0  0  0
    1.0860  -18.5970    6.9310 C   0  0  0  0  0  0  0  0  0  0  0  0
   -0.8000  -18.7400    5.2450 C   0  0  0  0  0  0  0  0  0  0  0  0
   -1.4460  -19.4160    6.0350 O   0  0  0  0  0  0  0  0  0  0  0  0
   -1.3030  -18.3860    4.0340 O   0  0  0  0  0  0  0  0  0  0  0  0
   -0.1280  -13.7420    3.2970 C   0  0  0  0  0  0  0  0  0  0  0  0
    0.1210  -12.5540    2.4180 C   0  0  0  0  0  0  0  0  0  0  0  0
    0.1790  -12.9000    0.9100 C   0  0  2  0  0  0  0  0  0  0  0  0
   -0.2270  -11.6270    0.1330 C   0  0  0  0  0  0  0  0  0  0  0  0
   -0.7870  -14.0690    0.5150 C   0  0  1  0  0  0  0  0  0  0  0  0
    0.0970  -15.1740   -0.0960 C   0  0  0  0  0  0  0  0  0  0  0  0
    1.3540  -14.4620   -0.5980 C   0  0  2  0  0  0  0  0  0  0  0  0
    1.0650  -13.8240   -1.8340 O   0  0  0  0  0  0  0  0  0  0  0  0
    2.4920  -15.4260   -0.8020 C   0  0  0  0  0  0  0  0  0  0  0  0
    3.7770  -15.1050   -1.0660 C   0  0  0  0  0  0  0  0  0  0  0  0
    4.7580  -16.1710   -0.9700 C   0  0  0  0  0  0  0  0  0  0  0  0
    6.0890  -16.0920   -0.8450 C   0  0  0  0  0  0  0  0  0  0  0  0
    6.9840  -14.9260   -0.7620 C   0  0  0  0  0  0  0  0  0  0  0  0
    8.0400  -15.0480   -0.1480 O   0  0  0  0  0  0  0  0  0  0  0  0
    6.6780  -13.7780   -1.3890 O   0  0  0  0  0  0  0  0  0  0  0  0
    5.5150  -13.5190   -2.2070 C   0  0  0  0  0  0  0  0  0  0  0  0
    5.7060  -12.0490   -2.6620 C   0  0  0  0  0  0  0  0  0  0  0  0
    5.5440  -14.3430   -3.5130 C   0  0  0  0  0  0  0  0  0  0  0  0
    4.1890  -13.6690   -1.3860 C   0  0  2  0  0  0  0  0  0  0  0  0
    4.0710  -12.7820   -0.1010 C   0  0  2  0  0  0  0  0  0  0  0  0
    4.6330  -13.4860    1.0270 O   0  0  0  0  0  0  0  0  0  0  0  0
    5.2770  -12.7350    1.9600 C   0  0  0  0  0  0  0  0  0  0  0  0
    6.0070  -11.6100    1.2920 C   0  0  0  0  0  0  0  0  0  0  0  0
    5.2800  -12.9420    3.1650 O   0  0  0  0  0  0  0  0  0  0  0  0
    2.6250  -12.3300    0.1930 C   0  0  0  0  0  0  0  0  0  0  0  0
    1.6100  -13.4370    0.5260 C   0  0  1  0  0  0  0  0  0  0  0  0
   -3.3352  -14.9205    0.4177 H   0  0  0  0  0  0  0  0  0  0  0  0
   -3.5068  -15.4165    2.2492 H   0  0  0  0  0  0  0  0  0  0  0  0
   -0.6786  -15.7583    4.7826 H   0  0  0  0  0  0  0  0  0  0  0  0
   -2.9094  -16.0260    5.2501 H   0  0  0  0  0  0  0  0  0  0  0  0
   -3.2684  -15.1473    3.7250 H   0  0  0  0  0  0  0  0  0  0  0  0
   -3.1637  -16.9405    3.7250 H   0  0  0  0  0  0  0  0  0  0  0  0
   -1.0486  -17.2993    2.2378 H   0  0  0  0  0  0  0  0  0  0  0  0
    1.0606  -18.2611    2.5695 H   0  0  0  0  0  0  0  0  0  0  0  0
    1.2351  -16.4914    2.8765 H   0  0  0  0  0  0  0  0  0  0  0  0
    2.3791  -17.4436    4.8373 H   0  0  0  0  0  0  0  0  0  0  0  0
    0.3903  -18.1782    7.6731 H   0  0  0  0  0  0  0  0  0  0  0  0
    1.1544  -19.6865    7.0664 H   0  0  0  0  0  0  0  0  0  0  0  0
    2.0808  -18.1475    7.0664 H   0  0  0  0  0  0  0  0  0  0  0  0
    0.4024  -13.8116    4.2582 H   0  0  0  0  0  0  0  0  0  0  0  0
   -0.6896  -11.8276    2.5772 H   0  0  0  0  0  0  0  0  0  0  0  0
    1.1058  -12.1491    2.6942 H   0  0  0  0  0  0  0  0  0  0  0  0
   -0.4817  -10.8283    0.8452 H   0  0  0  0  0  0  0  0  0  0  0  0
    0.6116  -11.3005   -0.4996 H   0  0  0  0  0  0  0  0  0  0  0  0
   -1.0998  -11.8463   -0.4996 H   0  0  0  0  0  0  0  0  0  0  0  0
   -1.5312  -13.6651   -0.1872 H   0  0  0  0  0  0  0  0  0  0  0  0
    0.3580  -15.9228    0.6664 H   0  0  0  0  0  0  0  0  0  0  0  0
   -0.4202  -15.7083   -0.9066 H   0  0  0  0  0  0  0  0  0  0  0  0
    0.1630  -13.4640   -1.7700 H   0  0  0  0  0  0  0  0  0  0  0  0
    2.2535  -16.4973   -0.7288 H   0  0  0  0  0  0  0  0  0  0  0  0
    4.3487  -17.1914   -1.0050 H   0  0  0  0  0  0  0  0  0  0  0  0
    6.6010  -17.0643   -0.7960 H   0  0  0  0  0  0  0  0  0  0  0  0
    5.7904  -11.3996   -1.7782 H   0  0  0  0  0  0  0  0  0  0  0  0
    6.6222  -11.9680   -3.2653 H   0  0  0  0  0  0  0  0  0  0  0  0
    4.8409  -11.7366   -3.2653 H   0  0  0  0  0  0  0  0  0  0  0  0
    5.5817  -15.4150   -3.2694 H   0  0  0  0  0  0  0  0  0  0  0  0
    4.6379  -14.1320   -4.0999 H   0  0  0  0  0  0  0  0  0  0  0  0
    6.4331  -14.0688   -4.0999 H   0  0  0  0  0  0  0  0  0  0  0  0
    3.4678  -13.2695   -2.1141 H   0  0  0  0  0  0  0  0  0  0  0  0
    4.6428  -11.8603   -0.2842 H   0  0  0  0  0  0  0  0  0  0  0  0
    6.4373  -10.9468    2.0568 H   0  0  0  0  0  0  0  0  0  0  0  0
    6.8132  -12.0175    0.6644 H   0  0  0  0  0  0  0  0  0  0  0  0
    5.3064  -11.0397    0.6644 H   0  0  0  0  0  0  0  0  0  0  0  0
    2.6588  -11.6401    1.0491 H   0  0  0  0  0  0  0  0  0  0  0  0
    2.2660  -11.8807   -0.7447 H   0  0  0  0  0  0  0  0  0  0  0  0
    2.1130  -13.9178    1.3779 H   0  0  0  0  0  0  0  0  0  0  0  0
  1  2  2  0
  2  3  1  0
  3  4  1  0
  4  5  1  0
  4  6  1  0
  6  7  1  0
  7  8  1  0
  8  9  2  0
  9 10  1  0
  9 11  1  0
 11 12  2  0
 11 13  1  0
  3 14  2  0
 14 15  1  0
 15 16  1  0
 16 17  1  6
 16 18  1  0
 18 19  1  0
 19 20  1  0
 20 21  1  6
 20 22  1  0
 22 23  2  0
 23 24  1  0
 24 25  2  0
 25 26  1  0
 26 27  2  0
 26 28  1  0
 28 29  1  0
 29 30  1  0
 29 31  1  0
 29 32  1  0
 32 33  1  0
 33 34  1  0
 34 35  1  0
 35 36  1  0
 35 37  2  0
 33 38  1  0
 38 39  1  0
 18  2  1  0
 39 20  1  0
 13  6  1  0
 39 16  1  0
 32 23  1  0
  1 40  1  0
  1 41  1  0
  4 42  1  1
  5 43  1  0
  5 44  1  0
  5 45  1  0
  6 46  1  6
  7 47  1  0
  7 48  1  0
  8 49  1  0
 10 50  1  0
 10 51  1  0
 10 52  1  0
 14 53  1  0
 15 54  1  0
 15 55  1  0
 17 56  1  0
 17 57  1  0
 17 58  1  0
 18 59  1  6
 19 60  1  0
 19 61  1  0
 21 62  1  0
 22 63  1  0
 24 64  1  0
 25 65  1  0
 30 66  1  0
 30 67  1  0
 30 68  1  0
 31 69  1  0
 31 70  1  0
 31 71  1  0
 32 72  1  6
 33 73  1  6
 36 74  1  0
 36 75  1  0
 36 76  1  0
 38 77  1  0
 38 78  1  0
 39 79  1  1
M  END
>  <meeko>  (8) 
{"is_sidechain": [false], "free_energy": -5.539, "intermolecular_energy": -9.617, "internal_energy": 0.952}

$$$$
LIB_VPYOIPWGVNGDBV__M_PUB_ALL__e8__s20260927
     RDKit          3D

 79 83  0  0  0  0  0  0  0  0999 V2000
   -1.0000  -14.8610   -0.6390 C   0  0  0  0  0  0  0  0  0  0  0  0
    0.2100  -14.4010   -0.2830 C   0  0  0  0  0  0  0  0  0  0  0  0
    0.6490  -14.2800    1.1080 C   0  0  0  0  0  0  0  0  0  0  0  0
    0.2670  -15.3550    2.1250 C   0  0  1  0  0  0  0  0  0  0  0  0
   -1.1170  -15.0340    2.7180 C   0  0  0  0  0  0  0  0  0  0  0  0
    0.2940  -16.8070    1.5560 C   0  0  1  0  0  0  0  0  0  0  0  0
    1.6890  -17.3950    1.3240 C   0  0  0  0  0  0  0  0  0  0  0  0
    2.3030  -17.8170    2.6170 C   0  0  0  0  0  0  0  0  0  0  0  0
    1.5490  -18.1460    3.6790 C   0  0  0  0  0  0  0  0  0  0  0  0
    2.1220  -18.5710    4.9940 C   0  0  0  0  0  0  0  0  0  0  0  0
    0.0660  -18.1660    3.5690 C   0  0  0  0  0  0  0  0  0  0  0  0
   -0.6350  -18.6190    4.4640 O   0  0  0  0  0  0  0  0  0  0  0  0
   -0.4710  -17.6880    2.4170 O   0  0  0  0  0  0  0  0  0  0  0  0
    1.4120  -13.2190    1.4340 C   0  0  0  0  0  0  0  0  0  0  0  0
    1.7700  -12.1540    0.4430 C   0  0  0  0  0  0  0  0  0  0  0  0
    2.0740  -12.7030   -0.9730 C   0  0  2  0  0  0  0  0  0  0  0  0
    1.7680  -11.5690   -1.9780 C   0  0  0  0  0  0  0  0  0  0  0  0
    1.2100  -13.9570   -1.3390 C   0  0  1  0  0  0  0  0  0  0  0  0
    2.2040  -15.0950   -1.6410 C   0  0  0  0  0  0  0  0  0  0  0  0
    3.5090  -14.4040   -2.0420 C   0  0  2  0  0  0  0  0  0  0  0  0
    3.4050  -13.9580   -3.3860 O   0  0  0  0  0  0  0  0  0  0  0  0
    4.6870  -15.3350   -1.9270 C   0  0  0  0  0  0  0  0  0  0  0  0
    5.9900  -14.9920   -2.0120 C   0  0  0  0  0  0  0  0  0  0  0  0
    6.9640  -15.9940   -1.6180 C   0  0  0  0  0  0  0  0  0  0  0  0
    8.2490  -15.8410   -1.2730 C   0  0  0  0  0  0  0  0  0  0  0  0
    9.0880  -14.6490   -1.1870 C   0  0  0  0  0  0  0  0  0  0  0  0
   10.0310  -14.6610   -0.4010 O   0  0  0  0  0  0  0  0  0  0  0  0
    8.8680  -13.5920   -1.9870 O   0  0  0  0  0  0  0  0  0  0  0  0
    7.8680  -13.4800   -3.0240 C   0  0  0  0  0  0  0  0  0  0  0  0
    8.1080  -12.0670   -3.6160 C   0  0  0  0  0  0  0  0  0  0  0  0
    8.1510  -14.4500   -4.1930 C   0  0  0  0  0  0  0  0  0  0  0  0
    6.4190  -13.5900   -2.4400 C   0  0  2  0  0  0  0  0  0  0  0  0
    6.0770  -12.5380   -1.3280 C   0  0  2  0  0  0  0  0  0  0  0  0
    6.4280  -13.0480   -0.0240 O   0  0  0  0  0  0  0  0  0  0  0  0
    6.6860  -12.1300    0.9450 C   0  0  0  0  0  0  0  0  0  0  0  0
    7.4790  -10.9950    0.3730 C   0  0  0  0  0  0  0  0  0  0  0  0
    6.3400  -12.2110    2.1140 O   0  0  0  0  0  0  0  0  0  0  0  0
    4.5900  -12.1280   -1.3790 C   0  0  0  0  0  0  0  0  0  0  0  0
    3.5600  -13.2230   -1.0510 C   0  0  1  0  0  0  0  0  0  0  0  0
   -1.2716  -14.9285   -1.7028 H   0  0  0  0  0  0  0  0  0  0  0  0
   -1.7198  -15.1704    0.1331 H   0  0  0  0  0  0  0  0  0  0  0  0
    1.0365  -15.3318    2.9107 H   0  0  0  0  0  0  0  0  0  0  0  0
   -1.0575  -15.0478    3.8163 H   0  0  0  0  0  0  0  0  0  0  0  0
   -1.4383  -14.0375    2.3807 H   0  0  0  0  0  0  0  0  0  0  0  0
   -1.8441  -15.7873    2.3807 H   0  0  0  0  0  0  0  0  0  0  0  0
   -0.1592  -16.7320    0.5565 H   0  0  0  0  0  0  0  0  0  0  0  0
    1.6073  -18.2686    0.6605 H   0  0  0  0  0  0  0  0  0  0  0  0
    2.3260  -16.6255    0.8635 H   0  0  0  0  0  0  0  0  0  0  0  0
    3.3988  -17.8597    2.7025 H   0  0  0  0  0  0  0  0  0  0  0  0
    1.5303  -18.1321    5.8108 H   0  0  0  0  0  0  0  0  0  0  0  0
    2.0935  -19.6681    5.0690 H   0  0  0  0  0  0  0  0  0  0  0  0
    3.1636  -18.2253    5.0690 H   0  0  0  0  0  0  0  0  0  0  0  0
    1.7857  -13.1313    2.4649 H   0  0  0  0  0  0  0  0  0  0  0  0
    0.9282  -11.4497    0.3698 H   0  0  0  0  0  0  0  0  0  0  0  0
    2.6889  -11.6706    0.8062 H   0  0  0  0  0  0  0  0  0  0  0  0
    1.5198  -10.6491   -1.4284 H   0  0  0  0  0  0  0  0  0  0  0  0
    2.6504  -11.3915   -2.6104 H   0  0  0  0  0  0  0  0  0  0  0  0
    0.9161  -11.8595   -2.6104 H   0  0  0  0  0  0  0  0  0  0  0  0
    0.5777  -13.6874   -2.1978 H   0  0  0  0  0  0  0  0  0  0  0  0
    2.3579  -15.7179   -0.7475 H   0  0  0  0  0  0  0  0  0  0  0  0
    1.8337  -15.7594   -2.4357 H   0  0  0  0  0  0  0  0  0  0  0  0
    4.3080  -13.9100   -3.7470 H   0  0  0  0  0  0  0  0  0  0  0  0
    4.4640  -16.3987   -1.7571 H   0  0  0  0  0  0  0  0  0  0  0  0
    6.5926  -17.0292   -1.6003 H   0  0  0  0  0  0  0  0  0  0  0  0
    8.7622  -16.7772   -1.0080 H   0  0  0  0  0  0  0  0  0  0  0  0
    8.2310  -11.3426   -2.7974 H   0  0  0  0  0  0  0  0  0  0  0  0
    9.0171  -12.0785   -4.2353 H   0  0  0  0  0  0  0  0  0  0  0  0
    7.2461  -11.7777   -4.2353 H   0  0  0  0  0  0  0  0  0  0  0  0
    8.4379  -15.4334   -3.7922 H   0  0  0  0  0  0  0  0  0  0  0  0
    7.2461  -14.5551   -4.8095 H   0  0  0  0  0  0  0  0  0  0  0  0
    8.9705  -14.0520   -4.8095 H   0  0  0  0  0  0  0  0  0  0  0  0
    5.8100  -13.3372   -3.3204 H   0  0  0  0  0  0  0  0  0  0  0  0
    6.6751  -11.6350   -1.5201 H   0  0  0  0  0  0  0  0  0  0  0  0
    7.8999  -10.3926    1.1915 H   0  0  0  0  0  0  0  0  0  0  0  0
    8.2959  -11.3939   -0.2463 H   0  0  0  0  0  0  0  0  0  0  0  0
    6.8235  -10.3651   -0.2463 H   0  0  0  0  0  0  0  0  0  0  0  0
    4.4454  -11.3081   -0.6600 H   0  0  0  0  0  0  0  0  0  0  0  0
    4.4004  -11.8575   -2.4282 H   0  0  0  0  0  0  0  0  0  0  0  0
    3.9322  -13.5582   -0.0717 H   0  0  0  0  0  0  0  0  0  0  0  0
  1  2  2  0
  2  3  1  0
  3  4  1  0
  4  5  1  0
  4  6  1  0
  6  7  1  0
  7  8  1  0
  8  9  2  0
  9 10  1  0
  9 11  1  0
 11 12  2  0
 11 13  1  0
  3 14  2  0
 14 15  1  0
 15 16  1  0
 16 17  1  6
 16 18  1  0
 18 19  1  0
 19 20  1  0
 20 21  1  6
 20 22  1  0
 22 23  2  0
 23 24  1  0
 24 25  2  0
 25 26  1  0
 26 27  2  0
 26 28  1  0
 28 29  1  0
 29 30  1  0
 29 31  1  0
 29 32  1  0
 32 33  1  0
 33 34  1  0
 34 35  1  0
 35 36  1  0
 35 37  2  0
 33 38  1  0
 38 39  1  0
 18  2  1  0
 39 20  1  0
 13  6  1  0
 39 16  1  0
 32 23  1  0
  1 40  1  0
  1 41  1  0
  4 42  1  1
  5 43  1  0
  5 44  1  0
  5 45  1  0
  6 46  1  6
  7 47  1  0
  7 48  1  0
  8 49  1  0
 10 50  1  0
 10 51  1  0
 10 52  1  0
 14 53  1  0
 15 54  1  0
 15 55  1  0
 17 56  1  0
 17 57  1  0
 17 58  1  0
 18 59  1  6
 19 60  1  0
 19 61  1  0
 21 62  1  0
 22 63  1  0
 24 64  1  0
 25 65  1  0
 30 66  1  0
 30 67  1  0
 30 68  1  0
 31 69  1  0
 31 70  1  0
 31 71  1  0
 32 72  1  6
 33 73  1  6
 36 74  1  0
 36 75  1  0
 36 76  1  0
 38 77  1  0
 38 78  1  0
 39 79  1  1
M  END
>  <meeko>  (9) 
{"is_sidechain": [false], "free_energy": -5.297, "intermolecular_energy": -9.08, "internal_energy": 0.833}

$$$$
