LIB_PIGVLAUTQMIRBH__M_PUB_ALL__e8__s20260927
     RDKit          3D

 68 73  0  0  0  0  0  0  0  0999 V2000
   12.4970  -10.5420    0.2980 C   0  0  0  0  0  0  0  0  0  0  0  0
   11.9910  -11.7430   -0.4110 N   0  0  0  0  0  0  0  0  0  0  0  0
   12.4440  -11.8650   -1.8530 C   0  0  0  0  0  0  0  0  0  0  0  0
   11.6330  -12.9620   -2.5900 C   0  0  0  0  0  0  0  0  0  0  0  0
   10.9420  -13.8720   -1.6530 N   0  0  0  0  0  0  0  0  0  0  0  0
    9.6330  -13.5150   -1.3300 C   0  0  0  0  0  0  0  0  0  0  0  0
    9.0130  -12.4660   -1.9970 C   0  0  0  0  0  0  0  0  0  0  0  0
    7.6830  -12.1590   -1.7050 C   0  0  0  0  0  0  0  0  0  0  0  0
    6.9870  -12.9090   -0.7580 C   0  0  0  0  0  0  0  0  0  0  0  0
    5.6060  -12.6080   -0.4310 C   0  0  0  0  0  0  0  0  0  0  0  0
    5.0480  -12.1000    0.7590 C   0  0  0  0  0  0  0  0  0  0  0  0
    3.7330  -11.9220    0.6900 N   0  0  0  0  0  0  0  0  0  0  0  0
    3.3910  -12.3260   -0.5630 N   0  0  0  0  0  0  0  0  0  0  0  0
    2.1190  -12.3340   -1.1580 C   0  0  0  0  0  0  0  0  0  0  0  0
    0.9190  -11.9210   -0.4120 C   0  0  0  0  0  0  0  0  0  0  0  0
    0.2560  -12.8300    0.4310 C   0  0  0  0  0  0  0  0  0  0  0  0
   -0.8860  -12.4450    1.1420 C   0  0  0  0  0  0  0  0  0  0  0  0
   -1.6000  -13.3060    2.0030 N   0  0  0  0  0  0  0  0  0  0  0  0
   -2.6530  -14.1370    1.6660 C   0  0  0  0  0  0  0  0  0  0  0  0
   -3.0790  -14.3560    0.5380 O   0  0  0  0  0  0  0  0  0  0  0  0
   -3.2750  -14.8600    2.8110 C   0  0  0  0  0  0  0  0  0  0  0  0
   -2.5850  -15.9410    3.3740 C   0  0  0  0  0  0  0  0  0  0  0  0
   -3.1380  -16.6460    4.4420 C   0  0  0  0  0  0  0  0  0  0  0  0
   -4.3860  -16.2810    4.9490 C   0  0  0  0  0  0  0  0  0  0  0  0
   -5.0980  -15.2080    4.3900 C   0  0  0  0  0  0  0  0  0  0  0  0
   -6.4670  -14.8370    4.9090 C   0  0  0  0  0  0  0  0  0  0  0  0
   -6.4980  -13.5820    5.4330 F   0  0  0  0  0  0  0  0  0  0  0  0
   -7.4350  -14.8760    3.9540 F   0  0  0  0  0  0  0  0  0  0  0  0
   -6.8880  -15.6680    5.9030 F   0  0  0  0  0  0  0  0  0  0  0  0
   -4.5370  -14.5060    3.3080 C   0  0  0  0  0  0  0  0  0  0  0  0
   -1.3730  -11.1390    0.9940 C   0  0  0  0  0  0  0  0  0  0  0  0
   -0.7180  -10.2260    0.1640 C   0  0  0  0  0  0  0  0  0  0  0  0
    0.4220  -10.6210   -0.5280 C   0  0  0  0  0  0  0  0  0  0  0  0
    1.0540   -9.7200   -1.2950 F   0  0  0  0  0  0  0  0  0  0  0  0
    1.9900  -12.7390   -2.4350 C   0  0  0  0  0  0  0  0  0  0  0  0
    3.2440  -13.1510   -3.1110 C   0  0  0  0  0  0  0  0  0  0  0  0
    4.4360  -13.1630   -2.5930 N   0  0  0  0  0  0  0  0  0  0  0  0
    4.5250  -12.7420   -1.2880 C   0  0  0  0  0  0  0  0  0  0  0  0
    7.6870  -13.9450   -0.1470 C   0  0  0  0  0  0  0  0  0  0  0  0
    8.9800  -14.2780   -0.4220 N   0  0  0  0  0  0  0  0  0  0  0  0
   11.7450  -14.2740   -0.4870 C   0  0  0  0  0  0  0  0  0  0  0  0
   12.1620  -13.0430    0.3640 C   0  0  0  0  0  0  0  0  0  0  0  0
   12.4296  -10.7019    1.3842 H   0  0  0  0  0  0  0  0  0  0  0  0
   13.5460  -10.3655    0.0177 H   0  0  0  0  0  0  0  0  0  0  0  0
   11.8906   -9.6681    0.0177 H   0  0  0  0  0  0  0  0  0  0  0  0
   10.9540  -11.6490   -0.5060 H   0  0  0  0  0  0  0  0  0  0  0  0
   12.2936  -10.9014   -2.3617 H   0  0  0  0  0  0  0  0  0  0  0  0
   13.5086  -12.1416   -1.8676 H   0  0  0  0  0  0  0  0  0  0  0  0
   10.8820  -12.4766   -3.2306 H   0  0  0  0  0  0  0  0  0  0  0  0
   12.3390  -13.5617   -3.1831 H   0  0  0  0  0  0  0  0  0  0  0  0
    9.5651  -11.8825   -2.7485 H   0  0  0  0  0  0  0  0  0  0  0  0
    7.1843  -11.3258   -2.2218 H   0  0  0  0  0  0  0  0  0  0  0  0
    5.6423  -11.8732    1.6564 H   0  0  0  0  0  0  0  0  0  0  0  0
    0.6395  -13.8559    0.5328 H   0  0  0  0  0  0  0  0  0  0  0  0
   -1.2640  -13.3500    2.9570 H   0  0  0  0  0  0  0  0  0  0  0  0
   -1.6039  -16.2346    2.9723 H   0  0  0  0  0  0  0  0  0  0  0  0
   -2.5903  -17.4906    4.8854 H   0  0  0  0  0  0  0  0  0  0  0  0
   -4.8155  -16.8390    5.7941 H   0  0  0  0  0  0  0  0  0  0  0  0
   -5.0918  -13.6744    2.8491 H   0  0  0  0  0  0  0  0  0  0  0  0
   -2.2789  -10.8303    1.5362 H   0  0  0  0  0  0  0  0  0  0  0  0
   -1.1017   -9.2005    0.0583 H   0  0  0  0  0  0  0  0  0  0  0  0
    1.0158  -12.7629   -2.9452 H   0  0  0  0  0  0  0  0  0  0  0  0
    3.1564  -13.4798   -4.1570 H   0  0  0  0  0  0  0  0  0  0  0  0
    7.1584  -14.5386    0.6134 H   0  0  0  0  0  0  0  0  0  0  0  0
   11.1514  -14.9572    0.1383 H   0  0  0  0  0  0  0  0  0  0  0  0
   12.6574  -14.7705   -0.8489 H   0  0  0  0  0  0  0  0  0  0  0  0
   11.5361  -13.0050    1.2678 H   0  0  0  0  0  0  0  0  0  0  0  0
   13.2247  -13.1500    0.6270 H   0  0  0  0  0  0  0  0  0  0  0  0
  1  2  1  0
  2  3  1  0
  3  4  1  0
  4  5  1  0
  5  6  1  0
  6  7  2  0
  7  8  1  0
  8  9  2  0
  9 10  1  0
 10 11  1  0
 11 12  2  0
 12 13  1  0
 13 14  1  0
 14 15  1  0
 15 16  2  0
 16 17  1  0
 17 18  1  0
 18 19  1  0
 19 20  2  0
 19 21  1  0
 21 22  2  0
 22 23  1  0
 23 24  2  0
 24 25  1  0
 25 26  1  0
 26 27  1  0
 26 28  1  0
 26 29  1  0
 25 30  2  0
 17 31  2  0
 31 32  1  0
 32 33  2  0
 33 34  1  0
 14 35  2  0
 35 36  1  0
 36 37  2  0
 37 38  1  0
  9 39  1  0
 39 40  2  0
  5 41  1  0
 41 42  1  0
 42  2  1  0
 40  6  1  0
 38 10  2  0
 38 13  1  0
 33 15  1  0
 30 21  1  0
  1 43  1  0
  1 44  1  0
  1 45  1  0
  2 46  1  0
  3 47  1  0
  3 48  1  0
  4 49  1  0
  4 50  1  0
  7 51  1  0
  8 52  1  0
 11 53  1  0
 16 54  1  0
 18 55  1  0
 22 56  1  0
 23 57  1  0
 24 58  1  0
 30 59  1  0
 31 60  1  0
 32 61  1  0
 35 62  1  0
 36 63  1  0
 39 64  1  0
 41 65  1  0
 41 66  1  0
 42 67  1  0
 42 68  1  0
M  CHG  1   2   1
M  END
>  <meeko>  (1) 
{"is_sidechain": [false], "free_energy": -9.763, "intermolecular_energy": -13.187, "internal_energy": -1.364}

$$$$
LIB_PIGVLAUTQMIRBH__M_PUB_ALL__e8__s20260927
     RDKit          3D

 68 73  0  0  0  0  0  0  0  0999 V2000
   -2.8400  -16.5600    5.3730 C   0  0  0  0  0  0  0  0  0  0  0  0
   -1.4270  -16.9640    5.5780 N   0  0  0  0  0  0  0  0  0  0  0  0
   -0.8400  -16.5570    6.9150 C   0  0  0  0  0  0  0  0  0  0  0  0
    0.7000  -16.7440    6.9160 C   0  0  0  0  0  0  0  0  0  0  0  0
    1.1570  -17.6270    5.8220 N   0  0  0  0  0  0  0  0  0  0  0  0
    1.5170  -16.9780    4.6420 C   0  0  0  0  0  0  0  0  0  0  0  0
    1.8150  -17.7170    3.5050 C   0  0  0  0  0  0  0  0  0  0  0  0
    2.1160  -17.0540    2.3140 C   0  0  0  0  0  0  0  0  0  0  0  0
    2.1060  -15.6590    2.2730 C   0  0  0  0  0  0  0  0  0  0  0  0
    2.4200  -14.9440    1.0510 C   0  0  0  0  0  0  0  0  0  0  0  0
    3.5430  -14.1570    0.7270 C   0  0  0  0  0  0  0  0  0  0  0  0
    3.5070  -13.6710   -0.5100 N   0  0  0  0  0  0  0  0  0  0  0  0
    2.3350  -14.1260   -1.0290 N   0  0  0  0  0  0  0  0  0  0  0  0
    1.8110  -13.9100   -2.3140 C   0  0  0  0  0  0  0  0  0  0  0  0
    2.5070  -13.0610   -3.2950 C   0  0  0  0  0  0  0  0  0  0  0  0
    3.2540  -13.6400   -4.3350 C   0  0  0  0  0  0  0  0  0  0  0  0
    3.9200  -12.8390   -5.2700 C   0  0  0  0  0  0  0  0  0  0  0  0
    4.6870  -13.3540   -6.3370 N   0  0  0  0  0  0  0  0  0  0  0  0
    6.0170  -13.7310   -6.3010 C   0  0  0  0  0  0  0  0  0  0  0  0
    6.7340  -13.7900   -5.3090 O   0  0  0  0  0  0  0  0  0  0  0  0
    6.5880  -14.1480   -7.6130 C   0  0  0  0  0  0  0  0  0  0  0  0
    7.0480  -15.4630   -7.7550 C   0  0  0  0  0  0  0  0  0  0  0  0
    7.5950  -15.8880   -8.9650 C   0  0  0  0  0  0  0  0  0  0  0  0
    7.6920  -15.0010  -10.0380 C   0  0  0  0  0  0  0  0  0  0  0  0
    7.2470  -13.6750   -9.9110 C   0  0  0  0  0  0  0  0  0  0  0  0
    7.3890  -12.7020  -11.0570 C   0  0  0  0  0  0  0  0  0  0  0  0
    6.3490  -11.8270  -11.1240 F   0  0  0  0  0  0  0  0  0  0  0  0
    8.5190  -11.9460  -10.9850 F   0  0  0  0  0  0  0  0  0  0  0  0
    7.4340  -13.3260  -12.2660 F   0  0  0  0  0  0  0  0  0  0  0  0
    6.7040  -13.2520   -8.6850 C   0  0  0  0  0  0  0  0  0  0  0  0
    3.8440  -11.4450   -5.1500 C   0  0  0  0  0  0  0  0  0  0  0  0
    3.0990  -10.8590   -4.1230 C   0  0  0  0  0  0  0  0  0  0  0  0
    2.4350  -11.6690   -3.2080 C   0  0  0  0  0  0  0  0  0  0  0  0
    1.6980  -11.0870   -2.2490 F   0  0  0  0  0  0  0  0  0  0  0  0
    0.6420  -14.4830   -2.6550 C   0  0  0  0  0  0  0  0  0  0  0  0
   -0.0010  -15.3120   -1.6060 C   0  0  0  0  0  0  0  0  0  0  0  0
    0.4500  -15.5280   -0.4060 N   0  0  0  0  0  0  0  0  0  0  0  0
    1.6450  -14.9260   -0.0980 C   0  0  0  0  0  0  0  0  0  0  0  0
    1.7900  -15.0040    3.4590 C   0  0  0  0  0  0  0  0  0  0  0  0
    1.4770  -15.6240    4.6320 N   0  0  0  0  0  0  0  0  0  0  0  0
    0.3170  -18.8160    5.6050 C   0  0  0  0  0  0  0  0  0  0  0  0
   -1.1390  -18.4200    5.2350 C   0  0  0  0  0  0  0  0  0  0  0  0
   -3.3269  -16.4208    6.3495 H   0  0  0  0  0  0  0  0  0  0  0  0
   -2.8734  -15.6163    4.8088 H   0  0  0  0  0  0  0  0  0  0  0  0
   -3.3672  -17.3434    4.8088 H   0  0  0  0  0  0  0  0  0  0  0  0
   -0.8370  -16.4310    4.8990 H   0  0  0  0  0  0  0  0  0  0  0  0
   -1.0757  -15.4997    7.1063 H   0  0  0  0  0  0  0  0  0  0  0  0
   -1.2745  -17.1924    7.7008 H   0  0  0  0  0  0  0  0  0  0  0  0
    1.1763  -15.7594    6.7987 H   0  0  0  0  0  0  0  0  0  0  0  0
    0.9820  -17.2147    7.8694 H   0  0  0  0  0  0  0  0  0  0  0  0
    1.8139  -18.8164    3.5424 H   0  0  0  0  0  0  0  0  0  0  0  0
    2.3606  -17.6300    1.4094 H   0  0  0  0  0  0  0  0  0  0  0  0
    4.3681  -13.9638    1.4283 H   0  0  0  0  0  0  0  0  0  0  0  0
    3.3161  -14.7353   -4.4152 H   0  0  0  0  0  0  0  0  0  0  0  0
    4.1870  -13.5070   -7.2040 H   0  0  0  0  0  0  0  0  0  0  0  0
    6.9776  -16.1628   -6.9093 H   0  0  0  0  0  0  0  0  0  0  0  0
    7.9504  -16.9233   -9.0740 H   0  0  0  0  0  0  0  0  0  0  0  0
    8.1207  -15.3434  -10.9914 H   0  0  0  0  0  0  0  0  0  0  0  0
    6.3680  -12.2113   -8.5662 H   0  0  0  0  0  0  0  0  0  0  0  0
    4.3755  -10.8061   -5.8706 H   0  0  0  0  0  0  0  0  0  0  0  0
    3.0382   -9.7639   -4.0389 H   0  0  0  0  0  0  0  0  0  0  0  0
    0.1915  -14.3453   -3.6491 H   0  0  0  0  0  0  0  0  0  0  0  0
   -0.9549  -15.7920   -1.8700 H   0  0  0  0  0  0  0  0  0  0  0  0
    1.7929  -13.9040    3.4495 H   0  0  0  0  0  0  0  0  0  0  0  0
    0.7451  -19.4123    4.7858 H   0  0  0  0  0  0  0  0  0  0  0  0
    0.2916  -19.3976    6.5383 H   0  0  0  0  0  0  0  0  0  0  0  0
   -1.2861  -18.5684    4.1550 H   0  0  0  0  0  0  0  0  0  0  0  0
   -1.8264  -19.0532    5.8151 H   0  0  0  0  0  0  0  0  0  0  0  0
  1  2  1  0
  2  3  1  0
  3  4  1  0
  4  5  1  0
  5  6  1  0
  6  7  2  0
  7  8  1  0
  8  9  2  0
  9 10  1  0
 10 11  1  0
 11 12  2  0
 12 13  1  0
 13 14  1  0
 14 15  1  0
 15 16  2  0
 16 17  1  0
 17 18  1  0
 18 19  1  0
 19 20  2  0
 19 21  1  0
 21 22  2  0
 22 23  1  0
 23 24  2  0
 24 25  1  0
 25 26  1  0
 26 27  1  0
 26 28  1  0
 26 29  1  0
 25 30  2  0
 17 31  2  0
 31 32  1  0
 32 33  2  0
 33 34  1  0
 14 35  2  0
 35 36  1  0
 36 37  2  0
 37 38  1  0
  9 39  1  0
 39 40  2  0
  5 41  1  0
 41 42  1  0
 42  2  1  0
 40  6  1  0
 38 10  2  0
 38 13  1  0
 33 15  1  0
 30 21  1  0
  1 43  1  0
  1 44  1  0
  1 45  1  0
  2 46  1  0
  3 47  1  0
  3 48  1  0
  4 49  1  0
  4 50  1  0
  7 51  1  0
  8 52  1  0
 11 53  1  0
 16 54  1  0
 18 55  1  0
 22 56  1  0
 23 57  1  0
 24 58  1  0
 30 59  1  0
 31 60  1  0
 32 61  1  0
 35 62  1  0
 36 63  1  0
 39 64  1  0
 41 65  1  0
 41 66  1  0
 42 67  1  0
 42 68  1  0
M  CHG  1   2   1
M  END
>  <meeko>  (2) 
{"is_sidechain": [false], "free_energy": -9.711, "intermolecular_energy": -12.867, "internal_energy": -1.614}

$$$$
LIB_PIGVLAUTQMIRBH__M_PUB_ALL__e8__s20260927
     RDKit          3D

 68 73  0  0  0  0  0  0  0  0999 V2000
   -1.1840  -15.9080    6.6120 C   0  0  0  0  0  0  0  0  0  0  0  0
   -1.7520  -16.8300    5.5970 N   0  0  0  0  0  0  0  0  0  0  0  0
   -1.4470  -18.2960    5.8300 C   0  0  0  0  0  0  0  0  0  0  0  0
   -1.8090  -19.1360    4.5780 C   0  0  0  0  0  0  0  0  0  0  0  0
   -2.7120  -18.4120    3.6600 N   0  0  0  0  0  0  0  0  0  0  0  0
   -2.0810  -17.6900    2.6480 C   0  0  0  0  0  0  0  0  0  0  0  0
   -2.8110  -16.8030    1.8670 C   0  0  0  0  0  0  0  0  0  0  0  0
   -2.1550  -16.0430    0.8970 C   0  0  0  0  0  0  0  0  0  0  0  0
   -0.7770  -16.1720    0.7260 C   0  0  0  0  0  0  0  0  0  0  0  0
   -0.0700  -15.3990   -0.2780 C   0  0  0  0  0  0  0  0  0  0  0  0
   -0.3980  -15.1520   -1.6260 C   0  0  0  0  0  0  0  0  0  0  0  0
    0.4770  -14.3680   -2.2470 N   0  0  0  0  0  0  0  0  0  0  0  0
    1.4200  -14.0880   -1.3070 N   0  0  0  0  0  0  0  0  0  0  0  0
    2.5660  -13.2870   -1.4380 C   0  0  0  0  0  0  0  0  0  0  0  0
    2.9220  -12.6580   -2.7210 C   0  0  0  0  0  0  0  0  0  0  0  0
    3.6390  -13.3770   -3.6930 C   0  0  0  0  0  0  0  0  0  0  0  0
    3.9810  -12.7850   -4.9140 C   0  0  0  0  0  0  0  0  0  0  0  0
    4.7000  -13.4490   -5.9320 N   0  0  0  0  0  0  0  0  0  0  0  0
    6.0650  -13.6670   -5.9820 C   0  0  0  0  0  0  0  0  0  0  0  0
    6.8780  -13.4210   -5.0990 O   0  0  0  0  0  0  0  0  0  0  0  0
    6.5520  -14.3140   -7.2330 C   0  0  0  0  0  0  0  0  0  0  0  0
    7.0350  -15.6260   -7.1640 C   0  0  0  0  0  0  0  0  0  0  0  0
    7.5050  -16.2620   -8.3130 C   0  0  0  0  0  0  0  0  0  0  0  0
    7.5040  -15.5870   -9.5350 C   0  0  0  0  0  0  0  0  0  0  0  0
    7.0350  -14.2670   -9.6220 C   0  0  0  0  0  0  0  0  0  0  0  0
    7.0710  -13.5210  -10.9340 C   0  0  0  0  0  0  0  0  0  0  0  0
    6.2630  -14.0870  -11.8720 F   0  0  0  0  0  0  0  0  0  0  0  0
    6.6810  -12.2220  -10.8280 F   0  0  0  0  0  0  0  0  0  0  0  0
    8.3180  -13.4930  -11.4820 F   0  0  0  0  0  0  0  0  0  0  0  0
    6.5690  -13.6310   -8.4580 C   0  0  0  0  0  0  0  0  0  0  0  0
    3.6120  -11.4550   -5.1540 C   0  0  0  0  0  0  0  0  0  0  0  0
    2.8950  -10.7330   -4.1970 C   0  0  0  0  0  0  0  0  0  0  0  0
    2.5530  -11.3380   -2.9930 C   0  0  0  0  0  0  0  0  0  0  0  0
    1.8350  -10.6380   -2.1010 F   0  0  0  0  0  0  0  0  0  0  0  0
    3.3650  -13.0970   -0.3720 C   0  0  0  0  0  0  0  0  0  0  0  0
    2.9440  -13.7750    0.8780 C   0  0  0  0  0  0  0  0  0  0  0  0
    1.8960  -14.5280    1.0350 N   0  0  0  0  0  0  0  0  0  0  0  0
    1.1060  -14.6960   -0.0760 C   0  0  0  0  0  0  0  0  0  0  0  0
   -0.1280  -17.0800    1.5580 C   0  0  0  0  0  0  0  0  0  0  0  0
   -0.7390  -17.8240    2.5230 N   0  0  0  0  0  0  0  0  0  0  0  0
   -3.7910  -17.6650    4.3260 C   0  0  0  0  0  0  0  0  0  0  0  0
   -3.2230  -16.5840    5.2860 C   0  0  0  0  0  0  0  0  0  0  0  0
   -1.4157  -16.2841    7.6194 H   0  0  0  0  0  0  0  0  0  0  0  0
   -0.0930  -15.8494    6.4844 H   0  0  0  0  0  0  0  0  0  0  0  0
   -1.6224  -14.9072    6.4844 H   0  0  0  0  0  0  0  0  0  0  0  0
   -1.2740  -16.6400    4.6860 H   0  0  0  0  0  0  0  0  0  0  0  0
   -0.3745  -18.4121    6.0452 H   0  0  0  0  0  0  0  0  0  0  0  0
   -2.0472  -18.6516    6.6805 H   0  0  0  0  0  0  0  0  0  0  0  0
   -0.8829  -19.3858    4.0395 H   0  0  0  0  0  0  0  0  0  0  0  0
   -2.3314  -20.0418    4.9196 H   0  0  0  0  0  0  0  0  0  0  0  0
   -3.8966  -16.7003    2.0116 H   0  0  0  0  0  0  0  0  0  0  0  0
   -2.7246  -15.3430    0.2681 H   0  0  0  0  0  0  0  0  0  0  0  0
   -1.2908  -15.5674   -2.1162 H   0  0  0  0  0  0  0  0  0  0  0  0
    3.9347  -14.4172   -3.4915 H   0  0  0  0  0  0  0  0  0  0  0  0
    4.1400  -13.8490   -6.6750 H   0  0  0  0  0  0  0  0  0  0  0  0
    7.0439  -16.1571   -6.2007 H   0  0  0  0  0  0  0  0  0  0  0  0
    7.8766  -17.2958   -8.2562 H   0  0  0  0  0  0  0  0  0  0  0  0
    7.8742  -16.0944  -10.4381 H   0  0  0  0  0  0  0  0  0  0  0  0
    6.2153  -12.5906   -8.5083 H   0  0  0  0  0  0  0  0  0  0  0  0
    3.8893  -10.9752   -6.1042 H   0  0  0  0  0  0  0  0  0  0  0  0
    2.6025   -9.6912   -4.3950 H   0  0  0  0  0  0  0  0  0  0  0  0
    4.2728  -12.4781   -0.4244 H   0  0  0  0  0  0  0  0  0  0  0  0
    3.5827  -13.6257    1.7610 H   0  0  0  0  0  0  0  0  0  0  0  0
    0.9569  -17.2063    1.4272 H   0  0  0  0  0  0  0  0  0  0  0  0
   -4.4114  -17.1744    3.5615 H   0  0  0  0  0  0  0  0  0  0  0  0
   -4.3887  -18.3739    4.9177 H   0  0  0  0  0  0  0  0  0  0  0  0
   -3.3280  -15.5961    4.8139 H   0  0  0  0  0  0  0  0  0  0  0  0
   -3.7872  -16.6296    6.2292 H   0  0  0  0  0  0  0  0  0  0  0  0
  1  2  1  0
  2  3  1  0
  3  4  1  0
  4  5  1  0
  5  6  1  0
  6  7  2  0
  7  8  1  0
  8  9  2  0
  9 10  1  0
 10 11  1  0
 11 12  2  0
 12 13  1  0
 13 14  1  0
 14 15  1  0
 15 16  2  0
 16 17  1  0
 17 18  1  0
 18 19  1  0
 19 20  2  0
 19 21  1  0
 21 22  2  0
 22 23  1  0
 23 24  2  0
 24 25  1  0
 25 26  1  0
 26 27  1  0
 26 28  1  0
 26 29  1  0
 25 30  2  0
 17 31  2  0
 31 32  1  0
 32 33  2  0
 33 34  1  0
 14 35  2  0
 35 36  1  0
 36 37  2  0
 37 38  1  0
  9 39  1  0
 39 40  2  0
  5 41  1  0
 41 42  1  0
 42  2  1  0
 40  6  1  0
 38 10  2  0
 38 13  1  0
 33 15  1  0
 30 21  1  0
  1 43  1  0
  1 44  1  0
  1 45  1  0
  2 46  1  0
  3 47  1  0
  3 48  1  0
  4 49  1  0
  4 50  1  0
  7 51  1  0
  8 52  1  0
 11 53  1  0
 16 54  1  0
 18 55  1  0
 22 56  1  0
 23 57  1  0
 24 58  1  0
 30 59  1  0
 31 60  1  0
 32 61  1  0
 35 62  1  0
 36 63  1  0
 39 64  1  0
 41 65  1  0
 41 66  1  0
 42 67  1  0
 42 68  1  0
M  CHG  1   2   1
M  END
>  <meeko>  (3) 
{"is_sidechain": [false], "free_energy": -9.536, "intermolecular_energy": -12.807, "internal_energy": -1.437}

$$$$
LIB_PIGVLAUTQMIRBH__M_PUB_ALL__e8__s20260927
     RDKit          3D

 68 73  0  0  0  0  0  0  0  0999 V2000
   -2.0340  -10.0860    1.0080 C   0  0  0  0  0  0  0  0  0  0  0  0
   -2.2870  -11.5480    1.0410 N   0  0  0  0  0  0  0  0  0  0  0  0
   -2.5500  -12.1140    2.4220 C   0  0  0  0  0  0  0  0  0  0  0  0
   -2.4970  -13.6640    2.3970 C   0  0  0  0  0  0  0  0  0  0  0  0
   -2.6180  -14.2060    1.0280 N   0  0  0  0  0  0  0  0  0  0  0  0
   -1.4120  -14.4330    0.3670 C   0  0  0  0  0  0  0  0  0  0  0  0
   -1.4050  -15.0660   -0.8700 C   0  0  0  0  0  0  0  0  0  0  0  0
   -0.1970  -15.2330   -1.5480 C   0  0  0  0  0  0  0  0  0  0  0  0
    0.9880  -14.7580   -0.9860 C   0  0  0  0  0  0  0  0  0  0  0  0
    2.2590  -14.9230   -1.6660 C   0  0  0  0  0  0  0  0  0  0  0  0
    3.3380  -15.7810   -1.3710 C   0  0  0  0  0  0  0  0  0  0  0  0
    4.3420  -15.6810   -2.2360 N   0  0  0  0  0  0  0  0  0  0  0  0
    3.9420  -14.7330   -3.1260 N   0  0  0  0  0  0  0  0  0  0  0  0
    4.6300  -14.2520   -4.2520 C   0  0  0  0  0  0  0  0  0  0  0  0
    5.9830  -14.7260   -4.5870 C   0  0  0  0  0  0  0  0  0  0  0  0
    7.1150  -14.0110   -4.1580 C   0  0  0  0  0  0  0  0  0  0  0  0
    8.4040  -14.4540   -4.4730 C   0  0  0  0  0  0  0  0  0  0  0  0
    9.5820  -13.7850   -4.0760 N   0  0  0  0  0  0  0  0  0  0  0  0
   10.4550  -14.1610   -3.0710 C   0  0  0  0  0  0  0  0  0  0  0  0
   10.4200  -15.2000   -2.4220 O   0  0  0  0  0  0  0  0  0  0  0  0
   11.5660  -13.2010   -2.8130 C   0  0  0  0  0  0  0  0  0  0  0  0
   12.5380  -13.0210   -3.8050 C   0  0  0  0  0  0  0  0  0  0  0  0
   13.5960  -12.1370   -3.5970 C   0  0  0  0  0  0  0  0  0  0  0  0
   13.6930  -11.4330   -2.3950 C   0  0  0  0  0  0  0  0  0  0  0  0
   12.7350  -11.6100   -1.3840 C   0  0  0  0  0  0  0  0  0  0  0  0
   12.8610  -10.8820   -0.0680 C   0  0  0  0  0  0  0  0  0  0  0  0
   14.0870  -11.0470    0.4990 F   0  0  0  0  0  0  0  0  0  0  0  0
   12.6680   -9.5380   -0.1740 F   0  0  0  0  0  0  0  0  0  0  0  0
   11.9580  -11.3160    0.8550 F   0  0  0  0  0  0  0  0  0  0  0  0
   11.6750  -12.5080   -1.5990 C   0  0  0  0  0  0  0  0  0  0  0  0
    8.5560  -15.6190   -5.2380 C   0  0  0  0  0  0  0  0  0  0  0  0
    7.4390  -16.3400   -5.6640 C   0  0  0  0  0  0  0  0  0  0  0  0
    6.1640  -15.8920   -5.3340 C   0  0  0  0  0  0  0  0  0  0  0  0
    5.1050  -16.6170   -5.7250 F   0  0  0  0  0  0  0  0  0  0  0  0
    4.0460  -13.3300   -5.0390 C   0  0  0  0  0  0  0  0  0  0  0  0
    2.6880  -12.8960   -4.6260 C   0  0  0  0  0  0  0  0  0  0  0  0
    2.0250  -13.3130   -3.5890 N   0  0  0  0  0  0  0  0  0  0  0  0
    2.6560  -14.2540   -2.8120 C   0  0  0  0  0  0  0  0  0  0  0  0
    0.8830  -14.1320    0.2520 C   0  0  0  0  0  0  0  0  0  0  0  0
   -0.2840  -13.9410    0.9310 N   0  0  0  0  0  0  0  0  0  0  0  0
   -3.6280  -13.5360    0.1920 C   0  0  0  0  0  0  0  0  0  0  0  0
   -3.3030  -12.0280    0.0120 C   0  0  0  0  0  0  0  0  0  0  0  0
   -1.9676   -9.7021    2.0367 H   0  0  0  0  0  0  0  0  0  0  0  0
   -1.0885   -9.8893    0.4814 H   0  0  0  0  0  0  0  0  0  0  0  0
   -2.8585   -9.5830    0.4814 H   0  0  0  0  0  0  0  0  0  0  0  0
   -1.4060  -12.0350    0.7600 H   0  0  0  0  0  0  0  0  0  0  0  0
   -1.7862  -11.7375    3.1183 H   0  0  0  0  0  0  0  0  0  0  0  0
   -3.5519  -11.7991    2.7490 H   0  0  0  0  0  0  0  0  0  0  0  0
   -1.5380  -13.9923    2.8242 H   0  0  0  0  0  0  0  0  0  0  0  0
   -3.3475  -14.0398    2.9847 H   0  0  0  0  0  0  0  0  0  0  0  0
   -2.3438  -15.4323   -1.3110 H   0  0  0  0  0  0  0  0  0  0  0  0
   -0.1792  -15.7387   -2.5247 H   0  0  0  0  0  0  0  0  0  0  0  0
    3.3479  -16.4655   -0.5100 H   0  0  0  0  0  0  0  0  0  0  0  0
    6.9855  -13.0920   -3.5675 H   0  0  0  0  0  0  0  0  0  0  0  0
    9.8320  -12.9730   -4.6260 H   0  0  0  0  0  0  0  0  0  0  0  0
   12.4666  -13.5784   -4.7506 H   0  0  0  0  0  0  0  0  0  0  0  0
   14.3549  -11.9941   -4.3804 H   0  0  0  0  0  0  0  0  0  0  0  0
   14.5274  -10.7335   -2.2388 H   0  0  0  0  0  0  0  0  0  0  0  0
   10.9260  -12.6681   -0.8095 H   0  0  0  0  0  0  0  0  0  0  0  0
    9.5644  -15.9681   -5.5050 H   0  0  0  0  0  0  0  0  0  0  0  0
    7.5664  -17.2574   -6.2574 H   0  0  0  0  0  0  0  0  0  0  0  0
    4.5435  -12.9236   -5.9319 H   0  0  0  0  0  0  0  0  0  0  0  0
    2.1933  -12.1465   -5.2612 H   0  0  0  0  0  0  0  0  0  0  0  0
    1.8094  -13.7641    0.7173 H   0  0  0  0  0  0  0  0  0  0  0  0
   -3.6514  -14.0178   -0.7966 H   0  0  0  0  0  0  0  0  0  0  0  0
   -4.6043  -13.6231    0.6912 H   0  0  0  0  0  0  0  0  0  0  0  0
   -2.8929  -11.8688   -0.9962 H   0  0  0  0  0  0  0  0  0  0  0  0
   -4.2321  -11.4560    0.1522 H   0  0  0  0  0  0  0  0  0  0  0  0
  1  2  1  0
  2  3  1  0
  3  4  1  0
  4  5  1  0
  5  6  1  0
  6  7  2  0
  7  8  1  0
  8  9  2  0
  9 10  1  0
 10 11  1  0
 11 12  2  0
 12 13  1  0
 13 14  1  0
 14 15  1  0
 15 16  2  0
 16 17  1  0
 17 18  1  0
 18 19  1  0
 19 20  2  0
 19 21  1  0
 21 22  2  0
 22 23  1  0
 23 24  2  0
 24 25  1  0
 25 26  1  0
 26 27  1  0
 26 28  1  0
 26 29  1  0
 25 30  2  0
 17 31  2  0
 31 32  1  0
 32 33  2  0
 33 34  1  0
 14 35  2  0
 35 36  1  0
 36 37  2  0
 37 38  1  0
  9 39  1  0
 39 40  2  0
  5 41  1  0
 41 42  1  0
 42  2  1  0
 40  6  1  0
 38 10  2  0
 38 13  1  0
 33 15  1  0
 30 21  1  0
  1 43  1  0
  1 44  1  0
  1 45  1  0
  2 46  1  0
  3 47  1  0
  3 48  1  0
  4 49  1  0
  4 50  1  0
  7 51  1  0
  8 52  1  0
 11 53  1  0
 16 54  1  0
 18 55  1  0
 22 56  1  0
 23 57  1  0
 24 58  1  0
 30 59  1  0
 31 60  1  0
 32 61  1  0
 35 62  1  0
 36 63  1  0
 39 64  1  0
 41 65  1  0
 41 66  1  0
 42 67  1  0
 42 68  1  0
M  CHG  1   2   1
M  END
>  <meeko>  (4) 
{"is_sidechain": [false], "free_energy": -9.522, "intermolecular_energy": -12.621, "internal_energy": -1.605}

$$$$
LIB_PIGVLAUTQMIRBH__M_PUB_ALL__e8__s20260927
     RDKit          3D

 68 73  0  0  0  0  0  0  0  0999 V2000
    7.5140  -15.8120   -0.7930 C   0  0  0  0  0  0  0  0  0  0  0  0
    7.3720  -14.3500   -1.0040 N   0  0  0  0  0  0  0  0  0  0  0  0
    8.2830  -13.4940   -0.1480 C   0  0  0  0  0  0  0  0  0  0  0  0
    7.8540  -12.0040   -0.2110 C   0  0  0  0  0  0  0  0  0  0  0  0
    6.9700  -11.7250   -1.3610 N   0  0  0  0  0  0  0  0  0  0  0  0
    5.6030  -11.8180   -1.1000 C   0  0  0  0  0  0  0  0  0  0  0  0
    4.6860  -11.6760   -2.1340 C   0  0  0  0  0  0  0  0  0  0  0  0
    3.3250  -11.8310   -1.8690 C   0  0  0  0  0  0  0  0  0  0  0  0
    2.8970  -12.1350   -0.5770 C   0  0  0  0  0  0  0  0  0  0  0  0
    1.4880  -12.2950   -0.2720 C   0  0  0  0  0  0  0  0  0  0  0  0
    0.6410  -13.4050   -0.4630 C   0  0  0  0  0  0  0  0  0  0  0  0
   -0.6010  -13.2010   -0.0370 N   0  0  0  0  0  0  0  0  0  0  0  0
   -0.6000  -11.9280    0.4420 N   0  0  0  0  0  0  0  0  0  0  0  0
   -1.6630  -11.2150    1.0210 C   0  0  0  0  0  0  0  0  0  0  0  0
   -3.0090  -11.8010    1.1340 C   0  0  0  0  0  0  0  0  0  0  0  0
   -3.3780  -12.5220    2.2830 C   0  0  0  0  0  0  0  0  0  0  0  0
   -4.6550  -13.0820    2.3970 C   0  0  0  0  0  0  0  0  0  0  0  0
   -5.0910  -13.8170    3.5200 N   0  0  0  0  0  0  0  0  0  0  0  0
   -4.6750  -15.0800    3.9020 C   0  0  0  0  0  0  0  0  0  0  0  0
   -3.7750  -15.7380    3.3950 O   0  0  0  0  0  0  0  0  0  0  0  0
   -5.3860  -15.6450    5.0840 C   0  0  0  0  0  0  0  0  0  0  0  0
   -4.6240  -16.1130    6.1620 C   0  0  0  0  0  0  0  0  0  0  0  0
   -5.2530  -16.6540    7.2830 C   0  0  0  0  0  0  0  0  0  0  0  0
   -6.6460  -16.7370    7.3300 C   0  0  0  0  0  0  0  0  0  0  0  0
   -7.4260  -16.2840    6.2550 C   0  0  0  0  0  0  0  0  0  0  0  0
   -8.9300  -16.4120    6.2860 C   0  0  0  0  0  0  0  0  0  0  0  0
   -9.4910  -15.6640    7.2750 F   0  0  0  0  0  0  0  0  0  0  0  0
   -9.5290  -16.0230    5.1280 F   0  0  0  0  0  0  0  0  0  0  0  0
   -9.3390  -17.6920    6.5070 F   0  0  0  0  0  0  0  0  0  0  0  0
   -6.7840  -15.7460    5.1250 C   0  0  0  0  0  0  0  0  0  0  0  0
   -5.5630  -12.9290    1.3400 C   0  0  0  0  0  0  0  0  0  0  0  0
   -5.2090  -12.2100    0.1970 C   0  0  0  0  0  0  0  0  0  0  0  0
   -3.9390  -11.6500    0.1030 C   0  0  0  0  0  0  0  0  0  0  0  0
   -3.6290  -10.9350   -0.9900 F   0  0  0  0  0  0  0  0  0  0  0  0
   -1.4520   -9.9660    1.4730 C   0  0  0  0  0  0  0  0  0  0  0  0
   -0.0720   -9.4450    1.3090 C   0  0  0  0  0  0  0  0  0  0  0  0
    0.9330  -10.0710    0.7740 N   0  0  0  0  0  0  0  0  0  0  0  0
    0.6770  -11.3440    0.3250 C   0  0  0  0  0  0  0  0  0  0  0  0
    3.8870  -12.2650    0.3920 C   0  0  0  0  0  0  0  0  0  0  0  0
    5.2240  -12.1350    0.1610 N   0  0  0  0  0  0  0  0  0  0  0  0
    7.3730  -12.3810   -2.6150 C   0  0  0  0  0  0  0  0  0  0  0  0
    7.3830  -13.9280   -2.4680 C   0  0  0  0  0  0  0  0  0  0  0  0
    7.5348  -16.0265    0.2857 H   0  0  0  0  0  0  0  0  0  0  0  0
    6.6623  -16.3335   -1.2541 H   0  0  0  0  0  0  0  0  0  0  0  0
    8.4502  -16.1598   -1.2541 H   0  0  0  0  0  0  0  0  0  0  0  0
    6.4200  -14.0680   -0.6750 H   0  0  0  0  0  0  0  0  0  0  0  0
    8.2303  -13.8412    0.8944 H   0  0  0  0  0  0  0  0  0  0  0  0
    9.3115  -13.5824   -0.5281 H   0  0  0  0  0  0  0  0  0  0  0  0
    7.3195  -11.7499    0.7162 H   0  0  0  0  0  0  0  0  0  0  0  0
    8.7631  -11.3960   -0.3291 H   0  0  0  0  0  0  0  0  0  0  0  0
    5.0300  -11.4434   -3.1526 H   0  0  0  0  0  0  0  0  0  0  0  0
    2.5899  -11.7135   -2.6788 H   0  0  0  0  0  0  0  0  0  0  0  0
    0.9753  -14.3480   -0.9200 H   0  0  0  0  0  0  0  0  0  0  0  0
   -2.6543  -12.6473    3.1019 H   0  0  0  0  0  0  0  0  0  0  0  0
   -5.7380  -13.3390    4.1340 H   0  0  0  0  0  0  0  0  0  0  0  0
   -3.5262  -16.0537    6.1243 H   0  0  0  0  0  0  0  0  0  0  0  0
   -4.6516  -17.0154    8.1302 H   0  0  0  0  0  0  0  0  0  0  0  0
   -7.1367  -17.1616    8.2182 H   0  0  0  0  0  0  0  0  0  0  0  0
   -7.3823  -15.4024    4.2682 H   0  0  0  0  0  0  0  0  0  0  0  0
   -6.5638  -13.3797    1.4119 H   0  0  0  0  0  0  0  0  0  0  0  0
   -5.9300  -12.0870   -0.6246 H   0  0  0  0  0  0  0  0  0  0  0  0
   -2.2516   -9.3684    1.9350 H   0  0  0  0  0  0  0  0  0  0  0  0
    0.1192   -8.4263    1.6775 H   0  0  0  0  0  0  0  0  0  0  0  0
    3.5671  -12.4892    1.4203 H   0  0  0  0  0  0  0  0  0  0  0  0
    6.6646  -12.1015   -3.4088 H   0  0  0  0  0  0  0  0  0  0  0  0
    8.3916  -12.0506   -2.8666 H   0  0  0  0  0  0  0  0  0  0  0  0
    6.4926  -14.3401   -2.9654 H   0  0  0  0  0  0  0  0  0  0  0  0
    8.3036  -14.3127   -2.9311 H   0  0  0  0  0  0  0  0  0  0  0  0
  1  2  1  0
  2  3  1  0
  3  4  1  0
  4  5  1  0
  5  6  1  0
  6  7  2  0
  7  8  1  0
  8  9  2  0
  9 10  1  0
 10 11  1  0
 11 12  2  0
 12 13  1  0
 13 14  1  0
 14 15  1  0
 15 16  2  0
 16 17  1  0
 17 18  1  0
 18 19  1  0
 19 20  2  0
 19 21  1  0
 21 22  2  0
 22 23  1  0
 23 24  2  0
 24 25  1  0
 25 26  1  0
 26 27  1  0
 26 28  1  0
 26 29  1  0
 25 30  2  0
 17 31  2  0
 31 32  1  0
 32 33  2  0
 33 34  1  0
 14 35  2  0
 35 36  1  0
 36 37  2  0
 37 38  1  0
  9 39  1  0
 39 40  2  0
  5 41  1  0
 41 42  1  0
 42  2  1  0
 40  6  1  0
 38 10  2  0
 38 13  1  0
 33 15  1  0
 30 21  1  0
  1 43  1  0
  1 44  1  0
  1 45  1  0
  2 46  1  0
  3 47  1  0
  3 48  1  0
  4 49  1  0
  4 50  1  0
  7 51  1  0
  8 52  1  0
 11 53  1  0
 16 54  1  0
 18 55  1  0
 22 56  1  0
 23 57  1  0
 24 58  1  0
 30 59  1  0
 31 60  1  0
 32 61  1  0
 35 62  1  0
 36 63  1  0
 39 64  1  0
 41 65  1  0
 41 66  1  0
 42 67  1  0
 42 68  1  0
M  CHG  1   2   1
M  END
>  <meeko>  (5) 
{"is_sidechain": [false], "free_energy": -9.197, "intermolecular_energy": -12.151, "internal_energy": -1.636}

$$$$
LIB_PIGVLAUTQMIRBH__M_PUB_ALL__e8__s20260927
     RDKit          3D

 68 73  0  0  0  0  0  0  0  0999 V2000
  -10.0920  -19.8820    6.5960 C   0  0  0  0  0  0  0  0  0  0  0  0
   -9.8510  -18.5310    7.1610 N   0  0  0  0  0  0  0  0  0  0  0  0
  -11.0710  -17.6310    7.1930 C   0  0  0  0  0  0  0  0  0  0  0  0
  -10.6630  -16.1670    7.5050 C   0  0  0  0  0  0  0  0  0  0  0  0
   -9.3070  -16.0760    8.0850 N   0  0  0  0  0  0  0  0  0  0  0  0
   -8.2770  -15.8720    7.1680 C   0  0  0  0  0  0  0  0  0  0  0  0
   -7.0210  -15.4770    7.6090 C   0  0  0  0  0  0  0  0  0  0  0  0
   -5.9830  -15.3350    6.6860 C   0  0  0  0  0  0  0  0  0  0  0  0
   -6.2130  -15.5980    5.3350 C   0  0  0  0  0  0  0  0  0  0  0  0
   -5.1540  -15.4530    4.3530 C   0  0  0  0  0  0  0  0  0  0  0  0
   -4.7980  -14.3410    3.5650 C   0  0  0  0  0  0  0  0  0  0  0  0
   -3.7450  -14.5630    2.7850 N   0  0  0  0  0  0  0  0  0  0  0  0
   -3.3880  -15.8500    3.0410 N   0  0  0  0  0  0  0  0  0  0  0  0
   -2.3260  -16.5840    2.4870 C   0  0  0  0  0  0  0  0  0  0  0  0
   -1.4490  -16.0080    1.4550 C   0  0  0  0  0  0  0  0  0  0  0  0
   -0.1380  -15.6140    1.7720 C   0  0  0  0  0  0  0  0  0  0  0  0
    0.7010  -15.0630    0.7960 C   0  0  0  0  0  0  0  0  0  0  0  0
    2.0250  -14.6460    1.0470 N   0  0  0  0  0  0  0  0  0  0  0  0
    2.5420  -13.3720    0.8900 C   0  0  0  0  0  0  0  0  0  0  0  0
    1.9140  -12.3580    0.6130 O   0  0  0  0  0  0  0  0  0  0  0  0
    4.0060  -13.2540    1.1400 C   0  0  0  0  0  0  0  0  0  0  0  0
    4.6860  -14.3570    1.6700 C   0  0  0  0  0  0  0  0  0  0  0  0
    6.0550  -14.2810    1.9240 C   0  0  0  0  0  0  0  0  0  0  0  0
    6.7510  -13.1010    1.6570 C   0  0  0  0  0  0  0  0  0  0  0  0
    6.0840  -11.9800    1.1380 C   0  0  0  0  0  0  0  0  0  0  0  0
    6.8270  -10.6890    0.8880 C   0  0  0  0  0  0  0  0  0  0  0  0
    8.1580  -10.8010    1.1450 F   0  0  0  0  0  0  0  0  0  0  0  0
    6.7220  -10.2460   -0.3940 F   0  0  0  0  0  0  0  0  0  0  0  0
    6.3770   -9.6710    1.6730 F   0  0  0  0  0  0  0  0  0  0  0  0
    4.7030  -12.0620    0.8910 C   0  0  0  0  0  0  0  0  0  0  0  0
    0.2110  -14.8950   -0.5060 C   0  0  0  0  0  0  0  0  0  0  0  0
   -1.0880  -15.2880   -0.8340 C   0  0  0  0  0  0  0  0  0  0  0  0
   -1.9060  -15.8440    0.1440 C   0  0  0  0  0  0  0  0  0  0  0  0
   -3.1390  -16.2450   -0.1990 F   0  0  0  0  0  0  0  0  0  0  0  0
   -2.1100  -17.8460    2.9000 C   0  0  0  0  0  0  0  0  0  0  0  0
   -3.0460  -18.3570    3.9320 C   0  0  0  0  0  0  0  0  0  0  0  0
   -4.0410  -17.7110    4.4620 N   0  0  0  0  0  0  0  0  0  0  0  0
   -4.2280  -16.4260    4.0140 C   0  0  0  0  0  0  0  0  0  0  0  0
   -7.5000  -15.9950    4.9880 C   0  0  0  0  0  0  0  0  0  0  0  0
   -8.5290  -16.1570    5.8680 N   0  0  0  0  0  0  0  0  0  0  0  0
   -9.0010  -17.1070    9.0900 C   0  0  0  0  0  0  0  0  0  0  0  0
   -9.0960  -18.5350    8.4840 C   0  0  0  0  0  0  0  0  0  0  0  0
  -10.2209  -20.6045    7.4154 H   0  0  0  0  0  0  0  0  0  0  0  0
  -11.0011  -19.8637    5.9769 H   0  0  0  0  0  0  0  0  0  0  0  0
   -9.2327  -20.1792    5.9769 H   0  0  0  0  0  0  0  0  0  0  0  0
   -9.2090  -18.0200    6.5140 H   0  0  0  0  0  0  0  0  0  0  0  0
  -11.5714  -17.6658    6.2140 H   0  0  0  0  0  0  0  0  0  0  0  0
  -11.7514  -17.9847    7.9816 H   0  0  0  0  0  0  0  0  0  0  0  0
  -10.6885  -15.5857    6.5715 H   0  0  0  0  0  0  0  0  0  0  0  0
  -11.3735  -15.7692    8.2445 H   0  0  0  0  0  0  0  0  0  0  0  0
   -6.8453  -15.2777    8.6764 H   0  0  0  0  0  0  0  0  0  0  0  0
   -4.9856  -15.0164    7.0232 H   0  0  0  0  0  0  0  0  0  0  0  0
   -5.3383  -13.3832    3.5925 H   0  0  0  0  0  0  0  0  0  0  0  0
    0.2337  -15.7400    2.7996 H   0  0  0  0  0  0  0  0  0  0  0  0
    2.6420  -15.3510    1.4300 H   0  0  0  0  0  0  0  0  0  0  0  0
    4.1388  -15.2863    1.8867 H   0  0  0  0  0  0  0  0  0  0  0  0
    6.5868  -15.1517    2.3351 H   0  0  0  0  0  0  0  0  0  0  0  0
    7.8318  -13.0489    1.8550 H   0  0  0  0  0  0  0  0  0  0  0  0
    4.1649  -11.1859    0.4999 H   0  0  0  0  0  0  0  0  0  0  0  0
    0.8561  -14.4491   -1.2773 H   0  0  0  0  0  0  0  0  0  0  0  0
   -1.4624  -15.1586   -1.8602 H   0  0  0  0  0  0  0  0  0  0  0  0
   -1.2910  -18.4605    2.4980 H   0  0  0  0  0  0  0  0  0  0  0  0
   -2.8808  -19.3861    4.2836 H   0  0  0  0  0  0  0  0  0  0  0  0
   -7.7028  -16.1929    3.9251 H   0  0  0  0  0  0  0  0  0  0  0  0
   -7.9809  -16.9460    9.4688 H   0  0  0  0  0  0  0  0  0  0  0  0
   -9.7367  -17.0265    9.9038 H   0  0  0  0  0  0  0  0  0  0  0  0
   -8.0795  -18.9196    8.3143 H   0  0  0  0  0  0  0  0  0  0  0  0
   -9.6436  -19.1746    9.1919 H   0  0  0  0  0  0  0  0  0  0  0  0
  1  2  1  0
  2  3  1  0
  3  4  1  0
  4  5  1  0
  5  6  1  0
  6  7  2  0
  7  8  1  0
  8  9  2  0
  9 10  1  0
 10 11  1  0
 11 12  2  0
 12 13  1  0
 13 14  1  0
 14 15  1  0
 15 16  2  0
 16 17  1  0
 17 18  1  0
 18 19  1  0
 19 20  2  0
 19 21  1  0
 21 22  2  0
 22 23  1  0
 23 24  2  0
 24 25  1  0
 25 26  1  0
 26 27  1  0
 26 28  1  0
 26 29  1  0
 25 30  2  0
 17 31  2  0
 31 32  1  0
 32 33  2  0
 33 34  1  0
 14 35  2  0
 35 36  1  0
 36 37  2  0
 37 38  1  0
  9 39  1  0
 39 40  2  0
  5 41  1  0
 41 42  1  0
 42  2  1  0
 40  6  1  0
 38 10  2  0
 38 13  1  0
 33 15  1  0
 30 21  1  0
  1 43  1  0
  1 44  1  0
  1 45  1  0
  2 46  1  0
  3 47  1  0
  3 48  1  0
  4 49  1  0
  4 50  1  0
  7 51  1  0
  8 52  1  0
 11 53  1  0
 16 54  1  0
 18 55  1  0
 22 56  1  0
 23 57  1  0
 24 58  1  0
 30 59  1  0
 31 60  1  0
 32 61  1  0
 35 62  1  0
 36 63  1  0
 39 64  1  0
 41 65  1  0
 41 66  1  0
 42 67  1  0
 42 68  1  0
M  CHG  1   2   1
M  END
>  <meeko>  (6) 
{"is_sidechain": [false], "free_energy": -9.137, "intermolecular_energy": -12.225, "internal_energy": -1.481}

$$$$
LIB_PIGVLAUTQMIRBH__M_PUB_ALL__e8__s20260927
     RDKit          3D

 68 73  0  0  0  0  0  0  0  0999 V2000
   12.5460  -10.3810    0.2420 C   0  0  0  0  0  0  0  0  0  0  0  0
   12.0790  -11.6010   -0.4630 N   0  0  0  0  0  0  0  0  0  0  0  0
   12.5380  -11.7160   -1.9030 C   0  0  0  0  0  0  0  0  0  0  0  0
   11.7630  -12.8410   -2.6360 C   0  0  0  0  0  0  0  0  0  0  0  0
   11.0980  -13.7670   -1.6960 N   0  0  0  0  0  0  0  0  0  0  0  0
    9.7790  -13.4500   -1.3770 C   0  0  0  0  0  0  0  0  0  0  0  0
    9.1500  -12.3810   -2.0020 C   0  0  0  0  0  0  0  0  0  0  0  0
    7.8100  -12.1120   -1.7180 C   0  0  0  0  0  0  0  0  0  0  0  0
    7.1140  -12.9190   -0.8180 C   0  0  0  0  0  0  0  0  0  0  0  0
    5.7230  -12.6580   -0.5000 C   0  0  0  0  0  0  0  0  0  0  0  0
    5.1120  -12.4050    0.7450 C   0  0  0  0  0  0  0  0  0  0  0  0
    3.8050  -12.1800    0.6540 N   0  0  0  0  0  0  0  0  0  0  0  0
    3.5230  -12.2940   -0.6720 N   0  0  0  0  0  0  0  0  0  0  0  0
    2.2830  -12.1390   -1.3140 C   0  0  0  0  0  0  0  0  0  0  0  0
    1.0530  -11.8650   -0.5530 C   0  0  0  0  0  0  0  0  0  0  0  0
    0.4390  -12.8810    0.2000 C   0  0  0  0  0  0  0  0  0  0  0  0
   -0.7320  -12.6280    0.9240 C   0  0  0  0  0  0  0  0  0  0  0  0
   -1.3990  -13.6010    1.6980 N   0  0  0  0  0  0  0  0  0  0  0  0
   -1.1830  -13.8960    3.0320 C   0  0  0  0  0  0  0  0  0  0  0  0
   -0.4530  -13.2900    3.8070 O   0  0  0  0  0  0  0  0  0  0  0  0
   -1.9750  -15.0450    3.5570 C   0  0  0  0  0  0  0  0  0  0  0  0
   -3.3700  -15.0010    3.4480 C   0  0  0  0  0  0  0  0  0  0  0  0
   -4.1450  -16.0540    3.9350 C   0  0  0  0  0  0  0  0  0  0  0  0
   -3.5310  -17.1520    4.5390 C   0  0  0  0  0  0  0  0  0  0  0  0
   -2.1340  -17.2080    4.6680 C   0  0  0  0  0  0  0  0  0  0  0  0
   -1.4710  -18.3760    5.3590 C   0  0  0  0  0  0  0  0  0  0  0  0
   -2.0300  -19.5670    5.0120 F   0  0  0  0  0  0  0  0  0  0  0  0
   -0.1430  -18.4830    5.0810 F   0  0  0  0  0  0  0  0  0  0  0  0
   -1.5630  -18.2980    6.7150 F   0  0  0  0  0  0  0  0  0  0  0  0
   -1.3600  -16.1400    4.1820 C   0  0  0  0  0  0  0  0  0  0  0  0
   -1.2970  -11.3460    0.8790 C   0  0  0  0  0  0  0  0  0  0  0  0
   -0.6920  -10.3280    0.1400 C   0  0  0  0  0  0  0  0  0  0  0  0
    0.4770  -10.5920   -0.5660 C   0  0  0  0  0  0  0  0  0  0  0  0
    1.0600   -9.5920   -1.2440 F   0  0  0  0  0  0  0  0  0  0  0  0
    2.2140  -12.2540   -2.6520 C   0  0  0  0  0  0  0  0  0  0  0  0
    3.4950  -12.5440   -3.3420 C   0  0  0  0  0  0  0  0  0  0  0  0
    4.6570  -12.7000   -2.7830 N   0  0  0  0  0  0  0  0  0  0  0  0
    4.6860  -12.5740   -1.4150 C   0  0  0  0  0  0  0  0  0  0  0  0
    7.8230  -13.9700   -0.2460 C   0  0  0  0  0  0  0  0  0  0  0  0
    9.1270  -14.2670   -0.5160 N   0  0  0  0  0  0  0  0  0  0  0  0
   11.9110  -14.1380   -0.5260 C   0  0  0  0  0  0  0  0  0  0  0  0
   12.2890  -12.8910    0.3200 C   0  0  0  0  0  0  0  0  0  0  0  0
   12.4853  -10.5396    1.3288 H   0  0  0  0  0  0  0  0  0  0  0  0
   13.5882  -10.1707   -0.0402 H   0  0  0  0  0  0  0  0  0  0  0  0
   11.9106   -9.5286   -0.0402 H   0  0  0  0  0  0  0  0  0  0  0  0
   11.0400  -11.5390   -0.5600 H   0  0  0  0  0  0  0  0  0  0  0  0
   12.3588  -10.7600   -2.4167 H   0  0  0  0  0  0  0  0  0  0  0  0
   13.6106  -11.9596   -1.9143 H   0  0  0  0  0  0  0  0  0  0  0  0
   10.9990  -12.3822   -3.2809 H   0  0  0  0  0  0  0  0  0  0  0  0
   12.4886  -13.4218   -3.2243 H   0  0  0  0  0  0  0  0  0  0  0  0
    9.7031  -11.7517   -2.7148 H   0  0  0  0  0  0  0  0  0  0  0  0
    7.3036  -11.2647   -2.2033 H   0  0  0  0  0  0  0  0  0  0  0  0
    5.6623  -12.3948    1.6974 H   0  0  0  0  0  0  0  0  0  0  0  0
    0.8840  -13.8867    0.2205 H   0  0  0  0  0  0  0  0  0  0  0  0
   -2.1500  -14.0950    1.2310 H   0  0  0  0  0  0  0  0  0  0  0  0
   -3.8564  -14.1340    2.9772 H   0  0  0  0  0  0  0  0  0  0  0  0
   -5.2406  -16.0187    3.8428 H   0  0  0  0  0  0  0  0  0  0  0  0
   -4.1470  -17.9811    4.9174 H   0  0  0  0  0  0  0  0  0  0  0  0
   -0.2658  -16.1630    4.2924 H   0  0  0  0  0  0  0  0  0  0  0  0
   -2.2258  -11.1402    1.4312 H   0  0  0  0  0  0  0  0  0  0  0  0
   -1.1373   -9.3225    0.1161 H   0  0  0  0  0  0  0  0  0  0  0  0
    1.2673  -12.1402   -3.2005 H   0  0  0  0  0  0  0  0  0  0  0  0
    3.4568  -12.6362   -4.4375 H   0  0  0  0  0  0  0  0  0  0  0  0
    7.2938  -14.6083    0.4768 H   0  0  0  0  0  0  0  0  0  0  0  0
   11.3374  -14.8358    0.1017 H   0  0  0  0  0  0  0  0  0  0  0  0
   12.8390  -14.6077   -0.8841 H   0  0  0  0  0  0  0  0  0  0  0  0
   11.6608  -12.8676    1.2227 H   0  0  0  0  0  0  0  0  0  0  0  0
   13.3539  -12.9640    0.5860 H   0  0  0  0  0  0  0  0  0  0  0  0
  1  2  1  0
  2  3  1  0
  3  4  1  0
  4  5  1  0
  5  6  1  0
  6  7  2  0
  7  8  1  0
  8  9  2  0
  9 10  1  0
 10 11  1  0
 11 12  2  0
 12 13  1  0
 13 14  1  0
 14 15  1  0
 15 16  2  0
 16 17  1  0
 17 18  1  0
 18 19  1  0
 19 20  2  0
 19 21  1  0
 21 22  2  0
 22 23  1  0
 23 24  2  0
 24 25  1  0
 25 26  1  0
 26 27  1  0
 26 28  1  0
 26 29  1  0
 25 30  2  0
 17 31  2  0
 31 32  1  0
 32 33  2  0
 33 34  1  0
 14 35  2  0
 35 36  1  0
 36 37  2  0
 37 38  1  0
  9 39  1  0
 39 40  2  0
  5 41  1  0
 41 42  1  0
 42  2  1  0
 40  6  1  0
 38 10  2  0
 38 13  1  0
 33 15  1  0
 30 21  1  0
  1 43  1  0
  1 44  1  0
  1 45  1  0
  2 46  1  0
  3 47  1  0
  3 48  1  0
  4 49  1  0
  4 50  1  0
  7 51  1  0
  8 52  1  0
 11 53  1  0
 16 54  1  0
 18 55  1  0
 22 56  1  0
 23 57  1  0
 24 58  1  0
 30 59  1  0
 31 60  1  0
 32 61  1  0
 35 62  1  0
 36 63  1  0
 39 64  1  0
 41 65  1  0
 41 66  1  0
 42 67  1  0
 42 68  1  0
M  CHG  1   2   1
M  END
>  <meeko>  (7) 
{"is_sidechain": [false], "free_energy": -9.115, "intermolecular_energy": -12.476, "internal_energy": -1.2}

$$$$
LIB_PIGVLAUTQMIRBH__M_PUB_ALL__e8__s20260927
     RDKit          3D

 68 73  0  0  0  0  0  0  0  0999 V2000
   -4.0250  -10.6330   -0.6130 C   0  0  0  0  0  0  0  0  0  0  0  0
   -2.9230  -10.6490    0.3820 N   0  0  0  0  0  0  0  0  0  0  0  0
   -2.6160   -9.3030    1.0080 C   0  0  0  0  0  0  0  0  0  0  0  0
   -1.2760   -9.3560    1.7870 C   0  0  0  0  0  0  0  0  0  0  0  0
   -0.8510  -10.7410    2.0760 N   0  0  0  0  0  0  0  0  0  0  0  0
   -0.0010  -11.3140    1.1310 C   0  0  0  0  0  0  0  0  0  0  0  0
    0.3460  -12.6560    1.2310 C   0  0  0  0  0  0  0  0  0  0  0  0
    1.1490  -13.2310    0.2450 C   0  0  0  0  0  0  0  0  0  0  0  0
    1.5870  -12.4620   -0.8330 C   0  0  0  0  0  0  0  0  0  0  0  0
    2.4270  -13.0330   -1.8680 C   0  0  0  0  0  0  0  0  0  0  0  0
    2.0880  -13.4990   -3.1540 C   0  0  0  0  0  0  0  0  0  0  0  0
    3.1330  -13.9370   -3.8490 N   0  0  0  0  0  0  0  0  0  0  0  0
    4.1970  -13.7750   -3.0170 N   0  0  0  0  0  0  0  0  0  0  0  0
    5.5480  -14.0710   -3.2640 C   0  0  0  0  0  0  0  0  0  0  0  0
    5.9800  -14.6830   -4.5310 C   0  0  0  0  0  0  0  0  0  0  0  0
    6.5370  -13.8930   -5.5510 C   0  0  0  0  0  0  0  0  0  0  0  0
    6.9490  -14.4680   -6.7590 C   0  0  0  0  0  0  0  0  0  0  0  0
    7.5140  -13.7330   -7.8230 N   0  0  0  0  0  0  0  0  0  0  0  0
    6.9810  -13.5530   -9.0870 C   0  0  0  0  0  0  0  0  0  0  0  0
    5.8720  -13.9060   -9.4700 O   0  0  0  0  0  0  0  0  0  0  0  0
    7.8550  -12.8060  -10.0360 C   0  0  0  0  0  0  0  0  0  0  0  0
    7.4220  -11.5600  -10.5040 C   0  0  0  0  0  0  0  0  0  0  0  0
    8.2090  -10.8350  -11.3990 C   0  0  0  0  0  0  0  0  0  0  0  0
    9.4280  -11.3550  -11.8370 C   0  0  0  0  0  0  0  0  0  0  0  0
    9.8730  -12.6080  -11.3880 C   0  0  0  0  0  0  0  0  0  0  0  0
   11.1710  -13.1910  -11.8930 C   0  0  0  0  0  0  0  0  0  0  0  0
   11.1530  -13.4070  -13.2360 F   0  0  0  0  0  0  0  0  0  0  0  0
   12.2490  -12.3970  -11.6490 F   0  0  0  0  0  0  0  0  0  0  0  0
   11.4570  -14.3940  -11.3230 F   0  0  0  0  0  0  0  0  0  0  0  0
    9.0710  -13.3360  -10.4920 C   0  0  0  0  0  0  0  0  0  0  0  0
    6.7860  -15.8470   -6.9470 C   0  0  0  0  0  0  0  0  0  0  0  0
    6.2400  -16.6430   -5.9380 C   0  0  0  0  0  0  0  0  0  0  0  0
    5.8450  -16.0580   -4.7400 C   0  0  0  0  0  0  0  0  0  0  0  0
    5.3520  -16.8450   -3.7710 F   0  0  0  0  0  0  0  0  0  0  0  0
    6.4670  -13.8010   -2.3200 C   0  0  0  0  0  0  0  0  0  0  0  0
    5.9470  -13.1980   -1.0680 C   0  0  0  0  0  0  0  0  0  0  0  0
    4.7070  -12.9150   -0.8010 N   0  0  0  0  0  0  0  0  0  0  0  0
    3.8000  -13.2060   -1.7910 C   0  0  0  0  0  0  0  0  0  0  0  0
    1.1840  -11.1310   -0.8520 C   0  0  0  0  0  0  0  0  0  0  0  0
    0.3890  -10.5450    0.0880 N   0  0  0  0  0  0  0  0  0  0  0  0
   -1.9360  -11.6360    2.5080 C   0  0  0  0  0  0  0  0  0  0  0  0
   -3.0360  -11.7610    1.4180 C   0  0  0  0  0  0  0  0  0  0  0  0
   -4.9920  -10.6190   -0.0889 H   0  0  0  0  0  0  0  0  0  0  0  0
   -3.9366   -9.7360   -1.2436 H   0  0  0  0  0  0  0  0  0  0  0  0
   -3.9627  -11.5321   -1.2436 H   0  0  0  0  0  0  0  0  0  0  0  0
   -2.0360  -10.8730   -0.1230 H   0  0  0  0  0  0  0  0  0  0  0  0
   -2.5435   -8.5438    0.2153 H   0  0  0  0  0  0  0  0  0  0  0  0
   -3.4237   -9.0455    1.7090 H   0  0  0  0  0  0  0  0  0  0  0  0
   -0.4971   -8.8651    1.1851 H   0  0  0  0  0  0  0  0  0  0  0  0
   -1.4243   -8.8416    2.7479 H   0  0  0  0  0  0  0  0  0  0  0  0
   -0.0090  -13.2594    2.0795 H   0  0  0  0  0  0  0  0  0  0  0  0
    1.4364  -14.2903    0.3180 H   0  0  0  0  0  0  0  0  0  0  0  0
    1.0596  -13.5002   -3.5444 H   0  0  0  0  0  0  0  0  0  0  0  0
    6.6506  -12.8096   -5.3983 H   0  0  0  0  0  0  0  0  0  0  0  0
    8.3780  -13.2480   -7.6120 H   0  0  0  0  0  0  0  0  0  0  0  0
    6.4586  -11.1514  -10.1652 H   0  0  0  0  0  0  0  0  0  0  0  0
    7.8688   -9.8531  -11.7597 H   0  0  0  0  0  0  0  0  0  0  0  0
   10.0456  -10.7774  -12.5406 H   0  0  0  0  0  0  0  0  0  0  0  0
    9.3990  -14.3274  -10.1463 H   0  0  0  0  0  0  0  0  0  0  0  0
    7.0911  -16.3069   -7.8986 H   0  0  0  0  0  0  0  0  0  0  0  0
    6.1231  -17.7262   -6.0899 H   0  0  0  0  0  0  0  0  0  0  0  0
    7.5362  -14.0137   -2.4667 H   0  0  0  0  0  0  0  0  0  0  0  0
    6.6860  -12.9671   -0.2866 H   0  0  0  0  0  0  0  0  0  0  0  0
    1.5323  -10.5050   -1.6868 H   0  0  0  0  0  0  0  0  0  0  0  0
   -1.5181  -12.6331    2.7106 H   0  0  0  0  0  0  0  0  0  0  0  0
   -2.3935  -11.2128    3.4144 H   0  0  0  0  0  0  0  0  0  0  0  0
   -2.9303  -12.7325    0.9129 H   0  0  0  0  0  0  0  0  0  0  0  0
   -4.0180  -11.6793    1.9070 H   0  0  0  0  0  0  0  0  0  0  0  0
  1  2  1  0
  2  3  1  0
  3  4  1  0
  4  5  1  0
  5  6  1  0
  6  7  2  0
  7  8  1  0
  8  9  2  0
  9 10  1  0
 10 11  1  0
 11 12  2  0
 12 13  1  0
 13 14  1  0
 14 15  1  0
 15 16  2  0
 16 17  1  0
 17 18  1  0
 18 19  1  0
 19 20  2  0
 19 21  1  0
 21 22  2  0
 22 23  1  0
 23 24  2  0
 24 25  1  0
 25 26  1  0
 26 27  1  0
 26 28  1  0
 26 29  1  0
 25 30  2  0
 17 31  2  0
 31 32  1  0
 32 33  2  0
 33 34  1  0
 14 35  2  0
 35 36  1  0
 36 37  2  0
 37 38  1  0
  9 39  1  0
 39 40  2  0
  5 41  1  0
 41 42  1  0
 42  2  1  0
 40  6  1  0
 38 10  2  0
 38 13  1  0
 33 15  1  0
 30 21  1  0
  1 43  1  0
  1 44  1  0
  1 45  1  0
  2 46  1  0
  3 47  1  0
  3 48  1  0
  4 49  1  0
  4 50  1  0
  7 51  1  0
  8 52  1  0
 11 53  1  0
 16 54  1  0
 18 55  1  0
 22 56  1  0
 23 57  1  0
 24 58  1  0
 30 59  1  0
 31 60  1  0
 32 61  1  0
 35 62  1  0
 36 63  1  0
 39 64  1  0
 41 65  1  0
 41 66  1  0
 42 67  1  0
 42 68  1  0
M  CHG  1   2   1
M  END
>  <meeko>  (8) 
{"is_sidechain": [false], "free_energy": -9.112, "intermolecular_energy": -12.152, "internal_energy": -1.52}

$$$$
LIB_PIGVLAUTQMIRBH__M_PUB_ALL__e8__s20260927
     RDKit          3D

 68 73  0  0  0  0  0  0  0  0999 V2000
    6.7240  -14.0500   -3.0820 C   0  0  0  0  0  0  0  0  0  0  0  0
    5.4910  -13.4960   -3.6940 N   0  0  0  0  0  0  0  0  0  0  0  0
    5.5410  -12.0090   -3.9830 C   0  0  0  0  0  0  0  0  0  0  0  0
    4.1270  -11.4710   -4.3260 C   0  0  0  0  0  0  0  0  0  0  0  0
    3.1890  -12.5530   -4.6870 N   0  0  0  0  0  0  0  0  0  0  0  0
    2.4330  -13.0640   -3.6330 C   0  0  0  0  0  0  0  0  0  0  0  0
    1.4440  -14.0090   -3.8800 C   0  0  0  0  0  0  0  0  0  0  0  0
    0.7360  -14.5560   -2.8090 C   0  0  0  0  0  0  0  0  0  0  0  0
    1.0300  -14.1590   -1.5040 C   0  0  0  0  0  0  0  0  0  0  0  0
    0.3060  -14.7070   -0.3730 C   0  0  0  0  0  0  0  0  0  0  0  0
   -0.0850  -16.0340   -0.1060 C   0  0  0  0  0  0  0  0  0  0  0  0
   -0.7190  -16.1730    1.0540 N   0  0  0  0  0  0  0  0  0  0  0  0
   -0.7680  -14.9180    1.5770 N   0  0  0  0  0  0  0  0  0  0  0  0
   -1.3240  -14.5070    2.8000 C   0  0  0  0  0  0  0  0  0  0  0  0
   -2.0090  -15.4580    3.6910 C   0  0  0  0  0  0  0  0  0  0  0  0
   -3.4040  -15.4040    3.8540 C   0  0  0  0  0  0  0  0  0  0  0  0
   -4.0620  -16.3030    4.7010 C   0  0  0  0  0  0  0  0  0  0  0  0
   -5.4570  -16.3040    4.9110 N   0  0  0  0  0  0  0  0  0  0  0  0
   -6.1450  -15.6900    5.9420 C   0  0  0  0  0  0  0  0  0  0  0  0
   -5.6750  -14.9440    6.7920 O   0  0  0  0  0  0  0  0  0  0  0  0
   -7.6130  -15.9460    5.9570 C   0  0  0  0  0  0  0  0  0  0  0  0
   -8.2750  -16.1230    4.7360 C   0  0  0  0  0  0  0  0  0  0  0  0
   -9.6490  -16.3580    4.7100 C   0  0  0  0  0  0  0  0  0  0  0  0
  -10.3720  -16.4090    5.9030 C   0  0  0  0  0  0  0  0  0  0  0  0
   -9.7280  -16.2220    7.1360 C   0  0  0  0  0  0  0  0  0  0  0  0
  -10.5150  -16.2360    8.4250 C   0  0  0  0  0  0  0  0  0  0  0  0
  -10.8740  -14.9860    8.8250 F   0  0  0  0  0  0  0  0  0  0  0  0
  -11.6660  -16.9570    8.3470 F   0  0  0  0  0  0  0  0  0  0  0  0
   -9.8090  -16.7720    9.4590 F   0  0  0  0  0  0  0  0  0  0  0  0
   -8.3440  -15.9790    7.1540 C   0  0  0  0  0  0  0  0  0  0  0  0
   -3.3080  -17.2560    5.4000 C   0  0  0  0  0  0  0  0  0  0  0  0
   -1.9220  -17.3220    5.2410 C   0  0  0  0  0  0  0  0  0  0  0  0
   -1.2840  -16.4280    4.3880 C   0  0  0  0  0  0  0  0  0  0  0  0
    0.0440  -16.5290    4.2240 F   0  0  0  0  0  0  0  0  0  0  0  0
   -1.2390  -13.2140    3.1620 C   0  0  0  0  0  0  0  0  0  0  0  0
   -0.5460  -12.3190    2.2020 C   0  0  0  0  0  0  0  0  0  0  0  0
   -0.0260  -12.6620    1.0610 N   0  0  0  0  0  0  0  0  0  0  0  0
   -0.1330  -13.9910    0.7290 C   0  0  0  0  0  0  0  0  0  0  0  0
    2.0400  -13.2140   -1.3540 C   0  0  0  0  0  0  0  0  0  0  0  0
    2.7590  -12.6730   -2.3780 N   0  0  0  0  0  0  0  0  0  0  0  0
    3.7610  -13.5940   -5.5560 C   0  0  0  0  0  0  0  0  0  0  0  0
    4.9660  -14.3010   -4.8760 C   0  0  0  0  0  0  0  0  0  0  0  0
    6.6385  -14.0116   -1.9860 H   0  0  0  0  0  0  0  0  0  0  0  0
    6.8557  -15.0938   -3.4032 H   0  0  0  0  0  0  0  0  0  0  0  0
    7.5919  -13.4553   -3.4032 H   0  0  0  0  0  0  0  0  0  0  0  0
    4.7220  -13.5650   -2.9890 H   0  0  0  0  0  0  0  0  0  0  0  0
    5.9233  -11.4813   -3.0968 H   0  0  0  0  0  0  0  0  0  0  0  0
    6.2039  -11.8374   -4.8439 H   0  0  0  0  0  0  0  0  0  0  0  0
    3.7300  -10.9358   -3.4508 H   0  0  0  0  0  0  0  0  0  0  0  0
    4.2221  -10.8036   -5.1952 H   0  0  0  0  0  0  0  0  0  0  0  0
    1.2214  -14.3229   -4.9105 H   0  0  0  0  0  0  0  0  0  0  0  0
   -0.0533  -15.2996   -2.9934 H   0  0  0  0  0  0  0  0  0  0  0  0
    0.1147  -16.8721   -0.7899 H   0  0  0  0  0  0  0  0  0  0  0  0
   -3.9857  -14.6459    3.3092 H   0  0  0  0  0  0  0  0  0  0  0  0
   -6.0080  -16.7630    4.1960 H   0  0  0  0  0  0  0  0  0  0  0  0
   -7.7090  -16.0765    3.7939 H   0  0  0  0  0  0  0  0  0  0  0  0
  -10.1637  -16.5033    3.7488 H   0  0  0  0  0  0  0  0  0  0  0  0
  -11.4554  -16.5973    5.8766 H   0  0  0  0  0  0  0  0  0  0  0  0
   -7.8306  -15.8136    8.1127 H   0  0  0  0  0  0  0  0  0  0  0  0
   -3.8126  -17.9582    6.0799 H   0  0  0  0  0  0  0  0  0  0  0  0
   -1.3381  -18.0772    5.7876 H   0  0  0  0  0  0  0  0  0  0  0  0
   -1.6568  -12.8435    4.1097 H   0  0  0  0  0  0  0  0  0  0  0  0
   -0.4642  -11.2590    2.4843 H   0  0  0  0  0  0  0  0  0  0  0  0
    2.2759  -12.8785   -0.3333 H   0  0  0  0  0  0  0  0  0  0  0  0
    2.9852  -14.3420   -5.7768 H   0  0  0  0  0  0  0  0  0  0  0  0
    4.1168  -13.1161   -6.4807 H   0  0  0  0  0  0  0  0  0  0  0  0
    4.6451  -15.2911   -4.5199 H   0  0  0  0  0  0  0  0  0  0  0  0
    5.7742  -14.3943   -5.6164 H   0  0  0  0  0  0  0  0  0  0  0  0
  1  2  1  0
  2  3  1  0
  3  4  1  0
  4  5  1  0
  5  6  1  0
  6  7  2  0
  7  8  1  0
  8  9  2  0
  9 10  1  0
 10 11  1  0
 11 12  2  0
 12 13  1  0
 13 14  1  0
 14 15  1  0
 15 16  2  0
 16 17  1  0
 17 18  1  0
 18 19  1  0
 19 20  2  0
 19 21  1  0
 21 22  2  0
 22 23  1  0
 23 24  2  0
 24 25  1  0
 25 26  1  0
 26 27  1  0
 26 28  1  0
 26 29  1  0
 25 30  2  0
 17 31  2  0
 31 32  1  0
 32 33  2  0
 33 34  1  0
 14 35  2  0
 35 36  1  0
 36 37  2  0
 37 38  1  0
  9 39  1  0
 39 40  2  0
  5 41  1  0
 41 42  1  0
 42  2  1  0
 40  6  1  0
 38 10  2  0
 38 13  1  0
 33 15  1  0
 30 21  1  0
  1 43  1  0
  1 44  1  0
  1 45  1  0
  2 46  1  0
  3 47  1  0
  3 48  1  0
  4 49  1  0
  4 50  1  0
  7 51  1  0
  8 52  1  0
 11 53  1  0
 16 54  1  0
 18 55  1  0
 22 56  1  0
 23 57  1  0
 24 58  1  0
 30 59  1  0
 31 60  1  0
 32 61  1  0
 35 62  1  0
 36 63  1  0
 39 64  1  0
 41 65  1  0
 41 66  1  0
 42 67  1  0
 42 68  1  0
M  CHG  1   2   1
M  END
>  <meeko>  (9) 
{"is_sidechain": [false], "free_energy": -9.009, "intermolecular_energy": -12.179, "internal_energy": -1.354}

$$$$
