LIB_PYYBXMVTBWYBDY__M_PUB_ALL__e8__s20260927
     RDKit          3D

 79 83  0  0  0  0  0  0  0  0999 V2000
   12.4680  -11.1270    0.0920 C   0  0  0  0  0  0  0  0  0  0  0  0
   12.2660  -12.1770   -0.9630 C   0  0  0  0  0  0  0  0  0  0  0  0
   12.3930  -11.8740   -2.2680 C   0  0  0  0  0  0  0  0  0  0  0  0
   12.1430  -12.8260   -3.4070 C   0  0  1  0  0  0  0  0  0  0  0  0
   13.4570  -13.1390   -3.9080 O   0  0  0  0  0  0  0  0  0  0  0  0
   13.5230  -14.1800   -4.8890 C   0  0  2  0  0  0  0  0  0  0  0  0
   12.5580  -13.9220   -6.0470 C   0  0  0  0  0  0  0  0  0  0  0  0
   11.2350  -14.6000   -5.6080 C   0  0  1  0  0  0  0  0  0  0  0  0
   10.9790  -15.6390   -6.5780 O   0  0  0  0  0  0  0  0  0  0  0  0
    9.9630  -15.4320   -7.4450 C   0  0  0  0  0  0  0  0  0  0  0  0
    9.7740  -14.4570   -8.1510 O   0  0  0  0  0  0  0  0  0  0  0  0
    9.1040  -16.6280   -7.4190 C   0  0  0  0  0  0  0  0  0  0  0  0
    8.0380  -16.7320   -6.6120 C   0  0  0  0  0  0  0  0  0  0  0  0
    7.5450  -15.7090   -5.7160 C   0  0  0  0  0  0  0  0  0  0  0  0
    6.2380  -15.4610   -5.5310 C   0  0  0  0  0  0  0  0  0  0  0  0
    5.6940  -14.3760   -4.6400 C   0  0  2  0  0  0  0  0  0  0  0  0
    5.9190  -12.9770   -5.2690 C   0  0  1  0  0  0  0  0  0  0  0  0
    5.4550  -12.9320   -6.7200 C   0  0  0  0  0  0  0  0  0  0  0  0
    5.1800  -11.9780   -4.5510 O   0  0  0  0  0  0  0  0  0  0  0  0
    6.4190  -14.4190   -3.3950 O   0  0  0  0  0  0  0  0  0  0  0  0
    5.5560  -14.2510   -2.2540 C   0  0  0  0  0  0  0  0  0  0  0  0
    6.4480  -14.0210   -1.0220 C   0  0  2  0  0  0  0  0  0  0  0  0
    5.7590  -14.5160    0.1320 O   0  0  0  0  0  0  0  0  0  0  0  0
    6.8910  -12.5670   -0.7620 C   0  0  1  0  0  0  0  0  0  0  0  0
    6.7220  -12.1810    0.7100 C   0  0  0  0  0  0  0  0  0  0  0  0
    8.3280  -12.2740   -1.2260 C   0  0  0  0  0  0  0  0  0  0  0  0
    8.4030  -11.8340   -2.6720 C   0  0  0  0  0  0  0  0  0  0  0  0
    7.7400  -10.9260   -3.1560 O   0  0  0  0  0  0  0  0  0  0  0  0
    9.3850  -12.5190   -3.3240 O   0  0  0  0  0  0  0  0  0  0  0  0
    9.8290  -13.7430   -2.7310 C   0  0  0  0  0  0  0  0  0  0  0  0
   11.3250  -14.0980   -3.0060 C   0  0  2  0  0  0  0  0  0  0  0  0
   11.9130  -14.6020   -1.6440 C   0  0  0  0  0  0  0  0  0  0  0  0
   11.8710  -13.5610   -0.5100 C   0  0  1  0  0  0  0  0  0  0  0  0
   12.7520  -14.0260    0.5080 O   0  0  0  0  0  0  0  0  0  0  0  0
   11.4980  -15.2010   -4.1640 C   0  0  1  0  0  0  0  0  0  0  0  0
   10.6860  -16.4750   -3.9040 C   0  0  0  0  0  0  0  0  0  0  0  0
   12.9930  -15.4320   -4.2810 C   0  0  2  0  0  0  0  0  0  0  0  0
   13.8340  -16.4800   -3.5880 C   0  0  0  0  0  0  0  0  0  0  0  0
   13.4000  -16.6420   -4.9440 O   0  0  0  0  0  0  0  0  0  0  0  0
   12.3797  -11.5860    1.0878 H   0  0  0  0  0  0  0  0  0  0  0  0
   13.4681  -10.6827   -0.0196 H   0  0  0  0  0  0  0  0  0  0  0  0
   11.7041  -10.3434   -0.0196 H   0  0  0  0  0  0  0  0  0  0  0  0
   12.7040  -10.8500   -2.5225 H   0  0  0  0  0  0  0  0  0  0  0  0
   11.5023  -12.3670   -4.1744 H   0  0  0  0  0  0  0  0  0  0  0  0
   14.5677  -14.2357   -5.2289 H   0  0  0  0  0  0  0  0  0  0  0  0
   12.4105  -12.8423   -6.1970 H   0  0  0  0  0  0  0  0  0  0  0  0
   12.9345  -14.3184   -7.0015 H   0  0  0  0  0  0  0  0  0  0  0  0
   10.3704  -13.9214   -5.5624 H   0  0  0  0  0  0  0  0  0  0  0  0
    9.3460  -17.4679   -8.0869 H   0  0  0  0  0  0  0  0  0  0  0  0
    7.4872  -17.6839   -6.6334 H   0  0  0  0  0  0  0  0  0  0  0  0
    8.2762  -15.1047   -5.1590 H   0  0  0  0  0  0  0  0  0  0  0  0
    5.5155  -16.0939   -6.0672 H   0  0  0  0  0  0  0  0  0  0  0  0
    4.6155  -14.5384   -4.4971 H   0  0  0  0  0  0  0  0  0  0  0  0
    6.9998  -12.7789   -5.2174 H   0  0  0  0  0  0  0  0  0  0  0  0
    4.3606  -12.8259   -6.7519 H   0  0  0  0  0  0  0  0  0  0  0  0
    5.9215  -12.0749   -7.2277 H   0  0  0  0  0  0  0  0  0  0  0  0
    5.7481  -13.8628   -7.2277 H   0  0  0  0  0  0  0  0  0  0  0  0
    4.8580  -12.4260   -3.7450 H   0  0  0  0  0  0  0  0  0  0  0  0
    4.8976  -13.3832   -2.4069 H   0  0  0  0  0  0  0  0  0  0  0  0
    4.9267  -15.1421   -2.1127 H   0  0  0  0  0  0  0  0  0  0  0  0
    7.3826  -14.5619   -1.2315 H   0  0  0  0  0  0  0  0  0  0  0  0
    4.8940  -14.0600    0.1210 H   0  0  0  0  0  0  0  0  0  0  0  0
    6.2225  -11.9436   -1.3739 H   0  0  0  0  0  0  0  0  0  0  0  0
    7.0814  -13.0019    1.3479 H   0  0  0  0  0  0  0  0  0  0  0  0
    7.3043  -11.2717    0.9198 H   0  0  0  0  0  0  0  0  0  0  0  0
    5.6588  -11.9921    0.9198 H   0  0  0  0  0  0  0  0  0  0  0  0
    8.7446  -11.4756   -0.5944 H   0  0  0  0  0  0  0  0  0  0  0  0
    8.9005  -13.2089   -1.1359 H   0  0  0  0  0  0  0  0  0  0  0  0
    9.6898  -13.6664   -1.6425 H   0  0  0  0  0  0  0  0  0  0  0  0
    9.2308  -14.5444   -3.1892 H   0  0  0  0  0  0  0  0  0  0  0  0
   11.3359  -15.4824   -1.3247 H   0  0  0  0  0  0  0  0  0  0  0  0
   12.9744  -14.8279   -1.8242 H   0  0  0  0  0  0  0  0  0  0  0  0
   10.8383  -13.4640   -0.1437 H   0  0  0  0  0  0  0  0  0  0  0  0
   12.2920  -14.7290    0.9940 H   0  0  0  0  0  0  0  0  0  0  0  0
   10.5863  -16.6314   -2.8197 H   0  0  0  0  0  0  0  0  0  0  0  0
    9.6871  -16.3712   -4.3528 H   0  0  0  0  0  0  0  0  0  0  0  0
   11.2019  -17.3366   -4.3528 H   0  0  0  0  0  0  0  0  0  0  0  0
   14.8928  -16.2824   -3.3647 H   0  0  0  0  0  0  0  0  0  0  0  0
   13.7542  -17.0663   -2.6607 H   0  0  0  0  0  0  0  0  0  0  0  0
  1  2  1  0
  2  3  2  0
  3  4  1  0
  4  5  1  0
  5  6  1  0
  6  7  1  0
  7  8  1  0
  8  9  1  0
  9 10  1  0
 10 11  2  0
 10 12  1  0
 12 13  2  0
 13 14  1  0
 14 15  2  0
 15 16  1  0
 16 17  1  0
 17 18  1  0
 17 19  1  0
 16 20  1  0
 20 21  1  0
 21 22  1  0
 22 23  1  0
 22 24  1  0
 24 25  1  0
 24 26  1  0
 26 27  1  0
 27 28  2  0
 27 29  1  0
 29 30  1  0
 31 30  1  1
 31 32  1  0
 32 33  1  0
 33 34  1  0
 31 35  1  0
 35 36  1  1
 35 37  1  0
 37 38  1  0
 38 39  1  0
 33  2  1  0
 37 39  1  6
 31  4  1  0
 37  6  1  0
 35  8  1  0
  1 40  1  0
  1 41  1  0
  1 42  1  0
  3 43  1  0
  4 44  1  6
  6 45  1  6
  7 46  1  0
  7 47  1  0
  8 48  1  1
 12 49  1  0
 13 50  1  0
 14 51  1  0
 15 52  1  0
 16 53  1  1
 17 54  1  6
 18 55  1  0
 18 56  1  0
 18 57  1  0
 19 58  1  0
 21 59  1  0
 21 60  1  0
 22 61  1  6
 23 62  1  0
 24 63  1  6
 25 64  1  0
 25 65  1  0
 25 66  1  0
 26 67  1  0
 26 68  1  0
 30 69  1  0
 30 70  1  0
 32 71  1  0
 32 72  1  0
 33 73  1  1
 34 74  1  0
 36 75  1  0
 36 76  1  0
 36 77  1  0
 38 78  1  0
 38 79  1  0
M  END
>  <meeko>  (1) 
{"is_sidechain": [false], "free_energy": -5.651, "intermolecular_energy": -10.772, "internal_energy": -3.213}

$$$$
LIB_PYYBXMVTBWYBDY__M_PUB_ALL__e8__s20260927
     RDKit          3D

 79 83  0  0  0  0  0  0  0  0999 V2000
   11.2140  -11.5690    0.6190 C   0  0  0  0  0  0  0  0  0  0  0  0
   11.1880  -12.6760   -0.3960 C   0  0  0  0  0  0  0  0  0  0  0  0
   10.6170  -12.4900   -1.6010 C   0  0  0  0  0  0  0  0  0  0  0  0
   10.4710  -13.5470   -2.6630 C   0  0  1  0  0  0  0  0  0  0  0  0
   11.4380  -13.1840   -3.6670 O   0  0  0  0  0  0  0  0  0  0  0  0
   11.6400  -14.1360   -4.7170 C   0  0  2  0  0  0  0  0  0  0  0  0
   10.3180  -14.5400   -5.3710 C   0  0  0  0  0  0  0  0  0  0  0  0
    9.8290  -15.7550   -4.5420 C   0  0  1  0  0  0  0  0  0  0  0  0
    9.7890  -16.8710   -5.4580 O   0  0  0  0  0  0  0  0  0  0  0  0
    8.5730  -17.2500   -5.9090 C   0  0  0  0  0  0  0  0  0  0  0  0
    8.1290  -17.1360   -7.0390 O   0  0  0  0  0  0  0  0  0  0  0  0
    7.8530  -17.8680   -4.7830 C   0  0  0  0  0  0  0  0  0  0  0  0
    6.6180  -17.4890   -4.4220 C   0  0  0  0  0  0  0  0  0  0  0  0
    5.8050  -16.4940   -5.0850 C   0  0  0  0  0  0  0  0  0  0  0  0
    5.5890  -15.2670   -4.5830 C   0  0  0  0  0  0  0  0  0  0  0  0
    4.7140  -14.2250   -5.2280 C   0  0  2  0  0  0  0  0  0  0  0  0
    5.4850  -13.4570   -6.3320 C   0  0  1  0  0  0  0  0  0  0  0  0
    4.8430  -12.1060   -6.6280 C   0  0  0  0  0  0  0  0  0  0  0  0
    6.8360  -13.2090   -5.9210 O   0  0  0  0  0  0  0  0  0  0  0  0
    4.3350  -13.2730   -4.2140 O   0  0  0  0  0  0  0  0  0  0  0  0
    4.7510  -13.6820   -2.8970 C   0  0  0  0  0  0  0  0  0  0  0  0
    5.3170  -12.4450   -2.1670 C   0  0  2  0  0  0  0  0  0  0  0  0
    4.8550  -11.2570   -2.8220 O   0  0  0  0  0  0  0  0  0  0  0  0
    6.8530  -12.3890   -2.0440 C   0  0  1  0  0  0  0  0  0  0  0  0
    7.4100  -11.0470   -2.5250 C   0  0  0  0  0  0  0  0  0  0  0  0
    7.3640  -12.7000   -0.6270 C   0  0  0  0  0  0  0  0  0  0  0  0
    7.6250  -14.1740   -0.4030 C   0  0  0  0  0  0  0  0  0  0  0  0
    7.2520  -14.8030    0.5780 O   0  0  0  0  0  0  0  0  0  0  0  0
    8.2380  -14.7160   -1.4940 O   0  0  0  0  0  0  0  0  0  0  0  0
    9.4430  -15.4540   -1.2640 C   0  0  0  0  0  0  0  0  0  0  0  0
   10.6580  -15.0090   -2.1370 C   0  0  2  0  0  0  0  0  0  0  0  0
   11.9000  -14.9890   -1.1800 C   0  0  0  0  0  0  0  0  0  0  0  0
   11.7760  -14.0070   -0.0000 C   0  0  1  0  0  0  0  0  0  0  0  0
   13.0860  -13.8380    0.5340 O   0  0  0  0  0  0  0  0  0  0  0  0
   10.9040  -15.9770   -3.3970 C   0  0  1  0  0  0  0  0  0  0  0  0
   11.0430  -17.4510   -3.0020 C   0  0  0  0  0  0  0  0  0  0  0  0
   12.1180  -15.4100   -4.1100 C   0  0  2  0  0  0  0  0  0  0  0  0
   13.5710  -15.7900   -3.9300 C   0  0  0  0  0  0  0  0  0  0  0  0
   12.7910  -16.2950   -5.0220 O   0  0  0  0  0  0  0  0  0  0  0  0
   11.2039  -11.9994    1.6313 H   0  0  0  0  0  0  0  0  0  0  0  0
   12.1265  -10.9696    0.4845 H   0  0  0  0  0  0  0  0  0  0  0  0
   10.3307  -10.9274    0.4845 H   0  0  0  0  0  0  0  0  0  0  0  0
   10.2265  -11.4869   -1.8273 H   0  0  0  0  0  0  0  0  0  0  0  0
    9.4457  -13.5700   -3.0609 H   0  0  0  0  0  0  0  0  0  0  0  0
   12.3323  -13.6767   -5.4380 H   0  0  0  0  0  0  0  0  0  0  0  0
    9.5910  -13.7161   -5.3190 H   0  0  0  0  0  0  0  0  0  0  0  0
   10.4362  -14.7822   -6.4375 H   0  0  0  0  0  0  0  0  0  0  0  0
    8.8381  -15.6228   -4.0831 H   0  0  0  0  0  0  0  0  0  0  0  0
    8.3468  -18.6711   -4.2163 H   0  0  0  0  0  0  0  0  0  0  0  0
    6.1833  -17.9810   -3.5394 H   0  0  0  0  0  0  0  0  0  0  0  0
    5.3407  -16.7546   -6.0475 H   0  0  0  0  0  0  0  0  0  0  0  0
    6.0849  -15.0056   -3.6366 H   0  0  0  0  0  0  0  0  0  0  0  0
    3.8411  -14.7214   -5.6771 H   0  0  0  0  0  0  0  0  0  0  0  0
    5.4583  -14.0878   -7.2327 H   0  0  0  0  0  0  0  0  0  0  0  0
    4.6022  -11.5993   -5.6818 H   0  0  0  0  0  0  0  0  0  0  0  0
    5.5430  -11.4866   -7.2079 H   0  0  0  0  0  0  0  0  0  0  0  0
    3.9206  -12.2575   -7.2079 H   0  0  0  0  0  0  0  0  0  0  0  0
    6.8080  -12.3590   -5.4410 H   0  0  0  0  0  0  0  0  0  0  0  0
    3.8898  -14.0813   -2.3412 H   0  0  0  0  0  0  0  0  0  0  0  0
    5.5179  -14.4675   -2.9664 H   0  0  0  0  0  0  0  0  0  0  0  0
    4.9441  -12.5227   -1.1350 H   0  0  0  0  0  0  0  0  0  0  0  0
    5.0830  -11.3870   -3.7630 H   0  0  0  0  0  0  0  0  0  0  0  0
    7.2278  -13.1864   -2.7026 H   0  0  0  0  0  0  0  0  0  0  0  0
    7.6684  -10.4245   -1.6557 H   0  0  0  0  0  0  0  0  0  0  0  0
    8.3105  -11.2203   -3.1325 H   0  0  0  0  0  0  0  0  0  0  0  0
    6.6514  -10.5317   -3.1325 H   0  0  0  0  0  0  0  0  0  0  0  0
    8.3020  -12.1491   -0.4638 H   0  0  0  0  0  0  0  0  0  0  0  0
    6.5795  -12.3934    0.0805 H   0  0  0  0  0  0  0  0  0  0  0  0
    9.7201  -15.3363   -0.2060 H   0  0  0  0  0  0  0  0  0  0  0  0
    9.2265  -16.4961   -1.5417 H   0  0  0  0  0  0  0  0  0  0  0  0
   12.0371  -16.0015   -0.7725 H   0  0  0  0  0  0  0  0  0  0  0  0
   12.7560  -14.6507   -1.7823 H   0  0  0  0  0  0  0  0  0  0  0  0
   11.0809  -14.4213    0.7451 H   0  0  0  0  0  0  0  0  0  0  0  0
   13.7170  -13.9840   -0.1880 H   0  0  0  0  0  0  0  0  0  0  0  0
   11.0512  -17.5375   -1.9054 H   0  0  0  0  0  0  0  0  0  0  0  0
   10.1946  -18.0211   -3.4085 H   0  0  0  0  0  0  0  0  0  0  0  0
   11.9830  -17.8525   -3.4085 H   0  0  0  0  0  0  0  0  0  0  0  0
   14.3643  -15.0497   -4.1109 H   0  0  0  0  0  0  0  0  0  0  0  0
   14.1754  -16.2313   -3.1238 H   0  0  0  0  0  0  0  0  0  0  0  0
  1  2  1  0
  2  3  2  0
  3  4  1  0
  4  5  1  0
  5  6  1  0
  6  7  1  0
  7  8  1  0
  8  9  1  0
  9 10  1  0
 10 11  2  0
 10 12  1  0
 12 13  2  0
 13 14  1  0
 14 15  2  0
 15 16  1  0
 16 17  1  0
 17 18  1  0
 17 19  1  0
 16 20  1  0
 20 21  1  0
 21 22  1  0
 22 23  1  0
 22 24  1  0
 24 25  1  0
 24 26  1  0
 26 27  1  0
 27 28  2  0
 27 29  1  0
 29 30  1  0
 31 30  1  1
 31 32  1  0
 32 33  1  0
 33 34  1  0
 31 35  1  0
 35 36  1  1
 35 37  1  0
 37 38  1  0
 38 39  1  0
 33  2  1  0
 37 39  1  6
 31  4  1  0
 37  6  1  0
 35  8  1  0
  1 40  1  0
  1 41  1  0
  1 42  1  0
  3 43  1  0
  4 44  1  6
  6 45  1  6
  7 46  1  0
  7 47  1  0
  8 48  1  1
 12 49  1  0
 13 50  1  0
 14 51  1  0
 15 52  1  0
 16 53  1  6
 17 54  1  6
 18 55  1  0
 18 56  1  0
 18 57  1  0
 19 58  1  0
 21 59  1  0
 21 60  1  0
 22 61  1  1
 23 62  1  0
 24 63  1  6
 25 64  1  0
 25 65  1  0
 25 66  1  0
 26 67  1  0
 26 68  1  0
 30 69  1  0
 30 70  1  0
 32 71  1  0
 32 72  1  0
 33 73  1  1
 34 74  1  0
 36 75  1  0
 36 76  1  0
 36 77  1  0
 38 78  1  0
 38 79  1  0
M  END
>  <meeko>  (2) 
{"is_sidechain": [false], "free_energy": -5.39, "intermolecular_energy": -10.575, "internal_energy": -2.912}

$$$$
LIB_PYYBXMVTBWYBDY__M_PUB_ALL__e8__s20260927
     RDKit          3D

 79 83  0  0  0  0  0  0  0  0999 V2000
    2.6840  -10.4370   -3.8050 C   0  0  0  0  0  0  0  0  0  0  0  0
    2.9330  -11.5340   -2.8090 C   0  0  0  0  0  0  0  0  0  0  0  0
    2.0380  -12.5260   -2.6410 C   0  0  0  0  0  0  0  0  0  0  0  0
    2.1500  -13.6310   -1.6250 C   0  0  1  0  0  0  0  0  0  0  0  0
    2.4850  -14.7980   -2.4010 O   0  0  0  0  0  0  0  0  0  0  0  0
    2.8360  -15.9690   -1.6540 C   0  0  2  0  0  0  0  0  0  0  0  0
    1.7700  -16.3090   -0.6120 C   0  0  0  0  0  0  0  0  0  0  0  0
    2.2030  -15.5310    0.6570 C   0  0  1  0  0  0  0  0  0  0  0  0
    2.4730  -16.5300    1.6640 O   0  0  0  0  0  0  0  0  0  0  0  0
    1.4040  -17.1030    2.2600 C   0  0  0  0  0  0  0  0  0  0  0  0
    0.5270  -17.7680    1.7380 O   0  0  0  0  0  0  0  0  0  0  0  0
    1.4860  -16.8060    3.7010 C   0  0  0  0  0  0  0  0  0  0  0  0
    0.8690  -15.7530    4.2560 C   0  0  0  0  0  0  0  0  0  0  0  0
    0.0120  -14.8100    3.5720 C   0  0  0  0  0  0  0  0  0  0  0  0
   -1.2680  -15.0720    3.2610 C   0  0  0  0  0  0  0  0  0  0  0  0
   -2.1720  -14.1290    2.5120 C   0  0  2  0  0  0  0  0  0  0  0  0
   -2.7330  -14.7980    1.2310 C   0  0  1  0  0  0  0  0  0  0  0  0
   -1.8790  -14.4770    0.0100 C   0  0  0  0  0  0  0  0  0  0  0  0
   -2.7530  -16.2250    1.3770 O   0  0  0  0  0  0  0  0  0  0  0  0
   -1.3880  -12.9900    2.1040 O   0  0  0  0  0  0  0  0  0  0  0  0
   -1.5880  -11.8520    2.9640 C   0  0  0  0  0  0  0  0  0  0  0  0
   -1.5460  -10.5990    2.0650 C   0  0  2  0  0  0  0  0  0  0  0  0
   -2.6050   -9.7210    2.4650 O   0  0  0  0  0  0  0  0  0  0  0  0
   -1.6610  -10.8710    0.5510 C   0  0  1  0  0  0  0  0  0  0  0  0
   -2.9330  -10.2560   -0.0380 C   0  0  0  0  0  0  0  0  0  0  0  0
   -0.4290  -10.4130   -0.2470 C   0  0  0  0  0  0  0  0  0  0  0  0
    0.8730  -10.6530    0.4850 C   0  0  0  0  0  0  0  0  0  0  0  0
    1.4510   -9.8160    1.1650 O   0  0  0  0  0  0  0  0  0  0  0  0
    1.2490  -11.9590    0.3640 O   0  0  0  0  0  0  0  0  0  0  0  0
    2.6440  -12.2490    0.4960 C   0  0  0  0  0  0  0  0  0  0  0  0
    3.1790  -13.3430   -0.4810 C   0  0  2  0  0  0  0  0  0  0  0  0
    4.4540  -12.7370   -1.1620 C   0  0  0  0  0  0  0  0  0  0  0  0
    4.1900  -11.4580   -1.9780 C   0  0  1  0  0  0  0  0  0  0  0  0
    5.3290  -11.2570   -2.8090 O   0  0  0  0  0  0  0  0  0  0  0  0
    3.5140  -14.7290    0.2630 C   0  0  1  0  0  0  0  0  0  0  0  0
    4.4730  -14.5570    1.4470 C   0  0  0  0  0  0  0  0  0  0  0  0
    4.0310  -15.6550   -0.8230 C   0  0  2  0  0  0  0  0  0  0  0  0
    5.4640  -15.8940   -1.2440 C   0  0  0  0  0  0  0  0  0  0  0  0
    4.7730  -16.8050   -0.3790 O   0  0  0  0  0  0  0  0  0  0  0  0
    2.4711   -9.4988   -3.2716 H   0  0  0  0  0  0  0  0  0  0  0  0
    3.5752  -10.3057   -4.4363 H   0  0  0  0  0  0  0  0  0  0  0  0
    1.8235  -10.7033   -4.4363 H   0  0  0  0  0  0  0  0  0  0  0  0
    1.1557  -12.5291   -3.2979 H   0  0  0  0  0  0  0  0  0  0  0  0
    1.2095  -13.7558   -1.0683 H   0  0  0  0  0  0  0  0  0  0  0  0
    2.9771  -16.7834   -2.3798 H   0  0  0  0  0  0  0  0  0  0  0  0
    0.7768  -15.9787   -0.9502 H   0  0  0  0  0  0  0  0  0  0  0  0
    1.6922  -17.3914   -0.4320 H   0  0  0  0  0  0  0  0  0  0  0  0
    1.4498  -14.8247    1.0362 H   0  0  0  0  0  0  0  0  0  0  0  0
    2.0760  -17.4738    4.3460 H   0  0  0  0  0  0  0  0  0  0  0  0
    1.0296  -15.5912    5.3321 H   0  0  0  0  0  0  0  0  0  0  0  0
    0.4286  -13.8309    3.2930 H   0  0  0  0  0  0  0  0  0  0  0  0
   -1.6841  -16.0408    3.5746 H   0  0  0  0  0  0  0  0  0  0  0  0
   -3.0085  -13.8427    3.1664 H   0  0  0  0  0  0  0  0  0  0  0  0
   -3.7498  -14.4033    1.0888 H   0  0  0  0  0  0  0  0  0  0  0  0
   -0.8959  -14.1075    0.3370 H   0  0  0  0  0  0  0  0  0  0  0  0
   -1.7464  -15.3866   -0.5941 H   0  0  0  0  0  0  0  0  0  0  0  0
   -2.3784  -13.7052   -0.5941 H   0  0  0  0  0  0  0  0  0  0  0  0
   -3.6300  -16.5050    1.0500 H   0  0  0  0  0  0  0  0  0  0  0  0
   -2.5637  -11.9245    3.4668 H   0  0  0  0  0  0  0  0  0  0  0  0
   -0.8119  -11.8049    3.7421 H   0  0  0  0  0  0  0  0  0  0  0  0
   -0.5500  -10.1541    2.2066 H   0  0  0  0  0  0  0  0  0  0  0  0
   -2.6750   -9.0690    1.7400 H   0  0  0  0  0  0  0  0  0  0  0  0
   -1.7170  -11.9653    0.4539 H   0  0  0  0  0  0  0  0  0  0  0  0
   -3.5970   -9.9350    0.7782 H   0  0  0  0  0  0  0  0  0  0  0  0
   -2.6671   -9.3869   -0.6577 H   0  0  0  0  0  0  0  0  0  0  0  0
   -3.4490  -11.0041   -0.6577 H   0  0  0  0  0  0  0  0  0  0  0  0
   -0.4029  -10.9645   -1.1984 H   0  0  0  0  0  0  0  0  0  0  0  0
   -0.5232   -9.3282   -0.4032 H   0  0  0  0  0  0  0  0  0  0  0  0
    3.2056  -11.3212    0.3120 H   0  0  0  0  0  0  0  0  0  0  0  0
    2.7837  -12.6455    1.5125 H   0  0  0  0  0  0  0  0  0  0  0  0
    5.1845  -12.4987   -0.3749 H   0  0  0  0  0  0  0  0  0  0  0  0
    4.8211  -13.4930   -1.8717 H   0  0  0  0  0  0  0  0  0  0  0  0
    4.0327  -10.6149   -1.2892 H   0  0  0  0  0  0  0  0  0  0  0  0
    5.8200  -12.0930   -2.8400 H   0  0  0  0  0  0  0  0  0  0  0  0
    3.9141  -14.6572    2.3891 H   0  0  0  0  0  0  0  0  0  0  0  0
    5.2550  -15.3292    1.4006 H   0  0  0  0  0  0  0  0  0  0  0  0
    4.9379  -13.5611    1.4006 H   0  0  0  0  0  0  0  0  0  0  0  0
    5.6969  -16.1817   -2.2799 H   0  0  0  0  0  0  0  0  0  0  0  0
    6.4036  -15.3238   -1.1977 H   0  0  0  0  0  0  0  0  0  0  0  0
  1  2  1  0
  2  3  2  0
  3  4  1  0
  4  5  1  0
  5  6  1  0
  6  7  1  0
  7  8  1  0
  8  9  1  0
  9 10  1  0
 10 11  2  0
 10 12  1  0
 12 13  2  0
 13 14  1  0
 14 15  2  0
 15 16  1  0
 16 17  1  0
 17 18  1  0
 17 19  1  0
 16 20  1  0
 20 21  1  0
 21 22  1  0
 22 23  1  0
 22 24  1  0
 24 25  1  0
 24 26  1  0
 26 27  1  0
 27 28  2  0
 27 29  1  0
 29 30  1  0
 31 30  1  1
 31 32  1  0
 32 33  1  0
 33 34  1  0
 31 35  1  0
 35 36  1  1
 35 37  1  0
 37 38  1  0
 38 39  1  0
 33  2  1  0
 37 39  1  1
 31  4  1  0
 37  6  1  0
 35  8  1  0
  1 40  1  0
  1 41  1  0
  1 42  1  0
  3 43  1  0
  4 44  1  1
  6 45  1  6
  7 46  1  0
  7 47  1  0
  8 48  1  1
 12 49  1  0
 13 50  1  0
 14 51  1  0
 15 52  1  0
 16 53  1  1
 17 54  1  6
 18 55  1  0
 18 56  1  0
 18 57  1  0
 19 58  1  0
 21 59  1  0
 21 60  1  0
 22 61  1  6
 23 62  1  0
 24 63  1  1
 25 64  1  0
 25 65  1  0
 25 66  1  0
 26 67  1  0
 26 68  1  0
 30 69  1  0
 30 70  1  0
 32 71  1  0
 32 72  1  0
 33 73  1  1
 34 74  1  0
 36 75  1  0
 36 76  1  0
 36 77  1  0
 38 78  1  0
 38 79  1  0
M  END
>  <meeko>  (3) 
{"is_sidechain": [false], "free_energy": -5.312, "intermolecular_energy": -10.921, "internal_energy": -2.418}

$$$$
LIB_PYYBXMVTBWYBDY__M_PUB_ALL__e8__s20260927
     RDKit          3D

 79 83  0  0  0  0  0  0  0  0999 V2000
   14.4510  -14.8520   -6.1510 C   0  0  0  0  0  0  0  0  0  0  0  0
   13.4900  -14.5470   -5.0360 C   0  0  0  0  0  0  0  0  0  0  0  0
   12.8200  -15.5370   -4.4170 C   0  0  0  0  0  0  0  0  0  0  0  0
   11.7850  -15.3420   -3.3420 C   0  0  1  0  0  0  0  0  0  0  0  0
   12.4410  -15.7610   -2.1300 O   0  0  0  0  0  0  0  0  0  0  0  0
   11.7350  -15.5030   -0.9120 C   0  0  2  0  0  0  0  0  0  0  0  0
   10.3090  -16.0520   -0.9630 C   0  0  0  0  0  0  0  0  0  0  0  0
    9.4650  -14.8890   -1.5450 C   0  0  1  0  0  0  0  0  0  0  0  0
    8.5170  -14.5310   -0.5150 O   0  0  0  0  0  0  0  0  0  0  0  0
    7.2320  -14.9010   -0.7100 C   0  0  0  0  0  0  0  0  0  0  0  0
    6.8180  -15.8330   -1.3780 O   0  0  0  0  0  0  0  0  0  0  0  0
    6.3810  -13.9810    0.0640 C   0  0  0  0  0  0  0  0  0  0  0  0
    5.8630  -12.8630   -0.4630 C   0  0  0  0  0  0  0  0  0  0  0  0
    6.0000  -12.4250   -1.8350 C   0  0  0  0  0  0  0  0  0  0  0  0
    5.1630  -12.8040   -2.8140 C   0  0  0  0  0  0  0  0  0  0  0  0
    5.3040  -12.4010   -4.2580 C   0  0  2  0  0  0  0  0  0  0  0  0
    3.9170  -12.2710   -4.9370 C   0  0  1  0  0  0  0  0  0  0  0  0
    2.7860  -12.6000   -3.9700 C   0  0  0  0  0  0  0  0  0  0  0  0
    3.7080  -10.9290   -5.4010 O   0  0  0  0  0  0  0  0  0  0  0  0
    6.0310  -13.4420   -4.9410 O   0  0  0  0  0  0  0  0  0  0  0  0
    5.6400  -14.7580   -4.5060 C   0  0  0  0  0  0  0  0  0  0  0  0
    6.0330  -15.7680   -5.6120 C   0  0  2  0  0  0  0  0  0  0  0  0
    5.2110  -16.9310   -5.4610 O   0  0  0  0  0  0  0  0  0  0  0  0
    7.5150  -16.1950   -5.6350 C   0  0  1  0  0  0  0  0  0  0  0  0
    7.6620  -17.7190   -5.6670 C   0  0  0  0  0  0  0  0  0  0  0  0
    8.3160  -15.5580   -6.7830 C   0  0  0  0  0  0  0  0  0  0  0  0
    9.6000  -14.9070   -6.3170 C   0  0  0  0  0  0  0  0  0  0  0  0
   10.5010  -14.5420   -7.0600 O   0  0  0  0  0  0  0  0  0  0  0  0
    9.5590  -14.6900   -4.9710 O   0  0  0  0  0  0  0  0  0  0  0  0
   10.2910  -13.5670   -4.4700 C   0  0  0  0  0  0  0  0  0  0  0  0
   11.2220  -13.8840   -3.2570 C   0  0  2  0  0  0  0  0  0  0  0  0
   12.4500  -12.9180   -3.3840 C   0  0  0  0  0  0  0  0  0  0  0  0
   13.2700  -13.1000   -4.6740 C   0  0  1  0  0  0  0  0  0  0  0  0
   14.5150  -12.4390   -4.4670 O   0  0  0  0  0  0  0  0  0  0  0  0
   10.4790  -13.7060   -1.8420 C   0  0  1  0  0  0  0  0  0  0  0  0
    9.8340  -12.3260   -1.6730 C   0  0  0  0  0  0  0  0  0  0  0  0
   11.5260  -14.0330   -0.7930 C   0  0  2  0  0  0  0  0  0  0  0  0
   12.4550  -13.0830   -0.0720 C   0  0  0  0  0  0  0  0  0  0  0  0
   11.2550  -13.5700    0.5420 O   0  0  0  0  0  0  0  0  0  0  0  0
   15.4186  -15.1591   -5.7274 H   0  0  0  0  0  0  0  0  0  0  0  0
   14.0471  -15.6661   -6.7708 H   0  0  0  0  0  0  0  0  0  0  0  0
   14.5905  -13.9540   -6.7708 H   0  0  0  0  0  0  0  0  0  0  0  0
   13.0468  -16.5696   -4.7208 H   0  0  0  0  0  0  0  0  0  0  0  0
   10.8805  -15.9320   -3.5514 H   0  0  0  0  0  0  0  0  0  0  0  0
   12.3212  -15.9555   -0.0986 H   0  0  0  0  0  0  0  0  0  0  0  0
   10.2558  -16.9356   -1.6161 H   0  0  0  0  0  0  0  0  0  0  0  0
    9.9500  -16.3752    0.0253 H   0  0  0  0  0  0  0  0  0  0  0  0
    8.9237  -15.1388   -2.4694 H   0  0  0  0  0  0  0  0  0  0  0  0
    6.1623  -14.2209    1.1150 H   0  0  0  0  0  0  0  0  0  0  0  0
    5.2792  -12.2182    0.2104 H   0  0  0  0  0  0  0  0  0  0  0  0
    6.8299  -11.7489   -2.0883 H   0  0  0  0  0  0  0  0  0  0  0  0
    4.3171  -13.4528   -2.5429 H   0  0  0  0  0  0  0  0  0  0  0  0
    5.8222  -11.4320   -4.3084 H   0  0  0  0  0  0  0  0  0  0  0  0
    3.9089  -12.9823   -5.7761 H   0  0  0  0  0  0  0  0  0  0  0  0
    3.1458  -12.4953   -2.9358 H   0  0  0  0  0  0  0  0  0  0  0  0
    1.9471  -11.9087   -4.1381 H   0  0  0  0  0  0  0  0  0  0  0  0
    2.4488  -13.6335   -4.1381 H   0  0  0  0  0  0  0  0  0  0  0  0
    4.2560  -10.3680   -4.8210 H   0  0  0  0  0  0  0  0  0  0  0  0
    6.1588  -15.0104   -3.5694 H   0  0  0  0  0  0  0  0  0  0  0  0
    4.5553  -14.7930   -4.3266 H   0  0  0  0  0  0  0  0  0  0  0  0
    5.8748  -15.2489   -6.5688 H   0  0  0  0  0  0  0  0  0  0  0  0
    5.3260  -17.1980   -4.5270 H   0  0  0  0  0  0  0  0  0  0  0  0
    7.9443  -15.8155   -4.6960 H   0  0  0  0  0  0  0  0  0  0  0  0
    7.6993  -18.1055   -4.6378 H   0  0  0  0  0  0  0  0  0  0  0  0
    6.8022  -18.1593   -6.1931 H   0  0  0  0  0  0  0  0  0  0  0  0
    8.5902  -17.9869   -6.1931 H   0  0  0  0  0  0  0  0  0  0  0  0
    8.5652  -16.3416   -7.5137 H   0  0  0  0  0  0  0  0  0  0  0  0
    7.6885  -14.7698   -7.2247 H   0  0  0  0  0  0  0  0  0  0  0  0
   10.9139  -13.1722   -5.2861 H   0  0  0  0  0  0  0  0  0  0  0  0
    9.5439  -12.8453   -4.1082 H   0  0  0  0  0  0  0  0  0  0  0  0
   12.0783  -11.8831   -3.3555 H   0  0  0  0  0  0  0  0  0  0  0  0
   13.1237  -13.1542   -2.5472 H   0  0  0  0  0  0  0  0  0  0  0  0
   12.7150  -12.6699   -5.5208 H   0  0  0  0  0  0  0  0  0  0  0  0
   14.3230  -11.5130   -4.2550 H   0  0  0  0  0  0  0  0  0  0  0  0
    9.7281  -12.0995   -0.6018 H   0  0  0  0  0  0  0  0  0  0  0  0
   10.4691  -11.5638   -2.1480 H   0  0  0  0  0  0  0  0  0  0  0  0
    8.8418  -12.3243   -2.1480 H   0  0  0  0  0  0  0  0  0  0  0  0
   13.4379  -13.4293    0.2802 H   0  0  0  0  0  0  0  0  0  0  0  0
   12.8858  -12.0928   -0.2817 H   0  0  0  0  0  0  0  0  0  0  0  0
  1  2  1  0
  2  3  2  0
  3  4  1  0
  4  5  1  0
  5  6  1  0
  6  7  1  0
  7  8  1  0
  8  9  1  0
  9 10  1  0
 10 11  2  0
 10 12  1  0
 12 13  2  0
 13 14  1  0
 14 15  2  0
 15 16  1  0
 16 17  1  0
 17 18  1  0
 17 19  1  0
 16 20  1  0
 20 21  1  0
 21 22  1  0
 22 23  1  0
 22 24  1  0
 24 25  1  0
 24 26  1  0
 26 27  1  0
 27 28  2  0
 27 29  1  0
 29 30  1  0
 31 30  1  6
 31 32  1  0
 32 33  1  0
 33 34  1  0
 31 35  1  0
 35 36  1  1
 35 37  1  0
 37 38  1  0
 38 39  1  0
 33  2  1  0
 37 39  1  1
 31  4  1  0
 37  6  1  0
 35  8  1  0
  1 40  1  0
  1 41  1  0
  1 42  1  0
  3 43  1  0
  4 44  1  6
  6 45  1  1
  7 46  1  0
  7 47  1  0
  8 48  1  6
 12 49  1  0
 13 50  1  0
 14 51  1  0
 15 52  1  0
 16 53  1  1
 17 54  1  6
 18 55  1  0
 18 56  1  0
 18 57  1  0
 19 58  1  0
 21 59  1  0
 21 60  1  0
 22 61  1  6
 23 62  1  0
 24 63  1  1
 25 64  1  0
 25 65  1  0
 25 66  1  0
 26 67  1  0
 26 68  1  0
 30 69  1  0
 30 70  1  0
 32 71  1  0
 32 72  1  0
 33 73  1  6
 34 74  1  0
 36 75  1  0
 36 76  1  0
 36 77  1  0
 38 78  1  0
 38 79  1  0
M  END
>  <meeko>  (4) 
{"is_sidechain": [false], "free_energy": -5.298, "intermolecular_energy": -10.602, "internal_energy": -2.708}

$$$$
LIB_PYYBXMVTBWYBDY__M_PUB_ALL__e8__s20260927
     RDKit          3D

 79 83  0  0  0  0  0  0  0  0999 V2000
   -1.7970  -10.4980    2.0780 C   0  0  0  0  0  0  0  0  0  0  0  0
   -1.4060  -11.9110    1.7490 C   0  0  0  0  0  0  0  0  0  0  0  0
   -0.3350  -12.4810    2.3340 C   0  0  0  0  0  0  0  0  0  0  0  0
    0.1880  -13.8590    2.0270 C   0  0  1  0  0  0  0  0  0  0  0  0
   -0.1810  -14.6470    3.1760 O   0  0  0  0  0  0  0  0  0  0  0  0
    0.0370  -16.0580    3.0650 C   0  0  2  0  0  0  0  0  0  0  0  0
    1.4720  -16.3730    2.6400 C   0  0  0  0  0  0  0  0  0  0  0  0
    1.4240  -16.3920    1.0910 C   0  0  1  0  0  0  0  0  0  0  0  0
    1.7810  -17.7350    0.6980 O   0  0  0  0  0  0  0  0  0  0  0  0
    2.8790  -17.8750   -0.0770 C   0  0  0  0  0  0  0  0  0  0  0  0
    2.9580  -17.7540   -1.2880 O   0  0  0  0  0  0  0  0  0  0  0  0
    4.0140  -18.1810    0.8100 C   0  0  0  0  0  0  0  0  0  0  0  0
    5.0060  -17.3080    1.0400 C   0  0  0  0  0  0  0  0  0  0  0  0
    5.0900  -15.9600    0.5220 C   0  0  0  0  0  0  0  0  0  0  0  0
    6.2430  -15.2760    0.4390 C   0  0  0  0  0  0  0  0  0  0  0  0
    6.3570  -13.8580   -0.0550 C   0  0  2  0  0  0  0  0  0  0  0  0
    6.5090  -12.8680    1.1280 C   0  0  1  0  0  0  0  0  0  0  0  0
    5.1740  -12.2350    1.5050 C   0  0  0  0  0  0  0  0  0  0  0  0
    7.0040  -13.5470    2.2910 O   0  0  0  0  0  0  0  0  0  0  0  0
    5.1370  -13.5280   -0.7480 O   0  0  0  0  0  0  0  0  0  0  0  0
    5.3840  -12.9550   -2.0460 C   0  0  0  0  0  0  0  0  0  0  0  0
    4.0490  -12.8770   -2.8070 C   0  0  2  0  0  0  0  0  0  0  0  0
    4.3020  -13.1480   -4.1910 O   0  0  0  0  0  0  0  0  0  0  0  0
    3.2710  -11.5510   -2.6850 C   0  0  1  0  0  0  0  0  0  0  0  0
    3.2510  -10.7850   -4.0110 C   0  0  0  0  0  0  0  0  0  0  0  0
    1.8390  -11.7300   -2.1520 C   0  0  0  0  0  0  0  0  0  0  0  0
    1.7830  -11.8760   -0.6470 C   0  0  0  0  0  0  0  0  0  0  0  0
    1.8070  -10.9400    0.1410 O   0  0  0  0  0  0  0  0  0  0  0  0
    1.5950  -13.1830   -0.3060 O   0  0  0  0  0  0  0  0  0  0  0  0
    0.2990  -13.7390   -0.5470 C   0  0  0  0  0  0  0  0  0  0  0  0
   -0.3430  -14.4570    0.6820 C   0  0  2  0  0  0  0  0  0  0  0  0
   -1.8770  -14.1420    0.6210 C   0  0  0  0  0  0  0  0  0  0  0  0
   -2.2210  -12.6440    0.7130 C   0  0  1  0  0  0  0  0  0  0  0  0
   -3.6110  -12.5580    1.0150 O   0  0  0  0  0  0  0  0  0  0  0  0
   -0.0700  -16.0420    0.6860 C   0  0  1  0  0  0  0  0  0  0  0  0
   -0.4980  -16.7270   -0.6170 C   0  0  0  0  0  0  0  0  0  0  0  0
   -0.7720  -16.5700    1.9230 C   0  0  2  0  0  0  0  0  0  0  0  0
   -2.1740  -17.1260    2.0380 C   0  0  0  0  0  0  0  0  0  0  0  0
   -1.0290  -17.9840    1.9550 O   0  0  0  0  0  0  0  0  0  0  0  0
   -1.8319  -10.3720    3.1702 H   0  0  0  0  0  0  0  0  0  0  0  0
   -1.0571   -9.8042    1.6523 H   0  0  0  0  0  0  0  0  0  0  0  0
   -2.7883  -10.2833    1.6523 H   0  0  0  0  0  0  0  0  0  0  0  0
    0.1992  -11.8939    3.0955 H   0  0  0  0  0  0  0  0  0  0  0  0
    1.2757  -13.8433    1.8637 H   0  0  0  0  0  0  0  0  0  0  0  0
   -0.2089  -16.4986    4.0424 H   0  0  0  0  0  0  0  0  0  0  0  0
    2.1628  -15.5954    2.9979 H   0  0  0  0  0  0  0  0  0  0  0  0
    1.8324  -17.3243    3.0585 H   0  0  0  0  0  0  0  0  0  0  0  0
    2.1047  -15.6765    0.6065 H   0  0  0  0  0  0  0  0  0  0  0  0
    4.0497  -19.1637    1.3031 H   0  0  0  0  0  0  0  0  0  0  0  0
    5.8319  -17.6486    1.6818 H   0  0  0  0  0  0  0  0  0  0  0  0
    4.1656  -15.4718    0.1798 H   0  0  0  0  0  0  0  0  0  0  0  0
    7.1658  -15.7858    0.7529 H   0  0  0  0  0  0  0  0  0  0  0  0
    7.2386  -13.7788   -0.7081 H   0  0  0  0  0  0  0  0  0  0  0  0
    7.2120  -12.0887    0.7985 H   0  0  0  0  0  0  0  0  0  0  0  0
    5.0847  -12.1926    2.6005 H   0  0  0  0  0  0  0  0  0  0  0  0
    5.1219  -11.2163    1.0932 H   0  0  0  0  0  0  0  0  0  0  0  0
    4.3523  -12.8394    1.0932 H   0  0  0  0  0  0  0  0  0  0  0  0
    6.2570  -14.0880    2.6120 H   0  0  0  0  0  0  0  0  0  0  0  0
    5.8056  -11.9454   -1.9319 H   0  0  0  0  0  0  0  0  0  0  0  0
    6.0996  -13.5776   -2.6030 H   0  0  0  0  0  0  0  0  0  0  0  0
    3.3971  -13.6258   -2.3333 H   0  0  0  0  0  0  0  0  0  0  0  0
    5.1500  -12.7020   -4.3810 H   0  0  0  0  0  0  0  0  0  0  0  0
    3.8191  -10.9573   -1.9385 H   0  0  0  0  0  0  0  0  0  0  0  0
    3.2228   -9.7040   -3.8096 H   0  0  0  0  0  0  0  0  0  0  0  0
    4.1558  -11.0270   -4.5879 H   0  0  0  0  0  0  0  0  0  0  0  0
    2.3601  -11.0739   -4.5879 H   0  0  0  0  0  0  0  0  0  0  0  0
    1.2447  -10.8508   -2.4414 H   0  0  0  0  0  0  0  0  0  0  0  0
    1.4388  -12.6573   -2.5880 H   0  0  0  0  0  0  0  0  0  0  0  0
   -0.3715  -12.9235   -0.8558 H   0  0  0  0  0  0  0  0  0  0  0  0
    0.4308  -14.5086   -1.3218 H   0  0  0  0  0  0  0  0  0  0  0  0
   -2.2702  -14.5278   -0.3311 H   0  0  0  0  0  0  0  0  0  0  0  0
   -2.3324  -14.6240    1.4987 H   0  0  0  0  0  0  0  0  0  0  0  0
   -1.9797  -12.1577   -0.2437 H   0  0  0  0  0  0  0  0  0  0  0  0
   -3.7040  -12.6040    1.9800 H   0  0  0  0  0  0  0  0  0  0  0  0
   -1.0674  -17.6384   -0.3822 H   0  0  0  0  0  0  0  0  0  0  0  0
   -1.1285  -16.0411   -1.2019 H   0  0  0  0  0  0  0  0  0  0  0  0
    0.3949  -16.9930   -1.2019 H   0  0  0  0  0  0  0  0  0  0  0  0
   -2.7311  -17.0345    2.9821 H   0  0  0  0  0  0  0  0  0  0  0  0
   -3.1146  -17.0119    1.4793 H   0  0  0  0  0  0  0  0  0  0  0  0
  1  2  1  0
  2  3  2  0
  3  4  1  0
  4  5  1  0
  5  6  1  0
  6  7  1  0
  7  8  1  0
  8  9  1  0
  9 10  1  0
 10 11  2  0
 10 12  1  0
 12 13  2  0
 13 14  1  0
 14 15  2  0
 15 16  1  0
 16 17  1  0
 17 18  1  0
 17 19  1  0
 16 20  1  0
 20 21  1  0
 21 22  1  0
 22 23  1  0
 22 24  1  0
 24 25  1  0
 24 26  1  0
 26 27  1  0
 27 28  2  0
 27 29  1  0
 29 30  1  0
 31 30  1  6
 31 32  1  0
 32 33  1  0
 33 34  1  0
 31 35  1  0
 35 36  1  6
 35 37  1  0
 37 38  1  0
 38 39  1  0
 33  2  1  0
 37 39  1  6
 31  4  1  0
 37  6  1  0
 35  8  1  0
  1 40  1  0
  1 41  1  0
  1 42  1  0
  3 43  1  0
  4 44  1  6
  6 45  1  1
  7 46  1  0
  7 47  1  0
  8 48  1  6
 12 49  1  0
 13 50  1  0
 14 51  1  0
 15 52  1  0
 16 53  1  6
 17 54  1  6
 18 55  1  0
 18 56  1  0
 18 57  1  0
 19 58  1  0
 21 59  1  0
 21 60  1  0
 22 61  1  1
 23 62  1  0
 24 63  1  1
 25 64  1  0
 25 65  1  0
 25 66  1  0
 26 67  1  0
 26 68  1  0
 30 69  1  0
 30 70  1  0
 32 71  1  0
 32 72  1  0
 33 73  1  6
 34 74  1  0
 36 75  1  0
 36 76  1  0
 36 77  1  0
 38 78  1  0
 38 79  1  0
M  END
>  <meeko>  (5) 
{"is_sidechain": [false], "free_energy": -5.231, "intermolecular_energy": -10.543, "internal_energy": -2.64}

$$$$
LIB_PYYBXMVTBWYBDY__M_PUB_ALL__e8__s20260927
     RDKit          3D

 79 83  0  0  0  0  0  0  0  0999 V2000
   13.0370  -11.0120   -0.0580 C   0  0  0  0  0  0  0  0  0  0  0  0
   12.3620  -12.0770   -0.8770 C   0  0  0  0  0  0  0  0  0  0  0  0
   12.0810  -11.8690   -2.1770 C   0  0  0  0  0  0  0  0  0  0  0  0
   11.3460  -12.8340   -3.0690 C   0  0  1  0  0  0  0  0  0  0  0  0
   12.3660  -13.3700   -3.9340 O   0  0  0  0  0  0  0  0  0  0  0  0
   11.9680  -14.4620   -4.7710 C   0  0  2  0  0  0  0  0  0  0  0  0
   10.7110  -14.1250   -5.5730 C   0  0  0  0  0  0  0  0  0  0  0  0
    9.5380  -14.5680   -4.6620 C   0  0  1  0  0  0  0  0  0  0  0  0
    8.8440  -15.6090   -5.3850 O   0  0  0  0  0  0  0  0  0  0  0  0
    7.7670  -15.2360   -6.1110 C   0  0  0  0  0  0  0  0  0  0  0  0
    7.6600  -14.2650   -6.8410 O   0  0  0  0  0  0  0  0  0  0  0  0
    6.7130  -16.2410   -5.8940 C   0  0  0  0  0  0  0  0  0  0  0  0
    5.6770  -16.0330   -5.0670 C   0  0  0  0  0  0  0  0  0  0  0  0
    5.4070  -14.8180   -4.3310 C   0  0  0  0  0  0  0  0  0  0  0  0
    4.1680  -14.4180   -4.0020 C   0  0  0  0  0  0  0  0  0  0  0  0
    3.8510  -13.1380   -3.2750 C   0  0  2  0  0  0  0  0  0  0  0  0
    4.4190  -11.9120   -4.0340 C   0  0  1  0  0  0  0  0  0  0  0  0
    3.4080  -10.7720   -4.0950 C   0  0  0  0  0  0  0  0  0  0  0  0
    5.5910  -11.4120   -3.3760 O   0  0  0  0  0  0  0  0  0  0  0  0
    4.4910  -13.1900   -1.9840 O   0  0  0  0  0  0  0  0  0  0  0  0
    3.7940  -12.4080   -0.9960 C   0  0  0  0  0  0  0  0  0  0  0  0
    4.5910  -12.5120    0.3320 C   0  0  2  0  0  0  0  0  0  0  0  0
    3.9240  -11.6910    1.2990 O   0  0  0  0  0  0  0  0  0  0  0  0
    6.0840  -12.1290    0.2880 C   0  0  1  0  0  0  0  0  0  0  0  0
    6.3580  -10.8360    1.0600 C   0  0  0  0  0  0  0  0  0  0  0  0
    7.0170  -13.2490    0.7780 C   0  0  0  0  0  0  0  0  0  0  0  0
    7.4530  -14.1830   -0.3300 C   0  0  0  0  0  0  0  0  0  0  0  0
    6.6870  -14.8220   -1.0390 O   0  0  0  0  0  0  0  0  0  0  0  0
    8.8060  -14.1250   -0.4920 O   0  0  0  0  0  0  0  0  0  0  0  0
    9.2980  -13.3490   -1.5890 C   0  0  0  0  0  0  0  0  0  0  0  0
   10.5570  -13.9420   -2.2960 C   0  0  2  0  0  0  0  0  0  0  0  0
   11.5000  -14.4540   -1.1530 C   0  0  0  0  0  0  0  0  0  0  0  0
   11.9720  -13.3570   -0.1810 C   0  0  1  0  0  0  0  0  0  0  0  0
   13.0780  -13.8940    0.5390 O   0  0  0  0  0  0  0  0  0  0  0  0
   10.1920  -15.1210   -3.3270 C   0  0  1  0  0  0  0  0  0  0  0  0
    9.3620  -16.2400   -2.6890 C   0  0  0  0  0  0  0  0  0  0  0  0
   11.5200  -15.5830   -3.8980 C   0  0  2  0  0  0  0  0  0  0  0  0
   12.4070  -16.7070   -3.4110 C   0  0  0  0  0  0  0  0  0  0  0  0
   11.5260  -16.8760   -4.5290 O   0  0  0  0  0  0  0  0  0  0  0  0
   12.8992  -11.2294    1.0115 H   0  0  0  0  0  0  0  0  0  0  0  0
   14.1114  -10.9945   -0.2931 H   0  0  0  0  0  0  0  0  0  0  0  0
   12.5942  -10.0329   -0.2931 H   0  0  0  0  0  0  0  0  0  0  0  0
   12.4144  -10.9200   -2.6223 H   0  0  0  0  0  0  0  0  0  0  0  0
   10.5474  -12.3268   -3.6302 H   0  0  0  0  0  0  0  0  0  0  0  0
   12.8222  -14.6949   -5.4237 H   0  0  0  0  0  0  0  0  0  0  0  0
   10.6581  -13.0454   -5.7773 H   0  0  0  0  0  0  0  0  0  0  0  0
   10.6926  -14.6268   -6.5517 H   0  0  0  0  0  0  0  0  0  0  0  0
    8.8310  -13.7642   -4.4091 H   0  0  0  0  0  0  0  0  0  0  0  0
    6.7774  -17.1992   -6.4305 H   0  0  0  0  0  0  0  0  0  0  0  0
    4.9676  -16.8635   -4.9369 H   0  0  0  0  0  0  0  0  0  0  0  0
    6.2577  -14.1910   -4.0258 H   0  0  0  0  0  0  0  0  0  0  0  0
    3.3275  -15.0697   -4.2827 H   0  0  0  0  0  0  0  0  0  0  0  0
    2.7588  -13.0363   -3.1924 H   0  0  0  0  0  0  0  0  0  0  0  0
    4.6568  -12.2539   -5.0521 H   0  0  0  0  0  0  0  0  0  0  0  0
    3.1374  -10.4669   -3.0734 H   0  0  0  0  0  0  0  0  0  0  0  0
    3.8506   -9.9175   -4.6278 H   0  0  0  0  0  0  0  0  0  0  0  0
    2.5067  -11.1093   -4.6278 H   0  0  0  0  0  0  0  0  0  0  0  0
    6.1430  -12.1980   -3.2000 H   0  0  0  0  0  0  0  0  0  0  0  0
    3.7389  -11.3580   -1.3192 H   0  0  0  0  0  0  0  0  0  0  0  0
    2.7680  -12.7811   -0.8612 H   0  0  0  0  0  0  0  0  0  0  0  0
    4.6038  -13.5826    0.5843 H   0  0  0  0  0  0  0  0  0  0  0  0
    3.1720  -12.2320    1.6090 H   0  0  0  0  0  0  0  0  0  0  0  0
    6.3120  -11.9642   -0.7754 H   0  0  0  0  0  0  0  0  0  0  0  0
    6.3152  -11.0380    2.1405 H   0  0  0  0  0  0  0  0  0  0  0  0
    7.3565  -10.4566    0.7972 H   0  0  0  0  0  0  0  0  0  0  0  0
    5.5992  -10.0842    0.7972 H   0  0  0  0  0  0  0  0  0  0  0  0
    7.9126  -12.7899    1.2220 H   0  0  0  0  0  0  0  0  0  0  0  0
    6.4558  -13.8474    1.5108 H   0  0  0  0  0  0  0  0  0  0  0  0
    8.4946  -13.2634   -2.3355 H   0  0  0  0  0  0  0  0  0  0  0  0
    9.6053  -12.3795   -1.1700 H   0  0  0  0  0  0  0  0  0  0  0  0
   10.9576  -15.2164   -0.5747 H   0  0  0  0  0  0  0  0  0  0  0  0
   12.4019  -14.8499   -1.6428 H   0  0  0  0  0  0  0  0  0  0  0  0
   11.1428  -13.0830    0.4878 H   0  0  0  0  0  0  0  0  0  0  0  0
   13.5960  -13.1470    0.8790 H   0  0  0  0  0  0  0  0  0  0  0  0
    9.4206  -16.1609   -1.5934 H   0  0  0  0  0  0  0  0  0  0  0  0
    8.3134  -16.1461   -3.0078 H   0  0  0  0  0  0  0  0  0  0  0  0
    9.7561  -17.2162   -3.0078 H   0  0  0  0  0  0  0  0  0  0  0  0
   13.4952  -16.6608   -3.5647 H   0  0  0  0  0  0  0  0  0  0  0  0
   12.5704  -17.2219   -2.4528 H   0  0  0  0  0  0  0  0  0  0  0  0
  1  2  1  0
  2  3  2  0
  3  4  1  0
  4  5  1  0
  5  6  1  0
  6  7  1  0
  7  8  1  0
  8  9  1  0
  9 10  1  0
 10 11  2  0
 10 12  1  0
 12 13  2  0
 13 14  1  0
 14 15  2  0
 15 16  1  0
 16 17  1  0
 17 18  1  0
 17 19  1  0
 16 20  1  0
 20 21  1  0
 21 22  1  0
 22 23  1  0
 22 24  1  0
 24 25  1  0
 24 26  1  0
 26 27  1  0
 27 28  2  0
 27 29  1  0
 29 30  1  0
 31 30  1  1
 31 32  1  0
 32 33  1  0
 33 34  1  0
 31 35  1  0
 35 36  1  1
 35 37  1  0
 37 38  1  0
 38 39  1  0
 33  2  1  0
 37 39  1  6
 31  4  1  0
 37  6  1  0
 35  8  1  0
  1 40  1  0
  1 41  1  0
  1 42  1  0
  3 43  1  0
  4 44  1  6
  6 45  1  6
  7 46  1  0
  7 47  1  0
  8 48  1  1
 12 49  1  0
 13 50  1  0
 14 51  1  0
 15 52  1  0
 16 53  1  1
 17 54  1  6
 18 55  1  0
 18 56  1  0
 18 57  1  0
 19 58  1  0
 21 59  1  0
 21 60  1  0
 22 61  1  1
 23 62  1  0
 24 63  1  6
 25 64  1  0
 25 65  1  0
 25 66  1  0
 26 67  1  0
 26 68  1  0
 30 69  1  0
 30 70  1  0
 32 71  1  0
 32 72  1  0
 33 73  1  1
 34 74  1  0
 36 75  1  0
 36 76  1  0
 36 77  1  0
 38 78  1  0
 38 79  1  0
M  END
>  <meeko>  (6) 
{"is_sidechain": [false], "free_energy": -5.194, "intermolecular_energy": -11.488, "internal_energy": -1.625}

$$$$
LIB_PYYBXMVTBWYBDY__M_PUB_ALL__e8__s20260927
     RDKit          3D

 79 83  0  0  0  0  0  0  0  0999 V2000
    3.0830  -19.4660    2.0560 C   0  0  0  0  0  0  0  0  0  0  0  0
    2.3520  -18.1620    1.9060 C   0  0  0  0  0  0  0  0  0  0  0  0
    2.3740  -17.4920    0.7380 C   0  0  0  0  0  0  0  0  0  0  0  0
    1.7410  -16.1480    0.4980 C   0  0  1  0  0  0  0  0  0  0  0  0
    0.5840  -16.4350   -0.3110 O   0  0  0  0  0  0  0  0  0  0  0  0
   -0.3140  -15.3420   -0.5330 C   0  0  2  0  0  0  0  0  0  0  0  0
    0.4210  -14.1140   -1.0720 C   0  0  0  0  0  0  0  0  0  0  0  0
    0.8510  -13.3310    0.1950 C   0  0  1  0  0  0  0  0  0  0  0  0
    0.1720  -12.0580    0.1260 O   0  0  0  0  0  0  0  0  0  0  0  0
    0.9480  -10.9520    0.0890 C   0  0  0  0  0  0  0  0  0  0  0  0
    1.7680  -10.5890    0.9150 O   0  0  0  0  0  0  0  0  0  0  0  0
    0.6520  -10.2430   -1.1670 C   0  0  0  0  0  0  0  0  0  0  0  0
    1.4580  -10.3040   -2.2370 C   0  0  0  0  0  0  0  0  0  0  0  0
    2.6680  -11.0890   -2.3470 C   0  0  0  0  0  0  0  0  0  0  0  0
    2.8310  -12.0640   -3.2570 C   0  0  0  0  0  0  0  0  0  0  0  0
    4.0600  -12.9270   -3.3690 C   0  0  2  0  0  0  0  0  0  0  0  0
    3.7970  -14.1520   -4.2810 C   0  0  1  0  0  0  0  0  0  0  0  0
    4.9240  -14.3530   -5.2890 C   0  0  0  0  0  0  0  0  0  0  0  0
    3.7030  -15.3510   -3.4990 O   0  0  0  0  0  0  0  0  0  0  0  0
    4.3780  -13.4210   -2.0520 O   0  0  0  0  0  0  0  0  0  0  0  0
    5.6790  -12.9940   -1.6080 C   0  0  0  0  0  0  0  0  0  0  0  0
    6.3730  -14.1980   -0.9410 C   0  0  2  0  0  0  0  0  0  0  0  0
    7.0970  -14.9030   -1.9560 O   0  0  0  0  0  0  0  0  0  0  0  0
    5.4610  -15.1890   -0.1890 C   0  0  1  0  0  0  0  0  0  0  0  0
    5.6040  -16.6120   -0.7350 C   0  0  0  0  0  0  0  0  0  0  0  0
    5.6740  -15.1800    1.3340 C   0  0  0  0  0  0  0  0  0  0  0  0
    4.8920  -14.0890    2.0340 C   0  0  0  0  0  0  0  0  0  0  0  0
    5.3880  -13.2370    2.7580 O   0  0  0  0  0  0  0  0  0  0  0  0
    3.5830  -14.1310    1.6560 O   0  0  0  0  0  0  0  0  0  0  0  0
    2.6810  -14.8390    2.5120 C   0  0  0  0  0  0  0  0  0  0  0  0
    1.3910  -15.3660    1.8080 C   0  0  2  0  0  0  0  0  0  0  0  0
    0.7460  -16.4010    2.7930 C   0  0  0  0  0  0  0  0  0  0  0  0
    1.6400  -17.6120    3.1160 C   0  0  1  0  0  0  0  0  0  0  0  0
    0.7970  -18.6030    3.6960 O   0  0  0  0  0  0  0  0  0  0  0  0
    0.3610  -14.1880    1.4370 C   0  0  1  0  0  0  0  0  0  0  0  0
   -0.0080  -13.3140    2.6420 C   0  0  0  0  0  0  0  0  0  0  0  0
   -0.8240  -14.8770    0.7860 C   0  0  2  0  0  0  0  0  0  0  0  0
   -2.0990  -15.3630    1.4400 C   0  0  0  0  0  0  0  0  0  0  0  0
   -2.0460  -14.1210    0.7260 O   0  0  0  0  0  0  0  0  0  0  0  0
    3.2108  -19.6939    3.1245 H   0  0  0  0  0  0  0  0  0  0  0  0
    2.5033  -20.2686    1.5767 H   0  0  0  0  0  0  0  0  0  0  0  0
    4.0702  -19.3902    1.5767 H   0  0  0  0  0  0  0  0  0  0  0  0
    2.8958  -17.9644   -0.1073 H   0  0  0  0  0  0  0  0  0  0  0  0
    2.4407  -15.4637   -0.0040 H   0  0  0  0  0  0  0  0  0  0  0  0
   -1.0876  -15.6979   -1.2293 H   0  0  0  0  0  0  0  0  0  0  0  0
    1.3005  -14.4146   -1.6603 H   0  0  0  0  0  0  0  0  0  0  0  0
   -0.2087  -13.5108   -1.7425 H   0  0  0  0  0  0  0  0  0  0  0  0
    1.9348  -13.1628    0.2794 H   0  0  0  0  0  0  0  0  0  0  0  0
   -0.2658   -9.6399   -1.2301 H   0  0  0  0  0  0  0  0  0  0  0  0
    1.1726   -9.7014   -3.1119 H   0  0  0  0  0  0  0  0  0  0  0  0
    3.4943  -10.8776   -1.6523 H   0  0  0  0  0  0  0  0  0  0  0  0
    2.0114  -12.2440   -3.9682 H   0  0  0  0  0  0  0  0  0  0  0  0
    4.8782  -12.3283   -3.7957 H   0  0  0  0  0  0  0  0  0  0  0  0
    2.8533  -13.9538   -4.8102 H   0  0  0  0  0  0  0  0  0  0  0  0
    5.8696  -14.5217   -4.7529 H   0  0  0  0  0  0  0  0  0  0  0  0
    4.6999  -15.2253   -5.9205 H   0  0  0  0  0  0  0  0  0  0  0  0
    5.0153  -13.4570   -5.9205 H   0  0  0  0  0  0  0  0  0  0  0  0
    3.4150  -16.0440   -4.1240 H   0  0  0  0  0  0  0  0  0  0  0  0
    6.2727  -12.6501   -2.4678 H   0  0  0  0  0  0  0  0  0  0  0  0
    5.5854  -12.1627   -0.8937 H   0  0  0  0  0  0  0  0  0  0  0  0
    7.0163  -13.7736   -0.1562 H   0  0  0  0  0  0  0  0  0  0  0  0
    7.6630  -14.2250   -2.3750 H   0  0  0  0  0  0  0  0  0  0  0  0
    4.4345  -14.8383   -0.3713 H   0  0  0  0  0  0  0  0  0  0  0  0
    5.6752  -17.3209    0.1031 H   0  0  0  0  0  0  0  0  0  0  0  0
    4.7261  -16.8586   -1.3502 H   0  0  0  0  0  0  0  0  0  0  0  0
    6.5134  -16.6790   -1.3502 H   0  0  0  0  0  0  0  0  0  0  0  0
    5.3571  -16.1528    1.7380 H   0  0  0  0  0  0  0  0  0  0  0  0
    6.7417  -14.9880    1.5159 H   0  0  0  0  0  0  0  0  0  0  0  0
    3.2166  -15.7013    2.9358 H   0  0  0  0  0  0  0  0  0  0  0  0
    2.3470  -14.1196    3.2741 H   0  0  0  0  0  0  0  0  0  0  0  0
    0.5155  -15.8822    3.7352 H   0  0  0  0  0  0  0  0  0  0  0  0
   -0.1498  -16.7962    2.2917 H   0  0  0  0  0  0  0  0  0  0  0  0
    2.4381  -17.2999    3.8056 H   0  0  0  0  0  0  0  0  0  0  0  0
    0.3970  -18.2180    4.4910 H   0  0  0  0  0  0  0  0  0  0  0  0
    0.2207  -13.8557    3.5716 H   0  0  0  0  0  0  0  0  0  0  0  0
    0.5727  -12.3804    2.6093 H   0  0  0  0  0  0  0  0  0  0  0  0
   -1.0821  -13.0790    2.6093 H   0  0  0  0  0  0  0  0  0  0  0  0
   -2.6452  -16.2208    1.0207 H   0  0  0  0  0  0  0  0  0  0  0  0
   -2.3945  -15.6776    2.4518 H   0  0  0  0  0  0  0  0  0  0  0  0
  1  2  1  0
  2  3  2  0
  3  4  1  0
  4  5  1  0
  5  6  1  0
  6  7  1  0
  7  8  1  0
  8  9  1  0
  9 10  1  0
 10 11  2  0
 10 12  1  0
 12 13  2  0
 13 14  1  0
 14 15  2  0
 15 16  1  0
 16 17  1  0
 17 18  1  0
 17 19  1  0
 16 20  1  0
 20 21  1  0
 21 22  1  0
 22 23  1  0
 22 24  1  0
 24 25  1  0
 24 26  1  0
 26 27  1  0
 27 28  2  0
 27 29  1  0
 29 30  1  0
 31 30  1  1
 31 32  1  0
 32 33  1  0
 33 34  1  0
 31 35  1  0
 35 36  1  1
 35 37  1  0
 37 38  1  0
 38 39  1  0
 33  2  1  0
 37 39  1  6
 31  4  1  0
 37  6  1  0
 35  8  1  0
  1 40  1  0
  1 41  1  0
  1 42  1  0
  3 43  1  0
  4 44  1  6
  6 45  1  6
  7 46  1  0
  7 47  1  0
  8 48  1  1
 12 49  1  0
 13 50  1  0
 14 51  1  0
 15 52  1  0
 16 53  1  6
 17 54  1  6
 18 55  1  0
 18 56  1  0
 18 57  1  0
 19 58  1  0
 21 59  1  0
 21 60  1  0
 22 61  1  1
 23 62  1  0
 24 63  1  1
 25 64  1  0
 25 65  1  0
 25 66  1  0
 26 67  1  0
 26 68  1  0
 30 69  1  0
 30 70  1  0
 32 71  1  0
 32 72  1  0
 33 73  1  1
 34 74  1  0
 36 75  1  0
 36 76  1  0
 36 77  1  0
 38 78  1  0
 38 79  1  0
M  END
>  <meeko>  (7) 
{"is_sidechain": [false], "free_energy": -5.125, "intermolecular_energy": -9.873, "internal_energy": -3.109}

$$$$
LIB_PYYBXMVTBWYBDY__M_PUB_ALL__e8__s20260927
     RDKit          3D

 79 83  0  0  0  0  0  0  0  0999 V2000
    6.0530  -11.4800   -1.2140 C   0  0  0  0  0  0  0  0  0  0  0  0
    7.4410  -12.0430   -1.3360 C   0  0  0  0  0  0  0  0  0  0  0  0
    7.9380  -12.3900   -2.5380 C   0  0  0  0  0  0  0  0  0  0  0  0
    9.2820  -13.0270   -2.7690 C   0  0  1  0  0  0  0  0  0  0  0  0
   10.0830  -11.9780   -3.3450 O   0  0  0  0  0  0  0  0  0  0  0  0
   11.4780  -12.2640   -3.4950 C   0  0  2  0  0  0  0  0  0  0  0  0
   11.7040  -13.5780   -4.2420 C   0  0  0  0  0  0  0  0  0  0  0  0
   11.7380  -14.6570   -3.1290 C   0  0  1  0  0  0  0  0  0  0  0  0
   13.0590  -15.2390   -3.1790 O   0  0  0  0  0  0  0  0  0  0  0  0
   13.2030  -16.3690   -3.9070 C   0  0  0  0  0  0  0  0  0  0  0  0
   13.6660  -16.4780   -5.0300 O   0  0  0  0  0  0  0  0  0  0  0  0
   12.7170  -17.4920   -3.0870 C   0  0  0  0  0  0  0  0  0  0  0  0
   11.5030  -18.0360   -3.2560 C   0  0  0  0  0  0  0  0  0  0  0  0
   10.5360  -17.6630   -4.2650 C   0  0  0  0  0  0  0  0  0  0  0  0
   10.5650  -18.1380   -5.5210 C   0  0  0  0  0  0  0  0  0  0  0  0
    9.5990  -17.7360   -6.6050 C   0  0  2  0  0  0  0  0  0  0  0  0
   10.1890  -16.6020   -7.4810 C   0  0  1  0  0  0  0  0  0  0  0  0
    9.6040  -15.2440   -7.1090 C   0  0  0  0  0  0  0  0  0  0  0  0
   11.6100  -16.5180   -7.3070 O   0  0  0  0  0  0  0  0  0  0  0  0
    8.4070  -17.2280   -5.9730 O   0  0  0  0  0  0  0  0  0  0  0  0
    7.5290  -18.2820   -5.5360 C   0  0  0  0  0  0  0  0  0  0  0  0
    6.3280  -17.6210   -4.8320 C   0  0  2  0  0  0  0  0  0  0  0  0
    5.2940  -17.4120   -5.8020 O   0  0  0  0  0  0  0  0  0  0  0  0
    6.6170  -16.2900   -4.1090 C   0  0  1  0  0  0  0  0  0  0  0  0
    5.8270  -15.1310   -4.7210 C   0  0  0  0  0  0  0  0  0  0  0  0
    6.3750  -16.3550   -2.5900 C   0  0  0  0  0  0  0  0  0  0  0  0
    7.6410  -16.6100   -1.8010 C   0  0  0  0  0  0  0  0  0  0  0  0
    7.8100  -17.5630   -1.0520 O   0  0  0  0  0  0  0  0  0  0  0  0
    8.5940  -15.6900   -2.1250 O   0  0  0  0  0  0  0  0  0  0  0  0
    9.1740  -14.9460   -1.0490 C   0  0  0  0  0  0  0  0  0  0  0  0
    9.9220  -13.6460   -1.4820 C   0  0  2  0  0  0  0  0  0  0  0  0
    9.7050  -12.6100   -0.3260 C   0  0  0  0  0  0  0  0  0  0  0  0
    8.2310  -12.2470   -0.0680 C   0  0  1  0  0  0  0  0  0  0  0  0
    8.2320  -11.0610    0.7200 O   0  0  0  0  0  0  0  0  0  0  0  0
   11.4860  -13.8950   -1.7610 C   0  0  1  0  0  0  0  0  0  0  0  0
   12.2070  -14.5580   -0.5810 C   0  0  0  0  0  0  0  0  0  0  0  0
   12.0480  -12.5390   -2.1470 C   0  0  2  0  0  0  0  0  0  0  0  0
   12.6910  -11.5040   -1.2520 C   0  0  0  0  0  0  0  0  0  0  0  0
   13.4760  -12.3930   -2.0570 O   0  0  0  0  0  0  0  0  0  0  0  0
    5.7924  -11.3743   -0.1506 H   0  0  0  0  0  0  0  0  0  0  0  0
    6.0129  -10.4945   -1.7011 H   0  0  0  0  0  0  0  0  0  0  0  0
    5.3377  -12.1591   -1.7011 H   0  0  0  0  0  0  0  0  0  0  0  0
    7.3125  -12.1924   -3.4210 H   0  0  0  0  0  0  0  0  0  0  0  0
    9.1986  -13.8996   -3.4336 H   0  0  0  0  0  0  0  0  0  0  0  0
   11.9268  -11.4093   -4.0223 H   0  0  0  0  0  0  0  0  0  0  0  0
   10.8812  -13.7715   -4.9460 H   0  0  0  0  0  0  0  0  0  0  0  0
   12.6269  -13.5654   -4.8404 H   0  0  0  0  0  0  0  0  0  0  0  0
   10.9849  -15.4508   -3.2420 H   0  0  0  0  0  0  0  0  0  0  0  0
   13.3753  -17.9001   -2.3059 H   0  0  0  0  0  0  0  0  0  0  0  0
   11.2159  -18.8406   -2.5630 H   0  0  0  0  0  0  0  0  0  0  0  0
    9.7388  -16.9565   -3.9905 H   0  0  0  0  0  0  0  0  0  0  0  0
   11.3463  -18.8694   -5.7752 H   0  0  0  0  0  0  0  0  0  0  0  0
    9.3903  -18.6104   -7.2390 H   0  0  0  0  0  0  0  0  0  0  0  0
    9.9353  -16.8455   -8.5233 H   0  0  0  0  0  0  0  0  0  0  0  0
    9.5634  -15.1498   -6.0138 H   0  0  0  0  0  0  0  0  0  0  0  0
   10.2381  -14.4459   -7.5224 H   0  0  0  0  0  0  0  0  0  0  0  0
    8.5884  -15.1566   -7.5224 H   0  0  0  0  0  0  0  0  0  0  0  0
   11.8000  -15.5670   -7.1920 H   0  0  0  0  0  0  0  0  0  0  0  0
    7.1825  -18.8656   -6.4017 H   0  0  0  0  0  0  0  0  0  0  0  0
    8.0531  -18.9641   -4.8504 H   0  0  0  0  0  0  0  0  0  0  0  0
    6.0334  -18.3178   -4.0334 H   0  0  0  0  0  0  0  0  0  0  0  0
    5.6030  -17.8830   -6.6010 H   0  0  0  0  0  0  0  0  0  0  0  0
    7.6913  -16.1053   -4.2561 H   0  0  0  0  0  0  0  0  0  0  0  0
    5.4041  -14.5106   -3.9171 H   0  0  0  0  0  0  0  0  0  0  0  0
    6.4967  -14.5188   -5.3429 H   0  0  0  0  0  0  0  0  0  0  0  0
    5.0124  -15.5305   -5.3429 H   0  0  0  0  0  0  0  0  0  0  0  0
    5.9443  -15.3974   -2.2622 H   0  0  0  0  0  0  0  0  0  0  0  0
    5.6934  -17.1974   -2.4007 H   0  0  0  0  0  0  0  0  0  0  0  0
    8.3686  -14.6627   -0.3554 H   0  0  0  0  0  0  0  0  0  0  0  0
    9.9300  -15.6009   -0.5912 H   0  0  0  0  0  0  0  0  0  0  0  0
   10.1223  -13.0340    0.5993 H   0  0  0  0  0  0  0  0  0  0  0  0
   10.2079  -11.6822   -0.6363 H   0  0  0  0  0  0  0  0  0  0  0  0
    7.7365  -13.0816    0.4505 H   0  0  0  0  0  0  0  0  0  0  0  0
    7.3160  -10.8870    0.9890 H   0  0  0  0  0  0  0  0  0  0  0  0
   11.7920  -14.1764    0.3635 H   0  0  0  0  0  0  0  0  0  0  0  0
   12.0652  -15.6477   -0.6301 H   0  0  0  0  0  0  0  0  0  0  0  0
   13.2810  -14.3255   -0.6301 H   0  0  0  0  0  0  0  0  0  0  0  0
   12.6282  -10.4356   -1.5060 H   0  0  0  0  0  0  0  0  0  0  0  0
   12.6406  -11.2467   -0.1837 H   0  0  0  0  0  0  0  0  0  0  0  0
  1  2  1  0
  2  3  2  0
  3  4  1  0
  4  5  1  0
  5  6  1  0
  6  7  1  0
  7  8  1  0
  8  9  1  0
  9 10  1  0
 10 11  2  0
 10 12  1  0
 12 13  2  0
 13 14  1  0
 14 15  2  0
 15 16  1  0
 16 17  1  0
 17 18  1  0
 17 19  1  0
 16 20  1  0
 20 21  1  0
 21 22  1  0
 22 23  1  0
 22 24  1  0
 24 25  1  0
 24 26  1  0
 26 27  1  0
 27 28  2  0
 27 29  1  0
 29 30  1  0
 31 30  1  1
 31 32  1  0
 32 33  1  0
 33 34  1  0
 31 35  1  0
 35 36  1  1
 35 37  1  0
 37 38  1  0
 38 39  1  0
 33  2  1  0
 37 39  1  6
 31  4  1  0
 37  6  1  0
 35  8  1  0
  1 40  1  0
  1 41  1  0
  1 42  1  0
  3 43  1  0
  4 44  1  6
  6 45  1  6
  7 46  1  0
  7 47  1  0
  8 48  1  6
 12 49  1  0
 13 50  1  0
 14 51  1  0
 15 52  1  0
 16 53  1  6
 17 54  1  6
 18 55  1  0
 18 56  1  0
 18 57  1  0
 19 58  1  0
 21 59  1  0
 21 60  1  0
 22 61  1  1
 23 62  1  0
 24 63  1  1
 25 64  1  0
 25 65  1  0
 25 66  1  0
 26 67  1  0
 26 68  1  0
 30 69  1  0
 30 70  1  0
 32 71  1  0
 32 72  1  0
 33 73  1  1
 34 74  1  0
 36 75  1  0
 36 76  1  0
 36 77  1  0
 38 78  1  0
 38 79  1  0
M  END
>  <meeko>  (8) 
{"is_sidechain": [false], "free_energy": -4.992, "intermolecular_energy": -9.773, "internal_energy": -2.955}

$$$$
LIB_PYYBXMVTBWYBDY__M_PUB_ALL__e8__s20260927
     RDKit          3D

 79 83  0  0  0  0  0  0  0  0999 V2000
   13.5640  -18.7570   -3.2160 C   0  0  0  0  0  0  0  0  0  0  0  0
   12.8730  -17.4290   -3.0910 C   0  0  0  0  0  0  0  0  0  0  0  0
   12.2310  -17.0920   -1.9560 C   0  0  0  0  0  0  0  0  0  0  0  0
   11.4470  -15.8240   -1.7470 C   0  0  1  0  0  0  0  0  0  0  0  0
   12.2740  -15.0310   -0.8740 O   0  0  0  0  0  0  0  0  0  0  0  0
   11.8460  -13.6810   -0.6600 C   0  0  2  0  0  0  0  0  0  0  0  0
   10.3860  -13.6210   -0.2110 C   0  0  0  0  0  0  0  0  0  0  0  0
    9.5770  -13.5280   -1.5300 C   0  0  1  0  0  0  0  0  0  0  0  0
    8.8880  -12.2590   -1.4860 O   0  0  0  0  0  0  0  0  0  0  0  0
    7.8140  -12.1730   -0.6710 C   0  0  0  0  0  0  0  0  0  0  0  0
    7.5260  -11.2660    0.0900 O   0  0  0  0  0  0  0  0  0  0  0  0
    7.0020  -13.3850   -0.8760 C   0  0  0  0  0  0  0  0  0  0  0  0
    5.9670  -13.4240   -1.7290 C   0  0  0  0  0  0  0  0  0  0  0  0
    5.5350  -12.3470   -2.5920 C   0  0  0  0  0  0  0  0  0  0  0  0
    4.9420  -12.5500   -3.7800 C   0  0  0  0  0  0  0  0  0  0  0  0
    4.5200  -11.4520   -4.7200 C   0  0  2  0  0  0  0  0  0  0  0  0
    3.0390  -11.0600   -4.4860 C   0  0  1  0  0  0  0  0  0  0  0  0
    2.2610  -12.1840   -3.8100 C   0  0  0  0  0  0  0  0  0  0  0  0
    2.9520   -9.9070   -3.6370 O   0  0  0  0  0  0  0  0  0  0  0  0
    4.6340  -11.9510   -6.0670 O   0  0  0  0  0  0  0  0  0  0  0  0
    4.8540  -13.3740   -6.1070 C   0  0  0  0  0  0  0  0  0  0  0  0
    6.2260  -13.6240   -6.7650 C   0  0  2  0  0  0  0  0  0  0  0  0
    6.0350  -13.7810   -8.1750 O   0  0  0  0  0  0  0  0  0  0  0  0
    7.0190  -14.8320   -6.2250 C   0  0  1  0  0  0  0  0  0  0  0  0
    8.1550  -15.2300   -7.1720 C   0  0  0  0  0  0  0  0  0  0  0  0
    7.5640  -14.6180   -4.8010 C   0  0  0  0  0  0  0  0  0  0  0  0
    7.5860  -15.8890   -3.9810 C   0  0  0  0  0  0  0  0  0  0  0  0
    6.7680  -16.7940   -4.0820 O   0  0  0  0  0  0  0  0  0  0  0  0
    8.7000  -15.9260   -3.1960 O   0  0  0  0  0  0  0  0  0  0  0  0
    9.9660  -15.8550   -3.8580 C   0  0  0  0  0  0  0  0  0  0  0  0
   11.0720  -15.0820   -3.0730 C   0  0  2  0  0  0  0  0  0  0  0  0
   12.3500  -15.1040   -3.9800 C   0  0  0  0  0  0  0  0  0  0  0  0
   12.8840  -16.5140   -4.2900 C   0  0  1  0  0  0  0  0  0  0  0  0
   14.2100  -16.3530   -4.7860 O   0  0  0  0  0  0  0  0  0  0  0  0
   10.6370  -13.5770   -2.7090 C   0  0  1  0  0  0  0  0  0  0  0  0
   10.1900  -12.7700   -3.9320 C   0  0  0  0  0  0  0  0  0  0  0  0
   11.8240  -12.9800   -1.9740 C   0  0  2  0  0  0  0  0  0  0  0  0
   12.9720  -12.1790   -2.5460 C   0  0  0  0  0  0  0  0  0  0  0  0
   11.8650  -11.5450   -1.8910 O   0  0  0  0  0  0  0  0  0  0  0  0
   13.7725  -19.1577   -2.2130 H   0  0  0  0  0  0  0  0  0  0  0  0
   12.9160  -19.4574   -3.7633 H   0  0  0  0  0  0  0  0  0  0  0  0
   14.5095  -18.6283   -3.7633 H   0  0  0  0  0  0  0  0  0  0  0  0
   12.2837  -17.7993   -1.1152 H   0  0  0  0  0  0  0  0  0  0  0  0
   10.4603  -16.0343   -1.3086 H   0  0  0  0  0  0  0  0  0  0  0  0
   12.5249  -13.2432    0.0866 H   0  0  0  0  0  0  0  0  0  0  0  0
   10.1139  -14.5280    0.3487 H   0  0  0  0  0  0  0  0  0  0  0  0
   10.1897  -12.7721    0.4604 H   0  0  0  0  0  0  0  0  0  0  0  0
    8.8448  -14.3365   -1.6718 H   0  0  0  0  0  0  0  0  0  0  0  0
    7.2538  -14.2927   -0.3080 H   0  0  0  0  0  0  0  0  0  0  0  0
    5.3941  -14.3619   -1.7762 H   0  0  0  0  0  0  0  0  0  0  0  0
    5.7000  -11.3115   -2.2595 H   0  0  0  0  0  0  0  0  0  0  0  0
    4.7517  -13.5890   -4.0871 H   0  0  0  0  0  0  0  0  0  0  0  0
    5.1578  -10.5722   -4.5494 H   0  0  0  0  0  0  0  0  0  0  0  0
    2.6080  -10.8514   -5.4763 H   0  0  0  0  0  0  0  0  0  0  0  0
    2.3356  -12.0762   -2.7178 H   0  0  0  0  0  0  0  0  0  0  0  0
    1.2046  -12.1321   -4.1123 H   0  0  0  0  0  0  0  0  0  0  0  0
    2.6816  -13.1544   -4.1123 H   0  0  0  0  0  0  0  0  0  0  0  0
    2.0990   -9.9960   -3.1690 H   0  0  0  0  0  0  0  0  0  0  0  0
    4.8498  -13.7815   -5.0853 H   0  0  0  0  0  0  0  0  0  0  0  0
    4.0576  -13.8685   -6.6825 H   0  0  0  0  0  0  0  0  0  0  0  0
    6.8384  -12.7452   -6.5146 H   0  0  0  0  0  0  0  0  0  0  0  0
    6.8850  -13.5100   -8.5740 H   0  0  0  0  0  0  0  0  0  0  0  0
    6.2940  -15.6575   -6.1708 H   0  0  0  0  0  0  0  0  0  0  0  0
    9.0321  -15.5373   -6.5836 H   0  0  0  0  0  0  0  0  0  0  0  0
    7.8274  -16.0669   -7.8063 H   0  0  0  0  0  0  0  0  0  0  0  0
    8.4213  -14.3716   -7.8063 H   0  0  0  0  0  0  0  0  0  0  0  0
    8.5904  -14.2291   -4.8730 H   0  0  0  0  0  0  0  0  0  0  0  0
    6.8921  -13.9100   -4.2938 H   0  0  0  0  0  0  0  0  0  0  0  0
   10.3214  -16.8820   -4.0282 H   0  0  0  0  0  0  0  0  0  0  0  0
    9.7978  -15.2944   -4.7894 H   0  0  0  0  0  0  0  0  0  0  0  0
   12.1046  -14.6117   -4.9326 H   0  0  0  0  0  0  0  0  0  0  0  0
   13.1416  -14.5839   -3.4207 H   0  0  0  0  0  0  0  0  0  0  0  0
   12.2268  -16.9956   -5.0291 H   0  0  0  0  0  0  0  0  0  0  0  0
   14.5850  -15.5630   -4.3670 H   0  0  0  0  0  0  0  0  0  0  0  0
    9.6818  -11.8526   -3.6002 H   0  0  0  0  0  0  0  0  0  0  0  0
   11.0693  -12.5038   -4.5370 H   0  0  0  0  0  0  0  0  0  0  0  0
    9.4979  -13.3742   -4.5370 H   0  0  0  0  0  0  0  0  0  0  0  0
   13.9605  -12.2049   -2.0642 H   0  0  0  0  0  0  0  0  0  0  0  0
   13.4599  -12.0933   -3.5281 H   0  0  0  0  0  0  0  0  0  0  0  0
  1  2  1  0
  2  3  2  0
  3  4  1  0
  4  5  1  0
  5  6  1  0
  6  7  1  0
  7  8  1  0
  8  9  1  0
  9 10  1  0
 10 11  2  0
 10 12  1  0
 12 13  2  0
 13 14  1  0
 14 15  2  0
 15 16  1  0
 16 17  1  0
 17 18  1  0
 17 19  1  0
 16 20  1  0
 20 21  1  0
 21 22  1  0
 22 23  1  0
 22 24  1  0
 24 25  1  0
 24 26  1  0
 26 27  1  0
 27 28  2  0
 27 29  1  0
 29 30  1  0
 31 30  1  6
 31 32  1  0
 32 33  1  0
 33 34  1  0
 31 35  1  0
 35 36  1  6
 35 37  1  0
 37 38  1  0
 38 39  1  0
 33  2  1  0
 37 39  1  1
 31  4  1  0
 37  6  1  0
 35  8  1  0
  1 40  1  0
  1 41  1  0
  1 42  1  0
  3 43  1  0
  4 44  1  1
  6 45  1  1
  7 46  1  0
  7 47  1  0
  8 48  1  6
 12 49  1  0
 13 50  1  0
 14 51  1  0
 15 52  1  0
 16 53  1  6
 17 54  1  6
 18 55  1  0
 18 56  1  0
 18 57  1  0
 19 58  1  0
 21 59  1  0
 21 60  1  0
 22 61  1  6
 23 62  1  0
 24 63  1  1
 25 64  1  0
 25 65  1  0
 25 66  1  0
 26 67  1  0
 26 68  1  0
 30 69  1  0
 30 70  1  0
 32 71  1  0
 32 72  1  0
 33 73  1  6
 34 74  1  0
 36 75  1  0
 36 76  1  0
 36 77  1  0
 38 78  1  0
 38 79  1  0
M  END
>  <meeko>  (9) 
{"is_sidechain": [false], "free_energy": -4.874, "intermolecular_energy": -10.663, "internal_energy": -1.841}

$$$$
