LIB_CSYGIPIOQSVIRG__M_PUB_ALL__e8__s20260927
     RDKit          3D

 55 59  0  0  0  0  0  0  0  0999 V2000
   -4.4980  -10.8140   -1.0780 N   0  0  0  0  0  0  0  0  0  0  0  0
   -3.9050  -11.4110   -0.0000 C   0  0  0  0  0  0  0  0  0  0  0  0
   -4.4680  -12.3120    0.6080 O   0  0  0  0  0  0  0  0  0  0  0  0
   -2.5750  -10.8990    0.4220 C   0  0  0  0  0  0  0  0  0  0  0  0
   -2.5310   -9.7740    1.2520 C   0  0  0  0  0  0  0  0  0  0  0  0
   -1.3040   -9.2540    1.6610 C   0  0  0  0  0  0  0  0  0  0  0  0
   -0.1160   -9.8620    1.2470 C   0  0  0  0  0  0  0  0  0  0  0  0
   -0.1410  -11.0000    0.4260 C   0  0  0  0  0  0  0  0  0  0  0  0
    1.1060  -11.6320    0.0190 C   0  0  0  0  0  0  0  0  0  0  0  0
    1.8950  -12.5800    0.7000 C   0  0  0  0  0  0  0  0  0  0  0  0
    2.9910  -12.9330    0.0320 N   0  0  0  0  0  0  0  0  0  0  0  0
    2.9500  -12.1980   -1.1140 N   0  0  0  0  0  0  0  0  0  0  0  0
    3.8850  -12.1750   -2.1690 C   0  0  0  0  0  0  0  0  0  0  0  0
    5.1020  -13.0170   -2.1660 C   0  0  0  0  0  0  0  0  0  0  0  0
    5.0160  -14.3990   -2.3720 C   0  0  0  0  0  0  0  0  0  0  0  0
    6.1650  -15.1880   -2.3680 C   0  0  0  0  0  0  0  0  0  0  0  0
    7.4140  -14.6030   -2.1670 C   0  0  0  0  0  0  0  0  0  0  0  0
    7.5290  -13.2230   -1.9680 C   0  0  0  0  0  0  0  0  0  0  0  0
    8.8270  -12.7030   -1.7710 N   0  0  0  0  0  0  0  0  0  0  0  0
    9.5270  -12.6330   -0.5800 C   0  0  0  0  0  0  0  0  0  0  0  0
    9.1020  -12.9010    0.5380 O   0  0  0  0  0  0  0  0  0  0  0  0
   10.9230  -12.1240   -0.7010 C   0  0  0  0  0  0  0  0  0  0  0  0
   11.4720  -11.4180    0.3750 C   0  0  0  0  0  0  0  0  0  0  0  0
   12.7780  -10.9320    0.3020 C   0  0  0  0  0  0  0  0  0  0  0  0
   13.5440  -11.1570   -0.8430 C   0  0  0  0  0  0  0  0  0  0  0  0
   13.0140  -11.8740   -1.9280 C   0  0  0  0  0  0  0  0  0  0  0  0
   13.8560  -12.1520   -3.1500 C   0  0  0  0  0  0  0  0  0  0  0  0
   13.2270  -11.8030   -4.3070 F   0  0  0  0  0  0  0  0  0  0  0  0
   14.1680  -13.4690   -3.2750 F   0  0  0  0  0  0  0  0  0  0  0  0
   15.0390  -11.4800   -3.1530 F   0  0  0  0  0  0  0  0  0  0  0  0
   11.6990  -12.3660   -1.8440 C   0  0  0  0  0  0  0  0  0  0  0  0
    6.3690  -12.4410   -1.9590 C   0  0  0  0  0  0  0  0  0  0  0  0
    3.6560  -11.3700   -3.2240 C   0  0  0  0  0  0  0  0  0  0  0  0
    2.4180  -10.5580   -3.1710 C   0  0  0  0  0  0  0  0  0  0  0  0
    1.5360  -10.5590   -2.2200 N   0  0  0  0  0  0  0  0  0  0  0  0
    1.7950  -11.3910   -1.1580 C   0  0  0  0  0  0  0  0  0  0  0  0
   -1.3820  -11.5180    0.0280 C   0  0  0  0  0  0  0  0  0  0  0  0
   -5.4090  -11.1580   -1.3540 H   0  0  0  0  0  0  0  0  0  0  0  0
   -4.1210  -10.0100   -1.5560 H   0  0  0  0  0  0  0  0  0  0  0  0
   -3.4663   -9.2987    1.5826 H   0  0  0  0  0  0  0  0  0  0  0  0
   -1.2710   -8.3658    2.3091 H   0  0  0  0  0  0  0  0  0  0  0  0
    0.8495   -9.4441    1.5681 H   0  0  0  0  0  0  0  0  0  0  0  0
    1.6313  -12.9883    1.6868 H   0  0  0  0  0  0  0  0  0  0  0  0
    4.0340  -14.8659   -2.5383 H   0  0  0  0  0  0  0  0  0  0  0  0
    6.0859  -16.2740   -2.5237 H   0  0  0  0  0  0  0  0  0  0  0  0
    8.3167  -15.2315   -2.1648 H   0  0  0  0  0  0  0  0  0  0  0  0
    9.2610  -12.2940   -2.5880 H   0  0  0  0  0  0  0  0  0  0  0  0
   10.8724  -11.2456    1.2810 H   0  0  0  0  0  0  0  0  0  0  0  0
   13.2040  -10.3714    1.1471 H   0  0  0  0  0  0  0  0  0  0  0  0
   14.5720  -10.7692   -0.8959 H   0  0  0  0  0  0  0  0  0  0  0  0
   11.2768  -12.9438   -2.6794 H   0  0  0  0  0  0  0  0  0  0  0  0
    6.4488  -11.3574   -1.7872 H   0  0  0  0  0  0  0  0  0  0  0  0
    4.3489  -11.3183   -4.0768 H   0  0  0  0  0  0  0  0  0  0  0  0
    2.2280   -9.8879   -4.0224 H   0  0  0  0  0  0  0  0  0  0  0  0
   -1.4188  -12.4201   -0.6004 H   0  0  0  0  0  0  0  0  0  0  0  0
  1  2  1  0
  2  3  2  0
  2  4  1  0
  4  5  2  0
  5  6  1  0
  6  7  2  0
  7  8  1  0
  8  9  1  0
  9 10  1  0
 10 11  2  0
 11 12  1  0
 12 13  1  0
 13 14  1  0
 14 15  2  0
 15 16  1  0
 16 17  2  0
 17 18  1  0
 18 19  1  0
 19 20  1  0
 20 21  2  0
 20 22  1  0
 22 23  2  0
 23 24  1  0
 24 25  2  0
 25 26  1  0
 26 27  1  0
 27 28  1  0
 27 29  1  0
 27 30  1  0
 26 31  2  0
 18 32  2  0
 13 33  2  0
 33 34  1  0
 34 35  2  0
 35 36  1  0
  8 37  2  0
 37  4  1  0
 36  9  2  0
 36 12  1  0
 32 14  1  0
 31 22  1  0
  1 38  1  0
  1 39  1  0
  5 40  1  0
  6 41  1  0
  7 42  1  0
 10 43  1  0
 15 44  1  0
 16 45  1  0
 17 46  1  0
 19 47  1  0
 23 48  1  0
 24 49  1  0
 25 50  1  0
 31 51  1  0
 32 52  1  0
 33 53  1  0
 34 54  1  0
 37 55  1  0
M  END
>  <meeko>  (1) 
{"is_sidechain": [false], "free_energy": -9.492, "intermolecular_energy": -12.821, "internal_energy": -1.155}

$$$$
LIB_CSYGIPIOQSVIRG__M_PUB_ALL__e8__s20260927
     RDKit          3D

 55 59  0  0  0  0  0  0  0  0999 V2000
   15.0280  -12.0220   -3.1960 N   0  0  0  0  0  0  0  0  0  0  0  0
   13.6630  -12.0540   -3.2620 C   0  0  0  0  0  0  0  0  0  0  0  0
   13.0900  -12.2110   -4.3330 O   0  0  0  0  0  0  0  0  0  0  0  0
   12.9090  -11.8530   -1.9970 C   0  0  0  0  0  0  0  0  0  0  0  0
   13.4850  -11.0580   -1.0000 C   0  0  0  0  0  0  0  0  0  0  0  0
   12.8160  -10.8560    0.2060 C   0  0  0  0  0  0  0  0  0  0  0  0
   11.5660  -11.4410    0.4170 C   0  0  0  0  0  0  0  0  0  0  0  0
   10.9650  -12.2290   -0.5770 C   0  0  0  0  0  0  0  0  0  0  0  0
    9.6530  -12.8160   -0.3470 C   0  0  0  0  0  0  0  0  0  0  0  0
    9.1780  -14.1050   -0.6610 C   0  0  0  0  0  0  0  0  0  0  0  0
    7.9070  -14.2990   -0.3170 N   0  0  0  0  0  0  0  0  0  0  0  0
    7.5110  -13.1130    0.2250 N   0  0  0  0  0  0  0  0  0  0  0  0
    6.2420  -12.7700    0.7360 C   0  0  0  0  0  0  0  0  0  0  0  0
    5.1130  -13.7260    0.7590 C   0  0  0  0  0  0  0  0  0  0  0  0
    5.3430  -15.1050    0.6850 C   0  0  0  0  0  0  0  0  0  0  0  0
    4.2760  -16.0020    0.7070 C   0  0  0  0  0  0  0  0  0  0  0  0
    2.9680  -15.5310    0.8130 C   0  0  0  0  0  0  0  0  0  0  0  0
    2.7120  -14.1580    0.8980 C   0  0  0  0  0  0  0  0  0  0  0  0
    1.3620  -13.7570    1.0030 N   0  0  0  0  0  0  0  0  0  0  0  0
    0.5650  -13.7940    2.1340 C   0  0  0  0  0  0  0  0  0  0  0  0
    0.8510  -14.2890    3.2170 O   0  0  0  0  0  0  0  0  0  0  0  0
   -0.7940  -13.2080    1.9620 C   0  0  0  0  0  0  0  0  0  0  0  0
   -1.8620  -13.7810    2.6620 C   0  0  0  0  0  0  0  0  0  0  0  0
   -3.1480  -13.2560    2.5330 C   0  0  0  0  0  0  0  0  0  0  0  0
   -3.3730  -12.1520    1.7100 C   0  0  0  0  0  0  0  0  0  0  0  0
   -2.3120  -11.5560    1.0100 C   0  0  0  0  0  0  0  0  0  0  0  0
   -2.5470  -10.3360    0.1510 C   0  0  0  0  0  0  0  0  0  0  0  0
   -1.4390   -9.9710   -0.5530 F   0  0  0  0  0  0  0  0  0  0  0  0
   -2.9010   -9.2470    0.8840 F   0  0  0  0  0  0  0  0  0  0  0  0
   -3.5330  -10.5090   -0.7710 F   0  0  0  0  0  0  0  0  0  0  0  0
   -1.0180  -12.0860    1.1500 C   0  0  0  0  0  0  0  0  0  0  0  0
    3.7870  -13.2650    0.8600 C   0  0  0  0  0  0  0  0  0  0  0  0
    6.0540  -11.5320    1.2330 C   0  0  0  0  0  0  0  0  0  0  0  0
    7.2240  -10.6240    1.1860 C   0  0  0  0  0  0  0  0  0  0  0  0
    8.4040  -10.9100    0.7300 N   0  0  0  0  0  0  0  0  0  0  0  0
    8.5660  -12.1800    0.2310 C   0  0  0  0  0  0  0  0  0  0  0  0
   11.6440  -12.4190   -1.7890 C   0  0  0  0  0  0  0  0  0  0  0  0
   15.5370  -12.1470   -4.0610 H   0  0  0  0  0  0  0  0  0  0  0  0
   15.5470  -11.8050   -2.3580 H   0  0  0  0  0  0  0  0  0  0  0  0
   14.4670  -10.5918   -1.1682 H   0  0  0  0  0  0  0  0  0  0  0  0
   13.2728  -10.2358    0.9913 H   0  0  0  0  0  0  0  0  0  0  0  0
   11.0461  -11.2825    1.3733 H   0  0  0  0  0  0  0  0  0  0  0  0
    9.7972  -14.8756   -1.1433 H   0  0  0  0  0  0  0  0  0  0  0  0
    6.3730  -15.4835    0.6089 H   0  0  0  0  0  0  0  0  0  0  0  0
    4.4664  -17.0834    0.6406 H   0  0  0  0  0  0  0  0  0  0  0  0
    2.1308  -16.2443    0.8299 H   0  0  0  0  0  0  0  0  0  0  0  0
    0.9260  -13.4630    0.1390 H   0  0  0  0  0  0  0  0  0  0  0  0
   -1.6868  -14.6480    3.3159 H   0  0  0  0  0  0  0  0  0  0  0  0
   -3.9855  -13.7128    3.0807 H   0  0  0  0  0  0  0  0  0  0  0  0
   -4.3900  -11.7453    1.6088 H   0  0  0  0  0  0  0  0  0  0  0  0
   -0.1755  -11.6182    0.6196 H   0  0  0  0  0  0  0  0  0  0  0  0
    3.5932  -12.1834    0.9099 H   0  0  0  0  0  0  0  0  0  0  0  0
    5.0872  -11.2134    1.6499 H   0  0  0  0  0  0  0  0  0  0  0  0
    7.0772   -9.6062    1.5767 H   0  0  0  0  0  0  0  0  0  0  0  0
   11.1787  -13.0188   -2.5851 H   0  0  0  0  0  0  0  0  0  0  0  0
  1  2  1  0
  2  3  2  0
  2  4  1  0
  4  5  2  0
  5  6  1  0
  6  7  2  0
  7  8  1  0
  8  9  1  0
  9 10  1  0
 10 11  2  0
 11 12  1  0
 12 13  1  0
 13 14  1  0
 14 15  2  0
 15 16  1  0
 16 17  2  0
 17 18  1  0
 18 19  1  0
 19 20  1  0
 20 21  2  0
 20 22  1  0
 22 23  2  0
 23 24  1  0
 24 25  2  0
 25 26  1  0
 26 27  1  0
 27 28  1  0
 27 29  1  0
 27 30  1  0
 26 31  2  0
 18 32  2  0
 13 33  2  0
 33 34  1  0
 34 35  2  0
 35 36  1  0
  8 37  2  0
 37  4  1  0
 36  9  2  0
 36 12  1  0
 32 14  1  0
 31 22  1  0
  1 38  1  0
  1 39  1  0
  5 40  1  0
  6 41  1  0
  7 42  1  0
 10 43  1  0
 15 44  1  0
 16 45  1  0
 17 46  1  0
 19 47  1  0
 23 48  1  0
 24 49  1  0
 25 50  1  0
 31 51  1  0
 32 52  1  0
 33 53  1  0
 34 54  1  0
 37 55  1  0
M  END
>  <meeko>  (2) 
{"is_sidechain": [false], "free_energy": -9.432, "intermolecular_energy": -13.543, "internal_energy": -0.353}

$$$$
LIB_CSYGIPIOQSVIRG__M_PUB_ALL__e8__s20260927
     RDKit          3D

 55 59  0  0  0  0  0  0  0  0999 V2000
   13.9500  -14.3160   -6.6910 N   0  0  0  0  0  0  0  0  0  0  0  0
   13.9380  -14.7450   -5.3940 C   0  0  0  0  0  0  0  0  0  0  0  0
   14.1540  -15.9190   -5.1190 O   0  0  0  0  0  0  0  0  0  0  0  0
   13.6170  -13.7460   -4.3420 C   0  0  0  0  0  0  0  0  0  0  0  0
   14.5310  -12.7130   -4.1080 C   0  0  0  0  0  0  0  0  0  0  0  0
   14.2740  -11.7630   -3.1210 C   0  0  0  0  0  0  0  0  0  0  0  0
   13.0990  -11.8370   -2.3700 C   0  0  0  0  0  0  0  0  0  0  0  0
   12.1630  -12.8570   -2.6010 C   0  0  0  0  0  0  0  0  0  0  0  0
   10.9350  -12.9080   -1.8210 C   0  0  0  0  0  0  0  0  0  0  0  0
   10.6960  -13.4860   -0.5590 C   0  0  0  0  0  0  0  0  0  0  0  0
    9.4370  -13.3580   -0.1480 N   0  0  0  0  0  0  0  0  0  0  0  0
    8.8080  -12.6950   -1.1590 N   0  0  0  0  0  0  0  0  0  0  0  0
    7.4520  -12.3180   -1.2430 C   0  0  0  0  0  0  0  0  0  0  0  0
    6.4820  -12.6040   -0.1630 C   0  0  0  0  0  0  0  0  0  0  0  0
    6.8210  -13.4590    0.8930 C   0  0  0  0  0  0  0  0  0  0  0  0
    5.9040  -13.7250    1.9090 C   0  0  0  0  0  0  0  0  0  0  0  0
    4.6420  -13.1330    1.8850 C   0  0  0  0  0  0  0  0  0  0  0  0
    4.2820  -12.2680    0.8460 C   0  0  0  0  0  0  0  0  0  0  0  0
    2.9880  -11.7070    0.8900 N   0  0  0  0  0  0  0  0  0  0  0  0
    1.9040  -12.0420    0.0980 C   0  0  0  0  0  0  0  0  0  0  0  0
    1.9050  -12.8020   -0.8630 O   0  0  0  0  0  0  0  0  0  0  0  0
    0.6330  -11.3450    0.4460 C   0  0  0  0  0  0  0  0  0  0  0  0
    0.6980  -10.0200    0.8930 C   0  0  0  0  0  0  0  0  0  0  0  0
   -0.4700   -9.3330    1.2210 C   0  0  0  0  0  0  0  0  0  0  0  0
   -1.7100   -9.9620    1.0960 C   0  0  0  0  0  0  0  0  0  0  0  0
   -1.7960  -11.2860    0.6380 C   0  0  0  0  0  0  0  0  0  0  0  0
   -3.1390  -11.9540    0.4640 C   0  0  0  0  0  0  0  0  0  0  0  0
   -3.9790  -11.2380   -0.3350 F   0  0  0  0  0  0  0  0  0  0  0  0
   -3.7930  -12.1180    1.6440 F   0  0  0  0  0  0  0  0  0  0  0  0
   -3.0560  -13.1910   -0.0990 F   0  0  0  0  0  0  0  0  0  0  0  0
   -0.6140  -11.9710    0.3030 C   0  0  0  0  0  0  0  0  0  0  0  0
    5.2030  -12.0170   -0.1770 C   0  0  0  0  0  0  0  0  0  0  0  0
    7.0270  -11.6620   -2.3400 C   0  0  0  0  0  0  0  0  0  0  0  0
    8.0470  -11.4000   -3.3820 C   0  0  0  0  0  0  0  0  0  0  0  0
    9.3010  -11.7270   -3.3330 N   0  0  0  0  0  0  0  0  0  0  0  0
    9.7060  -12.3940   -2.2020 C   0  0  0  0  0  0  0  0  0  0  0  0
   12.4290  -13.8030   -3.6010 C   0  0  0  0  0  0  0  0  0  0  0  0
   14.1570  -15.0020   -7.4050 H   0  0  0  0  0  0  0  0  0  0  0  0
   13.6890  -13.3840   -6.9800 H   0  0  0  0  0  0  0  0  0  0  0  0
   15.4536  -12.6504   -4.7037 H   0  0  0  0  0  0  0  0  0  0  0  0
   14.9966  -10.9551   -2.9337 H   0  0  0  0  0  0  0  0  0  0  0  0
   12.9049  -11.0875   -1.5886 H   0  0  0  0  0  0  0  0  0  0  0  0
   11.4744  -13.9938    0.0295 H   0  0  0  0  0  0  0  0  0  0  0  0
    7.8175  -13.9239    0.9211 H   0  0  0  0  0  0  0  0  0  0  0  0
    6.1767  -14.4032    2.7310 H   0  0  0  0  0  0  0  0  0  0  0  0
    3.9234  -13.3478    2.6896 H   0  0  0  0  0  0  0  0  0  0  0  0
    2.8660  -10.9420    1.5410 H   0  0  0  0  0  0  0  0  0  0  0  0
    1.6732   -9.5196    0.9857 H   0  0  0  0  0  0  0  0  0  0  0  0
   -0.4144   -8.2943    1.5787 H   0  0  0  0  0  0  0  0  0  0  0  0
   -2.6276   -9.4153    1.3587 H   0  0  0  0  0  0  0  0  0  0  0  0
   -0.6679  -13.0033   -0.0732 H   0  0  0  0  0  0  0  0  0  0  0  0
    4.9228  -11.3500   -1.0056 H   0  0  0  0  0  0  0  0  0  0  0  0
    5.9818  -11.3391   -2.4556 H   0  0  0  0  0  0  0  0  0  0  0  0
    7.7068  -10.8759   -4.2874 H   0  0  0  0  0  0  0  0  0  0  0  0
   11.6974  -14.5984   -3.8061 H   0  0  0  0  0  0  0  0  0  0  0  0
  1  2  1  0
  2  3  2  0
  2  4  1  0
  4  5  2  0
  5  6  1  0
  6  7  2  0
  7  8  1  0
  8  9  1  0
  9 10  1  0
 10 11  2  0
 11 12  1  0
 12 13  1  0
 13 14  1  0
 14 15  2  0
 15 16  1  0
 16 17  2  0
 17 18  1  0
 18 19  1  0
 19 20  1  0
 20 21  2  0
 20 22  1  0
 22 23  2  0
 23 24  1  0
 24 25  2  0
 25 26  1  0
 26 27  1  0
 27 28  1  0
 27 29  1  0
 27 30  1  0
 26 31  2  0
 18 32  2  0
 13 33  2  0
 33 34  1  0
 34 35  2  0
 35 36  1  0
  8 37  2  0
 37  4  1  0
 36  9  2  0
 36 12  1  0
 32 14  1  0
 31 22  1  0
  1 38  1  0
  1 39  1  0
  5 40  1  0
  6 41  1  0
  7 42  1  0
 10 43  1  0
 15 44  1  0
 16 45  1  0
 17 46  1  0
 19 47  1  0
 23 48  1  0
 24 49  1  0
 25 50  1  0
 31 51  1  0
 32 52  1  0
 33 53  1  0
 34 54  1  0
 37 55  1  0
M  END
>  <meeko>  (3) 
{"is_sidechain": [false], "free_energy": -9.34, "intermolecular_energy": -13.284, "internal_energy": -0.487}

$$$$
LIB_CSYGIPIOQSVIRG__M_PUB_ALL__e8__s20260927
     RDKit          3D

 55 59  0  0  0  0  0  0  0  0999 V2000
   15.1770  -11.7880   -3.1200 N   0  0  0  0  0  0  0  0  0  0  0  0
   13.8360  -11.9640   -3.3190 C   0  0  0  0  0  0  0  0  0  0  0  0
   13.3860  -12.1390   -4.4450 O   0  0  0  0  0  0  0  0  0  0  0  0
   12.9500  -11.8980   -2.1280 C   0  0  0  0  0  0  0  0  0  0  0  0
   13.4270  -11.2530   -0.9810 C   0  0  0  0  0  0  0  0  0  0  0  0
   12.6330  -11.1810    0.1610 C   0  0  0  0  0  0  0  0  0  0  0  0
   11.3560  -11.7470    0.1610 C   0  0  0  0  0  0  0  0  0  0  0  0
   10.8550  -12.3850   -0.9840 C   0  0  0  0  0  0  0  0  0  0  0  0
    9.5140  -12.9530   -0.9740 C   0  0  0  0  0  0  0  0  0  0  0  0
    8.2690  -12.3130   -0.8110 C   0  0  0  0  0  0  0  0  0  0  0  0
    7.2360  -13.1500   -0.8400 N   0  0  0  0  0  0  0  0  0  0  0  0
    7.7930  -14.3820   -1.0090 N   0  0  0  0  0  0  0  0  0  0  0  0
    7.1420  -15.6300   -1.0880 C   0  0  0  0  0  0  0  0  0  0  0  0
    5.6700  -15.7610   -1.0050 C   0  0  0  0  0  0  0  0  0  0  0  0
    5.0340  -16.9440   -1.4020 C   0  0  0  0  0  0  0  0  0  0  0  0
    3.6480  -17.0620   -1.3230 C   0  0  0  0  0  0  0  0  0  0  0  0
    2.8820  -16.0030   -0.8370 C   0  0  0  0  0  0  0  0  0  0  0  0
    3.4940  -14.8140   -0.4250 C   0  0  0  0  0  0  0  0  0  0  0  0
    2.6530  -13.7870    0.0550 N   0  0  0  0  0  0  0  0  0  0  0  0
    1.8440  -12.9500   -0.6930 C   0  0  0  0  0  0  0  0  0  0  0  0
    1.8020  -12.8720   -1.9150 O   0  0  0  0  0  0  0  0  0  0  0  0
    0.9900  -12.0260    0.1040 C   0  0  0  0  0  0  0  0  0  0  0  0
    0.7990  -10.7200   -0.3650 C   0  0  0  0  0  0  0  0  0  0  0  0
   -0.0000   -9.8280    0.3490 C   0  0  0  0  0  0  0  0  0  0  0  0
   -0.6200  -10.2370    1.5310 C   0  0  0  0  0  0  0  0  0  0  0  0
   -0.4510  -11.5460    2.0100 C   0  0  0  0  0  0  0  0  0  0  0  0
   -1.1550  -12.0010    3.2670 C   0  0  0  0  0  0  0  0  0  0  0  0
   -1.1570  -11.0470    4.2390 F   0  0  0  0  0  0  0  0  0  0  0  0
   -0.5710  -13.0980    3.8180 F   0  0  0  0  0  0  0  0  0  0  0  0
   -2.4600  -12.3270    3.0640 F   0  0  0  0  0  0  0  0  0  0  0  0
    0.3510  -12.4420    1.2810 C   0  0  0  0  0  0  0  0  0  0  0  0
    4.8840  -14.6990   -0.5220 C   0  0  0  0  0  0  0  0  0  0  0  0
    7.8840  -16.7410   -1.2580 C   0  0  0  0  0  0  0  0  0  0  0  0
    9.3500  -16.5430   -1.3400 C   0  0  0  0  0  0  0  0  0  0  0  0
    9.9790  -15.4110   -1.2770 N   0  0  0  0  0  0  0  0  0  0  0  0
    9.1970  -14.2950   -1.1050 C   0  0  0  0  0  0  0  0  0  0  0  0
   11.6600  -12.4450   -2.1310 C   0  0  0  0  0  0  0  0  0  0  0  0
   15.7740  -11.8210   -3.9350 H   0  0  0  0  0  0  0  0  0  0  0  0
   15.5890  -11.5500   -2.2300 H   0  0  0  0  0  0  0  0  0  0  0  0
   14.4304  -10.8023   -0.9815 H   0  0  0  0  0  0  0  0  0  0  0  0
   13.0116  -10.6783    1.0632 H   0  0  0  0  0  0  0  0  0  0  0  0
   10.7365  -11.6920    1.0683 H   0  0  0  0  0  0  0  0  0  0  0  0
    8.1621  -11.2269   -0.6732 H   0  0  0  0  0  0  0  0  0  0  0  0
    5.6331  -17.7860   -1.7789 H   0  0  0  0  0  0  0  0  0  0  0  0
    3.1571  -17.9923   -1.6446 H   0  0  0  0  0  0  0  0  0  0  0  0
    1.7882  -16.1031   -0.7770 H   0  0  0  0  0  0  0  0  0  0  0  0
    2.6940  -13.6210    1.0530 H   0  0  0  0  0  0  0  0  0  0  0  0
    1.2809  -10.3971   -1.2996 H   0  0  0  0  0  0  0  0  0  0  0  0
   -0.1419   -8.8013   -0.0193 H   0  0  0  0  0  0  0  0  0  0  0  0
   -1.2463   -9.5277    2.0919 H   0  0  0  0  0  0  0  0  0  0  0  0
    0.4779  -13.4754    1.6361 H   0  0  0  0  0  0  0  0  0  0  0  0
    5.3715  -13.7618   -0.2153 H   0  0  0  0  0  0  0  0  0  0  0  0
    7.4274  -17.7390   -1.3318 H   0  0  0  0  0  0  0  0  0  0  0  0
    9.9657  -17.4457   -1.4669 H   0  0  0  0  0  0  0  0  0  0  0  0
   11.2748  -12.9263   -3.0420 H   0  0  0  0  0  0  0  0  0  0  0  0
  1  2  1  0
  2  3  2  0
  2  4  1  0
  4  5  2  0
  5  6  1  0
  6  7  2  0
  7  8  1  0
  8  9  1  0
  9 10  1  0
 10 11  2  0
 11 12  1  0
 12 13  1  0
 13 14  1  0
 14 15  2  0
 15 16  1  0
 16 17  2  0
 17 18  1  0
 18 19  1  0
 19 20  1  0
 20 21  2  0
 20 22  1  0
 22 23  2  0
 23 24  1  0
 24 25  2  0
 25 26  1  0
 26 27  1  0
 27 28  1  0
 27 29  1  0
 27 30  1  0
 26 31  2  0
 18 32  2  0
 13 33  2  0
 33 34  1  0
 34 35  2  0
 35 36  1  0
  8 37  2  0
 37  4  1  0
 36  9  2  0
 36 12  1  0
 32 14  1  0
 31 22  1  0
  1 38  1  0
  1 39  1  0
  5 40  1  0
  6 41  1  0
  7 42  1  0
 10 43  1  0
 15 44  1  0
 16 45  1  0
 17 46  1  0
 19 47  1  0
 23 48  1  0
 24 49  1  0
 25 50  1  0
 31 51  1  0
 32 52  1  0
 33 53  1  0
 34 54  1  0
 37 55  1  0
M  END
>  <meeko>  (4) 
{"is_sidechain": [false], "free_energy": -9.188, "intermolecular_energy": -12.986, "internal_energy": -0.58}

$$$$
LIB_CSYGIPIOQSVIRG__M_PUB_ALL__e8__s20260927
     RDKit          3D

 55 59  0  0  0  0  0  0  0  0999 V2000
    1.2140  -15.6110    6.6310 N   0  0  0  0  0  0  0  0  0  0  0  0
    0.8840  -15.0480    5.4300 C   0  0  0  0  0  0  0  0  0  0  0  0
    0.1840  -14.0450    5.3790 O   0  0  0  0  0  0  0  0  0  0  0  0
    1.3750  -15.7190    4.1980 C   0  0  0  0  0  0  0  0  0  0  0  0
    1.5040  -17.1120    4.2080 C   0  0  0  0  0  0  0  0  0  0  0  0
    1.9730  -17.7790    3.0780 C   0  0  0  0  0  0  0  0  0  0  0  0
    2.3090  -17.0570    1.9310 C   0  0  0  0  0  0  0  0  0  0  0  0
    2.1730  -15.6600    1.8970 C   0  0  0  0  0  0  0  0  0  0  0  0
    2.5090  -14.9250    0.6870 C   0  0  0  0  0  0  0  0  0  0  0  0
    3.6030  -14.0750    0.4270 C   0  0  0  0  0  0  0  0  0  0  0  0
    3.5880  -13.5520   -0.7960 N   0  0  0  0  0  0  0  0  0  0  0  0
    2.4550  -14.0460   -1.3700 N   0  0  0  0  0  0  0  0  0  0  0  0
    1.9510  -13.7920   -2.6630 C   0  0  0  0  0  0  0  0  0  0  0  0
    2.6470  -12.9090   -3.6240 C   0  0  0  0  0  0  0  0  0  0  0  0
    2.5460  -11.5170   -3.5170 C   0  0  0  0  0  0  0  0  0  0  0  0
    3.2040  -10.6880   -4.4250 C   0  0  0  0  0  0  0  0  0  0  0  0
    3.9760  -11.2430   -5.4450 C   0  0  0  0  0  0  0  0  0  0  0  0
    4.1000  -12.6310   -5.5690 C   0  0  0  0  0  0  0  0  0  0  0  0
    4.8980  -13.1170   -6.6260 N   0  0  0  0  0  0  0  0  0  0  0  0
    6.1400  -13.7200   -6.5280 C   0  0  0  0  0  0  0  0  0  0  0  0
    6.8220  -13.8330   -5.5160 O   0  0  0  0  0  0  0  0  0  0  0  0
    6.6980  -14.2230   -7.8150 C   0  0  0  0  0  0  0  0  0  0  0  0
    7.1150  -15.5570   -7.8860 C   0  0  0  0  0  0  0  0  0  0  0  0
    7.6350  -16.0670   -9.0750 C   0  0  0  0  0  0  0  0  0  0  0  0
    7.7340  -15.2490  -10.2020 C   0  0  0  0  0  0  0  0  0  0  0  0
    7.3090  -13.9120  -10.1540 C   0  0  0  0  0  0  0  0  0  0  0  0
    7.3780  -13.0380  -11.3830 C   0  0  0  0  0  0  0  0  0  0  0  0
    8.6140  -12.4970  -11.5710 F   0  0  0  0  0  0  0  0  0  0  0  0
    6.5140  -11.9910  -11.3240 F   0  0  0  0  0  0  0  0  0  0  0  0
    7.0870  -13.7060  -12.5340 F   0  0  0  0  0  0  0  0  0  0  0  0
    6.7800  -13.4070   -8.9530 C   0  0  0  0  0  0  0  0  0  0  0  0
    3.4250  -13.4540   -4.6620 C   0  0  0  0  0  0  0  0  0  0  0  0
    0.8030  -14.3860   -3.0400 C   0  0  0  0  0  0  0  0  0  0  0  0
    0.1580  -15.2640   -2.0350 C   0  0  0  0  0  0  0  0  0  0  0  0
    0.5980  -15.5220   -0.8430 N   0  0  0  0  0  0  0  0  0  0  0  0
    1.7710  -14.9040   -0.4860 C   0  0  0  0  0  0  0  0  0  0  0  0
    1.6920  -15.0010    3.0380 C   0  0  0  0  0  0  0  0  0  0  0  0
    0.8680  -15.1590    7.4660 H   0  0  0  0  0  0  0  0  0  0  0  0
    1.7090  -16.4860    6.7270 H   0  0  0  0  0  0  0  0  0  0  0  0
    1.2347  -17.6818    5.1096 H   0  0  0  0  0  0  0  0  0  0  0  0
    2.0785  -18.8739    3.0895 H   0  0  0  0  0  0  0  0  0  0  0  0
    2.6844  -17.5886    1.0442 H   0  0  0  0  0  0  0  0  0  0  0  0
    4.3923  -13.8646    1.1637 H   0  0  0  0  0  0  0  0  0  0  0  0
    1.9431  -11.0737   -2.7107 H   0  0  0  0  0  0  0  0  0  0  0  0
    3.1140   -9.5953   -4.3365 H   0  0  0  0  0  0  0  0  0  0  0  0
    4.4921  -10.5837   -6.1584 H   0  0  0  0  0  0  0  0  0  0  0  0
    4.5360  -12.9550   -7.5570 H   0  0  0  0  0  0  0  0  0  0  0  0
    7.0323  -16.2052   -7.0011 H   0  0  0  0  0  0  0  0  0  0  0  0
    7.9674  -17.1144   -9.1250 H   0  0  0  0  0  0  0  0  0  0  0  0
    8.1488  -15.6559  -11.1360 H   0  0  0  0  0  0  0  0  0  0  0  0
    6.4284  -12.3658   -8.9056 H   0  0  0  0  0  0  0  0  0  0  0  0
    3.5037  -14.5466   -4.7618 H   0  0  0  0  0  0  0  0  0  0  0  0
    0.3681  -14.2285   -4.0380 H   0  0  0  0  0  0  0  0  0  0  0  0
   -0.7870  -15.7439   -2.3294 H   0  0  0  0  0  0  0  0  0  0  0  0
    1.5624  -13.9088    3.0216 H   0  0  0  0  0  0  0  0  0  0  0  0
  1  2  1  0
  2  3  2  0
  2  4  1  0
  4  5  2  0
  5  6  1  0
  6  7  2  0
  7  8  1  0
  8  9  1  0
  9 10  1  0
 10 11  2  0
 11 12  1  0
 12 13  1  0
 13 14  1  0
 14 15  2  0
 15 16  1  0
 16 17  2  0
 17 18  1  0
 18 19  1  0
 19 20  1  0
 20 21  2  0
 20 22  1  0
 22 23  2  0
 23 24  1  0
 24 25  2  0
 25 26  1  0
 26 27  1  0
 27 28  1  0
 27 29  1  0
 27 30  1  0
 26 31  2  0
 18 32  2  0
 13 33  2  0
 33 34  1  0
 34 35  2  0
 35 36  1  0
  8 37  2  0
 37  4  1  0
 36  9  2  0
 36 12  1  0
 32 14  1  0
 31 22  1  0
  1 38  1  0
  1 39  1  0
  5 40  1  0
  6 41  1  0
  7 42  1  0
 10 43  1  0
 15 44  1  0
 16 45  1  0
 17 46  1  0
 19 47  1  0
 23 48  1  0
 24 49  1  0
 25 50  1  0
 31 51  1  0
 32 52  1  0
 33 53  1  0
 34 54  1  0
 37 55  1  0
M  END
>  <meeko>  (5) 
{"is_sidechain": [false], "free_energy": -9.114, "intermolecular_energy": -12.306, "internal_energy": -1.159}

$$$$
LIB_CSYGIPIOQSVIRG__M_PUB_ALL__e8__s20260927
     RDKit          3D

 55 59  0  0  0  0  0  0  0  0999 V2000
   14.6540  -11.7490   -2.8360 N   0  0  0  0  0  0  0  0  0  0  0  0
   13.3820  -12.0460   -3.2390 C   0  0  0  0  0  0  0  0  0  0  0  0
   13.1070  -12.1410   -4.4290 O   0  0  0  0  0  0  0  0  0  0  0  0
   12.3470  -12.2090   -2.1850 C   0  0  0  0  0  0  0  0  0  0  0  0
   12.7590  -12.2200   -0.8480 C   0  0  0  0  0  0  0  0  0  0  0  0
   11.8220  -12.3840    0.1700 C   0  0  0  0  0  0  0  0  0  0  0  0
   10.4680  -12.5300   -0.1430 C   0  0  0  0  0  0  0  0  0  0  0  0
   10.0350  -12.5070   -1.4780 C   0  0  0  0  0  0  0  0  0  0  0  0
    8.6180  -12.6410   -1.7860 C   0  0  0  0  0  0  0  0  0  0  0  0
    7.5890  -11.6810   -1.7150 C   0  0  0  0  0  0  0  0  0  0  0  0
    6.3960  -12.1590   -2.0600 N   0  0  0  0  0  0  0  0  0  0  0  0
    6.6200  -13.4700   -2.3540 N   0  0  0  0  0  0  0  0  0  0  0  0
    5.6840  -14.4440   -2.7590 C   0  0  0  0  0  0  0  0  0  0  0  0
    4.2480  -14.1350   -2.9400 C   0  0  0  0  0  0  0  0  0  0  0  0
    3.6390  -14.2750   -4.1940 C   0  0  0  0  0  0  0  0  0  0  0  0
    2.2860  -13.9830   -4.3590 C   0  0  0  0  0  0  0  0  0  0  0  0
    1.5250  -13.5560   -3.2720 C   0  0  0  0  0  0  0  0  0  0  0  0
    2.1070  -13.4170   -2.0070 C   0  0  0  0  0  0  0  0  0  0  0  0
    1.2720  -12.9800   -0.9560 N   0  0  0  0  0  0  0  0  0  0  0  0
    0.8380  -13.7200    0.1300 C   0  0  0  0  0  0  0  0  0  0  0  0
    1.0040  -14.9210    0.3120 O   0  0  0  0  0  0  0  0  0  0  0  0
    0.0450  -12.9560    1.1330 C   0  0  0  0  0  0  0  0  0  0  0  0
   -0.4400  -13.6340    2.2580 C   0  0  0  0  0  0  0  0  0  0  0  0
   -1.1800  -12.9520    3.2230 C   0  0  0  0  0  0  0  0  0  0  0  0
   -1.4330  -11.5870    3.0740 C   0  0  0  0  0  0  0  0  0  0  0  0
   -0.9450  -10.8880    1.9590 C   0  0  0  0  0  0  0  0  0  0  0  0
   -1.1830   -9.4030    1.8180 C   0  0  0  0  0  0  0  0  0  0  0  0
   -1.3510   -8.7850    3.0210 F   0  0  0  0  0  0  0  0  0  0  0  0
   -2.2970   -9.1240    1.0930 F   0  0  0  0  0  0  0  0  0  0  0  0
   -0.1570   -8.7500    1.2060 F   0  0  0  0  0  0  0  0  0  0  0  0
   -0.1930  -11.5810    0.9940 C   0  0  0  0  0  0  0  0  0  0  0  0
    3.4680  -13.6980   -1.8530 C   0  0  0  0  0  0  0  0  0  0  0  0
    6.1140  -15.6970   -3.0040 C   0  0  0  0  0  0  0  0  0  0  0  0
    7.5630  -15.9410   -2.8110 C   0  0  0  0  0  0  0  0  0  0  0  0
    8.4490  -15.0670   -2.4460 N   0  0  0  0  0  0  0  0  0  0  0  0
    7.9820  -13.7980   -2.2050 C   0  0  0  0  0  0  0  0  0  0  0  0
   10.9860  -12.3330   -2.4940 C   0  0  0  0  0  0  0  0  0  0  0  0
   15.3520  -11.6270   -3.5570 H   0  0  0  0  0  0  0  0  0  0  0  0
   14.9140  -11.5700   -1.8780 H   0  0  0  0  0  0  0  0  0  0  0  0
   13.8239  -12.0990   -0.6003 H   0  0  0  0  0  0  0  0  0  0  0  0
   12.1482  -12.3986    1.2204 H   0  0  0  0  0  0  0  0  0  0  0  0
    9.7339  -12.6643    0.6651 H   0  0  0  0  0  0  0  0  0  0  0  0
    7.7555  -10.6388   -1.4049 H   0  0  0  0  0  0  0  0  0  0  0  0
    4.2327  -14.6177   -5.0543 H   0  0  0  0  0  0  0  0  0  0  0  0
    1.8180  -14.0897   -5.3488 H   0  0  0  0  0  0  0  0  0  0  0  0
    0.4581  -13.3264   -3.4097 H   0  0  0  0  0  0  0  0  0  0  0  0
    0.9180  -12.0370   -1.0440 H   0  0  0  0  0  0  0  0  0  0  0  0
   -0.2366  -14.7080    2.3808 H   0  0  0  0  0  0  0  0  0  0  0  0
   -1.5647  -13.4896    4.1022 H   0  0  0  0  0  0  0  0  0  0  0  0
   -2.0199  -11.0548    3.8371 H   0  0  0  0  0  0  0  0  0  0  0  0
    0.2111  -11.0414    0.1248 H   0  0  0  0  0  0  0  0  0  0  0  0
    3.9371  -13.5755   -0.8656 H   0  0  0  0  0  0  0  0  0  0  0  0
    5.4286  -16.4937   -3.3288 H   0  0  0  0  0  0  0  0  0  0  0  0
    7.9224  -16.9641   -2.9955 H   0  0  0  0  0  0  0  0  0  0  0  0
   10.6602  -12.2935   -3.5439 H   0  0  0  0  0  0  0  0  0  0  0  0
  1  2  1  0
  2  3  2  0
  2  4  1  0
  4  5  2  0
  5  6  1  0
  6  7  2  0
  7  8  1  0
  8  9  1  0
  9 10  1  0
 10 11  2  0
 11 12  1  0
 12 13  1  0
 13 14  1  0
 14 15  2  0
 15 16  1  0
 16 17  2  0
 17 18  1  0
 18 19  1  0
 19 20  1  0
 20 21  2  0
 20 22  1  0
 22 23  2  0
 23 24  1  0
 24 25  2  0
 25 26  1  0
 26 27  1  0
 27 28  1  0
 27 29  1  0
 27 30  1  0
 26 31  2  0
 18 32  2  0
 13 33  2  0
 33 34  1  0
 34 35  2  0
 35 36  1  0
  8 37  2  0
 37  4  1  0
 36  9  2  0
 36 12  1  0
 32 14  1  0
 31 22  1  0
  1 38  1  0
  1 39  1  0
  5 40  1  0
  6 41  1  0
  7 42  1  0
 10 43  1  0
 15 44  1  0
 16 45  1  0
 17 46  1  0
 19 47  1  0
 23 48  1  0
 24 49  1  0
 25 50  1  0
 31 51  1  0
 32 52  1  0
 33 53  1  0
 34 54  1  0
 37 55  1  0
M  END
>  <meeko>  (6) 
{"is_sidechain": [false], "free_energy": -8.926, "intermolecular_energy": -12.106, "internal_energy": -1.105}

$$$$
LIB_CSYGIPIOQSVIRG__M_PUB_ALL__e8__s20260927
     RDKit          3D

 55 59  0  0  0  0  0  0  0  0999 V2000
   15.0200  -12.3380   -3.3400 N   0  0  0  0  0  0  0  0  0  0  0  0
   13.7230  -11.9100   -3.3430 C   0  0  0  0  0  0  0  0  0  0  0  0
   13.4560  -10.7140   -3.3630 O   0  0  0  0  0  0  0  0  0  0  0  0
   12.6570  -12.9440   -3.2840 C   0  0  0  0  0  0  0  0  0  0  0  0
   13.0400  -14.2900   -3.2700 C   0  0  0  0  0  0  0  0  0  0  0  0
   12.0720  -15.2920   -3.2280 C   0  0  0  0  0  0  0  0  0  0  0  0
   10.7170  -14.9520   -3.1930 C   0  0  0  0  0  0  0  0  0  0  0  0
   10.3150  -13.6080   -3.1920 C   0  0  0  0  0  0  0  0  0  0  0  0
    8.8990  -13.2710   -3.1360 C   0  0  0  0  0  0  0  0  0  0  0  0
    7.9050  -13.4040   -4.1260 C   0  0  0  0  0  0  0  0  0  0  0  0
    6.7070  -12.9780   -3.7320 N   0  0  0  0  0  0  0  0  0  0  0  0
    6.8980  -12.5350   -2.4580 N   0  0  0  0  0  0  0  0  0  0  0  0
    5.9520  -11.9630   -1.5830 C   0  0  0  0  0  0  0  0  0  0  0  0
    4.5340  -11.7760   -1.9640 C   0  0  0  0  0  0  0  0  0  0  0  0
    4.1850  -11.4450   -3.2790 C   0  0  0  0  0  0  0  0  0  0  0  0
    2.8480  -11.2690   -3.6330 C   0  0  0  0  0  0  0  0  0  0  0  0
    1.8450  -11.4310   -2.6780 C   0  0  0  0  0  0  0  0  0  0  0  0
    2.1660  -11.7710   -1.3590 C   0  0  0  0  0  0  0  0  0  0  0  0
    1.0970  -11.9170   -0.4500 N   0  0  0  0  0  0  0  0  0  0  0  0
    0.3320  -10.9100    0.1110 C   0  0  0  0  0  0  0  0  0  0  0  0
    0.5220   -9.7030    0.0110 O   0  0  0  0  0  0  0  0  0  0  0  0
   -0.7980  -11.3780    0.9610 C   0  0  0  0  0  0  0  0  0  0  0  0
   -0.6720  -11.2830    2.3520 C   0  0  0  0  0  0  0  0  0  0  0  0
   -1.7110  -11.7050    3.1810 C   0  0  0  0  0  0  0  0  0  0  0  0
   -2.8850  -12.2160    2.6250 C   0  0  0  0  0  0  0  0  0  0  0  0
   -3.0350  -12.3080    1.2330 C   0  0  0  0  0  0  0  0  0  0  0  0
   -4.3200  -12.8230    0.6300 C   0  0  0  0  0  0  0  0  0  0  0  0
   -4.1300  -13.9400   -0.1270 F   0  0  0  0  0  0  0  0  0  0  0  0
   -4.9110  -11.9120   -0.1870 F   0  0  0  0  0  0  0  0  0  0  0  0
   -5.2530  -13.1600    1.5610 F   0  0  0  0  0  0  0  0  0  0  0  0
   -1.9850  -11.8750    0.4030 C   0  0  0  0  0  0  0  0  0  0  0  0
    3.5110  -11.9310   -1.0100 C   0  0  0  0  0  0  0  0  0  0  0  0
    6.3480  -11.5880   -0.3520 C   0  0  0  0  0  0  0  0  0  0  0  0
    7.7770  -11.8080   -0.0290 C   0  0  0  0  0  0  0  0  0  0  0  0
    8.6710  -12.3350   -0.8080 N   0  0  0  0  0  0  0  0  0  0  0  0
    8.2370  -12.7100   -2.0560 C   0  0  0  0  0  0  0  0  0  0  0  0
   11.2980  -12.6080   -3.2260 C   0  0  0  0  0  0  0  0  0  0  0  0
   15.7420  -11.6300   -3.3670 H   0  0  0  0  0  0  0  0  0  0  0  0
   15.2960  -13.3030   -3.2320 H   0  0  0  0  0  0  0  0  0  0  0  0
   14.1067  -14.5576   -3.2922 H   0  0  0  0  0  0  0  0  0  0  0  0
   12.3744  -16.3496   -3.2224 H   0  0  0  0  0  0  0  0  0  0  0  0
    9.9572  -15.7470   -3.1659 H   0  0  0  0  0  0  0  0  0  0  0  0
    8.0999  -13.8190   -5.1259 H   0  0  0  0  0  0  0  0  0  0  0  0
    4.9715  -11.3229   -4.0383 H   0  0  0  0  0  0  0  0  0  0  0  0
    2.5841  -11.0020   -4.6670 H   0  0  0  0  0  0  0  0  0  0  0  0
    0.7922  -11.2903   -2.9639 H   0  0  0  0  0  0  0  0  0  0  0  0
    0.9120  -12.8640   -0.1430 H   0  0  0  0  0  0  0  0  0  0  0  0
    0.2494  -10.8742    2.7925 H   0  0  0  0  0  0  0  0  0  0  0  0
   -1.6053  -11.6351    4.2737 H   0  0  0  0  0  0  0  0  0  0  0  0
   -3.7000  -12.5496    3.2842 H   0  0  0  0  0  0  0  0  0  0  0  0
   -2.0955  -11.9265   -0.6902 H   0  0  0  0  0  0  0  0  0  0  0  0
    3.7737  -12.1823    0.0282 H   0  0  0  0  0  0  0  0  0  0  0  0
    5.6501  -11.1435    0.3728 H   0  0  0  0  0  0  0  0  0  0  0  0
    8.1134  -11.4935    0.9700 H   0  0  0  0  0  0  0  0  0  0  0  0
   10.9990  -11.5496   -3.2069 H   0  0  0  0  0  0  0  0  0  0  0  0
  1  2  1  0
  2  3  2  0
  2  4  1  0
  4  5  2  0
  5  6  1  0
  6  7  2  0
  7  8  1  0
  8  9  1  0
  9 10  1  0
 10 11  2  0
 11 12  1  0
 12 13  1  0
 13 14  1  0
 14 15  2  0
 15 16  1  0
 16 17  2  0
 17 18  1  0
 18 19  1  0
 19 20  1  0
 20 21  2  0
 20 22  1  0
 22 23  2  0
 23 24  1  0
 24 25  2  0
 25 26  1  0
 26 27  1  0
 27 28  1  0
 27 29  1  0
 27 30  1  0
 26 31  2  0
 18 32  2  0
 13 33  2  0
 33 34  1  0
 34 35  2  0
 35 36  1  0
  8 37  2  0
 37  4  1  0
 36  9  2  0
 36 12  1  0
 32 14  1  0
 31 22  1  0
  1 38  1  0
  1 39  1  0
  5 40  1  0
  6 41  1  0
  7 42  1  0
 10 43  1  0
 15 44  1  0
 16 45  1  0
 17 46  1  0
 19 47  1  0
 23 48  1  0
 24 49  1  0
 25 50  1  0
 31 51  1  0
 32 52  1  0
 33 53  1  0
 34 54  1  0
 37 55  1  0
M  END
>  <meeko>  (7) 
{"is_sidechain": [false], "free_energy": -8.863, "intermolecular_energy": -12.436, "internal_energy": -0.691}

$$$$
LIB_CSYGIPIOQSVIRG__M_PUB_ALL__e8__s20260927
     RDKit          3D

 55 59  0  0  0  0  0  0  0  0999 V2000
   13.8390  -13.2050   -3.1450 N   0  0  0  0  0  0  0  0  0  0  0  0
   13.0330  -12.1190   -2.9440 C   0  0  0  0  0  0  0  0  0  0  0  0
   13.2460  -11.0630   -3.5270 O   0  0  0  0  0  0  0  0  0  0  0  0
   11.9200  -12.2600   -1.9690 C   0  0  0  0  0  0  0  0  0  0  0  0
   12.2190  -12.1760   -0.6050 C   0  0  0  0  0  0  0  0  0  0  0  0
   11.2060  -12.3150    0.3420 C   0  0  0  0  0  0  0  0  0  0  0  0
    9.8900  -12.5330   -0.0700 C   0  0  0  0  0  0  0  0  0  0  0  0
    9.5690  -12.6070   -1.4340 C   0  0  0  0  0  0  0  0  0  0  0  0
    8.1880  -12.8150   -1.8470 C   0  0  0  0  0  0  0  0  0  0  0  0
    7.0940  -11.9280   -1.8040 C   0  0  0  0  0  0  0  0  0  0  0  0
    5.9620  -12.4620   -2.2540 N   0  0  0  0  0  0  0  0  0  0  0  0
    6.2930  -13.7400   -2.5940 N   0  0  0  0  0  0  0  0  0  0  0  0
    5.4540  -14.7490   -3.1100 C   0  0  0  0  0  0  0  0  0  0  0  0
    4.0160  -14.5240   -3.3770 C   0  0  0  0  0  0  0  0  0  0  0  0
    3.5910  -13.9920   -4.6000 C   0  0  0  0  0  0  0  0  0  0  0  0
    2.2350  -13.7820   -4.8470 C   0  0  0  0  0  0  0  0  0  0  0  0
    1.2890  -14.1080   -3.8770 C   0  0  0  0  0  0  0  0  0  0  0  0
    1.6870  -14.6490   -2.6490 C   0  0  0  0  0  0  0  0  0  0  0  0
    0.6710  -14.9540   -1.7170 N   0  0  0  0  0  0  0  0  0  0  0  0
    0.2170  -14.1540   -0.6830 C   0  0  0  0  0  0  0  0  0  0  0  0
    0.6950  -13.0860   -0.3190 O   0  0  0  0  0  0  0  0  0  0  0  0
   -0.9400  -14.7060    0.0750 C   0  0  0  0  0  0  0  0  0  0  0  0
   -1.0200  -16.0910    0.2580 C   0  0  0  0  0  0  0  0  0  0  0  0
   -2.0850  -16.6450    0.9690 C   0  0  0  0  0  0  0  0  0  0  0  0
   -3.0710  -15.8170    1.5080 C   0  0  0  0  0  0  0  0  0  0  0  0
   -3.0010  -14.4240    1.3460 C   0  0  0  0  0  0  0  0  0  0  0  0
   -4.0450  -13.5250    1.9640 C   0  0  0  0  0  0  0  0  0  0  0  0
   -3.5340  -12.3250    2.3580 F   0  0  0  0  0  0  0  0  0  0  0  0
   -4.6120  -14.0730    3.0710 F   0  0  0  0  0  0  0  0  0  0  0  0
   -5.0710  -13.2320    1.1180 F   0  0  0  0  0  0  0  0  0  0  0  0
   -1.9210  -13.8730    0.6340 C   0  0  0  0  0  0  0  0  0  0  0  0
    3.0500  -14.8440   -2.4040 C   0  0  0  0  0  0  0  0  0  0  0  0
    5.9830  -15.9570   -3.3830 C   0  0  0  0  0  0  0  0  0  0  0  0
    7.4290  -16.1180   -3.1000 C   0  0  0  0  0  0  0  0  0  0  0  0
    8.2280  -15.2090   -2.6320 N   0  0  0  0  0  0  0  0  0  0  0  0
    7.6610  -13.9870   -2.3650 C   0  0  0  0  0  0  0  0  0  0  0  0
   10.5950  -12.4560   -2.3790 C   0  0  0  0  0  0  0  0  0  0  0  0
   14.6020  -13.1010   -3.8000 H   0  0  0  0  0  0  0  0  0  0  0  0
   13.7640  -14.0670   -2.6240 H   0  0  0  0  0  0  0  0  0  0  0  0
   13.2549  -12.0000   -0.2795 H   0  0  0  0  0  0  0  0  0  0  0  0
   11.4434  -12.2529    1.4143 H   0  0  0  0  0  0  0  0  0  0  0  0
    9.0962  -12.6480    0.6828 H   0  0  0  0  0  0  0  0  0  0  0  0
    7.1688  -10.8947   -1.4343 H   0  0  0  0  0  0  0  0  0  0  0  0
    4.3323  -13.7377   -5.3719 H   0  0  0  0  0  0  0  0  0  0  0  0
    1.9113  -13.3583   -5.8091 H   0  0  0  0  0  0  0  0  0  0  0  0
    0.2209  -13.9388   -4.0781 H   0  0  0  0  0  0  0  0  0  0  0  0
    0.2760  -15.8820   -1.7920 H   0  0  0  0  0  0  0  0  0  0  0  0
   -0.2407  -16.7451   -0.1601 H   0  0  0  0  0  0  0  0  0  0  0  0
   -2.1476  -17.7348    1.1048 H   0  0  0  0  0  0  0  0  0  0  0  0
   -3.9102  -16.2596    2.0646 H   0  0  0  0  0  0  0  0  0  0  0  0
   -1.8447  -12.7822    0.5145 H   0  0  0  0  0  0  0  0  0  0  0  0
    3.3725  -15.2540   -1.4355 H   0  0  0  0  0  0  0  0  0  0  0  0
    5.3762  -16.7779   -3.7929 H   0  0  0  0  0  0  0  0  0  0  0  0
    7.8680  -17.1051   -3.3071 H   0  0  0  0  0  0  0  0  0  0  0  0
   10.3566  -12.4919   -3.4523 H   0  0  0  0  0  0  0  0  0  0  0  0
  1  2  1  0
  2  3  2  0
  2  4  1  0
  4  5  2  0
  5  6  1  0
  6  7  2  0
  7  8  1  0
  8  9  1  0
  9 10  1  0
 10 11  2  0
 11 12  1  0
 12 13  1  0
 13 14  1  0
 14 15  2  0
 15 16  1  0
 16 17  2  0
 17 18  1  0
 18 19  1  0
 19 20  1  0
 20 21  2  0
 20 22  1  0
 22 23  2  0
 23 24  1  0
 24 25  2  0
 25 26  1  0
 26 27  1  0
 27 28  1  0
 27 29  1  0
 27 30  1  0
 26 31  2  0
 18 32  2  0
 13 33  2  0
 33 34  1  0
 34 35  2  0
 35 36  1  0
  8 37  2  0
 37  4  1  0
 36  9  2  0
 36 12  1  0
 32 14  1  0
 31 22  1  0
  1 38  1  0
  1 39  1  0
  5 40  1  0
  6 41  1  0
  7 42  1  0
 10 43  1  0
 15 44  1  0
 16 45  1  0
 17 46  1  0
 19 47  1  0
 23 48  1  0
 24 49  1  0
 25 50  1  0
 31 51  1  0
 32 52  1  0
 33 53  1  0
 34 54  1  0
 37 55  1  0
M  END
>  <meeko>  (8) 
{"is_sidechain": [false], "free_energy": -8.691, "intermolecular_energy": -11.699, "internal_energy": -1.195}

$$$$
LIB_CSYGIPIOQSVIRG__M_PUB_ALL__e8__s20260927
     RDKit          3D

 55 59  0  0  0  0  0  0  0  0999 V2000
   11.8300  -16.3390  -10.8420 N   0  0  0  0  0  0  0  0  0  0  0  0
   13.0670  -16.8650  -10.5940 C   0  0  0  0  0  0  0  0  0  0  0  0
   13.5110  -17.7760  -11.2820 O   0  0  0  0  0  0  0  0  0  0  0  0
   13.8280  -16.3160   -9.4410 C   0  0  0  0  0  0  0  0  0  0  0  0
   15.2240  -16.2730   -9.5290 C   0  0  0  0  0  0  0  0  0  0  0  0
   15.9760  -15.7780   -8.4650 C   0  0  0  0  0  0  0  0  0  0  0  0
   15.3360  -15.3180   -7.3120 C   0  0  0  0  0  0  0  0  0  0  0  0
   13.9360  -15.3400   -7.2120 C   0  0  0  0  0  0  0  0  0  0  0  0
   13.2840  -14.8380   -6.0110 C   0  0  0  0  0  0  0  0  0  0  0  0
   12.6260  -13.6120   -5.7920 C   0  0  0  0  0  0  0  0  0  0  0  0
   12.1540  -13.4780   -4.5550 N   0  0  0  0  0  0  0  0  0  0  0  0
   12.5130  -14.6300   -3.9210 N   0  0  0  0  0  0  0  0  0  0  0  0
   12.2740  -14.9970   -2.5800 C   0  0  0  0  0  0  0  0  0  0  0  0
   11.5420  -14.1220   -1.6380 C   0  0  0  0  0  0  0  0  0  0  0  0
   12.2040  -13.5190   -0.5620 C   0  0  0  0  0  0  0  0  0  0  0  0
   11.5100  -12.6950    0.3230 C   0  0  0  0  0  0  0  0  0  0  0  0
   10.1490  -12.4590    0.1370 C   0  0  0  0  0  0  0  0  0  0  0  0
    9.4660  -13.0430   -0.9360 C   0  0  0  0  0  0  0  0  0  0  0  0
    8.0890  -12.7560   -1.0580 N   0  0  0  0  0  0  0  0  0  0  0  0
    7.4780  -11.9890   -2.0350 C   0  0  0  0  0  0  0  0  0  0  0  0
    8.0350  -11.3250   -2.9010 O   0  0  0  0  0  0  0  0  0  0  0  0
    5.9910  -11.9490   -1.9620 C   0  0  0  0  0  0  0  0  0  0  0  0
    5.3660  -12.4120   -0.7980 C   0  0  0  0  0  0  0  0  0  0  0  0
    3.9760  -12.3830   -0.6890 C   0  0  0  0  0  0  0  0  0  0  0  0
    3.2020  -11.8850   -1.7390 C   0  0  0  0  0  0  0  0  0  0  0  0
    3.8120  -11.4040   -2.9090 C   0  0  0  0  0  0  0  0  0  0  0  0
    2.9780  -10.8270   -4.0280 C   0  0  0  0  0  0  0  0  0  0  0  0
    2.2500   -9.7460   -3.6320 F   0  0  0  0  0  0  0  0  0  0  0  0
    2.0830  -11.7220   -4.5220 F   0  0  0  0  0  0  0  0  0  0  0  0
    3.7200  -10.4070   -5.0890 F   0  0  0  0  0  0  0  0  0  0  0  0
    5.2140  -11.4300   -3.0080 C   0  0  0  0  0  0  0  0  0  0  0  0
   10.1670  -13.8790   -1.8100 C   0  0  0  0  0  0  0  0  0  0  0  0
   12.7160  -16.1930   -2.1460 C   0  0  0  0  0  0  0  0  0  0  0  0
   13.4360  -17.0250   -3.1390 C   0  0  0  0  0  0  0  0  0  0  0  0
   13.6660  -16.7190   -4.3780 N   0  0  0  0  0  0  0  0  0  0  0  0
   13.2030  -15.4950   -4.7930 C   0  0  0  0  0  0  0  0  0  0  0  0
   13.1890  -15.8320   -8.2920 C   0  0  0  0  0  0  0  0  0  0  0  0
   11.3100  -16.7240  -11.6190 H   0  0  0  0  0  0  0  0  0  0  0  0
   11.3790  -15.6540  -10.2530 H   0  0  0  0  0  0  0  0  0  0  0  0
   15.7284  -16.6303  -10.4389 H   0  0  0  0  0  0  0  0  0  0  0  0
   17.0735  -15.7496   -8.5334 H   0  0  0  0  0  0  0  0  0  0  0  0
   15.9354  -14.9343   -6.4733 H   0  0  0  0  0  0  0  0  0  0  0  0
   12.5133  -12.8405   -6.5679 H   0  0  0  0  0  0  0  0  0  0  0  0
   13.2794  -13.6965   -0.4137 H   0  0  0  0  0  0  0  0  0  0  0  0
   12.0373  -12.2305    1.1692 H   0  0  0  0  0  0  0  0  0  0  0  0
    9.6072  -11.8084    0.8393 H   0  0  0  0  0  0  0  0  0  0  0  0
    7.5020  -13.1130   -0.3160 H   0  0  0  0  0  0  0  0  0  0  0  0
    5.9732  -12.7999    0.0332 H   0  0  0  0  0  0  0  0  0  0  0  0
    3.4888  -12.7529    0.2252 H   0  0  0  0  0  0  0  0  0  0  0  0
    2.1058  -11.8693   -1.6491 H   0  0  0  0  0  0  0  0  0  0  0  0
    5.7051  -11.0406   -3.9120 H   0  0  0  0  0  0  0  0  0  0  0  0
    9.6344  -14.3550   -2.6465 H   0  0  0  0  0  0  0  0  0  0  0  0
   12.5519  -16.5331   -1.1128 H   0  0  0  0  0  0  0  0  0  0  0  0
   13.8124  -17.9981   -2.7906 H   0  0  0  0  0  0  0  0  0  0  0  0
   12.0904  -15.8380   -8.2365 H   0  0  0  0  0  0  0  0  0  0  0  0
  1  2  1  0
  2  3  2  0
  2  4  1  0
  4  5  2  0
  5  6  1  0
  6  7  2  0
  7  8  1  0
  8  9  1  0
  9 10  1  0
 10 11  2  0
 11 12  1  0
 12 13  1  0
 13 14  1  0
 14 15  2  0
 15 16  1  0
 16 17  2  0
 17 18  1  0
 18 19  1  0
 19 20  1  0
 20 21  2  0
 20 22  1  0
 22 23  2  0
 23 24  1  0
 24 25  2  0
 25 26  1  0
 26 27  1  0
 27 28  1  0
 27 29  1  0
 27 30  1  0
 26 31  2  0
 18 32  2  0
 13 33  2  0
 33 34  1  0
 34 35  2  0
 35 36  1  0
  8 37  2  0
 37  4  1  0
 36  9  2  0
 36 12  1  0
 32 14  1  0
 31 22  1  0
  1 38  1  0
  1 39  1  0
  5 40  1  0
  6 41  1  0
  7 42  1  0
 10 43  1  0
 15 44  1  0
 16 45  1  0
 17 46  1  0
 19 47  1  0
 23 48  1  0
 24 49  1  0
 25 50  1  0
 31 51  1  0
 32 52  1  0
 33 53  1  0
 34 54  1  0
 37 55  1  0
M  END
>  <meeko>  (9) 
{"is_sidechain": [false], "free_energy": -8.513, "intermolecular_energy": -11.532, "internal_energy": -1.122}

$$$$
