LIB_YAYODJGNSKFEGH__M_PUB_ALL__e8__s20260927
     RDKit          3D

 65 69  0  0  0  0  0  0  0  0999 V2000
    5.8520  -16.3970   -5.3460 C   0  0  0  0  0  0  0  0  0  0  0  0
    6.7670  -15.3470   -5.6430 O   0  0  0  0  0  0  0  0  0  0  0  0
    6.8620  -14.9460   -6.9570 C   0  0  0  0  0  0  0  0  0  0  0  0
    7.2940  -15.7560   -8.0140 C   0  0  0  0  0  0  0  0  0  0  0  0
    7.3580  -15.2500   -9.3170 C   0  0  0  0  0  0  0  0  0  0  0  0
    7.7660  -15.9650  -10.4110 O   0  0  0  0  0  0  0  0  0  0  0  0
    8.5490  -17.1320  -10.1950 C   0  0  0  0  0  0  0  0  0  0  0  0
    6.9910  -13.9180   -9.5680 C   0  0  0  0  0  0  0  0  0  0  0  0
    7.0570  -13.3540  -10.9670 C   0  0  0  0  0  0  0  0  0  0  0  0
    6.7160  -12.0350  -11.0290 F   0  0  0  0  0  0  0  0  0  0  0  0
    8.3030  -13.4250  -11.5220 F   0  0  0  0  0  0  0  0  0  0  0  0
    6.2400  -14.0020  -11.8440 F   0  0  0  0  0  0  0  0  0  0  0  0
    6.5580  -13.1070   -8.5030 C   0  0  0  0  0  0  0  0  0  0  0  0
    6.4890  -13.6090   -7.2030 C   0  0  0  0  0  0  0  0  0  0  0  0
    6.0660  -12.8520   -6.0870 N   0  0  0  0  0  0  0  0  0  0  0  0
    4.7910  -12.7160   -5.5680 C   0  0  0  0  0  0  0  0  0  0  0  0
    3.8010  -13.2990   -5.9890 O   0  0  0  0  0  0  0  0  0  0  0  0
    4.7950  -11.8200   -4.5080 N   0  0  0  0  0  0  0  0  0  0  0  0
    3.7190  -11.4820   -3.6600 C   0  0  0  0  0  0  0  0  0  0  0  0
    2.9840  -10.3360   -3.9870 C   0  0  0  0  0  0  0  0  0  0  0  0
    1.9080   -9.9340   -3.1950 C   0  0  0  0  0  0  0  0  0  0  0  0
    1.5580  -10.6770   -2.0680 C   0  0  0  0  0  0  0  0  0  0  0  0
    2.2730  -11.8290   -1.7180 C   0  0  0  0  0  0  0  0  0  0  0  0
    1.8870  -12.5930   -0.5030 C   0  0  0  0  0  0  0  0  0  0  0  0
    2.5050  -13.7570   -0.2130 C   0  0  0  0  0  0  0  0  0  0  0  0
    2.1130  -14.4440    0.9150 N   0  0  0  0  0  0  0  0  0  0  0  0
    2.5340  -15.6190    1.4740 C   0  0  0  0  0  0  0  0  0  0  0  0
    1.7530  -15.7800    2.5990 C   0  0  0  0  0  0  0  0  0  0  0  0
    0.8650  -14.7400    2.7450 N   0  0  0  0  0  0  0  0  0  0  0  0
    1.1150  -13.9590    1.7130 C   0  0  0  0  0  0  0  0  0  0  0  0
    0.4690  -12.7100    1.3570 C   0  0  0  0  0  0  0  0  0  0  0  0
   -0.5380  -12.2020    2.1410 N   0  0  0  0  0  0  0  0  0  0  0  0
   -1.2150  -10.9620    1.8830 C   0  0  0  0  0  0  0  0  0  0  0  0
   -2.5040  -11.2340    1.1520 C   0  0  0  0  0  0  0  0  0  0  0  0
   -3.3360  -12.2880    1.5380 C   0  0  0  0  0  0  0  0  0  0  0  0
   -4.4990  -12.5130    0.8190 C   0  0  0  0  0  0  0  0  0  0  0  0
   -4.8790  -11.7760   -0.2450 N   0  0  0  0  0  0  0  0  0  0  0  0
   -4.0540  -10.7720   -0.6130 C   0  0  0  0  0  0  0  0  0  0  0  0
   -2.8710  -10.4680    0.0410 C   0  0  0  0  0  0  0  0  0  0  0  0
    0.8570  -12.0700    0.2760 N   0  0  0  0  0  0  0  0  0  0  0  0
    3.3660  -12.2100   -2.5190 C   0  0  0  0  0  0  0  0  0  0  0  0
    5.7585  -16.5043   -4.2552 H   0  0  0  0  0  0  0  0  0  0  0  0
    4.8682  -16.1588   -5.7767 H   0  0  0  0  0  0  0  0  0  0  0  0
    6.2225  -17.3390   -5.7767 H   0  0  0  0  0  0  0  0  0  0  0  0
    7.5854  -16.7985   -7.8186 H   0  0  0  0  0  0  0  0  0  0  0  0
    8.6631  -17.3021   -9.1142 H   0  0  0  0  0  0  0  0  0  0  0  0
    8.0490  -17.9988  -10.6518 H   0  0  0  0  0  0  0  0  0  0  0  0
    9.5406  -16.9980  -10.6518 H   0  0  0  0  0  0  0  0  0  0  0  0
    6.2701  -12.0634   -8.6978 H   0  0  0  0  0  0  0  0  0  0  0  0
    6.8270  -12.3990   -5.6000 H   0  0  0  0  0  0  0  0  0  0  0  0
    5.6490  -11.3030   -4.3650 H   0  0  0  0  0  0  0  0  0  0  0  0
    3.2571   -9.7478   -4.8755 H   0  0  0  0  0  0  0  0  0  0  0  0
    1.3364   -9.0321   -3.4592 H   0  0  0  0  0  0  0  0  0  0  0  0
    0.7099  -10.3542   -1.4463 H   0  0  0  0  0  0  0  0  0  0  0  0
    3.3027  -14.1480   -0.8617 H   0  0  0  0  0  0  0  0  0  0  0  0
    3.3242  -16.2900    1.1060 H   0  0  0  0  0  0  0  0  0  0  0  0
    1.8303  -16.6314    3.2912 H   0  0  0  0  0  0  0  0  0  0  0  0
   -0.7890  -12.7380    2.9660 H   0  0  0  0  0  0  0  0  0  0  0  0
   -1.4337  -10.4588    2.8364 H   0  0  0  0  0  0  0  0  0  0  0  0
   -0.5733  -10.3165    1.2653 H   0  0  0  0  0  0  0  0  0  0  0  0
   -3.0733  -12.9259    2.3948 H   0  0  0  0  0  0  0  0  0  0  0  0
   -5.1506  -13.3412    1.1344 H   0  0  0  0  0  0  0  0  0  0  0  0
   -4.3377  -10.1603   -1.4821 H   0  0  0  0  0  0  0  0  0  0  0  0
   -2.2338   -9.6414   -0.3064 H   0  0  0  0  0  0  0  0  0  0  0  0
    3.9540  -13.0975   -2.2423 H   0  0  0  0  0  0  0  0  0  0  0  0
  1  2  1  0
  2  3  1  0
  3  4  2  0
  4  5  1  0
  5  6  1  0
  6  7  1  0
  5  8  2  0
  8  9  1  0
  9 10  1  0
  9 11  1  0
  9 12  1  0
  8 13  1  0
 13 14  2  0
 14 15  1  0
 15 16  1  0
 16 17  2  0
 16 18  1  0
 18 19  1  0
 19 20  2  0
 20 21  1  0
 21 22  2  0
 22 23  1  0
 23 24  1  0
 24 25  2  0
 25 26  1  0
 26 27  1  0
 27 28  2  0
 28 29  1  0
 29 30  2  0
 30 31  1  0
 31 32  1  0
 32 33  1  0
 33 34  1  0
 34 35  2  0
 35 36  1  0
 36 37  2  0
 37 38  1  0
 38 39  2  0
 31 40  2  0
 23 41  2  0
 14  3  1  0
 41 19  1  0
 40 24  1  0
 30 26  1  0
 39 34  1  0
  1 42  1  0
  1 43  1  0
  1 44  1  0
  4 45  1  0
  7 46  1  0
  7 47  1  0
  7 48  1  0
 13 49  1  0
 15 50  1  0
 18 51  1  0
 20 52  1  0
 21 53  1  0
 22 54  1  0
 25 55  1  0
 27 56  1  0
 28 57  1  0
 32 58  1  0
 33 59  1  0
 33 60  1  0
 35 61  1  0
 36 62  1  0
 38 63  1  0
 39 64  1  0
 41 65  1  0
M  END
>  <meeko>  (1) 
{"is_sidechain": [false], "free_energy": -9.376, "intermolecular_energy": -13.761, "internal_energy": -1.338}

$$$$
LIB_YAYODJGNSKFEGH__M_PUB_ALL__e8__s20260927
     RDKit          3D

 65 69  0  0  0  0  0  0  0  0999 V2000
    9.3760  -14.6450   -4.8970 C   0  0  0  0  0  0  0  0  0  0  0  0
    9.1680  -13.3410   -4.3670 O   0  0  0  0  0  0  0  0  0  0  0  0
    9.9570  -12.9560   -3.3060 C   0  0  0  0  0  0  0  0  0  0  0  0
   11.3420  -12.7610   -3.3660 C   0  0  0  0  0  0  0  0  0  0  0  0
   12.0550  -12.3720   -2.2260 C   0  0  0  0  0  0  0  0  0  0  0  0
   13.4060  -12.1570   -2.1880 O   0  0  0  0  0  0  0  0  0  0  0  0
   14.1050  -12.0630   -3.4230 C   0  0  0  0  0  0  0  0  0  0  0  0
   11.3780  -12.1790   -1.0110 C   0  0  0  0  0  0  0  0  0  0  0  0
   12.1320  -11.7630    0.2300 C   0  0  0  0  0  0  0  0  0  0  0  0
   12.7530  -10.5570    0.1000 F   0  0  0  0  0  0  0  0  0  0  0  0
   11.3340  -11.6360    1.3310 F   0  0  0  0  0  0  0  0  0  0  0  0
   13.0980  -12.6540    0.5920 F   0  0  0  0  0  0  0  0  0  0  0  0
    9.9860  -12.3770   -0.9550 C   0  0  0  0  0  0  0  0  0  0  0  0
    9.2710  -12.7610   -2.0900 C   0  0  0  0  0  0  0  0  0  0  0  0
    7.8750  -12.9790   -2.1060 N   0  0  0  0  0  0  0  0  0  0  0  0
    6.8540  -12.0460   -2.0920 C   0  0  0  0  0  0  0  0  0  0  0  0
    7.0180  -10.8330   -2.1150 O   0  0  0  0  0  0  0  0  0  0  0  0
    5.6210  -12.6800   -2.0410 N   0  0  0  0  0  0  0  0  0  0  0  0
    4.3420  -12.0880   -2.1050 C   0  0  0  0  0  0  0  0  0  0  0  0
    3.9760  -11.4900   -3.3170 C   0  0  0  0  0  0  0  0  0  0  0  0
    2.7300  -10.8800   -3.4580 C   0  0  0  0  0  0  0  0  0  0  0  0
    1.8380  -10.8640   -2.3880 C   0  0  0  0  0  0  0  0  0  0  0  0
    2.1750  -11.4570   -1.1640 C   0  0  0  0  0  0  0  0  0  0  0  0
    1.2100  -11.4120   -0.0350 C   0  0  0  0  0  0  0  0  0  0  0  0
    0.4580  -10.3080    0.1660 C   0  0  0  0  0  0  0  0  0  0  0  0
   -0.4180  -10.2980    1.2300 N   0  0  0  0  0  0  0  0  0  0  0  0
   -1.3010   -9.3600    1.6890 C   0  0  0  0  0  0  0  0  0  0  0  0
   -1.8920   -9.9360    2.7950 C   0  0  0  0  0  0  0  0  0  0  0  0
   -1.3950  -11.1980    3.0260 N   0  0  0  0  0  0  0  0  0  0  0  0
   -0.5140  -11.3760    2.0630 C   0  0  0  0  0  0  0  0  0  0  0  0
    0.3220  -12.5370    1.8170 C   0  0  0  0  0  0  0  0  0  0  0  0
    0.2460  -13.6330    2.6410 N   0  0  0  0  0  0  0  0  0  0  0  0
    1.0130  -14.8340    2.4600 C   0  0  0  0  0  0  0  0  0  0  0  0
    0.0880  -16.0210    2.4160 C   0  0  0  0  0  0  0  0  0  0  0  0
   -0.5520  -16.3860    1.2280 C   0  0  0  0  0  0  0  0  0  0  0  0
   -1.4140  -17.4720    1.2450 C   0  0  0  0  0  0  0  0  0  0  0  0
   -1.6810  -18.2020    2.3480 N   0  0  0  0  0  0  0  0  0  0  0  0
   -1.0650  -17.8250    3.4890 C   0  0  0  0  0  0  0  0  0  0  0  0
   -0.1880  -16.7550    3.5740 C   0  0  0  0  0  0  0  0  0  0  0  0
    1.1520  -12.5270    0.7980 N   0  0  0  0  0  0  0  0  0  0  0  0
    3.4440  -12.0520   -1.0350 C   0  0  0  0  0  0  0  0  0  0  0  0
    9.4904  -15.3625   -4.0711 H   0  0  0  0  0  0  0  0  0  0  0  0
    8.5122  -14.9318   -5.5148 H   0  0  0  0  0  0  0  0  0  0  0  0
   10.2861  -14.6488   -5.5148 H   0  0  0  0  0  0  0  0  0  0  0  0
   11.8741  -12.9147   -4.3164 H   0  0  0  0  0  0  0  0  0  0  0  0
   15.1778  -11.9187   -3.2271 H   0  0  0  0  0  0  0  0  0  0  0  0
   13.9586  -12.9889   -3.9986 H   0  0  0  0  0  0  0  0  0  0  0  0
   13.7192  -11.2086   -3.9986 H   0  0  0  0  0  0  0  0  0  0  0  0
    9.4544  -12.2271   -0.0037 H   0  0  0  0  0  0  0  0  0  0  0  0
    7.6240  -13.9560   -2.1830 H   0  0  0  0  0  0  0  0  0  0  0  0
    5.6390  -13.6750   -1.8760 H   0  0  0  0  0  0  0  0  0  0  0  0
    4.6769  -11.5015   -4.1647 H   0  0  0  0  0  0  0  0  0  0  0  0
    2.4516  -10.4117   -4.4136 H   0  0  0  0  0  0  0  0  0  0  0  0
    0.8572  -10.3800   -2.5055 H   0  0  0  0  0  0  0  0  0  0  0  0
    0.5427   -9.4388   -0.5028 H   0  0  0  0  0  0  0  0  0  0  0  0
   -1.4975   -8.3629    1.2680 H   0  0  0  0  0  0  0  0  0  0  0  0
   -2.6612   -9.4490    3.4123 H   0  0  0  0  0  0  0  0  0  0  0  0
   -0.4180  -13.5840    3.4080 H   0  0  0  0  0  0  0  0  0  0  0  0
    1.5739  -14.7716    1.5158 H   0  0  0  0  0  0  0  0  0  0  0  0
    1.7158  -14.9489    3.2984 H   0  0  0  0  0  0  0  0  0  0  0  0
   -0.3755  -15.8236    0.2993 H   0  0  0  0  0  0  0  0  0  0  0  0
   -1.9091  -17.7550    0.3044 H   0  0  0  0  0  0  0  0  0  0  0  0
   -1.2711  -18.4002    4.4037 H   0  0  0  0  0  0  0  0  0  0  0  0
    0.2813  -16.4886    4.5326 H   0  0  0  0  0  0  0  0  0  0  0  0
    3.7348  -12.4977   -0.0723 H   0  0  0  0  0  0  0  0  0  0  0  0
  1  2  1  0
  2  3  1  0
  3  4  2  0
  4  5  1  0
  5  6  1  0
  6  7  1  0
  5  8  2  0
  8  9  1  0
  9 10  1  0
  9 11  1  0
  9 12  1  0
  8 13  1  0
 13 14  2  0
 14 15  1  0
 15 16  1  0
 16 17  2  0
 16 18  1  0
 18 19  1  0
 19 20  2  0
 20 21  1  0
 21 22  2  0
 22 23  1  0
 23 24  1  0
 24 25  2  0
 25 26  1  0
 26 27  1  0
 27 28  2  0
 28 29  1  0
 29 30  2  0
 30 31  1  0
 31 32  1  0
 32 33  1  0
 33 34  1  0
 34 35  2  0
 35 36  1  0
 36 37  2  0
 37 38  1  0
 38 39  2  0
 31 40  2  0
 23 41  2  0
 14  3  1  0
 41 19  1  0
 40 24  1  0
 30 26  1  0
 39 34  1  0
  1 42  1  0
  1 43  1  0
  1 44  1  0
  4 45  1  0
  7 46  1  0
  7 47  1  0
  7 48  1  0
 13 49  1  0
 15 50  1  0
 18 51  1  0
 20 52  1  0
 21 53  1  0
 22 54  1  0
 25 55  1  0
 27 56  1  0
 28 57  1  0
 32 58  1  0
 33 59  1  0
 33 60  1  0
 35 61  1  0
 36 62  1  0
 38 63  1  0
 39 64  1  0
 41 65  1  0
M  END
>  <meeko>  (2) 
{"is_sidechain": [false], "free_energy": -8.98, "intermolecular_energy": -13.409, "internal_energy": -1.109}

$$$$
LIB_YAYODJGNSKFEGH__M_PUB_ALL__e8__s20260927
     RDKit          3D

 65 69  0  0  0  0  0  0  0  0999 V2000
    9.5280  -14.2380   -5.0910 C   0  0  0  0  0  0  0  0  0  0  0  0
    9.0240  -13.2350   -4.2160 O   0  0  0  0  0  0  0  0  0  0  0  0
    9.7980  -12.8990   -3.1270 C   0  0  0  0  0  0  0  0  0  0  0  0
   11.1440  -12.5190   -3.1870 C   0  0  0  0  0  0  0  0  0  0  0  0
   11.8440  -12.1980   -2.0180 C   0  0  0  0  0  0  0  0  0  0  0  0
   13.1580  -11.8170   -1.9780 O   0  0  0  0  0  0  0  0  0  0  0  0
   13.9220  -11.9170   -3.1730 C   0  0  0  0  0  0  0  0  0  0  0  0
   11.1950  -12.2610   -0.7750 C   0  0  0  0  0  0  0  0  0  0  0  0
   11.9360  -11.9220    0.4960 C   0  0  0  0  0  0  0  0  0  0  0  0
   12.3360  -10.6200    0.5520 F   0  0  0  0  0  0  0  0  0  0  0  0
   11.1920  -12.1150    1.6250 F   0  0  0  0  0  0  0  0  0  0  0  0
   13.0580  -12.6750    0.6770 F   0  0  0  0  0  0  0  0  0  0  0  0
    9.8420  -12.6430   -0.7200 C   0  0  0  0  0  0  0  0  0  0  0  0
    9.1390  -12.9600   -1.8830 C   0  0  0  0  0  0  0  0  0  0  0  0
    7.7820  -13.3540   -1.9010 N   0  0  0  0  0  0  0  0  0  0  0  0
    6.6740  -12.6580   -1.4500 C   0  0  0  0  0  0  0  0  0  0  0  0
    6.7020  -11.5230   -0.9930 O   0  0  0  0  0  0  0  0  0  0  0  0
    5.5300  -13.4330   -1.5850 N   0  0  0  0  0  0  0  0  0  0  0  0
    4.1960  -13.0540   -1.3280 C   0  0  0  0  0  0  0  0  0  0  0  0
    3.5730  -12.2290   -2.2720 C   0  0  0  0  0  0  0  0  0  0  0  0
    2.2570  -11.8080   -2.0870 C   0  0  0  0  0  0  0  0  0  0  0  0
    1.5500  -12.2100   -0.9550 C   0  0  0  0  0  0  0  0  0  0  0  0
    2.1450  -13.0380    0.0050 C   0  0  0  0  0  0  0  0  0  0  0  0
    1.3730  -13.4400    1.2090 C   0  0  0  0  0  0  0  0  0  0  0  0
    1.6850  -14.5800    1.8610 C   0  0  0  0  0  0  0  0  0  0  0  0
    0.9390  -14.9270    2.9670 N   0  0  0  0  0  0  0  0  0  0  0  0
    1.0030  -15.9880    3.8270 C   0  0  0  0  0  0  0  0  0  0  0  0
   -0.0150  -15.7750    4.7340 C   0  0  0  0  0  0  0  0  0  0  0  0
   -0.7010  -14.6160    4.4530 N   0  0  0  0  0  0  0  0  0  0  0  0
   -0.0950  -14.1380    3.3850 C   0  0  0  0  0  0  0  0  0  0  0  0
   -0.4030  -12.9260    2.6480 C   0  0  0  0  0  0  0  0  0  0  0  0
   -1.4380  -12.1170    3.0460 N   0  0  0  0  0  0  0  0  0  0  0  0
   -1.7980  -10.8880    2.3950 C   0  0  0  0  0  0  0  0  0  0  0  0
   -2.8860  -11.1510    1.3860 C   0  0  0  0  0  0  0  0  0  0  0  0
   -3.7750  -12.2160    1.5560 C   0  0  0  0  0  0  0  0  0  0  0  0
   -4.7440  -12.4320    0.5880 C   0  0  0  0  0  0  0  0  0  0  0  0
   -4.8800  -11.6760   -0.5210 N   0  0  0  0  0  0  0  0  0  0  0  0
   -4.0020  -10.6620   -0.6750 C   0  0  0  0  0  0  0  0  0  0  0  0
   -2.9990  -10.3660    0.2360 C   0  0  0  0  0  0  0  0  0  0  0  0
    0.3190  -12.6140    1.5950 N   0  0  0  0  0  0  0  0  0  0  0  0
    3.4810  -13.4390   -0.1900 C   0  0  0  0  0  0  0  0  0  0  0  0
    9.9441  -15.0661   -4.4985 H   0  0  0  0  0  0  0  0  0  0  0  0
    8.7122  -14.6148   -5.7254 H   0  0  0  0  0  0  0  0  0  0  0  0
   10.3172  -13.8083   -5.7254 H   0  0  0  0  0  0  0  0  0  0  0  0
   11.6553  -12.4723   -4.1598 H   0  0  0  0  0  0  0  0  0  0  0  0
   14.9833  -12.0559   -2.9192 H   0  0  0  0  0  0  0  0  0  0  0  0
   13.5703  -12.7768   -3.7622 H   0  0  0  0  0  0  0  0  0  0  0  0
   13.8035  -10.9957   -3.7622 H   0  0  0  0  0  0  0  0  0  0  0  0
    9.3314  -12.6924    0.2530 H   0  0  0  0  0  0  0  0  0  0  0  0
    7.6310  -14.2470   -2.3490 H   0  0  0  0  0  0  0  0  0  0  0  0
    5.6740  -14.3990   -1.8370 H   0  0  0  0  0  0  0  0  0  0  0  0
    4.1267  -11.9102   -3.1674 H   0  0  0  0  0  0  0  0  0  0  0  0
    1.7768  -11.1589   -2.8340 H   0  0  0  0  0  0  0  0  0  0  0  0
    0.5125  -11.8729   -0.8141 H   0  0  0  0  0  0  0  0  0  0  0  0
    2.5141  -15.2164    1.5182 H   0  0  0  0  0  0  0  0  0  0  0  0
    1.7119  -16.8287    3.8015 H   0  0  0  0  0  0  0  0  0  0  0  0
   -0.2481  -16.4459    5.5740 H   0  0  0  0  0  0  0  0  0  0  0  0
   -1.9560  -12.4080    3.8700 H   0  0  0  0  0  0  0  0  0  0  0  0
   -2.1598  -10.1688    3.1446 H   0  0  0  0  0  0  0  0  0  0  0  0
   -0.9169  -10.4738    1.8830 H   0  0  0  0  0  0  0  0  0  0  0  0
   -3.7074  -12.8688    2.4388 H   0  0  0  0  0  0  0  0  0  0  0  0
   -5.4429  -13.2690    0.7329 H   0  0  0  0  0  0  0  0  0  0  0  0
   -4.0870  -10.0347   -1.5746 H   0  0  0  0  0  0  0  0  0  0  0  0
   -2.3067   -9.5302    0.0567 H   0  0  0  0  0  0  0  0  0  0  0  0
    3.9715  -14.0674    0.5680 H   0  0  0  0  0  0  0  0  0  0  0  0
  1  2  1  0
  2  3  1  0
  3  4  2  0
  4  5  1  0
  5  6  1  0
  6  7  1  0
  5  8  2  0
  8  9  1  0
  9 10  1  0
  9 11  1  0
  9 12  1  0
  8 13  1  0
 13 14  2  0
 14 15  1  0
 15 16  1  0
 16 17  2  0
 16 18  1  0
 18 19  1  0
 19 20  2  0
 20 21  1  0
 21 22  2  0
 22 23  1  0
 23 24  1  0
 24 25  2  0
 25 26  1  0
 26 27  1  0
 27 28  2  0
 28 29  1  0
 29 30  2  0
 30 31  1  0
 31 32  1  0
 32 33  1  0
 33 34  1  0
 34 35  2  0
 35 36  1  0
 36 37  2  0
 37 38  1  0
 38 39  2  0
 31 40  2  0
 23 41  2  0
 14  3  1  0
 41 19  1  0
 40 24  1  0
 30 26  1  0
 39 34  1  0
  1 42  1  0
  1 43  1  0
  1 44  1  0
  4 45  1  0
  7 46  1  0
  7 47  1  0
  7 48  1  0
 13 49  1  0
 15 50  1  0
 18 51  1  0
 20 52  1  0
 21 53  1  0
 22 54  1  0
 25 55  1  0
 27 56  1  0
 28 57  1  0
 32 58  1  0
 33 59  1  0
 33 60  1  0
 35 61  1  0
 36 62  1  0
 38 63  1  0
 39 64  1  0
 41 65  1  0
M  END
>  <meeko>  (3) 
{"is_sidechain": [false], "free_energy": -8.713, "intermolecular_energy": -12.984, "internal_energy": -1.142}

$$$$
LIB_YAYODJGNSKFEGH__M_PUB_ALL__e8__s20260927
     RDKit          3D

 65 69  0  0  0  0  0  0  0  0999 V2000
    7.0010  -16.6300   -6.7750 C   0  0  0  0  0  0  0  0  0  0  0  0
    6.8510  -15.2180   -6.6760 O   0  0  0  0  0  0  0  0  0  0  0  0
    7.2550  -14.4630   -7.7550 C   0  0  0  0  0  0  0  0  0  0  0  0
    8.4320  -14.6710   -8.4840 C   0  0  0  0  0  0  0  0  0  0  0  0
    8.7540  -13.8430   -9.5660 C   0  0  0  0  0  0  0  0  0  0  0  0
    9.8790  -13.9700  -10.3350 O   0  0  0  0  0  0  0  0  0  0  0  0
   11.1450  -13.8400   -9.6990 C   0  0  0  0  0  0  0  0  0  0  0  0
    7.8930  -12.7930   -9.9220 C   0  0  0  0  0  0  0  0  0  0  0  0
    8.2260  -11.8870  -11.0830 C   0  0  0  0  0  0  0  0  0  0  0  0
    8.2830  -12.5450  -12.2760 F   0  0  0  0  0  0  0  0  0  0  0  0
    7.3150  -10.8880  -11.2700 F   0  0  0  0  0  0  0  0  0  0  0  0
    9.4250  -11.2540  -10.9400 F   0  0  0  0  0  0  0  0  0  0  0  0
    6.7110  -12.5870   -9.1860 C   0  0  0  0  0  0  0  0  0  0  0  0
    6.3850  -13.4120   -8.1100 C   0  0  0  0  0  0  0  0  0  0  0  0
    5.2180  -13.2620   -7.3270 N   0  0  0  0  0  0  0  0  0  0  0  0
    5.0910  -12.7160   -6.0620 C   0  0  0  0  0  0  0  0  0  0  0  0
    6.0070  -12.2120   -5.4250 O   0  0  0  0  0  0  0  0  0  0  0  0
    3.7810  -12.8270   -5.6180 N   0  0  0  0  0  0  0  0  0  0  0  0
    3.2260  -12.3120   -4.4270 C   0  0  0  0  0  0  0  0  0  0  0  0
    3.0280  -10.9280   -4.3620 C   0  0  0  0  0  0  0  0  0  0  0  0
    2.4880  -10.3420   -3.2180 C   0  0  0  0  0  0  0  0  0  0  0  0
    2.1400  -11.1370   -2.1270 C   0  0  0  0  0  0  0  0  0  0  0  0
    2.3240  -12.5260   -2.1640 C   0  0  0  0  0  0  0  0  0  0  0  0
    1.9580  -13.3470   -0.9820 C   0  0  0  0  0  0  0  0  0  0  0  0
    2.8480  -14.2210   -0.4660 C   0  0  0  0  0  0  0  0  0  0  0  0
    2.4690  -14.9750    0.6240 N   0  0  0  0  0  0  0  0  0  0  0  0
    3.1230  -15.9200    1.3640 C   0  0  0  0  0  0  0  0  0  0  0  0
    2.2150  -16.3140    2.3250 C   0  0  0  0  0  0  0  0  0  0  0  0
    1.0240  -15.6390    2.1940 N   0  0  0  0  0  0  0  0  0  0  0  0
    1.2200  -14.8440    1.1610 C   0  0  0  0  0  0  0  0  0  0  0  0
    0.2900  -13.9010    0.5670 C   0  0  0  0  0  0  0  0  0  0  0  0
   -0.9720  -13.7520    1.0860 N   0  0  0  0  0  0  0  0  0  0  0  0
   -1.9480  -12.8260    0.5820 C   0  0  0  0  0  0  0  0  0  0  0  0
   -1.9280  -11.5700    1.4140 C   0  0  0  0  0  0  0  0  0  0  0  0
   -2.2560  -10.3330    0.8500 C   0  0  0  0  0  0  0  0  0  0  0  0
   -2.1990   -9.2030    1.6500 C   0  0  0  0  0  0  0  0  0  0  0  0
   -1.8370   -9.2200    2.9500 N   0  0  0  0  0  0  0  0  0  0  0  0
   -1.5090  -10.4210    3.4730 C   0  0  0  0  0  0  0  0  0  0  0  0
   -1.5340  -11.6070    2.7550 C   0  0  0  0  0  0  0  0  0  0  0  0
    0.6700  -13.1920   -0.4730 N   0  0  0  0  0  0  0  0  0  0  0  0
    2.8860  -13.0970   -3.3220 C   0  0  0  0  0  0  0  0  0  0  0  0
    7.0473  -17.0655   -5.7659 H   0  0  0  0  0  0  0  0  0  0  0  0
    6.1427  -17.0527   -7.3178 H   0  0  0  0  0  0  0  0  0  0  0  0
    7.9289  -16.8630   -7.3178 H   0  0  0  0  0  0  0  0  0  0  0  0
    9.1092  -15.4915   -8.2044 H   0  0  0  0  0  0  0  0  0  0  0  0
   11.0101  -13.8539   -8.6074 H   0  0  0  0  0  0  0  0  0  0  0  0
   11.7936  -14.6763   -9.9989 H   0  0  0  0  0  0  0  0  0  0  0  0
   11.6101  -12.8894   -9.9989 H   0  0  0  0  0  0  0  0  0  0  0  0
    6.0355  -11.7643   -9.4633 H   0  0  0  0  0  0  0  0  0  0  0  0
    4.3770  -13.5630   -7.8000 H   0  0  0  0  0  0  0  0  0  0  0  0
    3.1670  -13.3940   -6.1820 H   0  0  0  0  0  0  0  0  0  0  0  0
    3.3008  -10.2972   -5.2209 H   0  0  0  0  0  0  0  0  0  0  0  0
    2.3367   -9.2533   -3.1763 H   0  0  0  0  0  0  0  0  0  0  0  0
    1.7160  -10.6687   -1.2265 H   0  0  0  0  0  0  0  0  0  0  0  0
    3.8510  -14.3289   -0.9045 H   0  0  0  0  0  0  0  0  0  0  0  0
    4.1505  -16.2868    1.2237 H   0  0  0  0  0  0  0  0  0  0  0  0
    2.4176  -17.0709    3.0970 H   0  0  0  0  0  0  0  0  0  0  0  0
   -1.2050  -14.3220    1.8930 H   0  0  0  0  0  0  0  0  0  0  0  0
   -1.7114  -12.5770   -0.4630 H   0  0  0  0  0  0  0  0  0  0  0  0
   -2.9471  -13.2833    0.6337 H   0  0  0  0  0  0  0  0  0  0  0  0
   -2.5530  -10.2586   -0.2065 H   0  0  0  0  0  0  0  0  0  0  0  0
   -2.4644   -8.2354    1.1990 H   0  0  0  0  0  0  0  0  0  0  0  0
   -1.2045  -10.4608    4.5293 H   0  0  0  0  0  0  0  0  0  0  0  0
   -1.2497  -12.5573    3.2306 H   0  0  0  0  0  0  0  0  0  0  0  0
    3.0608  -14.1824   -3.3575 H   0  0  0  0  0  0  0  0  0  0  0  0
  1  2  1  0
  2  3  1  0
  3  4  2  0
  4  5  1  0
  5  6  1  0
  6  7  1  0
  5  8  2  0
  8  9  1  0
  9 10  1  0
  9 11  1  0
  9 12  1  0
  8 13  1  0
 13 14  2  0
 14 15  1  0
 15 16  1  0
 16 17  2  0
 16 18  1  0
 18 19  1  0
 19 20  2  0
 20 21  1  0
 21 22  2  0
 22 23  1  0
 23 24  1  0
 24 25  2  0
 25 26  1  0
 26 27  1  0
 27 28  2  0
 28 29  1  0
 29 30  2  0
 30 31  1  0
 31 32  1  0
 32 33  1  0
 33 34  1  0
 34 35  2  0
 35 36  1  0
 36 37  2  0
 37 38  1  0
 38 39  2  0
 31 40  2  0
 23 41  2  0
 14  3  1  0
 41 19  1  0
 40 24  1  0
 30 26  1  0
 39 34  1  0
  1 42  1  0
  1 43  1  0
  1 44  1  0
  4 45  1  0
  7 46  1  0
  7 47  1  0
  7 48  1  0
 13 49  1  0
 15 50  1  0
 18 51  1  0
 20 52  1  0
 21 53  1  0
 22 54  1  0
 25 55  1  0
 27 56  1  0
 28 57  1  0
 32 58  1  0
 33 59  1  0
 33 60  1  0
 35 61  1  0
 36 62  1  0
 38 63  1  0
 39 64  1  0
 41 65  1  0
M  END
>  <meeko>  (4) 
{"is_sidechain": [false], "free_energy": -8.534, "intermolecular_energy": -12.8, "internal_energy": -1.063}

$$$$
LIB_YAYODJGNSKFEGH__M_PUB_ALL__e8__s20260927
     RDKit          3D

 65 69  0  0  0  0  0  0  0  0999 V2000
   10.7850  -11.9740    0.7030 C   0  0  0  0  0  0  0  0  0  0  0  0
    9.8910  -12.4870   -0.2780 O   0  0  0  0  0  0  0  0  0  0  0  0
   10.4360  -12.9130   -1.4690 C   0  0  0  0  0  0  0  0  0  0  0  0
   11.6670  -13.5670   -1.5990 C   0  0  0  0  0  0  0  0  0  0  0  0
   12.1340  -13.9570   -2.8600 C   0  0  0  0  0  0  0  0  0  0  0  0
   13.3220  -14.5990   -3.0850 O   0  0  0  0  0  0  0  0  0  0  0  0
   13.4660  -15.9300   -2.6050 C   0  0  0  0  0  0  0  0  0  0  0  0
   11.3660  -13.6880   -4.0040 C   0  0  0  0  0  0  0  0  0  0  0  0
   11.8560  -14.0980   -5.3720 C   0  0  0  0  0  0  0  0  0  0  0  0
   12.0570  -15.4410   -5.4880 F   0  0  0  0  0  0  0  0  0  0  0  0
   10.9880  -13.7800   -6.3760 F   0  0  0  0  0  0  0  0  0  0  0  0
   13.0330  -13.5040   -5.7170 F   0  0  0  0  0  0  0  0  0  0  0  0
   10.1290  -13.0300   -3.8680 C   0  0  0  0  0  0  0  0  0  0  0  0
    9.6580  -12.6430   -2.6130 C   0  0  0  0  0  0  0  0  0  0  0  0
    8.4290  -11.9780   -2.4030 N   0  0  0  0  0  0  0  0  0  0  0  0
    7.1490  -12.5020   -2.4230 C   0  0  0  0  0  0  0  0  0  0  0  0
    6.8820  -13.6850   -2.5830 O   0  0  0  0  0  0  0  0  0  0  0  0
    6.2120  -11.4930   -2.2420 N   0  0  0  0  0  0  0  0  0  0  0  0
    4.8140  -11.6280   -2.1080 C   0  0  0  0  0  0  0  0  0  0  0  0
    4.0210  -11.0890   -3.1280 C   0  0  0  0  0  0  0  0  0  0  0  0
    2.6300  -11.1780   -3.0670 C   0  0  0  0  0  0  0  0  0  0  0  0
    2.0210  -11.8090   -1.9830 C   0  0  0  0  0  0  0  0  0  0  0  0
    2.7890  -12.3600   -0.9490 C   0  0  0  0  0  0  0  0  0  0  0  0
    2.1120  -13.0130    0.2010 C   0  0  0  0  0  0  0  0  0  0  0  0
    2.5680  -14.1950    0.6690 C   0  0  0  0  0  0  0  0  0  0  0  0
    1.9080  -14.7770    1.7300 N   0  0  0  0  0  0  0  0  0  0  0  0
    2.1180  -15.9380    2.4220 C   0  0  0  0  0  0  0  0  0  0  0  0
    1.1200  -15.9710    3.3750 C   0  0  0  0  0  0  0  0  0  0  0  0
    0.3060  -14.8660    3.2850 N   0  0  0  0  0  0  0  0  0  0  0  0
    0.8150  -14.1750    2.2850 C   0  0  0  0  0  0  0  0  0  0  0  0
    0.3520  -12.9110    1.7430 C   0  0  0  0  0  0  0  0  0  0  0  0
   -0.7460  -12.2860    2.2810 N   0  0  0  0  0  0  0  0  0  0  0  0
   -1.2590  -11.0230    1.8280 C   0  0  0  0  0  0  0  0  0  0  0  0
   -2.5200  -11.2460    1.0350 C   0  0  0  0  0  0  0  0  0  0  0  0
   -2.8600  -10.3960   -0.0220 C   0  0  0  0  0  0  0  0  0  0  0  0
   -4.0430  -10.6280   -0.7050 C   0  0  0  0  0  0  0  0  0  0  0  0
   -4.8990  -11.6280   -0.4080 N   0  0  0  0  0  0  0  0  0  0  0  0
   -4.5610  -12.4290    0.6250 C   0  0  0  0  0  0  0  0  0  0  0  0
   -3.4010  -12.2780    1.3690 C   0  0  0  0  0  0  0  0  0  0  0  0
    0.9940  -12.3720    0.7300 N   0  0  0  0  0  0  0  0  0  0  0  0
    4.1900  -12.2450   -1.0200 C   0  0  0  0  0  0  0  0  0  0  0  0
   10.3952  -12.1977    1.7070 H   0  0  0  0  0  0  0  0  0  0  0  0
   11.7725  -12.4429    0.5802 H   0  0  0  0  0  0  0  0  0  0  0  0
   10.8784  -10.8849    0.5802 H   0  0  0  0  0  0  0  0  0  0  0  0
   12.2716  -13.7759   -0.7041 H   0  0  0  0  0  0  0  0  0  0  0  0
   13.4655  -15.9252   -1.5050 H   0  0  0  0  0  0  0  0  0  0  0  0
   12.6290  -16.5438   -2.9694 H   0  0  0  0  0  0  0  0  0  0  0  0
   14.4149  -16.3505   -2.9694 H   0  0  0  0  0  0  0  0  0  0  0  0
    9.5257  -12.8181   -4.7631 H   0  0  0  0  0  0  0  0  0  0  0  0
    8.5380  -11.0010   -2.1660 H   0  0  0  0  0  0  0  0  0  0  0  0
    6.5640  -10.5490   -2.2720 H   0  0  0  0  0  0  0  0  0  0  0  0
    4.4986  -10.5911   -3.9848 H   0  0  0  0  0  0  0  0  0  0  0  0
    2.0148  -10.7511   -3.8728 H   0  0  0  0  0  0  0  0  0  0  0  0
    0.9239  -11.8750   -1.9392 H   0  0  0  0  0  0  0  0  0  0  0  0
    3.4441  -14.6810    0.2149 H   0  0  0  0  0  0  0  0  0  0  0  0
    2.9098  -16.6832    2.2553 H   0  0  0  0  0  0  0  0  0  0  0  0
    0.9921  -16.7776    4.1119 H   0  0  0  0  0  0  0  0  0  0  0  0
   -1.1960  -12.7480    3.0650 H   0  0  0  0  0  0  0  0  0  0  0  0
   -1.4804  -10.3849    2.6963 H   0  0  0  0  0  0  0  0  0  0  0  0
   -0.5090  -10.5307    1.1915 H   0  0  0  0  0  0  0  0  0  0  0  0
   -2.2023   -9.5610   -0.3052 H   0  0  0  0  0  0  0  0  0  0  0  0
   -4.2995   -9.9575   -1.5385 H   0  0  0  0  0  0  0  0  0  0  0  0
   -5.2451  -13.2482    0.8915 H   0  0  0  0  0  0  0  0  0  0  0  0
   -3.1786  -12.9569    2.2054 H   0  0  0  0  0  0  0  0  0  0  0  0
    4.8061  -12.6487   -0.2030 H   0  0  0  0  0  0  0  0  0  0  0  0
  1  2  1  0
  2  3  1  0
  3  4  2  0
  4  5  1  0
  5  6  1  0
  6  7  1  0
  5  8  2  0
  8  9  1  0
  9 10  1  0
  9 11  1  0
  9 12  1  0
  8 13  1  0
 13 14  2  0
 14 15  1  0
 15 16  1  0
 16 17  2  0
 16 18  1  0
 18 19  1  0
 19 20  2  0
 20 21  1  0
 21 22  2  0
 22 23  1  0
 23 24  1  0
 24 25  2  0
 25 26  1  0
 26 27  1  0
 27 28  2  0
 28 29  1  0
 29 30  2  0
 30 31  1  0
 31 32  1  0
 32 33  1  0
 33 34  1  0
 34 35  2  0
 35 36  1  0
 36 37  2  0
 37 38  1  0
 38 39  2  0
 31 40  2  0
 23 41  2  0
 14  3  1  0
 41 19  1  0
 40 24  1  0
 30 26  1  0
 39 34  1  0
  1 42  1  0
  1 43  1  0
  1 44  1  0
  4 45  1  0
  7 46  1  0
  7 47  1  0
  7 48  1  0
 13 49  1  0
 15 50  1  0
 18 51  1  0
 20 52  1  0
 21 53  1  0
 22 54  1  0
 25 55  1  0
 27 56  1  0
 28 57  1  0
 32 58  1  0
 33 59  1  0
 33 60  1  0
 35 61  1  0
 36 62  1  0
 38 63  1  0
 39 64  1  0
 41 65  1  0
M  END
>  <meeko>  (5) 
{"is_sidechain": [false], "free_energy": -8.523, "intermolecular_energy": -12.612, "internal_energy": -1.234}

$$$$
LIB_YAYODJGNSKFEGH__M_PUB_ALL__e8__s20260927
     RDKit          3D

 65 69  0  0  0  0  0  0  0  0999 V2000
    7.9780  -11.1540    1.3690 C   0  0  0  0  0  0  0  0  0  0  0  0
    8.4130  -12.4260    0.8990 O   0  0  0  0  0  0  0  0  0  0  0  0
    9.4170  -12.4410   -0.0440 C   0  0  0  0  0  0  0  0  0  0  0  0
   10.7740  -12.2290    0.2260 C   0  0  0  0  0  0  0  0  0  0  0  0
   11.7180  -12.2630   -0.8070 C   0  0  0  0  0  0  0  0  0  0  0  0
   13.0620  -12.0680   -0.6400 O   0  0  0  0  0  0  0  0  0  0  0  0
   13.4990  -10.8200   -0.1150 C   0  0  0  0  0  0  0  0  0  0  0  0
   11.3020  -12.5070   -2.1250 C   0  0  0  0  0  0  0  0  0  0  0  0
   12.3050  -12.5420   -3.2530 C   0  0  0  0  0  0  0  0  0  0  0  0
   11.7440  -12.8420   -4.4590 F   0  0  0  0  0  0  0  0  0  0  0  0
   12.9480  -11.3530   -3.4450 F   0  0  0  0  0  0  0  0  0  0  0  0
   13.2980  -13.4550   -3.0560 F   0  0  0  0  0  0  0  0  0  0  0  0
    9.9360  -12.7190   -2.3920 C   0  0  0  0  0  0  0  0  0  0  0  0
    8.9930  -12.6900   -1.3650 C   0  0  0  0  0  0  0  0  0  0  0  0
    7.6080  -12.8910   -1.5610 N   0  0  0  0  0  0  0  0  0  0  0  0
    6.6050  -11.9450   -1.6750 C   0  0  0  0  0  0  0  0  0  0  0  0
    6.7850  -10.7340   -1.6730 O   0  0  0  0  0  0  0  0  0  0  0  0
    5.3680  -12.5640   -1.7840 N   0  0  0  0  0  0  0  0  0  0  0  0
    4.1150  -11.9550   -2.0100 C   0  0  0  0  0  0  0  0  0  0  0  0
    3.9280  -11.3170   -3.2420 C   0  0  0  0  0  0  0  0  0  0  0  0
    2.7190  -10.6890   -3.5390 C   0  0  0  0  0  0  0  0  0  0  0  0
    1.6840  -10.6950   -2.6050 C   0  0  0  0  0  0  0  0  0  0  0  0
    1.8410  -11.3290   -1.3650 C   0  0  0  0  0  0  0  0  0  0  0  0
    0.7260  -11.3070   -0.3830 C   0  0  0  0  0  0  0  0  0  0  0  0
    0.4920  -10.1960    0.3470 C   0  0  0  0  0  0  0  0  0  0  0  0
   -0.5440  -10.2160    1.2570 N   0  0  0  0  0  0  0  0  0  0  0  0
   -1.0290   -9.2760    2.1230 C   0  0  0  0  0  0  0  0  0  0  0  0
   -2.0790   -9.8940    2.7710 C   0  0  0  0  0  0  0  0  0  0  0  0
   -2.2480  -11.1860    2.3280 N   0  0  0  0  0  0  0  0  0  0  0  0
   -1.3060  -11.3370    1.4180 C   0  0  0  0  0  0  0  0  0  0  0  0
   -1.0120  -12.5140    0.6210 C   0  0  0  0  0  0  0  0  0  0  0  0
   -1.7620  -13.6550    0.7660 N   0  0  0  0  0  0  0  0  0  0  0  0
   -1.5620  -14.8550    0.0020 C   0  0  0  0  0  0  0  0  0  0  0  0
   -1.0290  -15.9410    0.9000 C   0  0  0  0  0  0  0  0  0  0  0  0
   -1.6240  -16.2010    2.1380 C   0  0  0  0  0  0  0  0  0  0  0  0
   -1.0830  -17.1930    2.9400 C   0  0  0  0  0  0  0  0  0  0  0  0
   -0.0020  -17.9280    2.5990 N   0  0  0  0  0  0  0  0  0  0  0  0
    0.5680  -17.6510    1.4070 C   0  0  0  0  0  0  0  0  0  0  0  0
    0.1010  -16.6790    0.5360 C   0  0  0  0  0  0  0  0  0  0  0  0
   -0.0200  -12.4750   -0.2400 N   0  0  0  0  0  0  0  0  0  0  0  0
    3.0740  -11.9420   -1.0770 C   0  0  0  0  0  0  0  0  0  0  0  0
    7.9768  -11.1504    2.4690 H   0  0  0  0  0  0  0  0  0  0  0  0
    8.6604  -10.3739    1.0005 H   0  0  0  0  0  0  0  0  0  0  0  0
    6.9608  -10.9552    1.0005 H   0  0  0  0  0  0  0  0  0  0  0  0
   11.1011  -12.0342    1.2580 H   0  0  0  0  0  0  0  0  0  0  0  0
   13.4851  -10.8596    0.9842 H   0  0  0  0  0  0  0  0  0  0  0  0
   14.5225  -10.6146   -0.4616 H   0  0  0  0  0  0  0  0  0  0  0  0
   12.8272  -10.0209   -0.4616 H   0  0  0  0  0  0  0  0  0  0  0  0
    9.6082  -12.9101   -3.4245 H   0  0  0  0  0  0  0  0  0  0  0  0
    7.3570  -13.8640   -1.6720 H   0  0  0  0  0  0  0  0  0  0  0  0
    5.3530  -13.5590   -1.6220 H   0  0  0  0  0  0  0  0  0  0  0  0
    4.7418  -11.3111   -3.9821 H   0  0  0  0  0  0  0  0  0  0  0  0
    2.5820  -10.1893   -4.5093 H   0  0  0  0  0  0  0  0  0  0  0  0
    0.7331  -10.1963   -2.8441 H   0  0  0  0  0  0  0  0  0  0  0  0
    1.1124   -9.2967    0.2192 H   0  0  0  0  0  0  0  0  0  0  0  0
   -0.6619   -8.2497    2.2712 H   0  0  0  0  0  0  0  0  0  0  0  0
   -2.7007   -9.4157    3.5421 H   0  0  0  0  0  0  0  0  0  0  0  0
   -2.5190  -13.6220    1.4420 H   0  0  0  0  0  0  0  0  0  0  0  0
   -2.5199  -15.1764   -0.4328 H   0  0  0  0  0  0  0  0  0  0  0  0
   -0.8397  -14.6594   -0.8043 H   0  0  0  0  0  0  0  0  0  0  0  0
   -2.5039  -15.6296    2.4688 H   0  0  0  0  0  0  0  0  0  0  0  0
   -1.5612  -17.3936    3.9101 H   0  0  0  0  0  0  0  0  0  0  0  0
    1.4546  -18.2303    1.1096 H   0  0  0  0  0  0  0  0  0  0  0  0
    0.6090  -16.4923   -0.4216 H   0  0  0  0  0  0  0  0  0  0  0  0
    3.2220  -12.4208   -0.0978 H   0  0  0  0  0  0  0  0  0  0  0  0
  1  2  1  0
  2  3  1  0
  3  4  2  0
  4  5  1  0
  5  6  1  0
  6  7  1  0
  5  8  2  0
  8  9  1  0
  9 10  1  0
  9 11  1  0
  9 12  1  0
  8 13  1  0
 13 14  2  0
 14 15  1  0
 15 16  1  0
 16 17  2  0
 16 18  1  0
 18 19  1  0
 19 20  2  0
 20 21  1  0
 21 22  2  0
 22 23  1  0
 23 24  1  0
 24 25  2  0
 25 26  1  0
 26 27  1  0
 27 28  2  0
 28 29  1  0
 29 30  2  0
 30 31  1  0
 31 32  1  0
 32 33  1  0
 33 34  1  0
 34 35  2  0
 35 36  1  0
 36 37  2  0
 37 38  1  0
 38 39  2  0
 31 40  2  0
 23 41  2  0
 14  3  1  0
 41 19  1  0
 40 24  1  0
 30 26  1  0
 39 34  1  0
  1 42  1  0
  1 43  1  0
  1 44  1  0
  4 45  1  0
  7 46  1  0
  7 47  1  0
  7 48  1  0
 13 49  1  0
 15 50  1  0
 18 51  1  0
 20 52  1  0
 21 53  1  0
 22 54  1  0
 25 55  1  0
 27 56  1  0
 28 57  1  0
 32 58  1  0
 33 59  1  0
 33 60  1  0
 35 61  1  0
 36 62  1  0
 38 63  1  0
 39 64  1  0
 41 65  1  0
M  END
>  <meeko>  (6) 
{"is_sidechain": [false], "free_energy": -8.475, "intermolecular_energy": -12.915, "internal_energy": -0.862}

$$$$
LIB_YAYODJGNSKFEGH__M_PUB_ALL__e8__s20260927
     RDKit          3D

 65 69  0  0  0  0  0  0  0  0999 V2000
   -0.6230  -15.3340   -1.0580 C   0  0  0  0  0  0  0  0  0  0  0  0
   -0.0550  -14.7380    0.1030 O   0  0  0  0  0  0  0  0  0  0  0  0
   -0.5900  -13.5410    0.5250 C   0  0  0  0  0  0  0  0  0  0  0  0
   -1.9290  -13.1630    0.3710 C   0  0  0  0  0  0  0  0  0  0  0  0
   -2.3740  -11.9180    0.8340 C   0  0  0  0  0  0  0  0  0  0  0  0
   -3.6600  -11.4640    0.7290 O   0  0  0  0  0  0  0  0  0  0  0  0
   -4.2760  -11.4830   -0.5530 C   0  0  0  0  0  0  0  0  0  0  0  0
   -1.4700  -11.0400    1.4530 C   0  0  0  0  0  0  0  0  0  0  0  0
   -1.9310   -9.6920    1.9540 C   0  0  0  0  0  0  0  0  0  0  0  0
   -0.9000   -8.8570    2.2680 F   0  0  0  0  0  0  0  0  0  0  0  0
   -2.6830   -9.0040    1.0460 F   0  0  0  0  0  0  0  0  0  0  0  0
   -2.7090   -9.7750    3.0700 F   0  0  0  0  0  0  0  0  0  0  0  0
   -0.1250  -11.4240    1.6040 C   0  0  0  0  0  0  0  0  0  0  0  0
    0.3210  -12.6650    1.1490 C   0  0  0  0  0  0  0  0  0  0  0  0
    1.6560  -13.1140    1.2650 N   0  0  0  0  0  0  0  0  0  0  0  0
    2.7810  -12.6640    0.5960 C   0  0  0  0  0  0  0  0  0  0  0  0
    2.7940  -11.7310   -0.1960 O   0  0  0  0  0  0  0  0  0  0  0  0
    3.8870  -13.4240    0.9470 N   0  0  0  0  0  0  0  0  0  0  0  0
    5.2290  -13.2270    0.5580 C   0  0  0  0  0  0  0  0  0  0  0  0
    6.0790  -12.6130    1.4860 C   0  0  0  0  0  0  0  0  0  0  0  0
    7.4180  -12.3800    1.1750 C   0  0  0  0  0  0  0  0  0  0  0  0
    7.9200  -12.7590   -0.0700 C   0  0  0  0  0  0  0  0  0  0  0  0
    7.0940  -13.3780   -1.0170 C   0  0  0  0  0  0  0  0  0  0  0  0
    7.6510  -13.7590   -2.3400 C   0  0  0  0  0  0  0  0  0  0  0  0
    6.8640  -13.7360   -3.4370 C   0  0  0  0  0  0  0  0  0  0  0  0
    7.4120  -14.1070   -4.6450 N   0  0  0  0  0  0  0  0  0  0  0  0
    6.8950  -14.1840   -5.9090 C   0  0  0  0  0  0  0  0  0  0  0  0
    7.9390  -14.6230   -6.6970 C   0  0  0  0  0  0  0  0  0  0  0  0
    9.0790  -14.8190   -5.9520 N   0  0  0  0  0  0  0  0  0  0  0  0
    8.7190  -14.4960   -4.7260 C   0  0  0  0  0  0  0  0  0  0  0  0
    9.5270  -14.5180   -3.5210 C   0  0  0  0  0  0  0  0  0  0  0  0
   10.8420  -14.9080   -3.5750 N   0  0  0  0  0  0  0  0  0  0  0  0
   11.7230  -14.9350   -2.4400 C   0  0  0  0  0  0  0  0  0  0  0  0
   12.3010  -13.5620   -2.2180 C   0  0  0  0  0  0  0  0  0  0  0  0
   13.1570  -12.9840   -3.1600 C   0  0  0  0  0  0  0  0  0  0  0  0
   13.6820  -11.7290   -2.8990 C   0  0  0  0  0  0  0  0  0  0  0  0
   13.4230  -11.0250   -1.7770 N   0  0  0  0  0  0  0  0  0  0  0  0
   12.6070  -11.6050   -0.8710 C   0  0  0  0  0  0  0  0  0  0  0  0
   12.0330  -12.8560   -1.0410 C   0  0  0  0  0  0  0  0  0  0  0  0
    8.9850  -14.1620   -2.3770 N   0  0  0  0  0  0  0  0  0  0  0  0
    5.7410  -13.5900   -0.6910 C   0  0  0  0  0  0  0  0  0  0  0  0
   -1.3530  -16.0999   -0.7572 H   0  0  0  0  0  0  0  0  0  0  0  0
   -1.1277  -14.5617   -1.6571 H   0  0  0  0  0  0  0  0  0  0  0  0
    0.1727  -15.8010   -1.6571 H   0  0  0  0  0  0  0  0  0  0  0  0
   -2.6371  -13.8487   -0.1172 H   0  0  0  0  0  0  0  0  0  0  0  0
   -5.3690  -11.5167   -0.4341 H   0  0  0  0  0  0  0  0  0  0  0  0
   -3.9954  -10.5758   -1.1081 H   0  0  0  0  0  0  0  0  0  0  0  0
   -3.9400  -12.3712   -1.1081 H   0  0  0  0  0  0  0  0  0  0  0  0
    0.5846  -10.7364    2.0874 H   0  0  0  0  0  0  0  0  0  0  0  0
    1.7780  -13.8280    1.9700 H   0  0  0  0  0  0  0  0  0  0  0  0
    3.7030  -14.2510    1.4940 H   0  0  0  0  0  0  0  0  0  0  0  0
    5.6870  -12.3119    2.4687 H   0  0  0  0  0  0  0  0  0  0  0  0
    8.0781  -11.8976    1.9109 H   0  0  0  0  0  0  0  0  0  0  0  0
    8.9765  -12.5697   -0.3109 H   0  0  0  0  0  0  0  0  0  0  0  0
    5.8102  -13.4283   -3.3676 H   0  0  0  0  0  0  0  0  0  0  0  0
    5.8693  -13.9473   -6.2281 H   0  0  0  0  0  0  0  0  0  0  0  0
    7.8689  -14.7943   -7.7813 H   0  0  0  0  0  0  0  0  0  0  0  0
   11.2060  -15.1660   -4.4870 H   0  0  0  0  0  0  0  0  0  0  0  0
   11.1604  -15.2444   -1.5468 H   0  0  0  0  0  0  0  0  0  0  0  0
   12.5383  -15.6494   -2.6266 H   0  0  0  0  0  0  0  0  0  0  0  0
   13.4086  -13.5151   -4.0898 H   0  0  0  0  0  0  0  0  0  0  0  0
   14.3488  -11.2800   -3.6499 H   0  0  0  0  0  0  0  0  0  0  0  0
   12.3848  -11.0539    0.0547 H   0  0  0  0  0  0  0  0  0  0  0  0
   11.3803  -13.2841   -0.2659 H   0  0  0  0  0  0  0  0  0  0  0  0
    5.0733  -14.0505   -1.4340 H   0  0  0  0  0  0  0  0  0  0  0  0
  1  2  1  0
  2  3  1  0
  3  4  2  0
  4  5  1  0
  5  6  1  0
  6  7  1  0
  5  8  2  0
  8  9  1  0
  9 10  1  0
  9 11  1  0
  9 12  1  0
  8 13  1  0
 13 14  2  0
 14 15  1  0
 15 16  1  0
 16 17  2  0
 16 18  1  0
 18 19  1  0
 19 20  2  0
 20 21  1  0
 21 22  2  0
 22 23  1  0
 23 24  1  0
 24 25  2  0
 25 26  1  0
 26 27  1  0
 27 28  2  0
 28 29  1  0
 29 30  2  0
 30 31  1  0
 31 32  1  0
 32 33  1  0
 33 34  1  0
 34 35  2  0
 35 36  1  0
 36 37  2  0
 37 38  1  0
 38 39  2  0
 31 40  2  0
 23 41  2  0
 14  3  1  0
 41 19  1  0
 40 24  1  0
 30 26  1  0
 39 34  1  0
  1 42  1  0
  1 43  1  0
  1 44  1  0
  4 45  1  0
  7 46  1  0
  7 47  1  0
  7 48  1  0
 13 49  1  0
 15 50  1  0
 18 51  1  0
 20 52  1  0
 21 53  1  0
 22 54  1  0
 25 55  1  0
 27 56  1  0
 28 57  1  0
 32 58  1  0
 33 59  1  0
 33 60  1  0
 35 61  1  0
 36 62  1  0
 38 63  1  0
 39 64  1  0
 41 65  1  0
M  END
>  <meeko>  (7) 
{"is_sidechain": [false], "free_energy": -8.39, "intermolecular_energy": -12.418, "internal_energy": -1.234}

$$$$
LIB_YAYODJGNSKFEGH__M_PUB_ALL__e8__s20260927
     RDKit          3D

 65 69  0  0  0  0  0  0  0  0999 V2000
    7.3200  -11.0580    1.0960 C   0  0  0  0  0  0  0  0  0  0  0  0
    7.2770  -12.1690    0.2080 O   0  0  0  0  0  0  0  0  0  0  0  0
    8.3670  -12.3660   -0.6110 C   0  0  0  0  0  0  0  0  0  0  0  0
    9.6860  -12.5180   -0.1670 C   0  0  0  0  0  0  0  0  0  0  0  0
   10.7260  -12.7110   -1.0840 C   0  0  0  0  0  0  0  0  0  0  0  0
   12.0430  -12.8690   -0.7450 O   0  0  0  0  0  0  0  0  0  0  0  0
   12.5980  -11.9820    0.2180 C   0  0  0  0  0  0  0  0  0  0  0  0
   10.4460  -12.7510   -2.4590 C   0  0  0  0  0  0  0  0  0  0  0  0
   11.5560  -12.9550   -3.4630 C   0  0  0  0  0  0  0  0  0  0  0  0
   11.1020  -13.1090   -4.7390 F   0  0  0  0  0  0  0  0  0  0  0  0
   12.4330  -11.9100   -3.5210 F   0  0  0  0  0  0  0  0  0  0  0  0
   12.3230  -14.0490   -3.1950 F   0  0  0  0  0  0  0  0  0  0  0  0
    9.1190  -12.5980   -2.9010 C   0  0  0  0  0  0  0  0  0  0  0  0
    8.0790  -12.4080   -1.9900 C   0  0  0  0  0  0  0  0  0  0  0  0
    6.7250  -12.2450   -2.3620 N   0  0  0  0  0  0  0  0  0  0  0  0
    5.7410  -13.2100   -2.4870 C   0  0  0  0  0  0  0  0  0  0  0  0
    5.8930  -14.3980   -2.2330 O   0  0  0  0  0  0  0  0  0  0  0  0
    4.5630  -12.6400   -2.9470 N   0  0  0  0  0  0  0  0  0  0  0  0
    3.3100  -13.2660   -3.1160 C   0  0  0  0  0  0  0  0  0  0  0  0
    2.8120  -13.3560   -4.4210 C   0  0  0  0  0  0  0  0  0  0  0  0
    1.5780  -13.9570   -4.6690 C   0  0  0  0  0  0  0  0  0  0  0  0
    0.8310  -14.4760   -3.6120 C   0  0  0  0  0  0  0  0  0  0  0  0
    1.3060  -14.4040   -2.2960 C   0  0  0  0  0  0  0  0  0  0  0  0
    0.4820  -14.9520   -1.1880 C   0  0  0  0  0  0  0  0  0  0  0  0
    0.7840  -16.1550   -0.6540 C   0  0  0  0  0  0  0  0  0  0  0  0
   -0.0080  -16.6370    0.3650 N   0  0  0  0  0  0  0  0  0  0  0  0
    0.0340  -17.7880    1.1010 C   0  0  0  0  0  0  0  0  0  0  0  0
   -1.0330  -17.6960    1.9720 C   0  0  0  0  0  0  0  0  0  0  0  0
   -1.7270  -16.5230    1.7880 N   0  0  0  0  0  0  0  0  0  0  0  0
   -1.0780  -15.9160    0.8150 C   0  0  0  0  0  0  0  0  0  0  0  0
   -1.3740  -14.6330    0.2050 C   0  0  0  0  0  0  0  0  0  0  0  0
   -2.4440  -13.8900    0.6370 N   0  0  0  0  0  0  0  0  0  0  0  0
   -2.7970  -12.6000    0.1120 C   0  0  0  0  0  0  0  0  0  0  0  0
   -2.4190  -11.5310    1.1040 C   0  0  0  0  0  0  0  0  0  0  0  0
   -1.9830  -11.8700    2.3880 C   0  0  0  0  0  0  0  0  0  0  0  0
   -1.6710  -10.8500    3.2730 C   0  0  0  0  0  0  0  0  0  0  0  0
   -1.7680   -9.5380    2.9720 N   0  0  0  0  0  0  0  0  0  0  0  0
   -2.2050   -9.2310    1.7320 C   0  0  0  0  0  0  0  0  0  0  0  0
   -2.5420  -10.1780    0.7770 C   0  0  0  0  0  0  0  0  0  0  0  0
   -0.6070  -14.1910   -0.7670 N   0  0  0  0  0  0  0  0  0  0  0  0
    2.5450  -13.7780   -2.0630 C   0  0  0  0  0  0  0  0  0  0  0  0
    7.3060  -11.4184    2.1352 H   0  0  0  0  0  0  0  0  0  0  0  0
    8.2411  -10.4831    0.9196 H   0  0  0  0  0  0  0  0  0  0  0  0
    6.4461  -10.4136    0.9196 H   0  0  0  0  0  0  0  0  0  0  0  0
    9.9067  -12.4855    0.9101 H   0  0  0  0  0  0  0  0  0  0  0  0
   12.3686  -12.3487    1.2294 H   0  0  0  0  0  0  0  0  0  0  0  0
   13.6888  -11.9320    0.0848 H   0  0  0  0  0  0  0  0  0  0  0  0
   12.1660  -10.9792    0.0848 H   0  0  0  0  0  0  0  0  0  0  0  0
    8.8985  -12.6285   -3.9782 H   0  0  0  0  0  0  0  0  0  0  0  0
    6.4640  -11.2790   -2.5060 H   0  0  0  0  0  0  0  0  0  0  0  0
    4.6230  -11.6820   -3.2560 H   0  0  0  0  0  0  0  0  0  0  0  0
    3.3987  -12.9494   -5.2579 H   0  0  0  0  0  0  0  0  0  0  0  0
    1.1942  -14.0215   -5.6979 H   0  0  0  0  0  0  0  0  0  0  0  0
   -0.1422  -14.9473   -3.8138 H   0  0  0  0  0  0  0  0  0  0  0  0
    1.6417  -16.7361   -1.0237 H   0  0  0  0  0  0  0  0  0  0  0  0
    0.7606  -18.6096    1.0174 H   0  0  0  0  0  0  0  0  0  0  0  0
   -1.2944  -18.4619    2.7170 H   0  0  0  0  0  0  0  0  0  0  0  0
   -2.9970  -14.2810    1.3950 H   0  0  0  0  0  0  0  0  0  0  0  0
   -2.2598  -12.4295   -0.8326 H   0  0  0  0  0  0  0  0  0  0  0  0
   -3.8813  -12.5633   -0.0697 H   0  0  0  0  0  0  0  0  0  0  0  0
   -1.8895  -12.9237    2.6896 H   0  0  0  0  0  0  0  0  0  0  0  0
   -1.3240  -11.1260    4.2797 H   0  0  0  0  0  0  0  0  0  0  0  0
   -2.2991   -8.1683    1.4639 H   0  0  0  0  0  0  0  0  0  0  0  0
   -2.8987   -9.8707   -0.2172 H   0  0  0  0  0  0  0  0  0  0  0  0
    2.9190  -13.6897   -1.0323 H   0  0  0  0  0  0  0  0  0  0  0  0
  1  2  1  0
  2  3  1  0
  3  4  2  0
  4  5  1  0
  5  6  1  0
  6  7  1  0
  5  8  2  0
  8  9  1  0
  9 10  1  0
  9 11  1  0
  9 12  1  0
  8 13  1  0
 13 14  2  0
 14 15  1  0
 15 16  1  0
 16 17  2  0
 16 18  1  0
 18 19  1  0
 19 20  2  0
 20 21  1  0
 21 22  2  0
 22 23  1  0
 23 24  1  0
 24 25  2  0
 25 26  1  0
 26 27  1  0
 27 28  2  0
 28 29  1  0
 29 30  2  0
 30 31  1  0
 31 32  1  0
 32 33  1  0
 33 34  1  0
 34 35  2  0
 35 36  1  0
 36 37  2  0
 37 38  1  0
 38 39  2  0
 31 40  2  0
 23 41  2  0
 14  3  1  0
 41 19  1  0
 40 24  1  0
 30 26  1  0
 39 34  1  0
  1 42  1  0
  1 43  1  0
  1 44  1  0
  4 45  1  0
  7 46  1  0
  7 47  1  0
  7 48  1  0
 13 49  1  0
 15 50  1  0
 18 51  1  0
 20 52  1  0
 21 53  1  0
 22 54  1  0
 25 55  1  0
 27 56  1  0
 28 57  1  0
 32 58  1  0
 33 59  1  0
 33 60  1  0
 35 61  1  0
 36 62  1  0
 38 63  1  0
 39 64  1  0
 41 65  1  0
M  END
>  <meeko>  (8) 
{"is_sidechain": [false], "free_energy": -8.337, "intermolecular_energy": -12.474, "internal_energy": -1.099}

$$$$
LIB_YAYODJGNSKFEGH__M_PUB_ALL__e8__s20260927
     RDKit          3D

 65 69  0  0  0  0  0  0  0  0999 V2000
    4.0380  -14.5720    1.3200 C   0  0  0  0  0  0  0  0  0  0  0  0
    3.0160  -14.2880    0.3710 O   0  0  0  0  0  0  0  0  0  0  0  0
    1.9930  -13.4570    0.7730 C   0  0  0  0  0  0  0  0  0  0  0  0
    1.0640  -13.7580    1.7750 C   0  0  0  0  0  0  0  0  0  0  0  0
    0.0570  -12.8430    2.1080 C   0  0  0  0  0  0  0  0  0  0  0  0
   -0.8930  -13.0490    3.0720 O   0  0  0  0  0  0  0  0  0  0  0  0
   -0.4640  -13.4810    4.3560 C   0  0  0  0  0  0  0  0  0  0  0  0
   -0.0240  -11.6170    1.4310 C   0  0  0  0  0  0  0  0  0  0  0  0
   -1.1050  -10.6200    1.7740 C   0  0  0  0  0  0  0  0  0  0  0  0
   -1.0880  -10.2400    3.0830 F   0  0  0  0  0  0  0  0  0  0  0  0
   -1.0150   -9.4560    1.0650 F   0  0  0  0  0  0  0  0  0  0  0  0
   -2.3610  -11.0890    1.5280 F   0  0  0  0  0  0  0  0  0  0  0  0
    0.9130  -11.3190    0.4230 C   0  0  0  0  0  0  0  0  0  0  0  0
    1.9200  -12.2260    0.0910 C   0  0  0  0  0  0  0  0  0  0  0  0
    2.8900  -11.9940   -0.9100 N   0  0  0  0  0  0  0  0  0  0  0  0
    2.8230  -12.2810   -2.2620 C   0  0  0  0  0  0  0  0  0  0  0  0
    1.8450  -12.7550   -2.8260 O   0  0  0  0  0  0  0  0  0  0  0  0
    4.0220  -11.9620   -2.8830 N   0  0  0  0  0  0  0  0  0  0  0  0
    4.3220  -12.0180   -4.2600 C   0  0  0  0  0  0  0  0  0  0  0  0
    3.8130  -10.9930   -5.0670 C   0  0  0  0  0  0  0  0  0  0  0  0
    4.0630  -10.9810   -6.4390 C   0  0  0  0  0  0  0  0  0  0  0  0
    4.8270  -11.9940   -7.0170 C   0  0  0  0  0  0  0  0  0  0  0  0
    5.3520  -13.0310   -6.2340 C   0  0  0  0  0  0  0  0  0  0  0  0
    6.1500  -14.1060   -6.8790 C   0  0  0  0  0  0  0  0  0  0  0  0
    6.7090  -15.0760   -6.1240 C   0  0  0  0  0  0  0  0  0  0  0  0
    7.4520  -16.0500   -6.7560 N   0  0  0  0  0  0  0  0  0  0  0  0
    8.1270  -17.1430   -6.2880 C   0  0  0  0  0  0  0  0  0  0  0  0
    8.6770  -17.7300   -7.4090 C   0  0  0  0  0  0  0  0  0  0  0  0
    8.3610  -17.0270   -8.5480 N   0  0  0  0  0  0  0  0  0  0  0  0
    7.6230  -16.0260   -8.1100 C   0  0  0  0  0  0  0  0  0  0  0  0
    7.0140  -14.9580   -8.8820 C   0  0  0  0  0  0  0  0  0  0  0  0
    7.1730  -14.9100  -10.2450 N   0  0  0  0  0  0  0  0  0  0  0  0
    6.5850  -13.9090  -11.0910 C   0  0  0  0  0  0  0  0  0  0  0  0
    7.5780  -12.7990  -11.3230 C   0  0  0  0  0  0  0  0  0  0  0  0
    7.2340  -11.4680  -11.0720 C   0  0  0  0  0  0  0  0  0  0  0  0
    8.1730  -10.4810  -11.3240 C   0  0  0  0  0  0  0  0  0  0  0  0
    9.4090  -10.7250  -11.8080 N   0  0  0  0  0  0  0  0  0  0  0  0
    9.7170  -12.0160  -12.0590 C   0  0  0  0  0  0  0  0  0  0  0  0
    8.8470  -13.0730  -11.8400 C   0  0  0  0  0  0  0  0  0  0  0  0
    6.3100  -14.0380   -8.2610 N   0  0  0  0  0  0  0  0  0  0  0  0
    5.0740  -13.0360   -4.8540 C   0  0  0  0  0  0  0  0  0  0  0  0
    3.6350  -14.4600    2.3374 H   0  0  0  0  0  0  0  0  0  0  0  0
    4.3939  -15.6031    1.1780 H   0  0  0  0  0  0  0  0  0  0  0  0
    4.8749  -13.8724    1.1780 H   0  0  0  0  0  0  0  0  0  0  0  0
    1.1248  -14.7200    2.3050 H   0  0  0  0  0  0  0  0  0  0  0  0
   -1.0136  -12.9275    5.1316 H   0  0  0  0  0  0  0  0  0  0  0  0
   -0.6604  -14.5578    4.4651 H   0  0  0  0  0  0  0  0  0  0  0  0
    0.6141  -13.2921    4.4651 H   0  0  0  0  0  0  0  0  0  0  0  0
    0.8503  -10.3586   -0.1097 H   0  0  0  0  0  0  0  0  0  0  0  0
    3.7110  -11.5140   -0.5670 H   0  0  0  0  0  0  0  0  0  0  0  0
    4.7880  -11.7200   -2.2730 H   0  0  0  0  0  0  0  0  0  0  0  0
    3.2111  -10.1908   -4.6151 H   0  0  0  0  0  0  0  0  0  0  0  0
    3.6575  -10.1725   -7.0650 H   0  0  0  0  0  0  0  0  0  0  0  0
    5.0199  -11.9791   -8.0999 H   0  0  0  0  0  0  0  0  0  0  0  0
    6.5749  -15.0886   -5.0323 H   0  0  0  0  0  0  0  0  0  0  0  0
    8.2129  -17.4809   -5.2447 H   0  0  0  0  0  0  0  0  0  0  0  0
    9.2898  -18.6434   -7.3937 H   0  0  0  0  0  0  0  0  0  0  0  0
    7.7220  -15.6520  -10.6680 H   0  0  0  0  0  0  0  0  0  0  0  0
    6.3082  -14.3605  -12.0551 H   0  0  0  0  0  0  0  0  0  0  0  0
    5.6864  -13.5008  -10.6052 H   0  0  0  0  0  0  0  0  0  0  0  0
    6.2383  -11.2093  -10.6824 H   0  0  0  0  0  0  0  0  0  0  0  0
    7.8948   -9.4370  -11.1174 H   0  0  0  0  0  0  0  0  0  0  0  0
   10.7159  -12.2418  -12.4604 H   0  0  0  0  0  0  0  0  0  0  0  0
    9.1493  -14.1057  -12.0684 H   0  0  0  0  0  0  0  0  0  0  0  0
    5.4562  -13.8576   -4.2303 H   0  0  0  0  0  0  0  0  0  0  0  0
  1  2  1  0
  2  3  1  0
  3  4  2  0
  4  5  1  0
  5  6  1  0
  6  7  1  0
  5  8  2  0
  8  9  1  0
  9 10  1  0
  9 11  1  0
  9 12  1  0
  8 13  1  0
 13 14  2  0
 14 15  1  0
 15 16  1  0
 16 17  2  0
 16 18  1  0
 18 19  1  0
 19 20  2  0
 20 21  1  0
 21 22  2  0
 22 23  1  0
 23 24  1  0
 24 25  2  0
 25 26  1  0
 26 27  1  0
 27 28  2  0
 28 29  1  0
 29 30  2  0
 30 31  1  0
 31 32  1  0
 32 33  1  0
 33 34  1  0
 34 35  2  0
 35 36  1  0
 36 37  2  0
 37 38  1  0
 38 39  2  0
 31 40  2  0
 23 41  2  0
 14  3  1  0
 41 19  1  0
 40 24  1  0
 30 26  1  0
 39 34  1  0
  1 42  1  0
  1 43  1  0
  1 44  1  0
  4 45  1  0
  7 46  1  0
  7 47  1  0
  7 48  1  0
 13 49  1  0
 15 50  1  0
 18 51  1  0
 20 52  1  0
 21 53  1  0
 22 54  1  0
 25 55  1  0
 27 56  1  0
 28 57  1  0
 32 58  1  0
 33 59  1  0
 33 60  1  0
 35 61  1  0
 36 62  1  0
 38 63  1  0
 39 64  1  0
 41 65  1  0
M  END
>  <meeko>  (9) 
{"is_sidechain": [false], "free_energy": -8.294, "intermolecular_energy": -12.231, "internal_energy": -1.279}

$$$$
