LIB_POBWGJYVMWYKSK__M_PUB_ALL__e8__s20260927
     RDKit          3D

 86 91  0  0  0  0  0  0  0  0999 V2000
    2.2220  -10.4560   -2.9890 C   0  0  0  0  0  0  0  0  0  0  0  0
    1.9320  -11.2670   -1.7680 C   0  0  0  0  0  0  0  0  0  0  0  0
    1.1340  -10.9400   -0.7300 C   0  0  0  0  0  0  0  0  0  0  0  0
    0.3210   -9.6870   -0.6030 C   0  0  0  0  0  0  0  0  0  0  0  0
    1.0420  -11.9400    0.3810 C   0  0  0  0  0  0  0  0  0  0  0  0
    0.4020  -11.7770    1.4080 O   0  0  0  0  0  0  0  0  0  0  0  0
    1.7420  -13.0480    0.0390 O   0  0  0  0  0  0  0  0  0  0  0  0
    2.4920  -13.7130    1.0900 C   0  0  2  0  0  0  0  0  0  0  0  0
    3.9860  -13.4790    0.8130 C   0  0  2  0  0  0  0  0  0  0  0  0
    4.3470  -12.0860    0.6480 O   0  0  0  0  0  0  0  0  0  0  0  0
    5.1910  -11.9620   -0.5350 C   0  0  0  0  0  0  0  0  0  0  0  0
    5.6530  -13.3860   -0.8910 C   0  0  2  0  0  0  0  0  0  0  0  0
    6.9060  -13.6890   -0.0440 C   0  0  0  0  0  0  0  0  0  0  0  0
    5.9390  -13.6960   -2.3780 C   0  0  2  0  0  0  0  0  0  0  0  0
    4.9140  -13.0980   -3.2060 O   0  0  0  0  0  0  0  0  0  0  0  0
    5.3250  -12.5900   -4.4030 C   0  0  0  0  0  0  0  0  0  0  0  0
    4.1810  -12.5760   -5.3680 C   0  0  0  0  0  0  0  0  0  0  0  0
    6.4560  -12.2040   -4.6590 O   0  0  0  0  0  0  0  0  0  0  0  0
    5.9200  -15.2320   -2.6240 C   0  0  0  0  0  0  0  0  0  0  0  0
    4.6450  -15.9590   -2.1040 C   0  0  2  0  0  0  0  0  0  0  0  0
    3.5720  -15.6560   -2.9970 O   0  0  0  0  0  0  0  0  0  0  0  0
    4.2690  -15.6200   -0.6050 C   0  0  1  0  0  0  0  0  0  0  0  0
    5.2760  -16.3680    0.2960 C   0  0  0  0  0  0  0  0  0  0  0  0
    4.3710  -14.1000   -0.5020 C   0  0  1  0  0  0  0  0  0  0  0  0
    2.7390  -15.9550   -0.2440 C   0  0  1  0  0  0  0  0  0  0  0  0
    2.4010  -17.4870   -0.3430 C   0  0  0  0  0  0  0  0  0  0  0  0
    0.9100  -17.8110   -0.2740 C   0  0  0  0  0  0  0  0  0  0  0  0
    0.1680  -16.7990   -0.9320 O   0  0  0  0  0  0  0  0  0  0  0  0
   -0.2260  -15.6910   -0.1300 C   0  0  1  0  0  0  0  0  0  0  0  0
   -1.6390  -15.9620    0.3790 C   0  0  0  0  0  0  0  0  0  0  0  0
   -1.7270  -15.2880    1.7430 C   0  0  1  0  0  0  0  0  0  0  0  0
   -2.5950  -16.0840    2.6610 C   0  0  0  0  0  0  0  0  0  0  0  0
   -3.5390  -15.7470    3.5400 C   0  0  0  0  0  0  0  0  0  0  0  0
   -4.1000  -16.9390    4.1990 C   0  0  0  0  0  0  0  0  0  0  0  0
   -3.3890  -18.0280    3.6200 O   0  0  0  0  0  0  0  0  0  0  0  0
   -2.4930  -17.5500    2.7140 C   0  0  0  0  0  0  0  0  0  0  0  0
   -1.7260  -18.2280    2.0550 O   0  0  0  0  0  0  0  0  0  0  0  0
   -0.2710  -15.1500    2.1540 C   0  0  0  0  0  0  0  0  0  0  0  0
    0.0060  -14.6140    3.5250 C   0  0  0  0  0  0  0  0  0  0  0  0
    0.5810  -15.3920    1.1270 C   0  0  0  0  0  0  0  0  0  0  0  0
    2.1300  -15.2540    1.0750 C   0  0  2  0  0  0  0  0  0  0  0  0
    2.7060  -15.9390    2.3390 C   0  0  0  0  0  0  0  0  0  0  0  0
    2.5785   -9.4590   -2.6908 H   0  0  0  0  0  0  0  0  0  0  0  0
    2.9962  -10.9584   -3.5875 H   0  0  0  0  0  0  0  0  0  0  0  0
    1.3048  -10.3536   -3.5875 H   0  0  0  0  0  0  0  0  0  0  0  0
    2.4279  -12.2470   -1.7081 H   0  0  0  0  0  0  0  0  0  0  0  0
    0.1700   -9.4542    0.4614 H   0  0  0  0  0  0  0  0  0  0  0  0
    0.8517   -8.8548   -1.0886 H   0  0  0  0  0  0  0  0  0  0  0  0
   -0.6552   -9.8325   -1.0886 H   0  0  0  0  0  0  0  0  0  0  0  0
    2.2448  -13.3168    2.0859 H   0  0  0  0  0  0  0  0  0  0  0  0
    4.4923  -13.9094    1.6896 H   0  0  0  0  0  0  0  0  0  0  0  0
    4.6174  -11.5289   -1.3677 H   0  0  0  0  0  0  0  0  0  0  0  0
    6.0490  -11.3005   -0.3449 H   0  0  0  0  0  0  0  0  0  0  0  0
    6.6503  -13.6272    1.0241 H   0  0  0  0  0  0  0  0  0  0  0  0
    7.2695  -14.7009   -0.2760 H   0  0  0  0  0  0  0  0  0  0  0  0
    7.6917  -12.9550   -0.2760 H   0  0  0  0  0  0  0  0  0  0  0  0
    6.9286  -13.2878   -2.6312 H   0  0  0  0  0  0  0  0  0  0  0  0
    3.2321  -12.5644   -4.8117 H   0  0  0  0  0  0  0  0  0  0  0  0
    4.2460  -11.6786   -6.0008 H   0  0  0  0  0  0  0  0  0  0  0  0
    4.2241  -13.4747   -6.0008 H   0  0  0  0  0  0  0  0  0  0  0  0
    5.9959  -15.4064   -3.7074 H   0  0  0  0  0  0  0  0  0  0  0  0
    6.7669  -15.6475   -2.0582 H   0  0  0  0  0  0  0  0  0  0  0  0
    4.8506  -17.0395   -2.0899 H   0  0  0  0  0  0  0  0  0  0  0  0
    2.7550  -16.0490   -2.6430 H   0  0  0  0  0  0  0  0  0  0  0  0
    5.0294  -16.1848    1.3522 H   0  0  0  0  0  0  0  0  0  0  0  0
    5.2224  -17.4470    0.0887 H   0  0  0  0  0  0  0  0  0  0  0  0
    6.2935  -16.0050    0.0887 H   0  0  0  0  0  0  0  0  0  0  0  0
    3.6224  -13.9388   -1.2917 H   0  0  0  0  0  0  0  0  0  0  0  0
    2.1909  -15.4492   -1.0526 H   0  0  0  0  0  0  0  0  0  0  0  0
    2.7908  -17.8640   -1.3000 H   0  0  0  0  0  0  0  0  0  0  0  0
    2.8670  -17.9678    0.5297 H   0  0  0  0  0  0  0  0  0  0  0  0
    0.7233  -18.7779   -0.7642 H   0  0  0  0  0  0  0  0  0  0  0  0
    0.5980  -17.8632    0.7795 H   0  0  0  0  0  0  0  0  0  0  0  0
   -0.0910  -14.8317   -0.8033 H   0  0  0  0  0  0  0  0  0  0  0  0
   -2.3825  -15.5328   -0.3087 H   0  0  0  0  0  0  0  0  0  0  0  0
   -1.8443  -17.0405    0.4470 H   0  0  0  0  0  0  0  0  0  0  0  0
   -2.2123  -14.3009    1.7538 H   0  0  0  0  0  0  0  0  0  0  0  0
   -3.8572  -14.7144    3.7461 H   0  0  0  0  0  0  0  0  0  0  0  0
   -3.9333  -16.8984    5.2855 H   0  0  0  0  0  0  0  0  0  0  0  0
   -5.1876  -17.0246    4.0581 H   0  0  0  0  0  0  0  0  0  0  0  0
   -0.3620  -15.3261    4.2783 H   0  0  0  0  0  0  0  0  0  0  0  0
    1.0896  -14.4735    3.6517 H   0  0  0  0  0  0  0  0  0  0  0  0
   -0.5062  -13.6488    3.6517 H   0  0  0  0  0  0  0  0  0  0  0  0
    2.2976  -15.4534    3.2375 H   0  0  0  0  0  0  0  0  0  0  0  0
    2.4273  -17.0031    2.3386 H   0  0  0  0  0  0  0  0  0  0  0  0
    3.8021  -15.8470    2.3386 H   0  0  0  0  0  0  0  0  0  0  0  0
  1  2  1  0
  2  3  2  0
  3  4  1  0
  3  5  1  0
  5  6  2  0
  5  7  1  0
  7  8  1  0
  8  9  1  0
  9 10  1  0
 10 11  1  0
 11 12  1  0
 12 13  1  1
 12 14  1  0
 14 15  1  0
 15 16  1  0
 16 17  1  0
 16 18  2  0
 14 19  1  0
 19 20  1  0
 20 21  1  0
 20 22  1  0
 22 23  1  1
 22 24  1  0
 22 25  1  0
 25 26  1  0
 26 27  1  0
 27 28  1  0
 28 29  1  0
 29 30  1  0
 30 31  1  0
 31 32  1  0
 32 33  2  0
 33 34  1  0
 34 35  1  0
 35 36  1  0
 36 37  2  0
 31 38  1  0
 38 39  1  0
 38 40  2  0
 40 41  1  0
 41 42  1  1
 41  8  1  0
 24  9  1  0
 41 25  1  0
 24 12  1  0
 40 29  1  0
 36 32  1  0
  1 43  1  0
  1 44  1  0
  1 45  1  0
  2 46  1  0
  4 47  1  0
  4 48  1  0
  4 49  1  0
  8 50  1  1
  9 51  1  1
 11 52  1  0
 11 53  1  0
 13 54  1  0
 13 55  1  0
 13 56  1  0
 14 57  1  6
 17 58  1  0
 17 59  1  0
 17 60  1  0
 19 61  1  0
 19 62  1  0
 20 63  1  1
 21 64  1  0
 23 65  1  0
 23 66  1  0
 23 67  1  0
 24 68  1  6
 25 69  1  6
 26 70  1  0
 26 71  1  0
 27 72  1  0
 27 73  1  0
 29 74  1  6
 30 75  1  0
 30 76  1  0
 31 77  1  6
 33 78  1  0
 34 79  1  0
 34 80  1  0
 39 81  1  0
 39 82  1  0
 39 83  1  0
 42 84  1  0
 42 85  1  0
 42 86  1  0
M  END
>  <meeko>  (1) 
{"is_sidechain": [false], "free_energy": -7.056, "intermolecular_energy": -11.387, "internal_energy": -0.476}

$$$$
LIB_POBWGJYVMWYKSK__M_PUB_ALL__e8__s20260927
     RDKit          3D

 86 91  0  0  0  0  0  0  0  0999 V2000
    2.9610  -10.5370   -4.0000 C   0  0  0  0  0  0  0  0  0  0  0  0
    2.2180  -11.7660   -3.5850 C   0  0  0  0  0  0  0  0  0  0  0  0
    2.3550  -13.0170   -4.0710 C   0  0  0  0  0  0  0  0  0  0  0  0
    3.3300  -13.4530   -5.1230 C   0  0  0  0  0  0  0  0  0  0  0  0
    1.4590  -14.0630   -3.4820 C   0  0  0  0  0  0  0  0  0  0  0  0
    0.7510  -14.8150   -4.1340 O   0  0  0  0  0  0  0  0  0  0  0  0
    1.5990  -14.0580   -2.1340 O   0  0  0  0  0  0  0  0  0  0  0  0
    1.9940  -15.3040   -1.5010 C   0  0  2  0  0  0  0  0  0  0  0  0
    0.7570  -15.8750   -0.7900 C   0  0  2  0  0  0  0  0  0  0  0  0
   -0.4070  -16.0120   -1.6420 O   0  0  0  0  0  0  0  0  0  0  0  0
   -1.5630  -15.4650   -0.9410 C   0  0  0  0  0  0  0  0  0  0  0  0
   -1.1490  -15.3220    0.5350 C   0  0  2  0  0  0  0  0  0  0  0  0
   -1.3950  -16.6840    1.2170 C   0  0  0  0  0  0  0  0  0  0  0  0
   -1.8140  -14.1960    1.3600 C   0  0  2  0  0  0  0  0  0  0  0  0
   -1.8890  -12.9900    0.5640 O   0  0  0  0  0  0  0  0  0  0  0  0
   -2.9530  -12.1710    0.8090 C   0  0  0  0  0  0  0  0  0  0  0  0
   -2.4950  -10.7470    0.8600 C   0  0  0  0  0  0  0  0  0  0  0  0
   -4.1070  -12.5370    0.9660 O   0  0  0  0  0  0  0  0  0  0  0  0
   -0.9700  -13.8840    2.6290 C   0  0  0  0  0  0  0  0  0  0  0  0
    0.5370  -13.6050    2.3550 C   0  0  2  0  0  0  0  0  0  0  0  0
    0.6460  -12.2990    1.7850 O   0  0  0  0  0  0  0  0  0  0  0  0
    1.2480  -14.6940    1.4550 C   0  0  1  0  0  0  0  0  0  0  0  0
    1.4600  -15.9440    2.3380 C   0  0  0  0  0  0  0  0  0  0  0  0
    0.2950  -14.9280    0.2850 C   0  0  1  0  0  0  0  0  0  0  0  0
    2.6090  -14.1690    0.7790 C   0  0  1  0  0  0  0  0  0  0  0  0
    3.7090  -13.8320    1.8330 C   0  0  0  0  0  0  0  0  0  0  0  0
    4.9260  -13.1080    1.2630 C   0  0  0  0  0  0  0  0  0  0  0  0
    4.5160  -12.1950    0.2590 O   0  0  0  0  0  0  0  0  0  0  0  0
    4.4360  -12.7150   -1.0630 C   0  0  1  0  0  0  0  0  0  0  0  0
    5.7440  -12.3830   -1.7750 C   0  0  0  0  0  0  0  0  0  0  0  0
    5.9820  -13.5200   -2.7610 C   0  0  1  0  0  0  0  0  0  0  0  0
    7.4430  -13.8000   -2.8880 C   0  0  0  0  0  0  0  0  0  0  0  0
    8.4450  -13.8210   -2.0080 C   0  0  0  0  0  0  0  0  0  0  0  0
    9.7200  -14.1640   -2.6640 C   0  0  0  0  0  0  0  0  0  0  0  0
    9.3730  -14.3460   -4.0330 O   0  0  0  0  0  0  0  0  0  0  0  0
    8.0380  -14.1330   -4.1910 C   0  0  0  0  0  0  0  0  0  0  0  0
    7.4330  -14.2020   -5.2450 O   0  0  0  0  0  0  0  0  0  0  0  0
    5.1340  -14.6480   -2.1980 C   0  0  0  0  0  0  0  0  0  0  0  0
    5.2240  -15.9800   -2.8780 C   0  0  0  0  0  0  0  0  0  0  0  0
    4.2800  -14.2200   -1.2350 C   0  0  0  0  0  0  0  0  0  0  0  0
    3.1680  -15.0050   -0.4820 C   0  0  2  0  0  0  0  0  0  0  0  0
    3.7840  -16.3380    0.0120 C   0  0  0  0  0  0  0  0  0  0  0  0
    3.2922   -9.9892   -3.1055 H   0  0  0  0  0  0  0  0  0  0  0  0
    3.8374  -10.8234   -4.6000 H   0  0  0  0  0  0  0  0  0  0  0  0
    2.3002   -9.8941   -4.6000 H   0  0  0  0  0  0  0  0  0  0  0  0
    1.4707  -11.6347   -2.7886 H   0  0  0  0  0  0  0  0  0  0  0  0
    4.2328  -13.8567   -4.6414 H   0  0  0  0  0  0  0  0  0  0  0  0
    2.8696  -14.2310   -5.7497 H   0  0  0  0  0  0  0  0  0  0  0  0
    3.6029  -12.5912   -5.7497 H   0  0  0  0  0  0  0  0  0  0  0  0
    2.3596  -16.0402   -2.2320 H   0  0  0  0  0  0  0  0  0  0  0  0
    1.0883  -16.8583   -0.4248 H   0  0  0  0  0  0  0  0  0  0  0  0
   -1.8309  -14.4829   -1.3578 H   0  0  0  0  0  0  0  0  0  0  0  0
   -2.4403  -16.1199   -1.0473 H   0  0  0  0  0  0  0  0  0  0  0  0
   -1.3720  -16.5566    2.3093 H   0  0  0  0  0  0  0  0  0  0  0  0
   -2.3780  -17.0736    0.9139 H   0  0  0  0  0  0  0  0  0  0  0  0
   -0.6104  -17.3929    0.9139 H   0  0  0  0  0  0  0  0  0  0  0  0
   -2.8203  -14.5302    1.6528 H   0  0  0  0  0  0  0  0  0  0  0  0
   -2.3936  -10.4318    1.9090 H   0  0  0  0  0  0  0  0  0  0  0  0
   -1.5224  -10.6563    0.3542 H   0  0  0  0  0  0  0  0  0  0  0  0
   -3.2324  -10.1063    0.3542 H   0  0  0  0  0  0  0  0  0  0  0  0
   -1.3997  -12.9966    3.1168 H   0  0  0  0  0  0  0  0  0  0  0  0
   -1.0099  -14.7853    3.2583 H   0  0  0  0  0  0  0  0  0  0  0  0
    1.0725  -13.6608    3.3142 H   0  0  0  0  0  0  0  0  0  0  0  0
    1.3290  -12.3190    1.0940 H   0  0  0  0  0  0  0  0  0  0  0  0
    1.4112  -15.6563    3.3986 H   0  0  0  0  0  0  0  0  0  0  0  0
    0.6744  -16.6830    2.1220 H   0  0  0  0  0  0  0  0  0  0  0  0
    2.4454  -16.3827    2.1220 H   0  0  0  0  0  0  0  0  0  0  0  0
    0.3245  -13.8733   -0.0259 H   0  0  0  0  0  0  0  0  0  0  0  0
    2.3010  -13.2243    0.3071 H   0  0  0  0  0  0  0  0  0  0  0  0
    3.2596  -13.1929    2.6073 H   0  0  0  0  0  0  0  0  0  0  0  0
    4.0710  -14.7927    2.2279 H   0  0  0  0  0  0  0  0  0  0  0  0
    5.4352  -12.5596    2.0692 H   0  0  0  0  0  0  0  0  0  0  0  0
    5.6140  -13.8454    0.8238 H   0  0  0  0  0  0  0  0  0  0  0  0
    3.5179  -12.2562   -1.4587 H   0  0  0  0  0  0  0  0  0  0  0  0
    5.6567  -11.4253   -2.3090 H   0  0  0  0  0  0  0  0  0  0  0  0
    6.5773  -12.2835   -1.0639 H   0  0  0  0  0  0  0  0  0  0  0  0
    5.6874  -13.3151   -3.8008 H   0  0  0  0  0  0  0  0  0  0  0  0
    8.3346  -13.6101   -0.9341 H   0  0  0  0  0  0  0  0  0  0  0  0
   10.4482  -13.3472   -2.5518 H   0  0  0  0  0  0  0  0  0  0  0  0
   10.1906  -15.0572   -2.2272 H   0  0  0  0  0  0  0  0  0  0  0  0
    5.2778  -16.7756   -2.1203 H   0  0  0  0  0  0  0  0  0  0  0  0
    4.3341  -16.1317   -3.5065 H   0  0  0  0  0  0  0  0  0  0  0  0
    6.1263  -16.0106   -3.5065 H   0  0  0  0  0  0  0  0  0  0  0  0
    3.7911  -16.3533    1.1119 H   0  0  0  0  0  0  0  0  0  0  0  0
    3.1838  -17.1803   -0.3626 H   0  0  0  0  0  0  0  0  0  0  0  0
    4.8144  -16.4268   -0.3626 H   0  0  0  0  0  0  0  0  0  0  0  0
  1  2  1  0
  2  3  2  0
  3  4  1  0
  3  5  1  0
  5  6  2  0
  5  7  1  0
  7  8  1  0
  8  9  1  0
  9 10  1  0
 10 11  1  0
 11 12  1  0
 12 13  1  1
 12 14  1  0
 14 15  1  0
 15 16  1  0
 16 17  1  0
 16 18  2  0
 14 19  1  0
 19 20  1  0
 20 21  1  0
 20 22  1  0
 22 23  1  1
 22 24  1  0
 22 25  1  0
 25 26  1  0
 26 27  1  0
 27 28  1  0
 28 29  1  0
 29 30  1  0
 30 31  1  0
 31 32  1  0
 32 33  2  0
 33 34  1  0
 34 35  1  0
 35 36  1  0
 36 37  2  0
 31 38  1  0
 38 39  1  0
 38 40  2  0
 40 41  1  0
 41 42  1  1
 41  8  1  0
 24  9  1  0
 41 25  1  0
 24 12  1  0
 40 29  1  0
 36 32  1  0
  1 43  1  0
  1 44  1  0
  1 45  1  0
  2 46  1  0
  4 47  1  0
  4 48  1  0
  4 49  1  0
  8 50  1  6
  9 51  1  1
 11 52  1  0
 11 53  1  0
 13 54  1  0
 13 55  1  0
 13 56  1  0
 14 57  1  1
 17 58  1  0
 17 59  1  0
 17 60  1  0
 19 61  1  0
 19 62  1  0
 20 63  1  1
 21 64  1  0
 23 65  1  0
 23 66  1  0
 23 67  1  0
 24 68  1  6
 25 69  1  6
 26 70  1  0
 26 71  1  0
 27 72  1  0
 27 73  1  0
 29 74  1  6
 30 75  1  0
 30 76  1  0
 31 77  1  6
 33 78  1  0
 34 79  1  0
 34 80  1  0
 39 81  1  0
 39 82  1  0
 39 83  1  0
 42 84  1  0
 42 85  1  0
 42 86  1  0
M  END
>  <meeko>  (2) 
{"is_sidechain": [false], "free_energy": -7.002, "intermolecular_energy": -10.693, "internal_energy": -1.084}

$$$$
LIB_POBWGJYVMWYKSK__M_PUB_ALL__e8__s20260927
     RDKit          3D

 86 91  0  0  0  0  0  0  0  0999 V2000
    3.0830  -13.0530   -5.1510 C   0  0  0  0  0  0  0  0  0  0  0  0
    2.5370  -12.8210   -3.7790 C   0  0  0  0  0  0  0  0  0  0  0  0
    2.3890  -11.6430   -3.1380 C   0  0  0  0  0  0  0  0  0  0  0  0
    2.7100  -10.2890   -3.6950 C   0  0  0  0  0  0  0  0  0  0  0  0
    1.8310  -11.7060   -1.7500 C   0  0  0  0  0  0  0  0  0  0  0  0
    1.2970  -10.7690   -1.1750 O   0  0  0  0  0  0  0  0  0  0  0  0
    1.9800  -12.9630   -1.2680 O   0  0  0  0  0  0  0  0  0  0  0  0
    2.4320  -13.1010    0.1050 C   0  0  2  0  0  0  0  0  0  0  0  0
    3.9650  -13.2180    0.0800 C   0  0  2  0  0  0  0  0  0  0  0  0
    4.6290  -12.1460   -0.6350 O   0  0  0  0  0  0  0  0  0  0  0  0
    5.6250  -12.7300   -1.5260 C   0  0  0  0  0  0  0  0  0  0  0  0
    5.8200  -14.1870   -1.0670 C   0  0  2  0  0  0  0  0  0  0  0  0
    6.8620  -14.1750    0.0700 C   0  0  0  0  0  0  0  0  0  0  0  0
    6.2220  -15.2270   -2.1370 C   0  0  2  0  0  0  0  0  0  0  0  0
    5.4610  -15.0020   -3.3460 O   0  0  0  0  0  0  0  0  0  0  0  0
    6.1830  -14.8430   -4.4930 C   0  0  0  0  0  0  0  0  0  0  0  0
    5.8180  -15.9140   -5.4740 C   0  0  0  0  0  0  0  0  0  0  0  0
    7.0070  -13.9650   -4.6970 O   0  0  0  0  0  0  0  0  0  0  0  0
    5.9130  -16.6660   -1.6350 C   0  0  0  0  0  0  0  0  0  0  0  0
    4.4580  -16.8790   -1.1230 C   0  0  2  0  0  0  0  0  0  0  0  0
    3.5960  -16.9340   -2.2610 O   0  0  0  0  0  0  0  0  0  0  0  0
    3.9720  -15.7960   -0.0770 C   0  0  1  0  0  0  0  0  0  0  0  0
    4.6750  -16.1120    1.2620 C   0  0  0  0  0  0  0  0  0  0  0  0
    4.3770  -14.4510   -0.6760 C   0  0  1  0  0  0  0  0  0  0  0  0
    2.3720  -15.7210    0.0610 C   0  0  1  0  0  0  0  0  0  0  0  0
    1.7750  -17.0400    0.6370 C   0  0  0  0  0  0  0  0  0  0  0  0
    0.2500  -17.0990    0.5990 C   0  0  0  0  0  0  0  0  0  0  0  0
   -0.2240  -16.5200   -0.6050 O   0  0  0  0  0  0  0  0  0  0  0  0
   -0.4680  -15.1180   -0.5700 C   0  0  1  0  0  0  0  0  0  0  0  0
   -1.9570  -14.9100   -0.3150 C   0  0  0  0  0  0  0  0  0  0  0  0
   -2.0680  -13.6110    0.4730 C   0  0  1  0  0  0  0  0  0  0  0  0
   -3.1920  -13.6910    1.4520 C   0  0  0  0  0  0  0  0  0  0  0  0
   -3.3590  -14.3610    2.5930 C   0  0  0  0  0  0  0  0  0  0  0  0
   -4.6800  -14.0830    3.1840 C   0  0  0  0  0  0  0  0  0  0  0  0
   -5.2880  -13.1720    2.2730 O   0  0  0  0  0  0  0  0  0  0  0  0
   -4.4320  -12.9300    1.2420 C   0  0  0  0  0  0  0  0  0  0  0  0
   -4.6600  -12.2010    0.2940 O   0  0  0  0  0  0  0  0  0  0  0  0
   -0.6790  -13.4470    1.0660 C   0  0  0  0  0  0  0  0  0  0  0  0
   -0.4650  -12.3030    2.0090 C   0  0  0  0  0  0  0  0  0  0  0  0
    0.2230  -14.2950    0.5100 C   0  0  0  0  0  0  0  0  0  0  0  0
    1.7590  -14.3890    0.7340 C   0  0  2  0  0  0  0  0  0  0  0  0
    2.0110  -14.4180    2.2620 C   0  0  0  0  0  0  0  0  0  0  0  0
    4.0930  -13.4822   -5.0759 H   0  0  0  0  0  0  0  0  0  0  0  0
    2.4276  -13.7504   -5.6934 H   0  0  0  0  0  0  0  0  0  0  0  0
    3.1301  -12.0972   -5.6934 H   0  0  0  0  0  0  0  0  0  0  0  0
    2.2180  -13.7170   -3.2263 H   0  0  0  0  0  0  0  0  0  0  0  0
    2.8774   -9.5828   -2.8684 H   0  0  0  0  0  0  0  0  0  0  0  0
    3.6180  -10.3525   -4.3127 H   0  0  0  0  0  0  0  0  0  0  0  0
    1.8702   -9.9381   -4.3127 H   0  0  0  0  0  0  0  0  0  0  0  0
    2.1478  -12.2348    0.7206 H   0  0  0  0  0  0  0  0  0  0  0  0
    4.2522  -13.2134    1.1418 H   0  0  0  0  0  0  0  0  0  0  0  0
    5.2670  -12.7036   -2.5658 H   0  0  0  0  0  0  0  0  0  0  0  0
    6.5711  -12.1702   -1.4871 H   0  0  0  0  0  0  0  0  0  0  0  0
    6.3452  -14.1810    1.0410 H   0  0  0  0  0  0  0  0  0  0  0  0
    7.5023  -15.0658   -0.0100 H   0  0  0  0  0  0  0  0  0  0  0  0
    7.4816  -13.2697   -0.0100 H   0  0  0  0  0  0  0  0  0  0  0  0
    7.2992  -15.1211   -2.3330 H   0  0  0  0  0  0  0  0  0  0  0  0
    5.5095  -16.8193   -4.9306 H   0  0  0  0  0  0  0  0  0  0  0  0
    4.9881  -15.5650   -6.1060 H   0  0  0  0  0  0  0  0  0  0  0  0
    6.6883  -16.1444   -6.1060 H   0  0  0  0  0  0  0  0  0  0  0  0
    6.0890  -17.3640   -2.4667 H   0  0  0  0  0  0  0  0  0  0  0  0
    6.5740  -16.8428   -0.7737 H   0  0  0  0  0  0  0  0  0  0  0  0
    4.4291  -17.8248   -0.5621 H   0  0  0  0  0  0  0  0  0  0  0  0
    3.9320  -17.6120   -2.8710 H   0  0  0  0  0  0  0  0  0  0  0  0
    4.0220  -15.8185    2.0972 H   0  0  0  0  0  0  0  0  0  0  0  0
    4.8835  -17.1904    1.3211 H   0  0  0  0  0  0  0  0  0  0  0  0
    5.6200  -15.5521    1.3211 H   0  0  0  0  0  0  0  0  0  0  0  0
    3.7871  -14.6131   -1.5902 H   0  0  0  0  0  0  0  0  0  0  0  0
    2.0276  -15.6208   -0.9789 H   0  0  0  0  0  0  0  0  0  0  0  0
    2.1686  -17.8831    0.0503 H   0  0  0  0  0  0  0  0  0  0  0  0
    2.0694  -17.0872    1.6958 H   0  0  0  0  0  0  0  0  0  0  0  0
   -0.0761  -18.1482    0.6526 H   0  0  0  0  0  0  0  0  0  0  0  0
   -0.1561  -16.5399    1.4549 H   0  0  0  0  0  0  0  0  0  0  0  0
   -0.0700  -14.7689   -1.5342 H   0  0  0  0  0  0  0  0  0  0  0  0
   -2.5005  -14.8272   -1.2678 H   0  0  0  0  0  0  0  0  0  0  0  0
   -2.3944  -15.7555    0.2362 H   0  0  0  0  0  0  0  0  0  0  0  0
   -2.3293  -12.7202   -0.1171 H   0  0  0  0  0  0  0  0  0  0  0  0
   -2.6088  -15.0332    3.0351 H   0  0  0  0  0  0  0  0  0  0  0  0
   -5.2725  -15.0062    3.2657 H   0  0  0  0  0  0  0  0  0  0  0  0
   -4.6073  -13.6736    4.2024 H   0  0  0  0  0  0  0  0  0  0  0  0
   -0.5327  -12.6647    3.0456 H   0  0  0  0  0  0  0  0  0  0  0  0
    0.5302  -11.8672    1.8369 H   0  0  0  0  0  0  0  0  0  0  0  0
   -1.2354  -11.5369    1.8369 H   0  0  0  0  0  0  0  0  0  0  0  0
    1.0543  -14.3079    2.7936 H   0  0  0  0  0  0  0  0  0  0  0  0
    2.4762  -15.3756    2.5388 H   0  0  0  0  0  0  0  0  0  0  0  0
    2.6815  -13.5911    2.5388 H   0  0  0  0  0  0  0  0  0  0  0  0
  1  2  1  0
  2  3  2  0
  3  4  1  0
  3  5  1  0
  5  6  2  0
  5  7  1  0
  7  8  1  0
  8  9  1  0
  9 10  1  0
 10 11  1  0
 11 12  1  0
 12 13  1  1
 12 14  1  0
 14 15  1  0
 15 16  1  0
 16 17  1  0
 16 18  2  0
 14 19  1  0
 19 20  1  0
 20 21  1  0
 20 22  1  0
 22 23  1  1
 22 24  1  0
 22 25  1  0
 25 26  1  0
 26 27  1  0
 27 28  1  0
 28 29  1  0
 29 30  1  0
 30 31  1  0
 31 32  1  0
 32 33  2  0
 33 34  1  0
 34 35  1  0
 35 36  1  0
 36 37  2  0
 31 38  1  0
 38 39  1  0
 38 40  2  0
 40 41  1  0
 41 42  1  1
 41  8  1  0
 24  9  1  0
 41 25  1  0
 24 12  1  0
 40 29  1  0
 36 32  1  0
  1 43  1  0
  1 44  1  0
  1 45  1  0
  2 46  1  0
  4 47  1  0
  4 48  1  0
  4 49  1  0
  8 50  1  1
  9 51  1  1
 11 52  1  0
 11 53  1  0
 13 54  1  0
 13 55  1  0
 13 56  1  0
 14 57  1  6
 17 58  1  0
 17 59  1  0
 17 60  1  0
 19 61  1  0
 19 62  1  0
 20 63  1  1
 21 64  1  0
 23 65  1  0
 23 66  1  0
 23 67  1  0
 24 68  1  6
 25 69  1  6
 26 70  1  0
 26 71  1  0
 27 72  1  0
 27 73  1  0
 29 74  1  6
 30 75  1  0
 30 76  1  0
 31 77  1  6
 33 78  1  0
 34 79  1  0
 34 80  1  0
 39 81  1  0
 39 82  1  0
 39 83  1  0
 42 84  1  0
 42 85  1  0
 42 86  1  0
M  END
>  <meeko>  (3) 
{"is_sidechain": [false], "free_energy": -6.881, "intermolecular_energy": -10.982, "internal_energy": -0.6}

$$$$
LIB_POBWGJYVMWYKSK__M_PUB_ALL__e8__s20260927
     RDKit          3D

 86 91  0  0  0  0  0  0  0  0999 V2000
    1.4960  -14.9250    3.6970 C   0  0  0  0  0  0  0  0  0  0  0  0
    1.9430  -15.5000    2.3920 C   0  0  0  0  0  0  0  0  0  0  0  0
    3.0190  -15.1470    1.6600 C   0  0  0  0  0  0  0  0  0  0  0  0
    4.0360  -14.1100    2.0300 C   0  0  0  0  0  0  0  0  0  0  0  0
    3.2180  -15.8810    0.3690 C   0  0  0  0  0  0  0  0  0  0  0  0
    3.0630  -17.0840    0.2270 O   0  0  0  0  0  0  0  0  0  0  0  0
    3.5510  -14.9950   -0.5990 O   0  0  0  0  0  0  0  0  0  0  0  0
    2.9050  -15.1440   -1.8910 C   0  0  2  0  0  0  0  0  0  0  0  0
    4.0040  -15.4090   -2.9310 C   0  0  2  0  0  0  0  0  0  0  0  0
    4.8810  -16.5140   -2.6000 O   0  0  0  0  0  0  0  0  0  0  0  0
    6.2610  -16.0890   -2.8030 C   0  0  0  0  0  0  0  0  0  0  0  0
    6.2000  -14.7950   -3.6350 C   0  0  2  0  0  0  0  0  0  0  0  0
    6.1210  -15.2050   -5.1200 C   0  0  0  0  0  0  0  0  0  0  0  0
    7.3330  -13.7620   -3.4370 C   0  0  2  0  0  0  0  0  0  0  0  0
    7.6390  -13.6400   -2.0280 O   0  0  0  0  0  0  0  0  0  0  0  0
    8.9250  -13.3080   -1.7170 C   0  0  0  0  0  0  0  0  0  0  0  0
    8.9490  -12.5000   -0.4560 C   0  0  0  0  0  0  0  0  0  0  0  0
    9.9140  -13.6160   -2.3640 O   0  0  0  0  0  0  0  0  0  0  0  0
    6.8880  -12.3650   -3.9560 C   0  0  0  0  0  0  0  0  0  0  0  0
    5.5260  -11.8640   -3.3900 C   0  0  2  0  0  0  0  0  0  0  0  0
    5.7360  -11.4560   -2.0370 O   0  0  0  0  0  0  0  0  0  0  0  0
    4.3480  -12.9140   -3.5050 C   0  0  1  0  0  0  0  0  0  0  0  0
    3.9180  -12.9510   -4.9880 C   0  0  0  0  0  0  0  0  0  0  0  0
    4.9380  -14.2320   -3.0080 C   0  0  1  0  0  0  0  0  0  0  0  0
    3.1250  -12.6070   -2.5070 C   0  0  1  0  0  0  0  0  0  0  0  0
    2.3930  -11.2560   -2.8340 C   0  0  0  0  0  0  0  0  0  0  0  0
    1.4000  -10.8030   -1.7660 C   0  0  0  0  0  0  0  0  0  0  0  0
    1.8940  -11.1320   -0.4790 O   0  0  0  0  0  0  0  0  0  0  0  0
    1.5500  -12.4240    0.0100 C   0  0  1  0  0  0  0  0  0  0  0  0
    0.3070  -12.2760    0.8830 C   0  0  0  0  0  0  0  0  0  0  0  0
   -0.4660  -13.5800    0.7310 C   0  0  1  0  0  0  0  0  0  0  0  0
   -1.9360  -13.3220    0.7820 C   0  0  0  0  0  0  0  0  0  0  0  0
   -2.7230  -12.4280    0.1830 C   0  0  0  0  0  0  0  0  0  0  0  0
   -4.1300  -12.6060    0.5830 C   0  0  0  0  0  0  0  0  0  0  0  0
   -4.1000  -13.7050    1.4880 O   0  0  0  0  0  0  0  0  0  0  0  0
   -2.8180  -14.1410    1.6250 C   0  0  0  0  0  0  0  0  0  0  0  0
   -2.4580  -15.0610    2.3370 O   0  0  0  0  0  0  0  0  0  0  0  0
    0.0660  -14.1470   -0.5740 C   0  0  0  0  0  0  0  0  0  0  0  0
   -0.5750  -15.3980   -1.0910 C   0  0  0  0  0  0  0  0  0  0  0  0
    1.1780  -13.5000   -1.0020 C   0  0  0  0  0  0  0  0  0  0  0  0
    2.1020  -13.8180   -2.2130 C   0  0  2  0  0  0  0  0  0  0  0  0
    1.1960  -14.0430   -3.4500 C   0  0  0  0  0  0  0  0  0  0  0  0
    1.9421  -15.4989    4.5226 H   0  0  0  0  0  0  0  0  0  0  0  0
    1.8175  -13.8752    3.7645 H   0  0  0  0  0  0  0  0  0  0  0  0
    0.3993  -14.9777    3.7645 H   0  0  0  0  0  0  0  0  0  0  0  0
    1.3201  -16.3073    1.9795 H   0  0  0  0  0  0  0  0  0  0  0  0
    4.1055  -14.0391    3.1255 H   0  0  0  0  0  0  0  0  0  0  0  0
    5.0157  -14.3938    1.6180 H   0  0  0  0  0  0  0  0  0  0  0  0
    3.7332  -13.1361    1.6180 H   0  0  0  0  0  0  0  0  0  0  0  0
    2.1922  -15.9817   -1.9011 H   0  0  0  0  0  0  0  0  0  0  0  0
    3.4499  -15.6176   -3.8581 H   0  0  0  0  0  0  0  0  0  0  0  0
    6.7459  -15.8961   -1.8347 H   0  0  0  0  0  0  0  0  0  0  0  0
    6.8458  -16.8661   -3.3169 H   0  0  0  0  0  0  0  0  0  0  0  0
    5.9133  -16.2828   -5.1923 H   0  0  0  0  0  0  0  0  0  0  0  0
    5.3147  -14.6424   -5.6133 H   0  0  0  0  0  0  0  0  0  0  0  0
    7.0786  -14.9822   -5.6133 H   0  0  0  0  0  0  0  0  0  0  0  0
    8.2156  -14.1055   -3.9965 H   0  0  0  0  0  0  0  0  0  0  0  0
    8.9290  -13.1749    0.4124 H   0  0  0  0  0  0  0  0  0  0  0  0
    9.8656  -11.8925   -0.4272 H   0  0  0  0  0  0  0  0  0  0  0  0
    8.0701  -11.8392   -0.4272 H   0  0  0  0  0  0  0  0  0  0  0  0
    7.6630  -11.6344   -3.6808 H   0  0  0  0  0  0  0  0  0  0  0  0
    6.7546  -12.4655   -5.0432 H   0  0  0  0  0  0  0  0  0  0  0  0
    5.1912  -11.0178   -4.0080 H   0  0  0  0  0  0  0  0  0  0  0  0
    5.5270  -12.2030   -1.4520 H   0  0  0  0  0  0  0  0  0  0  0  0
    2.8238  -13.0452   -5.0503 H   0  0  0  0  0  0  0  0  0  0  0  0
    4.2350  -12.0223   -5.4850 H   0  0  0  0  0  0  0  0  0  0  0  0
    4.3890  -13.8119   -5.4850 H   0  0  0  0  0  0  0  0  0  0  0  0
    5.1898  -13.8155   -2.0215 H   0  0  0  0  0  0  0  0  0  0  0  0
    3.6338  -12.4842   -1.5395 H   0  0  0  0  0  0  0  0  0  0  0  0
    3.1549  -10.4712   -2.9506 H   0  0  0  0  0  0  0  0  0  0  0  0
    1.8111  -11.4279   -3.7515 H   0  0  0  0  0  0  0  0  0  0  0  0
    1.2603   -9.7141   -1.8359 H   0  0  0  0  0  0  0  0  0  0  0  0
    0.4380  -11.3118   -1.9261 H   0  0  0  0  0  0  0  0  0  0  0  0
    2.4739  -12.7611    0.5028 H   0  0  0  0  0  0  0  0  0  0  0  0
    0.5933  -12.1209    1.9337 H   0  0  0  0  0  0  0  0  0  0  0  0
   -0.2988  -11.4091    0.5804 H   0  0  0  0  0  0  0  0  0  0  0  0
   -0.3245  -14.3115    1.5403 H   0  0  0  0  0  0  0  0  0  0  0  0
   -2.3684  -11.6582   -0.5181 H   0  0  0  0  0  0  0  0  0  0  0  0
   -4.5116  -11.7019    1.0799 H   0  0  0  0  0  0  0  0  0  0  0  0
   -4.7926  -12.7861   -0.2764 H   0  0  0  0  0  0  0  0  0  0  0  0
   -0.8952  -16.0229   -0.2442 H   0  0  0  0  0  0  0  0  0  0  0  0
   -1.4496  -15.1354   -1.7042 H   0  0  0  0  0  0  0  0  0  0  0  0
    0.1490  -15.9545   -1.7042 H   0  0  0  0  0  0  0  0  0  0  0  0
    0.1782  -14.2958   -3.1179 H   0  0  0  0  0  0  0  0  0  0  0  0
    1.1669  -13.1248   -4.0550 H   0  0  0  0  0  0  0  0  0  0  0  0
    1.5998  -14.8681   -4.0550 H   0  0  0  0  0  0  0  0  0  0  0  0
  1  2  1  0
  2  3  2  0
  3  4  1  0
  3  5  1  0
  5  6  2  0
  5  7  1  0
  7  8  1  0
  8  9  1  0
  9 10  1  0
 10 11  1  0
 11 12  1  0
 12 13  1  6
 12 14  1  0
 14 15  1  0
 15 16  1  0
 16 17  1  0
 16 18  2  0
 14 19  1  0
 19 20  1  0
 20 21  1  0
 20 22  1  0
 22 23  1  6
 22 24  1  0
 22 25  1  0
 25 26  1  0
 26 27  1  0
 27 28  1  0
 28 29  1  0
 29 30  1  0
 30 31  1  0
 31 32  1  0
 32 33  2  0
 33 34  1  0
 34 35  1  0
 35 36  1  0
 36 37  2  0
 31 38  1  0
 38 39  1  0
 38 40  2  0
 40 41  1  0
 41 42  1  6
 41  8  1  0
 24  9  1  0
 41 25  1  0
 24 12  1  0
 40 29  1  0
 36 32  1  0
  1 43  1  0
  1 44  1  0
  1 45  1  0
  2 46  1  0
  4 47  1  0
  4 48  1  0
  4 49  1  0
  8 50  1  1
  9 51  1  6
 11 52  1  0
 11 53  1  0
 13 54  1  0
 13 55  1  0
 13 56  1  0
 14 57  1  6
 17 58  1  0
 17 59  1  0
 17 60  1  0
 19 61  1  0
 19 62  1  0
 20 63  1  6
 21 64  1  0
 23 65  1  0
 23 66  1  0
 23 67  1  0
 24 68  1  1
 25 69  1  1
 26 70  1  0
 26 71  1  0
 27 72  1  0
 27 73  1  0
 29 74  1  1
 30 75  1  0
 30 76  1  0
 31 77  1  1
 33 78  1  0
 34 79  1  0
 34 80  1  0
 39 81  1  0
 39 82  1  0
 39 83  1  0
 42 84  1  0
 42 85  1  0
 42 86  1  0
M  END
>  <meeko>  (4) 
{"is_sidechain": [false], "free_energy": -6.85, "intermolecular_energy": -10.355, "internal_energy": -1.176}

$$$$
LIB_POBWGJYVMWYKSK__M_PUB_ALL__e8__s20260927
     RDKit          3D

 86 91  0  0  0  0  0  0  0  0999 V2000
    1.7170  -10.2560   -2.6260 C   0  0  0  0  0  0  0  0  0  0  0  0
    2.7370  -11.3450   -2.7150 C   0  0  0  0  0  0  0  0  0  0  0  0
    3.5100  -11.6660   -3.7730 C   0  0  0  0  0  0  0  0  0  0  0  0
    3.5390  -10.9560   -5.0930 C   0  0  0  0  0  0  0  0  0  0  0  0
    4.4390  -12.8270   -3.5920 C   0  0  0  0  0  0  0  0  0  0  0  0
    5.2080  -13.2390   -4.4470 O   0  0  0  0  0  0  0  0  0  0  0  0
    4.3100  -13.3050   -2.3310 O   0  0  0  0  0  0  0  0  0  0  0  0
    4.4820  -14.7340   -2.1380 C   0  0  2  0  0  0  0  0  0  0  0  0
    3.0860  -15.3500   -1.9630 C   0  0  2  0  0  0  0  0  0  0  0  0
    2.1560  -15.0250   -3.0250 O   0  0  0  0  0  0  0  0  0  0  0  0
    0.8920  -14.6130   -2.4270 C   0  0  0  0  0  0  0  0  0  0  0  0
    0.9450  -15.0520   -0.9520 C   0  0  2  0  0  0  0  0  0  0  0  0
    0.4790  -16.5210   -0.8920 C   0  0  0  0  0  0  0  0  0  0  0  0
    0.1540  -14.2090    0.0750 C   0  0  2  0  0  0  0  0  0  0  0  0
    0.3290  -12.8020   -0.2120 O   0  0  0  0  0  0  0  0  0  0  0  0
   -0.5800  -11.9540    0.3500 C   0  0  0  0  0  0  0  0  0  0  0  0
    0.0790  -10.6520    0.6820 C   0  0  0  0  0  0  0  0  0  0  0  0
   -1.7560  -12.2110    0.5580 O   0  0  0  0  0  0  0  0  0  0  0  0
    0.6810  -14.4760    1.5140 C   0  0  0  0  0  0  0  0  0  0  0  0
    2.2220  -14.3200    1.6820 C   0  0  2  0  0  0  0  0  0  0  0  0
    2.5250  -12.9230    1.6740 O   0  0  0  0  0  0  0  0  0  0  0  0
    3.0770  -15.1070    0.6090 C   0  0  1  0  0  0  0  0  0  0  0  0
    3.0110  -16.6040    0.9870 C   0  0  0  0  0  0  0  0  0  0  0  0
    2.4240  -14.7890   -0.7340 C   0  0  1  0  0  0  0  0  0  0  0  0
    4.5840  -14.5630    0.4740 C   0  0  1  0  0  0  0  0  0  0  0  0
    5.4110  -14.7760    1.7750 C   0  0  0  0  0  0  0  0  0  0  0  0
    6.7660  -14.0740    1.7840 C   0  0  0  0  0  0  0  0  0  0  0  0
    6.6600  -12.8160    1.1410 O   0  0  0  0  0  0  0  0  0  0  0  0
    6.8700  -12.8140   -0.2670 C   0  0  1  0  0  0  0  0  0  0  0  0
    8.3240  -12.4280   -0.5210 C   0  0  0  0  0  0  0  0  0  0  0  0
    8.7330  -13.1600   -1.7940 C   0  0  1  0  0  0  0  0  0  0  0  0
   10.1670  -13.5690   -1.7200 C   0  0  0  0  0  0  0  0  0  0  0  0
   10.8040  -14.5390   -1.0630 C   0  0  0  0  0  0  0  0  0  0  0  0
   12.2500  -14.5090   -1.3410 C   0  0  0  0  0  0  0  0  0  0  0  0
   12.4120  -13.4140   -2.2370 O   0  0  0  0  0  0  0  0  0  0  0  0
   11.2000  -12.8410   -2.4710 C   0  0  0  0  0  0  0  0  0  0  0  0
   11.0030  -11.8760   -3.1870 O   0  0  0  0  0  0  0  0  0  0  0  0
    7.7210  -14.2900   -1.8820 C   0  0  0  0  0  0  0  0  0  0  0  0
    7.9050  -15.2900   -2.9810 C   0  0  0  0  0  0  0  0  0  0  0  0
    6.6860  -14.1240   -1.0220 C   0  0  0  0  0  0  0  0  0  0  0  0
    5.3890  -14.9690   -0.8620 C   0  0  2  0  0  0  0  0  0  0  0  0
    5.8060  -16.4590   -0.7830 C   0  0  0  0  0  0  0  0  0  0  0  0
    1.5090  -10.0339   -1.5689 H   0  0  0  0  0  0  0  0  0  0  0  0
    2.1012   -9.3523   -3.1218 H   0  0  0  0  0  0  0  0  0  0  0  0
    0.7902  -10.5803   -3.1218 H   0  0  0  0  0  0  0  0  0  0  0  0
    2.8734  -11.9569   -1.8111 H   0  0  0  0  0  0  0  0  0  0  0  0
    3.5834   -9.8699   -4.9243 H   0  0  0  0  0  0  0  0  0  0  0  0
    4.4249  -11.2752   -5.6617 H   0  0  0  0  0  0  0  0  0  0  0  0
    2.6301  -11.2019   -5.6617 H   0  0  0  0  0  0  0  0  0  0  0  0
    4.9782  -15.2085   -2.9975 H   0  0  0  0  0  0  0  0  0  0  0  0
    3.2738  -16.4333   -1.9303 H   0  0  0  0  0  0  0  0  0  0  0  0
    0.7770  -13.5211   -2.4950 H   0  0  0  0  0  0  0  0  0  0  0  0
    0.0372  -15.0687   -2.9481 H   0  0  0  0  0  0  0  0  0  0  0  0
    0.3804  -16.8318    0.1586 H   0  0  0  0  0  0  0  0  0  0  0  0
   -0.4940  -16.6179   -1.3959 H   0  0  0  0  0  0  0  0  0  0  0  0
    1.2182  -17.1610   -1.3959 H   0  0  0  0  0  0  0  0  0  0  0  0
   -0.9077  -14.4886    0.0067 H   0  0  0  0  0  0  0  0  0  0  0  0
    0.1366  -10.5383    1.7746 H   0  0  0  0  0  0  0  0  0  0  0  0
    1.0938  -10.6360    0.2577 H   0  0  0  0  0  0  0  0  0  0  0  0
   -0.5089   -9.8248    0.2577 H   0  0  0  0  0  0  0  0  0  0  0  0
    0.1884  -13.7676    2.1963 H   0  0  0  0  0  0  0  0  0  0  0  0
    0.4485  -15.5271    1.7401 H   0  0  0  0  0  0  0  0  0  0  0  0
    2.5082  -14.7791    2.6398 H   0  0  0  0  0  0  0  0  0  0  0  0
    1.7190  -12.4300    1.9010 H   0  0  0  0  0  0  0  0  0  0  0  0
    3.0065  -16.7058    2.0823 H   0  0  0  0  0  0  0  0  0  0  0  0
    2.0925  -17.0463    0.5739 H   0  0  0  0  0  0  0  0  0  0  0  0
    3.8870  -17.1255    0.5739 H   0  0  0  0  0  0  0  0  0  0  0  0
    2.5771  -13.7059   -0.6178 H   0  0  0  0  0  0  0  0  0  0  0  0
    4.4446  -13.4803    0.3384 H   0  0  0  0  0  0  0  0  0  0  0  0
    4.8217  -14.3969    2.6229 H   0  0  0  0  0  0  0  0  0  0  0  0
    5.6163  -15.8545    1.8429 H   0  0  0  0  0  0  0  0  0  0  0  0
    7.0936  -13.9261    2.8236 H   0  0  0  0  0  0  0  0  0  0  0  0
    7.4996  -14.6945    1.2485 H   0  0  0  0  0  0  0  0  0  0  0  0
    6.0956  -12.1258   -0.6367 H   0  0  0  0  0  0  0  0  0  0  0  0
    8.4128  -11.3404   -0.6595 H   0  0  0  0  0  0  0  0  0  0  0  0
    8.9689  -12.7009    0.3273 H   0  0  0  0  0  0  0  0  0  0  0  0
    8.7039  -12.5607   -2.7160 H   0  0  0  0  0  0  0  0  0  0  0  0
   10.3134  -15.2667   -0.3999 H   0  0  0  0  0  0  0  0  0  0  0  0
   12.8216  -14.3436   -0.4158 H   0  0  0  0  0  0  0  0  0  0  0  0
   12.6171  -15.4561   -1.7632 H   0  0  0  0  0  0  0  0  0  0  0  0
    8.0878  -16.2836   -2.5458 H   0  0  0  0  0  0  0  0  0  0  0  0
    6.9979  -15.3231   -3.6023 H   0  0  0  0  0  0  0  0  0  0  0  0
    8.7645  -14.9980   -3.6023 H   0  0  0  0  0  0  0  0  0  0  0  0
    5.8904  -16.7607    0.2714 H   0  0  0  0  0  0  0  0  0  0  0  0
    5.0469  -17.0792   -1.2822 H   0  0  0  0  0  0  0  0  0  0  0  0
    6.7767  -16.5950   -1.2822 H   0  0  0  0  0  0  0  0  0  0  0  0
  1  2  1  0
  2  3  2  0
  3  4  1  0
  3  5  1  0
  5  6  2  0
  5  7  1  0
  7  8  1  0
  8  9  1  0
  9 10  1  0
 10 11  1  0
 11 12  1  0
 12 13  1  6
 12 14  1  0
 14 15  1  0
 15 16  1  0
 16 17  1  0
 16 18  2  0
 14 19  1  0
 19 20  1  0
 20 21  1  0
 20 22  1  0
 22 23  1  1
 22 24  1  0
 22 25  1  0
 25 26  1  0
 26 27  1  0
 27 28  1  0
 28 29  1  0
 29 30  1  0
 30 31  1  0
 31 32  1  0
 32 33  2  0
 33 34  1  0
 34 35  1  0
 35 36  1  0
 36 37  2  0
 31 38  1  0
 38 39  1  0
 38 40  2  0
 40 41  1  0
 41 42  1  1
 41  8  1  0
 24  9  1  0
 41 25  1  0
 24 12  1  0
 40 29  1  0
 36 32  1  0
  1 43  1  0
  1 44  1  0
  1 45  1  0
  2 46  1  0
  4 47  1  0
  4 48  1  0
  4 49  1  0
  8 50  1  6
  9 51  1  1
 11 52  1  0
 11 53  1  0
 13 54  1  0
 13 55  1  0
 13 56  1  0
 14 57  1  1
 17 58  1  0
 17 59  1  0
 17 60  1  0
 19 61  1  0
 19 62  1  0
 20 63  1  1
 21 64  1  0
 23 65  1  0
 23 66  1  0
 23 67  1  0
 24 68  1  6
 25 69  1  6
 26 70  1  0
 26 71  1  0
 27 72  1  0
 27 73  1  0
 29 74  1  6
 30 75  1  0
 30 76  1  0
 31 77  1  6
 33 78  1  0
 34 79  1  0
 34 80  1  0
 39 81  1  0
 39 82  1  0
 39 83  1  0
 42 84  1  0
 42 85  1  0
 42 86  1  0
M  END
>  <meeko>  (5) 
{"is_sidechain": [false], "free_energy": -6.662, "intermolecular_energy": -10.473, "internal_energy": -0.755}

$$$$
LIB_POBWGJYVMWYKSK__M_PUB_ALL__e8__s20260927
     RDKit          3D

 86 91  0  0  0  0  0  0  0  0999 V2000
   11.1890  -12.5870   -0.7870 C   0  0  0  0  0  0  0  0  0  0  0  0
   11.1270  -12.7270   -2.2740 C   0  0  0  0  0  0  0  0  0  0  0  0
   11.4020  -13.8230   -3.0110 C   0  0  0  0  0  0  0  0  0  0  0  0
   11.7930  -15.1690   -2.4790 C   0  0  0  0  0  0  0  0  0  0  0  0
   11.2790  -13.6750   -4.4960 C   0  0  0  0  0  0  0  0  0  0  0  0
   12.2180  -13.4860   -5.2540 O   0  0  0  0  0  0  0  0  0  0  0  0
    9.9800  -13.8240   -4.8510 O   0  0  0  0  0  0  0  0  0  0  0  0
    9.3600  -15.1090   -4.5840 C   0  0  2  0  0  0  0  0  0  0  0  0
    9.6620  -16.0280   -5.7780 C   0  0  2  0  0  0  0  0  0  0  0  0
   11.0690  -16.1300   -6.1060 O   0  0  0  0  0  0  0  0  0  0  0  0
   11.2240  -15.9650   -7.5470 C   0  0  0  0  0  0  0  0  0  0  0  0
    9.8200  -16.1300   -8.1570 C   0  0  2  0  0  0  0  0  0  0  0  0
    9.5840  -17.6400   -8.3680 C   0  0  0  0  0  0  0  0  0  0  0  0
    9.5120  -15.3650   -9.4640 C   0  0  2  0  0  0  0  0  0  0  0  0
   10.0550  -14.0260   -9.3830 O   0  0  0  0  0  0  0  0  0  0  0  0
   10.5880  -13.5210  -10.5330 C   0  0  0  0  0  0  0  0  0  0  0  0
   11.5030  -14.5300  -11.1540 C   0  0  0  0  0  0  0  0  0  0  0  0
   10.3620  -12.4120  -10.9920 O   0  0  0  0  0  0  0  0  0  0  0  0
    7.9760  -15.2490   -9.6750 C   0  0  0  0  0  0  0  0  0  0  0  0
    7.1930  -14.6760   -8.4560 C   0  0  2  0  0  0  0  0  0  0  0  0
    7.4370  -13.2690   -8.4000 O   0  0  0  0  0  0  0  0  0  0  0  0
    7.5260  -15.3810   -7.0790 C   0  0  1  0  0  0  0  0  0  0  0  0
    6.8330  -16.7610   -7.0980 C   0  0  0  0  0  0  0  0  0  0  0  0
    9.0500  -15.4640   -7.0320 C   0  0  1  0  0  0  0  0  0  0  0  0
    7.1210  -14.4960   -5.8000 C   0  0  1  0  0  0  0  0  0  0  0  0
    5.5860  -14.2530   -5.6800 C   0  0  0  0  0  0  0  0  0  0  0  0
    5.1790  -13.2000   -4.6520 C   0  0  0  0  0  0  0  0  0  0  0  0
    6.1430  -12.1610   -4.6200 O   0  0  0  0  0  0  0  0  0  0  0  0
    7.2400  -12.3550   -3.7340 C   0  0  1  0  0  0  0  0  0  0  0  0
    6.9080  -11.6530   -2.4200 C   0  0  0  0  0  0  0  0  0  0  0  0
    7.5940  -12.4660   -1.3290 C   0  0  1  0  0  0  0  0  0  0  0  0
    6.7680  -12.4650   -0.0850 C   0  0  0  0  0  0  0  0  0  0  0  0
    5.4630  -12.6160    0.1410 C   0  0  0  0  0  0  0  0  0  0  0  0
    5.1590  -12.5320    1.5800 C   0  0  0  0  0  0  0  0  0  0  0  0
    6.4260  -12.3140    2.1940 O   0  0  0  0  0  0  0  0  0  0  0  0
    7.3890  -12.2660    1.2330 C   0  0  0  0  0  0  0  0  0  0  0  0
    8.5760  -12.0820    1.4330 O   0  0  0  0  0  0  0  0  0  0  0  0
    7.8060  -13.8180   -1.9880 C   0  0  0  0  0  0  0  0  0  0  0  0
    8.3700  -14.9150   -1.1380 C   0  0  0  0  0  0  0  0  0  0  0  0
    7.5920  -13.7790   -3.3260 C   0  0  0  0  0  0  0  0  0  0  0  0
    7.8030  -14.8920   -4.3930 C   0  0  2  0  0  0  0  0  0  0  0  0
    7.1560  -16.1910   -3.8510 C   0  0  0  0  0  0  0  0  0  0  0  0
   10.7865  -13.4959   -0.3160 H   0  0  0  0  0  0  0  0  0  0  0  0
   12.2343  -12.4447   -0.4754 H   0  0  0  0  0  0  0  0  0  0  0  0
   10.5919  -11.7173   -0.4754 H   0  0  0  0  0  0  0  0  0  0  0  0
   10.8210  -11.8306   -2.8333 H   0  0  0  0  0  0  0  0  0  0  0  0
   11.7860  -15.1448   -1.3793 H   0  0  0  0  0  0  0  0  0  0  0  0
   11.0775  -15.9254   -2.8337 H   0  0  0  0  0  0  0  0  0  0  0  0
   12.8025  -15.4244   -2.8337 H   0  0  0  0  0  0  0  0  0  0  0  0
    9.7525  -15.5721   -3.6667 H   0  0  0  0  0  0  0  0  0  0  0  0
    9.2628  -17.0061   -5.4716 H   0  0  0  0  0  0  0  0  0  0  0  0
   11.6227  -14.9654   -7.7748 H   0  0  0  0  0  0  0  0  0  0  0  0
   11.9273  -16.7034   -7.9595 H   0  0  0  0  0  0  0  0  0  0  0  0
    9.5060  -18.1390   -7.3908 H   0  0  0  0  0  0  0  0  0  0  0  0
    8.6515  -17.7901   -8.9318 H   0  0  0  0  0  0  0  0  0  0  0  0
   10.4262  -18.0675   -8.9318 H   0  0  0  0  0  0  0  0  0  0  0  0
    9.9639  -15.9169  -10.3014 H   0  0  0  0  0  0  0  0  0  0  0  0
   12.0161  -15.0958  -10.3625 H   0  0  0  0  0  0  0  0  0  0  0  0
   10.9173  -15.2211  -11.7779 H   0  0  0  0  0  0  0  0  0  0  0  0
   12.2479  -14.0145  -11.7779 H   0  0  0  0  0  0  0  0  0  0  0  0
    7.7974  -14.5900  -10.5375 H   0  0  0  0  0  0  0  0  0  0  0  0
    7.6053  -16.2731   -9.8289 H   0  0  0  0  0  0  0  0  0  0  0  0
    6.1237  -14.8832   -8.6096 H   0  0  0  0  0  0  0  0  0  0  0  0
    8.3970  -13.1240   -8.3560 H   0  0  0  0  0  0  0  0  0  0  0  0
    6.6627  -17.1000   -6.0655 H   0  0  0  0  0  0  0  0  0  0  0  0
    5.8687  -16.6799   -7.6210 H   0  0  0  0  0  0  0  0  0  0  0  0
    7.4740  -17.4860   -7.6210 H   0  0  0  0  0  0  0  0  0  0  0  0
    9.1705  -14.3741   -7.1195 H   0  0  0  0  0  0  0  0  0  0  0  0
    7.5895  -13.5282   -6.0320 H   0  0  0  0  0  0  0  0  0  0  0  0
    5.2132  -13.9318   -6.6638 H   0  0  0  0  0  0  0  0  0  0  0  0
    5.1497  -15.2028   -5.3372 H   0  0  0  0  0  0  0  0  0  0  0  0
    4.1997  -12.7810   -4.9268 H   0  0  0  0  0  0  0  0  0  0  0  0
    5.1169  -13.6680   -3.6584 H   0  0  0  0  0  0  0  0  0  0  0  0
    8.0968  -11.9712   -4.3072 H   0  0  0  0  0  0  0  0  0  0  0  0
    7.2926  -10.6225   -2.4286 H   0  0  0  0  0  0  0  0  0  0  0  0
    5.8218  -11.5925   -2.2569 H   0  0  0  0  0  0  0  0  0  0  0  0
    8.5572  -12.0692   -0.9758 H   0  0  0  0  0  0  0  0  0  0  0  0
    4.7111  -12.7817   -0.6446 H   0  0  0  0  0  0  0  0  0  0  0  0
    4.4766  -11.6943    1.7861 H   0  0  0  0  0  0  0  0  0  0  0  0
    4.6582  -13.4356    1.9578 H   0  0  0  0  0  0  0  0  0  0  0  0
    8.2390  -14.6602   -0.0760 H   0  0  0  0  0  0  0  0  0  0  0  0
    7.8438  -15.8559   -1.3569 H   0  0  0  0  0  0  0  0  0  0  0  0
    9.4413  -15.0345   -1.3569 H   0  0  0  0  0  0  0  0  0  0  0  0
    7.1646  -16.1737   -2.7512 H   0  0  0  0  0  0  0  0  0  0  0  0
    6.1180  -16.2604   -4.2085 H   0  0  0  0  0  0  0  0  0  0  0  0
    7.7259  -17.0613   -4.2085 H   0  0  0  0  0  0  0  0  0  0  0  0
  1  2  1  0
  2  3  2  0
  3  4  1  0
  3  5  1  0
  5  6  2  0
  5  7  1  0
  7  8  1  0
  8  9  1  0
  9 10  1  0
 10 11  1  0
 11 12  1  0
 12 13  1  6
 12 14  1  0
 14 15  1  0
 15 16  1  0
 16 17  1  0
 16 18  2  0
 14 19  1  0
 19 20  1  0
 20 21  1  0
 20 22  1  0
 22 23  1  1
 22 24  1  0
 22 25  1  0
 25 26  1  0
 26 27  1  0
 27 28  1  0
 28 29  1  0
 29 30  1  0
 30 31  1  0
 31 32  1  0
 32 33  2  0
 33 34  1  0
 34 35  1  0
 35 36  1  0
 36 37  2  0
 31 38  1  0
 38 39  1  0
 38 40  2  0
 40 41  1  0
 41 42  1  1
 41  8  1  0
 24  9  1  0
 41 25  1  0
 24 12  1  0
 40 29  1  0
 36 32  1  0
  1 43  1  0
  1 44  1  0
  1 45  1  0
  2 46  1  0
  4 47  1  0
  4 48  1  0
  4 49  1  0
  8 50  1  1
  9 51  1  1
 11 52  1  0
 11 53  1  0
 13 54  1  0
 13 55  1  0
 13 56  1  0
 14 57  1  6
 17 58  1  0
 17 59  1  0
 17 60  1  0
 19 61  1  0
 19 62  1  0
 20 63  1  6
 21 64  1  0
 23 65  1  0
 23 66  1  0
 23 67  1  0
 24 68  1  1
 25 69  1  6
 26 70  1  0
 26 71  1  0
 27 72  1  0
 27 73  1  0
 29 74  1  6
 30 75  1  0
 30 76  1  0
 31 77  1  1
 33 78  1  0
 34 79  1  0
 34 80  1  0
 39 81  1  0
 39 82  1  0
 39 83  1  0
 42 84  1  0
 42 85  1  0
 42 86  1  0
M  END
>  <meeko>  (6) 
{"is_sidechain": [false], "free_energy": -6.552, "intermolecular_energy": -10.304, "internal_energy": -0.747}

$$$$
LIB_POBWGJYVMWYKSK__M_PUB_ALL__e8__s20260927
     RDKit          3D

 86 91  0  0  0  0  0  0  0  0999 V2000
    7.6990  -18.6980   -1.1710 C   0  0  0  0  0  0  0  0  0  0  0  0
    7.5830  -17.2220   -0.9610 C   0  0  0  0  0  0  0  0  0  0  0  0
    6.7050  -16.5670   -0.1740 C   0  0  0  0  0  0  0  0  0  0  0  0
    5.6680  -17.1980    0.7060 C   0  0  0  0  0  0  0  0  0  0  0  0
    6.8000  -15.0720   -0.1700 C   0  0  0  0  0  0  0  0  0  0  0  0
    7.4580  -14.4230    0.6270 O   0  0  0  0  0  0  0  0  0  0  0  0
    6.0780  -14.5800   -1.2060 O   0  0  0  0  0  0  0  0  0  0  0  0
    6.2320  -13.1690   -1.5140 C   0  0  2  0  0  0  0  0  0  0  0  0
    4.8740  -12.4910   -1.2730 C   0  0  2  0  0  0  0  0  0  0  0  0
    4.3160  -12.7310    0.0420 O   0  0  0  0  0  0  0  0  0  0  0  0
    2.9140  -13.1010   -0.1080 C   0  0  0  0  0  0  0  0  0  0  0  0
    2.5140  -12.7190   -1.5450 C   0  0  2  0  0  0  0  0  0  0  0  0
    2.1070  -11.2320   -1.5300 C   0  0  0  0  0  0  0  0  0  0  0  0
    1.4110  -13.5580   -2.2290 C   0  0  2  0  0  0  0  0  0  0  0  0
    1.6170  -14.9610   -1.9410 O   0  0  0  0  0  0  0  0  0  0  0  0
    0.6030  -15.5980   -1.2870 C   0  0  0  0  0  0  0  0  0  0  0  0
   -0.4360  -14.6030   -0.8720 C   0  0  0  0  0  0  0  0  0  0  0  0
    0.5440  -16.7980   -1.0670 O   0  0  0  0  0  0  0  0  0  0  0  0
    1.4660  -13.3700   -3.7720 C   0  0  0  0  0  0  0  0  0  0  0  0
    2.8680  -13.6090   -4.4070 C   0  0  2  0  0  0  0  0  0  0  0  0
    3.1090  -15.0180   -4.4240 O   0  0  0  0  0  0  0  0  0  0  0  0
    4.0460  -12.8270   -3.6970 C   0  0  1  0  0  0  0  0  0  0  0  0
    3.9180  -11.3440   -4.1110 C   0  0  0  0  0  0  0  0  0  0  0  0
    3.8390  -13.0630   -2.2030 C   0  0  1  0  0  0  0  0  0  0  0  0
    5.4970  -13.4410   -4.0150 C   0  0  1  0  0  0  0  0  0  0  0  0
    5.8800  -13.3010   -5.5160 C   0  0  0  0  0  0  0  0  0  0  0  0
    7.1440  -14.0560   -5.9180 C   0  0  0  0  0  0  0  0  0  0  0  0
    7.2050  -15.2930   -5.2270 O   0  0  0  0  0  0  0  0  0  0  0  0
    7.8400  -15.2660   -3.9540 C   0  0  1  0  0  0  0  0  0  0  0  0
    9.2860  -15.7140   -4.1440 C   0  0  0  0  0  0  0  0  0  0  0  0
   10.0950  -14.9690   -3.0900 C   0  0  1  0  0  0  0  0  0  0  0  0
   11.4500  -14.6320   -3.6180 C   0  0  0  0  0  0  0  0  0  0  0  0
   11.8720  -14.0880   -4.7600 C   0  0  0  0  0  0  0  0  0  0  0  0
   13.3410  -13.9690   -4.7810 C   0  0  0  0  0  0  0  0  0  0  0  0
   13.7540  -14.5010   -3.5260 O   0  0  0  0  0  0  0  0  0  0  0  0
   12.6590  -14.9020   -2.8250 C   0  0  0  0  0  0  0  0  0  0  0  0
   12.6770  -15.4100   -1.7190 O   0  0  0  0  0  0  0  0  0  0  0  0
    9.2040  -13.7900   -2.7400 C   0  0  0  0  0  0  0  0  0  0  0  0
    9.7550  -12.7690   -1.7930 C   0  0  0  0  0  0  0  0  0  0  0  0
    7.9480  -13.9290   -3.2320 C   0  0  0  0  0  0  0  0  0  0  0  0
    6.6980  -13.0260   -3.0200 C   0  0  2  0  0  0  0  0  0  0  0  0
    7.1220  -11.5630   -3.3000 C   0  0  0  0  0  0  0  0  0  0  0  0
    7.7389  -19.2051   -0.1957 H   0  0  0  0  0  0  0  0  0  0  0  0
    6.8264  -19.0577   -1.7359 H   0  0  0  0  0  0  0  0  0  0  0  0
    8.6171  -18.9170   -1.7359 H   0  0  0  0  0  0  0  0  0  0  0  0
    8.2988  -16.5961   -1.5141 H   0  0  0  0  0  0  0  0  0  0  0  0
    5.9344  -17.0359    1.7609 H   0  0  0  0  0  0  0  0  0  0  0  0
    4.6875  -16.7433    0.5014 H   0  0  0  0  0  0  0  0  0  0  0  0
    5.6213  -18.2778    0.5014 H   0  0  0  0  0  0  0  0  0  0  0  0
    6.9906  -12.6889   -0.8784 H   0  0  0  0  0  0  0  0  0  0  0  0
    5.0797  -11.4201   -1.4171 H   0  0  0  0  0  0  0  0  0  0  0  0
    2.7874  -14.1826    0.0472 H   0  0  0  0  0  0  0  0  0  0  0  0
    2.2843  -12.5846    0.6315 H   0  0  0  0  0  0  0  0  0  0  0  0
    2.0129  -10.8881   -0.4894 H   0  0  0  0  0  0  0  0  0  0  0  0
    2.8752  -10.6364   -2.0450 H   0  0  0  0  0  0  0  0  0  0  0  0
    1.1426  -11.1106   -2.0450 H   0  0  0  0  0  0  0  0  0  0  0  0
    0.4358  -13.2234   -1.8456 H   0  0  0  0  0  0  0  0  0  0  0  0
   -0.4828  -14.5582    0.2261 H   0  0  0  0  0  0  0  0  0  0  0  0
   -0.1730  -13.6113   -1.2686 H   0  0  0  0  0  0  0  0  0  0  0  0
   -1.4155  -14.9086   -1.2686 H   0  0  0  0  0  0  0  0  0  0  0  0
    0.7579  -14.0770   -4.2288 H   0  0  0  0  0  0  0  0  0  0  0  0
    1.2123  -12.3174   -3.9661 H   0  0  0  0  0  0  0  0  0  0  0  0
    2.8523  -13.2004   -5.4282 H   0  0  0  0  0  0  0  0  0  0  0  0
    2.5480  -15.4350   -3.7480 H   0  0  0  0  0  0  0  0  0  0  0  0
    3.8637  -10.7152   -3.2101 H   0  0  0  0  0  0  0  0  0  0  0  0
    4.7944  -11.0532   -4.7088 H   0  0  0  0  0  0  0  0  0  0  0  0
    3.0048  -11.2077   -4.7088 H   0  0  0  0  0  0  0  0  0  0  0  0
    3.9091  -14.1558   -2.3075 H   0  0  0  0  0  0  0  0  0  0  0  0
    5.3684  -14.5109   -3.7939 H   0  0  0  0  0  0  0  0  0  0  0  0
    5.0444  -13.6825   -6.1212 H   0  0  0  0  0  0  0  0  0  0  0  0
    6.0835  -12.2340   -5.6895 H   0  0  0  0  0  0  0  0  0  0  0  0
    7.1282  -14.2435   -7.0018 H   0  0  0  0  0  0  0  0  0  0  0  0
    8.0259  -13.4516   -5.6592 H   0  0  0  0  0  0  0  0  0  0  0  0
    7.1921  -15.9057   -3.3368 H   0  0  0  0  0  0  0  0  0  0  0  0
    9.3727  -16.8005   -3.9957 H   0  0  0  0  0  0  0  0  0  0  0  0
    9.6468  -15.4951   -5.1598 H   0  0  0  0  0  0  0  0  0  0  0  0
   10.3294  -15.5414   -2.1804 H   0  0  0  0  0  0  0  0  0  0  0  0
   11.2104  -13.7697   -5.5791 H   0  0  0  0  0  0  0  0  0  0  0  0
   13.7675  -14.5516   -5.6108 H   0  0  0  0  0  0  0  0  0  0  0  0
   13.6771  -12.9322   -4.9296 H   0  0  0  0  0  0  0  0  0  0  0  0
    9.5785  -13.0961   -0.7577 H   0  0  0  0  0  0  0  0  0  0  0  0
   10.8360  -12.6570   -1.9629 H   0  0  0  0  0  0  0  0  0  0  0  0
    9.2552  -11.8039   -1.9629 H   0  0  0  0  0  0  0  0  0  0  0  0
    7.2746  -11.0365   -2.3463 H   0  0  0  0  0  0  0  0  0  0  0  0
    8.0589  -11.5567   -3.8763 H   0  0  0  0  0  0  0  0  0  0  0  0
    6.3336  -11.0567   -3.8763 H   0  0  0  0  0  0  0  0  0  0  0  0
  1  2  1  0
  2  3  2  0
  3  4  1  0
  3  5  1  0
  5  6  2  0
  5  7  1  0
  7  8  1  0
  8  9  1  0
  9 10  1  0
 10 11  1  0
 11 12  1  0
 12 13  1  1
 12 14  1  0
 14 15  1  0
 15 16  1  0
 16 17  1  0
 16 18  2  0
 14 19  1  0
 19 20  1  0
 20 21  1  0
 20 22  1  0
 22 23  1  1
 22 24  1  0
 22 25  1  0
 25 26  1  0
 26 27  1  0
 27 28  1  0
 28 29  1  0
 29 30  1  0
 30 31  1  0
 31 32  1  0
 32 33  2  0
 33 34  1  0
 34 35  1  0
 35 36  1  0
 36 37  2  0
 31 38  1  0
 38 39  1  0
 38 40  2  0
 40 41  1  0
 41 42  1  6
 41  8  1  0
 24  9  1  0
 41 25  1  0
 24 12  1  0
 40 29  1  0
 36 32  1  0
  1 43  1  0
  1 44  1  0
  1 45  1  0
  2 46  1  0
  4 47  1  0
  4 48  1  0
  4 49  1  0
  8 50  1  1
  9 51  1  6
 11 52  1  0
 11 53  1  0
 13 54  1  0
 13 55  1  0
 13 56  1  0
 14 57  1  1
 17 58  1  0
 17 59  1  0
 17 60  1  0
 19 61  1  0
 19 62  1  0
 20 63  1  6
 21 64  1  0
 23 65  1  0
 23 66  1  0
 23 67  1  0
 24 68  1  6
 25 69  1  6
 26 70  1  0
 26 71  1  0
 27 72  1  0
 27 73  1  0
 29 74  1  1
 30 75  1  0
 30 76  1  0
 31 77  1  1
 33 78  1  0
 34 79  1  0
 34 80  1  0
 39 81  1  0
 39 82  1  0
 39 83  1  0
 42 84  1  0
 42 85  1  0
 42 86  1  0
M  END
>  <meeko>  (7) 
{"is_sidechain": [false], "free_energy": -6.465, "intermolecular_energy": -10.13, "internal_energy": -0.779}

$$$$
LIB_POBWGJYVMWYKSK__M_PUB_ALL__e8__s20260927
     RDKit          3D

 86 91  0  0  0  0  0  0  0  0999 V2000
    7.3600   -9.9450    0.9150 C   0  0  0  0  0  0  0  0  0  0  0  0
    7.3900  -11.4310    0.7560 C   0  0  0  0  0  0  0  0  0  0  0  0
    6.3730  -12.3000    0.9280 C   0  0  0  0  0  0  0  0  0  0  0  0
    4.9600  -11.9450    1.2820 C   0  0  0  0  0  0  0  0  0  0  0  0
    6.6910  -13.7490    0.7230 C   0  0  0  0  0  0  0  0  0  0  0  0
    6.7170  -14.5850    1.6130 O   0  0  0  0  0  0  0  0  0  0  0  0
    6.9000  -13.9750   -0.5960 O   0  0  0  0  0  0  0  0  0  0  0  0
    6.6930  -15.3270   -1.0820 C   0  0  2  0  0  0  0  0  0  0  0  0
    8.0510  -15.8590   -1.5670 C   0  0  2  0  0  0  0  0  0  0  0  0
    9.1110  -15.7620   -0.5850 O   0  0  0  0  0  0  0  0  0  0  0  0
   10.2920  -15.1990   -1.2300 C   0  0  0  0  0  0  0  0  0  0  0  0
   10.0480  -15.2970   -2.7470 C   0  0  2  0  0  0  0  0  0  0  0  0
   10.4890  -16.7050   -3.1940 C   0  0  0  0  0  0  0  0  0  0  0  0
   10.7070  -14.2290   -3.6490 C   0  0  2  0  0  0  0  0  0  0  0  0
   10.5820  -12.9260   -3.0320 O   0  0  0  0  0  0  0  0  0  0  0  0
   11.7360  -12.2110   -2.8950 C   0  0  0  0  0  0  0  0  0  0  0  0
   12.2260  -12.3060   -1.4830 C   0  0  0  0  0  0  0  0  0  0  0  0
   12.2900  -11.5820   -3.7830 O   0  0  0  0  0  0  0  0  0  0  0  0
    9.9990  -14.1770   -5.0320 C   0  0  0  0  0  0  0  0  0  0  0  0
    8.4500  -14.0180   -4.9650 C   0  0  2  0  0  0  0  0  0  0  0  0
    8.1630  -12.6660   -4.6040 O   0  0  0  0  0  0  0  0  0  0  0  0
    7.7330  -15.0440   -3.9980 C   0  0  1  0  0  0  0  0  0  0  0  0
    7.7370  -16.4160   -4.7090 C   0  0  0  0  0  0  0  0  0  0  0  0
    8.5550  -15.0220   -2.7110 C   0  0  1  0  0  0  0  0  0  0  0  0
    6.2610  -14.5750   -3.5550 C   0  0  1  0  0  0  0  0  0  0  0  0
    5.2750  -14.5140   -4.7630 C   0  0  0  0  0  0  0  0  0  0  0  0
    3.9290  -13.8730   -4.4370 C   0  0  0  0  0  0  0  0  0  0  0  0
    4.1170  -12.7810   -3.5550 O   0  0  0  0  0  0  0  0  0  0  0  0
    4.0960  -13.0900   -2.1650 C   0  0  1  0  0  0  0  0  0  0  0  0
    2.6910  -12.8020   -1.6450 C   0  0  0  0  0  0  0  0  0  0  0  0
    2.4500  -13.8010   -0.5200 C   0  0  1  0  0  0  0  0  0  0  0  0
    1.0160  -14.2170   -0.4930 C   0  0  0  0  0  0  0  0  0  0  0  0
    0.2520  -14.9030   -1.3430 C   0  0  0  0  0  0  0  0  0  0  0  0
   -1.1220  -15.0410   -0.8290 C   0  0  0  0  0  0  0  0  0  0  0  0
   -1.0990  -14.3630    0.4230 O   0  0  0  0  0  0  0  0  0  0  0  0
    0.1490  -13.8640    0.6410 C   0  0  0  0  0  0  0  0  0  0  0  0
    0.4910  -13.2230    1.6180 O   0  0  0  0  0  0  0  0  0  0  0  0
    3.4570  -14.8990   -0.8130 C   0  0  0  0  0  0  0  0  0  0  0  0
    3.4150  -16.1190    0.0550 C   0  0  0  0  0  0  0  0  0  0  0  0
    4.3700  -14.5280   -1.7450 C   0  0  0  0  0  0  0  0  0  0  0  0
    5.6290  -15.2880   -2.2530 C   0  0  2  0  0  0  0  0  0  0  0  0
    5.1930  -16.7310   -2.6130 C   0  0  0  0  0  0  0  0  0  0  0  0
    7.3549   -9.6908    1.9852 H   0  0  0  0  0  0  0  0  0  0  0  0
    8.2495   -9.5072    0.4384 H   0  0  0  0  0  0  0  0  0  0  0  0
    6.4536   -9.5435    0.4384 H   0  0  0  0  0  0  0  0  0  0  0  0
    8.3564  -11.8677    0.4640 H   0  0  0  0  0  0  0  0  0  0  0  0
    4.8519  -11.9178    2.3763 H   0  0  0  0  0  0  0  0  0  0  0  0
    4.7145  -10.9573    0.8647 H   0  0  0  0  0  0  0  0  0  0  0  0
    4.2768  -12.6994    0.8647 H   0  0  0  0  0  0  0  0  0  0  0  0
    6.3069  -15.9925   -0.2958 H   0  0  0  0  0  0  0  0  0  0  0  0
    7.8520  -16.9108   -1.8200 H   0  0  0  0  0  0  0  0  0  0  0  0
   10.4229  -14.1480   -0.9330 H   0  0  0  0  0  0  0  0  0  0  0  0
   11.2029  -15.7417   -0.9370 H   0  0  0  0  0  0  0  0  0  0  0  0
   10.6838  -17.3268   -2.3078 H   0  0  0  0  0  0  0  0  0  0  0  0
    9.6919  -17.1648   -3.7966 H   0  0  0  0  0  0  0  0  0  0  0  0
   11.4060  -16.6280   -3.7966 H   0  0  0  0  0  0  0  0  0  0  0  0
   11.7663  -14.4947   -3.7807 H   0  0  0  0  0  0  0  0  0  0  0  0
   11.3860  -12.1432   -0.7917 H   0  0  0  0  0  0  0  0  0  0  0  0
   12.6550  -13.3040   -1.3101 H   0  0  0  0  0  0  0  0  0  0  0  0
   12.9969  -11.5406   -1.3101 H   0  0  0  0  0  0  0  0  0  0  0  0
   10.4070  -13.3239   -5.5940 H   0  0  0  0  0  0  0  0  0  0  0  0
   10.1912  -15.1459   -5.5161 H   0  0  0  0  0  0  0  0  0  0  0  0
    8.0394  -14.2547   -5.9577 H   0  0  0  0  0  0  0  0  0  0  0  0
    7.5010  -12.3150   -5.2230 H   0  0  0  0  0  0  0  0  0  0  0  0
    7.7393  -17.2187   -3.9569 H   0  0  0  0  0  0  0  0  0  0  0  0
    6.8391  -16.5056   -5.3381 H   0  0  0  0  0  0  0  0  0  0  0  0
    8.6354  -16.5003   -5.3381 H   0  0  0  0  0  0  0  0  0  0  0  0
    8.3974  -13.9440   -2.5591 H   0  0  0  0  0  0  0  0  0  0  0  0
    6.4203  -13.5475   -3.1959 H   0  0  0  0  0  0  0  0  0  0  0  0
    5.7492  -13.9318   -5.5669 H   0  0  0  0  0  0  0  0  0  0  0  0
    5.0683  -15.5538   -5.0565 H   0  0  0  0  0  0  0  0  0  0  0  0
    3.4607  -13.5154   -5.3658 H   0  0  0  0  0  0  0  0  0  0  0  0
    3.2790  -14.6192   -3.9567 H   0  0  0  0  0  0  0  0  0  0  0  0
    4.9171  -12.4812   -1.7586 H   0  0  0  0  0  0  0  0  0  0  0  0
    2.6279  -11.7725   -1.2627 H   0  0  0  0  0  0  0  0  0  0  0  0
    1.9377  -12.8997   -2.4406 H   0  0  0  0  0  0  0  0  0  0  0  0
    2.6049  -13.4151    0.4984 H   0  0  0  0  0  0  0  0  0  0  0  0
    0.6014  -15.3124   -2.3023 H   0  0  0  0  0  0  0  0  0  0  0  0
   -1.8432  -14.5707   -1.5136 H   0  0  0  0  0  0  0  0  0  0  0  0
   -1.4308  -16.0923   -0.7320 H   0  0  0  0  0  0  0  0  0  0  0  0
    3.4254  -15.8170    1.1127 H   0  0  0  0  0  0  0  0  0  0  0  0
    2.4968  -16.6871   -0.1551 H   0  0  0  0  0  0  0  0  0  0  0  0
    4.2920  -16.7489   -0.1551 H   0  0  0  0  0  0  0  0  0  0  0  0
    5.0202  -17.3030   -1.6894 H   0  0  0  0  0  0  0  0  0  0  0  0
    4.2649  -16.6973   -3.2025 H   0  0  0  0  0  0  0  0  0  0  0  0
    5.9844  -17.2169   -3.2025 H   0  0  0  0  0  0  0  0  0  0  0  0
  1  2  1  0
  2  3  2  0
  3  4  1  0
  3  5  1  0
  5  6  2  0
  5  7  1  0
  7  8  1  0
  8  9  1  0
  9 10  1  0
 10 11  1  0
 11 12  1  0
 12 13  1  6
 12 14  1  0
 14 15  1  0
 15 16  1  0
 16 17  1  0
 16 18  2  0
 14 19  1  0
 19 20  1  0
 20 21  1  0
 20 22  1  0
 22 23  1  6
 22 24  1  0
 22 25  1  0
 25 26  1  0
 26 27  1  0
 27 28  1  0
 28 29  1  0
 29 30  1  0
 30 31  1  0
 31 32  1  0
 32 33  2  0
 33 34  1  0
 34 35  1  0
 35 36  1  0
 36 37  2  0
 31 38  1  0
 38 39  1  0
 38 40  2  0
 40 41  1  0
 41 42  1  6
 41  8  1  0
 24  9  1  0
 41 25  1  0
 24 12  1  0
 40 29  1  0
 36 32  1  0
  1 43  1  0
  1 44  1  0
  1 45  1  0
  2 46  1  0
  4 47  1  0
  4 48  1  0
  4 49  1  0
  8 50  1  1
  9 51  1  6
 11 52  1  0
 11 53  1  0
 13 54  1  0
 13 55  1  0
 13 56  1  0
 14 57  1  6
 17 58  1  0
 17 59  1  0
 17 60  1  0
 19 61  1  0
 19 62  1  0
 20 63  1  6
 21 64  1  0
 23 65  1  0
 23 66  1  0
 23 67  1  0
 24 68  1  1
 25 69  1  1
 26 70  1  0
 26 71  1  0
 27 72  1  0
 27 73  1  0
 29 74  1  1
 30 75  1  0
 30 76  1  0
 31 77  1  1
 33 78  1  0
 34 79  1  0
 34 80  1  0
 39 81  1  0
 39 82  1  0
 39 83  1  0
 42 84  1  0
 42 85  1  0
 42 86  1  0
M  END
>  <meeko>  (8) 
{"is_sidechain": [false], "free_energy": -6.443, "intermolecular_energy": -10.101, "internal_energy": -0.773}

$$$$
LIB_POBWGJYVMWYKSK__M_PUB_ALL__e8__s20260927
     RDKit          3D

 86 91  0  0  0  0  0  0  0  0999 V2000
    2.4880  -17.1000    0.9020 C   0  0  0  0  0  0  0  0  0  0  0  0
    3.2920  -16.8530   -0.3340 C   0  0  0  0  0  0  0  0  0  0  0  0
    4.6190  -16.6250   -0.4230 C   0  0  0  0  0  0  0  0  0  0  0  0
    5.5900  -16.6120    0.7180 C   0  0  0  0  0  0  0  0  0  0  0  0
    5.1630  -16.3860   -1.7980 C   0  0  0  0  0  0  0  0  0  0  0  0
    4.8270  -17.0090   -2.7940 O   0  0  0  0  0  0  0  0  0  0  0  0
    6.0410  -15.3550   -1.7540 O   0  0  0  0  0  0  0  0  0  0  0  0
    5.9060  -14.3210   -2.7650 C   0  0  2  0  0  0  0  0  0  0  0  0
    7.1520  -14.3840   -3.6630 C   0  0  2  0  0  0  0  0  0  0  0  0
    7.4160  -15.6960   -4.2190 O   0  0  0  0  0  0  0  0  0  0  0  0
    8.8290  -16.0020   -4.0370 C   0  0  0  0  0  0  0  0  0  0  0  0
    9.5210  -14.6740   -3.6790 C   0  0  2  0  0  0  0  0  0  0  0  0
    9.8590  -13.9600   -5.0050 C   0  0  0  0  0  0  0  0  0  0  0  0
   10.7780  -14.7380   -2.7830 C   0  0  2  0  0  0  0  0  0  0  0  0
   10.5660  -15.6920   -1.7160 O   0  0  0  0  0  0  0  0  0  0  0  0
   11.6520  -16.4260   -1.3390 C   0  0  0  0  0  0  0  0  0  0  0  0
   11.3420  -17.8860   -1.4550 C   0  0  0  0  0  0  0  0  0  0  0  0
   12.7200  -15.9700   -0.9590 O   0  0  0  0  0  0  0  0  0  0  0  0
   11.0560  -13.3500   -2.1400 C   0  0  0  0  0  0  0  0  0  0  0  0
    9.8370  -12.7180   -1.4040 C   0  0  2  0  0  0  0  0  0  0  0  0
    9.6600  -13.4160   -0.1700 O   0  0  0  0  0  0  0  0  0  0  0  0
    8.5040  -12.6920   -2.2550 C   0  0  1  0  0  0  0  0  0  0  0  0
    8.6650  -11.5790   -3.3140 C   0  0  0  0  0  0  0  0  0  0  0  0
    8.3870  -14.0920   -2.8550 C   0  0  1  0  0  0  0  0  0  0  0  0
    7.1820  -12.5150   -1.3580 C   0  0  1  0  0  0  0  0  0  0  0  0
    7.1470  -11.1480   -0.6120 C   0  0  0  0  0  0  0  0  0  0  0  0
    6.0360  -11.0300    0.4280 C   0  0  0  0  0  0  0  0  0  0  0  0
    5.8680  -12.2690    1.0950 O   0  0  0  0  0  0  0  0  0  0  0  0
    4.9530  -13.1810    0.4970 C   0  0  1  0  0  0  0  0  0  0  0  0
    3.6060  -13.0130    1.1920 C   0  0  0  0  0  0  0  0  0  0  0  0
    2.5500  -13.3190    0.1370 C   0  0  1  0  0  0  0  0  0  0  0  0
    1.3470  -12.4600    0.3410 C   0  0  0  0  0  0  0  0  0  0  0  0
    1.1870  -11.1530    0.5490 C   0  0  0  0  0  0  0  0  0  0  0  0
   -0.2390  -10.8070    0.6870 C   0  0  0  0  0  0  0  0  0  0  0  0
   -0.9170  -12.0510    0.5400 O   0  0  0  0  0  0  0  0  0  0  0  0
   -0.0040  -13.0400    0.3400 C   0  0  0  0  0  0  0  0  0  0  0  0
   -0.2650  -14.2200    0.1880 O   0  0  0  0  0  0  0  0  0  0  0  0
    3.3000  -13.1170   -1.1690 C   0  0  0  0  0  0  0  0  0  0  0  0
    2.5120  -13.2320   -2.4380 C   0  0  0  0  0  0  0  0  0  0  0  0
    4.6400  -13.0170   -0.9850 C   0  0  0  0  0  0  0  0  0  0  0  0
    5.7780  -12.9190   -2.0410 C   0  0  2  0  0  0  0  0  0  0  0  0
    5.3720  -11.8350   -3.0710 C   0  0  0  0  0  0  0  0  0  0  0  0
    3.1104  -16.9088    1.7886 H   0  0  0  0  0  0  0  0  0  0  0  0
    1.6173  -16.4279    0.9134 H   0  0  0  0  0  0  0  0  0  0  0  0
    2.1448  -18.1450    0.9134 H   0  0  0  0  0  0  0  0  0  0  0  0
    2.7360  -16.8577   -1.2831 H   0  0  0  0  0  0  0  0  0  0  0  0
    5.0379  -16.6194    1.6694 H   0  0  0  0  0  0  0  0  0  0  0  0
    6.2345  -17.5016    0.6611 H   0  0  0  0  0  0  0  0  0  0  0  0
    6.2105  -15.7055    0.6611 H   0  0  0  0  0  0  0  0  0  0  0  0
    5.0093  -14.4657   -3.3855 H   0  0  0  0  0  0  0  0  0  0  0  0
    6.9434  -13.6577   -4.4623 H   0  0  0  0  0  0  0  0  0  0  0  0
    8.9584  -16.7297   -3.2223 H   0  0  0  0  0  0  0  0  0  0  0  0
    9.2611  -16.4431   -4.9474 H   0  0  0  0  0  0  0  0  0  0  0  0
   10.3205  -12.9851   -4.7892 H   0  0  0  0  0  0  0  0  0  0  0  0
   10.5605  -14.5773   -5.5854 H   0  0  0  0  0  0  0  0  0  0  0  0
    8.9369  -13.8087   -5.5854 H   0  0  0  0  0  0  0  0  0  0  0  0
   11.6323  -15.0385   -3.4074 H   0  0  0  0  0  0  0  0  0  0  0  0
   11.2494  -18.3222   -0.4494 H   0  0  0  0  0  0  0  0  0  0  0  0
   10.3959  -18.0177   -2.0004 H   0  0  0  0  0  0  0  0  0  0  0  0
   12.1530  -18.3908   -2.0004 H   0  0  0  0  0  0  0  0  0  0  0  0
   11.8727  -13.4667   -1.4125 H   0  0  0  0  0  0  0  0  0  0  0  0
   11.3071  -12.6692   -2.9667 H   0  0  0  0  0  0  0  0  0  0  0  0
   10.0599  -11.6556   -1.2264 H   0  0  0  0  0  0  0  0  0  0  0  0
    8.7080  -13.5560   -0.0280 H   0  0  0  0  0  0  0  0  0  0  0  0
    8.8050  -10.6111   -2.8103 H   0  0  0  0  0  0  0  0  0  0  0  0
    9.5412  -11.7952   -3.9429 H   0  0  0  0  0  0  0  0  0  0  0  0
    7.7634  -11.5381   -3.9429 H   0  0  0  0  0  0  0  0  0  0  0  0
    8.3829  -14.5785   -1.8684 H   0  0  0  0  0  0  0  0  0  0  0  0
    7.2892  -13.2999   -0.5948 H   0  0  0  0  0  0  0  0  0  0  0  0
    8.1121  -11.0082   -0.1030 H   0  0  0  0  0  0  0  0  0  0  0  0
    6.9504  -10.3782   -1.3727 H   0  0  0  0  0  0  0  0  0  0  0  0
    6.3029  -10.2542    1.1608 H   0  0  0  0  0  0  0  0  0  0  0  0
    5.0960  -10.7582   -0.0746 H   0  0  0  0  0  0  0  0  0  0  0  0
    5.4576  -14.1523    0.6067 H   0  0  0  0  0  0  0  0  0  0  0  0
    3.5199  -13.7152    2.0343 H   0  0  0  0  0  0  0  0  0  0  0  0
    3.4863  -11.9987    1.6005 H   0  0  0  0  0  0  0  0  0  0  0  0
    2.1257  -14.3333    0.1709 H   0  0  0  0  0  0  0  0  0  0  0  0
    2.0116  -10.4275    0.6097 H   0  0  0  0  0  0  0  0  0  0  0  0
   -0.4399  -10.3678    1.6753 H   0  0  0  0  0  0  0  0  0  0  0  0
   -0.5645  -10.0602   -0.0522 H   0  0  0  0  0  0  0  0  0  0  0  0
    1.4499  -13.3870   -2.1973 H   0  0  0  0  0  0  0  0  0  0  0  0
    2.6241  -12.3080   -3.0242 H   0  0  0  0  0  0  0  0  0  0  0  0
    2.8835  -14.0854   -3.0242 H   0  0  0  0  0  0  0  0  0  0  0  0
    5.0341  -10.9329   -2.5400 H   0  0  0  0  0  0  0  0  0  0  0  0
    6.2379  -11.5863   -3.7021 H   0  0  0  0  0  0  0  0  0  0  0  0
    4.5557  -12.2163   -3.7021 H   0  0  0  0  0  0  0  0  0  0  0  0
  1  2  1  0
  2  3  2  0
  3  4  1  0
  3  5  1  0
  5  6  2  0
  5  7  1  0
  7  8  1  0
  8  9  1  0
  9 10  1  0
 10 11  1  0
 11 12  1  0
 12 13  1  6
 12 14  1  0
 14 15  1  0
 15 16  1  0
 16 17  1  0
 16 18  2  0
 14 19  1  0
 19 20  1  0
 20 21  1  0
 20 22  1  0
 22 23  1  6
 22 24  1  0
 22 25  1  0
 25 26  1  0
 26 27  1  0
 27 28  1  0
 28 29  1  0
 29 30  1  0
 30 31  1  0
 31 32  1  0
 32 33  2  0
 33 34  1  0
 34 35  1  0
 35 36  1  0
 36 37  2  0
 31 38  1  0
 38 39  1  0
 38 40  2  0
 40 41  1  0
 41 42  1  6
 41  8  1  0
 24  9  1  0
 41 25  1  0
 24 12  1  0
 40 29  1  0
 36 32  1  0
  1 43  1  0
  1 44  1  0
  1 45  1  0
  2 46  1  0
  4 47  1  0
  4 48  1  0
  4 49  1  0
  8 50  1  6
  9 51  1  6
 11 52  1  0
 11 53  1  0
 13 54  1  0
 13 55  1  0
 13 56  1  0
 14 57  1  6
 17 58  1  0
 17 59  1  0
 17 60  1  0
 19 61  1  0
 19 62  1  0
 20 63  1  1
 21 64  1  0
 23 65  1  0
 23 66  1  0
 23 67  1  0
 24 68  1  1
 25 69  1  1
 26 70  1  0
 26 71  1  0
 27 72  1  0
 27 73  1  0
 29 74  1  6
 30 75  1  0
 30 76  1  0
 31 77  1  1
 33 78  1  0
 34 79  1  0
 34 80  1  0
 39 81  1  0
 39 82  1  0
 39 83  1  0
 42 84  1  0
 42 85  1  0
 42 86  1  0
M  END
>  <meeko>  (9) 
{"is_sidechain": [false], "free_energy": -6.329, "intermolecular_energy": -9.601, "internal_energy": -1.089}

$$$$
