LIB_OGYJYBMWSHOXRO__M_PUB_ALL__e8__s20260927
     RDKit          3D

 57 60  0  0  0  0  0  0  0  0999 V2000
   10.0860  -15.1630   -5.6000 C   0  0  0  0  0  0  0  0  0  0  0  0
   11.1300  -15.5790   -4.7240 O   0  0  0  0  0  0  0  0  0  0  0  0
   11.9850  -14.6250   -4.2310 C   0  0  0  0  0  0  0  0  0  0  0  0
   11.7180  -13.8800   -3.0680 C   0  0  0  0  0  0  0  0  0  0  0  0
   12.6120  -12.9050   -2.5800 C   0  0  0  0  0  0  0  0  0  0  0  0
   12.3280  -12.1250   -1.3590 C   0  0  0  0  0  0  0  0  0  0  0  0
   13.1560  -11.1180   -0.9070 C   0  0  0  0  0  0  0  0  0  0  0  0
   12.7560  -10.4850    0.2410 C   0  0  0  0  0  0  0  0  0  0  0  0
   11.6370  -10.8020    0.9100 N   0  0  0  0  0  0  0  0  0  0  0  0
   10.8770  -11.7860    0.4130 C   0  0  0  0  0  0  0  0  0  0  0  0
    9.6970  -12.1950    1.0240 N   0  0  0  0  0  0  0  0  0  0  0  0
    8.3470  -12.1420    0.6700 C   0  0  0  0  0  0  0  0  0  0  0  0
    7.8720  -13.0200   -0.3120 C   0  0  0  0  0  0  0  0  0  0  0  0
    6.5270  -13.0140   -0.7120 C   0  0  0  0  0  0  0  0  0  0  0  0
    5.5950  -12.1300   -0.1580 C   0  0  0  0  0  0  0  0  0  0  0  0
    4.2660  -12.1480   -0.5640 N   0  0  0  0  0  0  0  0  0  0  0  0
    3.3080  -12.9520    0.2210 C   0  0  0  0  0  0  0  0  0  0  0  0
    1.8670  -12.4990   -0.0600 C   0  0  0  0  0  0  0  0  0  0  0  0
    1.5670  -12.5130   -1.4640 O   0  0  0  0  0  0  0  0  0  0  0  0
    2.4500  -11.6200   -2.1580 C   0  0  0  0  0  0  0  0  0  0  0  0
    3.9200  -12.0310   -1.9920 C   0  0  0  0  0  0  0  0  0  0  0  0
    6.0750  -11.2650    0.8320 C   0  0  0  0  0  0  0  0  0  0  0  0
    7.4220  -11.2660    1.2340 C   0  0  0  0  0  0  0  0  0  0  0  0
   11.1900  -12.4550   -0.7100 N   0  0  0  0  0  0  0  0  0  0  0  0
   13.7920  -12.6870   -3.3040 C   0  0  0  0  0  0  0  0  0  0  0  0
   14.0780  -13.4230   -4.4560 C   0  0  0  0  0  0  0  0  0  0  0  0
   13.1880  -14.3990   -4.9310 C   0  0  0  0  0  0  0  0  0  0  0  0
   13.6090  -15.1240   -6.1760 C   0  0  0  0  0  0  0  0  0  0  0  0
   13.7540  -16.3440   -6.1750 O   0  0  0  0  0  0  0  0  0  0  0  0
   13.8250  -14.3830   -7.3090 N   0  0  0  0  0  0  0  0  0  0  0  0
   14.2350  -15.0060   -8.5500 C   0  0  0  0  0  0  0  0  0  0  0  0
   15.6440  -15.4220   -8.5170 C   0  0  0  0  0  0  0  0  0  0  0  0
   16.7610  -15.7390   -8.4660 N   0  0  0  0  0  0  0  0  0  0  0  0
    9.2251  -14.8199   -5.0075 H   0  0  0  0  0  0  0  0  0  0  0  0
   10.4460  -14.3396   -6.2344 H   0  0  0  0  0  0  0  0  0  0  0  0
    9.7810  -16.0083   -6.2344 H   0  0  0  0  0  0  0  0  0  0  0  0
   10.7813  -14.0641   -2.5215 H   0  0  0  0  0  0  0  0  0  0  0  0
   14.0800  -10.8404   -1.4354 H   0  0  0  0  0  0  0  0  0  0  0  0
   13.3860   -9.6738    0.6349 H   0  0  0  0  0  0  0  0  0  0  0  0
    9.9190  -12.6160    1.9140 H   0  0  0  0  0  0  0  0  0  0  0  0
    8.5690  -13.7305   -0.7804 H   0  0  0  0  0  0  0  0  0  0  0  0
    6.1960  -13.7249   -1.4834 H   0  0  0  0  0  0  0  0  0  0  0  0
    3.4143  -14.0118   -0.0540 H   0  0  0  0  0  0  0  0  0  0  0  0
    3.5216  -12.8143    1.2912 H   0  0  0  0  0  0  0  0  0  0  0  0
    1.1733  -13.1768    0.4589 H   0  0  0  0  0  0  0  0  0  0  0  0
    1.7568  -11.4663    0.3025 H   0  0  0  0  0  0  0  0  0  0  0  0
    2.1963  -11.6284   -3.2283 H   0  0  0  0  0  0  0  0  0  0  0  0
    2.3252  -10.6141   -1.7308 H   0  0  0  0  0  0  0  0  0  0  0  0
    4.0823  -13.0012   -2.4843 H   0  0  0  0  0  0  0  0  0  0  0  0
    4.5582  -11.2613   -2.4504 H   0  0  0  0  0  0  0  0  0  0  0  0
    5.3766  -10.5626    1.3104 H   0  0  0  0  0  0  0  0  0  0  0  0
    7.7527  -10.5603    2.0102 H   0  0  0  0  0  0  0  0  0  0  0  0
   14.5048  -11.9235   -2.9592 H   0  0  0  0  0  0  0  0  0  0  0  0
   15.0156  -13.2349   -4.9997 H   0  0  0  0  0  0  0  0  0  0  0  0
   13.6940  -13.3760   -7.2650 H   0  0  0  0  0  0  0  0  0  0  0  0
   13.6071  -15.8916   -8.7273 H   0  0  0  0  0  0  0  0  0  0  0  0
   14.1173  -14.2673   -9.3565 H   0  0  0  0  0  0  0  0  0  0  0  0
  1  2  1  0
  2  3  1  0
  3  4  2  0
  4  5  1  0
  5  6  1  0
  6  7  2  0
  7  8  1  0
  8  9  2  0
  9 10  1  0
 10 11  1  0
 11 12  1  0
 12 13  2  0
 13 14  1  0
 14 15  2  0
 15 16  1  0
 16 17  1  0
 17 18  1  0
 18 19  1  0
 19 20  1  0
 20 21  1  0
 15 22  1  0
 22 23  2  0
 10 24  2  0
  5 25  2  0
 25 26  1  0
 26 27  2  0
 27 28  1  0
 28 29  2  0
 28 30  1  0
 30 31  1  0
 31 32  1  0
 32 33  3  0
 27  3  1  0
 24  6  1  0
 23 12  1  0
 21 16  1  0
  1 34  1  0
  1 35  1  0
  1 36  1  0
  4 37  1  0
  7 38  1  0
  8 39  1  0
 11 40  1  0
 13 41  1  0
 14 42  1  0
 17 43  1  0
 17 44  1  0
 18 45  1  0
 18 46  1  0
 20 47  1  0
 20 48  1  0
 21 49  1  0
 21 50  1  0
 22 51  1  0
 23 52  1  0
 25 53  1  0
 26 54  1  0
 30 55  1  0
 31 56  1  0
 31 57  1  0
M  END
>  <meeko>  (1) 
{"is_sidechain": [false], "free_energy": -7.999, "intermolecular_energy": -11.272, "internal_energy": -0.704}

$$$$
LIB_OGYJYBMWSHOXRO__M_PUB_ALL__e8__s20260927
     RDKit          3D

 57 60  0  0  0  0  0  0  0  0999 V2000
   -1.6570  -16.0350    3.9400 C   0  0  0  0  0  0  0  0  0  0  0  0
   -2.6950  -15.9390    2.9690 O   0  0  0  0  0  0  0  0  0  0  0  0
   -3.8180  -15.2160    3.2860 C   0  0  0  0  0  0  0  0  0  0  0  0
   -4.7090  -15.5870    4.3100 C   0  0  0  0  0  0  0  0  0  0  0  0
   -5.8560  -14.8280    4.6170 C   0  0  0  0  0  0  0  0  0  0  0  0
   -6.7880  -15.2200    5.6930 C   0  0  0  0  0  0  0  0  0  0  0  0
   -6.7710  -14.6410    6.9440 C   0  0  0  0  0  0  0  0  0  0  0  0
   -7.7010  -15.1120    7.8350 C   0  0  0  0  0  0  0  0  0  0  0  0
   -8.5840  -16.0780    7.5410 N   0  0  0  0  0  0  0  0  0  0  0  0
   -8.5490  -16.5930    6.3050 C   0  0  0  0  0  0  0  0  0  0  0  0
   -9.4190  -17.5970    5.8940 N   0  0  0  0  0  0  0  0  0  0  0  0
  -10.0990  -18.6260    6.5490 C   0  0  0  0  0  0  0  0  0  0  0  0
   -9.6720  -19.9460    6.3560 C   0  0  0  0  0  0  0  0  0  0  0  0
  -10.3140  -21.0230    6.9860 C   0  0  0  0  0  0  0  0  0  0  0  0
  -11.4130  -20.8370    7.8310 C   0  0  0  0  0  0  0  0  0  0  0  0
  -12.0290  -21.9180    8.4500 N   0  0  0  0  0  0  0  0  0  0  0  0
  -13.3310  -21.6940    9.1100 C   0  0  0  0  0  0  0  0  0  0  0  0
  -14.0680  -23.0260    9.3160 C   0  0  0  0  0  0  0  0  0  0  0  0
  -13.2580  -23.9810   10.0180 O   0  0  0  0  0  0  0  0  0  0  0  0
  -12.0650  -24.2520    9.2680 C   0  0  0  0  0  0  0  0  0  0  0  0
  -11.2210  -22.9850    9.0670 C   0  0  0  0  0  0  0  0  0  0  0  0
  -11.8250  -19.5140    8.0290 C   0  0  0  0  0  0  0  0  0  0  0  0
  -11.1860  -18.4320    7.3980 C   0  0  0  0  0  0  0  0  0  0  0  0
   -7.6760  -16.1860    5.3680 N   0  0  0  0  0  0  0  0  0  0  0  0
   -6.0970  -13.6770    3.8530 C   0  0  0  0  0  0  0  0  0  0  0  0
   -5.2200  -13.2890    2.8380 C   0  0  0  0  0  0  0  0  0  0  0  0
   -4.0730  -14.0440    2.5440 C   0  0  0  0  0  0  0  0  0  0  0  0
   -3.2080  -13.5220    1.4330 C   0  0  0  0  0  0  0  0  0  0  0  0
   -3.6300  -13.4650    0.2820 O   0  0  0  0  0  0  0  0  0  0  0  0
   -1.9380  -13.1120    1.7480 N   0  0  0  0  0  0  0  0  0  0  0  0
   -1.0410  -12.5970    0.7360 C   0  0  0  0  0  0  0  0  0  0  0  0
   -0.6350  -11.2120    1.0150 C   0  0  0  0  0  0  0  0  0  0  0  0
   -0.3300  -10.1180    1.2580 N   0  0  0  0  0  0  0  0  0  0  0  0
   -2.0937  -15.9946    4.9488 H   0  0  0  0  0  0  0  0  0  0  0  0
   -1.1206  -16.9866    3.8105 H   0  0  0  0  0  0  0  0  0  0  0  0
   -0.9552  -15.1979    3.8105 H   0  0  0  0  0  0  0  0  0  0  0  0
   -4.5035  -16.4990    4.8896 H   0  0  0  0  0  0  0  0  0  0  0  0
   -6.0552  -13.8496    7.2112 H   0  0  0  0  0  0  0  0  0  0  0  0
   -7.7241  -14.6746    8.8440 H   0  0  0  0  0  0  0  0  0  0  0  0
   -9.5550  -17.5230    4.8970 H   0  0  0  0  0  0  0  0  0  0  0  0
   -8.8143  -20.1427    5.6959 H   0  0  0  0  0  0  0  0  0  0  0  0
   -9.9422  -22.0432    6.8102 H   0  0  0  0  0  0  0  0  0  0  0  0
  -13.1638  -21.2182   10.0876 H   0  0  0  0  0  0  0  0  0  0  0  0
  -13.9458  -21.0433    8.4707 H   0  0  0  0  0  0  0  0  0  0  0  0
  -14.9834  -22.8402    9.8970 H   0  0  0  0  0  0  0  0  0  0  0  0
  -14.3056  -23.4418    8.3257 H   0  0  0  0  0  0  0  0  0  0  0  0
  -11.4649  -24.9979    9.8098 H   0  0  0  0  0  0  0  0  0  0  0  0
  -12.3605  -24.6282    8.2774 H   0  0  0  0  0  0  0  0  0  0  0  0
  -10.8495  -22.6391   10.0429 H   0  0  0  0  0  0  0  0  0  0  0  0
  -10.3775  -23.2217    8.4018 H   0  0  0  0  0  0  0  0  0  0  0  0
  -12.6746  -19.3147    8.6987 H   0  0  0  0  0  0  0  0  0  0  0  0
  -11.5524  -17.4107    7.5787 H   0  0  0  0  0  0  0  0  0  0  0  0
   -6.9914  -13.0699    4.0566 H   0  0  0  0  0  0  0  0  0  0  0  0
   -5.4309  -12.3775    2.2595 H   0  0  0  0  0  0  0  0  0  0  0  0
   -1.6300  -13.1770    2.7140 H   0  0  0  0  0  0  0  0  0  0  0  0
   -0.1425  -13.2307    0.7018 H   0  0  0  0  0  0  0  0  0  0  0  0
   -1.5721  -12.6085   -0.2272 H   0  0  0  0  0  0  0  0  0  0  0  0
  1  2  1  0
  2  3  1  0
  3  4  2  0
  4  5  1  0
  5  6  1  0
  6  7  2  0
  7  8  1  0
  8  9  2  0
  9 10  1  0
 10 11  1  0
 11 12  1  0
 12 13  2  0
 13 14  1  0
 14 15  2  0
 15 16  1  0
 16 17  1  0
 17 18  1  0
 18 19  1  0
 19 20  1  0
 20 21  1  0
 15 22  1  0
 22 23  2  0
 10 24  2  0
  5 25  2  0
 25 26  1  0
 26 27  2  0
 27 28  1  0
 28 29  2  0
 28 30  1  0
 30 31  1  0
 31 32  1  0
 32 33  3  0
 27  3  1  0
 24  6  1  0
 23 12  1  0
 21 16  1  0
  1 34  1  0
  1 35  1  0
  1 36  1  0
  4 37  1  0
  7 38  1  0
  8 39  1  0
 11 40  1  0
 13 41  1  0
 14 42  1  0
 17 43  1  0
 17 44  1  0
 18 45  1  0
 18 46  1  0
 20 47  1  0
 20 48  1  0
 21 49  1  0
 21 50  1  0
 22 51  1  0
 23 52  1  0
 25 53  1  0
 26 54  1  0
 30 55  1  0
 31 56  1  0
 31 57  1  0
M  END
>  <meeko>  (2) 
{"is_sidechain": [false], "free_energy": -7.622, "intermolecular_energy": -10.385, "internal_energy": -1.06}

$$$$
LIB_OGYJYBMWSHOXRO__M_PUB_ALL__e8__s20260927
     RDKit          3D

 57 60  0  0  0  0  0  0  0  0999 V2000
    7.6030  -11.2710    0.7710 C   0  0  0  0  0  0  0  0  0  0  0  0
    8.0430  -12.5440    0.3070 O   0  0  0  0  0  0  0  0  0  0  0  0
    8.1330  -12.7480   -1.0480 C   0  0  0  0  0  0  0  0  0  0  0  0
    7.0090  -12.8450   -1.8880 C   0  0  0  0  0  0  0  0  0  0  0  0
    7.1260  -13.0540   -3.2770 C   0  0  0  0  0  0  0  0  0  0  0  0
    5.9440  -13.1570   -4.1550 C   0  0  0  0  0  0  0  0  0  0  0  0
    6.0010  -12.9300   -5.5150 C   0  0  0  0  0  0  0  0  0  0  0  0
    4.8180  -13.0640   -6.1950 C   0  0  0  0  0  0  0  0  0  0  0  0
    3.6580  -13.3920   -5.6040 N   0  0  0  0  0  0  0  0  0  0  0  0
    3.6760  -13.6040   -4.2830 C   0  0  0  0  0  0  0  0  0  0  0  0
    2.5320  -13.9490   -3.5700 N   0  0  0  0  0  0  0  0  0  0  0  0
    1.9030  -13.4390   -2.4320 C   0  0  0  0  0  0  0  0  0  0  0  0
    1.1730  -14.3120   -1.6180 C   0  0  0  0  0  0  0  0  0  0  0  0
    0.5170  -13.8610   -0.4610 C   0  0  0  0  0  0  0  0  0  0  0  0
    0.5540  -12.5190   -0.0670 C   0  0  0  0  0  0  0  0  0  0  0  0
   -0.0960  -12.0960    1.0860 N   0  0  0  0  0  0  0  0  0  0  0  0
   -0.1130  -10.6500    1.3850 C   0  0  0  0  0  0  0  0  0  0  0  0
   -1.2300  -10.3200    2.3870 C   0  0  0  0  0  0  0  0  0  0  0  0
   -1.1350  -11.1210    3.5750 O   0  0  0  0  0  0  0  0  0  0  0  0
   -1.2490  -12.5100    3.2340 C   0  0  0  0  0  0  0  0  0  0  0  0
   -0.1290  -12.9560    2.2830 C   0  0  0  0  0  0  0  0  0  0  0  0
    1.2980  -11.6550   -0.8800 C   0  0  0  0  0  0  0  0  0  0  0  0
    1.9530  -12.1030   -2.0400 C   0  0  0  0  0  0  0  0  0  0  0  0
    4.7910  -13.4990   -3.5400 N   0  0  0  0  0  0  0  0  0  0  0  0
    8.4180  -13.1750   -3.8080 C   0  0  0  0  0  0  0  0  0  0  0  0
    9.5460  -13.0720   -2.9920 C   0  0  0  0  0  0  0  0  0  0  0  0
    9.4220  -12.8540   -1.6100 C   0  0  0  0  0  0  0  0  0  0  0  0
   10.7080  -12.7590   -0.8410 C   0  0  0  0  0  0  0  0  0  0  0  0
   10.9480  -13.5340    0.0810 O   0  0  0  0  0  0  0  0  0  0  0  0
   11.6020  -11.7840   -1.2020 N   0  0  0  0  0  0  0  0  0  0  0  0
   12.8630  -11.6250   -0.5100 C   0  0  0  0  0  0  0  0  0  0  0  0
   12.9430  -10.3400    0.1990 C   0  0  0  0  0  0  0  0  0  0  0  0
   12.9810   -9.3180    0.7500 N   0  0  0  0  0  0  0  0  0  0  0  0
    7.6001  -11.2626    1.8710 H   0  0  0  0  0  0  0  0  0  0  0  0
    8.2834  -10.4903    0.4002 H   0  0  0  0  0  0  0  0  0  0  0  0
    6.5857  -11.0771    0.4002 H   0  0  0  0  0  0  0  0  0  0  0  0
    6.0056  -12.7548   -1.4464 H   0  0  0  0  0  0  0  0  0  0  0  0
    6.9383  -12.6582   -6.0225 H   0  0  0  0  0  0  0  0  0  0  0  0
    4.8194  -12.8938   -7.2818 H   0  0  0  0  0  0  0  0  0  0  0  0
    2.1000  -14.7460   -4.0120 H   0  0  0  0  0  0  0  0  0  0  0  0
    1.1115  -15.3759   -1.8905 H   0  0  0  0  0  0  0  0  0  0  0  0
   -0.0416  -14.5831    0.1527 H   0  0  0  0  0  0  0  0  0  0  0  0
    0.8565  -10.3579    1.8148 H   0  0  0  0  0  0  0  0  0  0  0  0
   -0.2971  -10.0964    0.4525 H   0  0  0  0  0  0  0  0  0  0  0  0
   -1.1555   -9.2587    2.6664 H   0  0  0  0  0  0  0  0  0  0  0  0
   -2.1954  -10.5356    1.9058 H   0  0  0  0  0  0  0  0  0  0  0  0
   -1.1938  -13.1087    4.1551 H   0  0  0  0  0  0  0  0  0  0  0  0
   -2.2117  -12.6594    2.7233 H   0  0  0  0  0  0  0  0  0  0  0  0
    0.8372  -12.8881    2.8044 H   0  0  0  0  0  0  0  0  0  0  0  0
   -0.3190  -13.9935    1.9709 H   0  0  0  0  0  0  0  0  0  0  0  0
    1.3720  -10.5932   -0.6022 H   0  0  0  0  0  0  0  0  0  0  0  0
    2.5172  -11.3834   -2.6515 H   0  0  0  0  0  0  0  0  0  0  0  0
    8.5450  -13.3541   -4.8859 H   0  0  0  0  0  0  0  0  0  0  0  0
   10.5473  -13.1630   -3.4382 H   0  0  0  0  0  0  0  0  0  0  0  0
   11.3620  -11.1640   -1.9710 H   0  0  0  0  0  0  0  0  0  0  0  0
   12.9732  -12.4408    0.2196 H   0  0  0  0  0  0  0  0  0  0  0  0
   13.6678  -11.6506   -1.2595 H   0  0  0  0  0  0  0  0  0  0  0  0
  1  2  1  0
  2  3  1  0
  3  4  2  0
  4  5  1  0
  5  6  1  0
  6  7  2  0
  7  8  1  0
  8  9  2  0
  9 10  1  0
 10 11  1  0
 11 12  1  0
 12 13  2  0
 13 14  1  0
 14 15  2  0
 15 16  1  0
 16 17  1  0
 17 18  1  0
 18 19  1  0
 19 20  1  0
 20 21  1  0
 15 22  1  0
 22 23  2  0
 10 24  2  0
  5 25  2  0
 25 26  1  0
 26 27  2  0
 27 28  1  0
 28 29  2  0
 28 30  1  0
 30 31  1  0
 31 32  1  0
 32 33  3  0
 27  3  1  0
 24  6  1  0
 23 12  1  0
 21 16  1  0
  1 34  1  0
  1 35  1  0
  1 36  1  0
  4 37  1  0
  7 38  1  0
  8 39  1  0
 11 40  1  0
 13 41  1  0
 14 42  1  0
 17 43  1  0
 17 44  1  0
 18 45  1  0
 18 46  1  0
 20 47  1  0
 20 48  1  0
 21 49  1  0
 21 50  1  0
 22 51  1  0
 23 52  1  0
 25 53  1  0
 26 54  1  0
 30 55  1  0
 31 56  1  0
 31 57  1  0
M  END
>  <meeko>  (3) 
{"is_sidechain": [false], "free_energy": -7.6, "intermolecular_energy": -10.448, "internal_energy": -0.967}

$$$$
LIB_OGYJYBMWSHOXRO__M_PUB_ALL__e8__s20260927
     RDKit          3D

 57 60  0  0  0  0  0  0  0  0999 V2000
    7.8550  -16.3740   -9.4500 C   0  0  0  0  0  0  0  0  0  0  0  0
    8.3010  -15.1480   -8.8780 O   0  0  0  0  0  0  0  0  0  0  0  0
    7.3850  -14.3680   -8.2160 C   0  0  0  0  0  0  0  0  0  0  0  0
    6.8750  -14.6890   -6.9450 C   0  0  0  0  0  0  0  0  0  0  0  0
    5.9360  -13.8710   -6.2850 C   0  0  0  0  0  0  0  0  0  0  0  0
    5.4030  -14.2120   -4.9510 C   0  0  0  0  0  0  0  0  0  0  0  0
    5.2870  -15.5110   -4.5020 C   0  0  0  0  0  0  0  0  0  0  0  0
    4.7750  -15.6650   -3.2390 C   0  0  0  0  0  0  0  0  0  0  0  0
    4.3980  -14.6370   -2.4640 N   0  0  0  0  0  0  0  0  0  0  0  0
    4.5430  -13.4020   -2.9590 C   0  0  0  0  0  0  0  0  0  0  0  0
    4.1850  -12.2660   -2.2420 N   0  0  0  0  0  0  0  0  0  0  0  0
    3.1130  -11.9380   -1.4090 C   0  0  0  0  0  0  0  0  0  0  0  0
    2.1210  -11.0770   -1.8940 C   0  0  0  0  0  0  0  0  0  0  0  0
    1.0200  -10.7080   -1.1060 C   0  0  0  0  0  0  0  0  0  0  0  0
    0.8590  -11.1760    0.2030 C   0  0  0  0  0  0  0  0  0  0  0  0
   -0.2440  -10.8040    0.9630 N   0  0  0  0  0  0  0  0  0  0  0  0
   -1.4410  -11.6680    0.9220 C   0  0  0  0  0  0  0  0  0  0  0  0
   -2.3470  -11.3900    2.1310 C   0  0  0  0  0  0  0  0  0  0  0  0
   -2.6840   -9.9990    2.2370 O   0  0  0  0  0  0  0  0  0  0  0  0
   -1.4890   -9.2210    2.3980 C   0  0  0  0  0  0  0  0  0  0  0  0
   -0.5410   -9.3800    1.1990 C   0  0  0  0  0  0  0  0  0  0  0  0
    1.8470  -12.0470    0.6750 C   0  0  0  0  0  0  0  0  0  0  0  0
    2.9530  -12.4160   -0.1100 C   0  0  0  0  0  0  0  0  0  0  0  0
    5.0410  -13.1600   -4.1840 N   0  0  0  0  0  0  0  0  0  0  0  0
    5.5070  -12.7120   -6.9460 C   0  0  0  0  0  0  0  0  0  0  0  0
    6.0080  -12.3720   -8.2040 C   0  0  0  0  0  0  0  0  0  0  0  0
    6.9510  -13.1860   -8.8530 C   0  0  0  0  0  0  0  0  0  0  0  0
    7.4150  -12.7130  -10.1990 C   0  0  0  0  0  0  0  0  0  0  0  0
    6.6490  -12.6970  -11.1590 O   0  0  0  0  0  0  0  0  0  0  0  0
    8.7160  -12.2980  -10.3210 N   0  0  0  0  0  0  0  0  0  0  0  0
    9.2410  -11.8280  -11.5850 C   0  0  0  0  0  0  0  0  0  0  0  0
   10.5300  -11.1400  -11.4220 C   0  0  0  0  0  0  0  0  0  0  0  0
   11.5470  -10.5990  -11.2660 N   0  0  0  0  0  0  0  0  0  0  0  0
    7.5978  -17.0809   -8.6474 H   0  0  0  0  0  0  0  0  0  0  0  0
    6.9674  -16.1869  -10.0721 H   0  0  0  0  0  0  0  0  0  0  0  0
    8.6554  -16.8009  -10.0721 H   0  0  0  0  0  0  0  0  0  0  0  0
    7.2203  -15.6086   -6.4499 H   0  0  0  0  0  0  0  0  0  0  0  0
    5.5868  -16.3708   -5.1191 H   0  0  0  0  0  0  0  0  0  0  0  0
    4.6679  -16.6848   -2.8407 H   0  0  0  0  0  0  0  0  0  0  0  0
    4.8840  -11.5530   -2.3880 H   0  0  0  0  0  0  0  0  0  0  0  0
    2.2067  -10.6806   -2.9165 H   0  0  0  0  0  0  0  0  0  0  0  0
    0.2623  -10.0320   -1.5291 H   0  0  0  0  0  0  0  0  0  0  0  0
   -2.0007  -11.4674   -0.0035 H   0  0  0  0  0  0  0  0  0  0  0  0
   -1.1214  -12.7201    0.9515 H   0  0  0  0  0  0  0  0  0  0  0  0
   -3.2733  -11.9734    2.0232 H   0  0  0  0  0  0  0  0  0  0  0  0
   -1.8006  -11.6793    3.0408 H   0  0  0  0  0  0  0  0  0  0  0  0
   -1.7646   -8.1606    2.4963 H   0  0  0  0  0  0  0  0  0  0  0  0
   -0.9664   -9.5777    3.2978 H   0  0  0  0  0  0  0  0  0  0  0  0
   -1.0165   -8.9557    0.3024 H   0  0  0  0  0  0  0  0  0  0  0  0
    0.3989   -8.8510    1.4152 H   0  0  0  0  0  0  0  0  0  0  0  0
    1.7554  -12.4557    1.6921 H   0  0  0  0  0  0  0  0  0  0  0  0
    3.7082  -13.0966    0.3101 H   0  0  0  0  0  0  0  0  0  0  0  0
    4.7632  -12.0594   -6.4656 H   0  0  0  0  0  0  0  0  0  0  0  0
    5.6586  -11.4517   -8.6949 H   0  0  0  0  0  0  0  0  0  0  0  0
    9.3160  -12.3270   -9.5000 H   0  0  0  0  0  0  0  0  0  0  0  0
    9.3800  -12.6895  -12.2546 H   0  0  0  0  0  0  0  0  0  0  0  0
    8.5223  -11.1097  -12.0065 H   0  0  0  0  0  0  0  0  0  0  0  0
  1  2  1  0
  2  3  1  0
  3  4  2  0
  4  5  1  0
  5  6  1  0
  6  7  2  0
  7  8  1  0
  8  9  2  0
  9 10  1  0
 10 11  1  0
 11 12  1  0
 12 13  2  0
 13 14  1  0
 14 15  2  0
 15 16  1  0
 16 17  1  0
 17 18  1  0
 18 19  1  0
 19 20  1  0
 20 21  1  0
 15 22  1  0
 22 23  2  0
 10 24  2  0
  5 25  2  0
 25 26  1  0
 26 27  2  0
 27 28  1  0
 28 29  2  0
 28 30  1  0
 30 31  1  0
 31 32  1  0
 32 33  3  0
 27  3  1  0
 24  6  1  0
 23 12  1  0
 21 16  1  0
  1 34  1  0
  1 35  1  0
  1 36  1  0
  4 37  1  0
  7 38  1  0
  8 39  1  0
 11 40  1  0
 13 41  1  0
 14 42  1  0
 17 43  1  0
 17 44  1  0
 18 45  1  0
 18 46  1  0
 20 47  1  0
 20 48  1  0
 21 49  1  0
 21 50  1  0
 22 51  1  0
 23 52  1  0
 25 53  1  0
 26 54  1  0
 30 55  1  0
 31 56  1  0
 31 57  1  0
M  END
>  <meeko>  (4) 
{"is_sidechain": [false], "free_energy": -7.592, "intermolecular_energy": -10.403, "internal_energy": -1.0}

$$$$
LIB_OGYJYBMWSHOXRO__M_PUB_ALL__e8__s20260927
     RDKit          3D

 57 60  0  0  0  0  0  0  0  0999 V2000
    6.8980  -11.9030   -3.0860 C   0  0  0  0  0  0  0  0  0  0  0  0
    7.3280  -12.8410   -2.1030 O   0  0  0  0  0  0  0  0  0  0  0  0
    8.5780  -12.6860   -1.5590 C   0  0  0  0  0  0  0  0  0  0  0  0
    9.7580  -12.7020   -2.3250 C   0  0  0  0  0  0  0  0  0  0  0  0
   11.0320  -12.5410   -1.7440 C   0  0  0  0  0  0  0  0  0  0  0  0
   12.2680  -12.5580   -2.5510 C   0  0  0  0  0  0  0  0  0  0  0  0
   13.2950  -11.6560   -2.3640 C   0  0  0  0  0  0  0  0  0  0  0  0
   14.3780  -11.8020   -3.1920 C   0  0  0  0  0  0  0  0  0  0  0  0
   14.4640  -12.7500   -4.1380 N   0  0  0  0  0  0  0  0  0  0  0  0
   13.4340  -13.5960   -4.2610 C   0  0  0  0  0  0  0  0  0  0  0  0
   13.4180  -14.6160   -5.2060 N   0  0  0  0  0  0  0  0  0  0  0  0
   13.8840  -14.7360   -6.5180 C   0  0  0  0  0  0  0  0  0  0  0  0
   13.1100  -14.2080   -7.5580 C   0  0  0  0  0  0  0  0  0  0  0  0
   13.5220  -14.2980   -8.8970 C   0  0  0  0  0  0  0  0  0  0  0  0
   14.7210  -14.9200   -9.2600 C   0  0  0  0  0  0  0  0  0  0  0  0
   15.1130  -14.9910  -10.5920 N   0  0  0  0  0  0  0  0  0  0  0  0
   16.3860  -15.6680  -10.9080 C   0  0  0  0  0  0  0  0  0  0  0  0
   16.4330  -16.0640  -12.3920 C   0  0  0  0  0  0  0  0  0  0  0  0
   16.1850  -14.9410  -13.2510 O   0  0  0  0  0  0  0  0  0  0  0  0
   14.8830  -14.4010  -12.9830 C   0  0  0  0  0  0  0  0  0  0  0  0
   14.7590  -13.9120  -11.5320 C   0  0  0  0  0  0  0  0  0  0  0  0
   15.4950  -15.4330   -8.2130 C   0  0  0  0  0  0  0  0  0  0  0  0
   15.0840  -15.3480   -6.8720 C   0  0  0  0  0  0  0  0  0  0  0  0
   12.3360  -13.5290   -3.4880 N   0  0  0  0  0  0  0  0  0  0  0  0
   11.0940  -12.3700   -0.3530 C   0  0  0  0  0  0  0  0  0  0  0  0
    9.9340  -12.3440    0.4220 C   0  0  0  0  0  0  0  0  0  0  0  0
    8.6670  -12.4950   -0.1640 C   0  0  0  0  0  0  0  0  0  0  0  0
    7.4960  -12.4450    0.7740 C   0  0  0  0  0  0  0  0  0  0  0  0
    7.4360  -13.1950    1.7450 O   0  0  0  0  0  0  0  0  0  0  0  0
    6.5020  -11.5370    0.5130 N   0  0  0  0  0  0  0  0  0  0  0  0
    5.3400  -11.4260    1.3690 C   0  0  0  0  0  0  0  0  0  0  0  0
    4.1530  -12.0500    0.7670 C   0  0  0  0  0  0  0  0  0  0  0  0
    3.2300  -12.5490    0.2690 N   0  0  0  0  0  0  0  0  0  0  0  0
    6.4893  -11.0114   -2.5880 H   0  0  0  0  0  0  0  0  0  0  0  0
    7.7529  -11.6125   -3.7144 H   0  0  0  0  0  0  0  0  0  0  0  0
    6.1200  -12.3611   -3.7144 H   0  0  0  0  0  0  0  0  0  0  0  0
    9.6839  -12.8449   -3.4132 H   0  0  0  0  0  0  0  0  0  0  0  0
   13.2479  -10.8682   -1.5978 H   0  0  0  0  0  0  0  0  0  0  0  0
   15.2210  -11.1052   -3.0747 H   0  0  0  0  0  0  0  0  0  0  0  0
   12.9600  -15.4230   -4.8090 H   0  0  0  0  0  0  0  0  0  0  0  0
   12.1576  -13.7114   -7.3207 H   0  0  0  0  0  0  0  0  0  0  0  0
   12.8840  -13.8673   -9.6827 H   0  0  0  0  0  0  0  0  0  0  0  0
   17.2218  -14.9873  -10.6886 H   0  0  0  0  0  0  0  0  0  0  0  0
   16.4659  -16.5779  -10.2950 H   0  0  0  0  0  0  0  0  0  0  0  0
   17.4280  -16.4738  -12.6199 H   0  0  0  0  0  0  0  0  0  0  0  0
   15.6469  -16.8122  -12.5715 H   0  0  0  0  0  0  0  0  0  0  0  0
   14.7016  -13.5543  -13.6614 H   0  0  0  0  0  0  0  0  0  0  0  0
   14.1417  -15.1982  -13.1410 H   0  0  0  0  0  0  0  0  0  0  0  0
   15.4377  -13.0602  -11.3777 H   0  0  0  0  0  0  0  0  0  0  0  0
   13.7187  -13.6060  -11.3472 H   0  0  0  0  0  0  0  0  0  0  0  0
   16.4544  -15.9176   -8.4470 H   0  0  0  0  0  0  0  0  0  0  0  0
   15.7237  -15.7739   -6.0850 H   0  0  0  0  0  0  0  0  0  0  0  0
   12.0732  -12.2545    0.1347 H   0  0  0  0  0  0  0  0  0  0  0  0
   10.0134  -12.2029    1.5100 H   0  0  0  0  0  0  0  0  0  0  0  0
    6.5930  -10.9350   -0.3010 H   0  0  0  0  0  0  0  0  0  0  0  0
    5.5553  -11.9223    2.3268 H   0  0  0  0  0  0  0  0  0  0  0  0
    5.1256  -10.3570    1.5151 H   0  0  0  0  0  0  0  0  0  0  0  0
  1  2  1  0
  2  3  1  0
  3  4  2  0
  4  5  1  0
  5  6  1  0
  6  7  2  0
  7  8  1  0
  8  9  2  0
  9 10  1  0
 10 11  1  0
 11 12  1  0
 12 13  2  0
 13 14  1  0
 14 15  2  0
 15 16  1  0
 16 17  1  0
 17 18  1  0
 18 19  1  0
 19 20  1  0
 20 21  1  0
 15 22  1  0
 22 23  2  0
 10 24  2  0
  5 25  2  0
 25 26  1  0
 26 27  2  0
 27 28  1  0
 28 29  2  0
 28 30  1  0
 30 31  1  0
 31 32  1  0
 32 33  3  0
 27  3  1  0
 24  6  1  0
 23 12  1  0
 21 16  1  0
  1 34  1  0
  1 35  1  0
  1 36  1  0
  4 37  1  0
  7 38  1  0
  8 39  1  0
 11 40  1  0
 13 41  1  0
 14 42  1  0
 17 43  1  0
 17 44  1  0
 18 45  1  0
 18 46  1  0
 20 47  1  0
 20 48  1  0
 21 49  1  0
 21 50  1  0
 22 51  1  0
 23 52  1  0
 25 53  1  0
 26 54  1  0
 30 55  1  0
 31 56  1  0
 31 57  1  0
M  END
>  <meeko>  (5) 
{"is_sidechain": [false], "free_energy": -7.592, "intermolecular_energy": -10.233, "internal_energy": -1.17}

$$$$
LIB_OGYJYBMWSHOXRO__M_PUB_ALL__e8__s20260927
     RDKit          3D

 57 60  0  0  0  0  0  0  0  0999 V2000
   10.8040   -9.7820   14.0410 C   0  0  0  0  0  0  0  0  0  0  0  0
   12.1970   -9.8280   13.7470 O   0  0  0  0  0  0  0  0  0  0  0  0
   12.6800  -10.9060   13.0470 C   0  0  0  0  0  0  0  0  0  0  0  0
   12.1770  -12.2110   13.2010 C   0  0  0  0  0  0  0  0  0  0  0  0
   12.6880  -13.3030   12.4710 C   0  0  0  0  0  0  0  0  0  0  0  0
   12.1580  -14.6710   12.6350 C   0  0  0  0  0  0  0  0  0  0  0  0
   10.8070  -14.9470   12.6920 C   0  0  0  0  0  0  0  0  0  0  0  0
   10.4720  -16.2670   12.8470 C   0  0  0  0  0  0  0  0  0  0  0  0
   11.3760  -17.2540   12.9420 N   0  0  0  0  0  0  0  0  0  0  0  0
   12.6700  -16.9160   12.8740 C   0  0  0  0  0  0  0  0  0  0  0  0
   13.6900  -17.8580   12.9610 N   0  0  0  0  0  0  0  0  0  0  0  0
   14.7160  -18.2630   12.1050 C   0  0  0  0  0  0  0  0  0  0  0  0
   14.3810  -18.8930   10.9000 C   0  0  0  0  0  0  0  0  0  0  0  0
   15.3660  -19.3240    9.9990 C   0  0  0  0  0  0  0  0  0  0  0  0
   16.7300  -19.1540   10.2590 C   0  0  0  0  0  0  0  0  0  0  0  0
   17.6890  -19.5820    9.3480 N   0  0  0  0  0  0  0  0  0  0  0  0
   19.0560  -19.0380    9.4690 C   0  0  0  0  0  0  0  0  0  0  0  0
   20.0610  -19.9340    8.7270 C   0  0  0  0  0  0  0  0  0  0  0  0
   19.6780  -20.1460    7.3600 O   0  0  0  0  0  0  0  0  0  0  0  0
   18.3960  -20.7890    7.3090 C   0  0  0  0  0  0  0  0  0  0  0  0
   17.3050  -19.9340    7.9700 C   0  0  0  0  0  0  0  0  0  0  0  0
   17.0570  -18.5120   11.4590 C   0  0  0  0  0  0  0  0  0  0  0  0
   16.0730  -18.0810   12.3650 C   0  0  0  0  0  0  0  0  0  0  0  0
   13.0870  -15.6490   12.7170 N   0  0  0  0  0  0  0  0  0  0  0  0
   13.7380  -13.0510   11.5770 C   0  0  0  0  0  0  0  0  0  0  0  0
   14.2450  -11.7620   11.4050 C   0  0  0  0  0  0  0  0  0  0  0  0
   13.7250  -10.6760   12.1290 C   0  0  0  0  0  0  0  0  0  0  0  0
   14.3510   -9.3400   11.8530 C   0  0  0  0  0  0  0  0  0  0  0  0
   13.8550   -8.5710   11.0340 O   0  0  0  0  0  0  0  0  0  0  0  0
   15.4880   -9.0090   12.5440 N   0  0  0  0  0  0  0  0  0  0  0  0
   16.1530   -7.7410   12.3350 C   0  0  0  0  0  0  0  0  0  0  0  0
   17.5890   -7.9100   12.0740 C   0  0  0  0  0  0  0  0  0  0  0  0
   18.7220   -8.0710   11.8710 N   0  0  0  0  0  0  0  0  0  0  0  0
   10.6594   -9.7772   15.1314 H   0  0  0  0  0  0  0  0  0  0  0  0
   10.3681   -8.8690   13.6093 H   0  0  0  0  0  0  0  0  0  0  0  0
   10.3088  -10.6643   13.6093 H   0  0  0  0  0  0  0  0  0  0  0  0
   11.3581  -12.3847   13.9146 H   0  0  0  0  0  0  0  0  0  0  0  0
   10.0459  -14.1563   12.6176 H   0  0  0  0  0  0  0  0  0  0  0  0
    9.4053  -16.5313   12.8961 H   0  0  0  0  0  0  0  0  0  0  0  0
   13.6310  -18.3210   13.8550 H   0  0  0  0  0  0  0  0  0  0  0  0
   13.3209  -19.0536   10.6543 H   0  0  0  0  0  0  0  0  0  0  0  0
   15.0571  -19.8094    9.0615 H   0  0  0  0  0  0  0  0  0  0  0  0
   19.0830  -18.0276    9.0350 H   0  0  0  0  0  0  0  0  0  0  0  0
   19.3309  -19.0016   10.5335 H   0  0  0  0  0  0  0  0  0  0  0  0
   21.0503  -19.4536    8.7492 H   0  0  0  0  0  0  0  0  0  0  0  0
   20.0847  -20.9115    9.2310 H   0  0  0  0  0  0  0  0  0  0  0  0
   18.1252  -20.9613    6.2569 H   0  0  0  0  0  0  0  0  0  0  0  0
   18.4669  -21.7392    7.8586 H   0  0  0  0  0  0  0  0  0  0  0  0
   17.1647  -19.0120    7.3867 H   0  0  0  0  0  0  0  0  0  0  0  0
   16.3691  -20.5113    7.9981 H   0  0  0  0  0  0  0  0  0  0  0  0
   18.1163  -18.3396   11.7002 H   0  0  0  0  0  0  0  0  0  0  0  0
   16.3805  -17.5893   13.2997 H   0  0  0  0  0  0  0  0  0  0  0  0
   14.1696  -13.8831   11.0014 H   0  0  0  0  0  0  0  0  0  0  0  0
   15.0648  -11.5937   10.6912 H   0  0  0  0  0  0  0  0  0  0  0  0
   15.8640   -9.6760   13.2120 H   0  0  0  0  0  0  0  0  0  0  0  0
   15.6923   -7.2360   11.4732 H   0  0  0  0  0  0  0  0  0  0  0  0
   16.0419   -7.1435   13.2519 H   0  0  0  0  0  0  0  0  0  0  0  0
  1  2  1  0
  2  3  1  0
  3  4  2  0
  4  5  1  0
  5  6  1  0
  6  7  2  0
  7  8  1  0
  8  9  2  0
  9 10  1  0
 10 11  1  0
 11 12  1  0
 12 13  2  0
 13 14  1  0
 14 15  2  0
 15 16  1  0
 16 17  1  0
 17 18  1  0
 18 19  1  0
 19 20  1  0
 20 21  1  0
 15 22  1  0
 22 23  2  0
 10 24  2  0
  5 25  2  0
 25 26  1  0
 26 27  2  0
 27 28  1  0
 28 29  2  0
 28 30  1  0
 30 31  1  0
 31 32  1  0
 32 33  3  0
 27  3  1  0
 24  6  1  0
 23 12  1  0
 21 16  1  0
  1 34  1  0
  1 35  1  0
  1 36  1  0
  4 37  1  0
  7 38  1  0
  8 39  1  0
 11 40  1  0
 13 41  1  0
 14 42  1  0
 17 43  1  0
 17 44  1  0
 18 45  1  0
 18 46  1  0
 20 47  1  0
 20 48  1  0
 21 49  1  0
 21 50  1  0
 22 51  1  0
 23 52  1  0
 25 53  1  0
 26 54  1  0
 30 55  1  0
 31 56  1  0
 31 57  1  0
M  END
>  <meeko>  (6) 
{"is_sidechain": [false], "free_energy": -7.508, "intermolecular_energy": -10.303, "internal_energy": -0.981}

$$$$
LIB_OGYJYBMWSHOXRO__M_PUB_ALL__e8__s20260927
     RDKit          3D

 57 60  0  0  0  0  0  0  0  0999 V2000
    6.0960  -14.0840    2.0580 C   0  0  0  0  0  0  0  0  0  0  0  0
    7.1250  -14.0190    1.0750 O   0  0  0  0  0  0  0  0  0  0  0  0
    6.9080  -13.2540   -0.0450 C   0  0  0  0  0  0  0  0  0  0  0  0
    5.7000  -13.2710   -0.7660 C   0  0  0  0  0  0  0  0  0  0  0  0
    5.4990  -12.4760   -1.9130 C   0  0  0  0  0  0  0  0  0  0  0  0
    4.2300  -12.4960   -2.6660 C   0  0  0  0  0  0  0  0  0  0  0  0
    3.8750  -11.5050   -3.5570 C   0  0  0  0  0  0  0  0  0  0  0  0
    2.6640  -11.6660   -4.1800 C   0  0  0  0  0  0  0  0  0  0  0  0
    1.8500  -12.7090   -3.9580 N   0  0  0  0  0  0  0  0  0  0  0  0
    2.2590  -13.6370   -3.0840 C   0  0  0  0  0  0  0  0  0  0  0  0
    1.4960  -14.7590   -2.7790 N   0  0  0  0  0  0  0  0  0  0  0  0
    0.9590  -15.2800   -1.5990 C   0  0  0  0  0  0  0  0  0  0  0  0
    1.4530  -16.4970   -1.1140 C   0  0  0  0  0  0  0  0  0  0  0  0
    0.9550  -17.0730    0.0650 C   0  0  0  0  0  0  0  0  0  0  0  0
   -0.0610  -16.4670    0.8110 C   0  0  0  0  0  0  0  0  0  0  0  0
   -0.5340  -17.0520    1.9800 N   0  0  0  0  0  0  0  0  0  0  0  0
    0.4520  -17.6020    2.9310 C   0  0  0  0  0  0  0  0  0  0  0  0
   -0.1770  -17.7690    4.3230 C   0  0  0  0  0  0  0  0  0  0  0  0
   -1.3810  -18.5490    4.2750 O   0  0  0  0  0  0  0  0  0  0  0  0
   -2.3460  -17.9000    3.4330 C   0  0  0  0  0  0  0  0  0  0  0  0
   -1.8330  -17.7480    1.9940 C   0  0  0  0  0  0  0  0  0  0  0  0
   -0.5390  -15.2440    0.3270 C   0  0  0  0  0  0  0  0  0  0  0  0
   -0.0450  -14.6650   -0.8550 C   0  0  0  0  0  0  0  0  0  0  0  0
    3.4330  -13.5620   -2.4330 N   0  0  0  0  0  0  0  0  0  0  0  0
    6.5610  -11.6610   -2.3300 C   0  0  0  0  0  0  0  0  0  0  0  0
    7.7640  -11.6250   -1.6230 C   0  0  0  0  0  0  0  0  0  0  0  0
    7.9540  -12.4120   -0.4760 C   0  0  0  0  0  0  0  0  0  0  0  0
    9.2890  -12.2830    0.1980 C   0  0  0  0  0  0  0  0  0  0  0  0
    9.3710  -12.1960    1.4200 O   0  0  0  0  0  0  0  0  0  0  0  0
   10.4090  -12.2680   -0.5940 N   0  0  0  0  0  0  0  0  0  0  0  0
   11.7330  -12.1460   -0.0220 C   0  0  0  0  0  0  0  0  0  0  0  0
   12.6960  -11.5870   -0.9820 C   0  0  0  0  0  0  0  0  0  0  0  0
   13.4370  -11.1440   -1.7590 N   0  0  0  0  0  0  0  0  0  0  0  0
    6.5454  -14.0556    3.0616 H   0  0  0  0  0  0  0  0  0  0  0  0
    5.4174  -13.2269    1.9357 H   0  0  0  0  0  0  0  0  0  0  0  0
    5.5307  -15.0196    1.9357 H   0  0  0  0  0  0  0  0  0  0  0  0
    4.8854  -13.9261   -0.4236 H   0  0  0  0  0  0  0  0  0  0  0  0
    4.5233  -10.6388   -3.7557 H   0  0  0  0  0  0  0  0  0  0  0  0
    2.3429  -10.8990   -4.9002 H   0  0  0  0  0  0  0  0  0  0  0  0
    1.3180  -15.2740   -3.6280 H   0  0  0  0  0  0  0  0  0  0  0  0
    2.2496  -17.0135   -1.6697 H   0  0  0  0  0  0  0  0  0  0  0  0
    1.3757  -18.0282    0.4122 H   0  0  0  0  0  0  0  0  0  0  0  0
    0.7958  -18.5823    2.5693 H   0  0  0  0  0  0  0  0  0  0  0  0
    1.3005  -16.9060    3.0055 H   0  0  0  0  0  0  0  0  0  0  0  0
    0.5462  -18.2711    4.9824 H   0  0  0  0  0  0  0  0  0  0  0  0
   -0.4328  -16.7694    4.7042 H   0  0  0  0  0  0  0  0  0  0  0  0
   -3.2687  -18.4987    3.4211 H   0  0  0  0  0  0  0  0  0  0  0  0
   -2.5336  -16.8947    3.8382 H   0  0  0  0  0  0  0  0  0  0  0  0
   -1.7143  -18.7450    1.5448 H   0  0  0  0  0  0  0  0  0  0  0  0
   -2.5598  -17.1566    1.4178 H   0  0  0  0  0  0  0  0  0  0  0  0
   -1.3258  -14.7194    0.8889 H   0  0  0  0  0  0  0  0  0  0  0  0
   -0.4601  -13.7063   -1.1994 H   0  0  0  0  0  0  0  0  0  0  0  0
    6.4441  -11.0392   -3.2299 H   0  0  0  0  0  0  0  0  0  0  0  0
    8.5763  -10.9694   -1.9701 H   0  0  0  0  0  0  0  0  0  0  0  0
   10.2950  -12.3430   -1.6010 H   0  0  0  0  0  0  0  0  0  0  0  0
   11.6816  -11.4850    0.8558 H   0  0  0  0  0  0  0  0  0  0  0  0
   12.0769  -13.1524    0.2588 H   0  0  0  0  0  0  0  0  0  0  0  0
  1  2  1  0
  2  3  1  0
  3  4  2  0
  4  5  1  0
  5  6  1  0
  6  7  2  0
  7  8  1  0
  8  9  2  0
  9 10  1  0
 10 11  1  0
 11 12  1  0
 12 13  2  0
 13 14  1  0
 14 15  2  0
 15 16  1  0
 16 17  1  0
 17 18  1  0
 18 19  1  0
 19 20  1  0
 20 21  1  0
 15 22  1  0
 22 23  2  0
 10 24  2  0
  5 25  2  0
 25 26  1  0
 26 27  2  0
 27 28  1  0
 28 29  2  0
 28 30  1  0
 30 31  1  0
 31 32  1  0
 32 33  3  0
 27  3  1  0
 24  6  1  0
 23 12  1  0
 21 16  1  0
  1 34  1  0
  1 35  1  0
  1 36  1  0
  4 37  1  0
  7 38  1  0
  8 39  1  0
 11 40  1  0
 13 41  1  0
 14 42  1  0
 17 43  1  0
 17 44  1  0
 18 45  1  0
 18 46  1  0
 20 47  1  0
 20 48  1  0
 21 49  1  0
 21 50  1  0
 22 51  1  0
 23 52  1  0
 25 53  1  0
 26 54  1  0
 30 55  1  0
 31 56  1  0
 31 57  1  0
M  END
>  <meeko>  (7) 
{"is_sidechain": [false], "free_energy": -7.46, "intermolecular_energy": -10.363, "internal_energy": -0.854}

$$$$
LIB_OGYJYBMWSHOXRO__M_PUB_ALL__e8__s20260927
     RDKit          3D

 57 60  0  0  0  0  0  0  0  0999 V2000
    6.6940  -16.9460   -6.8980 C   0  0  0  0  0  0  0  0  0  0  0  0
    7.3300  -15.6760   -6.7800 O   0  0  0  0  0  0  0  0  0  0  0  0
    6.5490  -14.5490   -6.8440 C   0  0  0  0  0  0  0  0  0  0  0  0
    5.6020  -14.2120   -5.8600 C   0  0  0  0  0  0  0  0  0  0  0  0
    4.8120  -13.0480   -5.9470 C   0  0  0  0  0  0  0  0  0  0  0  0
    3.8190  -12.6970   -4.9120 C   0  0  0  0  0  0  0  0  0  0  0  0
    3.7590  -11.4490   -4.3280 C   0  0  0  0  0  0  0  0  0  0  0  0
    2.7800  -11.2780   -3.3830 C   0  0  0  0  0  0  0  0  0  0  0  0
    1.9210  -12.2440   -3.0230 N   0  0  0  0  0  0  0  0  0  0  0  0
    2.0320  -13.4290   -3.6350 C   0  0  0  0  0  0  0  0  0  0  0  0
    1.1940  -14.4990   -3.3400 N   0  0  0  0  0  0  0  0  0  0  0  0
    0.7250  -15.0710   -2.1550 C   0  0  0  0  0  0  0  0  0  0  0  0
    1.6540  -15.5320   -1.2150 C   0  0  0  0  0  0  0  0  0  0  0  0
    1.2460  -16.1180   -0.0070 C   0  0  0  0  0  0  0  0  0  0  0  0
   -0.1060  -16.2750    0.3180 C   0  0  0  0  0  0  0  0  0  0  0  0
   -0.4870  -16.8510    1.5250 N   0  0  0  0  0  0  0  0  0  0  0  0
    0.5590  -17.4720    2.3610 C   0  0  0  0  0  0  0  0  0  0  0  0
    0.0710  -17.6250    3.8100 C   0  0  0  0  0  0  0  0  0  0  0  0
   -1.1760  -18.3340    3.8810 O   0  0  0  0  0  0  0  0  0  0  0  0
   -2.1840  -17.6180    3.1520 C   0  0  0  0  0  0  0  0  0  0  0  0
   -1.8160  -17.4720    1.6680 C   0  0  0  0  0  0  0  0  0  0  0  0
   -1.0280  -15.7990   -0.6210 C   0  0  0  0  0  0  0  0  0  0  0  0
   -0.6230  -15.2160   -1.8330 C   0  0  0  0  0  0  0  0  0  0  0  0
    2.9580  -13.6830   -4.5760 N   0  0  0  0  0  0  0  0  0  0  0  0
    4.9910  -12.2240   -7.0680 C   0  0  0  0  0  0  0  0  0  0  0  0
    5.9310  -12.5380   -8.0510 C   0  0  0  0  0  0  0  0  0  0  0  0
    6.7220  -13.6950   -7.9530 C   0  0  0  0  0  0  0  0  0  0  0  0
    7.6990  -13.9210   -9.0700 C   0  0  0  0  0  0  0  0  0  0  0  0
    7.5790  -14.8810   -9.8260 O   0  0  0  0  0  0  0  0  0  0  0  0
    8.7240  -13.0220   -9.2190 N   0  0  0  0  0  0  0  0  0  0  0  0
    9.7070  -13.1690  -10.2700 C   0  0  0  0  0  0  0  0  0  0  0  0
   11.0800  -13.0520   -9.7590 C   0  0  0  0  0  0  0  0  0  0  0  0
   12.1550  -12.9540   -9.3290 N   0  0  0  0  0  0  0  0  0  0  0  0
    6.4919  -17.3495   -5.8948 H   0  0  0  0  0  0  0  0  0  0  0  0
    5.7465  -16.8322   -7.4451 H   0  0  0  0  0  0  0  0  0  0  0  0
    7.3527  -17.6365   -7.4451 H   0  0  0  0  0  0  0  0  0  0  0  0
    5.4738  -14.8786   -4.9944 H   0  0  0  0  0  0  0  0  0  0  0  0
    4.4531  -10.6412   -4.6031 H   0  0  0  0  0  0  0  0  0  0  0  0
    2.6943  -10.2964   -2.8939 H   0  0  0  0  0  0  0  0  0  0  0  0
    0.8860  -14.9200   -4.2040 H   0  0  0  0  0  0  0  0  0  0  0  0
    2.7286  -15.4326   -1.4281 H   0  0  0  0  0  0  0  0  0  0  0  0
    2.0104  -16.4637    0.7045 H   0  0  0  0  0  0  0  0  0  0  0  0
    0.8046  -18.4645    1.9552 H   0  0  0  0  0  0  0  0  0  0  0  0
    1.4501  -16.8271    2.3524 H   0  0  0  0  0  0  0  0  0  0  0  0
    0.8285  -18.1786    4.3842 H   0  0  0  0  0  0  0  0  0  0  0  0
   -0.0837  -16.6188    4.2266 H   0  0  0  0  0  0  0  0  0  0  0  0
   -3.1361  -18.1632    3.2312 H   0  0  0  0  0  0  0  0  0  0  0  0
   -2.2695  -16.6103    3.5848 H   0  0  0  0  0  0  0  0  0  0  0  0
   -1.8033  -18.4667    1.1985 H   0  0  0  0  0  0  0  0  0  0  0  0
   -2.5632  -16.8309    1.1773 H   0  0  0  0  0  0  0  0  0  0  0  0
   -2.1029  -15.8840   -0.4032 H   0  0  0  0  0  0  0  0  0  0  0  0
   -1.3865  -14.8663   -2.5434 H   0  0  0  0  0  0  0  0  0  0  0  0
    4.3804  -11.3152   -7.1742 H   0  0  0  0  0  0  0  0  0  0  0  0
    6.0543  -11.8693   -8.9157 H   0  0  0  0  0  0  0  0  0  0  0  0
    8.7850  -12.2410   -8.5710 H   0  0  0  0  0  0  0  0  0  0  0  0
    9.5842  -14.1581  -10.7355 H   0  0  0  0  0  0  0  0  0  0  0  0
    9.5464  -12.3629  -11.0011 H   0  0  0  0  0  0  0  0  0  0  0  0
  1  2  1  0
  2  3  1  0
  3  4  2  0
  4  5  1  0
  5  6  1  0
  6  7  2  0
  7  8  1  0
  8  9  2  0
  9 10  1  0
 10 11  1  0
 11 12  1  0
 12 13  2  0
 13 14  1  0
 14 15  2  0
 15 16  1  0
 16 17  1  0
 17 18  1  0
 18 19  1  0
 19 20  1  0
 20 21  1  0
 15 22  1  0
 22 23  2  0
 10 24  2  0
  5 25  2  0
 25 26  1  0
 26 27  2  0
 27 28  1  0
 28 29  2  0
 28 30  1  0
 30 31  1  0
 31 32  1  0
 32 33  3  0
 27  3  1  0
 24  6  1  0
 23 12  1  0
 21 16  1  0
  1 34  1  0
  1 35  1  0
  1 36  1  0
  4 37  1  0
  7 38  1  0
  8 39  1  0
 11 40  1  0
 13 41  1  0
 14 42  1  0
 17 43  1  0
 17 44  1  0
 18 45  1  0
 18 46  1  0
 20 47  1  0
 20 48  1  0
 21 49  1  0
 21 50  1  0
 22 51  1  0
 23 52  1  0
 25 53  1  0
 26 54  1  0
 30 55  1  0
 31 56  1  0
 31 57  1  0
M  END
>  <meeko>  (8) 
{"is_sidechain": [false], "free_energy": -7.435, "intermolecular_energy": -10.25, "internal_energy": -0.931}

$$$$
LIB_OGYJYBMWSHOXRO__M_PUB_ALL__e8__s20260927
     RDKit          3D

 57 60  0  0  0  0  0  0  0  0999 V2000
   -1.1720  -11.8800    1.6050 C   0  0  0  0  0  0  0  0  0  0  0  0
   -0.9830  -13.2880    1.4990 O   0  0  0  0  0  0  0  0  0  0  0  0
   -0.4380  -13.7860    0.3410 C   0  0  0  0  0  0  0  0  0  0  0  0
    0.6060  -13.1490   -0.3540 C   0  0  0  0  0  0  0  0  0  0  0  0
    1.1500  -13.6800   -1.5420 C   0  0  0  0  0  0  0  0  0  0  0  0
    2.2460  -13.0090   -2.2680 C   0  0  0  0  0  0  0  0  0  0  0  0
    2.5670  -11.6820   -2.0750 C   0  0  0  0  0  0  0  0  0  0  0  0
    3.6110  -11.2040   -2.8250 C   0  0  0  0  0  0  0  0  0  0  0  0
    4.2970  -11.9530   -3.7020 N   0  0  0  0  0  0  0  0  0  0  0  0
    3.9360  -13.2350   -3.8350 C   0  0  0  0  0  0  0  0  0  0  0  0
    4.5770  -14.1000   -4.7140 N   0  0  0  0  0  0  0  0  0  0  0  0
    5.2920  -13.9290   -5.9020 C   0  0  0  0  0  0  0  0  0  0  0  0
    6.3330  -14.8180   -6.1970 C   0  0  0  0  0  0  0  0  0  0  0  0
    7.0880  -14.6980   -7.3730 C   0  0  0  0  0  0  0  0  0  0  0  0
    6.8460  -13.6850   -8.3070 C   0  0  0  0  0  0  0  0  0  0  0  0
    7.6020  -13.5900   -9.4700 N   0  0  0  0  0  0  0  0  0  0  0  0
    9.0720  -13.6510   -9.3500 C   0  0  0  0  0  0  0  0  0  0  0  0
    9.7090  -14.0000  -10.7050 C   0  0  0  0  0  0  0  0  0  0  0  0
    9.2830  -13.1040  -11.7420 O   0  0  0  0  0  0  0  0  0  0  0  0
    7.8580  -13.1810  -11.8950 C   0  0  0  0  0  0  0  0  0  0  0  0
    7.1260  -12.7810  -10.6050 C   0  0  0  0  0  0  0  0  0  0  0  0
    5.7950  -12.8090   -8.0120 C   0  0  0  0  0  0  0  0  0  0  0  0
    5.0380  -12.9240   -6.8330 C   0  0  0  0  0  0  0  0  0  0  0  0
    2.9290  -13.7870   -3.1370 N   0  0  0  0  0  0  0  0  0  0  0  0
    0.6050  -14.8780   -2.0260 C   0  0  0  0  0  0  0  0  0  0  0  0
   -0.4260  -15.5280   -1.3460 C   0  0  0  0  0  0  0  0  0  0  0  0
   -0.9570  -14.9990   -0.1580 C   0  0  0  0  0  0  0  0  0  0  0  0
   -2.0590  -15.7920    0.4810 C   0  0  0  0  0  0  0  0  0  0  0  0
   -3.0150  -16.1880   -0.1810 O   0  0  0  0  0  0  0  0  0  0  0  0
   -1.9630  -16.0600    1.8230 N   0  0  0  0  0  0  0  0  0  0  0  0
   -2.9840  -16.8180    2.5140 C   0  0  0  0  0  0  0  0  0  0  0  0
   -2.4120  -17.9220    3.2980 C   0  0  0  0  0  0  0  0  0  0  0  0
   -1.9350  -18.7880    3.9080 N   0  0  0  0  0  0  0  0  0  0  0  0
   -1.2104  -11.5941    2.6665 H   0  0  0  0  0  0  0  0  0  0  0  0
   -0.3356  -11.3599    1.1152 H   0  0  0  0  0  0  0  0  0  0  0  0
   -2.1159  -11.5988    1.1152 H   0  0  0  0  0  0  0  0  0  0  0  0
    1.0113  -12.2061    0.0419 H   0  0  0  0  0  0  0  0  0  0  0  0
    2.0197  -11.0462   -1.3636 H   0  0  0  0  0  0  0  0  0  0  0  0
    3.9015  -10.1503   -2.7010 H   0  0  0  0  0  0  0  0  0  0  0  0
    4.4750  -15.0450   -4.3750 H   0  0  0  0  0  0  0  0  0  0  0  0
    6.5639  -15.6288   -5.4904 H   0  0  0  0  0  0  0  0  0  0  0  0
    7.8938  -15.4214   -7.5665 H   0  0  0  0  0  0  0  0  0  0  0  0
    9.4486  -12.6736   -9.0140 H   0  0  0  0  0  0  0  0  0  0  0  0
    9.3373  -14.4308   -8.6209 H   0  0  0  0  0  0  0  0  0  0  0  0
   10.8032  -13.9396  -10.6099 H   0  0  0  0  0  0  0  0  0  0  0  0
    9.3909  -15.0164  -10.9801 H   0  0  0  0  0  0  0  0  0  0  0  0
    7.5492  -12.5036  -12.7048 H   0  0  0  0  0  0  0  0  0  0  0  0
    7.5940  -14.2226  -12.1304 H   0  0  0  0  0  0  0  0  0  0  0  0
    7.3152  -11.7177  -10.3962 H   0  0  0  0  0  0  0  0  0  0  0  0
    6.0482  -12.9551  -10.7389 H   0  0  0  0  0  0  0  0  0  0  0  0
    5.5540  -12.0062   -8.7243 H   0  0  0  0  0  0  0  0  0  0  0  0
    4.2278  -12.2051   -6.6414 H   0  0  0  0  0  0  0  0  0  0  0  0
    0.9967  -15.3128   -2.9574 H   0  0  0  0  0  0  0  0  0  0  0  0
   -0.8292  -16.4697   -1.7468 H   0  0  0  0  0  0  0  0  0  0  0  0
   -1.1540  -15.7140    2.3320 H   0  0  0  0  0  0  0  0  0  0  0  0
   -3.5283  -16.1448    3.1926 H   0  0  0  0  0  0  0  0  0  0  0  0
   -3.6572  -17.2498    1.7588 H   0  0  0  0  0  0  0  0  0  0  0  0
  1  2  1  0
  2  3  1  0
  3  4  2  0
  4  5  1  0
  5  6  1  0
  6  7  2  0
  7  8  1  0
  8  9  2  0
  9 10  1  0
 10 11  1  0
 11 12  1  0
 12 13  2  0
 13 14  1  0
 14 15  2  0
 15 16  1  0
 16 17  1  0
 17 18  1  0
 18 19  1  0
 19 20  1  0
 20 21  1  0
 15 22  1  0
 22 23  2  0
 10 24  2  0
  5 25  2  0
 25 26  1  0
 26 27  2  0
 27 28  1  0
 28 29  2  0
 28 30  1  0
 30 31  1  0
 31 32  1  0
 32 33  3  0
 27  3  1  0
 24  6  1  0
 23 12  1  0
 21 16  1  0
  1 34  1  0
  1 35  1  0
  1 36  1  0
  4 37  1  0
  7 38  1  0
  8 39  1  0
 11 40  1  0
 13 41  1  0
 14 42  1  0
 17 43  1  0
 17 44  1  0
 18 45  1  0
 18 46  1  0
 20 47  1  0
 20 48  1  0
 21 49  1  0
 21 50  1  0
 22 51  1  0
 23 52  1  0
 25 53  1  0
 26 54  1  0
 30 55  1  0
 31 56  1  0
 31 57  1  0
M  END
>  <meeko>  (9) 
{"is_sidechain": [false], "free_energy": -7.398, "intermolecular_energy": -10.175, "internal_energy": -0.954}

$$$$
