LIB_RQGLQNLOJSOQJU__M_PUB_ALL__e8__s20260927
     RDKit          3D

 47 51  0  0  0  0  0  0  0  0999 V2000
   14.7960  -21.2470   -4.7420 O   0  0  0  0  0  0  0  0  0  0  0  0
   14.6970  -21.0410   -3.5380 C   0  0  0  0  0  0  0  0  0  0  0  0
   13.9530  -20.0510   -2.9250 N   0  0  0  0  0  0  0  0  0  0  0  0
   13.0440  -19.1610   -3.5330 C   0  0  0  0  0  0  0  0  0  0  0  0
   11.9460  -19.5620   -4.2900 C   0  0  0  0  0  0  0  0  0  0  0  0
   11.0700  -18.6100   -4.8230 C   0  0  0  0  0  0  0  0  0  0  0  0
   11.2880  -17.2460   -4.6080 C   0  0  0  0  0  0  0  0  0  0  0  0
   10.1370  -16.1420   -5.2790 Cl  0  0  0  0  0  0  0  0  0  0  0  0
   12.3960  -16.8170   -3.8620 C   0  0  0  0  0  0  0  0  0  0  0  0
   12.7070  -15.3950   -3.5960 C   0  0  0  0  0  0  0  0  0  0  0  0
   13.5170  -14.7230   -4.4350 C   0  0  0  0  0  0  0  0  0  0  0  0
   13.8000  -13.3110   -4.0730 C   0  0  0  0  0  0  0  0  0  0  0  0
   13.3690  -12.6890   -3.0210 N   0  0  0  0  0  0  0  0  0  0  0  0
   12.5680  -13.4110   -2.1750 C   0  0  0  0  0  0  0  0  0  0  0  0
   11.9630  -13.1090   -0.9770 C   0  0  0  0  0  0  0  0  0  0  0  0
   12.0250  -11.7920   -0.1810 C   0  0  0  0  0  0  0  0  0  0  0  0
   11.1900  -11.3090    0.7940 C   0  0  0  0  0  0  0  0  0  0  0  0
   11.5620  -10.0970    1.2490 N   0  0  0  0  0  0  0  0  0  0  0  0
   12.6780   -9.7550    0.5720 N   0  0  0  0  0  0  0  0  0  0  0  0
   12.9390  -10.7700   -0.2670 C   0  0  0  0  0  0  0  0  0  0  0  0
   11.2700  -14.2650   -0.5970 C   0  0  0  0  0  0  0  0  0  0  0  0
   11.4210  -15.2660   -1.4670 N   0  0  0  0  0  0  0  0  0  0  0  0
   12.2170  -14.7430   -2.4460 N   0  0  0  0  0  0  0  0  0  0  0  0
   13.2630  -17.7920   -3.3290 C   0  0  0  0  0  0  0  0  0  0  0  0
   15.4860  -21.9000   -2.6090 C   0  0  0  0  0  0  0  0  0  0  0  0
   15.1440  -22.0330   -1.2580 C   0  0  0  0  0  0  0  0  0  0  0  0
   15.9030  -22.8550   -0.4240 C   0  0  0  0  0  0  0  0  0  0  0  0
   16.9990  -23.5530   -0.9360 C   0  0  0  0  0  0  0  0  0  0  0  0
   17.3490  -23.4400   -2.2920 C   0  0  0  0  0  0  0  0  0  0  0  0
   18.5100  -24.2210   -2.8550 C   0  0  0  0  0  0  0  0  0  0  0  0
   18.9230  -25.2290   -2.0360 F   0  0  0  0  0  0  0  0  0  0  0  0
   19.6050  -23.4410   -3.0720 F   0  0  0  0  0  0  0  0  0  0  0  0
   18.2290  -24.8100   -4.0510 F   0  0  0  0  0  0  0  0  0  0  0  0
   16.5750  -22.6170   -3.1250 C   0  0  0  0  0  0  0  0  0  0  0  0
   14.0830  -19.9250   -1.9290 H   0  0  0  0  0  0  0  0  0  0  0  0
   11.7665  -20.6323   -4.4698 H   0  0  0  0  0  0  0  0  0  0  0  0
   10.2031  -18.9374   -5.4158 H   0  0  0  0  0  0  0  0  0  0  0  0
   13.9435  -15.1914   -5.3343 H   0  0  0  0  0  0  0  0  0  0  0  0
   14.4363  -12.7383   -4.7638 H   0  0  0  0  0  0  0  0  0  0  0  0
   10.3095  -11.8539    1.1652 H   0  0  0  0  0  0  0  0  0  0  0  0
   13.7980  -10.7821   -0.9540 H   0  0  0  0  0  0  0  0  0  0  0  0
   10.6664  -14.3400    0.3195 H   0  0  0  0  0  0  0  0  0  0  0  0
   14.1333  -17.4703   -2.7381 H   0  0  0  0  0  0  0  0  0  0  0  0
   14.2771  -21.4896   -0.8539 H   0  0  0  0  0  0  0  0  0  0  0  0
   15.6375  -22.9534    0.6389 H   0  0  0  0  0  0  0  0  0  0  0  0
   17.5936  -24.1971   -0.2715 H   0  0  0  0  0  0  0  0  0  0  0  0
   16.8252  -22.5337   -4.1929 H   0  0  0  0  0  0  0  0  0  0  0  0
  1  2  2  0
  2  3  1  0
  3  4  1  0
  4  5  2  0
  5  6  1  0
  6  7  2  0
  7  8  1  0
  7  9  1  0
  9 10  1  0
 10 11  2  0
 11 12  1  0
 12 13  2  0
 13 14  1  0
 14 15  2  0
 15 16  1  0
 16 17  1  0
 17 18  2  0
 18 19  1  0
 19 20  1  0
 15 21  1  0
 21 22  2  0
 22 23  1  0
  9 24  2  0
  2 25  1  0
 25 26  2  0
 26 27  1  0
 27 28  2  0
 28 29  1  0
 29 30  1  0
 30 31  1  0
 30 32  1  0
 30 33  1  0
 29 34  2  0
 24  4  1  0
 34 25  1  0
 23 10  1  0
 23 14  1  0
 20 16  2  0
  3 35  1  0
  5 36  1  0
  6 37  1  0
 11 38  1  0
 12 39  1  0
 17 40  1  0
 20 41  1  0
 21 42  1  0
 24 43  1  0
 26 44  1  0
 27 45  1  0
 28 46  1  0
 34 47  1  0
M  CHG  1  19  -1
M  END
>  <meeko>  (1) 
{"is_sidechain": [false], "free_energy": -8.859, "intermolecular_energy": -11.449, "internal_energy": -0.982}

$$$$
LIB_RQGLQNLOJSOQJU__M_PUB_ALL__e8__s20260927
     RDKit          3D

 47 51  0  0  0  0  0  0  0  0999 V2000
    6.8050  -13.0100   -5.0750 O   0  0  0  0  0  0  0  0  0  0  0  0
    5.9860  -13.3610   -5.9160 C   0  0  0  0  0  0  0  0  0  0  0  0
    4.6170  -13.1790   -5.8670 N   0  0  0  0  0  0  0  0  0  0  0  0
    3.8850  -12.4350   -4.9190 C   0  0  0  0  0  0  0  0  0  0  0  0
    3.3560  -11.1690   -5.1590 C   0  0  0  0  0  0  0  0  0  0  0  0
    2.6060  -10.5190   -4.1740 C   0  0  0  0  0  0  0  0  0  0  0  0
    2.3800  -11.1280   -2.9370 C   0  0  0  0  0  0  0  0  0  0  0  0
    1.4150  -10.2640   -1.7900 Cl  0  0  0  0  0  0  0  0  0  0  0  0
    2.9160  -12.3960   -2.6650 C   0  0  0  0  0  0  0  0  0  0  0  0
    2.7360  -13.1060   -1.3800 C   0  0  0  0  0  0  0  0  0  0  0  0
    3.6220  -12.9160   -0.3850 C   0  0  0  0  0  0  0  0  0  0  0  0
    3.3810  -13.6940    0.8570 C   0  0  0  0  0  0  0  0  0  0  0  0
    2.4280  -14.5500    1.0520 N   0  0  0  0  0  0  0  0  0  0  0  0
    1.5590  -14.7370    0.0100 C   0  0  0  0  0  0  0  0  0  0  0  0
    0.4710  -15.5620   -0.1630 C   0  0  0  0  0  0  0  0  0  0  0  0
   -0.1150  -16.5880    0.8250 C   0  0  0  0  0  0  0  0  0  0  0  0
    0.4940  -17.2950    1.8290 C   0  0  0  0  0  0  0  0  0  0  0  0
   -0.3510  -18.1210    2.4760 N   0  0  0  0  0  0  0  0  0  0  0  0
   -1.5620  -17.9640    1.9000 N   0  0  0  0  0  0  0  0  0  0  0  0
   -1.4040  -17.0500    0.9290 C   0  0  0  0  0  0  0  0  0  0  0  0
   -0.0100  -15.2950   -1.4500 C   0  0  0  0  0  0  0  0  0  0  0  0
    0.7160  -14.3780   -2.0930 N   0  0  0  0  0  0  0  0  0  0  0  0
    1.6840  -14.0260   -1.1950 N   0  0  0  0  0  0  0  0  0  0  0  0
    3.6640  -13.0360   -3.6730 C   0  0  0  0  0  0  0  0  0  0  0  0
    6.4770  -14.1080   -7.1100 C   0  0  0  0  0  0  0  0  0  0  0  0
    6.9520  -15.4220   -7.0140 C   0  0  0  0  0  0  0  0  0  0  0  0
    7.3950  -16.0890   -8.1570 C   0  0  0  0  0  0  0  0  0  0  0  0
    7.3570  -15.4520   -9.4000 C   0  0  0  0  0  0  0  0  0  0  0  0
    6.8730  -14.1390   -9.5160 C   0  0  0  0  0  0  0  0  0  0  0  0
    6.7970  -13.4620  -10.8620 C   0  0  0  0  0  0  0  0  0  0  0  0
    5.6580  -13.7620  -11.5470 F   0  0  0  0  0  0  0  0  0  0  0  0
    7.8300  -13.8110  -11.6780 F   0  0  0  0  0  0  0  0  0  0  0  0
    6.8300  -12.1030  -10.7800 F   0  0  0  0  0  0  0  0  0  0  0  0
    6.4230  -13.4790   -8.3610 C   0  0  0  0  0  0  0  0  0  0  0  0
    4.0630  -13.6480   -6.5720 H   0  0  0  0  0  0  0  0  0  0  0  0
    3.5291  -10.6782   -6.1281 H   0  0  0  0  0  0  0  0  0  0  0  0
    2.1907   -9.5204   -4.3746 H   0  0  0  0  0  0  0  0  0  0  0  0
    4.4730  -12.2263   -0.4855 H   0  0  0  0  0  0  0  0  0  0  0  0
    4.0784  -13.5276    1.6913 H   0  0  0  0  0  0  0  0  0  0  0  0
    1.5606  -17.1981    2.0801 H   0  0  0  0  0  0  0  0  0  0  0  0
   -2.2245  -16.7060    0.2821 H   0  0  0  0  0  0  0  0  0  0  0  0
   -0.8919  -15.7881   -1.8849 H   0  0  0  0  0  0  0  0  0  0  0  0
    4.0852  -14.0330   -3.4766 H   0  0  0  0  0  0  0  0  0  0  0  0
    6.9759  -15.9283   -6.0377 H   0  0  0  0  0  0  0  0  0  0  0  0
    7.7749  -17.1184   -8.0792 H   0  0  0  0  0  0  0  0  0  0  0  0
    7.7095  -15.9840  -10.2960 H   0  0  0  0  0  0  0  0  0  0  0  0
    6.0237  -12.4570   -8.4392 H   0  0  0  0  0  0  0  0  0  0  0  0
  1  2  2  0
  2  3  1  0
  3  4  1  0
  4  5  2  0
  5  6  1  0
  6  7  2  0
  7  8  1  0
  7  9  1  0
  9 10  1  0
 10 11  2  0
 11 12  1  0
 12 13  2  0
 13 14  1  0
 14 15  2  0
 15 16  1  0
 16 17  1  0
 17 18  2  0
 18 19  1  0
 19 20  1  0
 15 21  1  0
 21 22  2  0
 22 23  1  0
  9 24  2  0
  2 25  1  0
 25 26  2  0
 26 27  1  0
 27 28  2  0
 28 29  1  0
 29 30  1  0
 30 31  1  0
 30 32  1  0
 30 33  1  0
 29 34  2  0
 24  4  1  0
 34 25  1  0
 23 10  1  0
 23 14  1  0
 20 16  2  0
  3 35  1  0
  5 36  1  0
  6 37  1  0
 11 38  1  0
 12 39  1  0
 17 40  1  0
 20 41  1  0
 21 42  1  0
 24 43  1  0
 26 44  1  0
 27 45  1  0
 28 46  1  0
 34 47  1  0
M  CHG  1  19  -1
M  END
>  <meeko>  (2) 
{"is_sidechain": [false], "free_energy": -8.788, "intermolecular_energy": -11.254, "internal_energy": -1.084}

$$$$
LIB_RQGLQNLOJSOQJU__M_PUB_ALL__e8__s20260927
     RDKit          3D

 47 51  0  0  0  0  0  0  0  0999 V2000
    6.7660  -13.6630   -4.8410 O   0  0  0  0  0  0  0  0  0  0  0  0
    6.0120  -13.7550   -5.8040 C   0  0  0  0  0  0  0  0  0  0  0  0
    4.6810  -13.3900   -5.8520 N   0  0  0  0  0  0  0  0  0  0  0  0
    3.9420  -12.7100   -4.8620 C   0  0  0  0  0  0  0  0  0  0  0  0
    3.8020  -11.3250   -4.8050 C   0  0  0  0  0  0  0  0  0  0  0  0
    3.0150  -10.7350   -3.8110 C   0  0  0  0  0  0  0  0  0  0  0  0
    2.3640  -11.5250   -2.8600 C   0  0  0  0  0  0  0  0  0  0  0  0
    1.3870  -10.7120   -1.6860 Cl  0  0  0  0  0  0  0  0  0  0  0  0
    2.5020  -12.9220   -2.8860 C   0  0  0  0  0  0  0  0  0  0  0  0
    1.8570  -13.8300   -1.9130 C   0  0  0  0  0  0  0  0  0  0  0  0
    0.7830  -14.5500   -2.2860 C   0  0  0  0  0  0  0  0  0  0  0  0
    0.1820  -15.4100   -1.2360 C   0  0  0  0  0  0  0  0  0  0  0  0
    0.5740  -15.5030   -0.0040 N   0  0  0  0  0  0  0  0  0  0  0  0
    1.6550  -14.7390    0.3470 C   0  0  0  0  0  0  0  0  0  0  0  0
    2.3210  -14.5540    1.5370 C   0  0  0  0  0  0  0  0  0  0  0  0
    2.0190  -15.1840    2.9090 C   0  0  0  0  0  0  0  0  0  0  0  0
    1.8900  -16.5020    3.2660 C   0  0  0  0  0  0  0  0  0  0  0  0
    1.6030  -16.6650    4.5720 N   0  0  0  0  0  0  0  0  0  0  0  0
    1.5440  -15.4300    5.1130 N   0  0  0  0  0  0  0  0  0  0  0  0
    1.7970  -14.5670    4.1150 C   0  0  0  0  0  0  0  0  0  0  0  0
    3.3500  -13.6450    1.2600 C   0  0  0  0  0  0  0  0  0  0  0  0
    3.3530  -13.2400   -0.0110 N   0  0  0  0  0  0  0  0  0  0  0  0
    2.3120  -13.9150   -0.5810 N   0  0  0  0  0  0  0  0  0  0  0  0
    3.2950  -13.4960   -3.9000 C   0  0  0  0  0  0  0  0  0  0  0  0
    6.5420  -14.3650   -7.0570 C   0  0  0  0  0  0  0  0  0  0  0  0
    7.0860  -15.6550   -7.0780 C   0  0  0  0  0  0  0  0  0  0  0  0
    7.5630  -16.1920   -8.2740 C   0  0  0  0  0  0  0  0  0  0  0  0
    7.4910  -15.4490   -9.4550 C   0  0  0  0  0  0  0  0  0  0  0  0
    6.9380  -14.1580   -9.4540 C   0  0  0  0  0  0  0  0  0  0  0  0
    6.8270  -13.3680  -10.7340 C   0  0  0  0  0  0  0  0  0  0  0  0
    5.6850  -13.6350  -11.4290 F   0  0  0  0  0  0  0  0  0  0  0  0
    7.8550  -13.6180  -11.5910 F   0  0  0  0  0  0  0  0  0  0  0  0
    6.8280  -12.0200  -10.5340 F   0  0  0  0  0  0  0  0  0  0  0  0
    6.4540  -13.6290   -8.2470 C   0  0  0  0  0  0  0  0  0  0  0  0
    4.1580  -13.6570   -6.6770 H   0  0  0  0  0  0  0  0  0  0  0  0
    4.3131  -10.6924   -5.5456 H   0  0  0  0  0  0  0  0  0  0  0  0
    2.9076   -9.6408   -3.7775 H   0  0  0  0  0  0  0  0  0  0  0  0
    0.3754  -14.5040   -3.3067 H   0  0  0  0  0  0  0  0  0  0  0  0
   -0.6787  -16.0277   -1.5318 H   0  0  0  0  0  0  0  0  0  0  0  0
    2.0084  -17.3376    2.5605 H   0  0  0  0  0  0  0  0  0  0  0  0
    1.8236  -13.4757    4.2506 H   0  0  0  0  0  0  0  0  0  0  0  0
    4.0777  -13.3019    2.0102 H   0  0  0  0  0  0  0  0  0  0  0  0
    3.4087  -14.5895   -3.9368 H   0  0  0  0  0  0  0  0  0  0  0  0
    7.1373  -16.2452   -6.1512 H   0  0  0  0  0  0  0  0  0  0  0  0
    7.9968  -17.2028   -8.2872 H   0  0  0  0  0  0  0  0  0  0  0  0
    7.8707  -15.8788  -10.3937 H   0  0  0  0  0  0  0  0  0  0  0  0
    6.0010  -12.6267   -8.2348 H   0  0  0  0  0  0  0  0  0  0  0  0
  1  2  2  0
  2  3  1  0
  3  4  1  0
  4  5  2  0
  5  6  1  0
  6  7  2  0
  7  8  1  0
  7  9  1  0
  9 10  1  0
 10 11  2  0
 11 12  1  0
 12 13  2  0
 13 14  1  0
 14 15  2  0
 15 16  1  0
 16 17  1  0
 17 18  2  0
 18 19  1  0
 19 20  1  0
 15 21  1  0
 21 22  2  0
 22 23  1  0
  9 24  2  0
  2 25  1  0
 25 26  2  0
 26 27  1  0
 27 28  2  0
 28 29  1  0
 29 30  1  0
 30 31  1  0
 30 32  1  0
 30 33  1  0
 29 34  2  0
 24  4  1  0
 34 25  1  0
 23 10  1  0
 23 14  1  0
 20 16  2  0
  3 35  1  0
  5 36  1  0
  6 37  1  0
 11 38  1  0
 12 39  1  0
 17 40  1  0
 20 41  1  0
 21 42  1  0
 24 43  1  0
 26 44  1  0
 27 45  1  0
 28 46  1  0
 34 47  1  0
M  CHG  1  19  -1
M  END
>  <meeko>  (3) 
{"is_sidechain": [false], "free_energy": -8.771, "intermolecular_energy": -11.153, "internal_energy": -1.164}

$$$$
LIB_RQGLQNLOJSOQJU__M_PUB_ALL__e8__s20260927
     RDKit          3D

 47 51  0  0  0  0  0  0  0  0999 V2000
    8.9800  -12.5830    0.6720 O   0  0  0  0  0  0  0  0  0  0  0  0
    9.5860  -12.7750   -0.3760 C   0  0  0  0  0  0  0  0  0  0  0  0
    9.1830  -13.5670   -1.4340 N   0  0  0  0  0  0  0  0  0  0  0  0
    7.9380  -14.2080   -1.5990 C   0  0  0  0  0  0  0  0  0  0  0  0
    7.7650  -15.5900   -1.5930 C   0  0  0  0  0  0  0  0  0  0  0  0
    6.4860  -16.1420   -1.7210 C   0  0  0  0  0  0  0  0  0  0  0  0
    5.3670  -15.3160   -1.8600 C   0  0  0  0  0  0  0  0  0  0  0  0
    3.8220  -16.0840   -1.9810 Cl  0  0  0  0  0  0  0  0  0  0  0  0
    5.5180  -13.9210   -1.8850 C   0  0  0  0  0  0  0  0  0  0  0  0
    4.3910  -12.9750   -2.0390 C   0  0  0  0  0  0  0  0  0  0  0  0
    4.2270  -12.3220   -3.2050 C   0  0  0  0  0  0  0  0  0  0  0  0
    3.0890  -11.3690   -3.2600 C   0  0  0  0  0  0  0  0  0  0  0  0
    2.2750  -11.0910   -2.2910 N   0  0  0  0  0  0  0  0  0  0  0  0
    2.4860  -11.7560   -1.1120 C   0  0  0  0  0  0  0  0  0  0  0  0
    1.8630  -11.7050    0.1140 C   0  0  0  0  0  0  0  0  0  0  0  0
    0.6800  -10.8200    0.5480 C   0  0  0  0  0  0  0  0  0  0  0  0
    0.6610   -9.5160    0.9710 C   0  0  0  0  0  0  0  0  0  0  0  0
   -0.5760   -9.0840    1.2850 N   0  0  0  0  0  0  0  0  0  0  0  0
   -1.4140  -10.1180    1.0620 N   0  0  0  0  0  0  0  0  0  0  0  0
   -0.6550  -11.1350    0.6230 C   0  0  0  0  0  0  0  0  0  0  0  0
    2.5380  -12.6270    0.9230 C   0  0  0  0  0  0  0  0  0  0  0  0
    3.5460  -13.2300    0.2900 N   0  0  0  0  0  0  0  0  0  0  0  0
    3.5160  -12.6990   -0.9690 N   0  0  0  0  0  0  0  0  0  0  0  0
    6.8140  -13.3850   -1.7490 C   0  0  0  0  0  0  0  0  0  0  0  0
   10.9250  -12.1400   -0.5420 C   0  0  0  0  0  0  0  0  0  0  0  0
   11.4580  -11.2800    0.4260 C   0  0  0  0  0  0  0  0  0  0  0  0
   12.7190  -10.7130    0.2370 C   0  0  0  0  0  0  0  0  0  0  0  0
   13.4560  -11.0080   -0.9120 C   0  0  0  0  0  0  0  0  0  0  0  0
   12.9410  -11.8780   -1.8880 C   0  0  0  0  0  0  0  0  0  0  0  0
   13.7500  -12.2270   -3.1120 C   0  0  0  0  0  0  0  0  0  0  0  0
   13.9590  -13.5660   -3.2500 F   0  0  0  0  0  0  0  0  0  0  0  0
   14.9850  -11.6530   -3.1000 F   0  0  0  0  0  0  0  0  0  0  0  0
   13.1630  -11.8250   -4.2740 F   0  0  0  0  0  0  0  0  0  0  0  0
   11.6750  -12.4490   -1.6850 C   0  0  0  0  0  0  0  0  0  0  0  0
    9.8570  -13.7330   -2.1700 H   0  0  0  0  0  0  0  0  0  0  0  0
    8.6382  -16.2505   -1.4871 H   0  0  0  0  0  0  0  0  0  0  0  0
    6.3599  -17.2347   -1.7122 H   0  0  0  0  0  0  0  0  0  0  0  0
    4.8947  -12.4843   -4.0640 H   0  0  0  0  0  0  0  0  0  0  0  0
    2.9212  -10.8494   -4.2149 H   0  0  0  0  0  0  0  0  0  0  0  0
    1.5612   -8.8883    1.0461 H   0  0  0  0  0  0  0  0  0  0  0  0
   -1.0611  -12.1205    0.3510 H   0  0  0  0  0  0  0  0  0  0  0  0
    2.2663  -12.8324    1.9689 H   0  0  0  0  0  0  0  0  0  0  0  0
    6.9467  -12.2931   -1.7609 H   0  0  0  0  0  0  0  0  0  0  0  0
   10.8828  -11.0514    1.3353 H   0  0  0  0  0  0  0  0  0  0  0  0
   13.1335  -10.0320    0.9949 H   0  0  0  0  0  0  0  0  0  0  0  0
   14.4484  -10.5553   -1.0543 H   0  0  0  0  0  0  0  0  0  0  0  0
   11.2670  -13.1467   -2.4312 H   0  0  0  0  0  0  0  0  0  0  0  0
  1  2  2  0
  2  3  1  0
  3  4  1  0
  4  5  2  0
  5  6  1  0
  6  7  2  0
  7  8  1  0
  7  9  1  0
  9 10  1  0
 10 11  2  0
 11 12  1  0
 12 13  2  0
 13 14  1  0
 14 15  2  0
 15 16  1  0
 16 17  1  0
 17 18  2  0
 18 19  1  0
 19 20  1  0
 15 21  1  0
 21 22  2  0
 22 23  1  0
  9 24  2  0
  2 25  1  0
 25 26  2  0
 26 27  1  0
 27 28  2  0
 28 29  1  0
 29 30  1  0
 30 31  1  0
 30 32  1  0
 30 33  1  0
 29 34  2  0
 24  4  1  0
 34 25  1  0
 23 10  1  0
 23 14  1  0
 20 16  2  0
  3 35  1  0
  5 36  1  0
  6 37  1  0
 11 38  1  0
 12 39  1  0
 17 40  1  0
 20 41  1  0
 21 42  1  0
 24 43  1  0
 26 44  1  0
 27 45  1  0
 28 46  1  0
 34 47  1  0
M  CHG  1  19  -1
M  END
>  <meeko>  (4) 
{"is_sidechain": [false], "free_energy": -8.673, "intermolecular_energy": -11.026, "internal_energy": -1.164}

$$$$
LIB_RQGLQNLOJSOQJU__M_PUB_ALL__e8__s20260927
     RDKit          3D

 47 51  0  0  0  0  0  0  0  0999 V2000
    5.7700  -13.8040    0.5820 O   0  0  0  0  0  0  0  0  0  0  0  0
    5.7250  -12.8220   -0.1500 C   0  0  0  0  0  0  0  0  0  0  0  0
    6.7830  -12.0170   -0.5240 N   0  0  0  0  0  0  0  0  0  0  0  0
    8.1530  -12.2270   -0.2640 C   0  0  0  0  0  0  0  0  0  0  0  0
    8.8720  -11.5580    0.7240 C   0  0  0  0  0  0  0  0  0  0  0  0
   10.2200  -11.8590    0.9430 C   0  0  0  0  0  0  0  0  0  0  0  0
   10.8640  -12.8310    0.1710 C   0  0  0  0  0  0  0  0  0  0  0  0
   12.5240  -13.1600    0.5320 Cl  0  0  0  0  0  0  0  0  0  0  0  0
   10.1660  -13.5070   -0.8400 C   0  0  0  0  0  0  0  0  0  0  0  0
   10.7720  -14.5390   -1.7090 C   0  0  0  0  0  0  0  0  0  0  0  0
   10.6580  -15.8390   -1.3770 C   0  0  0  0  0  0  0  0  0  0  0  0
   11.3250  -16.8020   -2.2890 C   0  0  0  0  0  0  0  0  0  0  0  0
   12.0220  -16.5060   -3.3410 N   0  0  0  0  0  0  0  0  0  0  0  0
   12.1370  -15.1730   -3.6360 C   0  0  0  0  0  0  0  0  0  0  0  0
   12.8050  -14.4900   -4.6260 C   0  0  0  0  0  0  0  0  0  0  0  0
   13.6800  -15.0610   -5.7570 C   0  0  0  0  0  0  0  0  0  0  0  0
   15.0110  -14.8700   -6.0250 C   0  0  0  0  0  0  0  0  0  0  0  0
   15.4240  -15.5300   -7.1250 N   0  0  0  0  0  0  0  0  0  0  0  0
   14.3490  -16.1870   -7.6080 N   0  0  0  0  0  0  0  0  0  0  0  0
   13.3280  -15.9020   -6.7840 C   0  0  0  0  0  0  0  0  0  0  0  0
   12.5410  -13.1340   -4.3980 C   0  0  0  0  0  0  0  0  0  0  0  0
   11.7750  -12.9300   -3.3240 N   0  0  0  0  0  0  0  0  0  0  0  0
   11.5190  -14.1860   -2.8520 N   0  0  0  0  0  0  0  0  0  0  0  0
    8.8070  -13.1930   -1.0410 C   0  0  0  0  0  0  0  0  0  0  0  0
    4.3950  -12.3940   -0.6720 C   0  0  0  0  0  0  0  0  0  0  0  0
    3.2450  -12.4250    0.1260 C   0  0  0  0  0  0  0  0  0  0  0  0
    2.0210  -12.0070   -0.3990 C   0  0  0  0  0  0  0  0  0  0  0  0
    1.9420  -11.5480   -1.7150 C   0  0  0  0  0  0  0  0  0  0  0  0
    3.0880  -11.4990   -2.5250 C   0  0  0  0  0  0  0  0  0  0  0  0
    3.0120  -10.9700   -3.9360 C   0  0  0  0  0  0  0  0  0  0  0  0
    2.5500   -9.6890   -4.0010 F   0  0  0  0  0  0  0  0  0  0  0  0
    2.1830  -11.7080   -4.7240 F   0  0  0  0  0  0  0  0  0  0  0  0
    4.2180  -10.9580   -4.5690 F   0  0  0  0  0  0  0  0  0  0  0  0
    4.3160  -11.9150   -1.9870 C   0  0  0  0  0  0  0  0  0  0  0  0
    6.5620  -11.1630   -1.0210 H   0  0  0  0  0  0  0  0  0  0  0  0
    8.3768  -10.7890    1.3351 H   0  0  0  0  0  0  0  0  0  0  0  0
   10.7777  -11.3274    1.7281 H   0  0  0  0  0  0  0  0  0  0  0  0
   10.1046  -16.1673   -0.4848 H   0  0  0  0  0  0  0  0  0  0  0  0
   11.2173  -17.8700   -2.0487 H   0  0  0  0  0  0  0  0  0  0  0  0
   15.6719  -14.2441   -5.4074 H   0  0  0  0  0  0  0  0  0  0  0  0
   12.3120  -16.3018   -6.9180 H   0  0  0  0  0  0  0  0  0  0  0  0
   12.9238  -12.3235   -5.0357 H   0  0  0  0  0  0  0  0  0  0  0  0
    8.2455  -13.7190   -1.8272 H   0  0  0  0  0  0  0  0  0  0  0  0
    3.3060  -12.7785    1.1659 H   0  0  0  0  0  0  0  0  0  0  0  0
    1.1163  -12.0394    0.2259 H   0  0  0  0  0  0  0  0  0  0  0  0
    0.9732  -11.2217   -2.1212 H   0  0  0  0  0  0  0  0  0  0  0  0
    5.2255  -11.8646   -2.6036 H   0  0  0  0  0  0  0  0  0  0  0  0
  1  2  2  0
  2  3  1  0
  3  4  1  0
  4  5  2  0
  5  6  1  0
  6  7  2  0
  7  8  1  0
  7  9  1  0
  9 10  1  0
 10 11  2  0
 11 12  1  0
 12 13  2  0
 13 14  1  0
 14 15  2  0
 15 16  1  0
 16 17  1  0
 17 18  2  0
 18 19  1  0
 19 20  1  0
 15 21  1  0
 21 22  2  0
 22 23  1  0
  9 24  2  0
  2 25  1  0
 25 26  2  0
 26 27  1  0
 27 28  2  0
 28 29  1  0
 29 30  1  0
 30 31  1  0
 30 32  1  0
 30 33  1  0
 29 34  2  0
 24  4  1  0
 34 25  1  0
 23 10  1  0
 23 14  1  0
 20 16  2  0
  3 35  1  0
  5 36  1  0
  6 37  1  0
 11 38  1  0
 12 39  1  0
 17 40  1  0
 20 41  1  0
 21 42  1  0
 24 43  1  0
 26 44  1  0
 27 45  1  0
 28 46  1  0
 34 47  1  0
M  CHG  1  19  -1
M  END
>  <meeko>  (5) 
{"is_sidechain": [false], "free_energy": -8.619, "intermolecular_energy": -10.899, "internal_energy": -1.222}

$$$$
LIB_RQGLQNLOJSOQJU__M_PUB_ALL__e8__s20260927
     RDKit          3D

 47 51  0  0  0  0  0  0  0  0999 V2000
    7.7450  -11.1310   -2.8500 O   0  0  0  0  0  0  0  0  0  0  0  0
    8.1590  -12.2740   -3.0010 C   0  0  0  0  0  0  0  0  0  0  0  0
    7.4050  -13.4010   -3.2670 N   0  0  0  0  0  0  0  0  0  0  0  0
    6.0270  -13.4600   -3.5580 C   0  0  0  0  0  0  0  0  0  0  0  0
    5.5070  -13.6500   -4.8370 C   0  0  0  0  0  0  0  0  0  0  0  0
    4.1240  -13.7390   -5.0300 C   0  0  0  0  0  0  0  0  0  0  0  0
    3.2480  -13.6340   -3.9460 C   0  0  0  0  0  0  0  0  0  0  0  0
    1.5560  -13.7860   -4.2740 Cl  0  0  0  0  0  0  0  0  0  0  0  0
    3.7470  -13.4270   -2.6510 C   0  0  0  0  0  0  0  0  0  0  0  0
    2.8920  -13.2930   -1.4520 C   0  0  0  0  0  0  0  0  0  0  0  0
    2.8350  -14.3010   -0.5610 C   0  0  0  0  0  0  0  0  0  0  0  0
    1.9260  -14.0930    0.5960 C   0  0  0  0  0  0  0  0  0  0  0  0
    1.1720  -13.0600    0.8020 N   0  0  0  0  0  0  0  0  0  0  0  0
    1.2370  -12.0640   -0.1370 C   0  0  0  0  0  0  0  0  0  0  0  0
    0.5800  -10.8630   -0.2720 C   0  0  0  0  0  0  0  0  0  0  0  0
   -0.4950  -10.2540    0.6470 C   0  0  0  0  0  0  0  0  0  0  0  0
   -1.7990  -10.6260    0.8470 C   0  0  0  0  0  0  0  0  0  0  0  0
   -2.4420   -9.8330    1.7250 N   0  0  0  0  0  0  0  0  0  0  0  0
   -1.5500   -8.9060    2.1340 N   0  0  0  0  0  0  0  0  0  0  0  0
   -0.4030   -9.1730    1.4890 C   0  0  0  0  0  0  0  0  0  0  0  0
    1.0800  -10.2850   -1.4460 C   0  0  0  0  0  0  0  0  0  0  0  0
    1.9830  -11.0550   -2.0560 N   0  0  0  0  0  0  0  0  0  0  0  0
    2.0880  -12.1530   -1.2510 N   0  0  0  0  0  0  0  0  0  0  0  0
    5.1430  -13.3460   -2.4770 C   0  0  0  0  0  0  0  0  0  0  0  0
    9.6220  -12.5210   -2.8420 C   0  0  0  0  0  0  0  0  0  0  0  0
   10.4160  -12.9610   -3.9080 C   0  0  0  0  0  0  0  0  0  0  0  0
   11.7820  -13.1710   -3.7190 C   0  0  0  0  0  0  0  0  0  0  0  0
   12.3630  -12.9340   -2.4710 C   0  0  0  0  0  0  0  0  0  0  0  0
   11.5830  -12.4810   -1.3940 C   0  0  0  0  0  0  0  0  0  0  0  0
   12.2150  -12.1900   -0.0560 C   0  0  0  0  0  0  0  0  0  0  0  0
   13.3460  -11.4370   -0.1520 F   0  0  0  0  0  0  0  0  0  0  0  0
   12.5730  -13.3240    0.6080 F   0  0  0  0  0  0  0  0  0  0  0  0
   11.3900  -11.5090    0.7880 F   0  0  0  0  0  0  0  0  0  0  0  0
   10.2100  -12.2660   -1.5960 C   0  0  0  0  0  0  0  0  0  0  0  0
    7.8790  -14.2950   -3.2280 H   0  0  0  0  0  0  0  0  0  0  0  0
    6.1866  -13.7303   -5.6982 H   0  0  0  0  0  0  0  0  0  0  0  0
    3.7231  -13.8928   -6.0427 H   0  0  0  0  0  0  0  0  0  0  0  0
    3.4249  -15.2215   -0.6821 H   0  0  0  0  0  0  0  0  0  0  0  0
    1.8899  -14.8931    1.3500 H   0  0  0  0  0  0  0  0  0  0  0  0
   -2.2707  -11.4825    0.3431 H   0  0  0  0  0  0  0  0  0  0  0  0
    0.5173   -8.5853    1.6216 H   0  0  0  0  0  0  0  0  0  0  0  0
    0.7624   -9.3021   -1.8243 H   0  0  0  0  0  0  0  0  0  0  0  0
    5.5490  -13.1893   -1.4668 H   0  0  0  0  0  0  0  0  0  0  0  0
    9.9628  -13.1410   -4.8940 H   0  0  0  0  0  0  0  0  0  0  0  0
   12.4034  -13.5242   -4.5551 H   0  0  0  0  0  0  0  0  0  0  0  0
   13.4407  -13.1036   -2.3303 H   0  0  0  0  0  0  0  0  0  0  0  0
    9.5897  -11.8935   -0.7674 H   0  0  0  0  0  0  0  0  0  0  0  0
  1  2  2  0
  2  3  1  0
  3  4  1  0
  4  5  2  0
  5  6  1  0
  6  7  2  0
  7  8  1  0
  7  9  1  0
  9 10  1  0
 10 11  2  0
 11 12  1  0
 12 13  2  0
 13 14  1  0
 14 15  2  0
 15 16  1  0
 16 17  1  0
 17 18  2  0
 18 19  1  0
 19 20  1  0
 15 21  1  0
 21 22  2  0
 22 23  1  0
  9 24  2  0
  2 25  1  0
 25 26  2  0
 26 27  1  0
 27 28  2  0
 28 29  1  0
 29 30  1  0
 30 31  1  0
 30 32  1  0
 30 33  1  0
 29 34  2  0
 24  4  1  0
 34 25  1  0
 23 10  1  0
 23 14  1  0
 20 16  2  0
  3 35  1  0
  5 36  1  0
  6 37  1  0
 11 38  1  0
 12 39  1  0
 17 40  1  0
 20 41  1  0
 21 42  1  0
 24 43  1  0
 26 44  1  0
 27 45  1  0
 28 46  1  0
 34 47  1  0
M  CHG  1  19  -1
M  END
>  <meeko>  (6) 
{"is_sidechain": [false], "free_energy": -8.611, "intermolecular_energy": -11.02, "internal_energy": -1.091}

$$$$
LIB_RQGLQNLOJSOQJU__M_PUB_ALL__e8__s20260927
     RDKit          3D

 47 51  0  0  0  0  0  0  0  0999 V2000
    3.1920  -12.0950   -0.7270 O   0  0  0  0  0  0  0  0  0  0  0  0
    2.5350  -11.5900   -1.6300 C   0  0  0  0  0  0  0  0  0  0  0  0
    1.2950  -10.9930   -1.5200 N   0  0  0  0  0  0  0  0  0  0  0  0
    0.5820  -10.7090   -0.3370 C   0  0  0  0  0  0  0  0  0  0  0  0
    0.6040   -9.4770    0.3120 C   0  0  0  0  0  0  0  0  0  0  0  0
   -0.1670   -9.2690    1.4600 C   0  0  0  0  0  0  0  0  0  0  0  0
   -0.9650  -10.2950    1.9730 C   0  0  0  0  0  0  0  0  0  0  0  0
   -1.9100   -9.9400    3.3790 Cl  0  0  0  0  0  0  0  0  0  0  0  0
   -0.9920  -11.5510    1.3470 C   0  0  0  0  0  0  0  0  0  0  0  0
   -1.7990  -12.6930    1.8290 C   0  0  0  0  0  0  0  0  0  0  0  0
   -3.0870  -12.8030    1.4540 C   0  0  0  0  0  0  0  0  0  0  0  0
   -3.8280  -13.9620    2.0120 C   0  0  0  0  0  0  0  0  0  0  0  0
   -3.3620  -14.8450    2.8380 N   0  0  0  0  0  0  0  0  0  0  0  0
   -2.0540  -14.6890    3.2170 C   0  0  0  0  0  0  0  0  0  0  0  0
   -1.2420  -15.3890    4.0790 C   0  0  0  0  0  0  0  0  0  0  0  0
   -1.5920  -16.6240    4.9310 C   0  0  0  0  0  0  0  0  0  0  0  0
   -1.8290  -17.9190    4.5510 C   0  0  0  0  0  0  0  0  0  0  0  0
   -2.1250  -18.7240    5.5900 N   0  0  0  0  0  0  0  0  0  0  0  0
   -2.0800  -17.9560    6.6990 N   0  0  0  0  0  0  0  0  0  0  0  0
   -1.7590  -16.7180    6.2910 C   0  0  0  0  0  0  0  0  0  0  0  0
   -0.0020  -14.7400    4.0460 C   0  0  0  0  0  0  0  0  0  0  0  0
    0.0030  -13.6760    3.2410 N   0  0  0  0  0  0  0  0  0  0  0  0
   -1.2600  -13.6420    2.7220 N   0  0  0  0  0  0  0  0  0  0  0  0
   -0.2120  -11.7370    0.1880 C   0  0  0  0  0  0  0  0  0  0  0  0
    3.0820  -11.6520   -3.0170 C   0  0  0  0  0  0  0  0  0  0  0  0
    2.9160  -10.5970   -3.9220 C   0  0  0  0  0  0  0  0  0  0  0  0
    3.4510  -10.6910   -5.2080 C   0  0  0  0  0  0  0  0  0  0  0  0
    4.1600  -11.8310   -5.5910 C   0  0  0  0  0  0  0  0  0  0  0  0
    4.3460  -12.8930   -4.6920 C   0  0  0  0  0  0  0  0  0  0  0  0
    5.1420  -14.1100   -5.0920 C   0  0  0  0  0  0  0  0  0  0  0  0
    6.2790  -14.2690   -4.3570 F   0  0  0  0  0  0  0  0  0  0  0  0
    5.5390  -14.0670   -6.3940 F   0  0  0  0  0  0  0  0  0  0  0  0
    4.4480  -15.2740   -4.9520 F   0  0  0  0  0  0  0  0  0  0  0  0
    3.8100  -12.7870   -3.3980 C   0  0  0  0  0  0  0  0  0  0  0  0
    0.8220  -10.7470   -2.3810 H   0  0  0  0  0  0  0  0  0  0  0  0
    1.2313   -8.6631   -0.0805 H   0  0  0  0  0  0  0  0  0  0  0  0
   -0.1451   -8.2908    1.9627 H   0  0  0  0  0  0  0  0  0  0  0  0
   -3.5614  -12.0786    0.7757 H   0  0  0  0  0  0  0  0  0  0  0  0
   -4.8739  -14.0829    1.6935 H   0  0  0  0  0  0  0  0  0  0  0  0
   -1.7825  -18.2648    3.5078 H   0  0  0  0  0  0  0  0  0  0  0  0
   -1.6417  -15.8655    6.9762 H   0  0  0  0  0  0  0  0  0  0  0  0
    0.8744  -15.0718    4.6221 H   0  0  0  0  0  0  0  0  0  0  0  0
   -0.2270  -12.7140   -0.3172 H   0  0  0  0  0  0  0  0  0  0  0  0
    2.3644   -9.6945   -3.6200 H   0  0  0  0  0  0  0  0  0  0  0  0
    3.3136   -9.8649   -5.9212 H   0  0  0  0  0  0  0  0  0  0  0  0
    4.5768  -11.8977   -6.6068 H   0  0  0  0  0  0  0  0  0  0  0  0
    3.9633  -13.6031   -2.6766 H   0  0  0  0  0  0  0  0  0  0  0  0
  1  2  2  0
  2  3  1  0
  3  4  1  0
  4  5  2  0
  5  6  1  0
  6  7  2  0
  7  8  1  0
  7  9  1  0
  9 10  1  0
 10 11  2  0
 11 12  1  0
 12 13  2  0
 13 14  1  0
 14 15  2  0
 15 16  1  0
 16 17  1  0
 17 18  2  0
 18 19  1  0
 19 20  1  0
 15 21  1  0
 21 22  2  0
 22 23  1  0
  9 24  2  0
  2 25  1  0
 25 26  2  0
 26 27  1  0
 27 28  2  0
 28 29  1  0
 29 30  1  0
 30 31  1  0
 30 32  1  0
 30 33  1  0
 29 34  2  0
 24  4  1  0
 34 25  1  0
 23 10  1  0
 23 14  1  0
 20 16  2  0
  3 35  1  0
  5 36  1  0
  6 37  1  0
 11 38  1  0
 12 39  1  0
 17 40  1  0
 20 41  1  0
 21 42  1  0
 24 43  1  0
 26 44  1  0
 27 45  1  0
 28 46  1  0
 34 47  1  0
M  CHG  1  19  -1
M  END
>  <meeko>  (7) 
{"is_sidechain": [false], "free_energy": -8.573, "intermolecular_energy": -10.89, "internal_energy": -1.171}

$$$$
LIB_RQGLQNLOJSOQJU__M_PUB_ALL__e8__s20260927
     RDKit          3D

 47 51  0  0  0  0  0  0  0  0999 V2000
    1.0270  -14.4820   -2.3650 O   0  0  0  0  0  0  0  0  0  0  0  0
    2.0340  -13.8610   -2.0480 C   0  0  0  0  0  0  0  0  0  0  0  0
    2.8340  -14.0850   -0.9430 N   0  0  0  0  0  0  0  0  0  0  0  0
    2.7480  -15.1530   -0.0260 C   0  0  0  0  0  0  0  0  0  0  0  0
    3.3710  -16.3860   -0.2040 C   0  0  0  0  0  0  0  0  0  0  0  0
    3.2680  -17.3770    0.7780 C   0  0  0  0  0  0  0  0  0  0  0  0
    2.5360  -17.1440    1.9460 C   0  0  0  0  0  0  0  0  0  0  0  0
    2.4880  -18.4150    3.1200 Cl  0  0  0  0  0  0  0  0  0  0  0  0
    1.8870  -15.9160    2.1410 C   0  0  0  0  0  0  0  0  0  0  0  0
    1.0840  -15.5910    3.3400 C   0  0  0  0  0  0  0  0  0  0  0  0
    1.6080  -14.8010    4.2970 C   0  0  0  0  0  0  0  0  0  0  0  0
    0.7440  -14.5540    5.4790 C   0  0  0  0  0  0  0  0  0  0  0  0
   -0.4360  -15.0500    5.6820 N   0  0  0  0  0  0  0  0  0  0  0  0
   -0.9280  -15.8680    4.7000 C   0  0  0  0  0  0  0  0  0  0  0  0
   -2.0970  -16.5830    4.5780 C   0  0  0  0  0  0  0  0  0  0  0  0
   -3.2630  -16.6860    5.5790 C   0  0  0  0  0  0  0  0  0  0  0  0
   -4.6120  -16.7820    5.3560 C   0  0  0  0  0  0  0  0  0  0  0  0
   -5.3290  -16.8350    6.4960 N   0  0  0  0  0  0  0  0  0  0  0  0
   -4.4440  -16.7800    7.5130 N   0  0  0  0  0  0  0  0  0  0  0  0
   -3.2270  -16.6960    6.9520 C   0  0  0  0  0  0  0  0  0  0  0  0
   -2.0210  -17.2310    3.3390 C   0  0  0  0  0  0  0  0  0  0  0  0
   -0.8770  -16.9840    2.6970 N   0  0  0  0  0  0  0  0  0  0  0  0
   -0.2010  -16.1390    3.5300 N   0  0  0  0  0  0  0  0  0  0  0  0
    2.0080  -14.9290    1.1420 C   0  0  0  0  0  0  0  0  0  0  0  0
    2.4440  -12.7040   -2.8950 C   0  0  0  0  0  0  0  0  0  0  0  0
    2.1150  -11.3860   -2.5540 C   0  0  0  0  0  0  0  0  0  0  0  0
    2.5260  -10.3310   -3.3700 C   0  0  0  0  0  0  0  0  0  0  0  0
    3.2730  -10.5850   -4.5220 C   0  0  0  0  0  0  0  0  0  0  0  0
    3.6220  -11.8990   -4.8730 C   0  0  0  0  0  0  0  0  0  0  0  0
    4.4600  -12.1730   -6.0970 C   0  0  0  0  0  0  0  0  0  0  0  0
    4.1160  -13.3280   -6.7320 F   0  0  0  0  0  0  0  0  0  0  0  0
    5.7850  -12.2850   -5.8050 F   0  0  0  0  0  0  0  0  0  0  0  0
    4.3670  -11.1930   -7.0390 F   0  0  0  0  0  0  0  0  0  0  0  0
    3.2110  -12.9540   -4.0420 C   0  0  0  0  0  0  0  0  0  0  0  0
    3.5520  -13.3990   -0.7450 H   0  0  0  0  0  0  0  0  0  0  0  0
    3.9466  -16.5814   -1.1208 H   0  0  0  0  0  0  0  0  0  0  0  0
    3.7665  -18.3464    0.6301 H   0  0  0  0  0  0  0  0  0  0  0  0
    2.6142  -14.3656    4.2083 H   0  0  0  0  0  0  0  0  0  0  0  0
    1.1436  -13.8863    6.2565 H   0  0  0  0  0  0  0  0  0  0  0  0
   -5.0619  -16.8126    4.3527 H   0  0  0  0  0  0  0  0  0  0  0  0
   -2.2949  -16.6407    7.5335 H   0  0  0  0  0  0  0  0  0  0  0  0
   -2.8181  -17.8743    2.9380 H   0  0  0  0  0  0  0  0  0  0  0  0
    1.5090  -13.9589    1.2831 H   0  0  0  0  0  0  0  0  0  0  0  0
    1.5328  -11.1824   -1.6432 H   0  0  0  0  0  0  0  0  0  0  0  0
    2.2608   -9.2969   -3.1050 H   0  0  0  0  0  0  0  0  0  0  0  0
    3.5911   -9.7478   -5.1606 H   0  0  0  0  0  0  0  0  0  0  0  0
    3.4936  -13.9869   -4.2934 H   0  0  0  0  0  0  0  0  0  0  0  0
  1  2  2  0
  2  3  1  0
  3  4  1  0
  4  5  2  0
  5  6  1  0
  6  7  2  0
  7  8  1  0
  7  9  1  0
  9 10  1  0
 10 11  2  0
 11 12  1  0
 12 13  2  0
 13 14  1  0
 14 15  2  0
 15 16  1  0
 16 17  1  0
 17 18  2  0
 18 19  1  0
 19 20  1  0
 15 21  1  0
 21 22  2  0
 22 23  1  0
  9 24  2  0
  2 25  1  0
 25 26  2  0
 26 27  1  0
 27 28  2  0
 28 29  1  0
 29 30  1  0
 30 31  1  0
 30 32  1  0
 30 33  1  0
 29 34  2  0
 24  4  1  0
 34 25  1  0
 23 10  1  0
 23 14  1  0
 20 16  2  0
  3 35  1  0
  5 36  1  0
  6 37  1  0
 11 38  1  0
 12 39  1  0
 17 40  1  0
 20 41  1  0
 21 42  1  0
 24 43  1  0
 26 44  1  0
 27 45  1  0
 28 46  1  0
 34 47  1  0
M  CHG  1  19  -1
M  END
>  <meeko>  (8) 
{"is_sidechain": [false], "free_energy": -8.561, "intermolecular_energy": -10.946, "internal_energy": -1.098}

$$$$
LIB_RQGLQNLOJSOQJU__M_PUB_ALL__e8__s20260927
     RDKit          3D

 47 51  0  0  0  0  0  0  0  0999 V2000
    0.3470  -14.6590   -0.9230 O   0  0  0  0  0  0  0  0  0  0  0  0
    0.7200  -13.5640   -0.5170 C   0  0  0  0  0  0  0  0  0  0  0  0
    1.7060  -12.7670   -1.0660 N   0  0  0  0  0  0  0  0  0  0  0  0
    2.3940  -12.9710   -2.2800 C   0  0  0  0  0  0  0  0  0  0  0  0
    1.8500  -12.7180   -3.5380 C   0  0  0  0  0  0  0  0  0  0  0  0
    2.6200  -12.9080   -4.6910 C   0  0  0  0  0  0  0  0  0  0  0  0
    3.9400  -13.3570   -4.5970 C   0  0  0  0  0  0  0  0  0  0  0  0
    4.8260  -13.5340   -6.0720 Cl  0  0  0  0  0  0  0  0  0  0  0  0
    4.5050  -13.6330   -3.3420 C   0  0  0  0  0  0  0  0  0  0  0  0
    5.8890  -14.1210   -3.1530 C   0  0  0  0  0  0  0  0  0  0  0  0
    6.1080  -15.4310   -2.9380 C   0  0  0  0  0  0  0  0  0  0  0  0
    7.5230  -15.8260   -2.7270 C   0  0  0  0  0  0  0  0  0  0  0  0
    8.5450  -15.0300   -2.7000 N   0  0  0  0  0  0  0  0  0  0  0  0
    8.2830  -13.7000   -2.8980 C   0  0  0  0  0  0  0  0  0  0  0  0
    9.0840  -12.5810   -2.9070 C   0  0  0  0  0  0  0  0  0  0  0  0
   10.6030  -12.4920   -2.6720 C   0  0  0  0  0  0  0  0  0  0  0  0
   11.3060  -12.2560   -1.5190 C   0  0  0  0  0  0  0  0  0  0  0  0
   12.6390  -12.2340   -1.7120 N   0  0  0  0  0  0  0  0  0  0  0  0
   12.8430  -12.4680   -3.0260 N   0  0  0  0  0  0  0  0  0  0  0  0
   11.6280  -12.6220   -3.5770 C   0  0  0  0  0  0  0  0  0  0  0  0
    8.2290  -11.5030   -3.1650 C   0  0  0  0  0  0  0  0  0  0  0  0
    6.9540  -11.8740   -3.2950 N   0  0  0  0  0  0  0  0  0  0  0  0
    6.9820  -13.2300   -3.1360 N   0  0  0  0  0  0  0  0  0  0  0  0
    3.7150  -13.4300   -2.1930 C   0  0  0  0  0  0  0  0  0  0  0  0
    0.0980  -13.0250    0.7270 C   0  0  0  0  0  0  0  0  0  0  0  0
    0.1330  -13.7320    1.9350 C   0  0  0  0  0  0  0  0  0  0  0  0
   -0.4530  -13.1880    3.0790 C   0  0  0  0  0  0  0  0  0  0  0  0
   -1.0670  -11.9350    3.0240 C   0  0  0  0  0  0  0  0  0  0  0  0
   -1.1010  -11.2070    1.8230 C   0  0  0  0  0  0  0  0  0  0  0  0
   -1.7320   -9.8380    1.7700 C   0  0  0  0  0  0  0  0  0  0  0  0
   -0.8260   -8.8280    1.8970 F   0  0  0  0  0  0  0  0  0  0  0  0
   -2.6470   -9.6490    2.7610 F   0  0  0  0  0  0  0  0  0  0  0  0
   -2.3910   -9.5970    0.6030 F   0  0  0  0  0  0  0  0  0  0  0  0
   -0.5020  -11.7600    0.6800 C   0  0  0  0  0  0  0  0  0  0  0  0
    1.9940  -11.9550   -0.5350 H   0  0  0  0  0  0  0  0  0  0  0  0
    0.8110  -12.3675   -3.6249 H   0  0  0  0  0  0  0  0  0  0  0  0
    2.1827  -12.7023   -5.6792 H   0  0  0  0  0  0  0  0  0  0  0  0
    5.2884  -16.1644   -2.9197 H   0  0  0  0  0  0  0  0  0  0  0  0
    7.7233  -16.8975   -2.5794 H   0  0  0  0  0  0  0  0  0  0  0  0
   10.8313  -12.1008   -0.5389 H   0  0  0  0  0  0  0  0  0  0  0  0
   11.4697  -12.8311   -4.6453 H   0  0  0  0  0  0  0  0  0  0  0  0
    8.5717  -10.4613   -3.2513 H   0  0  0  0  0  0  0  0  0  0  0  0
    4.1463  -13.6371   -1.2025 H   0  0  0  0  0  0  0  0  0  0  0  0
    0.6223  -14.7161    1.9824 H   0  0  0  0  0  0  0  0  0  0  0  0
   -0.4311  -13.7474    4.0259 H   0  0  0  0  0  0  0  0  0  0  0  0
   -1.5283  -11.5141    3.9295 H   0  0  0  0  0  0  0  0  0  0  0  0
   -0.5038  -11.1936   -0.2630 H   0  0  0  0  0  0  0  0  0  0  0  0
  1  2  2  0
  2  3  1  0
  3  4  1  0
  4  5  2  0
  5  6  1  0
  6  7  2  0
  7  8  1  0
  7  9  1  0
  9 10  1  0
 10 11  2  0
 11 12  1  0
 12 13  2  0
 13 14  1  0
 14 15  2  0
 15 16  1  0
 16 17  1  0
 17 18  2  0
 18 19  1  0
 19 20  1  0
 15 21  1  0
 21 22  2  0
 22 23  1  0
  9 24  2  0
  2 25  1  0
 25 26  2  0
 26 27  1  0
 27 28  2  0
 28 29  1  0
 29 30  1  0
 30 31  1  0
 30 32  1  0
 30 33  1  0
 29 34  2  0
 24  4  1  0
 34 25  1  0
 23 10  1  0
 23 14  1  0
 20 16  2  0
  3 35  1  0
  5 36  1  0
  6 37  1  0
 11 38  1  0
 12 39  1  0
 17 40  1  0
 20 41  1  0
 21 42  1  0
 24 43  1  0
 26 44  1  0
 27 45  1  0
 28 46  1  0
 34 47  1  0
M  CHG  1  19  -1
M  END
>  <meeko>  (9) 
{"is_sidechain": [false], "free_energy": -8.077, "intermolecular_energy": -10.244, "internal_energy": -1.176}

$$$$
