LIB_CJTUMEIDUUCTSL__M_PUB_ALL__e8__s20260927
     RDKit          3D

 71 74  0  0  0  0  0  0  0  0999 V2000
    4.4880  -14.4580   -3.7920 C   0  0  0  0  0  0  0  0  0  0  0  0
    4.9620  -13.4040   -2.8950 N   0  0  0  0  0  0  0  0  0  0  0  0
    4.4400  -12.1000   -2.8580 C   0  0  0  0  0  0  0  0  0  0  0  0
    5.1760  -11.1490   -2.5630 O   0  0  0  0  0  0  0  0  0  0  0  0
    2.9440  -11.8280   -3.2190 C   0  0  0  0  0  0  0  0  0  0  0  0
    2.5820  -12.6690   -4.4750 C   0  0  0  0  0  0  0  0  0  0  0  0
    2.8110  -10.3540   -3.6580 C   0  0  0  0  0  0  0  0  0  0  0  0
    1.9860  -12.2880   -2.1060 C   0  0  0  0  0  0  0  0  0  0  0  0
    1.5230  -13.6100   -2.0050 C   0  0  0  0  0  0  0  0  0  0  0  0
    0.6460  -14.0090   -0.9800 C   0  0  0  0  0  0  0  0  0  0  0  0
    0.1770  -15.4450   -0.9010 C   0  0  0  0  0  0  0  0  0  0  0  0
   -0.1340  -15.8210    0.3670 F   0  0  0  0  0  0  0  0  0  0  0  0
   -0.9300  -15.6890   -1.6550 F   0  0  0  0  0  0  0  0  0  0  0  0
    1.1240  -16.3220   -1.3360 F   0  0  0  0  0  0  0  0  0  0  0  0
    0.2420  -13.0680   -0.0220 C   0  0  0  0  0  0  0  0  0  0  0  0
    0.7000  -11.7440   -0.0800 C   0  0  0  0  0  0  0  0  0  0  0  0
    0.2640  -10.7150    0.9380 C   0  0  0  0  0  0  0  0  0  0  0  0
    1.2420   -9.7960    1.1760 F   0  0  0  0  0  0  0  0  0  0  0  0
   -0.0330  -11.2660    2.1470 F   0  0  0  0  0  0  0  0  0  0  0  0
   -0.8340  -10.0060    0.5630 F   0  0  0  0  0  0  0  0  0  0  0  0
    1.5700  -11.3710   -1.1180 C   0  0  0  0  0  0  0  0  0  0  0  0
    6.2300  -13.6350   -2.2580 C   0  0  0  0  0  0  0  0  0  0  0  0
    7.4160  -13.4170   -2.9670 C   0  0  0  0  0  0  0  0  0  0  0  0
    8.6630  -13.5370   -2.4490 N   0  0  0  0  0  0  0  0  0  0  0  0
    8.7390  -13.8940   -1.1580 C   0  0  0  0  0  0  0  0  0  0  0  0
   10.0630  -13.9500   -0.5790 N   0  0  0  0  0  0  0  0  0  0  0  0
   10.5050  -12.6150   -0.0460 C   0  0  0  0  0  0  0  0  0  0  0  0
   12.0100  -12.6060   -0.3120 C   0  0  1  0  0  0  0  0  0  0  0  0
   12.6840  -13.3550    0.6950 O   0  0  0  0  0  0  0  0  0  0  0  0
   12.1340  -13.3270   -1.6460 C   0  0  0  0  0  0  0  0  0  0  0  0
   11.1120  -14.4600   -1.5520 C   0  0  1  0  0  0  0  0  0  0  0  0
   11.6810  -15.7790   -0.9870 C   0  0  0  0  0  0  0  0  0  0  0  0
   13.1070  -15.6600   -0.8950 O   0  0  0  0  0  0  0  0  0  0  0  0
    7.6380  -14.1820   -0.3700 C   0  0  0  0  0  0  0  0  0  0  0  0
    6.3460  -14.0510   -0.9130 C   0  0  0  0  0  0  0  0  0  0  0  0
    5.1880  -14.4400   -0.0760 C   0  0  0  0  0  0  0  0  0  0  0  0
    4.7950  -15.7920   -0.0390 C   0  0  0  0  0  0  0  0  0  0  0  0
    3.7200  -16.2150    0.7480 C   0  0  0  0  0  0  0  0  0  0  0  0
    3.0140  -15.2950    1.5150 C   0  0  0  0  0  0  0  0  0  0  0  0
    3.3880  -13.9520    1.5040 C   0  0  0  0  0  0  0  0  0  0  0  0
    4.4670  -13.5260    0.7230 C   0  0  0  0  0  0  0  0  0  0  0  0
    4.8790  -11.8440    0.7960 Cl  0  0  0  0  0  0  0  0  0  0  0  0
    4.1084  -15.3021   -3.1975 H   0  0  0  0  0  0  0  0  0  0  0  0
    3.6805  -14.0638   -4.4265 H   0  0  0  0  0  0  0  0  0  0  0  0
    5.3187  -14.8006   -4.4265 H   0  0  0  0  0  0  0  0  0  0  0  0
    2.1653  -13.6372   -4.1604 H   0  0  0  0  0  0  0  0  0  0  0  0
    1.8373  -12.1274   -5.0768 H   0  0  0  0  0  0  0  0  0  0  0  0
    3.4872  -12.8376   -5.0768 H   0  0  0  0  0  0  0  0  0  0  0  0
    2.7529   -9.7102   -2.7680 H   0  0  0  0  0  0  0  0  0  0  0  0
    3.6872  -10.0700   -4.2594 H   0  0  0  0  0  0  0  0  0  0  0  0
    1.8982  -10.2315   -4.2594 H   0  0  0  0  0  0  0  0  0  0  0  0
    1.8545  -14.3522   -2.7461 H   0  0  0  0  0  0  0  0  0  0  0  0
   -0.4420  -13.3720    0.7841 H   0  0  0  0  0  0  0  0  0  0  0  0
    1.9371  -10.3350   -1.1616 H   0  0  0  0  0  0  0  0  0  0  0  0
    7.3303  -13.1263   -4.0244 H   0  0  0  0  0  0  0  0  0  0  0  0
   10.0500  -14.6500    0.1800 H   0  0  0  0  0  0  0  0  0  0  0  0
   10.0062  -11.7933   -0.5807 H   0  0  0  0  0  0  0  0  0  0  0  0
   10.2565  -12.4739    1.0162 H   0  0  0  0  0  0  0  0  0  0  0  0
   12.4426  -11.5946   -0.3162 H   0  0  0  0  0  0  0  0  0  0  0  0
   12.1840  -14.1810    0.8440 H   0  0  0  0  0  0  0  0  0  0  0  0
   11.8924  -12.6510   -2.4795 H   0  0  0  0  0  0  0  0  0  0  0  0
   13.1540  -13.6923   -1.8360 H   0  0  0  0  0  0  0  0  0  0  0  0
   10.7422  -14.6973   -2.5604 H   0  0  0  0  0  0  0  0  0  0  0  0
   11.2596  -15.9667    0.0116 H   0  0  0  0  0  0  0  0  0  0  0  0
   11.4158  -16.6166   -1.6489 H   0  0  0  0  0  0  0  0  0  0  0  0
   13.4760  -16.0600   -1.7090 H   0  0  0  0  0  0  0  0  0  0  0  0
    7.7716  -14.5103    0.6713 H   0  0  0  0  0  0  0  0  0  0  0  0
    5.3451  -16.5298   -0.6415 H   0  0  0  0  0  0  0  0  0  0  0  0
    3.4324  -17.2767    0.7605 H   0  0  0  0  0  0  0  0  0  0  0  0
    2.1630  -15.6257    2.1286 H   0  0  0  0  0  0  0  0  0  0  0  0
    2.8317  -13.2239    2.1126 H   0  0  0  0  0  0  0  0  0  0  0  0
  1  2  1  0
  2  3  1  0
  3  4  2  0
  3  5  1  0
  5  6  1  0
  5  7  1  0
  5  8  1  0
  8  9  2  0
  9 10  1  0
 10 11  1  0
 11 12  1  0
 11 13  1  0
 11 14  1  0
 10 15  2  0
 15 16  1  0
 16 17  1  0
 17 18  1  0
 17 19  1  0
 17 20  1  0
 16 21  2  0
  2 22  1  0
 22 23  2  0
 23 24  1  0
 24 25  2  0
 25 26  1  0
 26 27  1  0
 27 28  1  0
 28 29  1  0
 28 30  1  0
 30 31  1  0
 31 32  1  0
 32 33  1  0
 25 34  1  0
 34 35  2  0
 35 36  1  0
 36 37  2  0
 37 38  1  0
 38 39  2  0
 39 40  1  0
 40 41  2  0
 41 42  1  0
 21  8  1  0
 35 22  1  0
 41 36  1  0
 31 26  1  0
  1 43  1  0
  1 44  1  0
  1 45  1  0
  6 46  1  0
  6 47  1  0
  6 48  1  0
  7 49  1  0
  7 50  1  0
  7 51  1  0
  9 52  1  0
 15 53  1  0
 21 54  1  0
 23 55  1  0
 26 56  1  0
 27 57  1  0
 27 58  1  0
 28 59  1  6
 29 60  1  0
 30 61  1  0
 30 62  1  0
 31 63  1  6
 32 64  1  0
 32 65  1  0
 33 66  1  0
 34 67  1  0
 37 68  1  0
 38 69  1  0
 39 70  1  0
 40 71  1  0
M  CHG  1  26   1
M  END
>  <meeko>  (1) 
{"is_sidechain": [false], "free_energy": -8.437, "intermolecular_energy": -13.37, "internal_energy": -3.466}

$$$$
LIB_CJTUMEIDUUCTSL__M_PUB_ALL__e8__s20260927
     RDKit          3D

 71 74  0  0  0  0  0  0  0  0999 V2000
    4.6170  -14.6990   -3.8190 C   0  0  0  0  0  0  0  0  0  0  0  0
    5.1060  -13.5900   -3.0000 N   0  0  0  0  0  0  0  0  0  0  0  0
    4.5960  -12.2810   -3.0510 C   0  0  0  0  0  0  0  0  0  0  0  0
    5.3480  -11.3180   -2.8510 O   0  0  0  0  0  0  0  0  0  0  0  0
    3.0940  -12.0230   -3.3940 C   0  0  0  0  0  0  0  0  0  0  0  0
    2.6880  -12.9650   -4.5620 C   0  0  0  0  0  0  0  0  0  0  0  0
    2.9630  -10.5910   -3.9560 C   0  0  0  0  0  0  0  0  0  0  0  0
    2.1620  -12.3720   -2.2200 C   0  0  0  0  0  0  0  0  0  0  0  0
    1.7250  -11.4130   -1.2910 C   0  0  0  0  0  0  0  0  0  0  0  0
    0.8740  -11.7550   -0.2240 C   0  0  0  0  0  0  0  0  0  0  0  0
    0.4180  -10.6910    0.7510 C   0  0  0  0  0  0  0  0  0  0  0  0
   -0.0940  -11.2190    1.8930 F   0  0  0  0  0  0  0  0  0  0  0  0
    1.4190   -9.8510    1.1310 F   0  0  0  0  0  0  0  0  0  0  0  0
   -0.5570   -9.8960    0.2290 F   0  0  0  0  0  0  0  0  0  0  0  0
    0.4330  -13.0800   -0.0990 C   0  0  0  0  0  0  0  0  0  0  0  0
    0.8330  -14.0590   -1.0190 C   0  0  0  0  0  0  0  0  0  0  0  0
    0.3760  -15.4940   -0.8900 C   0  0  0  0  0  0  0  0  0  0  0  0
    0.1500  -15.8360    0.4100 F   0  0  0  0  0  0  0  0  0  0  0  0
    1.2960  -16.3820   -1.3550 F   0  0  0  0  0  0  0  0  0  0  0  0
   -0.7800  -15.7610   -1.5550 F   0  0  0  0  0  0  0  0  0  0  0  0
    1.6880  -13.6920   -2.0720 C   0  0  0  0  0  0  0  0  0  0  0  0
    6.3750  -13.7880   -2.3560 C   0  0  0  0  0  0  0  0  0  0  0  0
    7.5580  -13.6670   -3.0920 C   0  0  0  0  0  0  0  0  0  0  0  0
    8.8080  -13.7660   -2.5750 N   0  0  0  0  0  0  0  0  0  0  0  0
    8.8900  -13.9980   -1.2570 C   0  0  0  0  0  0  0  0  0  0  0  0
   10.2180  -14.0290   -0.6870 N   0  0  0  0  0  0  0  0  0  0  0  0
   10.5690  -12.7400    0.0020 C   0  0  0  0  0  0  0  0  0  0  0  0
   12.0680  -12.5920   -0.2590 C   0  0  1  0  0  0  0  0  0  0  0  0
   12.8000  -13.4070    0.6530 O   0  0  0  0  0  0  0  0  0  0  0  0
   12.2330  -13.1390   -1.6700 C   0  0  0  0  0  0  0  0  0  0  0  0
   11.2930  -14.3440   -1.7120 C   0  0  1  0  0  0  0  0  0  0  0  0
   11.9580  -15.6780   -1.3070 C   0  0  0  0  0  0  0  0  0  0  0  0
   13.3710  -15.5700   -1.5260 O   0  0  0  0  0  0  0  0  0  0  0  0
    7.7910  -14.1830   -0.4360 C   0  0  0  0  0  0  0  0  0  0  0  0
    6.4960  -14.0750   -0.9770 C   0  0  0  0  0  0  0  0  0  0  0  0
    5.3390  -14.3540   -0.0960 C   0  0  0  0  0  0  0  0  0  0  0  0
    4.8820  -15.6800    0.0310 C   0  0  0  0  0  0  0  0  0  0  0  0
    3.8050  -16.0000    0.8630 C   0  0  0  0  0  0  0  0  0  0  0  0
    3.1610  -15.0000    1.5850 C   0  0  0  0  0  0  0  0  0  0  0  0
    3.5990  -13.6810    1.4840 C   0  0  0  0  0  0  0  0  0  0  0  0
    4.6810  -13.3580    0.6580 C   0  0  0  0  0  0  0  0  0  0  0  0
    5.1760  -11.6970    0.6180 Cl  0  0  0  0  0  0  0  0  0  0  0  0
    4.2602  -15.5083   -3.1650 H   0  0  0  0  0  0  0  0  0  0  0  0
    3.7898  -14.3490   -4.4539 H   0  0  0  0  0  0  0  0  0  0  0  0
    5.4334  -15.0737   -4.4539 H   0  0  0  0  0  0  0  0  0  0  0  0
    2.2838  -13.9028   -4.1531 H   0  0  0  0  0  0  0  0  0  0  0  0
    1.9216  -12.4739   -5.1797 H   0  0  0  0  0  0  0  0  0  0  0  0
    3.5712  -13.1849   -5.1797 H   0  0  0  0  0  0  0  0  0  0  0  0
    2.8975   -9.8750   -3.1235 H   0  0  0  0  0  0  0  0  0  0  0  0
    3.8435  -10.3571   -4.5724 H   0  0  0  0  0  0  0  0  0  0  0  0
    2.0547  -10.5207   -4.5724 H   0  0  0  0  0  0  0  0  0  0  0  0
    2.0561  -10.3697   -1.4004 H   0  0  0  0  0  0  0  0  0  0  0  0
   -0.2348  -13.3545    0.7309 H   0  0  0  0  0  0  0  0  0  0  0  0
    1.9962  -14.4556   -2.8013 H   0  0  0  0  0  0  0  0  0  0  0  0
    7.4679  -13.4772   -4.1718 H   0  0  0  0  0  0  0  0  0  0  0  0
   10.2600  -14.8140   -0.0170 H   0  0  0  0  0  0  0  0  0  0  0  0
   10.0095  -11.8977   -0.4311 H   0  0  0  0  0  0  0  0  0  0  0  0
   10.3193  -12.7452    1.0733 H   0  0  0  0  0  0  0  0  0  0  0  0
   12.4283  -11.5593   -0.1421 H   0  0  0  0  0  0  0  0  0  0  0  0
   13.1240  -14.1900    0.1660 H   0  0  0  0  0  0  0  0  0  0  0  0
   11.9389  -12.3875   -2.4175 H   0  0  0  0  0  0  0  0  0  0  0  0
   13.2746  -13.4064   -1.9012 H   0  0  0  0  0  0  0  0  0  0  0  0
   10.9329  -14.4849   -2.7418 H   0  0  0  0  0  0  0  0  0  0  0  0
   11.7623  -15.8819   -0.2439 H   0  0  0  0  0  0  0  0  0  0  0  0
   11.5463  -16.5012   -1.9094 H   0  0  0  0  0  0  0  0  0  0  0  0
   13.4880  -15.1210   -2.3880 H   0  0  0  0  0  0  0  0  0  0  0  0
    7.9286  -14.4126    0.6309 H   0  0  0  0  0  0  0  0  0  0  0  0
    5.3821  -16.4794   -0.5354 H   0  0  0  0  0  0  0  0  0  0  0  0
    3.4664  -17.0432    0.9469 H   0  0  0  0  0  0  0  0  0  0  0  0
    2.3085  -15.2499    2.2337 H   0  0  0  0  0  0  0  0  0  0  0  0
    3.0918  -12.8903    2.0562 H   0  0  0  0  0  0  0  0  0  0  0  0
  1  2  1  0
  2  3  1  0
  3  4  2  0
  3  5  1  0
  5  6  1  0
  5  7  1  0
  5  8  1  0
  8  9  2  0
  9 10  1  0
 10 11  1  0
 11 12  1  0
 11 13  1  0
 11 14  1  0
 10 15  2  0
 15 16  1  0
 16 17  1  0
 17 18  1  0
 17 19  1  0
 17 20  1  0
 16 21  2  0
  2 22  1  0
 22 23  2  0
 23 24  1  0
 24 25  2  0
 25 26  1  0
 26 27  1  0
 27 28  1  0
 28 29  1  0
 28 30  1  0
 30 31  1  0
 31 32  1  0
 32 33  1  0
 25 34  1  0
 34 35  2  0
 35 36  1  0
 36 37  2  0
 37 38  1  0
 38 39  2  0
 39 40  1  0
 40 41  2  0
 41 42  1  0
 21  8  1  0
 35 22  1  0
 41 36  1  0
 31 26  1  0
  1 43  1  0
  1 44  1  0
  1 45  1  0
  6 46  1  0
  6 47  1  0
  6 48  1  0
  7 49  1  0
  7 50  1  0
  7 51  1  0
  9 52  1  0
 15 53  1  0
 21 54  1  0
 23 55  1  0
 26 56  1  0
 27 57  1  0
 27 58  1  0
 28 59  1  6
 29 60  1  0
 30 61  1  0
 30 62  1  0
 31 63  1  6
 32 64  1  0
 32 65  1  0
 33 66  1  0
 34 67  1  0
 37 68  1  0
 38 69  1  0
 39 70  1  0
 40 71  1  0
M  CHG  1  26   1
M  END
>  <meeko>  (2) 
{"is_sidechain": [false], "free_energy": -8.326, "intermolecular_energy": -13.085, "internal_energy": -3.575}

$$$$
LIB_CJTUMEIDUUCTSL__M_PUB_ALL__e8__s20260927
     RDKit          3D

 71 74  0  0  0  0  0  0  0  0999 V2000
   -2.0230  -17.5880    2.1660 C   0  0  0  0  0  0  0  0  0  0  0  0
   -1.5060  -16.5010    1.3340 N   0  0  0  0  0  0  0  0  0  0  0  0
   -2.3090  -15.6240    0.5850 C   0  0  0  0  0  0  0  0  0  0  0  0
   -2.6080  -15.9070   -0.5830 O   0  0  0  0  0  0  0  0  0  0  0  0
   -2.8610  -14.3080    1.2200 C   0  0  0  0  0  0  0  0  0  0  0  0
   -3.0520  -14.5400    2.7450 C   0  0  0  0  0  0  0  0  0  0  0  0
   -4.2780  -14.0560    0.6610 C   0  0  0  0  0  0  0  0  0  0  0  0
   -1.8680  -13.1390    1.0870 C   0  0  0  0  0  0  0  0  0  0  0  0
   -2.0710  -11.9000    1.7170 C   0  0  0  0  0  0  0  0  0  0  0  0
   -1.1510  -10.8440    1.5810 C   0  0  0  0  0  0  0  0  0  0  0  0
   -1.4010   -9.5270    2.2840 C   0  0  0  0  0  0  0  0  0  0  0  0
   -2.4370   -8.8370    1.7390 F   0  0  0  0  0  0  0  0  0  0  0  0
   -1.6910   -9.6730    3.6060 F   0  0  0  0  0  0  0  0  0  0  0  0
   -0.3210   -8.6990    2.2280 F   0  0  0  0  0  0  0  0  0  0  0  0
    0.0080  -11.0420    0.8170 C   0  0  0  0  0  0  0  0  0  0  0  0
    0.2520  -12.2710    0.1900 C   0  0  0  0  0  0  0  0  0  0  0  0
    1.4910  -12.4950   -0.6470 C   0  0  0  0  0  0  0  0  0  0  0  0
    1.4500  -13.6930   -1.2960 F   0  0  0  0  0  0  0  0  0  0  0  0
    2.6310  -12.5120    0.0960 F   0  0  0  0  0  0  0  0  0  0  0  0
    1.6780  -11.5530   -1.6100 F   0  0  0  0  0  0  0  0  0  0  0  0
   -0.6860  -13.3070    0.3370 C   0  0  0  0  0  0  0  0  0  0  0  0
   -0.1030  -16.5490    1.0280 C   0  0  0  0  0  0  0  0  0  0  0  0
    0.3260  -17.0750   -0.1950 C   0  0  0  0  0  0  0  0  0  0  0  0
    1.6150  -17.1080   -0.6170 N   0  0  0  0  0  0  0  0  0  0  0  0
    2.5280  -16.5930    0.2200 C   0  0  0  0  0  0  0  0  0  0  0  0
    3.8930  -16.5560   -0.2550 N   0  0  0  0  0  0  0  0  0  0  0  0
    4.8870  -16.6920    0.8650 C   0  0  0  0  0  0  0  0  0  0  0  0
    6.0530  -15.8110    0.4160 C   0  0  1  0  0  0  0  0  0  0  0  0
    6.8550  -16.5160   -0.5290 O   0  0  0  0  0  0  0  0  0  0  0  0
    5.3640  -14.6450   -0.2780 C   0  0  0  0  0  0  0  0  0  0  0  0
    4.2110  -15.2960   -1.0410 C   0  0  1  0  0  0  0  0  0  0  0  0
    4.5660  -15.7140   -2.4850 C   0  0  0  0  0  0  0  0  0  0  0  0
    4.4320  -17.1370   -2.5950 O   0  0  0  0  0  0  0  0  0  0  0  0
    2.2290  -16.0890    1.4740 C   0  0  0  0  0  0  0  0  0  0  0  0
    0.8890  -16.0530    1.9040 C   0  0  0  0  0  0  0  0  0  0  0  0
    0.6040  -15.5820    3.2780 C   0  0  0  0  0  0  0  0  0  0  0  0
    0.3220  -14.2180    3.4890 C   0  0  0  0  0  0  0  0  0  0  0  0
    0.0280  -13.7250    4.7630 C   0  0  0  0  0  0  0  0  0  0  0  0
    0.0120  -14.5860    5.8560 C   0  0  0  0  0  0  0  0  0  0  0  0
    0.2790  -15.9410    5.6750 C   0  0  0  0  0  0  0  0  0  0  0  0
    0.5660  -16.4400    4.3990 C   0  0  0  0  0  0  0  0  0  0  0  0
    0.8550  -18.1440    4.2640 Cl  0  0  0  0  0  0  0  0  0  0  0  0
   -1.8993  -17.3279    3.2276 H   0  0  0  0  0  0  0  0  0  0  0  0
   -3.0903  -17.7409    1.9479 H   0  0  0  0  0  0  0  0  0  0  0  0
   -1.4681  -18.5124    1.9479 H   0  0  0  0  0  0  0  0  0  0  0  0
   -2.4503  -13.8092    3.3053 H   0  0  0  0  0  0  0  0  0  0  0  0
   -4.1138  -14.4167    3.0045 H   0  0  0  0  0  0  0  0  0  0  0  0
   -2.7270  -15.5584    3.0045 H   0  0  0  0  0  0  0  0  0  0  0  0
   -4.9842  -13.9304    1.4950 H   0  0  0  0  0  0  0  0  0  0  0  0
   -4.2724  -13.1448    0.0449 H   0  0  0  0  0  0  0  0  0  0  0  0
   -4.5869  -14.9133    0.0449 H   0  0  0  0  0  0  0  0  0  0  0  0
   -2.9711  -11.7517    2.3316 H   0  0  0  0  0  0  0  0  0  0  0  0
    0.7341  -10.2229    0.7086 H   0  0  0  0  0  0  0  0  0  0  0  0
   -0.4927  -14.2759   -0.1465 H   0  0  0  0  0  0  0  0  0  0  0  0
   -0.4394  -17.4934   -0.8651 H   0  0  0  0  0  0  0  0  0  0  0  0
    4.0150  -17.3240   -0.9350 H   0  0  0  0  0  0  0  0  0  0  0  0
    4.4630  -16.3299    1.8132 H   0  0  0  0  0  0  0  0  0  0  0  0
    5.1842  -17.7348    1.0499 H   0  0  0  0  0  0  0  0  0  0  0  0
    6.7087  -15.5052    1.2446 H   0  0  0  0  0  0  0  0  0  0  0  0
    6.5990  -17.4590   -0.5010 H   0  0  0  0  0  0  0  0  0  0  0  0
    4.9857  -13.9204    0.4581 H   0  0  0  0  0  0  0  0  0  0  0  0
    6.0433  -14.0838   -0.9365 H   0  0  0  0  0  0  0  0  0  0  0  0
    3.3838  -14.5762   -1.1285 H   0  0  0  0  0  0  0  0  0  0  0  0
    3.8822  -15.2216   -3.1921 H   0  0  0  0  0  0  0  0  0  0  0  0
    5.5979  -15.4143   -2.7201 H   0  0  0  0  0  0  0  0  0  0  0  0
    5.1140  -17.4350   -3.2320 H   0  0  0  0  0  0  0  0  0  0  0  0
    3.0318  -15.7197    2.1291 H   0  0  0  0  0  0  0  0  0  0  0  0
    0.3335  -13.5269    2.6333 H   0  0  0  0  0  0  0  0  0  0  0  0
   -0.1909  -12.6560    4.9019 H   0  0  0  0  0  0  0  0  0  0  0  0
   -0.2110  -14.1975    6.8606 H   0  0  0  0  0  0  0  0  0  0  0  0
    0.2643  -16.6221    6.5387 H   0  0  0  0  0  0  0  0  0  0  0  0
  1  2  1  0
  2  3  1  0
  3  4  2  0
  3  5  1  0
  5  6  1  0
  5  7  1  0
  5  8  1  0
  8  9  2  0
  9 10  1  0
 10 11  1  0
 11 12  1  0
 11 13  1  0
 11 14  1  0
 10 15  2  0
 15 16  1  0
 16 17  1  0
 17 18  1  0
 17 19  1  0
 17 20  1  0
 16 21  2  0
  2 22  1  0
 22 23  2  0
 23 24  1  0
 24 25  2  0
 25 26  1  0
 26 27  1  0
 27 28  1  0
 28 29  1  0
 28 30  1  0
 30 31  1  0
 31 32  1  0
 32 33  1  0
 25 34  1  0
 34 35  2  0
 35 36  1  0
 36 37  2  0
 37 38  1  0
 38 39  2  0
 39 40  1  0
 40 41  2  0
 41 42  1  0
 21  8  1  0
 35 22  1  0
 41 36  1  0
 31 26  1  0
  1 43  1  0
  1 44  1  0
  1 45  1  0
  6 46  1  0
  6 47  1  0
  6 48  1  0
  7 49  1  0
  7 50  1  0
  7 51  1  0
  9 52  1  0
 15 53  1  0
 21 54  1  0
 23 55  1  0
 26 56  1  0
 27 57  1  0
 27 58  1  0
 28 59  1  1
 29 60  1  0
 30 61  1  0
 30 62  1  0
 31 63  1  6
 32 64  1  0
 32 65  1  0
 33 66  1  0
 34 67  1  0
 37 68  1  0
 38 69  1  0
 39 70  1  0
 40 71  1  0
M  CHG  1  26   1
M  END
>  <meeko>  (3) 
{"is_sidechain": [false], "free_energy": -8.237, "intermolecular_energy": -12.316, "internal_energy": -4.202}

$$$$
LIB_CJTUMEIDUUCTSL__M_PUB_ALL__e8__s20260927
     RDKit          3D

 71 74  0  0  0  0  0  0  0  0999 V2000
    6.7140  -16.1280    0.0190 C   0  0  0  0  0  0  0  0  0  0  0  0
    5.6940  -15.1020    0.2370 N   0  0  0  0  0  0  0  0  0  0  0  0
    5.9390  -13.8550    0.8370 C   0  0  0  0  0  0  0  0  0  0  0  0
    6.1830  -13.7910    2.0490 O   0  0  0  0  0  0  0  0  0  0  0  0
    5.9410  -12.5450   -0.0160 C   0  0  0  0  0  0  0  0  0  0  0  0
    6.8390  -12.7730   -1.2640 C   0  0  0  0  0  0  0  0  0  0  0  0
    6.6410  -11.4370    0.7990 C   0  0  0  0  0  0  0  0  0  0  0  0
    4.5410  -12.2010   -0.5540 C   0  0  0  0  0  0  0  0  0  0  0  0
    3.3880  -12.2610    0.2450 C   0  0  0  0  0  0  0  0  0  0  0  0
    2.1170  -11.9430   -0.2690 C   0  0  0  0  0  0  0  0  0  0  0  0
    0.8990  -12.0120    0.6270 C   0  0  0  0  0  0  0  0  0  0  0  0
   -0.2480  -12.2230   -0.0700 F   0  0  0  0  0  0  0  0  0  0  0  0
    0.9730  -13.0060    1.5540 F   0  0  0  0  0  0  0  0  0  0  0  0
    0.7100  -10.8610    1.3310 F   0  0  0  0  0  0  0  0  0  0  0  0
    2.0030  -11.5340   -1.6050 C   0  0  0  0  0  0  0  0  0  0  0  0
    3.1350  -11.4440   -2.4260 C   0  0  0  0  0  0  0  0  0  0  0  0
    3.0260  -11.0150   -3.8720 C   0  0  0  0  0  0  0  0  0  0  0  0
    2.1740  -11.8160   -4.5720 F   0  0  0  0  0  0  0  0  0  0  0  0
    4.2170  -11.0740   -4.5270 F   0  0  0  0  0  0  0  0  0  0  0  0
    2.5660   -9.7460   -4.0330 F   0  0  0  0  0  0  0  0  0  0  0  0
    4.3910  -11.7730   -1.8900 C   0  0  0  0  0  0  0  0  0  0  0  0
    4.3270  -15.5300    0.1200 C   0  0  0  0  0  0  0  0  0  0  0  0
    3.5360  -15.6580    1.2650 C   0  0  0  0  0  0  0  0  0  0  0  0
    2.2200  -15.9880    1.2670 N   0  0  0  0  0  0  0  0  0  0  0  0
    1.6590  -16.2040    0.0680 C   0  0  0  0  0  0  0  0  0  0  0  0
    0.2400  -16.4820    0.0580 N   0  0  0  0  0  0  0  0  0  0  0  0
   -0.4690  -15.7670   -1.0580 C   0  0  0  0  0  0  0  0  0  0  0  0
   -1.8340  -15.4320   -0.4560 C   0  0  1  0  0  0  0  0  0  0  0  0
   -2.6790  -16.5780   -0.5060 O   0  0  0  0  0  0  0  0  0  0  0  0
   -1.5070  -15.1080    0.9940 C   0  0  0  0  0  0  0  0  0  0  0  0
   -0.4380  -16.1330    1.3720 C   0  0  1  0  0  0  0  0  0  0  0  0
   -1.0010  -17.4390    1.9760 C   0  0  0  0  0  0  0  0  0  0  0  0
    0.0370  -18.0810    2.7260 O   0  0  0  0  0  0  0  0  0  0  0  0
    2.3520  -16.1540   -1.1290 C   0  0  0  0  0  0  0  0  0  0  0  0
    3.7160  -15.8070   -1.1250 C   0  0  0  0  0  0  0  0  0  0  0  0
    4.4540  -15.8360   -2.4080 C   0  0  0  0  0  0  0  0  0  0  0  0
    4.4420  -14.6920   -3.2300 C   0  0  0  0  0  0  0  0  0  0  0  0
    5.1360  -14.6620   -4.4430 C   0  0  0  0  0  0  0  0  0  0  0  0
    5.8570  -15.7750   -4.8610 C   0  0  0  0  0  0  0  0  0  0  0  0
    5.8920  -16.9170   -4.0630 C   0  0  0  0  0  0  0  0  0  0  0  0
    5.2050  -16.9490   -2.8450 C   0  0  0  0  0  0  0  0  0  0  0  0
    5.3320  -18.4000   -1.9050 Cl  0  0  0  0  0  0  0  0  0  0  0  0
    7.0786  -16.4947    0.9899 H   0  0  0  0  0  0  0  0  0  0  0  0
    6.2782  -16.9636   -0.5484 H   0  0  0  0  0  0  0  0  0  0  0  0
    7.5521  -15.6971   -0.5484 H   0  0  0  0  0  0  0  0  0  0  0  0
    7.8579  -13.0317   -0.9402 H   0  0  0  0  0  0  0  0  0  0  0  0
    6.4263  -13.5949   -1.8675 H   0  0  0  0  0  0  0  0  0  0  0  0
    6.8683  -11.8538   -1.8675 H   0  0  0  0  0  0  0  0  0  0  0  0
    6.5148  -11.6368    1.8733 H   0  0  0  0  0  0  0  0  0  0  0  0
    7.7129  -11.4220    0.5523 H   0  0  0  0  0  0  0  0  0  0  0  0
    6.1943  -10.4626    0.5523 H   0  0  0  0  0  0  0  0  0  0  0  0
    3.4803  -12.5639    1.2984 H   0  0  0  0  0  0  0  0  0  0  0  0
    1.0136  -11.2808   -2.0135 H   0  0  0  0  0  0  0  0  0  0  0  0
    5.2825  -11.6948   -2.5297 H   0  0  0  0  0  0  0  0  0  0  0  0
    4.0166  -15.4776    2.2379 H   0  0  0  0  0  0  0  0  0  0  0  0
    0.1150  -17.5030   -0.0360 H   0  0  0  0  0  0  0  0  0  0  0  0
    0.0701  -14.8518   -1.3438 H   0  0  0  0  0  0  0  0  0  0  0  0
   -0.5413  -16.3695   -1.9755 H   0  0  0  0  0  0  0  0  0  0  0  0
   -2.3515  -14.6170   -0.9832 H   0  0  0  0  0  0  0  0  0  0  0  0
   -3.4110  -16.4430    0.1270 H   0  0  0  0  0  0  0  0  0  0  0  0
   -1.1165  -14.0839    1.0870 H   0  0  0  0  0  0  0  0  0  0  0  0
   -2.3903  -15.1579    1.6477 H   0  0  0  0  0  0  0  0  0  0  0  0
    0.2202  -15.7020    2.1408 H   0  0  0  0  0  0  0  0  0  0  0  0
   -1.8472  -17.2059    2.6391 H   0  0  0  0  0  0  0  0  0  0  0  0
   -1.3503  -18.1043    1.1726 H   0  0  0  0  0  0  0  0  0  0  0  0
   -0.1720  -19.0370    2.7350 H   0  0  0  0  0  0  0  0  0  0  0  0
    1.8410  -16.3836   -2.0756 H   0  0  0  0  0  0  0  0  0  0  0  0
    3.8753  -13.8048   -2.9110 H   0  0  0  0  0  0  0  0  0  0  0  0
    5.1117  -13.7568   -5.0676 H   0  0  0  0  0  0  0  0  0  0  0  0
    6.3980  -15.7542   -5.8185 H   0  0  0  0  0  0  0  0  0  0  0  0
    6.4628  -17.7977   -4.3926 H   0  0  0  0  0  0  0  0  0  0  0  0
  1  2  1  0
  2  3  1  0
  3  4  2  0
  3  5  1  0
  5  6  1  0
  5  7  1  0
  5  8  1  0
  8  9  2  0
  9 10  1  0
 10 11  1  0
 11 12  1  0
 11 13  1  0
 11 14  1  0
 10 15  2  0
 15 16  1  0
 16 17  1  0
 17 18  1  0
 17 19  1  0
 17 20  1  0
 16 21  2  0
  2 22  1  0
 22 23  2  0
 23 24  1  0
 24 25  2  0
 25 26  1  0
 26 27  1  0
 27 28  1  0
 28 29  1  0
 28 30  1  0
 30 31  1  0
 31 32  1  0
 32 33  1  0
 25 34  1  0
 34 35  2  0
 35 36  1  0
 36 37  2  0
 37 38  1  0
 38 39  2  0
 39 40  1  0
 40 41  2  0
 41 42  1  0
 21  8  1  0
 35 22  1  0
 41 36  1  0
 31 26  1  0
  1 43  1  0
  1 44  1  0
  1 45  1  0
  6 46  1  0
  6 47  1  0
  6 48  1  0
  7 49  1  0
  7 50  1  0
  7 51  1  0
  9 52  1  0
 15 53  1  0
 21 54  1  0
 23 55  1  0
 26 56  1  0
 27 57  1  0
 27 58  1  0
 28 59  1  6
 29 60  1  0
 30 61  1  0
 30 62  1  0
 31 63  1  1
 32 64  1  0
 32 65  1  0
 33 66  1  0
 34 67  1  0
 37 68  1  0
 38 69  1  0
 39 70  1  0
 40 71  1  0
M  CHG  1  26   1
M  END
>  <meeko>  (4) 
{"is_sidechain": [false], "free_energy": -8.235, "intermolecular_energy": -12.221, "internal_energy": -4.294}

$$$$
LIB_CJTUMEIDUUCTSL__M_PUB_ALL__e8__s20260927
     RDKit          3D

 71 74  0  0  0  0  0  0  0  0999 V2000
   -1.7370  -17.7330    2.0750 C   0  0  0  0  0  0  0  0  0  0  0  0
   -1.3000  -16.6080    1.2470 N   0  0  0  0  0  0  0  0  0  0  0  0
   -2.1640  -15.7930    0.4960 C   0  0  0  0  0  0  0  0  0  0  0  0
   -2.4660  -16.1160   -0.6600 O   0  0  0  0  0  0  0  0  0  0  0  0
   -2.7780  -14.4970    1.1150 C   0  0  0  0  0  0  0  0  0  0  0  0
   -2.9450  -14.7150    2.6450 C   0  0  0  0  0  0  0  0  0  0  0  0
   -4.2110  -14.3280    0.5650 C   0  0  0  0  0  0  0  0  0  0  0  0
   -1.8480  -13.2810    0.9560 C   0  0  0  0  0  0  0  0  0  0  0  0
   -0.6490  -13.3360    0.2270 C   0  0  0  0  0  0  0  0  0  0  0  0
    0.1860  -12.2120    0.0960 C   0  0  0  0  0  0  0  0  0  0  0  0
    1.4660  -12.3100   -0.7050 C   0  0  0  0  0  0  0  0  0  0  0  0
    2.5580  -12.4970    0.0820 F   0  0  0  0  0  0  0  0  0  0  0  0
    1.4590  -13.3340   -1.6010 F   0  0  0  0  0  0  0  0  0  0  0  0
    1.7090  -11.1830   -1.4310 F   0  0  0  0  0  0  0  0  0  0  0  0
   -0.2000  -11.0000    0.6880 C   0  0  0  0  0  0  0  0  0  0  0  0
   -1.3990  -10.9040    1.4060 C   0  0  0  0  0  0  0  0  0  0  0  0
   -1.8230   -9.6080    2.0600 C   0  0  0  0  0  0  0  0  0  0  0  0
   -2.5110   -9.8290    3.2160 F   0  0  0  0  0  0  0  0  0  0  0  0
   -2.6460   -8.8670    1.2710 F   0  0  0  0  0  0  0  0  0  0  0  0
   -0.7820   -8.7980    2.3920 F   0  0  0  0  0  0  0  0  0  0  0  0
   -2.2120  -12.0430    1.5270 C   0  0  0  0  0  0  0  0  0  0  0  0
    0.1040  -16.5490    0.9470 C   0  0  0  0  0  0  0  0  0  0  0  0
    0.5790  -17.0440   -0.2720 C   0  0  0  0  0  0  0  0  0  0  0  0
    1.8680  -16.9780   -0.6870 N   0  0  0  0  0  0  0  0  0  0  0  0
    2.7350  -16.3920    0.1520 C   0  0  0  0  0  0  0  0  0  0  0  0
    4.0950  -16.2510   -0.3160 N   0  0  0  0  0  0  0  0  0  0  0  0
    5.0710  -16.0900    0.8160 C   0  0  0  0  0  0  0  0  0  0  0  0
    6.1270  -15.1440    0.2450 C   0  0  1  0  0  0  0  0  0  0  0  0
    7.0340  -15.8720   -0.5790 O   0  0  0  0  0  0  0  0  0  0  0  0
    5.3130  -14.1920   -0.6200 C   0  0  0  0  0  0  0  0  0  0  0  0
    4.2700  -15.0920   -1.2820 C   0  0  1  0  0  0  0  0  0  0  0  0
    4.7090  -15.6710   -2.6440 C   0  0  0  0  0  0  0  0  0  0  0  0
    4.3890  -17.0680   -2.6720 O   0  0  0  0  0  0  0  0  0  0  0  0
    2.3920  -15.9090    1.4030 C   0  0  0  0  0  0  0  0  0  0  0  0
    1.0510  -15.9760    1.8270 C   0  0  0  0  0  0  0  0  0  0  0  0
    0.7230  -15.5240    3.1990 C   0  0  0  0  0  0  0  0  0  0  0  0
    0.3410  -14.1840    3.4040 C   0  0  0  0  0  0  0  0  0  0  0  0
    0.0040  -13.7120    4.6760 C   0  0  0  0  0  0  0  0  0  0  0  0
    0.0430  -14.5690    5.7700 C   0  0  0  0  0  0  0  0  0  0  0  0
    0.4100  -15.9020    5.5930 C   0  0  0  0  0  0  0  0  0  0  0  0
    0.7400  -16.3800    4.3210 C   0  0  0  0  0  0  0  0  0  0  0  0
    1.1530  -18.0590    4.1910 Cl  0  0  0  0  0  0  0  0  0  0  0  0
   -1.6340  -17.4679    3.1376 H   0  0  0  0  0  0  0  0  0  0  0  0
   -2.7899  -17.9631    1.8548 H   0  0  0  0  0  0  0  0  0  0  0  0
   -1.1155  -18.6135    1.8548 H   0  0  0  0  0  0  0  0  0  0  0  0
   -2.3636  -13.9561    3.1891 H   0  0  0  0  0  0  0  0  0  0  0  0
   -4.0078  -14.6254    2.9143 H   0  0  0  0  0  0  0  0  0  0  0  0
   -2.5818  -15.7178    2.9143 H   0  0  0  0  0  0  0  0  0  0  0  0
   -4.9181  -14.2446    1.4035 H   0  0  0  0  0  0  0  0  0  0  0  0
   -4.2627  -13.4175   -0.0501 H   0  0  0  0  0  0  0  0  0  0  0  0
   -4.4730  -15.2015   -0.0501 H   0  0  0  0  0  0  0  0  0  0  0  0
   -0.3558  -14.2812   -0.2532 H   0  0  0  0  0  0  0  0  0  0  0  0
    0.4460  -10.1154    0.5872 H   0  0  0  0  0  0  0  0  0  0  0  0
   -3.1586  -11.9678    2.0822 H   0  0  0  0  0  0  0  0  0  0  0  0
   -0.1480  -17.5228   -0.9445 H   0  0  0  0  0  0  0  0  0  0  0  0
    4.3290  -17.0900   -0.8720 H   0  0  0  0  0  0  0  0  0  0  0  0
    4.5822  -15.6480    1.6967 H   0  0  0  0  0  0  0  0  0  0  0  0
    5.4927  -17.0469    1.1574 H   0  0  0  0  0  0  0  0  0  0  0  0
    6.7191  -14.6374    1.0214 H   0  0  0  0  0  0  0  0  0  0  0  0
    7.0390  -16.8010   -0.2760 H   0  0  0  0  0  0  0  0  0  0  0  0
    4.8286  -13.4208   -0.0031 H   0  0  0  0  0  0  0  0  0  0  0  0
    5.9316  -13.6522   -1.3521 H   0  0  0  0  0  0  0  0  0  0  0  0
    3.3609  -14.5056   -1.4814 H   0  0  0  0  0  0  0  0  0  0  0  0
    4.1773  -15.1528   -3.4556 H   0  0  0  0  0  0  0  0  0  0  0  0
    5.7915  -15.5308   -2.7805 H   0  0  0  0  0  0  0  0  0  0  0  0
    5.0830  -17.5050   -3.2060 H   0  0  0  0  0  0  0  0  0  0  0  0
    3.1606  -15.4765    2.0604 H   0  0  0  0  0  0  0  0  0  0  0  0
    0.3072  -13.4956    2.5467 H   0  0  0  0  0  0  0  0  0  0  0  0
   -0.2924  -12.6614    4.8114 H   0  0  0  0  0  0  0  0  0  0  0  0
   -0.2150  -14.1963    6.7722 H   0  0  0  0  0  0  0  0  0  0  0  0
    0.4402  -16.5810    6.4579 H   0  0  0  0  0  0  0  0  0  0  0  0
  1  2  1  0
  2  3  1  0
  3  4  2  0
  3  5  1  0
  5  6  1  0
  5  7  1  0
  5  8  1  0
  8  9  2  0
  9 10  1  0
 10 11  1  0
 11 12  1  0
 11 13  1  0
 11 14  1  0
 10 15  2  0
 15 16  1  0
 16 17  1  0
 17 18  1  0
 17 19  1  0
 17 20  1  0
 16 21  2  0
  2 22  1  0
 22 23  2  0
 23 24  1  0
 24 25  2  0
 25 26  1  0
 26 27  1  0
 27 28  1  0
 28 29  1  0
 28 30  1  0
 30 31  1  0
 31 32  1  0
 32 33  1  0
 25 34  1  0
 34 35  2  0
 35 36  1  0
 36 37  2  0
 37 38  1  0
 38 39  2  0
 39 40  1  0
 40 41  2  0
 41 42  1  0
 21  8  1  0
 35 22  1  0
 41 36  1  0
 31 26  1  0
  1 43  1  0
  1 44  1  0
  1 45  1  0
  6 46  1  0
  6 47  1  0
  6 48  1  0
  7 49  1  0
  7 50  1  0
  7 51  1  0
  9 52  1  0
 15 53  1  0
 21 54  1  0
 23 55  1  0
 26 56  1  0
 27 57  1  0
 27 58  1  0
 28 59  1  1
 29 60  1  0
 30 61  1  0
 30 62  1  0
 31 63  1  6
 32 64  1  0
 32 65  1  0
 33 66  1  0
 34 67  1  0
 37 68  1  0
 38 69  1  0
 39 70  1  0
 40 71  1  0
M  CHG  1  26   1
M  END
>  <meeko>  (5) 
{"is_sidechain": [false], "free_energy": -8.209, "intermolecular_energy": -12.301, "internal_energy": -4.172}

$$$$
LIB_CJTUMEIDUUCTSL__M_PUB_ALL__e8__s20260927
     RDKit          3D

 71 74  0  0  0  0  0  0  0  0999 V2000
    4.9740  -14.1850   -5.0630 C   0  0  0  0  0  0  0  0  0  0  0  0
    5.1460  -13.1660   -4.0260 N   0  0  0  0  0  0  0  0  0  0  0  0
    4.2260  -12.1370   -3.7640 C   0  0  0  0  0  0  0  0  0  0  0  0
    4.2540  -11.0990   -4.4380 O   0  0  0  0  0  0  0  0  0  0  0  0
    3.1410  -12.3000   -2.6510 C   0  0  0  0  0  0  0  0  0  0  0  0
    2.2780  -13.5490   -2.9860 C   0  0  0  0  0  0  0  0  0  0  0  0
    2.1760  -11.0980   -2.7350 C   0  0  0  0  0  0  0  0  0  0  0  0
    3.7630  -12.5690   -1.2690 C   0  0  0  0  0  0  0  0  0  0  0  0
    4.8950  -11.8800   -0.8030 C   0  0  0  0  0  0  0  0  0  0  0  0
    5.4480  -12.1430    0.4640 C   0  0  0  0  0  0  0  0  0  0  0  0
    6.6630  -11.3730    0.9340 C   0  0  0  0  0  0  0  0  0  0  0  0
    7.4870  -12.1260    1.7090 F   0  0  0  0  0  0  0  0  0  0  0  0
    7.4250  -10.9010   -0.0900 F   0  0  0  0  0  0  0  0  0  0  0  0
    6.3280  -10.2850    1.6810 F   0  0  0  0  0  0  0  0  0  0  0  0
    4.8390  -13.0980    1.2910 C   0  0  0  0  0  0  0  0  0  0  0  0
    3.6970  -13.7900    0.8660 C   0  0  0  0  0  0  0  0  0  0  0  0
    3.0370  -14.8320    1.7400 C   0  0  0  0  0  0  0  0  0  0  0  0
    1.7490  -15.0650    1.3610 F   0  0  0  0  0  0  0  0  0  0  0  0
    2.9800  -14.4610    3.0470 F   0  0  0  0  0  0  0  0  0  0  0  0
    3.6600  -16.0410    1.7140 F   0  0  0  0  0  0  0  0  0  0  0  0
    3.1690  -13.5140   -0.4070 C   0  0  0  0  0  0  0  0  0  0  0  0
    6.4680  -13.0370   -3.4780 C   0  0  0  0  0  0  0  0  0  0  0  0
    7.1910  -11.8550   -3.6720 C   0  0  0  0  0  0  0  0  0  0  0  0
    8.4140  -11.5980   -3.1450 N   0  0  0  0  0  0  0  0  0  0  0  0
    8.9510  -12.5650   -2.3870 C   0  0  0  0  0  0  0  0  0  0  0  0
   10.2200  -12.2680   -1.7610 N   0  0  0  0  0  0  0  0  0  0  0  0
   11.3790  -12.5150   -2.6850 C   0  0  0  0  0  0  0  0  0  0  0  0
   12.4820  -13.0100   -1.7500 C   0  0  1  0  0  0  0  0  0  0  0  0
   13.0960  -11.9020   -1.0970 O   0  0  0  0  0  0  0  0  0  0  0  0
   11.7240  -13.8430   -0.7250 C   0  0  0  0  0  0  0  0  0  0  0  0
   10.4420  -13.0480   -0.4770 C   0  0  1  0  0  0  0  0  0  0  0  0
   10.5420  -12.0340    0.6830 C   0  0  0  0  0  0  0  0  0  0  0  0
   11.1310  -12.6890    1.8140 O   0  0  0  0  0  0  0  0  0  0  0  0
    8.3520  -13.7930   -2.1640 C   0  0  0  0  0  0  0  0  0  0  0  0
    7.0810  -14.0520   -2.7090 C   0  0  0  0  0  0  0  0  0  0  0  0
    6.4960  -15.4000   -2.5220 C   0  0  0  0  0  0  0  0  0  0  0  0
    5.5790  -15.6080   -1.4730 C   0  0  0  0  0  0  0  0  0  0  0  0
    4.9850  -16.8560   -1.2640 C   0  0  0  0  0  0  0  0  0  0  0  0
    5.2970  -17.9240   -2.0990 C   0  0  0  0  0  0  0  0  0  0  0  0
    6.1940  -17.7430   -3.1500 C   0  0  0  0  0  0  0  0  0  0  0  0
    6.7850  -16.4940   -3.3670 C   0  0  0  0  0  0  0  0  0  0  0  0
    7.8650  -16.3550   -4.7160 Cl  0  0  0  0  0  0  0  0  0  0  0  0
    4.8087  -15.1646   -4.5907 H   0  0  0  0  0  0  0  0  0  0  0  0
    4.1064  -13.9286   -5.6888 H   0  0  0  0  0  0  0  0  0  0  0  0
    5.8777  -14.2275   -5.6888 H   0  0  0  0  0  0  0  0  0  0  0  0
    1.9474  -14.0274   -2.0523 H   0  0  0  0  0  0  0  0  0  0  0  0
    1.3991  -13.2411   -3.5714 H   0  0  0  0  0  0  0  0  0  0  0  0
    2.8769  -14.2622   -3.5714 H   0  0  0  0  0  0  0  0  0  0  0  0
    1.9115  -10.7685   -1.7194 H   0  0  0  0  0  0  0  0  0  0  0  0
    2.6648  -10.2722   -3.2727 H   0  0  0  0  0  0  0  0  0  0  0  0
    1.2641  -11.3968   -3.2727 H   0  0  0  0  0  0  0  0  0  0  0  0
    5.3603  -11.1166   -1.4438 H   0  0  0  0  0  0  0  0  0  0  0  0
    5.2626  -13.3062    2.2846 H   0  0  0  0  0  0  0  0  0  0  0  0
    2.2678  -14.0497   -0.7400 H   0  0  0  0  0  0  0  0  0  0  0  0
    6.7332  -11.0757   -4.2990 H   0  0  0  0  0  0  0  0  0  0  0  0
   10.2050  -11.2780   -1.4640 H   0  0  0  0  0  0  0  0  0  0  0  0
   11.1276  -13.2790   -3.4354 H   0  0  0  0  0  0  0  0  0  0  0  0
   11.6703  -11.6206   -3.2552 H   0  0  0  0  0  0  0  0  0  0  0  0
   13.2742  -13.5669   -2.2719 H   0  0  0  0  0  0  0  0  0  0  0  0
   13.3190  -11.2360   -1.7760 H   0  0  0  0  0  0  0  0  0  0  0  0
   11.4937  -14.8412   -1.1257 H   0  0  0  0  0  0  0  0  0  0  0  0
   12.3026  -14.0108    0.1953 H   0  0  0  0  0  0  0  0  0  0  0  0
    9.6338  -13.7422   -0.2033 H   0  0  0  0  0  0  0  0  0  0  0  0
   11.1700  -11.1837    0.3787 H   0  0  0  0  0  0  0  0  0  0  0  0
    9.5403  -11.6619    0.9440 H   0  0  0  0  0  0  0  0  0  0  0  0
   11.9610  -12.2100    2.0160 H   0  0  0  0  0  0  0  0  0  0  0  0
    8.8655  -14.5600   -1.5656 H   0  0  0  0  0  0  0  0  0  0  0  0
    5.3253  -14.7717   -0.8050 H   0  0  0  0  0  0  0  0  0  0  0  0
    4.2706  -16.9936   -0.4390 H   0  0  0  0  0  0  0  0  0  0  0  0
    4.8369  -18.9088   -1.9301 H   0  0  0  0  0  0  0  0  0  0  0  0
    6.4385  -18.5866   -3.8123 H   0  0  0  0  0  0  0  0  0  0  0  0
  1  2  1  0
  2  3  1  0
  3  4  2  0
  3  5  1  0
  5  6  1  0
  5  7  1  0
  5  8  1  0
  8  9  2  0
  9 10  1  0
 10 11  1  0
 11 12  1  0
 11 13  1  0
 11 14  1  0
 10 15  2  0
 15 16  1  0
 16 17  1  0
 17 18  1  0
 17 19  1  0
 17 20  1  0
 16 21  2  0
  2 22  1  0
 22 23  2  0
 23 24  1  0
 24 25  2  0
 25 26  1  0
 26 27  1  0
 27 28  1  0
 28 29  1  0
 28 30  1  0
 30 31  1  0
 31 32  1  0
 32 33  1  0
 25 34  1  0
 34 35  2  0
 35 36  1  0
 36 37  2  0
 37 38  1  0
 38 39  2  0
 39 40  1  0
 40 41  2  0
 41 42  1  0
 21  8  1  0
 35 22  1  0
 41 36  1  0
 31 26  1  0
  1 43  1  0
  1 44  1  0
  1 45  1  0
  6 46  1  0
  6 47  1  0
  6 48  1  0
  7 49  1  0
  7 50  1  0
  7 51  1  0
  9 52  1  0
 15 53  1  0
 21 54  1  0
 23 55  1  0
 26 56  1  0
 27 57  1  0
 27 58  1  0
 28 59  1  6
 29 60  1  0
 30 61  1  0
 30 62  1  0
 31 63  1  1
 32 64  1  0
 32 65  1  0
 33 66  1  0
 34 67  1  0
 37 68  1  0
 38 69  1  0
 39 70  1  0
 40 71  1  0
M  CHG  1  26   1
M  END
>  <meeko>  (6) 
{"is_sidechain": [false], "free_energy": -8.137, "intermolecular_energy": -12.535, "internal_energy": -3.825}

$$$$
LIB_CJTUMEIDUUCTSL__M_PUB_ALL__e8__s20260927
     RDKit          3D

 71 74  0  0  0  0  0  0  0  0999 V2000
    2.8090  -11.8710   -0.9670 C   0  0  0  0  0  0  0  0  0  0  0  0
    3.5440  -12.5970   -2.0040 N   0  0  0  0  0  0  0  0  0  0  0  0
    2.9700  -13.5470   -2.8650 C   0  0  0  0  0  0  0  0  0  0  0  0
    2.4940  -14.5920   -2.4010 O   0  0  0  0  0  0  0  0  0  0  0  0
    2.8940  -13.2870   -4.4040 C   0  0  0  0  0  0  0  0  0  0  0  0
    2.8720  -11.7510   -4.6410 C   0  0  0  0  0  0  0  0  0  0  0  0
    1.5320  -13.8020   -4.9160 C   0  0  0  0  0  0  0  0  0  0  0  0
    4.1350  -13.8160   -5.1440 C   0  0  0  0  0  0  0  0  0  0  0  0
    4.6480  -13.1980   -6.2970 C   0  0  0  0  0  0  0  0  0  0  0  0
    5.7830  -13.7000   -6.9590 C   0  0  0  0  0  0  0  0  0  0  0  0
    6.3100  -13.0010   -8.1930 C   0  0  0  0  0  0  0  0  0  0  0  0
    5.6880  -13.4120   -9.3290 F   0  0  0  0  0  0  0  0  0  0  0  0
    6.1640  -11.6480   -8.1440 F   0  0  0  0  0  0  0  0  0  0  0  0
    7.6400  -13.2250   -8.3860 F   0  0  0  0  0  0  0  0  0  0  0  0
    6.4320  -14.8310   -6.4420 C   0  0  0  0  0  0  0  0  0  0  0  0
    5.9600  -15.4610   -5.2830 C   0  0  0  0  0  0  0  0  0  0  0  0
    6.6410  -16.6880   -4.7200 C   0  0  0  0  0  0  0  0  0  0  0  0
    5.7400  -17.5770   -4.2140 F   0  0  0  0  0  0  0  0  0  0  0  0
    7.4900  -16.3940   -3.6990 F   0  0  0  0  0  0  0  0  0  0  0  0
    7.3720  -17.3750   -5.6380 F   0  0  0  0  0  0  0  0  0  0  0  0
    4.8200  -14.9430   -4.6450 C   0  0  0  0  0  0  0  0  0  0  0  0
    4.9770  -12.5600   -1.9090 C   0  0  0  0  0  0  0  0  0  0  0  0
    5.6910  -11.5280   -2.5270 C   0  0  0  0  0  0  0  0  0  0  0  0
    7.0330  -11.3560   -2.4460 N   0  0  0  0  0  0  0  0  0  0  0  0
    7.7060  -12.2570   -1.7160 C   0  0  0  0  0  0  0  0  0  0  0  0
    9.1270  -12.0370   -1.5640 N   0  0  0  0  0  0  0  0  0  0  0  0
    9.8670  -12.1970   -2.8620 C   0  0  0  0  0  0  0  0  0  0  0  0
   11.2080  -12.7960   -2.4370 C   0  0  1  0  0  0  0  0  0  0  0  0
   12.0640  -11.7660   -1.9490 O   0  0  0  0  0  0  0  0  0  0  0  0
   10.8290  -13.7230   -1.2910 C   0  0  0  0  0  0  0  0  0  0  0  0
    9.7580  -12.9480   -0.5250 C   0  0  1  0  0  0  0  0  0  0  0  0
   10.3110  -12.0600    0.6110 C   0  0  0  0  0  0  0  0  0  0  0  0
   11.2030  -12.8450    1.4130 O   0  0  0  0  0  0  0  0  0  0  0  0
    7.1160  -13.3460   -1.0990 C   0  0  0  0  0  0  0  0  0  0  0  0
    5.7210  -13.5170   -1.1810 C   0  0  0  0  0  0  0  0  0  0  0  0
    5.1230  -14.7300   -0.5800 C   0  0  0  0  0  0  0  0  0  0  0  0
    5.1890  -15.9470   -1.2870 C   0  0  0  0  0  0  0  0  0  0  0  0
    4.6560  -17.1250   -0.7570 C   0  0  0  0  0  0  0  0  0  0  0  0
    4.0430  -17.1120    0.4910 C   0  0  0  0  0  0  0  0  0  0  0  0
    3.9720  -15.9240    1.2160 C   0  0  0  0  0  0  0  0  0  0  0  0
    4.5110  -14.7440    0.6920 C   0  0  0  0  0  0  0  0  0  0  0  0
    4.4030  -13.3210    1.6770 Cl  0  0  0  0  0  0  0  0  0  0  0  0
    3.1476  -12.2055    0.0247 H   0  0  0  0  0  0  0  0  0  0  0  0
    2.9947  -10.7920   -1.0732 H   0  0  0  0  0  0  0  0  0  0  0  0
    1.7324  -12.0700   -1.0732 H   0  0  0  0  0  0  0  0  0  0  0  0
    2.8645  -11.2305   -3.6719 H   0  0  0  0  0  0  0  0  0  0  0  0
    3.7660  -11.4549   -5.2094 H   0  0  0  0  0  0  0  0  0  0  0  0
    1.9699  -11.4806   -5.2094 H   0  0  0  0  0  0  0  0  0  0  0  0
    0.8867  -14.0460   -4.0593 H   0  0  0  0  0  0  0  0  0  0  0  0
    1.0517  -13.0234   -5.5268 H   0  0  0  0  0  0  0  0  0  0  0  0
    1.6870  -14.7036   -5.5268 H   0  0  0  0  0  0  0  0  0  0  0  0
    4.1500  -12.3000   -6.6914 H   0  0  0  0  0  0  0  0  0  0  0  0
    7.3219  -15.2279   -6.9525 H   0  0  0  0  0  0  0  0  0  0  0  0
    4.4516  -15.4306   -3.7304 H   0  0  0  0  0  0  0  0  0  0  0  0
    5.1203  -10.8012   -3.1237 H   0  0  0  0  0  0  0  0  0  0  0  0
    9.2640  -11.0830   -1.1910 H   0  0  0  0  0  0  0  0  0  0  0  0
    9.3298  -12.8769   -3.5396 H   0  0  0  0  0  0  0  0  0  0  0  0
    9.9757  -11.2509   -3.4126 H   0  0  0  0  0  0  0  0  0  0  0  0
   11.7358  -13.3035   -3.2579 H   0  0  0  0  0  0  0  0  0  0  0  0
   11.6250  -11.3440   -1.1840 H   0  0  0  0  0  0  0  0  0  0  0  0
   10.4259  -14.6724   -1.6734 H   0  0  0  0  0  0  0  0  0  0  0  0
   11.6901  -13.9895   -0.6605 H   0  0  0  0  0  0  0  0  0  0  0  0
    9.0710  -13.6604   -0.0450 H   0  0  0  0  0  0  0  0  0  0  0  0
   10.8539  -11.2049    0.1819 H   0  0  0  0  0  0  0  0  0  0  0  0
    9.4833  -11.6828    1.2296 H   0  0  0  0  0  0  0  0  0  0  0  0
   11.7090  -12.2180    1.9680 H   0  0  0  0  0  0  0  0  0  0  0  0
    7.7321  -14.0724   -0.5488 H   0  0  0  0  0  0  0  0  0  0  0  0
    5.6698  -15.9703   -2.2761 H   0  0  0  0  0  0  0  0  0  0  0  0
    4.7214  -18.0632   -1.3275 H   0  0  0  0  0  0  0  0  0  0  0  0
    3.6152  -18.0370    0.9049 H   0  0  0  0  0  0  0  0  0  0  0  0
    3.4900  -15.9139    2.2047 H   0  0  0  0  0  0  0  0  0  0  0  0
  1  2  1  0
  2  3  1  0
  3  4  2  0
  3  5  1  0
  5  6  1  0
  5  7  1  0
  5  8  1  0
  8  9  2  0
  9 10  1  0
 10 11  1  0
 11 12  1  0
 11 13  1  0
 11 14  1  0
 10 15  2  0
 15 16  1  0
 16 17  1  0
 17 18  1  0
 17 19  1  0
 17 20  1  0
 16 21  2  0
  2 22  1  0
 22 23  2  0
 23 24  1  0
 24 25  2  0
 25 26  1  0
 26 27  1  0
 27 28  1  0
 28 29  1  0
 28 30  1  0
 30 31  1  0
 31 32  1  0
 32 33  1  0
 25 34  1  0
 34 35  2  0
 35 36  1  0
 36 37  2  0
 37 38  1  0
 38 39  2  0
 39 40  1  0
 40 41  2  0
 41 42  1  0
 21  8  1  0
 35 22  1  0
 41 36  1  0
 31 26  1  0
  1 43  1  0
  1 44  1  0
  1 45  1  0
  6 46  1  0
  6 47  1  0
  6 48  1  0
  7 49  1  0
  7 50  1  0
  7 51  1  0
  9 52  1  0
 15 53  1  0
 21 54  1  0
 23 55  1  0
 26 56  1  0
 27 57  1  0
 27 58  1  0
 28 59  1  6
 29 60  1  0
 30 61  1  0
 30 62  1  0
 31 63  1  1
 32 64  1  0
 32 65  1  0
 33 66  1  0
 34 67  1  0
 37 68  1  0
 38 69  1  0
 39 70  1  0
 40 71  1  0
M  CHG  1  26   1
M  END
>  <meeko>  (7) 
{"is_sidechain": [false], "free_energy": -8.069, "intermolecular_energy": -12.792, "internal_energy": -3.459}

$$$$
LIB_CJTUMEIDUUCTSL__M_PUB_ALL__e8__s20260927
     RDKit          3D

 71 74  0  0  0  0  0  0  0  0999 V2000
    4.8540  -14.2020   -4.9470 C   0  0  0  0  0  0  0  0  0  0  0  0
    5.0440  -13.1620   -3.9350 N   0  0  0  0  0  0  0  0  0  0  0  0
    4.1340  -12.1190   -3.6900 C   0  0  0  0  0  0  0  0  0  0  0  0
    4.1910  -11.0800   -4.3610 O   0  0  0  0  0  0  0  0  0  0  0  0
    3.0260  -12.2680   -2.5990 C   0  0  0  0  0  0  0  0  0  0  0  0
    2.1340  -13.4870   -2.9670 C   0  0  0  0  0  0  0  0  0  0  0  0
    2.0950  -11.0380   -2.6810 C   0  0  0  0  0  0  0  0  0  0  0  0
    3.6150  -12.5730   -1.2100 C   0  0  0  0  0  0  0  0  0  0  0  0
    3.0810  -13.5580   -0.3630 C   0  0  0  0  0  0  0  0  0  0  0  0
    3.6350  -13.8200    0.9040 C   0  0  0  0  0  0  0  0  0  0  0  0
    3.0360  -14.8950    1.7840 C   0  0  0  0  0  0  0  0  0  0  0  0
    2.8610  -14.4800    3.0660 F   0  0  0  0  0  0  0  0  0  0  0  0
    1.8200  -15.3250    1.3500 F   0  0  0  0  0  0  0  0  0  0  0  0
    3.8220  -16.0070    1.8480 F   0  0  0  0  0  0  0  0  0  0  0  0
    4.7620  -13.0960    1.3200 C   0  0  0  0  0  0  0  0  0  0  0  0
    5.3320  -12.1200    0.4920 C   0  0  0  0  0  0  0  0  0  0  0  0
    6.5400  -11.3230    0.9320 C   0  0  0  0  0  0  0  0  0  0  0  0
    7.2650  -10.8790   -0.1330 F   0  0  0  0  0  0  0  0  0  0  0  0
    7.4000  -12.0510    1.6930 F   0  0  0  0  0  0  0  0  0  0  0  0
    6.2280  -10.2170    1.6600 F   0  0  0  0  0  0  0  0  0  0  0  0
    4.7560  -11.8730   -0.7650 C   0  0  0  0  0  0  0  0  0  0  0  0
    6.3720  -13.0300   -3.4020 C   0  0  0  0  0  0  0  0  0  0  0  0
    7.0860  -11.8430   -3.5960 C   0  0  0  0  0  0  0  0  0  0  0  0
    8.3140  -11.5840   -3.0810 N   0  0  0  0  0  0  0  0  0  0  0  0
    8.8650  -12.5540   -2.3370 C   0  0  0  0  0  0  0  0  0  0  0  0
   10.1390  -12.2550   -1.7240 N   0  0  0  0  0  0  0  0  0  0  0  0
   11.2880  -12.4770   -2.6680 C   0  0  0  0  0  0  0  0  0  0  0  0
   12.4090  -12.9770   -1.7570 C   0  0  1  0  0  0  0  0  0  0  0  0
   13.0210  -11.8740   -1.0940 O   0  0  0  0  0  0  0  0  0  0  0  0
   11.6730  -13.8330   -0.7360 C   0  0  0  0  0  0  0  0  0  0  0  0
   10.3870  -13.0550   -0.4570 C   0  0  1  0  0  0  0  0  0  0  0  0
   10.4940  -12.0590    0.7190 C   0  0  0  0  0  0  0  0  0  0  0  0
   11.1810  -12.7010    1.8010 O   0  0  0  0  0  0  0  0  0  0  0  0
    8.2750  -13.7870   -2.1160 C   0  0  0  0  0  0  0  0  0  0  0  0
    6.9980  -14.0480   -2.6480 C   0  0  0  0  0  0  0  0  0  0  0  0
    6.4220  -15.4000   -2.4650 C   0  0  0  0  0  0  0  0  0  0  0  0
    5.4980  -15.6130   -1.4230 C   0  0  0  0  0  0  0  0  0  0  0  0
    4.9120  -16.8650   -1.2170 C   0  0  0  0  0  0  0  0  0  0  0  0
    5.2380  -17.9320   -2.0480 C   0  0  0  0  0  0  0  0  0  0  0  0
    6.1420  -17.7460   -3.0920 C   0  0  0  0  0  0  0  0  0  0  0  0
    6.7250  -16.4920   -3.3060 C   0  0  0  0  0  0  0  0  0  0  0  0
    7.8150  -16.3460   -4.6460 Cl  0  0  0  0  0  0  0  0  0  0  0  0
    4.6775  -15.1680   -4.4514 H   0  0  0  0  0  0  0  0  0  0  0  0
    3.9873  -13.9484   -5.5751 H   0  0  0  0  0  0  0  0  0  0  0  0
    5.7544  -14.2712   -5.5751 H   0  0  0  0  0  0  0  0  0  0  0  0
    1.7787  -13.9726   -2.0462 H   0  0  0  0  0  0  0  0  0  0  0  0
    1.2713  -13.1451   -3.5576 H   0  0  0  0  0  0  0  0  0  0  0  0
    2.7209  -14.2058   -3.5576 H   0  0  0  0  0  0  0  0  0  0  0  0
    1.8408  -10.7022   -1.6648 H   0  0  0  0  0  0  0  0  0  0  0  0
    2.6068  -10.2259   -3.2183 H   0  0  0  0  0  0  0  0  0  0  0  0
    1.1745  -11.3100   -3.2183 H   0  0  0  0  0  0  0  0  0  0  0  0
    2.2088  -14.1386   -0.6980 H   0  0  0  0  0  0  0  0  0  0  0  0
    5.2033  -13.2967    2.3074 H   0  0  0  0  0  0  0  0  0  0  0  0
    5.2069  -11.1131   -1.4202 H   0  0  0  0  0  0  0  0  0  0  0  0
    6.6170  -11.0615   -4.2119 H   0  0  0  0  0  0  0  0  0  0  0  0
   10.1200  -11.2710   -1.4110 H   0  0  0  0  0  0  0  0  0  0  0  0
   11.0328  -13.2311   -3.4271 H   0  0  0  0  0  0  0  0  0  0  0  0
   11.5634  -11.5707   -3.2273 H   0  0  0  0  0  0  0  0  0  0  0  0
   13.1991  -13.5175   -2.2989 H   0  0  0  0  0  0  0  0  0  0  0  0
   13.0700  -12.0820   -0.1400 H   0  0  0  0  0  0  0  0  0  0  0  0
   11.4465  -14.8267   -1.1499 H   0  0  0  0  0  0  0  0  0  0  0  0
   12.2659  -14.0097    0.1735 H   0  0  0  0  0  0  0  0  0  0  0  0
    9.5896  -13.7620   -0.1844 H   0  0  0  0  0  0  0  0  0  0  0  0
   11.0552  -11.1682    0.4003 H   0  0  0  0  0  0  0  0  0  0  0  0
    9.4890  -11.7501    1.0425 H   0  0  0  0  0  0  0  0  0  0  0  0
   10.5460  -12.7590    2.5430 H   0  0  0  0  0  0  0  0  0  0  0  0
    8.7995  -14.5559   -1.5298 H   0  0  0  0  0  0  0  0  0  0  0  0
    5.2326  -14.7775   -0.7585 H   0  0  0  0  0  0  0  0  0  0  0  0
    4.1925  -17.0068   -0.3972 H   0  0  0  0  0  0  0  0  0  0  0  0
    4.7834  -18.9197   -1.8814 H   0  0  0  0  0  0  0  0  0  0  0  0
    6.3985  -18.5887   -3.7509 H   0  0  0  0  0  0  0  0  0  0  0  0
  1  2  1  0
  2  3  1  0
  3  4  2  0
  3  5  1  0
  5  6  1  0
  5  7  1  0
  5  8  1  0
  8  9  2  0
  9 10  1  0
 10 11  1  0
 11 12  1  0
 11 13  1  0
 11 14  1  0
 10 15  2  0
 15 16  1  0
 16 17  1  0
 17 18  1  0
 17 19  1  0
 17 20  1  0
 16 21  2  0
  2 22  1  0
 22 23  2  0
 23 24  1  0
 24 25  2  0
 25 26  1  0
 26 27  1  0
 27 28  1  0
 28 29  1  0
 28 30  1  0
 30 31  1  0
 31 32  1  0
 32 33  1  0
 25 34  1  0
 34 35  2  0
 35 36  1  0
 36 37  2  0
 37 38  1  0
 38 39  2  0
 39 40  1  0
 40 41  2  0
 41 42  1  0
 21  8  1  0
 35 22  1  0
 41 36  1  0
 31 26  1  0
  1 43  1  0
  1 44  1  0
  1 45  1  0
  6 46  1  0
  6 47  1  0
  6 48  1  0
  7 49  1  0
  7 50  1  0
  7 51  1  0
  9 52  1  0
 15 53  1  0
 21 54  1  0
 23 55  1  0
 26 56  1  0
 27 57  1  0
 27 58  1  0
 28 59  1  6
 29 60  1  0
 30 61  1  0
 30 62  1  0
 31 63  1  1
 32 64  1  0
 32 65  1  0
 33 66  1  0
 34 67  1  0
 37 68  1  0
 38 69  1  0
 39 70  1  0
 40 71  1  0
M  CHG  1  26   1
M  END
>  <meeko>  (8) 
{"is_sidechain": [false], "free_energy": -8.05, "intermolecular_energy": -12.534, "internal_energy": -3.687}

$$$$
LIB_CJTUMEIDUUCTSL__M_PUB_ALL__e8__s20260927
     RDKit          3D

 71 74  0  0  0  0  0  0  0  0999 V2000
    4.6930  -15.9570   -1.9640 C   0  0  0  0  0  0  0  0  0  0  0  0
    4.9070  -14.9050   -0.9700 N   0  0  0  0  0  0  0  0  0  0  0  0
    3.8950  -14.3620   -0.1600 C   0  0  0  0  0  0  0  0  0  0  0  0
    4.1960  -13.7230    0.8570 O   0  0  0  0  0  0  0  0  0  0  0  0
    2.3900  -14.5240   -0.5460 C   0  0  0  0  0  0  0  0  0  0  0  0
    1.9120  -15.9280   -0.0820 C   0  0  0  0  0  0  0  0  0  0  0  0
    2.2840  -14.5420   -2.0870 C   0  0  0  0  0  0  0  0  0  0  0  0
    1.4910  -13.5060    0.1770 C   0  0  0  0  0  0  0  0  0  0  0  0
    1.1650  -12.2570   -0.3770 C   0  0  0  0  0  0  0  0  0  0  0  0
    0.3430  -11.3400    0.3030 C   0  0  0  0  0  0  0  0  0  0  0  0
    0.0080  -10.0080   -0.3320 C   0  0  0  0  0  0  0  0  0  0  0  0
    0.6680   -9.8110   -1.5030 F   0  0  0  0  0  0  0  0  0  0  0  0
   -1.3170   -9.8660   -0.6090 F   0  0  0  0  0  0  0  0  0  0  0  0
    0.3350   -8.9570    0.4700 F   0  0  0  0  0  0  0  0  0  0  0  0
   -0.1840  -11.6920    1.5550 C   0  0  0  0  0  0  0  0  0  0  0  0
    0.1040  -12.9370    2.1290 C   0  0  0  0  0  0  0  0  0  0  0  0
   -0.4460  -13.3270    3.4820 C   0  0  0  0  0  0  0  0  0  0  0  0
    0.4750  -14.0030    4.2250 F   0  0  0  0  0  0  0  0  0  0  0  0
   -1.5280  -14.1460    3.3930 F   0  0  0  0  0  0  0  0  0  0  0  0
   -0.8320  -12.2660    4.2400 F   0  0  0  0  0  0  0  0  0  0  0  0
    0.9340  -13.8320    1.4310 C   0  0  0  0  0  0  0  0  0  0  0  0
    6.1460  -14.1840   -1.0660 C   0  0  0  0  0  0  0  0  0  0  0  0
    7.2210  -14.5320   -0.2410 C   0  0  0  0  0  0  0  0  0  0  0  0
    8.4530  -13.9670   -0.2920 N   0  0  0  0  0  0  0  0  0  0  0  0
    8.6280  -13.0040   -1.2090 C   0  0  0  0  0  0  0  0  0  0  0  0
    9.9600  -12.4510   -1.3200 N   0  0  0  0  0  0  0  0  0  0  0  0
   10.3820  -12.2740   -2.7520 C   0  0  0  0  0  0  0  0  0  0  0  0
   11.8840  -12.5590   -2.7190 C   0  0  1  0  0  0  0  0  0  0  0  0
   12.5840  -11.4080   -2.2540 O   0  0  0  0  0  0  0  0  0  0  0  0
   12.0060  -13.6740   -1.6900 C   0  0  0  0  0  0  0  0  0  0  0  0
   11.0070  -13.2840   -0.6010 C   0  0  1  0  0  0  0  0  0  0  0  0
   11.6090  -12.4180    0.5280 C   0  0  0  0  0  0  0  0  0  0  0  0
   10.7660  -12.5220    1.6830 O   0  0  0  0  0  0  0  0  0  0  0  0
    7.6270  -12.5430   -2.0460 C   0  0  0  0  0  0  0  0  0  0  0  0
    6.3520  -13.1360   -1.9920 C   0  0  0  0  0  0  0  0  0  0  0  0
    5.2770  -12.5740   -2.8410 C   0  0  0  0  0  0  0  0  0  0  0  0
    4.4650  -11.5450   -2.3230 C   0  0  0  0  0  0  0  0  0  0  0  0
    3.4480  -10.9680   -3.0880 C   0  0  0  0  0  0  0  0  0  0  0  0
    3.2200  -11.4070   -4.3880 C   0  0  0  0  0  0  0  0  0  0  0  0
    4.0140  -12.4170   -4.9280 C   0  0  0  0  0  0  0  0  0  0  0  0
    5.0380  -12.9920   -4.1670 C   0  0  0  0  0  0  0  0  0  0  0  0
    5.9950  -14.2200   -4.9310 Cl  0  0  0  0  0  0  0  0  0  0  0  0
    4.4989  -16.9111   -1.4521 H   0  0  0  0  0  0  0  0  0  0  0  0
    3.8295  -15.6964   -2.5936 H   0  0  0  0  0  0  0  0  0  0  0  0
    5.5897  -16.0545   -2.5936 H   0  0  0  0  0  0  0  0  0  0  0  0
    1.8990  -15.9661    1.0173 H   0  0  0  0  0  0  0  0  0  0  0  0
    0.8991  -16.1164   -0.4674 H   0  0  0  0  0  0  0  0  0  0  0  0
    2.5995  -16.6953   -0.4674 H   0  0  0  0  0  0  0  0  0  0  0  0
    1.2389  -14.7195   -2.3806 H   0  0  0  0  0  0  0  0  0  0  0  0
    2.6185  -13.5742   -2.4889 H   0  0  0  0  0  0  0  0  0  0  0  0
    2.9192  -15.3451   -2.4889 H   0  0  0  0  0  0  0  0  0  0  0  0
    1.5624  -11.9893   -1.3672 H   0  0  0  0  0  0  0  0  0  0  0  0
   -0.8306  -10.9823    2.0918 H   0  0  0  0  0  0  0  0  0  0  0  0
    1.1550  -14.8137    1.8754 H   0  0  0  0  0  0  0  0  0  0  0  0
    7.0546  -15.3231    0.5049 H   0  0  0  0  0  0  0  0  0  0  0  0
    9.9700  -11.5420   -0.8300 H   0  0  0  0  0  0  0  0  0  0  0  0
    9.8606  -12.9878   -3.4067 H   0  0  0  0  0  0  0  0  0  0  0  0
   10.1438  -11.2761   -3.1488 H   0  0  0  0  0  0  0  0  0  0  0  0
   12.2968  -12.8217   -3.7042 H   0  0  0  0  0  0  0  0  0  0  0  0
   12.0520  -10.9940   -1.5460 H   0  0  0  0  0  0  0  0  0  0  0  0
   11.7417  -14.6455   -2.1331 H   0  0  0  0  0  0  0  0  0  0  0  0
   13.0304  -13.7839   -1.3047 H   0  0  0  0  0  0  0  0  0  0  0  0
   10.6291  -14.1956   -0.1150 H   0  0  0  0  0  0  0  0  0  0  0  0
   12.6191  -12.7782    0.7728 H   0  0  0  0  0  0  0  0  0  0  0  0
   11.6738  -11.3690    0.2032 H   0  0  0  0  0  0  0  0  0  0  0  0
   11.2270  -13.1120    2.3150 H   0  0  0  0  0  0  0  0  0  0  0  0
    7.8264  -11.7197   -2.7478 H   0  0  0  0  0  0  0  0  0  0  0  0
    4.6353  -11.1891   -1.2962 H   0  0  0  0  0  0  0  0  0  0  0  0
    2.8273  -10.1661   -2.6619 H   0  0  0  0  0  0  0  0  0  0  0  0
    2.4150  -10.9581   -4.9884 H   0  0  0  0  0  0  0  0  0  0  0  0
    3.8351  -12.7636   -5.9565 H   0  0  0  0  0  0  0  0  0  0  0  0
  1  2  1  0
  2  3  1  0
  3  4  2  0
  3  5  1  0
  5  6  1  0
  5  7  1  0
  5  8  1  0
  8  9  2  0
  9 10  1  0
 10 11  1  0
 11 12  1  0
 11 13  1  0
 11 14  1  0
 10 15  2  0
 15 16  1  0
 16 17  1  0
 17 18  1  0
 17 19  1  0
 17 20  1  0
 16 21  2  0
  2 22  1  0
 22 23  2  0
 23 24  1  0
 24 25  2  0
 25 26  1  0
 26 27  1  0
 27 28  1  0
 28 29  1  0
 28 30  1  0
 30 31  1  0
 31 32  1  0
 32 33  1  0
 25 34  1  0
 34 35  2  0
 35 36  1  0
 36 37  2  0
 37 38  1  0
 38 39  2  0
 39 40  1  0
 40 41  2  0
 41 42  1  0
 21  8  1  0
 35 22  1  0
 41 36  1  0
 31 26  1  0
  1 43  1  0
  1 44  1  0
  1 45  1  0
  6 46  1  0
  6 47  1  0
  6 48  1  0
  7 49  1  0
  7 50  1  0
  7 51  1  0
  9 52  1  0
 15 53  1  0
 21 54  1  0
 23 55  1  0
 26 56  1  0
 27 57  1  0
 27 58  1  0
 28 59  1  6
 29 60  1  0
 30 61  1  0
 30 62  1  0
 31 63  1  1
 32 64  1  0
 32 65  1  0
 33 66  1  0
 34 67  1  0
 37 68  1  0
 38 69  1  0
 39 70  1  0
 40 71  1  0
M  CHG  1  26   1
M  END
>  <meeko>  (9) 
{"is_sidechain": [false], "free_energy": -7.957, "intermolecular_energy": -13.637, "internal_energy": -2.438}

$$$$
