LIB_FMNUBSBKJCVJPF__M_PUB_ALL__e8__s20260927
     RDKit          3D

 61 66  0  0  0  0  0  0  0  0999 V2000
   -0.5010  -17.9160    5.9510 C   0  0  0  0  0  0  0  0  0  0  0  0
   -0.2230  -16.8420    4.9360 C   0  0  0  0  0  0  0  0  0  0  0  0
    1.0820  -16.3960    4.7220 C   0  0  0  0  0  0  0  0  0  0  0  0
    1.3370  -15.4300    3.7510 C   0  0  0  0  0  0  0  0  0  0  0  0
    0.2870  -14.9150    2.9840 C   0  0  0  0  0  0  0  0  0  0  0  0
   -1.0350  -15.3350    3.1730 C   0  0  0  0  0  0  0  0  0  0  0  0
   -1.2640  -16.3230    4.1520 C   0  0  0  0  0  0  0  0  0  0  0  0
   -2.1860  -14.8130    2.3110 C   0  0  0  0  0  0  0  0  0  0  0  0
   -3.4660  -14.5590    3.1420 C   0  0  0  0  0  0  0  0  0  0  0  0
   -2.5260  -15.9220    1.2790 C   0  0  0  0  0  0  0  0  0  0  0  0
   -1.7850  -13.5160    1.5410 C   0  0  1  0  0  0  0  0  0  0  0  0
   -1.8700  -12.2100    2.3410 C   0  0  0  0  0  0  0  0  0  0  0  0
   -1.5750  -11.0550    1.5510 O   0  0  0  0  0  0  0  0  0  0  0  0
   -0.6230  -11.1610    0.5820 C   0  0  0  0  0  0  0  0  0  0  0  0
   -0.2900   -9.9760   -0.0740 C   0  0  0  0  0  0  0  0  0  0  0  0
    0.6770   -9.9780   -1.0790 C   0  0  0  0  0  0  0  0  0  0  0  0
    1.3130  -11.1720   -1.4240 C   0  0  0  0  0  0  0  0  0  0  0  0
    2.3480  -11.1950   -2.4680 C   0  0  0  0  0  0  0  0  0  0  0  0
    2.6940  -10.1560   -3.0140 O   0  0  0  0  0  0  0  0  0  0  0  0
    2.9370  -12.5230   -2.7970 C   0  0  0  0  0  0  0  0  0  0  0  0
    3.9300  -12.6170   -3.8820 C   0  0  0  0  0  0  0  0  0  0  0  0
    3.5220  -12.8810   -5.1960 C   0  0  0  0  0  0  0  0  0  0  0  0
    4.4670  -12.9880   -6.2190 C   0  0  0  0  0  0  0  0  0  0  0  0
    5.8220  -12.8300   -5.9350 C   0  0  0  0  0  0  0  0  0  0  0  0
    6.2350  -12.5590   -4.6320 C   0  0  0  0  0  0  0  0  0  0  0  0
    5.2940  -12.4530   -3.6070 C   0  0  0  0  0  0  0  0  0  0  0  0
    2.5410  -13.5970   -2.0790 C   0  0  0  0  0  0  0  0  0  0  0  0
    3.0690  -14.9950   -2.2690 C   0  0  0  0  0  0  0  0  0  0  0  0
    1.6010  -13.5450   -1.0560 O   0  0  0  0  0  0  0  0  0  0  0  0
    0.9800  -12.3550   -0.7740 C   0  0  0  0  0  0  0  0  0  0  0  0
   -0.0060  -12.3630    0.2290 C   0  0  0  0  0  0  0  0  0  0  0  0
   -0.3750  -13.6260    0.9550 C   0  0  1  0  0  0  0  0  0  0  0  0
    0.6310  -13.8860    2.0230 N   0  0  0  0  0  0  0  0  0  0  0  0
   -0.3934  -17.5002    6.9637 H   0  0  0  0  0  0  0  0  0  0  0  0
   -1.5260  -18.2917    5.8159 H   0  0  0  0  0  0  0  0  0  0  0  0
    0.2130  -18.7418    5.8159 H   0  0  0  0  0  0  0  0  0  0  0  0
    1.9089  -16.8070    5.3197 H   0  0  0  0  0  0  0  0  0  0  0  0
    2.3643  -15.0723    3.5876 H   0  0  0  0  0  0  0  0  0  0  0  0
   -2.2870  -16.6972    4.3054 H   0  0  0  0  0  0  0  0  0  0  0  0
   -3.2230  -14.6072    4.2137 H   0  0  0  0  0  0  0  0  0  0  0  0
   -3.8678  -13.5636    2.9016 H   0  0  0  0  0  0  0  0  0  0  0  0
   -4.2174  -15.3256    2.9016 H   0  0  0  0  0  0  0  0  0  0  0  0
   -2.8084  -16.8430    1.8101 H   0  0  0  0  0  0  0  0  0  0  0  0
   -3.3640  -15.5911    0.6479 H   0  0  0  0  0  0  0  0  0  0  0  0
   -1.6466  -16.1176    0.6479 H   0  0  0  0  0  0  0  0  0  0  0  0
   -2.5467  -13.4516    0.7500 H   0  0  0  0  0  0  0  0  0  0  0  0
   -2.8891  -12.1099    2.7428 H   0  0  0  0  0  0  0  0  0  0  0  0
   -1.1184  -12.2634    3.1424 H   0  0  0  0  0  0  0  0  0  0  0  0
   -0.7917   -9.0368    0.2022 H   0  0  0  0  0  0  0  0  0  0  0  0
    0.9373   -9.0434   -1.5973 H   0  0  0  0  0  0  0  0  0  0  0  0
    2.4528  -13.0046   -5.4231 H   0  0  0  0  0  0  0  0  0  0  0  0
    4.1416  -13.1970   -7.2488 H   0  0  0  0  0  0  0  0  0  0  0  0
    6.5663  -12.9193   -6.7400 H   0  0  0  0  0  0  0  0  0  0  0  0
    7.3046  -12.4284   -4.4110 H   0  0  0  0  0  0  0  0  0  0  0  0
    5.6243  -12.2400   -2.5796 H   0  0  0  0  0  0  0  0  0  0  0  0
    3.2437  -15.4576   -1.2864 H   0  0  0  0  0  0  0  0  0  0  0  0
    2.3342  -15.5914   -2.8297 H   0  0  0  0  0  0  0  0  0  0  0  0
    4.0146  -14.9568   -2.8297 H   0  0  0  0  0  0  0  0  0  0  0  0
   -0.3746  -14.4701    0.2497 H   0  0  0  0  0  0  0  0  0  0  0  0
    0.8320  -13.0230    2.5480 H   0  0  0  0  0  0  0  0  0  0  0  0
    1.5120  -14.1530    1.5640 H   0  0  0  0  0  0  0  0  0  0  0  0
  1  2  1  0
  2  3  2  0
  3  4  1  0
  4  5  2  0
  5  6  1  0
  6  7  2  0
  6  8  1  0
  8  9  1  0
  8 10  1  0
  8 11  1  0
 11 12  1  0
 12 13  1  0
 13 14  1  0
 14 15  2  0
 15 16  1  0
 16 17  2  0
 17 18  1  0
 18 19  2  0
 18 20  1  0
 20 21  1  0
 21 22  2  0
 22 23  1  0
 23 24  2  0
 24 25  1  0
 25 26  2  0
 20 27  2  0
 27 28  1  0
 27 29  1  0
 29 30  1  0
 30 31  2  0
 31 32  1  0
 32 33  1  0
  7  2  1  0
 32 11  1  0
 33  5  1  0
 31 14  1  0
 30 17  1  0
 26 21  1  0
  1 34  1  0
  1 35  1  0
  1 36  1  0
  3 37  1  0
  4 38  1  0
  7 39  1  0
  9 40  1  0
  9 41  1  0
  9 42  1  0
 10 43  1  0
 10 44  1  0
 10 45  1  0
 11 46  1  6
 12 47  1  0
 12 48  1  0
 15 49  1  0
 16 50  1  0
 22 51  1  0
 23 52  1  0
 24 53  1  0
 25 54  1  0
 26 55  1  0
 28 56  1  0
 28 57  1  0
 28 58  1  0
 32 59  1  6
 33 60  1  0
 33 61  1  0
M  CHG  1  33   1
M  END
>  <meeko>  (1) 
{"is_sidechain": [false], "free_energy": -8.973, "intermolecular_energy": -9.497, "internal_energy": -0.427}

$$$$
LIB_FMNUBSBKJCVJPF__M_PUB_ALL__e8__s20260927
     RDKit          3D

 61 66  0  0  0  0  0  0  0  0999 V2000
   13.3350   -9.5960    0.5220 C   0  0  0  0  0  0  0  0  0  0  0  0
   12.3350  -10.7020    0.3290 C   0  0  0  0  0  0  0  0  0  0  0  0
   11.3040  -10.8870    1.2500 C   0  0  0  0  0  0  0  0  0  0  0  0
   10.3570  -11.8890    1.0440 C   0  0  0  0  0  0  0  0  0  0  0  0
   10.4350  -12.7010   -0.0920 C   0  0  0  0  0  0  0  0  0  0  0  0
   11.4580  -12.5480   -1.0350 C   0  0  0  0  0  0  0  0  0  0  0  0
   12.3940  -11.5180   -0.8100 C   0  0  0  0  0  0  0  0  0  0  0  0
   11.5280  -13.3990   -2.3040 C   0  0  0  0  0  0  0  0  0  0  0  0
   12.9800  -13.8130   -2.6460 C   0  0  0  0  0  0  0  0  0  0  0  0
   11.0180  -12.5200   -3.4770 C   0  0  0  0  0  0  0  0  0  0  0  0
   10.6240  -14.6670   -2.1970 C   0  0  1  0  0  0  0  0  0  0  0  0
   11.2260  -15.8550   -1.4370 C   0  0  0  0  0  0  0  0  0  0  0  0
   10.3820  -17.0100   -1.4530 O   0  0  0  0  0  0  0  0  0  0  0  0
    9.0330  -16.8240   -1.4040 C   0  0  0  0  0  0  0  0  0  0  0  0
    8.2650  -17.9840   -1.3000 C   0  0  0  0  0  0  0  0  0  0  0  0
    6.8740  -17.9010   -1.2390 C   0  0  0  0  0  0  0  0  0  0  0  0
    6.2530  -16.6510   -1.2780 C   0  0  0  0  0  0  0  0  0  0  0  0
    4.7900  -16.5380   -1.1970 C   0  0  0  0  0  0  0  0  0  0  0  0
    4.1030  -17.5400   -1.0480 O   0  0  0  0  0  0  0  0  0  0  0  0
    4.2180  -15.1660   -1.2930 C   0  0  0  0  0  0  0  0  0  0  0  0
    2.7540  -14.9980   -1.2860 C   0  0  0  0  0  0  0  0  0  0  0  0
    2.0610  -14.8720   -0.0740 C   0  0  0  0  0  0  0  0  0  0  0  0
    0.6720  -14.7330   -0.0690 C   0  0  0  0  0  0  0  0  0  0  0  0
   -0.0310  -14.7130   -1.2720 C   0  0  0  0  0  0  0  0  0  0  0  0
    0.6520  -14.8290   -2.4820 C   0  0  0  0  0  0  0  0  0  0  0  0
    2.0400  -14.9700   -2.4900 C   0  0  0  0  0  0  0  0  0  0  0  0
    5.0700  -14.1200   -1.3770 C   0  0  0  0  0  0  0  0  0  0  0  0
    4.6470  -12.6760   -1.4460 C   0  0  0  0  0  0  0  0  0  0  0  0
    6.4540  -14.2440   -1.3960 O   0  0  0  0  0  0  0  0  0  0  0  0
    7.0170  -15.4940   -1.3860 C   0  0  0  0  0  0  0  0  0  0  0  0
    8.4190  -15.5720   -1.4650 C   0  0  0  0  0  0  0  0  0  0  0  0
    9.2680  -14.3360   -1.5690 C   0  0  1  0  0  0  0  0  0  0  0  0
    9.4350  -13.7440   -0.2110 N   0  0  0  0  0  0  0  0  0  0  0  0
   13.4896   -9.4250    1.5976 H   0  0  0  0  0  0  0  0  0  0  0  0
   14.2897   -9.8793    0.0548 H   0  0  0  0  0  0  0  0  0  0  0  0
   12.9573   -8.6745    0.0548 H   0  0  0  0  0  0  0  0  0  0  0  0
   11.2382  -10.2423    2.1388 H   0  0  0  0  0  0  0  0  0  0  0  0
    9.5488  -12.0409    1.7746 H   0  0  0  0  0  0  0  0  0  0  0  0
   13.1923  -11.3498   -1.5479 H   0  0  0  0  0  0  0  0  0  0  0  0
   13.5442  -13.9739   -1.7155 H   0  0  0  0  0  0  0  0  0  0  0  0
   12.9675  -14.7434   -3.2327 H   0  0  0  0  0  0  0  0  0  0  0  0
   13.4600  -13.0159   -3.2327 H   0  0  0  0  0  0  0  0  0  0  0  0
   10.5041  -11.6343   -3.0750 H   0  0  0  0  0  0  0  0  0  0  0  0
   11.8710  -12.2006   -4.0937 H   0  0  0  0  0  0  0  0  0  0  0  0
   10.3173  -13.1021   -4.0937 H   0  0  0  0  0  0  0  0  0  0  0  0
   10.5167  -14.9846   -3.2447 H   0  0  0  0  0  0  0  0  0  0  0  0
   12.1886  -16.1170   -1.9004 H   0  0  0  0  0  0  0  0  0  0  0  0
   11.3475  -15.5488   -0.3875 H   0  0  0  0  0  0  0  0  0  0  0  0
    8.7578  -18.9668   -1.2660 H   0  0  0  0  0  0  0  0  0  0  0  0
    6.2689  -18.8163   -1.1605 H   0  0  0  0  0  0  0  0  0  0  0  0
    2.6139  -14.8827    0.8769 H   0  0  0  0  0  0  0  0  0  0  0  0
    0.1322  -14.6392    0.8849 H   0  0  0  0  0  0  0  0  0  0  0  0
   -1.1257  -14.6056   -1.2670 H   0  0  0  0  0  0  0  0  0  0  0  0
    0.0961  -14.8093   -3.4310 H   0  0  0  0  0  0  0  0  0  0  0  0
    2.5758  -15.0596   -3.4465 H   0  0  0  0  0  0  0  0  0  0  0  0
    4.5307  -12.2789   -0.4268 H   0  0  0  0  0  0  0  0  0  0  0  0
    5.4126  -12.0948   -1.9808 H   0  0  0  0  0  0  0  0  0  0  0  0
    3.6888  -12.5998   -1.9808 H   0  0  0  0  0  0  0  0  0  0  0  0
    8.7723  -13.6018   -2.2211 H   0  0  0  0  0  0  0  0  0  0  0  0
    9.6620  -14.4750    0.4760 H   0  0  0  0  0  0  0  0  0  0  0  0
    8.5260  -13.3560    0.0740 H   0  0  0  0  0  0  0  0  0  0  0  0
  1  2  1  0
  2  3  2  0
  3  4  1  0
  4  5  2  0
  5  6  1  0
  6  7  2  0
  6  8  1  0
  8  9  1  0
  8 10  1  0
  8 11  1  0
 11 12  1  0
 12 13  1  0
 13 14  1  0
 14 15  2  0
 15 16  1  0
 16 17  2  0
 17 18  1  0
 18 19  2  0
 18 20  1  0
 20 21  1  0
 21 22  2  0
 22 23  1  0
 23 24  2  0
 24 25  1  0
 25 26  2  0
 20 27  2  0
 27 28  1  0
 27 29  1  0
 29 30  1  0
 30 31  2  0
 31 32  1  0
 32 33  1  0
  7  2  1  0
 32 11  1  0
 33  5  1  0
 31 14  1  0
 30 17  1  0
 26 21  1  0
  1 34  1  0
  1 35  1  0
  1 36  1  0
  3 37  1  0
  4 38  1  0
  7 39  1  0
  9 40  1  0
  9 41  1  0
  9 42  1  0
 10 43  1  0
 10 44  1  0
 10 45  1  0
 11 46  1  6
 12 47  1  0
 12 48  1  0
 15 49  1  0
 16 50  1  0
 22 51  1  0
 23 52  1  0
 24 53  1  0
 25 54  1  0
 26 55  1  0
 28 56  1  0
 28 57  1  0
 28 58  1  0
 32 59  1  6
 33 60  1  0
 33 61  1  0
M  CHG  1  33   1
M  END
>  <meeko>  (2) 
{"is_sidechain": [false], "free_energy": -8.738, "intermolecular_energy": -9.253, "internal_energy": -0.423}

$$$$
LIB_FMNUBSBKJCVJPF__M_PUB_ALL__e8__s20260927
     RDKit          3D

 61 66  0  0  0  0  0  0  0  0999 V2000
    3.5330  -16.0230    1.2220 C   0  0  0  0  0  0  0  0  0  0  0  0
    4.8820  -15.5560    0.7510 C   0  0  0  0  0  0  0  0  0  0  0  0
    5.8470  -16.4810    0.3490 C   0  0  0  0  0  0  0  0  0  0  0  0
    7.0800  -16.0390   -0.1250 C   0  0  0  0  0  0  0  0  0  0  0  0
    7.3470  -14.6690   -0.2070 C   0  0  0  0  0  0  0  0  0  0  0  0
    6.4070  -13.7120    0.1910 C   0  0  0  0  0  0  0  0  0  0  0  0
    5.1620  -14.1850    0.6530 C   0  0  0  0  0  0  0  0  0  0  0  0
    6.6700  -12.2100    0.0640 C   0  0  0  0  0  0  0  0  0  0  0  0
    6.1350  -11.4210    1.2830 C   0  0  0  0  0  0  0  0  0  0  0  0
    5.8870  -11.7100   -1.1800 C   0  0  0  0  0  0  0  0  0  0  0  0
    8.1870  -11.9080   -0.1420 C   0  0  1  0  0  0  0  0  0  0  0  0
    9.0450  -11.8910    1.1290 C   0  0  0  0  0  0  0  0  0  0  0  0
   10.4030  -11.5210    0.8780 O   0  0  0  0  0  0  0  0  0  0  0  0
   10.9780  -11.9310   -0.2880 C   0  0  0  0  0  0  0  0  0  0  0  0
   12.3380  -11.6460   -0.4260 C   0  0  0  0  0  0  0  0  0  0  0  0
   13.0200  -12.0280   -1.5800 C   0  0  0  0  0  0  0  0  0  0  0  0
   12.3380  -12.6990   -2.5970 C   0  0  0  0  0  0  0  0  0  0  0  0
   13.0410  -13.1270   -3.8150 C   0  0  0  0  0  0  0  0  0  0  0  0
   14.2450  -12.9380   -3.9290 O   0  0  0  0  0  0  0  0  0  0  0  0
   12.2190  -13.7960   -4.8630 C   0  0  0  0  0  0  0  0  0  0  0  0
   12.8570  -14.1860   -6.1330 C   0  0  0  0  0  0  0  0  0  0  0  0
   12.4920  -13.5570   -7.3310 C   0  0  0  0  0  0  0  0  0  0  0  0
   13.0840  -13.9420   -8.5360 C   0  0  0  0  0  0  0  0  0  0  0  0
   14.0440  -14.9520   -8.5500 C   0  0  0  0  0  0  0  0  0  0  0  0
   14.4180  -15.5760   -7.3610 C   0  0  0  0  0  0  0  0  0  0  0  0
   13.8270  -15.1950   -6.1550 C   0  0  0  0  0  0  0  0  0  0  0  0
   10.9140  -14.0270   -4.6030 C   0  0  0  0  0  0  0  0  0  0  0  0
    9.9650  -14.7220   -5.5450 C   0  0  0  0  0  0  0  0  0  0  0  0
   10.2800  -13.6650   -3.4210 O   0  0  0  0  0  0  0  0  0  0  0  0
   10.9830  -12.9800   -2.4630 C   0  0  0  0  0  0  0  0  0  0  0  0
   10.2850  -12.5830   -1.3090 C   0  0  0  0  0  0  0  0  0  0  0  0
    8.8230  -12.8850   -1.1350 C   0  0  1  0  0  0  0  0  0  0  0  0
    8.6680  -14.2940   -0.6730 N   0  0  0  0  0  0  0  0  0  0  0  0
    3.5110  -16.0306    2.3218 H   0  0  0  0  0  0  0  0  0  0  0  0
    2.7566  -15.3413    0.8445 H   0  0  0  0  0  0  0  0  0  0  0  0
    3.3442  -17.0388    0.8445 H   0  0  0  0  0  0  0  0  0  0  0  0
    5.6338  -17.5586    0.4065 H   0  0  0  0  0  0  0  0  0  0  0  0
    7.8436  -16.7677   -0.4348 H   0  0  0  0  0  0  0  0  0  0  0  0
    4.3888  -13.4590    0.9447 H   0  0  0  0  0  0  0  0  0  0  0  0
    6.4667  -11.9102    2.2107 H   0  0  0  0  0  0  0  0  0  0  0  0
    6.5224  -10.3919    1.2524 H   0  0  0  0  0  0  0  0  0  0  0  0
    5.0356  -11.4000    1.2524 H   0  0  0  0  0  0  0  0  0  0  0  0
    5.0018  -11.1447   -0.8532 H   0  0  0  0  0  0  0  0  0  0  0  0
    6.5356  -11.0586   -1.7841 H   0  0  0  0  0  0  0  0  0  0  0  0
    5.5689  -12.5725   -1.7841 H   0  0  0  0  0  0  0  0  0  0  0  0
    8.1837  -10.8800   -0.5334 H   0  0  0  0  0  0  0  0  0  0  0  0
    8.6098  -11.1701    1.8368 H   0  0  0  0  0  0  0  0  0  0  0  0
    9.0510  -12.9124    1.5372 H   0  0  0  0  0  0  0  0  0  0  0  0
   12.8724  -11.1187    0.3780 H   0  0  0  0  0  0  0  0  0  0  0  0
   14.0910  -11.8018   -1.6891 H   0  0  0  0  0  0  0  0  0  0  0  0
   11.7367  -12.7574   -7.3222 H   0  0  0  0  0  0  0  0  0  0  0  0
   12.7923  -13.4477   -9.4744 H   0  0  0  0  0  0  0  0  0  0  0  0
   14.5070  -15.2571   -9.5000 H   0  0  0  0  0  0  0  0  0  0  0  0
   15.1797  -16.3695   -7.3730 H   0  0  0  0  0  0  0  0  0  0  0  0
   14.1247  -15.6895   -5.2186 H   0  0  0  0  0  0  0  0  0  0  0  0
    9.2111  -15.2741   -4.9647 H   0  0  0  0  0  0  0  0  0  0  0  0
    9.4649  -13.9750   -6.1790 H   0  0  0  0  0  0  0  0  0  0  0  0
   10.5263  -15.4242   -6.1790 H   0  0  0  0  0  0  0  0  0  0  0  0
    8.3049  -12.7637   -2.0977 H   0  0  0  0  0  0  0  0  0  0  0  0
    9.3370  -14.5030    0.0810 H   0  0  0  0  0  0  0  0  0  0  0  0
    8.9220  -14.9090   -1.4580 H   0  0  0  0  0  0  0  0  0  0  0  0
  1  2  1  0
  2  3  2  0
  3  4  1  0
  4  5  2  0
  5  6  1  0
  6  7  2  0
  6  8  1  0
  8  9  1  0
  8 10  1  0
  8 11  1  0
 11 12  1  0
 12 13  1  0
 13 14  1  0
 14 15  2  0
 15 16  1  0
 16 17  2  0
 17 18  1  0
 18 19  2  0
 18 20  1  0
 20 21  1  0
 21 22  2  0
 22 23  1  0
 23 24  2  0
 24 25  1  0
 25 26  2  0
 20 27  2  0
 27 28  1  0
 27 29  1  0
 29 30  1  0
 30 31  2  0
 31 32  1  0
 32 33  1  0
  7  2  1  0
 32 11  1  0
 33  5  1  0
 31 14  1  0
 30 17  1  0
 26 21  1  0
  1 34  1  0
  1 35  1  0
  1 36  1  0
  3 37  1  0
  4 38  1  0
  7 39  1  0
  9 40  1  0
  9 41  1  0
  9 42  1  0
 10 43  1  0
 10 44  1  0
 10 45  1  0
 11 46  1  6
 12 47  1  0
 12 48  1  0
 15 49  1  0
 16 50  1  0
 22 51  1  0
 23 52  1  0
 24 53  1  0
 25 54  1  0
 26 55  1  0
 28 56  1  0
 28 57  1  0
 28 58  1  0
 32 59  1  6
 33 60  1  0
 33 61  1  0
M  CHG  1  33   1
M  END
>  <meeko>  (3) 
{"is_sidechain": [false], "free_energy": -8.506, "intermolecular_energy": -9.325, "internal_energy": -0.106}

$$$$
LIB_FMNUBSBKJCVJPF__M_PUB_ALL__e8__s20260927
     RDKit          3D

 61 66  0  0  0  0  0  0  0  0999 V2000
   11.0450  -14.5540   -0.9500 C   0  0  0  0  0  0  0  0  0  0  0  0
    9.5790  -14.6170   -1.2790 C   0  0  0  0  0  0  0  0  0  0  0  0
    8.8610  -15.7950   -1.0720 C   0  0  0  0  0  0  0  0  0  0  0  0
    7.4940  -15.8350   -1.3410 C   0  0  0  0  0  0  0  0  0  0  0  0
    6.8410  -14.6900   -1.8090 C   0  0  0  0  0  0  0  0  0  0  0  0
    7.5290  -13.4920   -2.0340 C   0  0  0  0  0  0  0  0  0  0  0  0
    8.9070  -13.4750   -1.7400 C   0  0  0  0  0  0  0  0  0  0  0  0
    6.8180  -12.2210   -2.5020 C   0  0  0  0  0  0  0  0  0  0  0  0
    7.6510  -11.4400   -3.5470 C   0  0  0  0  0  0  0  0  0  0  0  0
    6.6610  -11.2980   -1.2640 C   0  0  0  0  0  0  0  0  0  0  0  0
    5.4010  -12.5340   -3.0780 C   0  0  1  0  0  0  0  0  0  0  0  0
    5.3620  -13.0210   -4.5320 C   0  0  0  0  0  0  0  0  0  0  0  0
    4.0310  -13.2040   -5.0210 O   0  0  0  0  0  0  0  0  0  0  0  0
    3.0830  -13.6640   -4.1570 C   0  0  0  0  0  0  0  0  0  0  0  0
    1.8340  -13.9370   -4.7160 C   0  0  0  0  0  0  0  0  0  0  0  0
    0.7970  -14.4170   -3.9160 C   0  0  0  0  0  0  0  0  0  0  0  0
    1.0150  -14.6250   -2.5520 C   0  0  0  0  0  0  0  0  0  0  0  0
   -0.0580  -15.1460   -1.6940 C   0  0  0  0  0  0  0  0  0  0  0  0
   -1.1410  -15.4470   -2.1760 O   0  0  0  0  0  0  0  0  0  0  0  0
    0.2560  -15.2910   -0.2440 C   0  0  0  0  0  0  0  0  0  0  0  0
   -0.8020  -15.7460    0.6760 C   0  0  0  0  0  0  0  0  0  0  0  0
   -1.6430  -14.8170    1.3030 C   0  0  0  0  0  0  0  0  0  0  0  0
   -2.6320  -15.2490    2.1890 C   0  0  0  0  0  0  0  0  0  0  0  0
   -2.7880  -16.6090    2.4500 C   0  0  0  0  0  0  0  0  0  0  0  0
   -1.9610  -17.5400    1.8230 C   0  0  0  0  0  0  0  0  0  0  0  0
   -0.9710  -17.1110    0.9380 C   0  0  0  0  0  0  0  0  0  0  0  0
    1.5090  -15.0060    0.1720 C   0  0  0  0  0  0  0  0  0  0  0  0
    1.9880  -15.1370    1.5950 C   0  0  0  0  0  0  0  0  0  0  0  0
    2.5270  -14.5680   -0.6660 O   0  0  0  0  0  0  0  0  0  0  0  0
    2.2570  -14.3480   -1.9920 C   0  0  0  0  0  0  0  0  0  0  0  0
    3.3030  -13.8490   -2.7910 C   0  0  0  0  0  0  0  0  0  0  0  0
    4.6580  -13.5540   -2.2120 C   0  0  1  0  0  0  0  0  0  0  0  0
    5.4270  -14.8260   -2.1020 N   0  0  0  0  0  0  0  0  0  0  0  0
   11.1758  -14.5484    0.1422 H   0  0  0  0  0  0  0  0  0  0  0  0
   11.5544  -15.4311   -1.3758 H   0  0  0  0  0  0  0  0  0  0  0  0
   11.4772  -13.6365   -1.3758 H   0  0  0  0  0  0  0  0  0  0  0  0
    9.3739  -16.6927   -0.6963 H   0  0  0  0  0  0  0  0  0  0  0  0
    6.9293  -16.7661   -1.1854 H   0  0  0  0  0  0  0  0  0  0  0  0
    9.4714  -12.5406   -1.8757 H   0  0  0  0  0  0  0  0  0  0  0  0
    8.3591  -10.7761   -3.0295 H   0  0  0  0  0  0  0  0  0  0  0  0
    8.2072  -12.1496   -4.1771 H   0  0  0  0  0  0  0  0  0  0  0  0
    6.9786  -10.8392   -4.1771 H   0  0  0  0  0  0  0  0  0  0  0  0
    6.7626  -11.8954   -0.3460 H   0  0  0  0  0  0  0  0  0  0  0  0
    7.4400  -10.5216   -1.2843 H   0  0  0  0  0  0  0  0  0  0  0  0
    5.6691  -10.8228   -1.2843 H   0  0  0  0  0  0  0  0  0  0  0  0
    4.9042  -11.5527   -3.0615 H   0  0  0  0  0  0  0  0  0  0  0  0
    5.8696  -12.2782   -5.1649 H   0  0  0  0  0  0  0  0  0  0  0  0
    5.8642  -13.9991   -4.5666 H   0  0  0  0  0  0  0  0  0  0  0  0
    1.6666  -13.7732   -5.7908 H   0  0  0  0  0  0  0  0  0  0  0  0
   -0.1877  -14.6307   -4.3571 H   0  0  0  0  0  0  0  0  0  0  0  0
   -1.5236  -13.7432    1.0964 H   0  0  0  0  0  0  0  0  0  0  0  0
   -3.2880  -14.5158    2.6810 H   0  0  0  0  0  0  0  0  0  0  0  0
   -3.5644  -16.9483    3.1514 H   0  0  0  0  0  0  0  0  0  0  0  0
   -2.0890  -18.6135    2.0261 H   0  0  0  0  0  0  0  0  0  0  0  0
   -0.3208  -17.8482    0.4442 H   0  0  0  0  0  0  0  0  0  0  0  0
    1.1600  -14.9106    2.2829 H   0  0  0  0  0  0  0  0  0  0  0  0
    2.3399  -16.1644    1.7703 H   0  0  0  0  0  0  0  0  0  0  0  0
    2.8137  -14.4317    1.7703 H   0  0  0  0  0  0  0  0  0  0  0  0
    4.5440  -13.1160   -1.2094 H   0  0  0  0  0  0  0  0  0  0  0  0
    5.3390  -15.3780   -2.9660 H   0  0  0  0  0  0  0  0  0  0  0  0
    4.9950  -15.3890   -1.3570 H   0  0  0  0  0  0  0  0  0  0  0  0
  1  2  1  0
  2  3  2  0
  3  4  1  0
  4  5  2  0
  5  6  1  0
  6  7  2  0
  6  8  1  0
  8  9  1  0
  8 10  1  0
  8 11  1  0
 11 12  1  0
 12 13  1  0
 13 14  1  0
 14 15  2  0
 15 16  1  0
 16 17  2  0
 17 18  1  0
 18 19  2  0
 18 20  1  0
 20 21  1  0
 21 22  2  0
 22 23  1  0
 23 24  2  0
 24 25  1  0
 25 26  2  0
 20 27  2  0
 27 28  1  0
 27 29  1  0
 29 30  1  0
 30 31  2  0
 31 32  1  0
 32 33  1  0
  7  2  1  0
 32 11  1  0
 33  5  1  0
 31 14  1  0
 30 17  1  0
 26 21  1  0
  1 34  1  0
  1 35  1  0
  1 36  1  0
  3 37  1  0
  4 38  1  0
  7 39  1  0
  9 40  1  0
  9 41  1  0
  9 42  1  0
 10 43  1  0
 10 44  1  0
 10 45  1  0
 11 46  1  6
 12 47  1  0
 12 48  1  0
 15 49  1  0
 16 50  1  0
 22 51  1  0
 23 52  1  0
 24 53  1  0
 25 54  1  0
 26 55  1  0
 28 56  1  0
 28 57  1  0
 28 58  1  0
 32 59  1  1
 33 60  1  0
 33 61  1  0
M  CHG  1  33   1
M  END
>  <meeko>  (4) 
{"is_sidechain": [false], "free_energy": -8.464, "intermolecular_energy": -8.958, "internal_energy": -0.428}

$$$$
LIB_FMNUBSBKJCVJPF__M_PUB_ALL__e8__s20260927
     RDKit          3D

 61 66  0  0  0  0  0  0  0  0999 V2000
   -2.4120  -11.9910    2.0880 C   0  0  0  0  0  0  0  0  0  0  0  0
   -1.1500  -12.1330    1.2830 C   0  0  0  0  0  0  0  0  0  0  0  0
   -0.1820  -11.1290    1.3080 C   0  0  0  0  0  0  0  0  0  0  0  0
    1.0030  -11.2850    0.5920 C   0  0  0  0  0  0  0  0  0  0  0  0
    1.2260  -12.4540   -0.1430 C   0  0  0  0  0  0  0  0  0  0  0  0
    0.2760  -13.4810   -0.1960 C   0  0  0  0  0  0  0  0  0  0  0  0
   -0.9070  -13.3030    0.5490 C   0  0  0  0  0  0  0  0  0  0  0  0
    0.5270  -14.7820   -0.9590 C   0  0  0  0  0  0  0  0  0  0  0  0
   -0.7380  -15.2720   -1.7040 C   0  0  0  0  0  0  0  0  0  0  0  0
    0.8860  -15.8690    0.0900 C   0  0  0  0  0  0  0  0  0  0  0  0
    1.7150  -14.6410   -1.9620 C   0  0  1  0  0  0  0  0  0  0  0  0
    1.3790  -13.9860   -3.3070 C   0  0  0  0  0  0  0  0  0  0  0  0
    2.4900  -13.9690   -4.2090 O   0  0  0  0  0  0  0  0  0  0  0  0
    3.7380  -13.7890   -3.6920 C   0  0  0  0  0  0  0  0  0  0  0  0
    4.7670  -13.6590   -4.6250 C   0  0  0  0  0  0  0  0  0  0  0  0
    6.0810  -13.4670   -4.1980 C   0  0  0  0  0  0  0  0  0  0  0  0
    6.3610  -13.4020   -2.8310 C   0  0  0  0  0  0  0  0  0  0  0  0
    7.7350  -13.1820   -2.3580 C   0  0  0  0  0  0  0  0  0  0  0  0
    8.6420  -13.0080   -3.1620 O   0  0  0  0  0  0  0  0  0  0  0  0
    7.9420  -13.1720   -0.8830 C   0  0  0  0  0  0  0  0  0  0  0  0
    9.3080  -13.0240   -0.3520 C   0  0  0  0  0  0  0  0  0  0  0  0
    9.6300  -11.9500    0.4890 C   0  0  0  0  0  0  0  0  0  0  0  0
   10.9300  -11.8010    0.9750 C   0  0  0  0  0  0  0  0  0  0  0  0
   11.9140  -12.7240    0.6280 C   0  0  0  0  0  0  0  0  0  0  0  0
   11.6010  -13.8000   -0.2020 C   0  0  0  0  0  0  0  0  0  0  0  0
   10.3020  -13.9510   -0.6900 C   0  0  0  0  0  0  0  0  0  0  0  0
    6.8600  -13.2940   -0.0830 C   0  0  0  0  0  0  0  0  0  0  0  0
    6.9030  -13.2680    1.4230 C   0  0  0  0  0  0  0  0  0  0  0  0
    5.5600  -13.4440   -0.5500 O   0  0  0  0  0  0  0  0  0  0  0  0
    5.3370  -13.5350   -1.9000 C   0  0  0  0  0  0  0  0  0  0  0  0
    4.0130  -13.7450   -2.3240 C   0  0  0  0  0  0  0  0  0  0  0  0
    2.8870  -13.8790   -1.3380 C   0  0  1  0  0  0  0  0  0  0  0  0
    2.4660  -12.5210   -0.8910 N   0  0  0  0  0  0  0  0  0  0  0  0
   -2.1680  -12.0185    3.1602 H   0  0  0  0  0  0  0  0  0  0  0  0
   -2.8952  -11.0328    1.8463 H   0  0  0  0  0  0  0  0  0  0  0  0
   -3.0961  -12.8178    1.8463 H   0  0  0  0  0  0  0  0  0  0  0  0
   -0.3543  -10.2137    1.8933 H   0  0  0  0  0  0  0  0  0  0  0  0
    1.7626  -10.4895    0.6047 H   0  0  0  0  0  0  0  0  0  0  0  0
   -1.6608  -14.1041    0.5549 H   0  0  0  0  0  0  0  0  0  0  0  0
   -1.5032  -15.5684   -0.9715 H   0  0  0  0  0  0  0  0  0  0  0  0
   -1.1293  -14.4604   -2.3350 H   0  0  0  0  0  0  0  0  0  0  0  0
   -0.4805  -16.1354   -2.3350 H   0  0  0  0  0  0  0  0  0  0  0  0
    0.7510  -15.4604    1.1023 H   0  0  0  0  0  0  0  0  0  0  0  0
    0.2278  -16.7400   -0.0446 H   0  0  0  0  0  0  0  0  0  0  0  0
    1.9335  -16.1767   -0.0446 H   0  0  0  0  0  0  0  0  0  0  0  0
    1.9835  -15.6856   -2.1784 H   0  0  0  0  0  0  0  0  0  0  0  0
    0.5555  -14.5458   -3.7744 H   0  0  0  0  0  0  0  0  0  0  0  0
    1.1000  -12.9412   -3.1058 H   0  0  0  0  0  0  0  0  0  0  0  0
    4.5415  -13.7080   -5.7005 H   0  0  0  0  0  0  0  0  0  0  0  0
    6.8925  -13.3673   -4.9339 H   0  0  0  0  0  0  0  0  0  0  0  0
    8.8546  -11.2211    0.7674 H   0  0  0  0  0  0  0  0  0  0  0  0
   11.1776  -10.9544    1.6323 H   0  0  0  0  0  0  0  0  0  0  0  0
   12.9389  -12.6040    1.0091 H   0  0  0  0  0  0  0  0  0  0  0  0
   12.3781  -14.5301   -0.4723 H   0  0  0  0  0  0  0  0  0  0  0  0
   10.0579  -14.8019   -1.3430 H   0  0  0  0  0  0  0  0  0  0  0  0
    6.0265  -13.7980    1.8240 H   0  0  0  0  0  0  0  0  0  0  0  0
    7.8217  -13.7621    1.7722 H   0  0  0  0  0  0  0  0  0  0  0  0
    6.8922  -12.2249    1.7722 H   0  0  0  0  0  0  0  0  0  0  0  0
    3.2286  -14.4537   -0.4645 H   0  0  0  0  0  0  0  0  0  0  0  0
    2.3810  -11.8860   -1.6960 H   0  0  0  0  0  0  0  0  0  0  0  0
    3.2200  -12.1390   -0.3040 H   0  0  0  0  0  0  0  0  0  0  0  0
  1  2  1  0
  2  3  2  0
  3  4  1  0
  4  5  2  0
  5  6  1  0
  6  7  2  0
  6  8  1  0
  8  9  1  0
  8 10  1  0
  8 11  1  0
 11 12  1  0
 12 13  1  0
 13 14  1  0
 14 15  2  0
 15 16  1  0
 16 17  2  0
 17 18  1  0
 18 19  2  0
 18 20  1  0
 20 21  1  0
 21 22  2  0
 22 23  1  0
 23 24  2  0
 24 25  1  0
 25 26  2  0
 20 27  2  0
 27 28  1  0
 27 29  1  0
 29 30  1  0
 30 31  2  0
 31 32  1  0
 32 33  1  0
  7  2  1  0
 32 11  1  0
 33  5  1  0
 31 14  1  0
 30 17  1  0
 26 21  1  0
  1 34  1  0
  1 35  1  0
  1 36  1  0
  3 37  1  0
  4 38  1  0
  7 39  1  0
  9 40  1  0
  9 41  1  0
  9 42  1  0
 10 43  1  0
 10 44  1  0
 10 45  1  0
 11 46  1  6
 12 47  1  0
 12 48  1  0
 15 49  1  0
 16 50  1  0
 22 51  1  0
 23 52  1  0
 24 53  1  0
 25 54  1  0
 26 55  1  0
 28 56  1  0
 28 57  1  0
 28 58  1  0
 32 59  1  1
 33 60  1  0
 33 61  1  0
M  CHG  1  33   1
M  END
>  <meeko>  (5) 
{"is_sidechain": [false], "free_energy": -8.174, "intermolecular_energy": -9.167, "internal_energy": 0.088}

$$$$
LIB_FMNUBSBKJCVJPF__M_PUB_ALL__e8__s20260927
     RDKit          3D

 61 66  0  0  0  0  0  0  0  0999 V2000
   10.8030  -12.6480   -0.9250 C   0  0  0  0  0  0  0  0  0  0  0  0
    9.4100  -12.9390   -0.4390 C   0  0  0  0  0  0  0  0  0  0  0  0
    8.8030  -12.1060    0.5020 C   0  0  0  0  0  0  0  0  0  0  0  0
    7.4980  -12.3590    0.9170 C   0  0  0  0  0  0  0  0  0  0  0  0
    6.7920  -13.4420    0.3830 C   0  0  0  0  0  0  0  0  0  0  0  0
    7.3690  -14.3030   -0.5580 C   0  0  0  0  0  0  0  0  0  0  0  0
    8.6860  -14.0150   -0.9720 C   0  0  0  0  0  0  0  0  0  0  0  0
    6.5930  -15.4630   -1.1830 C   0  0  0  0  0  0  0  0  0  0  0  0
    7.4690  -16.7290   -1.3420 C   0  0  0  0  0  0  0  0  0  0  0  0
    6.1720  -15.0200   -2.6110 C   0  0  0  0  0  0  0  0  0  0  0  0
    5.3080  -15.8030   -0.3640 C   0  0  1  0  0  0  0  0  0  0  0  0
    5.5180  -16.6860    0.8720 C   0  0  0  0  0  0  0  0  0  0  0  0
    4.2920  -17.0300    1.5230 O   0  0  0  0  0  0  0  0  0  0  0  0
    3.2930  -16.1040    1.5490 C   0  0  0  0  0  0  0  0  0  0  0  0
    2.1680  -16.4470    2.3000 C   0  0  0  0  0  0  0  0  0  0  0  0
    1.0920  -15.5650    2.3930 C   0  0  0  0  0  0  0  0  0  0  0  0
    1.1460  -14.3350    1.7340 C   0  0  0  0  0  0  0  0  0  0  0  0
    0.0320  -13.3820    1.8330 C   0  0  0  0  0  0  0  0  0  0  0  0
   -0.9380  -13.6400    2.5330 O   0  0  0  0  0  0  0  0  0  0  0  0
    0.1620  -12.1160    1.0580 C   0  0  0  0  0  0  0  0  0  0  0  0
   -0.9530  -11.1530    1.0660 C   0  0  0  0  0  0  0  0  0  0  0  0
   -1.9880  -11.2600    0.1270 C   0  0  0  0  0  0  0  0  0  0  0  0
   -3.0340  -10.3350    0.1250 C   0  0  0  0  0  0  0  0  0  0  0  0
   -3.0540   -9.3020    1.0600 C   0  0  0  0  0  0  0  0  0  0  0  0
   -2.0320   -9.1940    2.0020 C   0  0  0  0  0  0  0  0  0  0  0  0
   -0.9840  -10.1160    2.0070 C   0  0  0  0  0  0  0  0  0  0  0  0
    1.3100  -11.8950    0.3800 C   0  0  0  0  0  0  0  0  0  0  0  0
    1.6050  -10.6510   -0.4180 C   0  0  0  0  0  0  0  0  0  0  0  0
    2.3770  -12.7840    0.3450 O   0  0  0  0  0  0  0  0  0  0  0  0
    2.2650  -13.9930    0.9820 C   0  0  0  0  0  0  0  0  0  0  0  0
    3.3470  -14.8850    0.8710 C   0  0  0  0  0  0  0  0  0  0  0  0
    4.5720  -14.5350    0.0740 C   0  0  1  0  0  0  0  0  0  0  0  0
    5.4540  -13.6590    0.8970 N   0  0  0  0  0  0  0  0  0  0  0  0
   11.4707  -12.5085   -0.0621 H   0  0  0  0  0  0  0  0  0  0  0  0
   11.1623  -13.4905   -1.5342 H   0  0  0  0  0  0  0  0  0  0  0  0
   10.7950  -11.7321   -1.5342 H   0  0  0  0  0  0  0  0  0  0  0  0
    9.3554  -11.2496    0.9159 H   0  0  0  0  0  0  0  0  0  0  0  0
    7.0224  -11.7072    1.6647 H   0  0  0  0  0  0  0  0  0  0  0  0
    9.1584  -14.6521   -1.7342 H   0  0  0  0  0  0  0  0  0  0  0  0
    7.7372  -17.1165   -0.3481 H   0  0  0  0  0  0  0  0  0  0  0  0
    6.9076  -17.4962   -1.8955 H   0  0  0  0  0  0  0  0  0  0  0  0
    8.3848  -16.4741   -1.8955 H   0  0  0  0  0  0  0  0  0  0  0  0
    5.4158  -14.2243   -2.5400 H   0  0  0  0  0  0  0  0  0  0  0  0
    7.0521  -14.6423   -3.1521 H   0  0  0  0  0  0  0  0  0  0  0  0
    5.7500  -15.8797   -3.1521 H   0  0  0  0  0  0  0  0  0  0  0  0
    4.7088  -16.3917   -1.0742 H   0  0  0  0  0  0  0  0  0  0  0  0
    6.0222  -17.6126    0.5602 H   0  0  0  0  0  0  0  0  0  0  0  0
    6.1238  -16.1127    1.5891 H   0  0  0  0  0  0  0  0  0  0  0  0
    2.1299  -17.4156    2.8199 H   0  0  0  0  0  0  0  0  0  0  0  0
    0.2043  -15.8370    2.9830 H   0  0  0  0  0  0  0  0  0  0  0  0
   -1.9762  -12.0756   -0.6110 H   0  0  0  0  0  0  0  0  0  0  0  0
   -3.8429  -10.4218   -0.6153 H   0  0  0  0  0  0  0  0  0  0  0  0
   -3.8764   -8.5715    1.0548 H   0  0  0  0  0  0  0  0  0  0  0  0
   -2.0515   -8.3809    2.7426 H   0  0  0  0  0  0  0  0  0  0  0  0
   -0.1799  -10.0279    2.7524 H   0  0  0  0  0  0  0  0  0  0  0  0
    1.8035   -9.8140    0.2676 H   0  0  0  0  0  0  0  0  0  0  0  0
    2.4873  -10.8227   -1.0520 H   0  0  0  0  0  0  0  0  0  0  0  0
    0.7395  -10.4083   -1.0520 H   0  0  0  0  0  0  0  0  0  0  0  0
    4.2775  -13.9928   -0.8367 H   0  0  0  0  0  0  0  0  0  0  0  0
    5.5430  -14.0310    1.8520 H   0  0  0  0  0  0  0  0  0  0  0  0
    4.9890  -12.7460    0.9880 H   0  0  0  0  0  0  0  0  0  0  0  0
  1  2  1  0
  2  3  2  0
  3  4  1  0
  4  5  2  0
  5  6  1  0
  6  7  2  0
  6  8  1  0
  8  9  1  0
  8 10  1  0
  8 11  1  0
 11 12  1  0
 12 13  1  0
 13 14  1  0
 14 15  2  0
 15 16  1  0
 16 17  2  0
 17 18  1  0
 18 19  2  0
 18 20  1  0
 20 21  1  0
 21 22  2  0
 22 23  1  0
 23 24  2  0
 24 25  1  0
 25 26  2  0
 20 27  2  0
 27 28  1  0
 27 29  1  0
 29 30  1  0
 30 31  2  0
 31 32  1  0
 32 33  1  0
  7  2  1  0
 32 11  1  0
 33  5  1  0
 31 14  1  0
 30 17  1  0
 26 21  1  0
  1 34  1  0
  1 35  1  0
  1 36  1  0
  3 37  1  0
  4 38  1  0
  7 39  1  0
  9 40  1  0
  9 41  1  0
  9 42  1  0
 10 43  1  0
 10 44  1  0
 10 45  1  0
 11 46  1  6
 12 47  1  0
 12 48  1  0
 15 49  1  0
 16 50  1  0
 22 51  1  0
 23 52  1  0
 24 53  1  0
 25 54  1  0
 26 55  1  0
 28 56  1  0
 28 57  1  0
 28 58  1  0
 32 59  1  6
 33 60  1  0
 33 61  1  0
M  CHG  1  33   1
M  END
>  <meeko>  (6) 
{"is_sidechain": [false], "free_energy": -8.103, "intermolecular_energy": -8.58, "internal_energy": -0.424}

$$$$
LIB_FMNUBSBKJCVJPF__M_PUB_ALL__e8__s20260927
     RDKit          3D

 61 66  0  0  0  0  0  0  0  0999 V2000
    0.4340  -16.5730   -0.5800 C   0  0  0  0  0  0  0  0  0  0  0  0
    1.8400  -16.0480   -0.4870 C   0  0  0  0  0  0  0  0  0  0  0  0
    2.9180  -16.9300   -0.4180 C   0  0  0  0  0  0  0  0  0  0  0  0
    4.2210  -16.4370   -0.3730 C   0  0  0  0  0  0  0  0  0  0  0  0
    4.4460  -15.0570   -0.4070 C   0  0  0  0  0  0  0  0  0  0  0  0
    3.3900  -14.1410   -0.4710 C   0  0  0  0  0  0  0  0  0  0  0  0
    2.0840  -14.6670   -0.5300 C   0  0  0  0  0  0  0  0  0  0  0  0
    3.6260  -12.6320   -0.5540 C   0  0  0  0  0  0  0  0  0  0  0  0
    2.6120  -11.8370    0.3040 C   0  0  0  0  0  0  0  0  0  0  0  0
    3.3980  -12.2120   -2.0310 C   0  0  0  0  0  0  0  0  0  0  0  0
    5.0840  -12.2540   -0.1430 C   0  0  1  0  0  0  0  0  0  0  0  0
    5.3490  -12.1530    1.3640 C   0  0  0  0  0  0  0  0  0  0  0  0
    6.6770  -11.7180    1.6660 O   0  0  0  0  0  0  0  0  0  0  0  0
    7.6910  -12.1300    0.8540 C   0  0  0  0  0  0  0  0  0  0  0  0
    8.9780  -11.7770    1.2640 C   0  0  0  0  0  0  0  0  0  0  0  0
   10.0850  -12.1550    0.5050 C   0  0  0  0  0  0  0  0  0  0  0  0
    9.9010  -12.8920   -0.6670 C   0  0  0  0  0  0  0  0  0  0  0  0
   11.0530  -13.3170   -1.4730 C   0  0  0  0  0  0  0  0  0  0  0  0
   12.1910  -13.0670   -1.1000 O   0  0  0  0  0  0  0  0  0  0  0  0
   10.7540  -14.0600   -2.7300 C   0  0  0  0  0  0  0  0  0  0  0  0
   11.8670  -14.4520   -3.6130 C   0  0  0  0  0  0  0  0  0  0  0  0
   12.2680  -13.6150   -4.6630 C   0  0  0  0  0  0  0  0  0  0  0  0
   13.3100  -13.9980   -5.5090 C   0  0  0  0  0  0  0  0  0  0  0  0
   13.9590  -15.2150   -5.3100 C   0  0  0  0  0  0  0  0  0  0  0  0
   13.5710  -16.0490   -4.2630 C   0  0  0  0  0  0  0  0  0  0  0  0
   12.5280  -15.6700   -3.4160 C   0  0  0  0  0  0  0  0  0  0  0  0
    9.4650  -14.3530   -3.0090 C   0  0  0  0  0  0  0  0  0  0  0  0
    9.0080  -15.1260   -4.2190 C   0  0  0  0  0  0  0  0  0  0  0  0
    8.3920  -13.9920   -2.2050 O   0  0  0  0  0  0  0  0  0  0  0  0
    8.6190  -13.2410   -1.0790 C   0  0  0  0  0  0  0  0  0  0  0  0
    7.4980  -12.8490   -0.3260 C   0  0  0  0  0  0  0  0  0  0  0  0
    6.1040  -13.2240   -0.7440 C   0  0  1  0  0  0  0  0  0  0  0  0
    5.8280  -14.6250   -0.3170 N   0  0  0  0  0  0  0  0  0  0  0  0
    0.0311  -16.7235    0.4324 H   0  0  0  0  0  0  0  0  0  0  0  0
   -0.1930  -15.8484   -1.1202 H   0  0  0  0  0  0  0  0  0  0  0  0
    0.4354  -17.5312   -1.1202 H   0  0  0  0  0  0  0  0  0  0  0  0
    2.7399  -18.0153   -0.3991 H   0  0  0  0  0  0  0  0  0  0  0  0
    5.0711  -17.1323   -0.3108 H   0  0  0  0  0  0  0  0  0  0  0  0
    1.2323  -13.9757   -0.6120 H   0  0  0  0  0  0  0  0  0  0  0  0
    2.8242  -12.0034    1.3704 H   0  0  0  0  0  0  0  0  0  0  0  0
    2.6998  -10.7646    0.0756 H   0  0  0  0  0  0  0  0  0  0  0  0
    1.5915  -12.1782    0.0756 H   0  0  0  0  0  0  0  0  0  0  0  0
    2.8734  -11.2456   -2.0606 H   0  0  0  0  0  0  0  0  0  0  0  0
    4.3689  -12.1179   -2.5395 H   0  0  0  0  0  0  0  0  0  0  0  0
    2.7902  -12.9749   -2.5395 H   0  0  0  0  0  0  0  0  0  0  0  0
    5.2024  -11.2398   -0.5522 H   0  0  0  0  0  0  0  0  0  0  0  0
    4.6371  -11.4358    1.7986 H   0  0  0  0  0  0  0  0  0  0  0  0
    5.2259  -13.1598    1.7897 H   0  0  0  0  0  0  0  0  0  0  0  0
    9.1193  -11.1987    2.1890 H   0  0  0  0  0  0  0  0  0  0  0  0
   11.0984  -11.8741    0.8278 H   0  0  0  0  0  0  0  0  0  0  0  0
   11.7596  -12.6524   -4.8211 H   0  0  0  0  0  0  0  0  0  0  0  0
   13.6191  -13.3387   -6.3335 H   0  0  0  0  0  0  0  0  0  0  0  0
   14.7777  -15.5175   -5.9795 H   0  0  0  0  0  0  0  0  0  0  0  0
   14.0873  -17.0072   -4.1038 H   0  0  0  0  0  0  0  0  0  0  0  0
   12.2245  -16.3310   -2.5908 H   0  0  0  0  0  0  0  0  0  0  0  0
    8.4730  -16.0310   -3.8954 H   0  0  0  0  0  0  0  0  0  0  0  0
    8.3356  -14.4986   -4.8225 H   0  0  0  0  0  0  0  0  0  0  0  0
    9.8818  -15.4127   -4.8225 H   0  0  0  0  0  0  0  0  0  0  0  0
    6.0172  -13.1591   -1.8386 H   0  0  0  0  0  0  0  0  0  0  0  0
    6.1390  -14.7750    0.6530 H   0  0  0  0  0  0  0  0  0  0  0  0
    6.4010  -15.2490   -0.9010 H   0  0  0  0  0  0  0  0  0  0  0  0
  1  2  1  0
  2  3  2  0
  3  4  1  0
  4  5  2  0
  5  6  1  0
  6  7  2  0
  6  8  1  0
  8  9  1  0
  8 10  1  0
  8 11  1  0
 11 12  1  0
 12 13  1  0
 13 14  1  0
 14 15  2  0
 15 16  1  0
 16 17  2  0
 17 18  1  0
 18 19  2  0
 18 20  1  0
 20 21  1  0
 21 22  2  0
 22 23  1  0
 23 24  2  0
 24 25  1  0
 25 26  2  0
 20 27  2  0
 27 28  1  0
 27 29  1  0
 29 30  1  0
 30 31  2  0
 31 32  1  0
 32 33  1  0
  7  2  1  0
 32 11  1  0
 33  5  1  0
 31 14  1  0
 30 17  1  0
 26 21  1  0
  1 34  1  0
  1 35  1  0
  1 36  1  0
  3 37  1  0
  4 38  1  0
  7 39  1  0
  9 40  1  0
  9 41  1  0
  9 42  1  0
 10 43  1  0
 10 44  1  0
 10 45  1  0
 11 46  1  6
 12 47  1  0
 12 48  1  0
 15 49  1  0
 16 50  1  0
 22 51  1  0
 23 52  1  0
 24 53  1  0
 25 54  1  0
 26 55  1  0
 28 56  1  0
 28 57  1  0
 28 58  1  0
 32 59  1  6
 33 60  1  0
 33 61  1  0
M  CHG  1  33   1
M  END
>  <meeko>  (7) 
{"is_sidechain": [false], "free_energy": -8.092, "intermolecular_energy": -8.569, "internal_energy": -0.424}

$$$$
LIB_FMNUBSBKJCVJPF__M_PUB_ALL__e8__s20260927
     RDKit          3D

 61 66  0  0  0  0  0  0  0  0999 V2000
   12.6720  -12.5480  -11.1960 C   0  0  0  0  0  0  0  0  0  0  0  0
   11.7550  -13.0780  -10.1290 C   0  0  0  0  0  0  0  0  0  0  0  0
   12.2440  -13.3500   -8.8510 C   0  0  0  0  0  0  0  0  0  0  0  0
   11.3810  -13.8020   -7.8550 C   0  0  0  0  0  0  0  0  0  0  0  0
   10.0210  -13.9740   -8.1350 C   0  0  0  0  0  0  0  0  0  0  0  0
    9.4940  -13.7170   -9.4060 C   0  0  0  0  0  0  0  0  0  0  0  0
   10.3870  -13.2460  -10.3900 C   0  0  0  0  0  0  0  0  0  0  0  0
    8.0030  -13.8570   -9.7120 C   0  0  0  0  0  0  0  0  0  0  0  0
    7.7520  -14.4800  -11.1070 C   0  0  0  0  0  0  0  0  0  0  0  0
    7.4020  -12.4260   -9.7400 C   0  0  0  0  0  0  0  0  0  0  0  0
    7.2660  -14.6900   -8.6160 C   0  0  1  0  0  0  0  0  0  0  0  0
    7.3770  -16.2140   -8.7480 C   0  0  0  0  0  0  0  0  0  0  0  0
    6.6090  -16.9140   -7.7650 O   0  0  0  0  0  0  0  0  0  0  0  0
    6.5130  -16.3750   -6.5170 C   0  0  0  0  0  0  0  0  0  0  0  0
    5.8550  -17.1580   -5.5680 C   0  0  0  0  0  0  0  0  0  0  0  0
    5.7080  -16.6980   -4.2600 C   0  0  0  0  0  0  0  0  0  0  0  0
    6.2260  -15.4510   -3.9020 C   0  0  0  0  0  0  0  0  0  0  0  0
    6.1000  -14.9540   -2.5250 C   0  0  0  0  0  0  0  0  0  0  0  0
    5.5770  -15.6500   -1.6650 O   0  0  0  0  0  0  0  0  0  0  0  0
    6.6440  -13.5940   -2.2510 C   0  0  0  0  0  0  0  0  0  0  0  0
    6.4850  -13.0160   -0.9050 C   0  0  0  0  0  0  0  0  0  0  0  0
    5.3030  -12.3500   -0.5550 C   0  0  0  0  0  0  0  0  0  0  0  0
    5.1630  -11.7870    0.7150 C   0  0  0  0  0  0  0  0  0  0  0  0
    6.1980  -11.8900    1.6420 C   0  0  0  0  0  0  0  0  0  0  0  0
    7.3730  -12.5580    1.3040 C   0  0  0  0  0  0  0  0  0  0  0  0
    7.5180  -13.1210    0.0350 C   0  0  0  0  0  0  0  0  0  0  0  0
    7.2730  -12.9420   -3.2530 C   0  0  0  0  0  0  0  0  0  0  0  0
    7.9030  -11.5800   -3.1230 C   0  0  0  0  0  0  0  0  0  0  0  0
    7.4320  -13.4530   -4.5350 O   0  0  0  0  0  0  0  0  0  0  0  0
    6.8790  -14.6680   -4.8480 C   0  0  0  0  0  0  0  0  0  0  0  0
    7.0160  -15.1190   -6.1730 C   0  0  0  0  0  0  0  0  0  0  0  0
    7.7280  -14.2970   -7.2110 C   0  0  1  0  0  0  0  0  0  0  0  0
    9.1980  -14.4860   -7.0560 N   0  0  0  0  0  0  0  0  0  0  0  0
   13.5329  -12.0504  -10.7256 H   0  0  0  0  0  0  0  0  0  0  0  0
   13.0265  -13.3805  -11.8215 H   0  0  0  0  0  0  0  0  0  0  0  0
   12.1276  -11.8253  -11.8215 H   0  0  0  0  0  0  0  0  0  0  0  0
   13.3120  -13.2074   -8.6295 H   0  0  0  0  0  0  0  0  0  0  0  0
   11.7684  -14.0234   -6.8496 H   0  0  0  0  0  0  0  0  0  0  0  0
   10.0001  -13.0034  -11.3907 H   0  0  0  0  0  0  0  0  0  0  0  0
    7.3434  -15.4943  -10.9875 H   0  0  0  0  0  0  0  0  0  0  0  0
    7.0341  -13.8585  -11.6623 H   0  0  0  0  0  0  0  0  0  0  0  0
    8.7002  -14.5298  -11.6623 H   0  0  0  0  0  0  0  0  0  0  0  0
    7.2528  -12.0707   -8.7097 H   0  0  0  0  0  0  0  0  0  0  0  0
    8.0917  -11.7488  -10.2651 H   0  0  0  0  0  0  0  0  0  0  0  0
    6.4356  -12.4444  -10.2651 H   0  0  0  0  0  0  0  0  0  0  0  0
    6.2082  -14.4358   -8.7787 H   0  0  0  0  0  0  0  0  0  0  0  0
    7.0203  -16.5070   -9.7465 H   0  0  0  0  0  0  0  0  0  0  0  0
    8.4327  -16.4831   -8.5960 H   0  0  0  0  0  0  0  0  0  0  0  0
    5.4511  -18.1408   -5.8525 H   0  0  0  0  0  0  0  0  0  0  0  0
    5.1863  -17.3144   -3.5131 H   0  0  0  0  0  0  0  0  0  0  0  0
    4.4825  -12.2704   -1.2833 H   0  0  0  0  0  0  0  0  0  0  0  0
    4.2347  -11.2617    0.9839 H   0  0  0  0  0  0  0  0  0  0  0  0
    6.0874  -11.4437    2.6413 H   0  0  0  0  0  0  0  0  0  0  0  0
    8.1877  -12.6419    2.0383 H   0  0  0  0  0  0  0  0  0  0  0  0
    8.4466  -13.6489   -0.2277 H   0  0  0  0  0  0  0  0  0  0  0  0
    8.0188  -11.3297   -2.0581 H   0  0  0  0  0  0  0  0  0  0  0  0
    8.8903  -11.5849   -3.6080 H   0  0  0  0  0  0  0  0  0  0  0  0
    7.2600  -10.8308   -3.6080 H   0  0  0  0  0  0  0  0  0  0  0  0
    7.4868  -13.2331   -7.0696 H   0  0  0  0  0  0  0  0  0  0  0  0
    9.4240  -15.4820   -6.9360 H   0  0  0  0  0  0  0  0  0  0  0  0
    9.4830  -14.0210   -6.1830 H   0  0  0  0  0  0  0  0  0  0  0  0
  1  2  1  0
  2  3  2  0
  3  4  1  0
  4  5  2  0
  5  6  1  0
  6  7  2  0
  6  8  1  0
  8  9  1  0
  8 10  1  0
  8 11  1  0
 11 12  1  0
 12 13  1  0
 13 14  1  0
 14 15  2  0
 15 16  1  0
 16 17  2  0
 17 18  1  0
 18 19  2  0
 18 20  1  0
 20 21  1  0
 21 22  2  0
 22 23  1  0
 23 24  2  0
 24 25  1  0
 25 26  2  0
 20 27  2  0
 27 28  1  0
 27 29  1  0
 29 30  1  0
 30 31  2  0
 31 32  1  0
 32 33  1  0
  7  2  1  0
 32 11  1  0
 33  5  1  0
 31 14  1  0
 30 17  1  0
 26 21  1  0
  1 34  1  0
  1 35  1  0
  1 36  1  0
  3 37  1  0
  4 38  1  0
  7 39  1  0
  9 40  1  0
  9 41  1  0
  9 42  1  0
 10 43  1  0
 10 44  1  0
 10 45  1  0
 11 46  1  1
 12 47  1  0
 12 48  1  0
 15 49  1  0
 16 50  1  0
 22 51  1  0
 23 52  1  0
 24 53  1  0
 25 54  1  0
 26 55  1  0
 28 56  1  0
 28 57  1  0
 28 58  1  0
 32 59  1  1
 33 60  1  0
 33 61  1  0
M  CHG  1  33   1
M  END
>  <meeko>  (8) 
{"is_sidechain": [false], "free_energy": -8.059, "intermolecular_energy": -8.554, "internal_energy": -0.403}

$$$$
LIB_FMNUBSBKJCVJPF__M_PUB_ALL__e8__s20260927
     RDKit          3D

 61 66  0  0  0  0  0  0  0  0999 V2000
   -2.5900  -10.3140    0.4280 C   0  0  0  0  0  0  0  0  0  0  0  0
   -1.9290  -11.4860    1.0990 C   0  0  0  0  0  0  0  0  0  0  0  0
   -1.3160  -11.3320    2.3430 C   0  0  0  0  0  0  0  0  0  0  0  0
   -0.7410  -12.4310    2.9770 C   0  0  0  0  0  0  0  0  0  0  0  0
   -0.7870  -13.6900    2.3700 C   0  0  0  0  0  0  0  0  0  0  0  0
   -1.3880  -13.8830    1.1210 C   0  0  0  0  0  0  0  0  0  0  0  0
   -1.9750  -12.7570    0.5090 C   0  0  0  0  0  0  0  0  0  0  0  0
   -1.4850  -15.2630    0.4690 C   0  0  0  0  0  0  0  0  0  0  0  0
   -1.2340  -15.2030   -1.0570 C   0  0  0  0  0  0  0  0  0  0  0  0
   -2.9400  -15.7660    0.6700 C   0  0  0  0  0  0  0  0  0  0  0  0
   -0.5050  -16.2820    1.1300 C   0  0  1  0  0  0  0  0  0  0  0  0
    0.9500  -16.2200    0.6480 C   0  0  0  0  0  0  0  0  0  0  0  0
    1.7710  -17.2370    1.2290 O   0  0  0  0  0  0  0  0  0  0  0  0
    1.5300  -17.6010    2.5190 C   0  0  0  0  0  0  0  0  0  0  0  0
    2.4360  -18.5080    3.0720 C   0  0  0  0  0  0  0  0  0  0  0  0
    2.2790  -18.9400    4.3890 C   0  0  0  0  0  0  0  0  0  0  0  0
    1.2140  -18.4610    5.1530 C   0  0  0  0  0  0  0  0  0  0  0  0
    1.0390  -18.8890    6.5480 C   0  0  0  0  0  0  0  0  0  0  0  0
    1.8560  -19.6380    7.0680 O   0  0  0  0  0  0  0  0  0  0  0  0
   -0.1530  -18.3580    7.2680 C   0  0  0  0  0  0  0  0  0  0  0  0
   -0.4150  -18.8070    8.6460 C   0  0  0  0  0  0  0  0  0  0  0  0
   -1.2040  -19.9400    8.8860 C   0  0  0  0  0  0  0  0  0  0  0  0
   -1.4670  -20.3510   10.1940 C   0  0  0  0  0  0  0  0  0  0  0  0
   -0.9420  -19.6360   11.2680 C   0  0  0  0  0  0  0  0  0  0  0  0
   -0.1490  -18.5120   11.0380 C   0  0  0  0  0  0  0  0  0  0  0  0
    0.1140  -18.0980    9.7320 C   0  0  0  0  0  0  0  0  0  0  0  0
   -0.9480  -17.4750    6.6260 C   0  0  0  0  0  0  0  0  0  0  0  0
   -2.1660  -16.8250    7.2300 C   0  0  0  0  0  0  0  0  0  0  0  0
   -0.7350  -17.0380    5.3240 O   0  0  0  0  0  0  0  0  0  0  0  0
    0.3080  -17.5610    4.6020 C   0  0  0  0  0  0  0  0  0  0  0  0
    0.4500  -17.1330    3.2700 C   0  0  0  0  0  0  0  0  0  0  0  0
   -0.5080  -16.1520    2.6560 C   0  0  1  0  0  0  0  0  0  0  0  0
   -0.1310  -14.7730    3.0780 N   0  0  0  0  0  0  0  0  0  0  0  0
   -2.9786   -9.6251    1.1925 H   0  0  0  0  0  0  0  0  0  0  0  0
   -1.8552   -9.7885   -0.1997 H   0  0  0  0  0  0  0  0  0  0  0  0
   -3.4198  -10.6710   -0.1997 H   0  0  0  0  0  0  0  0  0  0  0  0
   -1.2868  -10.3427    2.8230 H   0  0  0  0  0  0  0  0  0  0  0  0
   -0.2512  -12.3086    3.9543 H   0  0  0  0  0  0  0  0  0  0  0  0
   -2.4835  -12.8790   -0.4588 H   0  0  0  0  0  0  0  0  0  0  0  0
   -0.1800  -14.9510   -1.2456 H   0  0  0  0  0  0  0  0  0  0  0  0
   -1.4630  -16.1812   -1.5050 H   0  0  0  0  0  0  0  0  0  0  0  0
   -1.8806  -14.4341   -1.5050 H   0  0  0  0  0  0  0  0  0  0  0  0
   -3.1567  -15.8409    1.7458 H   0  0  0  0  0  0  0  0  0  0  0  0
   -3.6405  -15.0579    0.2033 H   0  0  0  0  0  0  0  0  0  0  0  0
   -3.0536  -16.7556    0.2033 H   0  0  0  0  0  0  0  0  0  0  0  0
   -0.9033  -17.2550    0.8066 H   0  0  0  0  0  0  0  0  0  0  0  0
    0.9633  -16.3398   -0.4454 H   0  0  0  0  0  0  0  0  0  0  0  0
    1.3598  -15.2472    0.9573 H   0  0  0  0  0  0  0  0  0  0  0  0
    3.2754  -18.8827    2.4678 H   0  0  0  0  0  0  0  0  0  0  0  0
    2.9922  -19.6557    4.8238 H   0  0  0  0  0  0  0  0  0  0  0  0
   -1.6180  -20.5081    8.0399 H   0  0  0  0  0  0  0  0  0  0  0  0
   -2.0890  -21.2397   10.3765 H   0  0  0  0  0  0  0  0  0  0  0  0
   -1.1530  -19.9582   12.2984 H   0  0  0  0  0  0  0  0  0  0  0  0
    0.2694  -17.9515   11.8870 H   0  0  0  0  0  0  0  0  0  0  0  0
    0.7396  -17.2108    9.5543 H   0  0  0  0  0  0  0  0  0  0  0  0
   -2.0956  -16.8626    8.3271 H   0  0  0  0  0  0  0  0  0  0  0  0
   -2.2229  -15.7766    6.9019 H   0  0  0  0  0  0  0  0  0  0  0  0
   -3.0686  -17.3614    6.9019 H   0  0  0  0  0  0  0  0  0  0  0  0
   -1.5291  -16.3663    3.0045 H   0  0  0  0  0  0  0  0  0  0  0  0
    0.8850  -14.6340    2.9900 H   0  0  0  0  0  0  0  0  0  0  0  0
   -0.3470  -14.6840    4.0800 H   0  0  0  0  0  0  0  0  0  0  0  0
  1  2  1  0
  2  3  2  0
  3  4  1  0
  4  5  2  0
  5  6  1  0
  6  7  2  0
  6  8  1  0
  8  9  1  0
  8 10  1  0
  8 11  1  0
 11 12  1  0
 12 13  1  0
 13 14  1  0
 14 15  2  0
 15 16  1  0
 16 17  2  0
 17 18  1  0
 18 19  2  0
 18 20  1  0
 20 21  1  0
 21 22  2  0
 22 23  1  0
 23 24  2  0
 24 25  1  0
 25 26  2  0
 20 27  2  0
 27 28  1  0
 27 29  1  0
 29 30  1  0
 30 31  2  0
 31 32  1  0
 32 33  1  0
  7  2  1  0
 32 11  1  0
 33  5  1  0
 31 14  1  0
 30 17  1  0
 26 21  1  0
  1 34  1  0
  1 35  1  0
  1 36  1  0
  3 37  1  0
  4 38  1  0
  7 39  1  0
  9 40  1  0
  9 41  1  0
  9 42  1  0
 10 43  1  0
 10 44  1  0
 10 45  1  0
 11 46  1  1
 12 47  1  0
 12 48  1  0
 15 49  1  0
 16 50  1  0
 22 51  1  0
 23 52  1  0
 24 53  1  0
 25 54  1  0
 26 55  1  0
 28 56  1  0
 28 57  1  0
 28 58  1  0
 32 59  1  1
 33 60  1  0
 33 61  1  0
M  CHG  1  33   1
M  END
>  <meeko>  (9) 
{"is_sidechain": [false], "free_energy": -7.828, "intermolecular_energy": -8.285, "internal_energy": -0.428}

$$$$
