LIB_PHVRYQBXECZHNT__M_PUB_ALL__e8__s20260927
     RDKit          3D

 71 76  0  0  0  0  0  0  0  0999 V2000
   15.3330  -14.5740  -11.5090 C   0  0  0  0  0  0  0  0  0  0  0  0
   14.8200  -13.1780  -11.7010 N   0  0  0  0  0  0  0  0  0  0  0  0
   14.0590  -12.6390  -10.4950 C   0  0  0  0  0  0  0  0  0  0  0  0
   12.6560  -13.2670  -10.3640 C   0  0  0  0  0  0  0  0  0  0  0  0
   11.9100  -13.1750  -11.6340 N   0  0  0  0  0  0  0  0  0  0  0  0
   10.5200  -13.2890  -11.5520 C   0  0  0  0  0  0  0  0  0  0  0  0
    9.6620  -12.7850  -12.5390 C   0  0  0  0  0  0  0  0  0  0  0  0
    8.2750  -12.9270  -12.4410 C   0  0  0  0  0  0  0  0  0  0  0  0
    7.7130  -13.5740  -11.3440 C   0  0  0  0  0  0  0  0  0  0  0  0
    8.5310  -14.0760  -10.3320 C   0  0  0  0  0  0  0  0  0  0  0  0
    7.9690  -14.7310   -9.1630 C   0  0  0  0  0  0  0  0  0  0  0  0
    8.1210  -16.0570   -8.7130 C   0  0  0  0  0  0  0  0  0  0  0  0
    7.4300  -16.3250   -7.6090 N   0  0  0  0  0  0  0  0  0  0  0  0
    6.8070  -15.1450   -7.3070 N   0  0  0  0  0  0  0  0  0  0  0  0
    5.9430  -14.8980   -6.2040 C   0  0  0  0  0  0  0  0  0  0  0  0
    5.7220  -15.9530   -5.3410 N   0  0  0  0  0  0  0  0  0  0  0  0
    5.4090  -13.6620   -6.0780 C   0  0  0  0  0  0  0  0  0  0  0  0
    4.5040  -13.2600   -4.9970 C   0  0  0  0  0  0  0  0  0  0  0  0
    4.9580  -12.4390   -3.9610 C   0  0  0  0  0  0  0  0  0  0  0  0
    4.0910  -12.0580   -2.9300 C   0  0  0  0  0  0  0  0  0  0  0  0
    2.7590  -12.4890   -2.9170 C   0  0  0  0  0  0  0  0  0  0  0  0
    1.9510  -12.0590   -1.8440 N   0  0  0  0  0  0  0  0  0  0  0  0
    1.4400  -10.7890   -1.6370 C   0  0  0  0  0  0  0  0  0  0  0  0
    1.5320   -9.8290   -2.3930 O   0  0  0  0  0  0  0  0  0  0  0  0
    0.6690  -10.6200   -0.3740 C   0  0  0  0  0  0  0  0  0  0  0  0
    0.2350  -11.7650    0.3030 C   0  0  0  0  0  0  0  0  0  0  0  0
   -0.4940  -11.6500    1.4890 C   0  0  0  0  0  0  0  0  0  0  0  0
   -0.8050  -10.3850    2.0130 C   0  0  0  0  0  0  0  0  0  0  0  0
   -1.6160  -10.2560    3.2820 C   0  0  0  0  0  0  0  0  0  0  0  0
   -1.5350   -9.0140    3.8360 F   0  0  0  0  0  0  0  0  0  0  0  0
   -2.9410  -10.4880    3.0740 F   0  0  0  0  0  0  0  0  0  0  0  0
   -1.2280  -11.1250    4.2560 F   0  0  0  0  0  0  0  0  0  0  0  0
   -0.3910   -9.2390    1.3140 C   0  0  0  0  0  0  0  0  0  0  0  0
    0.3410   -9.3530    0.1270 C   0  0  0  0  0  0  0  0  0  0  0  0
    2.3070  -13.3050   -3.9560 C   0  0  0  0  0  0  0  0  0  0  0  0
    3.1720  -13.6870   -4.9880 C   0  0  0  0  0  0  0  0  0  0  0  0
    5.8030  -12.6770   -7.1350 C   0  0  0  0  0  0  0  0  0  0  0  0
    6.5920  -12.8860   -8.1450 N   0  0  0  0  0  0  0  0  0  0  0  0
    7.1160  -14.1470   -8.2420 C   0  0  0  0  0  0  0  0  0  0  0  0
    9.9240  -13.9220  -10.4460 C   0  0  0  0  0  0  0  0  0  0  0  0
   12.5980  -13.6360  -12.8500 C   0  0  0  0  0  0  0  0  0  0  0  0
   13.9960  -12.9990  -12.9720 C   0  0  0  0  0  0  0  0  0  0  0  0
   15.4126  -14.7907  -10.4335 H   0  0  0  0  0  0  0  0  0  0  0  0
   14.6383  -15.2874  -11.9763 H   0  0  0  0  0  0  0  0  0  0  0  0
   16.3244  -14.6679  -11.9763 H   0  0  0  0  0  0  0  0  0  0  0  0
   15.6470  -12.5770  -11.8090 H   0  0  0  0  0  0  0  0  0  0  0  0
   14.6339  -12.8628   -9.5843 H   0  0  0  0  0  0  0  0  0  0  0  0
   13.9327  -11.5549  -10.6319 H   0  0  0  0  0  0  0  0  0  0  0  0
   12.7614  -14.3259  -10.0855 H   0  0  0  0  0  0  0  0  0  0  0  0
   12.0986  -12.7168   -9.5917 H   0  0  0  0  0  0  0  0  0  0  0  0
   10.0895  -12.2664  -13.4098 H   0  0  0  0  0  0  0  0  0  0  0  0
    7.6255  -12.5263  -13.2332 H   0  0  0  0  0  0  0  0  0  0  0  0
    6.6213  -13.6896  -11.2752 H   0  0  0  0  0  0  0  0  0  0  0  0
    8.7506  -16.7993   -9.2254 H   0  0  0  0  0  0  0  0  0  0  0  0
    4.7910  -16.3650   -5.3290 H   0  0  0  0  0  0  0  0  0  0  0  0
    6.4700  -16.3410   -4.7800 H   0  0  0  0  0  0  0  0  0  0  0  0
    6.0014  -12.0906   -3.9557 H   0  0  0  0  0  0  0  0  0  0  0  0
    4.4608  -11.4120   -2.1201 H   0  0  0  0  0  0  0  0  0  0  0  0
    1.6860  -12.7740   -1.1790 H   0  0  0  0  0  0  0  0  0  0  0  0
    0.4691  -12.7610   -0.1009 H   0  0  0  0  0  0  0  0  0  0  0  0
   -0.8266  -12.5565    2.0159 H   0  0  0  0  0  0  0  0  0  0  0  0
   -0.6448   -8.2421    1.7037 H   0  0  0  0  0  0  0  0  0  0  0  0
    0.6588   -8.4487   -0.4126 H   0  0  0  0  0  0  0  0  0  0  0  0
    1.2627  -13.6504   -3.9635 H   0  0  0  0  0  0  0  0  0  0  0  0
    2.8006  -14.3294   -5.8000 H   0  0  0  0  0  0  0  0  0  0  0  0
    5.3778  -11.6664   -7.0462 H   0  0  0  0  0  0  0  0  0  0  0  0
   10.5692  -14.3094   -9.6437 H   0  0  0  0  0  0  0  0  0  0  0  0
   12.7040  -14.7301  -12.8098 H   0  0  0  0  0  0  0  0  0  0  0  0
   12.0005  -13.3372  -13.7239 H   0  0  0  0  0  0  0  0  0  0  0  0
   14.5293  -13.4714  -13.8101 H   0  0  0  0  0  0  0  0  0  0  0  0
   13.8635  -11.9202  -13.1411 H   0  0  0  0  0  0  0  0  0  0  0  0
  1  2  1  0
  2  3  1  0
  3  4  1  0
  4  5  1  0
  5  6  1  0
  6  7  2  0
  7  8  1  0
  8  9  2  0
  9 10  1  0
 10 11  1  0
 11 12  1  0
 12 13  2  0
 13 14  1  0
 14 15  1  0
 15 16  1  0
 15 17  2  0
 17 18  1  0
 18 19  2  0
 19 20  1  0
 20 21  2  0
 21 22  1  0
 22 23  1  0
 23 24  2  0
 23 25  1  0
 25 26  2  0
 26 27  1  0
 27 28  2  0
 28 29  1  0
 29 30  1  0
 29 31  1  0
 29 32  1  0
 28 33  1  0
 33 34  2  0
 21 35  1  0
 35 36  2  0
 17 37  1  0
 37 38  2  0
 38 39  1  0
 10 40  2  0
  5 41  1  0
 41 42  1  0
 42  2  1  0
 40  6  1  0
 39 11  2  0
 39 14  1  0
 36 18  1  0
 34 25  1  0
  1 43  1  0
  1 44  1  0
  1 45  1  0
  2 46  1  0
  3 47  1  0
  3 48  1  0
  4 49  1  0
  4 50  1  0
  7 51  1  0
  8 52  1  0
  9 53  1  0
 12 54  1  0
 16 55  1  0
 16 56  1  0
 19 57  1  0
 20 58  1  0
 22 59  1  0
 26 60  1  0
 27 61  1  0
 33 62  1  0
 34 63  1  0
 35 64  1  0
 36 65  1  0
 37 66  1  0
 40 67  1  0
 41 68  1  0
 41 69  1  0
 42 70  1  0
 42 71  1  0
M  CHG  1   2   1
M  END
>  <meeko>  (1) 
{"is_sidechain": [false], "free_energy": -9.732, "intermolecular_energy": -13.43, "internal_energy": -1.095}

$$$$
LIB_PHVRYQBXECZHNT__M_PUB_ALL__e8__s20260927
     RDKit          3D

 71 76  0  0  0  0  0  0  0  0999 V2000
    9.3480  -12.8070   -0.5100 C   0  0  0  0  0  0  0  0  0  0  0  0
    8.2950  -13.4860    0.3140 N   0  0  0  0  0  0  0  0  0  0  0  0
    7.5010  -14.5340   -0.4590 C   0  0  0  0  0  0  0  0  0  0  0  0
    6.4950  -13.8960   -1.4390 C   0  0  0  0  0  0  0  0  0  0  0  0
    5.6570  -12.8880   -0.7620 N   0  0  0  0  0  0  0  0  0  0  0  0
    4.4490  -12.5610   -1.3830 C   0  0  0  0  0  0  0  0  0  0  0  0
    4.2550  -12.6800   -2.7660 C   0  0  0  0  0  0  0  0  0  0  0  0
    3.0300  -12.3620   -3.3610 C   0  0  0  0  0  0  0  0  0  0  0  0
    1.9700  -11.9090   -2.5810 C   0  0  0  0  0  0  0  0  0  0  0  0
    2.1270  -11.7620   -1.2020 C   0  0  0  0  0  0  0  0  0  0  0  0
    1.0450  -11.2650   -0.3690 C   0  0  0  0  0  0  0  0  0  0  0  0
    0.7420   -9.9450    0.0190 C   0  0  0  0  0  0  0  0  0  0  0  0
   -0.3170   -9.8590    0.8200 N   0  0  0  0  0  0  0  0  0  0  0  0
   -0.7380  -11.1530    0.9630 N   0  0  0  0  0  0  0  0  0  0  0  0
   -1.8490  -11.6070    1.7270 C   0  0  0  0  0  0  0  0  0  0  0  0
   -2.5880  -10.6400    2.3790 N   0  0  0  0  0  0  0  0  0  0  0  0
   -2.1030  -12.9340    1.7550 C   0  0  0  0  0  0  0  0  0  0  0  0
   -3.2090  -13.5480    2.4980 C   0  0  0  0  0  0  0  0  0  0  0  0
   -4.4500  -12.9090    2.5750 C   0  0  0  0  0  0  0  0  0  0  0  0
   -5.5030  -13.4960    3.2860 C   0  0  0  0  0  0  0  0  0  0  0  0
   -5.3340  -14.7300    3.9280 C   0  0  0  0  0  0  0  0  0  0  0  0
   -6.4460  -15.2540    4.6210 N   0  0  0  0  0  0  0  0  0  0  0  0
   -6.9350  -14.8460    5.8500 C   0  0  0  0  0  0  0  0  0  0  0  0
   -6.5370  -13.9020    6.5210 O   0  0  0  0  0  0  0  0  0  0  0  0
   -8.0920  -15.6350    6.3600 C   0  0  0  0  0  0  0  0  0  0  0  0
   -8.8540  -16.3690    5.4450 C   0  0  0  0  0  0  0  0  0  0  0  0
   -9.9490  -17.1190    5.8820 C   0  0  0  0  0  0  0  0  0  0  0  0
  -10.3010  -17.1390    7.2410 C   0  0  0  0  0  0  0  0  0  0  0  0
  -11.5010  -17.9280    7.7130 C   0  0  0  0  0  0  0  0  0  0  0  0
  -12.5610  -17.1350    8.0330 F   0  0  0  0  0  0  0  0  0  0  0  0
  -11.9530  -18.7950    6.7660 F   0  0  0  0  0  0  0  0  0  0  0  0
  -11.2480  -18.6770    8.8210 F   0  0  0  0  0  0  0  0  0  0  0  0
   -9.5480  -16.3770    8.1490 C   0  0  0  0  0  0  0  0  0  0  0  0
   -8.4500  -15.6270    7.7140 C   0  0  0  0  0  0  0  0  0  0  0  0
   -4.0960  -15.3670    3.8430 C   0  0  0  0  0  0  0  0  0  0  0  0
   -3.0410  -14.7810    3.1340 C   0  0  0  0  0  0  0  0  0  0  0  0
   -1.1660  -13.7880    0.9590 C   0  0  0  0  0  0  0  0  0  0  0  0
   -0.1500  -13.3900    0.2550 N   0  0  0  0  0  0  0  0  0  0  0  0
    0.0780  -12.0400    0.2460 C   0  0  0  0  0  0  0  0  0  0  0  0
    3.3660  -12.0850   -0.6220 C   0  0  0  0  0  0  0  0  0  0  0  0
    6.3520  -11.8690    0.0400 C   0  0  0  0  0  0  0  0  0  0  0  0
    7.3500  -12.5180    1.0180 C   0  0  0  0  0  0  0  0  0  0  0  0
   10.0844  -12.3322    0.1550 H   0  0  0  0  0  0  0  0  0  0  0  0
    9.8527  -13.5502   -1.1447 H   0  0  0  0  0  0  0  0  0  0  0  0
    8.8793  -12.0406   -1.1447 H   0  0  0  0  0  0  0  0  0  0  0  0
    8.7910  -13.9940    1.0570 H   0  0  0  0  0  0  0  0  0  0  0  0
    8.2025  -15.1606   -1.0293 H   0  0  0  0  0  0  0  0  0  0  0  0
    6.9318  -15.1312    0.2685 H   0  0  0  0  0  0  0  0  0  0  0  0
    7.0487  -13.4116   -2.2568 H   0  0  0  0  0  0  0  0  0  0  0  0
    5.8396  -14.6881   -1.8302 H   0  0  0  0  0  0  0  0  0  0  0  0
    5.0845  -13.0312   -3.3973 H   0  0  0  0  0  0  0  0  0  0  0  0
    2.9039  -12.4702   -4.4484 H   0  0  0  0  0  0  0  0  0  0  0  0
    1.0063  -11.6663   -3.0525 H   0  0  0  0  0  0  0  0  0  0  0  0
    1.3240   -9.0708   -0.3083 H   0  0  0  0  0  0  0  0  0  0  0  0
   -3.4290  -10.2980    1.9180 H   0  0  0  0  0  0  0  0  0  0  0  0
   -2.3380  -10.3190    3.3060 H   0  0  0  0  0  0  0  0  0  0  0  0
   -4.5995  -11.9408    2.0747 H   0  0  0  0  0  0  0  0  0  0  0  0
   -6.4744  -12.9828    3.3415 H   0  0  0  0  0  0  0  0  0  0  0  0
   -6.9630  -15.9780    4.1390 H   0  0  0  0  0  0  0  0  0  0  0  0
   -8.5902  -16.3557    4.3772 H   0  0  0  0  0  0  0  0  0  0  0  0
  -10.5393  -17.6977    5.1563 H   0  0  0  0  0  0  0  0  0  0  0  0
   -9.8244  -16.3697    9.2137 H   0  0  0  0  0  0  0  0  0  0  0  0
   -7.8690  -15.0321    8.4341 H   0  0  0  0  0  0  0  0  0  0  0  0
   -3.9475  -16.3383    4.3375 H   0  0  0  0  0  0  0  0  0  0  0  0
   -2.0706  -15.2958    3.0769 H   0  0  0  0  0  0  0  0  0  0  0  0
   -1.3592  -14.8708    0.9718 H   0  0  0  0  0  0  0  0  0  0  0  0
    3.4929  -11.9614    0.4636 H   0  0  0  0  0  0  0  0  0  0  0  0
    6.8979  -11.1924   -0.6339 H   0  0  0  0  0  0  0  0  0  0  0  0
    5.6031  -11.3129    0.6231 H   0  0  0  0  0  0  0  0  0  0  0  0
    7.9449  -11.7256    1.4957 H   0  0  0  0  0  0  0  0  0  0  0  0
    6.7738  -13.0875    1.7621 H   0  0  0  0  0  0  0  0  0  0  0  0
  1  2  1  0
  2  3  1  0
  3  4  1  0
  4  5  1  0
  5  6  1  0
  6  7  2  0
  7  8  1  0
  8  9  2  0
  9 10  1  0
 10 11  1  0
 11 12  1  0
 12 13  2  0
 13 14  1  0
 14 15  1  0
 15 16  1  0
 15 17  2  0
 17 18  1  0
 18 19  2  0
 19 20  1  0
 20 21  2  0
 21 22  1  0
 22 23  1  0
 23 24  2  0
 23 25  1  0
 25 26  2  0
 26 27  1  0
 27 28  2  0
 28 29  1  0
 29 30  1  0
 29 31  1  0
 29 32  1  0
 28 33  1  0
 33 34  2  0
 21 35  1  0
 35 36  2  0
 17 37  1  0
 37 38  2  0
 38 39  1  0
 10 40  2  0
  5 41  1  0
 41 42  1  0
 42  2  1  0
 40  6  1  0
 39 11  2  0
 39 14  1  0
 36 18  1  0
 34 25  1  0
  1 43  1  0
  1 44  1  0
  1 45  1  0
  2 46  1  0
  3 47  1  0
  3 48  1  0
  4 49  1  0
  4 50  1  0
  7 51  1  0
  8 52  1  0
  9 53  1  0
 12 54  1  0
 16 55  1  0
 16 56  1  0
 19 57  1  0
 20 58  1  0
 22 59  1  0
 26 60  1  0
 27 61  1  0
 33 62  1  0
 34 63  1  0
 35 64  1  0
 36 65  1  0
 37 66  1  0
 40 67  1  0
 41 68  1  0
 41 69  1  0
 42 70  1  0
 42 71  1  0
M  CHG  1   2   1
M  END
>  <meeko>  (2) 
{"is_sidechain": [false], "free_energy": -9.336, "intermolecular_energy": -13.275, "internal_energy": -0.703}

$$$$
LIB_PHVRYQBXECZHNT__M_PUB_ALL__e8__s20260927
     RDKit          3D

 71 76  0  0  0  0  0  0  0  0999 V2000
   13.8790  -16.5540   -8.3210 C   0  0  0  0  0  0  0  0  0  0  0  0
   12.5570  -16.3970   -7.6310 N   0  0  0  0  0  0  0  0  0  0  0  0
   11.9940  -14.9820   -7.7080 C   0  0  0  0  0  0  0  0  0  0  0  0
   12.7370  -14.0090   -6.7710 C   0  0  0  0  0  0  0  0  0  0  0  0
   12.8170  -14.5460   -5.4000 N   0  0  0  0  0  0  0  0  0  0  0  0
   13.0530  -13.6220   -4.3790 C   0  0  0  0  0  0  0  0  0  0  0  0
   14.1570  -12.7580   -4.3830 C   0  0  0  0  0  0  0  0  0  0  0  0
   14.3600  -11.8300   -3.3570 C   0  0  0  0  0  0  0  0  0  0  0  0
   13.4620  -11.7510   -2.2960 C   0  0  0  0  0  0  0  0  0  0  0  0
   12.3590  -12.6040   -2.2460 C   0  0  0  0  0  0  0  0  0  0  0  0
   11.4230  -12.5610   -1.1360 C   0  0  0  0  0  0  0  0  0  0  0  0
   11.6690  -12.5770    0.2510 C   0  0  0  0  0  0  0  0  0  0  0  0
   10.5610  -12.5560    0.9860 N   0  0  0  0  0  0  0  0  0  0  0  0
    9.5480  -12.5160    0.0680 N   0  0  0  0  0  0  0  0  0  0  0  0
    8.1520  -12.4780    0.3420 C   0  0  0  0  0  0  0  0  0  0  0  0
    7.7830  -12.4640    1.6720 N   0  0  0  0  0  0  0  0  0  0  0  0
    7.2980  -12.4520   -0.7060 C   0  0  0  0  0  0  0  0  0  0  0  0
    5.8370  -12.4120   -0.5790 C   0  0  0  0  0  0  0  0  0  0  0  0
    5.2130  -12.9100    0.5680 C   0  0  0  0  0  0  0  0  0  0  0  0
    3.8180  -12.8720    0.6850 C   0  0  0  0  0  0  0  0  0  0  0  0
    3.0270  -12.3360   -0.3390 C   0  0  0  0  0  0  0  0  0  0  0  0
    1.6300  -12.3340   -0.1420 N   0  0  0  0  0  0  0  0  0  0  0  0
    0.8730  -11.3520    0.4730 C   0  0  0  0  0  0  0  0  0  0  0  0
    1.2720  -10.2690    0.8860 O   0  0  0  0  0  0  0  0  0  0  0  0
   -0.5800  -11.6590    0.5910 C   0  0  0  0  0  0  0  0  0  0  0  0
   -0.9720  -12.9950    0.7240 C   0  0  0  0  0  0  0  0  0  0  0  0
   -2.3250  -13.3250    0.8340 C   0  0  0  0  0  0  0  0  0  0  0  0
   -3.3070  -12.3230    0.8050 C   0  0  0  0  0  0  0  0  0  0  0  0
   -4.7720  -12.6790    0.8980 C   0  0  0  0  0  0  0  0  0  0  0  0
   -5.5650  -11.8500    0.1620 F   0  0  0  0  0  0  0  0  0  0  0  0
   -5.0270  -13.9380    0.4460 F   0  0  0  0  0  0  0  0  0  0  0  0
   -5.2580  -12.6280    2.1680 F   0  0  0  0  0  0  0  0  0  0  0  0
   -2.9080  -10.9860    0.6420 C   0  0  0  0  0  0  0  0  0  0  0  0
   -1.5540  -10.6530    0.5340 C   0  0  0  0  0  0  0  0  0  0  0  0
    3.6550  -11.8350   -1.4810 C   0  0  0  0  0  0  0  0  0  0  0  0
    5.0490  -11.8730   -1.6000 C   0  0  0  0  0  0  0  0  0  0  0  0
    7.9360  -12.4640   -2.0600 C   0  0  0  0  0  0  0  0  0  0  0  0
    9.2060  -12.4960   -2.3270 N   0  0  0  0  0  0  0  0  0  0  0  0
   10.0430  -12.5190   -1.2440 C   0  0  0  0  0  0  0  0  0  0  0  0
   12.1720  -13.5320   -3.2850 C   0  0  0  0  0  0  0  0  0  0  0  0
   13.3110  -15.9240   -5.2480 C   0  0  0  0  0  0  0  0  0  0  0  0
   12.5590  -16.8880   -6.1870 C   0  0  0  0  0  0  0  0  0  0  0  0
   14.6762  -16.6487   -7.5690 H   0  0  0  0  0  0  0  0  0  0  0  0
   13.8594  -17.4561   -8.9501 H   0  0  0  0  0  0  0  0  0  0  0  0
   14.0712  -15.6724   -8.9501 H   0  0  0  0  0  0  0  0  0  0  0  0
   11.8930  -16.9970   -8.1360 H   0  0  0  0  0  0  0  0  0  0  0  0
   12.0875  -14.6191   -8.7422 H   0  0  0  0  0  0  0  0  0  0  0  0
   10.9413  -15.0192   -7.3910 H   0  0  0  0  0  0  0  0  0  0  0  0
   13.7558  -13.8495   -7.1540 H   0  0  0  0  0  0  0  0  0  0  0  0
   12.1809  -13.0604   -6.7418 H   0  0  0  0  0  0  0  0  0  0  0  0
   14.8791  -12.8113   -5.2111 H   0  0  0  0  0  0  0  0  0  0  0  0
   15.2320  -11.1602   -3.3882 H   0  0  0  0  0  0  0  0  0  0  0  0
   13.6225  -11.0142   -1.4951 H   0  0  0  0  0  0  0  0  0  0  0  0
   12.6798  -12.6042    0.6841 H   0  0  0  0  0  0  0  0  0  0  0  0
    7.5740  -11.5610    2.0940 H   0  0  0  0  0  0  0  0  0  0  0  0
    7.6690  -13.3210    2.1990 H   0  0  0  0  0  0  0  0  0  0  0  0
    5.8198  -13.3334    1.3819 H   0  0  0  0  0  0  0  0  0  0  0  0
    3.3378  -13.2679    1.5920 H   0  0  0  0  0  0  0  0  0  0  0  0
    1.1290  -13.1200   -0.5340 H   0  0  0  0  0  0  0  0  0  0  0  0
   -0.2115  -13.7895    0.7421 H   0  0  0  0  0  0  0  0  0  0  0  0
   -2.6228  -14.3782    0.9442 H   0  0  0  0  0  0  0  0  0  0  0  0
   -3.6686  -10.1925    0.5989 H   0  0  0  0  0  0  0  0  0  0  0  0
   -1.2539   -9.6027    0.4045 H   0  0  0  0  0  0  0  0  0  0  0  0
    3.0494  -11.4071   -2.2935 H   0  0  0  0  0  0  0  0  0  0  0  0
    5.5293  -11.4748   -2.5060 H   0  0  0  0  0  0  0  0  0  0  0  0
    7.2543  -12.4435   -2.9230 H   0  0  0  0  0  0  0  0  0  0  0  0
   11.3077  -14.2110   -3.2417 H   0  0  0  0  0  0  0  0  0  0  0  0
   14.3837  -15.9502   -5.4899 H   0  0  0  0  0  0  0  0  0  0  0  0
   13.1419  -16.2440   -4.2092 H   0  0  0  0  0  0  0  0  0  0  0  0
   13.0463  -17.8734   -6.1481 H   0  0  0  0  0  0  0  0  0  0  0  0
   11.5144  -16.9458   -5.8473 H   0  0  0  0  0  0  0  0  0  0  0  0
  1  2  1  0
  2  3  1  0
  3  4  1  0
  4  5  1  0
  5  6  1  0
  6  7  2  0
  7  8  1  0
  8  9  2  0
  9 10  1  0
 10 11  1  0
 11 12  1  0
 12 13  2  0
 13 14  1  0
 14 15  1  0
 15 16  1  0
 15 17  2  0
 17 18  1  0
 18 19  2  0
 19 20  1  0
 20 21  2  0
 21 22  1  0
 22 23  1  0
 23 24  2  0
 23 25  1  0
 25 26  2  0
 26 27  1  0
 27 28  2  0
 28 29  1  0
 29 30  1  0
 29 31  1  0
 29 32  1  0
 28 33  1  0
 33 34  2  0
 21 35  1  0
 35 36  2  0
 17 37  1  0
 37 38  2  0
 38 39  1  0
 10 40  2  0
  5 41  1  0
 41 42  1  0
 42  2  1  0
 40  6  1  0
 39 11  2  0
 39 14  1  0
 36 18  1  0
 34 25  1  0
  1 43  1  0
  1 44  1  0
  1 45  1  0
  2 46  1  0
  3 47  1  0
  3 48  1  0
  4 49  1  0
  4 50  1  0
  7 51  1  0
  8 52  1  0
  9 53  1  0
 12 54  1  0
 16 55  1  0
 16 56  1  0
 19 57  1  0
 20 58  1  0
 22 59  1  0
 26 60  1  0
 27 61  1  0
 33 62  1  0
 34 63  1  0
 35 64  1  0
 36 65  1  0
 37 66  1  0
 40 67  1  0
 41 68  1  0
 41 69  1  0
 42 70  1  0
 42 71  1  0
M  CHG  1   2   1
M  END
>  <meeko>  (3) 
{"is_sidechain": [false], "free_energy": -9.229, "intermolecular_energy": -13.386, "internal_energy": -0.445}

$$$$
LIB_PHVRYQBXECZHNT__M_PUB_ALL__e8__s20260927
     RDKit          3D

 71 76  0  0  0  0  0  0  0  0999 V2000
   16.2580  -15.6630   -8.9010 C   0  0  0  0  0  0  0  0  0  0  0  0
   15.6160  -15.2260  -10.1830 N   0  0  0  0  0  0  0  0  0  0  0  0
   14.5440  -14.1580   -9.9950 C   0  0  0  0  0  0  0  0  0  0  0  0
   13.2450  -14.7380   -9.4000 C   0  0  0  0  0  0  0  0  0  0  0  0
   12.7890  -15.9160  -10.1620 N   0  0  0  0  0  0  0  0  0  0  0  0
   11.4420  -16.2650  -10.0270 C   0  0  0  0  0  0  0  0  0  0  0  0
   10.9900  -17.5870  -10.1450 C   0  0  0  0  0  0  0  0  0  0  0  0
    9.6390  -17.9110   -9.9880 C   0  0  0  0  0  0  0  0  0  0  0  0
    8.7060  -16.9150   -9.7170 C   0  0  0  0  0  0  0  0  0  0  0  0
    9.1130  -15.5840   -9.6080 C   0  0  0  0  0  0  0  0  0  0  0  0
    8.1550  -14.5220   -9.3530 C   0  0  0  0  0  0  0  0  0  0  0  0
    7.7650  -13.4460  -10.1740 C   0  0  0  0  0  0  0  0  0  0  0  0
    6.8770  -12.6370   -9.6020 N   0  0  0  0  0  0  0  0  0  0  0  0
    6.6600  -13.1930   -8.3700 N   0  0  0  0  0  0  0  0  0  0  0  0
    5.7840  -12.7080   -7.3610 C   0  0  0  0  0  0  0  0  0  0  0  0
    5.0650  -11.5670   -7.6610 N   0  0  0  0  0  0  0  0  0  0  0  0
    5.7130  -13.3910   -6.1970 C   0  0  0  0  0  0  0  0  0  0  0  0
    4.8570  -13.0120   -5.0670 C   0  0  0  0  0  0  0  0  0  0  0  0
    3.5550  -13.5090   -4.9690 C   0  0  0  0  0  0  0  0  0  0  0  0
    2.7400  -13.1440   -3.8900 C   0  0  0  0  0  0  0  0  0  0  0  0
    3.2130  -12.2800   -2.8940 C   0  0  0  0  0  0  0  0  0  0  0  0
    2.3300  -11.9640   -1.8410 N   0  0  0  0  0  0  0  0  0  0  0  0
    1.6130  -10.7920   -1.6730 C   0  0  0  0  0  0  0  0  0  0  0  0
    1.5550   -9.8480   -2.4530 O   0  0  0  0  0  0  0  0  0  0  0  0
    0.8050  -10.7220   -0.4230 C   0  0  0  0  0  0  0  0  0  0  0  0
    0.4890  -11.9160    0.2360 C   0  0  0  0  0  0  0  0  0  0  0  0
   -0.2680  -11.8940    1.4100 C   0  0  0  0  0  0  0  0  0  0  0  0
   -0.7270  -10.6770    1.9380 C   0  0  0  0  0  0  0  0  0  0  0  0
   -1.5690  -10.6520    3.1930 C   0  0  0  0  0  0  0  0  0  0  0  0
   -2.8550  -11.0450    2.9730 F   0  0  0  0  0  0  0  0  0  0  0  0
   -1.0830  -11.4820    4.1560 F   0  0  0  0  0  0  0  0  0  0  0  0
   -1.6480   -9.4180    3.7610 F   0  0  0  0  0  0  0  0  0  0  0  0
   -0.4300   -9.4850    1.2560 C   0  0  0  0  0  0  0  0  0  0  0  0
    0.3300   -9.5050    0.0820 C   0  0  0  0  0  0  0  0  0  0  0  0
    4.5160  -11.7900   -2.9940 C   0  0  0  0  0  0  0  0  0  0  0  0
    5.3320  -12.1530   -4.0710 C   0  0  0  0  0  0  0  0  0  0  0  0
    6.5820  -14.6070   -6.1070 C   0  0  0  0  0  0  0  0  0  0  0  0
    7.3850  -15.0640   -7.0190 N   0  0  0  0  0  0  0  0  0  0  0  0
    7.4310  -14.3500   -8.1870 C   0  0  0  0  0  0  0  0  0  0  0  0
   10.4750  -15.2760   -9.7700 C   0  0  0  0  0  0  0  0  0  0  0  0
   13.7810  -16.9700  -10.4220 C   0  0  0  0  0  0  0  0  0  0  0  0
   15.0730  -16.3800  -11.0200 C   0  0  0  0  0  0  0  0  0  0  0  0
   15.6818  -15.2708   -8.0500 H   0  0  0  0  0  0  0  0  0  0  0  0
   16.2763  -16.7619   -8.8561 H   0  0  0  0  0  0  0  0  0  0  0  0
   17.2871  -15.2770   -8.8561 H   0  0  0  0  0  0  0  0  0  0  0  0
   16.3580  -14.7890  -10.7460 H   0  0  0  0  0  0  0  0  0  0  0  0
   14.9302  -13.3835   -9.3160 H   0  0  0  0  0  0  0  0  0  0  0  0
   14.3060  -13.7393  -10.9840 H   0  0  0  0  0  0  0  0  0  0  0  0
   13.4292  -15.0347   -8.3569 H   0  0  0  0  0  0  0  0  0  0  0  0
   12.4632  -13.9659   -9.4512 H   0  0  0  0  0  0  0  0  0  0  0  0
   11.7133  -18.3858  -10.3657 H   0  0  0  0  0  0  0  0  0  0  0  0
    9.3124  -18.9574  -10.0791 H   0  0  0  0  0  0  0  0  0  0  0  0
    7.6454  -17.1769   -9.5884 H   0  0  0  0  0  0  0  0  0  0  0  0
    8.1567  -13.2896  -11.1899 H   0  0  0  0  0  0  0  0  0  0  0  0
    4.1170  -11.4990   -7.2960 H   0  0  0  0  0  0  0  0  0  0  0  0
    5.4800  -10.8010   -8.1770 H   0  0  0  0  0  0  0  0  0  0  0  0
    3.1685  -14.1895   -5.7421 H   0  0  0  0  0  0  0  0  0  0  0  0
    1.7161  -13.5406   -3.8239 H   0  0  0  0  0  0  0  0  0  0  0  0
    2.1770  -12.6960   -1.1600 H   0  0  0  0  0  0  0  0  0  0  0  0
    0.8383  -12.8758   -0.1724 H   0  0  0  0  0  0  0  0  0  0  0  0
   -0.5060  -12.8369    1.9242 H   0  0  0  0  0  0  0  0  0  0  0  0
   -0.7990   -8.5263    1.6494 H   0  0  0  0  0  0  0  0  0  0  0  0
    0.5545   -8.5656   -0.4443 H   0  0  0  0  0  0  0  0  0  0  0  0
    4.9048  -11.1126   -2.2194 H   0  0  0  0  0  0  0  0  0  0  0  0
    6.3570  -11.7589   -4.1349 H   0  0  0  0  0  0  0  0  0  0  0  0
    6.5349  -15.1747   -5.1660 H   0  0  0  0  0  0  0  0  0  0  0  0
   10.7954  -14.2265   -9.6932 H   0  0  0  0  0  0  0  0  0  0  0  0
   14.0219  -17.4778   -9.4765 H   0  0  0  0  0  0  0  0  0  0  0  0
   13.3543  -17.6811  -11.1447 H   0  0  0  0  0  0  0  0  0  0  0  0
   15.8350  -17.1718  -11.0697 H   0  0  0  0  0  0  0  0  0  0  0  0
   14.8368  -15.9911  -12.0215 H   0  0  0  0  0  0  0  0  0  0  0  0
  1  2  1  0
  2  3  1  0
  3  4  1  0
  4  5  1  0
  5  6  1  0
  6  7  2  0
  7  8  1  0
  8  9  2  0
  9 10  1  0
 10 11  1  0
 11 12  1  0
 12 13  2  0
 13 14  1  0
 14 15  1  0
 15 16  1  0
 15 17  2  0
 17 18  1  0
 18 19  2  0
 19 20  1  0
 20 21  2  0
 21 22  1  0
 22 23  1  0
 23 24  2  0
 23 25  1  0
 25 26  2  0
 26 27  1  0
 27 28  2  0
 28 29  1  0
 29 30  1  0
 29 31  1  0
 29 32  1  0
 28 33  1  0
 33 34  2  0
 21 35  1  0
 35 36  2  0
 17 37  1  0
 37 38  2  0
 38 39  1  0
 10 40  2  0
  5 41  1  0
 41 42  1  0
 42  2  1  0
 40  6  1  0
 39 11  2  0
 39 14  1  0
 36 18  1  0
 34 25  1  0
  1 43  1  0
  1 44  1  0
  1 45  1  0
  2 46  1  0
  3 47  1  0
  3 48  1  0
  4 49  1  0
  4 50  1  0
  7 51  1  0
  8 52  1  0
  9 53  1  0
 12 54  1  0
 16 55  1  0
 16 56  1  0
 19 57  1  0
 20 58  1  0
 22 59  1  0
 26 60  1  0
 27 61  1  0
 33 62  1  0
 34 63  1  0
 35 64  1  0
 36 65  1  0
 37 66  1  0
 40 67  1  0
 41 68  1  0
 41 69  1  0
 42 70  1  0
 42 71  1  0
M  CHG  1   2   1
M  END
>  <meeko>  (4) 
{"is_sidechain": [false], "free_energy": -9.222, "intermolecular_energy": -12.602, "internal_energy": -1.218}

$$$$
LIB_PHVRYQBXECZHNT__M_PUB_ALL__e8__s20260927
     RDKit          3D

 71 76  0  0  0  0  0  0  0  0999 V2000
   11.9630  -11.4430    0.1860 C   0  0  0  0  0  0  0  0  0  0  0  0
   12.6630  -12.5720   -0.5080 N   0  0  0  0  0  0  0  0  0  0  0  0
   12.9210  -12.3110   -1.9880 C   0  0  0  0  0  0  0  0  0  0  0  0
   11.6350  -12.4280   -2.8310 C   0  0  0  0  0  0  0  0  0  0  0  0
   10.9340  -13.6980   -2.5600 N   0  0  0  0  0  0  0  0  0  0  0  0
   10.0320  -14.1340   -3.5350 C   0  0  0  0  0  0  0  0  0  0  0  0
   10.3780  -15.0750   -4.5160 C   0  0  0  0  0  0  0  0  0  0  0  0
    9.4520  -15.5070   -5.4690 C   0  0  0  0  0  0  0  0  0  0  0  0
    8.1550  -15.0010   -5.4670 C   0  0  0  0  0  0  0  0  0  0  0  0
    7.7760  -14.0510   -4.5170 C   0  0  0  0  0  0  0  0  0  0  0  0
    6.4370  -13.4860   -4.5100 C   0  0  0  0  0  0  0  0  0  0  0  0
    5.8640  -12.5190   -5.3580 C   0  0  0  0  0  0  0  0  0  0  0  0
    4.6090  -12.2110   -5.0400 N   0  0  0  0  0  0  0  0  0  0  0  0
    4.3340  -13.0000   -3.9570 N   0  0  0  0  0  0  0  0  0  0  0  0
    3.1100  -13.0540   -3.2330 C   0  0  0  0  0  0  0  0  0  0  0  0
    2.0910  -12.2370   -3.6800 N   0  0  0  0  0  0  0  0  0  0  0  0
    3.0310  -13.8940   -2.1770 C   0  0  0  0  0  0  0  0  0  0  0  0
    1.8390  -14.0560   -1.3380 C   0  0  0  0  0  0  0  0  0  0  0  0
    1.7030  -13.3270   -0.1530 C   0  0  0  0  0  0  0  0  0  0  0  0
    0.5640  -13.4850    0.6450 C   0  0  0  0  0  0  0  0  0  0  0  0
   -0.4550  -14.3710    0.2740 C   0  0  0  0  0  0  0  0  0  0  0  0
   -1.5690  -14.4700    1.1340 N   0  0  0  0  0  0  0  0  0  0  0  0
   -2.6470  -13.6060    1.2100 C   0  0  0  0  0  0  0  0  0  0  0  0
   -2.8670  -12.6410    0.4870 O   0  0  0  0  0  0  0  0  0  0  0  0
   -3.6460  -13.9380    2.2640 C   0  0  0  0  0  0  0  0  0  0  0  0
   -4.7310  -13.0740    2.4520 C   0  0  0  0  0  0  0  0  0  0  0  0
   -5.6880  -13.3480    3.4320 C   0  0  0  0  0  0  0  0  0  0  0  0
   -5.5700  -14.4870    4.2440 C   0  0  0  0  0  0  0  0  0  0  0  0
   -6.5900  -14.7710    5.3230 C   0  0  0  0  0  0  0  0  0  0  0  0
   -6.2110  -15.7830    6.1530 F   0  0  0  0  0  0  0  0  0  0  0  0
   -6.8090  -13.6920    6.1230 F   0  0  0  0  0  0  0  0  0  0  0  0
   -7.8070  -15.1290    4.8290 F   0  0  0  0  0  0  0  0  0  0  0  0
   -4.4630  -15.3340    4.0690 C   0  0  0  0  0  0  0  0  0  0  0  0
   -3.5050  -15.0630    3.0870 C   0  0  0  0  0  0  0  0  0  0  0  0
   -0.3170  -15.0940   -0.9120 C   0  0  0  0  0  0  0  0  0  0  0  0
    0.8200  -14.9380   -1.7120 C   0  0  0  0  0  0  0  0  0  0  0  0
    4.2670  -14.6880   -1.8890 C   0  0  0  0  0  0  0  0  0  0  0  0
    5.3900  -14.6530   -2.5410 N   0  0  0  0  0  0  0  0  0  0  0  0
    5.4360  -13.7930   -3.6060 C   0  0  0  0  0  0  0  0  0  0  0  0
    8.7210  -13.6260   -3.5670 C   0  0  0  0  0  0  0  0  0  0  0  0
   10.6880  -14.0400   -1.1500 C   0  0  0  0  0  0  0  0  0  0  0  0
   11.9810  -13.9230   -0.3190 C   0  0  0  0  0  0  0  0  0  0  0  0
   12.0448  -11.5749    1.2750 H   0  0  0  0  0  0  0  0  0  0  0  0
   12.4285  -10.4894   -0.1038 H   0  0  0  0  0  0  0  0  0  0  0  0
   10.9019  -11.4360   -0.1038 H   0  0  0  0  0  0  0  0  0  0  0  0
   13.5890  -12.6550   -0.0670 H   0  0  0  0  0  0  0  0  0  0  0  0
   13.3294  -11.2961   -2.1032 H   0  0  0  0  0  0  0  0  0  0  0  0
   13.6313  -13.0704   -2.3469 H   0  0  0  0  0  0  0  0  0  0  0  0
   10.9669  -11.5896   -2.5848 H   0  0  0  0  0  0  0  0  0  0  0  0
   11.9122  -12.4029   -3.8952 H   0  0  0  0  0  0  0  0  0  0  0  0
   11.4000  -15.4814   -4.5355 H   0  0  0  0  0  0  0  0  0  0  0  0
    9.7490  -16.2499   -6.2239 H   0  0  0  0  0  0  0  0  0  0  0  0
    7.4280  -15.3502   -6.2150 H   0  0  0  0  0  0  0  0  0  0  0  0
    6.4018  -12.0622   -6.2019 H   0  0  0  0  0  0  0  0  0  0  0  0
    1.6870  -11.5810   -3.0140 H   0  0  0  0  0  0  0  0  0  0  0  0
    1.7890  -12.2470   -4.6460 H   0  0  0  0  0  0  0  0  0  0  0  0
    2.4940  -12.6267    0.1534 H   0  0  0  0  0  0  0  0  0  0  0  0
    0.4681  -12.9059    1.5753 H   0  0  0  0  0  0  0  0  0  0  0  0
   -1.5950  -15.2900    1.7270 H   0  0  0  0  0  0  0  0  0  0  0  0
   -4.8305  -12.1754    1.8254 H   0  0  0  0  0  0  0  0  0  0  0  0
   -6.5404  -12.6662    3.5684 H   0  0  0  0  0  0  0  0  0  0  0  0
   -4.3486  -16.2197    4.7112 H   0  0  0  0  0  0  0  0  0  0  0  0
   -2.6414  -15.7326    2.9608 H   0  0  0  0  0  0  0  0  0  0  0  0
   -1.1090  -15.7924   -1.2202 H   0  0  0  0  0  0  0  0  0  0  0  0
    0.9135  -15.5145   -2.6441 H   0  0  0  0  0  0  0  0  0  0  0  0
    4.2190  -15.3759   -1.0320 H   0  0  0  0  0  0  0  0  0  0  0  0
    8.4252  -12.8709   -2.8238 H   0  0  0  0  0  0  0  0  0  0  0  0
    9.9334  -13.3529   -0.7397 H   0  0  0  0  0  0  0  0  0  0  0  0
   10.3316  -15.0794   -1.0987 H   0  0  0  0  0  0  0  0  0  0  0  0
   11.7317  -14.0489    0.7449 H   0  0  0  0  0  0  0  0  0  0  0  0
   12.6757  -14.7044   -0.6608 H   0  0  0  0  0  0  0  0  0  0  0  0
  1  2  1  0
  2  3  1  0
  3  4  1  0
  4  5  1  0
  5  6  1  0
  6  7  2  0
  7  8  1  0
  8  9  2  0
  9 10  1  0
 10 11  1  0
 11 12  1  0
 12 13  2  0
 13 14  1  0
 14 15  1  0
 15 16  1  0
 15 17  2  0
 17 18  1  0
 18 19  2  0
 19 20  1  0
 20 21  2  0
 21 22  1  0
 22 23  1  0
 23 24  2  0
 23 25  1  0
 25 26  2  0
 26 27  1  0
 27 28  2  0
 28 29  1  0
 29 30  1  0
 29 31  1  0
 29 32  1  0
 28 33  1  0
 33 34  2  0
 21 35  1  0
 35 36  2  0
 17 37  1  0
 37 38  2  0
 38 39  1  0
 10 40  2  0
  5 41  1  0
 41 42  1  0
 42  2  1  0
 40  6  1  0
 39 11  2  0
 39 14  1  0
 36 18  1  0
 34 25  1  0
  1 43  1  0
  1 44  1  0
  1 45  1  0
  2 46  1  0
  3 47  1  0
  3 48  1  0
  4 49  1  0
  4 50  1  0
  7 51  1  0
  8 52  1  0
  9 53  1  0
 12 54  1  0
 16 55  1  0
 16 56  1  0
 19 57  1  0
 20 58  1  0
 22 59  1  0
 26 60  1  0
 27 61  1  0
 33 62  1  0
 34 63  1  0
 35 64  1  0
 36 65  1  0
 37 66  1  0
 40 67  1  0
 41 68  1  0
 41 69  1  0
 42 70  1  0
 42 71  1  0
M  CHG  1   2   1
M  END
>  <meeko>  (5) 
{"is_sidechain": [false], "free_energy": -9.193, "intermolecular_energy": -12.539, "internal_energy": -1.242}

$$$$
LIB_PHVRYQBXECZHNT__M_PUB_ALL__e8__s20260927
     RDKit          3D

 71 76  0  0  0  0  0  0  0  0999 V2000
  -12.4060  -21.5290    8.9330 C   0  0  0  0  0  0  0  0  0  0  0  0
  -11.7800  -21.3300    7.5860 N   0  0  0  0  0  0  0  0  0  0  0  0
  -10.2550  -21.3520    7.6140 C   0  0  0  0  0  0  0  0  0  0  0  0
   -9.6660  -20.0600    8.2150 C   0  0  0  0  0  0  0  0  0  0  0  0
  -10.2350  -18.8630    7.5660 N   0  0  0  0  0  0  0  0  0  0  0  0
   -9.5010  -17.6800    7.6830 C   0  0  0  0  0  0  0  0  0  0  0  0
  -10.0990  -16.4470    7.9800 C   0  0  0  0  0  0  0  0  0  0  0  0
   -9.3390  -15.2800    8.1090 C   0  0  0  0  0  0  0  0  0  0  0  0
   -7.9590  -15.3210    7.9340 C   0  0  0  0  0  0  0  0  0  0  0  0
   -7.3270  -16.5250    7.6220 C   0  0  0  0  0  0  0  0  0  0  0  0
   -5.8910  -16.5900    7.4070 C   0  0  0  0  0  0  0  0  0  0  0  0
   -4.8560  -16.8680    8.3210 C   0  0  0  0  0  0  0  0  0  0  0  0
   -3.6420  -16.8120    7.7810 N   0  0  0  0  0  0  0  0  0  0  0  0
   -3.8720  -16.4980    6.4690 N   0  0  0  0  0  0  0  0  0  0  0  0
   -2.8930  -16.3230    5.4520 C   0  0  0  0  0  0  0  0  0  0  0  0
   -1.5750  -16.5040    5.8240 N   0  0  0  0  0  0  0  0  0  0  0  0
   -3.3150  -16.0010    4.2090 C   0  0  0  0  0  0  0  0  0  0  0  0
   -2.4250  -15.7880    3.0630 C   0  0  0  0  0  0  0  0  0  0  0  0
   -1.9450  -14.5090    2.7680 C   0  0  0  0  0  0  0  0  0  0  0  0
   -1.0960  -14.3100    1.6730 C   0  0  0  0  0  0  0  0  0  0  0  0
   -0.7140  -15.3820    0.8570 C   0  0  0  0  0  0  0  0  0  0  0  0
    0.1450  -15.0960   -0.2250 N   0  0  0  0  0  0  0  0  0  0  0  0
   -0.1670  -15.1300   -1.5730 C   0  0  0  0  0  0  0  0  0  0  0  0
   -1.2700  -15.3370   -2.0660 O   0  0  0  0  0  0  0  0  0  0  0  0
    0.9710  -14.8390   -2.4900 C   0  0  0  0  0  0  0  0  0  0  0  0
    2.2740  -15.0160   -2.0140 C   0  0  0  0  0  0  0  0  0  0  0  0
    3.3690  -14.7510   -2.8410 C   0  0  0  0  0  0  0  0  0  0  0  0
    3.1740  -14.2970   -4.1550 C   0  0  0  0  0  0  0  0  0  0  0  0
    4.3560  -13.9840   -5.0430 C   0  0  0  0  0  0  0  0  0  0  0  0
    5.0220  -15.1020   -5.4490 F   0  0  0  0  0  0  0  0  0  0  0  0
    3.9900  -13.3340   -6.1810 F   0  0  0  0  0  0  0  0  0  0  0  0
    5.2870  -13.1960   -4.4390 F   0  0  0  0  0  0  0  0  0  0  0  0
    1.8630  -14.0940   -4.6170 C   0  0  0  0  0  0  0  0  0  0  0  0
    0.7660  -14.3610   -3.7910 C   0  0  0  0  0  0  0  0  0  0  0  0
   -1.1920  -16.6590    1.1580 C   0  0  0  0  0  0  0  0  0  0  0  0
   -2.0410  -16.8610    2.2520 C   0  0  0  0  0  0  0  0  0  0  0  0
   -4.7980  -15.8660    4.0450 C   0  0  0  0  0  0  0  0  0  0  0  0
   -5.7040  -16.0260    4.9610 N   0  0  0  0  0  0  0  0  0  0  0  0
   -5.2420  -16.3530    6.2080 C   0  0  0  0  0  0  0  0  0  0  0  0
   -8.1070  -17.6880    7.4950 C   0  0  0  0  0  0  0  0  0  0  0  0
  -11.7010  -18.7910    7.4620 C   0  0  0  0  0  0  0  0  0  0  0  0
  -12.2780  -20.0860    6.8570 C   0  0  0  0  0  0  0  0  0  0  0  0
  -11.6708  -21.2953    9.7171 H   0  0  0  0  0  0  0  0  0  0  0  0
  -13.2754  -20.8630    9.0353 H   0  0  0  0  0  0  0  0  0  0  0  0
  -12.7312  -22.5748    9.0353 H   0  0  0  0  0  0  0  0  0  0  0  0
  -12.0670  -22.1320    7.0100 H   0  0  0  0  0  0  0  0  0  0  0  0
   -9.9239  -22.2080    8.2203 H   0  0  0  0  0  0  0  0  0  0  0  0
   -9.8989  -21.4354    6.5766 H   0  0  0  0  0  0  0  0  0  0  0  0
   -9.8942  -20.0279    9.2906 H   0  0  0  0  0  0  0  0  0  0  0  0
   -8.5785  -20.0627    8.0497 H   0  0  0  0  0  0  0  0  0  0  0  0
  -11.1896  -16.3965    8.1145 H   0  0  0  0  0  0  0  0  0  0  0  0
   -9.8334  -14.3272    8.3494 H   0  0  0  0  0  0  0  0  0  0  0  0
   -7.3649  -14.4016    8.0420 H   0  0  0  0  0  0  0  0  0  0  0  0
   -5.0346  -17.1083    9.3795 H   0  0  0  0  0  0  0  0  0  0  0  0
   -1.2090  -17.4540    5.8100 H   0  0  0  0  0  0  0  0  0  0  0  0
   -0.9760  -15.7200    6.0490 H   0  0  0  0  0  0  0  0  0  0  0  0
   -2.2354  -13.6557    3.3985 H   0  0  0  0  0  0  0  0  0  0  0  0
   -0.7242  -13.2989    1.4507 H   0  0  0  0  0  0  0  0  0  0  0  0
    1.0780  -14.7930    0.0220 H   0  0  0  0  0  0  0  0  0  0  0  0
    2.4378  -15.3654   -0.9839 H   0  0  0  0  0  0  0  0  0  0  0  0
    4.3902  -14.8991   -2.4599 H   0  0  0  0  0  0  0  0  0  0  0  0
    1.6973  -13.7213   -5.6386 H   0  0  0  0  0  0  0  0  0  0  0  0
   -0.2562  -14.1959   -4.1624 H   0  0  0  0  0  0  0  0  0  0  0  0
   -0.8988  -17.5132    0.5300 H   0  0  0  0  0  0  0  0  0  0  0  0
   -2.4097  -17.8728    2.4762 H   0  0  0  0  0  0  0  0  0  0  0  0
   -5.1583  -15.6028    3.0396 H   0  0  0  0  0  0  0  0  0  0  0  0
   -7.6104  -18.6359    7.2401 H   0  0  0  0  0  0  0  0  0  0  0  0
  -12.1257  -18.6430    8.4659 H   0  0  0  0  0  0  0  0  0  0  0  0
  -11.9639  -17.9500    6.8035 H   0  0  0  0  0  0  0  0  0  0  0  0
  -13.3754  -20.0508    6.9240 H   0  0  0  0  0  0  0  0  0  0  0  0
  -11.9445  -20.1496    5.8107 H   0  0  0  0  0  0  0  0  0  0  0  0
  1  2  1  0
  2  3  1  0
  3  4  1  0
  4  5  1  0
  5  6  1  0
  6  7  2  0
  7  8  1  0
  8  9  2  0
  9 10  1  0
 10 11  1  0
 11 12  1  0
 12 13  2  0
 13 14  1  0
 14 15  1  0
 15 16  1  0
 15 17  2  0
 17 18  1  0
 18 19  2  0
 19 20  1  0
 20 21  2  0
 21 22  1  0
 22 23  1  0
 23 24  2  0
 23 25  1  0
 25 26  2  0
 26 27  1  0
 27 28  2  0
 28 29  1  0
 29 30  1  0
 29 31  1  0
 29 32  1  0
 28 33  1  0
 33 34  2  0
 21 35  1  0
 35 36  2  0
 17 37  1  0
 37 38  2  0
 38 39  1  0
 10 40  2  0
  5 41  1  0
 41 42  1  0
 42  2  1  0
 40  6  1  0
 39 11  2  0
 39 14  1  0
 36 18  1  0
 34 25  1  0
  1 43  1  0
  1 44  1  0
  1 45  1  0
  2 46  1  0
  3 47  1  0
  3 48  1  0
  4 49  1  0
  4 50  1  0
  7 51  1  0
  8 52  1  0
  9 53  1  0
 12 54  1  0
 16 55  1  0
 16 56  1  0
 19 57  1  0
 20 58  1  0
 22 59  1  0
 26 60  1  0
 27 61  1  0
 33 62  1  0
 34 63  1  0
 35 64  1  0
 36 65  1  0
 37 66  1  0
 40 67  1  0
 41 68  1  0
 41 69  1  0
 42 70  1  0
 42 71  1  0
M  CHG  1   2   1
M  END
>  <meeko>  (6) 
{"is_sidechain": [false], "free_energy": -8.79, "intermolecular_energy": -11.998, "internal_energy": -1.226}

$$$$
LIB_PHVRYQBXECZHNT__M_PUB_ALL__e8__s20260927
     RDKit          3D

 71 76  0  0  0  0  0  0  0  0999 V2000
    9.5570  -12.0550  -11.2810 C   0  0  0  0  0  0  0  0  0  0  0  0
   10.8910  -12.5830  -11.7150 N   0  0  0  0  0  0  0  0  0  0  0  0
   11.0550  -14.0820  -11.4880 C   0  0  0  0  0  0  0  0  0  0  0  0
   11.2660  -14.4250  -10.0000 C   0  0  0  0  0  0  0  0  0  0  0  0
   12.3450  -13.6100   -9.4120 N   0  0  0  0  0  0  0  0  0  0  0  0
   12.9340  -14.1000   -8.2430 C   0  0  0  0  0  0  0  0  0  0  0  0
   13.9120  -15.1050   -8.2560 C   0  0  0  0  0  0  0  0  0  0  0  0
   14.4980  -15.5660   -7.0730 C   0  0  0  0  0  0  0  0  0  0  0  0
   14.1100  -15.0340   -5.8450 C   0  0  0  0  0  0  0  0  0  0  0  0
   13.1280  -14.0440   -5.7890 C   0  0  0  0  0  0  0  0  0  0  0  0
   12.6860  -13.4930   -4.5200 C   0  0  0  0  0  0  0  0  0  0  0  0
   13.4430  -12.9670   -3.4550 C   0  0  0  0  0  0  0  0  0  0  0  0
   12.7020  -12.5740   -2.4210 N   0  0  0  0  0  0  0  0  0  0  0  0
   11.4170  -12.8360   -2.8100 N   0  0  0  0  0  0  0  0  0  0  0  0
   10.2350  -12.5930   -2.0570 C   0  0  0  0  0  0  0  0  0  0  0  0
   10.4010  -12.0190   -0.8120 N   0  0  0  0  0  0  0  0  0  0  0  0
    9.0480  -12.9310   -2.6080 C   0  0  0  0  0  0  0  0  0  0  0  0
    7.7490  -12.7420   -1.9530 C   0  0  0  0  0  0  0  0  0  0  0  0
    6.9640  -11.6240   -2.2480 C   0  0  0  0  0  0  0  0  0  0  0  0
    5.7260  -11.4450   -1.6200 C   0  0  0  0  0  0  0  0  0  0  0  0
    5.2520  -12.3800   -0.6900 C   0  0  0  0  0  0  0  0  0  0  0  0
    3.9940  -12.1260   -0.1040 N   0  0  0  0  0  0  0  0  0  0  0  0
    2.7620  -12.5890   -0.5340 C   0  0  0  0  0  0  0  0  0  0  0  0
    2.5510  -13.3690   -1.4550 O   0  0  0  0  0  0  0  0  0  0  0  0
    1.5970  -12.1010    0.2560 C   0  0  0  0  0  0  0  0  0  0  0  0
    1.3030  -10.7330    0.2370 C   0  0  0  0  0  0  0  0  0  0  0  0
    0.2210  -10.2350    0.9670 C   0  0  0  0  0  0  0  0  0  0  0  0
   -0.5800  -11.0980    1.7320 C   0  0  0  0  0  0  0  0  0  0  0  0
   -1.7360  -10.5580    2.5420 C   0  0  0  0  0  0  0  0  0  0  0  0
   -1.4270  -10.3980    3.8590 F   0  0  0  0  0  0  0  0  0  0  0  0
   -2.1490   -9.3380    2.1030 F   0  0  0  0  0  0  0  0  0  0  0  0
   -2.8340  -11.3620    2.5130 F   0  0  0  0  0  0  0  0  0  0  0  0
   -0.2620  -12.4660    1.7680 C   0  0  0  0  0  0  0  0  0  0  0  0
    0.8200  -12.9670    1.0360 C   0  0  0  0  0  0  0  0  0  0  0  0
    6.0360  -13.4970   -0.4020 C   0  0  0  0  0  0  0  0  0  0  0  0
    7.2750  -13.6780   -1.0280 C   0  0  0  0  0  0  0  0  0  0  0  0
    9.1190  -13.5320   -3.9780 C   0  0  0  0  0  0  0  0  0  0  0  0
   10.1880  -13.7570   -4.6790 N   0  0  0  0  0  0  0  0  0  0  0  0
   11.3730  -13.4010   -4.0920 C   0  0  0  0  0  0  0  0  0  0  0  0
   12.5490  -13.5940   -6.9880 C   0  0  0  0  0  0  0  0  0  0  0  0
   12.2790  -12.1550   -9.6270 C   0  0  0  0  0  0  0  0  0  0  0  0
   12.0720  -11.8250  -11.1180 C   0  0  0  0  0  0  0  0  0  0  0  0
    9.5099  -12.0364  -10.1822 H   0  0  0  0  0  0  0  0  0  0  0  0
    9.4216  -11.0355  -11.6712 H   0  0  0  0  0  0  0  0  0  0  0  0
    8.7605  -12.7057  -11.6712 H   0  0  0  0  0  0  0  0  0  0  0  0
   10.9440  -12.4400  -12.7320 H   0  0  0  0  0  0  0  0  0  0  0  0
   10.1503  -14.5956  -11.8453 H   0  0  0  0  0  0  0  0  0  0  0  0
   11.9469  -14.4121  -12.0408 H   0  0  0  0  0  0  0  0  0  0  0  0
   10.3319  -14.2329   -9.4517 H   0  0  0  0  0  0  0  0  0  0  0  0
   11.5497  -15.4851   -9.9241 H   0  0  0  0  0  0  0  0  0  0  0  0
   14.2247  -15.5397   -9.2168 H   0  0  0  0  0  0  0  0  0  0  0  0
   15.2676  -16.3510   -7.1120 H   0  0  0  0  0  0  0  0  0  0  0  0
   14.5787  -15.3951   -4.9177 H   0  0  0  0  0  0  0  0  0  0  0  0
   14.5400  -12.8885   -3.4756 H   0  0  0  0  0  0  0  0  0  0  0  0
   10.6510  -12.6340   -0.0400 H   0  0  0  0  0  0  0  0  0  0  0  0
   10.3320  -11.0180   -0.6770 H   0  0  0  0  0  0  0  0  0  0  0  0
    7.3207  -10.8814   -2.9770 H   0  0  0  0  0  0  0  0  0  0  0  0
    5.1180  -10.5601   -1.8593 H   0  0  0  0  0  0  0  0  0  0  0  0
    4.0070  -11.5810    0.7480 H   0  0  0  0  0  0  0  0  0  0  0  0
    1.9264  -10.0470   -0.3552 H   0  0  0  0  0  0  0  0  0  0  0  0
   -0.0051   -9.1588    0.9423 H   0  0  0  0  0  0  0  0  0  0  0  0
   -0.8700  -13.1503    2.3780 H   0  0  0  0  0  0  0  0  0  0  0  0
    1.0602  -14.0398    1.0730 H   0  0  0  0  0  0  0  0  0  0  0  0
    5.6776  -14.2423    0.3234 H   0  0  0  0  0  0  0  0  0  0  0  0
    7.8814  -14.5645   -0.7903 H   0  0  0  0  0  0  0  0  0  0  0  0
    8.1613  -13.8132   -4.4403 H   0  0  0  0  0  0  0  0  0  0  0  0
   11.7685  -12.8201   -6.9437 H   0  0  0  0  0  0  0  0  0  0  0  0
   11.4392  -11.7437   -9.0477 H   0  0  0  0  0  0  0  0  0  0  0  0
   13.2294  -11.7091   -9.2984 H   0  0  0  0  0  0  0  0  0  0  0  0
   11.8885  -10.7452  -11.2201 H   0  0  0  0  0  0  0  0  0  0  0  0
   12.9789  -12.1290  -11.6612 H   0  0  0  0  0  0  0  0  0  0  0  0
  1  2  1  0
  2  3  1  0
  3  4  1  0
  4  5  1  0
  5  6  1  0
  6  7  2  0
  7  8  1  0
  8  9  2  0
  9 10  1  0
 10 11  1  0
 11 12  1  0
 12 13  2  0
 13 14  1  0
 14 15  1  0
 15 16  1  0
 15 17  2  0
 17 18  1  0
 18 19  2  0
 19 20  1  0
 20 21  2  0
 21 22  1  0
 22 23  1  0
 23 24  2  0
 23 25  1  0
 25 26  2  0
 26 27  1  0
 27 28  2  0
 28 29  1  0
 29 30  1  0
 29 31  1  0
 29 32  1  0
 28 33  1  0
 33 34  2  0
 21 35  1  0
 35 36  2  0
 17 37  1  0
 37 38  2  0
 38 39  1  0
 10 40  2  0
  5 41  1  0
 41 42  1  0
 42  2  1  0
 40  6  1  0
 39 11  2  0
 39 14  1  0
 36 18  1  0
 34 25  1  0
  1 43  1  0
  1 44  1  0
  1 45  1  0
  2 46  1  0
  3 47  1  0
  3 48  1  0
  4 49  1  0
  4 50  1  0
  7 51  1  0
  8 52  1  0
  9 53  1  0
 12 54  1  0
 16 55  1  0
 16 56  1  0
 19 57  1  0
 20 58  1  0
 22 59  1  0
 26 60  1  0
 27 61  1  0
 33 62  1  0
 34 63  1  0
 35 64  1  0
 36 65  1  0
 37 66  1  0
 40 67  1  0
 41 68  1  0
 41 69  1  0
 42 70  1  0
 42 71  1  0
M  CHG  1   2   1
M  END
>  <meeko>  (7) 
{"is_sidechain": [false], "free_energy": -8.769, "intermolecular_energy": -12.101, "internal_energy": -1.094}

$$$$
LIB_PHVRYQBXECZHNT__M_PUB_ALL__e8__s20260927
     RDKit          3D

 71 76  0  0  0  0  0  0  0  0999 V2000
    2.7580  -13.1680   -4.7260 C   0  0  0  0  0  0  0  0  0  0  0  0
    2.4480  -12.0550   -3.7700 N   0  0  0  0  0  0  0  0  0  0  0  0
    3.6090  -11.0870   -3.5660 C   0  0  0  0  0  0  0  0  0  0  0  0
    4.7240  -11.6940   -2.6900 C   0  0  0  0  0  0  0  0  0  0  0  0
    4.1770  -12.2450   -1.4360 N   0  0  0  0  0  0  0  0  0  0  0  0
    5.0780  -12.4150   -0.3820 C   0  0  0  0  0  0  0  0  0  0  0  0
    4.6620  -12.6480    0.9370 C   0  0  0  0  0  0  0  0  0  0  0  0
    5.5850  -12.8330    1.9700 C   0  0  0  0  0  0  0  0  0  0  0  0
    6.9510  -12.7810    1.7070 C   0  0  0  0  0  0  0  0  0  0  0  0
    7.4060  -12.5350    0.4110 C   0  0  0  0  0  0  0  0  0  0  0  0
    8.8260  -12.4480    0.1140 C   0  0  0  0  0  0  0  0  0  0  0  0
    9.8590  -11.8150    0.8330 C   0  0  0  0  0  0  0  0  0  0  0  0
   11.0490  -11.9110    0.2470 N   0  0  0  0  0  0  0  0  0  0  0  0
   10.8080  -12.6360   -0.8880 N   0  0  0  0  0  0  0  0  0  0  0  0
   11.7620  -13.0200   -1.8700 C   0  0  0  0  0  0  0  0  0  0  0  0
   13.0690  -12.6370   -1.6470 N   0  0  0  0  0  0  0  0  0  0  0  0
   11.3280  -13.7300   -2.9360 C   0  0  0  0  0  0  0  0  0  0  0  0
   12.1930  -14.1950   -4.0260 C   0  0  0  0  0  0  0  0  0  0  0  0
   12.2110  -13.5220   -5.2510 C   0  0  0  0  0  0  0  0  0  0  0  0
   13.0360  -13.9690   -6.2890 C   0  0  0  0  0  0  0  0  0  0  0  0
   13.8560  -15.0930   -6.1210 C   0  0  0  0  0  0  0  0  0  0  0  0
   14.6590  -15.4760   -7.2160 N   0  0  0  0  0  0  0  0  0  0  0  0
   14.2720  -16.2190   -8.3170 C   0  0  0  0  0  0  0  0  0  0  0  0
   13.1410  -16.6110   -8.5780 O   0  0  0  0  0  0  0  0  0  0  0  0
   15.3630  -16.5210   -9.2870 C   0  0  0  0  0  0  0  0  0  0  0  0
   15.1290  -17.4820  -10.2770 C   0  0  0  0  0  0  0  0  0  0  0  0
   16.1270  -17.7960  -11.2030 C   0  0  0  0  0  0  0  0  0  0  0  0
   17.3760  -17.1570  -11.1480 C   0  0  0  0  0  0  0  0  0  0  0  0
   18.4660  -17.5140  -12.1330 C   0  0  0  0  0  0  0  0  0  0  0  0
   19.6370  -16.8660  -11.8800 F   0  0  0  0  0  0  0  0  0  0  0  0
   18.7610  -18.8420  -12.1170 F   0  0  0  0  0  0  0  0  0  0  0  0
   18.1440  -17.2130  -13.4210 F   0  0  0  0  0  0  0  0  0  0  0  0
   17.6130  -16.2140  -10.1340 C   0  0  0  0  0  0  0  0  0  0  0  0
   16.6140  -15.8970   -9.2070 C   0  0  0  0  0  0  0  0  0  0  0  0
   13.8390  -15.7580   -4.8940 C   0  0  0  0  0  0  0  0  0  0  0  0
   13.0150  -15.3140   -3.8550 C   0  0  0  0  0  0  0  0  0  0  0  0
    9.8630  -14.0370   -2.9550 C   0  0  0  0  0  0  0  0  0  0  0  0
    8.9800  -13.6960   -2.0670 N   0  0  0  0  0  0  0  0  0  0  0  0
    9.4530  -12.9800   -0.9990 C   0  0  0  0  0  0  0  0  0  0  0  0
    6.4640  -12.3510   -0.6160 C   0  0  0  0  0  0  0  0  0  0  0  0
    3.0250  -13.1530   -1.5500 C   0  0  0  0  0  0  0  0  0  0  0  0
    1.9160  -12.5350   -2.4240 C   0  0  0  0  0  0  0  0  0  0  0  0
    3.0112  -14.0770   -4.1607 H   0  0  0  0  0  0  0  0  0  0  0  0
    1.8799  -13.3627   -5.3593 H   0  0  0  0  0  0  0  0  0  0  0  0
    3.6103  -12.8807   -5.3593 H   0  0  0  0  0  0  0  0  0  0  0  0
    1.6910  -11.5070   -4.1980 H   0  0  0  0  0  0  0  0  0  0  0  0
    4.0312  -10.8276   -4.5481 H   0  0  0  0  0  0  0  0  0  0  0  0
    3.2206  -10.1963   -3.0505 H   0  0  0  0  0  0  0  0  0  0  0  0
    5.2209  -12.5003   -3.2495 H   0  0  0  0  0  0  0  0  0  0  0  0
    5.4404  -10.8984   -2.4375 H   0  0  0  0  0  0  0  0  0  0  0  0
    3.5862  -12.6859    1.1633 H   0  0  0  0  0  0  0  0  0  0  0  0
    5.2308  -13.0204    2.9944 H   0  0  0  0  0  0  0  0  0  0  0  0
    7.6732  -12.9341    2.5225 H   0  0  0  0  0  0  0  0  0  0  0  0
    9.6970  -11.2919    1.7870 H   0  0  0  0  0  0  0  0  0  0  0  0
   13.3640  -12.5090   -0.6810 H   0  0  0  0  0  0  0  0  0  0  0  0
   13.7290  -12.5380   -2.4080 H   0  0  0  0  0  0  0  0  0  0  0  0
   11.5741  -12.6375   -5.3996 H   0  0  0  0  0  0  0  0  0  0  0  0
   13.0410  -13.4315   -7.2487 H   0  0  0  0  0  0  0  0  0  0  0  0
   15.6090  -15.1290   -7.2080 H   0  0  0  0  0  0  0  0  0  0  0  0
   14.1557  -17.9921  -10.3263 H   0  0  0  0  0  0  0  0  0  0  0  0
   15.9328  -18.5493  -11.9807 H   0  0  0  0  0  0  0  0  0  0  0  0
   18.5936  -15.7200  -10.0682 H   0  0  0  0  0  0  0  0  0  0  0  0
   16.8112  -15.1583   -8.4161 H   0  0  0  0  0  0  0  0  0  0  0  0
   14.4796  -16.6394   -4.7429 H   0  0  0  0  0  0  0  0  0  0  0  0
   13.0132  -15.8497   -2.8942 H   0  0  0  0  0  0  0  0  0  0  0  0
    9.4946  -14.6147   -3.8156 H   0  0  0  0  0  0  0  0  0  0  0  0
    6.8223  -12.1503   -1.6365 H   0  0  0  0  0  0  0  0  0  0  0  0
    3.3562  -14.0982   -2.0049 H   0  0  0  0  0  0  0  0  0  0  0  0
    2.6186  -13.3301   -0.5433 H   0  0  0  0  0  0  0  0  0  0  0  0
    1.1387  -13.2933   -2.5997 H   0  0  0  0  0  0  0  0  0  0  0  0
    1.5095  -11.6636   -1.8898 H   0  0  0  0  0  0  0  0  0  0  0  0
  1  2  1  0
  2  3  1  0
  3  4  1  0
  4  5  1  0
  5  6  1  0
  6  7  2  0
  7  8  1  0
  8  9  2  0
  9 10  1  0
 10 11  1  0
 11 12  1  0
 12 13  2  0
 13 14  1  0
 14 15  1  0
 15 16  1  0
 15 17  2  0
 17 18  1  0
 18 19  2  0
 19 20  1  0
 20 21  2  0
 21 22  1  0
 22 23  1  0
 23 24  2  0
 23 25  1  0
 25 26  2  0
 26 27  1  0
 27 28  2  0
 28 29  1  0
 29 30  1  0
 29 31  1  0
 29 32  1  0
 28 33  1  0
 33 34  2  0
 21 35  1  0
 35 36  2  0
 17 37  1  0
 37 38  2  0
 38 39  1  0
 10 40  2  0
  5 41  1  0
 41 42  1  0
 42  2  1  0
 40  6  1  0
 39 11  2  0
 39 14  1  0
 36 18  1  0
 34 25  1  0
  1 43  1  0
  1 44  1  0
  1 45  1  0
  2 46  1  0
  3 47  1  0
  3 48  1  0
  4 49  1  0
  4 50  1  0
  7 51  1  0
  8 52  1  0
  9 53  1  0
 12 54  1  0
 16 55  1  0
 16 56  1  0
 19 57  1  0
 20 58  1  0
 22 59  1  0
 26 60  1  0
 27 61  1  0
 33 62  1  0
 34 63  1  0
 35 64  1  0
 36 65  1  0
 37 66  1  0
 40 67  1  0
 41 68  1  0
 41 69  1  0
 42 70  1  0
 42 71  1  0
M  CHG  1   2   1
M  END
>  <meeko>  (8) 
{"is_sidechain": [false], "free_energy": -8.602, "intermolecular_energy": -11.953, "internal_energy": -1.012}

$$$$
LIB_PHVRYQBXECZHNT__M_PUB_ALL__e8__s20260927
     RDKit          3D

 71 76  0  0  0  0  0  0  0  0999 V2000
   15.3840  -14.6700  -11.7020 C   0  0  0  0  0  0  0  0  0  0  0  0
   14.9020  -13.2600  -11.5390 N   0  0  0  0  0  0  0  0  0  0  0  0
   14.1720  -13.0150  -10.2230 C   0  0  0  0  0  0  0  0  0  0  0  0
   12.7570  -13.6290  -10.2210 C   0  0  0  0  0  0  0  0  0  0  0  0
   11.9950  -13.2150  -11.4140 N   0  0  0  0  0  0  0  0  0  0  0  0
   10.6040  -13.3190  -11.3340 C   0  0  0  0  0  0  0  0  0  0  0  0
    9.7420  -12.5110  -12.0910 C   0  0  0  0  0  0  0  0  0  0  0  0
    8.3540  -12.6470  -12.0050 C   0  0  0  0  0  0  0  0  0  0  0  0
    7.7930  -13.5920  -11.1510 C   0  0  0  0  0  0  0  0  0  0  0  0
    8.6160  -14.4040  -10.3690 C   0  0  0  0  0  0  0  0  0  0  0  0
    8.0560  -15.3800   -9.4490 C   0  0  0  0  0  0  0  0  0  0  0  0
    7.9640  -16.7810   -9.5680 C   0  0  0  0  0  0  0  0  0  0  0  0
    7.3560  -17.3620   -8.5370 N   0  0  0  0  0  0  0  0  0  0  0  0
    7.0430  -16.3240   -7.7020 N   0  0  0  0  0  0  0  0  0  0  0  0
    6.3810  -16.4130   -6.4470 C   0  0  0  0  0  0  0  0  0  0  0  0
    6.0320  -17.6780   -6.0190 N   0  0  0  0  0  0  0  0  0  0  0  0
    6.1470  -15.2670   -5.7670 C   0  0  0  0  0  0  0  0  0  0  0  0
    5.4760  -15.2020   -4.4650 C   0  0  0  0  0  0  0  0  0  0  0  0
    4.1430  -14.7910   -4.3760 C   0  0  0  0  0  0  0  0  0  0  0  0
    3.5060  -14.7290   -3.1310 C   0  0  0  0  0  0  0  0  0  0  0  0
    4.1870  -15.0760   -1.9580 C   0  0  0  0  0  0  0  0  0  0  0  0
    3.4720  -14.9870   -0.7450 N   0  0  0  0  0  0  0  0  0  0  0  0
    2.6230  -15.9360   -0.2030 C   0  0  0  0  0  0  0  0  0  0  0  0
    2.4010  -17.0580   -0.6410 O   0  0  0  0  0  0  0  0  0  0  0  0
    1.9570  -15.5310    1.0680 C   0  0  0  0  0  0  0  0  0  0  0  0
    1.0150  -14.4980    1.0290 C   0  0  0  0  0  0  0  0  0  0  0  0
    0.3710  -14.0870    2.1980 C   0  0  0  0  0  0  0  0  0  0  0  0
    0.6660  -14.7000    3.4260 C   0  0  0  0  0  0  0  0  0  0  0  0
   -0.0100  -14.2400    4.6970 C   0  0  0  0  0  0  0  0  0  0  0  0
   -0.4130  -12.9400    4.6390 F   0  0  0  0  0  0  0  0  0  0  0  0
   -1.1260  -14.9660    4.9800 F   0  0  0  0  0  0  0  0  0  0  0  0
    0.7900  -14.3330    5.7940 F   0  0  0  0  0  0  0  0  0  0  0  0
    1.6330  -15.7180    3.4620 C   0  0  0  0  0  0  0  0  0  0  0  0
    2.2770  -16.1320    2.2920 C   0  0  0  0  0  0  0  0  0  0  0  0
    5.5170  -15.4900   -2.0510 C   0  0  0  0  0  0  0  0  0  0  0  0
    6.1570  -15.5530   -3.2940 C   0  0  0  0  0  0  0  0  0  0  0  0
    6.6270  -14.0140   -6.4300 C   0  0  0  0  0  0  0  0  0  0  0  0
    7.2360  -13.9160   -7.5730 N   0  0  0  0  0  0  0  0  0  0  0  0
    7.4580  -15.0940   -8.2340 C   0  0  0  0  0  0  0  0  0  0  0  0
   10.0100  -14.2530  -10.4670 C   0  0  0  0  0  0  0  0  0  0  0  0
   12.6530  -13.3800  -12.7200 C   0  0  0  0  0  0  0  0  0  0  0  0
   14.0640  -12.7600  -12.7110 C   0  0  0  0  0  0  0  0  0  0  0  0
   15.5384  -15.1216  -10.7109 H   0  0  0  0  0  0  0  0  0  0  0  0
   14.6338  -15.2521  -12.2573 H   0  0  0  0  0  0  0  0  0  0  0  0
   16.3335  -14.6710  -12.2573 H   0  0  0  0  0  0  0  0  0  0  0  0
   15.7420  -12.6660  -11.5140 H   0  0  0  0  0  0  0  0  0  0  0  0
   14.7547  -13.4642   -9.4053 H   0  0  0  0  0  0  0  0  0  0  0  0
   14.0696  -11.9279  -10.0899 H   0  0  0  0  0  0  0  0  0  0  0  0
   12.8416  -14.7257  -10.2119 H   0  0  0  0  0  0  0  0  0  0  0  0
   12.2242  -13.2740   -9.3265 H   0  0  0  0  0  0  0  0  0  0  0  0
   10.1680  -11.7545  -12.7665 H   0  0  0  0  0  0  0  0  0  0  0  0
    7.7019  -12.0044  -12.6149 H   0  0  0  0  0  0  0  0  0  0  0  0
    6.6998  -13.6991  -11.0923 H   0  0  0  0  0  0  0  0  0  0  0  0
    8.3568  -17.3403  -10.4299 H   0  0  0  0  0  0  0  0  0  0  0  0
    5.4150  -17.7500   -5.2120 H   0  0  0  0  0  0  0  0  0  0  0  0
    6.3300  -18.5070   -6.5180 H   0  0  0  0  0  0  0  0  0  0  0  0
    3.5925  -14.5153   -5.2876 H   0  0  0  0  0  0  0  0  0  0  0  0
    2.4569  -14.4034   -3.0736 H   0  0  0  0  0  0  0  0  0  0  0  0
    3.6380  -14.1530   -0.1970 H   0  0  0  0  0  0  0  0  0  0  0  0
    0.7803  -14.0070    0.0731 H   0  0  0  0  0  0  0  0  0  0  0  0
   -0.3725  -13.2774    2.1563 H   0  0  0  0  0  0  0  0  0  0  0  0
    1.8863  -16.1945    4.4205 H   0  0  0  0  0  0  0  0  0  0  0  0
    3.0342  -16.9289    2.3328 H   0  0  0  0  0  0  0  0  0  0  0  0
    6.0664  -15.7690   -1.1398 H   0  0  0  0  0  0  0  0  0  0  0  0
    7.2052  -15.8815   -3.3510 H   0  0  0  0  0  0  0  0  0  0  0  0
    6.4440  -13.0732   -5.8902 H   0  0  0  0  0  0  0  0  0  0  0  0
   10.6582  -14.8871   -9.8443 H   0  0  0  0  0  0  0  0  0  0  0  0
   12.7332  -14.4529  -12.9492 H   0  0  0  0  0  0  0  0  0  0  0  0
   12.0499  -12.8664  -13.4832 H   0  0  0  0  0  0  0  0  0  0  0  0
   14.5735  -13.0238  -13.6495 H   0  0  0  0  0  0  0  0  0  0  0  0
   13.9548  -11.6702  -12.6092 H   0  0  0  0  0  0  0  0  0  0  0  0
  1  2  1  0
  2  3  1  0
  3  4  1  0
  4  5  1  0
  5  6  1  0
  6  7  2  0
  7  8  1  0
  8  9  2  0
  9 10  1  0
 10 11  1  0
 11 12  1  0
 12 13  2  0
 13 14  1  0
 14 15  1  0
 15 16  1  0
 15 17  2  0
 17 18  1  0
 18 19  2  0
 19 20  1  0
 20 21  2  0
 21 22  1  0
 22 23  1  0
 23 24  2  0
 23 25  1  0
 25 26  2  0
 26 27  1  0
 27 28  2  0
 28 29  1  0
 29 30  1  0
 29 31  1  0
 29 32  1  0
 28 33  1  0
 33 34  2  0
 21 35  1  0
 35 36  2  0
 17 37  1  0
 37 38  2  0
 38 39  1  0
 10 40  2  0
  5 41  1  0
 41 42  1  0
 42  2  1  0
 40  6  1  0
 39 11  2  0
 39 14  1  0
 36 18  1  0
 34 25  1  0
  1 43  1  0
  1 44  1  0
  1 45  1  0
  2 46  1  0
  3 47  1  0
  3 48  1  0
  4 49  1  0
  4 50  1  0
  7 51  1  0
  8 52  1  0
  9 53  1  0
 12 54  1  0
 16 55  1  0
 16 56  1  0
 19 57  1  0
 20 58  1  0
 22 59  1  0
 26 60  1  0
 27 61  1  0
 33 62  1  0
 34 63  1  0
 35 64  1  0
 36 65  1  0
 37 66  1  0
 40 67  1  0
 41 68  1  0
 41 69  1  0
 42 70  1  0
 42 71  1  0
M  CHG  1   2   1
M  END
>  <meeko>  (9) 
{"is_sidechain": [false], "free_energy": -8.589, "intermolecular_energy": -11.789, "internal_energy": -1.158}

$$$$
