LIB_NPSXOCPQKKCBFX__M_PUB_ALL__e8__s20260927
     RDKit          3D

 77 82  0  0  0  0  0  0  0  0999 V2000
    0.4890  -13.2250   -0.1600 C   0  0  0  0  0  0  0  0  0  0  0  0
   -0.8890  -13.4440    0.3590 N   0  0  0  0  0  0  0  0  0  0  0  0
   -1.6860  -14.4870   -0.4120 C   0  0  0  0  0  0  0  0  0  0  0  0
   -2.9100  -14.9140    0.4370 C   0  0  0  0  0  0  0  0  0  0  0  0
   -3.3370  -13.8200    1.3330 N   0  0  0  0  0  0  0  0  0  0  0  0
   -4.1220  -14.0790    2.4450 C   0  0  0  0  0  0  0  0  0  0  0  0
   -3.8780  -15.1810    3.2800 C   0  0  0  0  0  0  0  0  0  0  0  0
   -4.6840  -15.4660    4.3930 C   0  0  0  0  0  0  0  0  0  0  0  0
   -5.7800  -14.6580    4.7070 C   0  0  0  0  0  0  0  0  0  0  0  0
   -6.6080  -14.9620    5.8620 C   0  0  0  0  0  0  0  0  0  0  0  0
   -6.7340  -14.2720    7.0860 C   0  0  0  0  0  0  0  0  0  0  0  0
   -7.5750  -14.8520    7.9380 N   0  0  0  0  0  0  0  0  0  0  0  0
   -8.0230  -15.9580    7.2690 N   0  0  0  0  0  0  0  0  0  0  0  0
   -8.9400  -16.9300    7.7560 C   0  0  0  0  0  0  0  0  0  0  0  0
   -9.4220  -16.7360    9.0360 N   0  0  0  0  0  0  0  0  0  0  0  0
   -9.2580  -17.9670    6.9510 C   0  0  0  0  0  0  0  0  0  0  0  0
  -10.1840  -19.0490    7.3120 C   0  0  0  0  0  0  0  0  0  0  0  0
  -11.5320  -18.9720    6.9510 C   0  0  0  0  0  0  0  0  0  0  0  0
  -12.4230  -19.9930    7.3030 C   0  0  0  0  0  0  0  0  0  0  0  0
  -11.9830  -21.1060    8.0210 C   0  0  0  0  0  0  0  0  0  0  0  0
  -12.8150  -22.1740    8.4110 N   0  0  0  0  0  0  0  0  0  0  0  0
  -13.4570  -22.3430    9.6290 C   0  0  0  0  0  0  0  0  0  0  0  0
  -13.3780  -21.6000   10.5990 O   0  0  0  0  0  0  0  0  0  0  0  0
  -14.2780  -23.6270    9.6520 C   0  0  0  0  0  0  0  0  0  0  0  0
  -13.4650  -24.8850    9.3440 C   0  0  0  0  0  0  0  0  0  0  0  0
  -12.7320  -25.4600   10.5610 C   0  0  0  0  0  0  0  0  0  0  0  0
  -11.4930  -24.6710   10.9840 C   0  0  0  0  0  0  0  0  0  0  0  0
  -11.2700  -25.0450   12.4480 C   0  0  0  0  0  0  0  0  0  0  0  0
  -12.5810  -25.6540   12.9430 C   0  0  0  0  0  0  0  0  0  0  0  0
  -13.5880  -25.4220   11.8260 C   0  0  0  0  0  0  0  0  0  0  0  0
  -10.6310  -21.1830    8.3800 C   0  0  0  0  0  0  0  0  0  0  0  0
   -9.7380  -20.1640    8.0310 C   0  0  0  0  0  0  0  0  0  0  0  0
   -8.5810  -17.9750    5.6140 C   0  0  0  0  0  0  0  0  0  0  0  0
   -7.7420  -17.0970    5.1540 N   0  0  0  0  0  0  0  0  0  0  0  0
   -7.4480  -16.0560    5.9940 C   0  0  0  0  0  0  0  0  0  0  0  0
   -6.0370  -13.5580    3.8900 C   0  0  0  0  0  0  0  0  0  0  0  0
   -5.2260  -13.2800    2.7800 C   0  0  0  0  0  0  0  0  0  0  0  0
   -3.1780  -12.4530    0.8070 C   0  0  0  0  0  0  0  0  0  0  0  0
   -1.6870  -12.1520    0.5290 C   0  0  0  0  0  0  0  0  0  0  0  0
    1.1855  -13.1143    0.6842 H   0  0  0  0  0  0  0  0  0  0  0  0
    0.7908  -14.0864   -0.7738 H   0  0  0  0  0  0  0  0  0  0  0  0
    0.5089  -12.3124   -0.7738 H   0  0  0  0  0  0  0  0  0  0  0  0
   -0.8290  -13.8240    1.3170 H   0  0  0  0  0  0  0  0  0  0  0  0
   -2.0294  -14.0586   -1.3651 H   0  0  0  0  0  0  0  0  0  0  0  0
   -1.0523  -15.3623   -0.6177 H   0  0  0  0  0  0  0  0  0  0  0  0
   -3.7411  -15.1746   -0.2348 H   0  0  0  0  0  0  0  0  0  0  0  0
   -2.6265  -15.7813    1.0514 H   0  0  0  0  0  0  0  0  0  0  0  0
   -3.0281  -15.8420    3.0547 H   0  0  0  0  0  0  0  0  0  0  0  0
   -4.4503  -16.3352    5.0253 H   0  0  0  0  0  0  0  0  0  0  0  0
   -6.1893  -13.3439    7.3139 H   0  0  0  0  0  0  0  0  0  0  0  0
   -9.0130  -17.3010    9.7800 H   0  0  0  0  0  0  0  0  0  0  0  0
  -10.2360  -16.1610    9.2130 H   0  0  0  0  0  0  0  0  0  0  0  0
  -11.8961  -18.1016    6.3854 H   0  0  0  0  0  0  0  0  0  0  0  0
  -13.4807  -19.9172    7.0106 H   0  0  0  0  0  0  0  0  0  0  0  0
  -12.9540  -22.9040    7.7230 H   0  0  0  0  0  0  0  0  0  0  0  0
  -14.7216  -23.7371   10.6525 H   0  0  0  0  0  0  0  0  0  0  0  0
  -15.0381  -23.5354    8.8622 H   0  0  0  0  0  0  0  0  0  0  0  0
  -14.1492  -25.6539    8.9558 H   0  0  0  0  0  0  0  0  0  0  0  0
  -12.6956  -24.5985    8.6120 H   0  0  0  0  0  0  0  0  0  0  0  0
  -12.4797  -26.4740   10.2172 H   0  0  0  0  0  0  0  0  0  0  0  0
  -10.6239  -24.9590   10.3743 H   0  0  0  0  0  0  0  0  0  0  0  0
  -11.6260  -23.5874   10.8490 H   0  0  0  0  0  0  0  0  0  0  0  0
  -10.4541  -25.7779   12.5333 H   0  0  0  0  0  0  0  0  0  0  0  0
  -10.9886  -24.1654   13.0456 H   0  0  0  0  0  0  0  0  0  0  0  0
  -12.4573  -26.7308   13.1308 H   0  0  0  0  0  0  0  0  0  0  0  0
  -12.9100  -25.1981   13.8885 H   0  0  0  0  0  0  0  0  0  0  0  0
  -14.3481  -26.2169   11.8105 H   0  0  0  0  0  0  0  0  0  0  0  0
  -14.1440  -24.4796   11.9391 H   0  0  0  0  0  0  0  0  0  0  0  0
  -10.2671  -22.0551    8.9430 H   0  0  0  0  0  0  0  0  0  0  0  0
   -8.6802  -20.2395    8.3231 H   0  0  0  0  0  0  0  0  0  0  0  0
   -8.8213  -18.8176    4.9489 H   0  0  0  0  0  0  0  0  0  0  0  0
   -6.8875  -12.8991    4.1191 H   0  0  0  0  0  0  0  0  0  0  0  0
   -5.4627  -12.4083    2.1523 H   0  0  0  0  0  0  0  0  0  0  0  0
   -3.7478  -12.3563   -0.1289 H   0  0  0  0  0  0  0  0  0  0  0  0
   -3.5530  -11.7377    1.5537 H   0  0  0  0  0  0  0  0  0  0  0  0
   -1.6062  -11.5557   -0.3918 H   0  0  0  0  0  0  0  0  0  0  0  0
   -1.2763  -11.5970    1.3854 H   0  0  0  0  0  0  0  0  0  0  0  0
  1  2  1  0
  2  3  1  0
  3  4  1  0
  4  5  1  0
  5  6  1  0
  6  7  2  0
  7  8  1  0
  8  9  2  0
  9 10  1  0
 10 11  1  0
 11 12  2  0
 12 13  1  0
 13 14  1  0
 14 15  1  0
 14 16  2  0
 16 17  1  0
 17 18  2  0
 18 19  1  0
 19 20  2  0
 20 21  1  0
 21 22  1  0
 22 23  2  0
 22 24  1  0
 24 25  1  0
 25 26  1  0
 26 27  1  0
 27 28  1  0
 28 29  1  0
 29 30  1  0
 20 31  1  0
 31 32  2  0
 16 33  1  0
 33 34  2  0
 34 35  1  0
  9 36  1  0
 36 37  2  0
  5 38  1  0
 38 39  1  0
 39  2  1  0
 37  6  1  0
 35 10  2  0
 35 13  1  0
 32 17  1  0
 30 26  1  0
  1 40  1  0
  1 41  1  0
  1 42  1  0
  2 43  1  0
  3 44  1  0
  3 45  1  0
  4 46  1  0
  4 47  1  0
  7 48  1  0
  8 49  1  0
 11 50  1  0
 15 51  1  0
 15 52  1  0
 18 53  1  0
 19 54  1  0
 21 55  1  0
 24 56  1  0
 24 57  1  0
 25 58  1  0
 25 59  1  0
 26 60  1  0
 27 61  1  0
 27 62  1  0
 28 63  1  0
 28 64  1  0
 29 65  1  0
 29 66  1  0
 30 67  1  0
 30 68  1  0
 31 69  1  0
 32 70  1  0
 33 71  1  0
 36 72  1  0
 37 73  1  0
 38 74  1  0
 38 75  1  0
 39 76  1  0
 39 77  1  0
M  CHG  1   2   1
M  END
>  <meeko>  (1) 
{"is_sidechain": [false], "free_energy": -9.005, "intermolecular_energy": -12.953, "internal_energy": -1.144}

$$$$
LIB_NPSXOCPQKKCBFX__M_PUB_ALL__e8__s20260927
     RDKit          3D

 77 82  0  0  0  0  0  0  0  0999 V2000
   -0.1000  -18.3860   10.5530 C   0  0  0  0  0  0  0  0  0  0  0  0
   -0.5080  -17.8750    9.2160 N   0  0  0  0  0  0  0  0  0  0  0  0
   -2.0120  -17.7050    9.0470 C   0  0  0  0  0  0  0  0  0  0  0  0
   -2.2810  -16.8090    7.8120 C   0  0  0  0  0  0  0  0  0  0  0  0
   -1.1930  -16.9360    6.8220 N   0  0  0  0  0  0  0  0  0  0  0  0
   -1.0010  -15.9660    5.8500 C   0  0  0  0  0  0  0  0  0  0  0  0
   -0.0710  -14.9290    6.0190 C   0  0  0  0  0  0  0  0  0  0  0  0
    0.1110  -13.9270    5.0520 C   0  0  0  0  0  0  0  0  0  0  0  0
   -0.6430  -13.9220    3.8770 C   0  0  0  0  0  0  0  0  0  0  0  0
   -0.4460  -12.8810    2.8820 C   0  0  0  0  0  0  0  0  0  0  0  0
   -0.9550  -11.5660    2.8430 C   0  0  0  0  0  0  0  0  0  0  0  0
   -0.5870  -10.8870    1.7590 N   0  0  0  0  0  0  0  0  0  0  0  0
    0.1870  -11.7680    1.0560 N   0  0  0  0  0  0  0  0  0  0  0  0
    0.8180  -11.5310   -0.1960 C   0  0  0  0  0  0  0  0  0  0  0  0
    0.6240  -10.2840   -0.7580 N   0  0  0  0  0  0  0  0  0  0  0  0
    1.5390  -12.5320   -0.7470 C   0  0  0  0  0  0  0  0  0  0  0  0
    2.2440  -12.4410   -2.0330 C   0  0  0  0  0  0  0  0  0  0  0  0
    1.7640  -13.1320   -3.1490 C   0  0  0  0  0  0  0  0  0  0  0  0
    2.4370  -13.0610   -4.3750 C   0  0  0  0  0  0  0  0  0  0  0  0
    3.6000  -12.3000   -4.5050 C   0  0  0  0  0  0  0  0  0  0  0  0
    4.3330  -12.1750   -5.7030 N   0  0  0  0  0  0  0  0  0  0  0  0
    5.1570  -13.1240   -6.2900 C   0  0  0  0  0  0  0  0  0  0  0  0
    5.4200  -14.2330   -5.8410 O   0  0  0  0  0  0  0  0  0  0  0  0
    5.7590  -12.6090   -7.5910 C   0  0  0  0  0  0  0  0  0  0  0  0
    6.3390  -13.7090   -8.4820 C   0  0  0  0  0  0  0  0  0  0  0  0
    7.3770  -13.2050   -9.4900 C   0  0  0  0  0  0  0  0  0  0  0  0
    7.4020  -13.9740  -10.8100 C   0  0  0  0  0  0  0  0  0  0  0  0
    8.0450  -13.0170  -11.8120 C   0  0  0  0  0  0  0  0  0  0  0  0
    7.9650  -11.6240  -11.1900 C   0  0  0  0  0  0  0  0  0  0  0  0
    7.0910  -11.7770   -9.9530 C   0  0  0  0  0  0  0  0  0  0  0  0
    4.0780  -11.6050   -3.3870 C   0  0  0  0  0  0  0  0  0  0  0  0
    3.4080  -11.6750   -2.1600 C   0  0  0  0  0  0  0  0  0  0  0  0
    1.5790  -13.8050    0.0400 C   0  0  0  0  0  0  0  0  0  0  0  0
    1.0090  -14.0400    1.1840 N   0  0  0  0  0  0  0  0  0  0  0  0
    0.2930  -13.0010    1.7160 C   0  0  0  0  0  0  0  0  0  0  0  0
   -1.5710  -14.9470    3.6920 C   0  0  0  0  0  0  0  0  0  0  0  0
   -1.7470  -15.9440    4.6620 C   0  0  0  0  0  0  0  0  0  0  0  0
   -0.5680  -18.2650    6.7130 C   0  0  0  0  0  0  0  0  0  0  0  0
    0.0940  -18.6610    8.0530 C   0  0  0  0  0  0  0  0  0  0  0  0
   -0.5808  -17.7838   11.3380 H   0  0  0  0  0  0  0  0  0  0  0  0
   -0.4107  -19.4363   10.6546 H   0  0  0  0  0  0  0  0  0  0  0  0
    0.9930  -18.3155   10.6546 H   0  0  0  0  0  0  0  0  0  0  0  0
   -0.1280  -16.9220    9.0910 H   0  0  0  0  0  0  0  0  0  0  0  0
   -2.4803  -18.6891    8.8980 H   0  0  0  0  0  0  0  0  0  0  0  0
   -2.4372  -17.2363    9.9468 H   0  0  0  0  0  0  0  0  0  0  0  0
   -3.2296  -17.1137    7.3457 H   0  0  0  0  0  0  0  0  0  0  0  0
   -2.3346  -15.7613    8.1429 H   0  0  0  0  0  0  0  0  0  0  0  0
    0.5341  -14.9000    6.9371 H   0  0  0  0  0  0  0  0  0  0  0  0
    0.8567  -13.1365    5.2224 H   0  0  0  0  0  0  0  0  0  0  0  0
   -1.5941  -11.1428    3.6320 H   0  0  0  0  0  0  0  0  0  0  0  0
    0.0430  -10.2340   -1.5940 H   0  0  0  0  0  0  0  0  0  0  0  0
    1.1400   -9.4740   -0.4390 H   0  0  0  0  0  0  0  0  0  0  0  0
    0.8493  -13.7371   -3.0636 H   0  0  0  0  0  0  0  0  0  0  0  0
    2.0454  -13.6102   -5.2439 H   0  0  0  0  0  0  0  0  0  0  0  0
    4.2510  -11.2890   -6.1840 H   0  0  0  0  0  0  0  0  0  0  0  0
    4.9719  -12.0859   -8.1540 H   0  0  0  0  0  0  0  0  0  0  0  0
    6.5930  -11.9460   -7.3173 H   0  0  0  0  0  0  0  0  0  0  0  0
    6.8179  -14.4608   -7.8375 H   0  0  0  0  0  0  0  0  0  0  0  0
    5.5029  -14.1244   -9.0637 H   0  0  0  0  0  0  0  0  0  0  0  0
    8.3152  -13.3180   -8.9270 H   0  0  0  0  0  0  0  0  0  0  0  0
    8.0012  -14.8913  -10.7119 H   0  0  0  0  0  0  0  0  0  0  0  0
    6.3958  -14.2877  -11.1249 H   0  0  0  0  0  0  0  0  0  0  0  0
    9.0947  -13.2965  -11.9854 H   0  0  0  0  0  0  0  0  0  0  0  0
    7.5293  -13.0505  -12.7830 H   0  0  0  0  0  0  0  0  0  0  0  0
    8.9683  -11.2705  -10.9098 H   0  0  0  0  0  0  0  0  0  0  0  0
    7.5491  -10.8877  -11.8934 H   0  0  0  0  0  0  0  0  0  0  0  0
    7.3738  -11.0484   -9.1789 H   0  0  0  0  0  0  0  0  0  0  0  0
    6.0250  -11.5974  -10.1562 H   0  0  0  0  0  0  0  0  0  0  0  0
    4.9906  -10.9970   -3.4741 H   0  0  0  0  0  0  0  0  0  0  0  0
    3.7986  -11.1250   -1.2911 H   0  0  0  0  0  0  0  0  0  0  0  0
    2.1547  -14.6333   -0.3988 H   0  0  0  0  0  0  0  0  0  0  0  0
   -2.1733  -14.9734    2.7719 H   0  0  0  0  0  0  0  0  0  0  0  0
   -2.4929  -16.7332    4.4862 H   0  0  0  0  0  0  0  0  0  0  0  0
   -1.3377  -19.0075    6.4557 H   0  0  0  0  0  0  0  0  0  0  0  0
    0.2035  -18.2332    5.9296 H   0  0  0  0  0  0  0  0  0  0  0  0
   -0.0616  -19.7360    8.2269 H   0  0  0  0  0  0  0  0  0  0  0  0
    1.1680  -18.4309    7.9940 H   0  0  0  0  0  0  0  0  0  0  0  0
  1  2  1  0
  2  3  1  0
  3  4  1  0
  4  5  1  0
  5  6  1  0
  6  7  2  0
  7  8  1  0
  8  9  2  0
  9 10  1  0
 10 11  1  0
 11 12  2  0
 12 13  1  0
 13 14  1  0
 14 15  1  0
 14 16  2  0
 16 17  1  0
 17 18  2  0
 18 19  1  0
 19 20  2  0
 20 21  1  0
 21 22  1  0
 22 23  2  0
 22 24  1  0
 24 25  1  0
 25 26  1  0
 26 27  1  0
 27 28  1  0
 28 29  1  0
 29 30  1  0
 20 31  1  0
 31 32  2  0
 16 33  1  0
 33 34  2  0
 34 35  1  0
  9 36  1  0
 36 37  2  0
  5 38  1  0
 38 39  1  0
 39  2  1  0
 37  6  1  0
 35 10  2  0
 35 13  1  0
 32 17  1  0
 30 26  1  0
  1 40  1  0
  1 41  1  0
  1 42  1  0
  2 43  1  0
  3 44  1  0
  3 45  1  0
  4 46  1  0
  4 47  1  0
  7 48  1  0
  8 49  1  0
 11 50  1  0
 15 51  1  0
 15 52  1  0
 18 53  1  0
 19 54  1  0
 21 55  1  0
 24 56  1  0
 24 57  1  0
 25 58  1  0
 25 59  1  0
 26 60  1  0
 27 61  1  0
 27 62  1  0
 28 63  1  0
 28 64  1  0
 29 65  1  0
 29 66  1  0
 30 67  1  0
 30 68  1  0
 31 69  1  0
 32 70  1  0
 33 71  1  0
 36 72  1  0
 37 73  1  0
 38 74  1  0
 38 75  1  0
 39 76  1  0
 39 77  1  0
M  CHG  1   2   1
M  END
>  <meeko>  (2) 
{"is_sidechain": [false], "free_energy": -8.651, "intermolecular_energy": -12.651, "internal_energy": -0.937}

$$$$
LIB_NPSXOCPQKKCBFX__M_PUB_ALL__e8__s20260927
     RDKit          3D

 77 82  0  0  0  0  0  0  0  0999 V2000
    6.4540  -15.4760   -6.2520 C   0  0  0  0  0  0  0  0  0  0  0  0
    5.8130  -14.3380   -5.5380 N   0  0  0  0  0  0  0  0  0  0  0  0
    5.2440  -13.2660   -6.4580 C   0  0  0  0  0  0  0  0  0  0  0  0
    4.2740  -12.3710   -5.6480 C   0  0  0  0  0  0  0  0  0  0  0  0
    4.6580  -12.3340   -4.2220 N   0  0  0  0  0  0  0  0  0  0  0  0
    3.7460  -11.9480   -3.2520 C   0  0  0  0  0  0  0  0  0  0  0  0
    3.7250  -12.5430   -1.9810 C   0  0  0  0  0  0  0  0  0  0  0  0
    2.7890  -12.1770   -1.0010 C   0  0  0  0  0  0  0  0  0  0  0  0
    1.8250  -11.2000   -1.2640 C   0  0  0  0  0  0  0  0  0  0  0  0
    0.8610  -10.8280   -0.2420 C   0  0  0  0  0  0  0  0  0  0  0  0
    0.6980   -9.6030    0.4380 C   0  0  0  0  0  0  0  0  0  0  0  0
   -0.2820   -9.6220    1.3380 N   0  0  0  0  0  0  0  0  0  0  0  0
   -0.7870  -10.8900    1.2590 N   0  0  0  0  0  0  0  0  0  0  0  0
   -1.8520  -11.4280    2.0330 C   0  0  0  0  0  0  0  0  0  0  0  0
   -2.4300  -10.5820    2.9600 N   0  0  0  0  0  0  0  0  0  0  0  0
   -2.2080  -12.7140    1.8210 C   0  0  0  0  0  0  0  0  0  0  0  0
   -3.2830  -13.4110    2.5420 C   0  0  0  0  0  0  0  0  0  0  0  0
   -4.5590  -12.8470    2.6190 C   0  0  0  0  0  0  0  0  0  0  0  0
   -5.5850  -13.4980    3.3150 C   0  0  0  0  0  0  0  0  0  0  0  0
   -5.3510  -14.7210    3.9460 C   0  0  0  0  0  0  0  0  0  0  0  0
   -6.3290  -15.4390    4.6640 N   0  0  0  0  0  0  0  0  0  0  0  0
   -6.9290  -15.0820    5.8630 C   0  0  0  0  0  0  0  0  0  0  0  0
   -6.6790  -14.0850    6.5290 O   0  0  0  0  0  0  0  0  0  0  0  0
   -7.9500  -16.1230    6.3060 C   0  0  0  0  0  0  0  0  0  0  0  0
   -8.6670  -15.7680    7.6100 C   0  0  0  0  0  0  0  0  0  0  0  0
  -10.1870  -15.9510    7.5490 C   0  0  0  0  0  0  0  0  0  0  0  0
  -10.6760  -17.3280    7.9980 C   0  0  0  0  0  0  0  0  0  0  0  0
  -12.1380  -17.1180    8.3880 C   0  0  0  0  0  0  0  0  0  0  0  0
  -12.3220  -15.6140    8.5790 C   0  0  0  0  0  0  0  0  0  0  0  0
  -10.9240  -15.0180    8.5080 C   0  0  0  0  0  0  0  0  0  0  0  0
   -4.0720  -15.2860    3.8660 C   0  0  0  0  0  0  0  0  0  0  0  0
   -3.0450  -14.6370    3.1720 C   0  0  0  0  0  0  0  0  0  0  0  0
   -1.4120  -13.4400    0.7800 C   0  0  0  0  0  0  0  0  0  0  0  0
   -0.4370  -12.9640    0.0660 N   0  0  0  0  0  0  0  0  0  0  0  0
   -0.1080  -11.6560    0.3010 C   0  0  0  0  0  0  0  0  0  0  0  0
    1.8320  -10.5970   -2.5200 C   0  0  0  0  0  0  0  0  0  0  0  0
    2.7710  -10.9680   -3.4930 C   0  0  0  0  0  0  0  0  0  0  0  0
    6.1010  -12.3940   -3.9380 C   0  0  0  0  0  0  0  0  0  0  0  0
    6.6980  -13.7230   -4.4540 C   0  0  0  0  0  0  0  0  0  0  0  0
    6.8560  -16.1897   -5.5179 H   0  0  0  0  0  0  0  0  0  0  0  0
    5.7073  -15.9804   -6.8829 H   0  0  0  0  0  0  0  0  0  0  0  0
    7.2724  -15.0988   -6.8829 H   0  0  0  0  0  0  0  0  0  0  0  0
    4.9930  -14.6890   -5.0160 H   0  0  0  0  0  0  0  0  0  0  0  0
    6.0634  -12.6522   -6.8604 H   0  0  0  0  0  0  0  0  0  0  0  0
    4.7050  -13.7392   -7.2920 H   0  0  0  0  0  0  0  0  0  0  0  0
    4.3015  -11.3495   -6.0551 H   0  0  0  0  0  0  0  0  0  0  0  0
    3.2598  -12.7892   -5.7283 H   0  0  0  0  0  0  0  0  0  0  0  0
    4.4659  -13.3212   -1.7452 H   0  0  0  0  0  0  0  0  0  0  0  0
    2.8146  -12.6645   -0.0153 H   0  0  0  0  0  0  0  0  0  0  0  0
    1.3208   -8.7175    0.2431 H   0  0  0  0  0  0  0  0  0  0  0  0
   -2.3960   -9.5820    2.7650 H   0  0  0  0  0  0  0  0  0  0  0  0
   -2.7540  -10.9230    3.8560 H   0  0  0  0  0  0  0  0  0  0  0  0
   -4.7594  -11.8830    2.1285 H   0  0  0  0  0  0  0  0  0  0  0  0
   -6.5845  -13.0415    3.3650 H   0  0  0  0  0  0  0  0  0  0  0  0
   -6.6220  -16.3200    4.2580 H   0  0  0  0  0  0  0  0  0  0  0  0
   -8.7047  -16.2282    5.5127 H   0  0  0  0  0  0  0  0  0  0  0  0
   -7.3976  -17.0567    6.4878 H   0  0  0  0  0  0  0  0  0  0  0  0
   -8.2719  -16.4119    8.4095 H   0  0  0  0  0  0  0  0  0  0  0  0
   -8.4799  -14.7005    7.7984 H   0  0  0  0  0  0  0  0  0  0  0  0
  -10.3968  -15.7624    6.4858 H   0  0  0  0  0  0  0  0  0  0  0  0
  -10.5953  -18.0544    7.1759 H   0  0  0  0  0  0  0  0  0  0  0  0
  -10.0788  -17.7284    8.8305 H   0  0  0  0  0  0  0  0  0  0  0  0
  -12.8009  -17.4840    7.5901 H   0  0  0  0  0  0  0  0  0  0  0  0
  -12.3890  -17.6700    9.3058 H   0  0  0  0  0  0  0  0  0  0  0  0
  -12.9566  -15.2005    7.7813 H   0  0  0  0  0  0  0  0  0  0  0  0
  -12.8148  -15.3826    9.5348 H   0  0  0  0  0  0  0  0  0  0  0  0
  -10.9537  -13.9918    8.1131 H   0  0  0  0  0  0  0  0  0  0  0  0
  -10.4388  -14.9451    9.4925 H   0  0  0  0  0  0  0  0  0  0  0  0
   -3.8726  -16.2512    4.3545 H   0  0  0  0  0  0  0  0  0  0  0  0
   -2.0453  -15.0932    3.1215 H   0  0  0  0  0  0  0  0  0  0  0  0
   -1.6828  -14.4910    0.6008 H   0  0  0  0  0  0  0  0  0  0  0  0
    1.0901   -9.8186   -2.7517 H   0  0  0  0  0  0  0  0  0  0  0  0
    2.7424  -10.4754   -4.4761 H   0  0  0  0  0  0  0  0  0  0  0  0
    6.6038  -11.5528   -4.4376 H   0  0  0  0  0  0  0  0  0  0  0  0
    6.2529  -12.3337   -2.8502 H   0  0  0  0  0  0  0  0  0  0  0  0
    7.6970  -13.5300   -4.8721 H   0  0  0  0  0  0  0  0  0  0  0  0
    6.7616  -14.4283   -3.6123 H   0  0  0  0  0  0  0  0  0  0  0  0
  1  2  1  0
  2  3  1  0
  3  4  1  0
  4  5  1  0
  5  6  1  0
  6  7  2  0
  7  8  1  0
  8  9  2  0
  9 10  1  0
 10 11  1  0
 11 12  2  0
 12 13  1  0
 13 14  1  0
 14 15  1  0
 14 16  2  0
 16 17  1  0
 17 18  2  0
 18 19  1  0
 19 20  2  0
 20 21  1  0
 21 22  1  0
 22 23  2  0
 22 24  1  0
 24 25  1  0
 25 26  1  0
 26 27  1  0
 27 28  1  0
 28 29  1  0
 29 30  1  0
 20 31  1  0
 31 32  2  0
 16 33  1  0
 33 34  2  0
 34 35  1  0
  9 36  1  0
 36 37  2  0
  5 38  1  0
 38 39  1  0
 39  2  1  0
 37  6  1  0
 35 10  2  0
 35 13  1  0
 32 17  1  0
 30 26  1  0
  1 40  1  0
  1 41  1  0
  1 42  1  0
  2 43  1  0
  3 44  1  0
  3 45  1  0
  4 46  1  0
  4 47  1  0
  7 48  1  0
  8 49  1  0
 11 50  1  0
 15 51  1  0
 15 52  1  0
 18 53  1  0
 19 54  1  0
 21 55  1  0
 24 56  1  0
 24 57  1  0
 25 58  1  0
 25 59  1  0
 26 60  1  0
 27 61  1  0
 27 62  1  0
 28 63  1  0
 28 64  1  0
 29 65  1  0
 29 66  1  0
 30 67  1  0
 30 68  1  0
 31 69  1  0
 32 70  1  0
 33 71  1  0
 36 72  1  0
 37 73  1  0
 38 74  1  0
 38 75  1  0
 39 76  1  0
 39 77  1  0
M  CHG  1   2   1
M  END
>  <meeko>  (3) 
{"is_sidechain": [false], "free_energy": -8.602, "intermolecular_energy": -12.881, "internal_energy": -0.636}

$$$$
LIB_NPSXOCPQKKCBFX__M_PUB_ALL__e8__s20260927
     RDKit          3D

 77 82  0  0  0  0  0  0  0  0999 V2000
   10.3400  -12.9580   -9.9530 C   0  0  0  0  0  0  0  0  0  0  0  0
    9.1010  -13.2320   -9.1740 N   0  0  0  0  0  0  0  0  0  0  0  0
    9.0390  -14.6300   -8.5740 C   0  0  0  0  0  0  0  0  0  0  0  0
    7.9410  -14.6610   -7.4820 C   0  0  0  0  0  0  0  0  0  0  0  0
    6.8820  -13.6720   -7.7720 N   0  0  0  0  0  0  0  0  0  0  0  0
    6.0280  -13.2340   -6.7720 C   0  0  0  0  0  0  0  0  0  0  0  0
    6.1700  -13.6600   -5.4420 C   0  0  0  0  0  0  0  0  0  0  0  0
    5.2930  -13.2420   -4.4290 C   0  0  0  0  0  0  0  0  0  0  0  0
    4.2280  -12.3840   -4.7130 C   0  0  0  0  0  0  0  0  0  0  0  0
    3.3270  -11.9570   -3.6560 C   0  0  0  0  0  0  0  0  0  0  0  0
    3.0540  -10.6590   -3.1760 C   0  0  0  0  0  0  0  0  0  0  0  0
    2.1830  -10.6380   -2.1700 N   0  0  0  0  0  0  0  0  0  0  0  0
    1.8660  -11.9530   -1.9710 N   0  0  0  0  0  0  0  0  0  0  0  0
    0.9760  -12.4710   -0.9910 C   0  0  0  0  0  0  0  0  0  0  0  0
    0.3750  -11.5510   -0.1540 N   0  0  0  0  0  0  0  0  0  0  0  0
    0.7940  -13.8090   -0.9380 C   0  0  0  0  0  0  0  0  0  0  0  0
   -0.0870  -14.4930    0.0180 C   0  0  0  0  0  0  0  0  0  0  0  0
   -1.4100  -14.7840   -0.3270 C   0  0  0  0  0  0  0  0  0  0  0  0
   -2.2600  -15.4240    0.5830 C   0  0  0  0  0  0  0  0  0  0  0  0
   -1.8030  -15.7820    1.8520 C   0  0  0  0  0  0  0  0  0  0  0  0
   -2.5940  -16.4290    2.8230 N   0  0  0  0  0  0  0  0  0  0  0  0
   -2.7320  -17.7950    3.0250 C   0  0  0  0  0  0  0  0  0  0  0  0
   -2.2120  -18.6820    2.3610 O   0  0  0  0  0  0  0  0  0  0  0  0
   -3.6710  -18.0930    4.1880 C   0  0  0  0  0  0  0  0  0  0  0  0
   -3.7590  -16.9630    5.2150 C   0  0  0  0  0  0  0  0  0  0  0  0
   -5.1870  -16.4680    5.4680 C   0  0  0  0  0  0  0  0  0  0  0  0
   -5.4510  -16.0020    6.8990 C   0  0  0  0  0  0  0  0  0  0  0  0
   -6.6610  -15.0740    6.7940 C   0  0  0  0  0  0  0  0  0  0  0  0
   -6.7800  -14.6850    5.3220 C   0  0  0  0  0  0  0  0  0  0  0  0
   -5.5210  -15.2180    4.6540 C   0  0  0  0  0  0  0  0  0  0  0  0
   -0.4760  -15.4930    2.1960 C   0  0  0  0  0  0  0  0  0  0  0  0
    0.3750  -14.8530    1.2890 C   0  0  0  0  0  0  0  0  0  0  0  0
    1.5800  -14.6060   -1.9340 C   0  0  0  0  0  0  0  0  0  0  0  0
    2.3970  -14.1490   -2.8350 N   0  0  0  0  0  0  0  0  0  0  0  0
    2.5510  -12.7890   -2.8650 C   0  0  0  0  0  0  0  0  0  0  0  0
    4.0730  -11.9490   -6.0290 C   0  0  0  0  0  0  0  0  0  0  0  0
    4.9540  -12.3710   -7.0360 C   0  0  0  0  0  0  0  0  0  0  0  0
    6.5760  -13.4500   -9.1950 C   0  0  0  0  0  0  0  0  0  0  0  0
    7.8180  -12.9000   -9.9340 C   0  0  0  0  0  0  0  0  0  0  0  0
   11.1749  -12.7734   -9.2610 H   0  0  0  0  0  0  0  0  0  0  0  0
   10.5742  -13.8261  -10.5867 H   0  0  0  0  0  0  0  0  0  0  0  0
   10.1863  -12.0721  -10.5867 H   0  0  0  0  0  0  0  0  0  0  0  0
    9.0730  -12.6010   -8.3570 H   0  0  0  0  0  0  0  0  0  0  0  0
    8.7969  -15.3590   -9.3614 H   0  0  0  0  0  0  0  0  0  0  0  0
   10.0120  -14.8879   -8.1305 H   0  0  0  0  0  0  0  0  0  0  0  0
    7.4956  -15.6662   -7.4474 H   0  0  0  0  0  0  0  0  0  0  0  0
    8.4002  -14.4112   -6.5142 H   0  0  0  0  0  0  0  0  0  0  0  0
    6.9939  -14.3424   -5.1858 H   0  0  0  0  0  0  0  0  0  0  0  0
    5.4463  -13.5946   -3.3984 H   0  0  0  0  0  0  0  0  0  0  0  0
    3.5162   -9.7520   -3.5928 H   0  0  0  0  0  0  0  0  0  0  0  0
    0.9760  -11.0590    0.5060 H   0  0  0  0  0  0  0  0  0  0  0  0
   -0.6310  -11.4620   -0.1010 H   0  0  0  0  0  0  0  0  0  0  0  0
   -1.7868  -14.5076   -1.3228 H   0  0  0  0  0  0  0  0  0  0  0  0
   -3.2980  -15.6468    0.2949 H   0  0  0  0  0  0  0  0  0  0  0  0
   -3.1250  -15.8260    3.4380 H   0  0  0  0  0  0  0  0  0  0  0  0
   -4.6779  -18.2733    3.7835 H   0  0  0  0  0  0  0  0  0  0  0  0
   -3.2644  -18.9709    4.7114 H   0  0  0  0  0  0  0  0  0  0  0  0
   -3.3439  -17.3261    6.1668 H   0  0  0  0  0  0  0  0  0  0  0  0
   -3.1927  -16.1132    4.8061 H   0  0  0  0  0  0  0  0  0  0  0  0
   -5.7850  -17.3526    5.2037 H   0  0  0  0  0  0  0  0  0  0  0  0
   -5.6765  -16.8597    7.5498 H   0  0  0  0  0  0  0  0  0  0  0  0
   -4.5781  -15.4960    7.3372 H   0  0  0  0  0  0  0  0  0  0  0  0
   -7.5709  -15.5966    7.1241 H   0  0  0  0  0  0  0  0  0  0  0  0
   -6.5393  -14.1864    7.4323 H   0  0  0  0  0  0  0  0  0  0  0  0
   -7.6748  -15.1428    4.8751 H   0  0  0  0  0  0  0  0  0  0  0  0
   -6.8779  -13.5967    5.1956 H   0  0  0  0  0  0  0  0  0  0  0  0
   -5.7126  -15.4738    3.6014 H   0  0  0  0  0  0  0  0  0  0  0  0
   -4.7010  -14.4850    4.6387 H   0  0  0  0  0  0  0  0  0  0  0  0
   -0.0990  -15.7726    3.1908 H   0  0  0  0  0  0  0  0  0  0  0  0
    1.4134  -14.6314    1.5764 H   0  0  0  0  0  0  0  0  0  0  0  0
    1.4512  -15.6979   -1.8985 H   0  0  0  0  0  0  0  0  0  0  0  0
    3.2486  -11.2656   -6.2809 H   0  0  0  0  0  0  0  0  0  0  0  0
    4.7977  -12.0140   -8.0647 H   0  0  0  0  0  0  0  0  0  0  0  0
    6.2738  -14.4030   -9.6537 H   0  0  0  0  0  0  0  0  0  0  0  0
    5.7599  -12.7168   -9.2743 H   0  0  0  0  0  0  0  0  0  0  0  0
    7.8678  -13.3493  -10.9368 H   0  0  0  0  0  0  0  0  0  0  0  0
    7.7267  -11.8061  -10.0050 H   0  0  0  0  0  0  0  0  0  0  0  0
  1  2  1  0
  2  3  1  0
  3  4  1  0
  4  5  1  0
  5  6  1  0
  6  7  2  0
  7  8  1  0
  8  9  2  0
  9 10  1  0
 10 11  1  0
 11 12  2  0
 12 13  1  0
 13 14  1  0
 14 15  1  0
 14 16  2  0
 16 17  1  0
 17 18  2  0
 18 19  1  0
 19 20  2  0
 20 21  1  0
 21 22  1  0
 22 23  2  0
 22 24  1  0
 24 25  1  0
 25 26  1  0
 26 27  1  0
 27 28  1  0
 28 29  1  0
 29 30  1  0
 20 31  1  0
 31 32  2  0
 16 33  1  0
 33 34  2  0
 34 35  1  0
  9 36  1  0
 36 37  2  0
  5 38  1  0
 38 39  1  0
 39  2  1  0
 37  6  1  0
 35 10  2  0
 35 13  1  0
 32 17  1  0
 30 26  1  0
  1 40  1  0
  1 41  1  0
  1 42  1  0
  2 43  1  0
  3 44  1  0
  3 45  1  0
  4 46  1  0
  4 47  1  0
  7 48  1  0
  8 49  1  0
 11 50  1  0
 15 51  1  0
 15 52  1  0
 18 53  1  0
 19 54  1  0
 21 55  1  0
 24 56  1  0
 24 57  1  0
 25 58  1  0
 25 59  1  0
 26 60  1  0
 27 61  1  0
 27 62  1  0
 28 63  1  0
 28 64  1  0
 29 65  1  0
 29 66  1  0
 30 67  1  0
 30 68  1  0
 31 69  1  0
 32 70  1  0
 33 71  1  0
 36 72  1  0
 37 73  1  0
 38 74  1  0
 38 75  1  0
 39 76  1  0
 39 77  1  0
M  CHG  1   2   1
M  END
>  <meeko>  (4) 
{"is_sidechain": [false], "free_energy": -8.512, "intermolecular_energy": -12.264, "internal_energy": -1.124}

$$$$
LIB_NPSXOCPQKKCBFX__M_PUB_ALL__e8__s20260927
     RDKit          3D

 77 82  0  0  0  0  0  0  0  0999 V2000
   11.0770   -9.0220  -11.5470 C   0  0  0  0  0  0  0  0  0  0  0  0
   10.4680  -10.3150  -11.1320 N   0  0  0  0  0  0  0  0  0  0  0  0
   11.3730  -11.5230  -11.3340 C   0  0  0  0  0  0  0  0  0  0  0  0
   10.8150  -12.7130  -10.5130 C   0  0  0  0  0  0  0  0  0  0  0  0
    9.3510  -12.6020  -10.3540 N   0  0  0  0  0  0  0  0  0  0  0  0
    8.6920  -13.2970   -9.3520 C   0  0  0  0  0  0  0  0  0  0  0  0
    7.3040  -13.1920   -9.1720 C   0  0  0  0  0  0  0  0  0  0  0  0
    6.6320  -13.8710   -8.1440 C   0  0  0  0  0  0  0  0  0  0  0  0
    7.3320  -14.6790   -7.2450 C   0  0  0  0  0  0  0  0  0  0  0  0
    6.6260  -15.3790   -6.1840 C   0  0  0  0  0  0  0  0  0  0  0  0
    6.4950  -16.7640   -5.9520 C   0  0  0  0  0  0  0  0  0  0  0  0
    5.7500  -17.0550   -4.8880 N   0  0  0  0  0  0  0  0  0  0  0  0
    5.3720  -15.8360   -4.3980 N   0  0  0  0  0  0  0  0  0  0  0  0
    4.5470  -15.5970   -3.2640 C   0  0  0  0  0  0  0  0  0  0  0  0
    4.0790  -16.7110   -2.5960 N   0  0  0  0  0  0  0  0  0  0  0  0
    4.2720  -14.3160   -2.9350 C   0  0  0  0  0  0  0  0  0  0  0  0
    3.4340  -13.9100   -1.7970 C   0  0  0  0  0  0  0  0  0  0  0  0
    3.9770  -13.8440   -0.5110 C   0  0  0  0  0  0  0  0  0  0  0  0
    3.1830  -13.4700    0.5790 C   0  0  0  0  0  0  0  0  0  0  0  0
    1.8340  -13.1590    0.4030 C   0  0  0  0  0  0  0  0  0  0  0  0
    0.9700  -12.7730    1.4480 N   0  0  0  0  0  0  0  0  0  0  0  0
    0.2100  -13.5990    2.2630 C   0  0  0  0  0  0  0  0  0  0  0  0
    0.1320  -14.8190    2.1880 O   0  0  0  0  0  0  0  0  0  0  0  0
   -0.5840  -12.7940    3.2850 C   0  0  0  0  0  0  0  0  0  0  0  0
   -2.0930  -12.7960    3.0340 C   0  0  0  0  0  0  0  0  0  0  0  0
   -2.6160  -11.4990    2.4080 C   0  0  0  0  0  0  0  0  0  0  0  0
   -1.8600  -10.2410    2.8340 C   0  0  0  0  0  0  0  0  0  0  0  0
   -2.1410   -9.2200    1.7320 C   0  0  0  0  0  0  0  0  0  0  0  0
   -2.6520  -10.0130    0.5300 C   0  0  0  0  0  0  0  0  0  0  0  0
   -2.4500  -11.4780    0.8890 C   0  0  0  0  0  0  0  0  0  0  0  0
    1.2910  -13.2230   -0.8860 C   0  0  0  0  0  0  0  0  0  0  0  0
    2.0830  -13.5970   -1.9780 C   0  0  0  0  0  0  0  0  0  0  0  0
    4.8720  -13.2770   -3.8310 C   0  0  0  0  0  0  0  0  0  0  0  0
    5.6260  -13.4770   -4.8690 N   0  0  0  0  0  0  0  0  0  0  0  0
    5.8910  -14.7860   -5.1700 C   0  0  0  0  0  0  0  0  0  0  0  0
    8.7110  -14.7980   -7.4100 C   0  0  0  0  0  0  0  0  0  0  0  0
    9.3750  -14.1160   -8.4400 C   0  0  0  0  0  0  0  0  0  0  0  0
    8.6190  -12.0120  -11.4870 C   0  0  0  0  0  0  0  0  0  0  0  0
    9.0830  -10.5570  -11.7290 C   0  0  0  0  0  0  0  0  0  0  0  0
   11.3503   -8.4418  -10.6533 H   0  0  0  0  0  0  0  0  0  0  0  0
   11.9780   -9.2170  -12.1472 H   0  0  0  0  0  0  0  0  0  0  0  0
   10.3529   -8.4516  -12.1472 H   0  0  0  0  0  0  0  0  0  0  0  0
   10.2960  -10.2920  -10.1130 H   0  0  0  0  0  0  0  0  0  0  0  0
   11.3988  -11.7905  -12.4007 H   0  0  0  0  0  0  0  0  0  0  0  0
   12.3927  -11.2844  -10.9974 H   0  0  0  0  0  0  0  0  0  0  0  0
   11.0506  -13.6524  -11.0345 H   0  0  0  0  0  0  0  0  0  0  0  0
   11.2791  -12.7008   -9.5158 H   0  0  0  0  0  0  0  0  0  0  0  0
    6.7245  -12.5573   -9.8585 H   0  0  0  0  0  0  0  0  0  0  0  0
    5.5415  -13.7657   -8.0451 H   0  0  0  0  0  0  0  0  0  0  0  0
    6.9630  -17.5294   -6.5885 H   0  0  0  0  0  0  0  0  0  0  0  0
    3.9640  -17.5670   -3.1380 H   0  0  0  0  0  0  0  0  0  0  0  0
    3.7360  -16.6530   -1.6450 H   0  0  0  0  0  0  0  0  0  0  0  0
    5.0380  -14.0882   -0.3541 H   0  0  0  0  0  0  0  0  0  0  0  0
    3.6266  -13.4207    1.5844 H   0  0  0  0  0  0  0  0  0  0  0  0
    0.8920  -11.7780    1.6160 H   0  0  0  0  0  0  0  0  0  0  0  0
   -0.3976  -13.2193    4.2822 H   0  0  0  0  0  0  0  0  0  0  0  0
   -0.2467  -11.7502    3.2031 H   0  0  0  0  0  0  0  0  0  0  0  0
   -2.3310  -13.6291    2.3563 H   0  0  0  0  0  0  0  0  0  0  0  0
   -2.5813  -12.8990    4.0143 H   0  0  0  0  0  0  0  0  0  0  0  0
   -3.6622  -11.4884    2.7476 H   0  0  0  0  0  0  0  0  0  0  0  0
   -2.2311   -9.8762    3.8031 H   0  0  0  0  0  0  0  0  0  0  0  0
   -0.7834  -10.4281    2.9599 H   0  0  0  0  0  0  0  0  0  0  0  0
   -2.9035   -8.5006    2.0652 H   0  0  0  0  0  0  0  0  0  0  0  0
   -1.2363   -8.6485    1.4775 H   0  0  0  0  0  0  0  0  0  0  0  0
   -3.7180   -9.8037    0.3572 H   0  0  0  0  0  0  0  0  0  0  0  0
   -2.1170   -9.7429   -0.3924 H   0  0  0  0  0  0  0  0  0  0  0  0
   -3.2070  -12.1102    0.4019 H   0  0  0  0  0  0  0  0  0  0  0  0
   -1.4766  -11.8698    0.5588 H   0  0  0  0  0  0  0  0  0  0  0  0
    0.2304  -12.9767   -1.0423 H   0  0  0  0  0  0  0  0  0  0  0  0
    1.6404  -13.6450   -2.9839 H   0  0  0  0  0  0  0  0  0  0  0  0
    4.6495  -12.2288   -3.5824 H   0  0  0  0  0  0  0  0  0  0  0  0
    9.2864  -15.4357   -6.7228 H   0  0  0  0  0  0  0  0  0  0  0  0
   10.4652  -14.2266   -8.5359 H   0  0  0  0  0  0  0  0  0  0  0  0
    8.8092  -12.6084  -12.3915 H   0  0  0  0  0  0  0  0  0  0  0  0
    7.5437  -12.0099  -11.2551 H   0  0  0  0  0  0  0  0  0  0  0  0
    9.1204  -10.3672  -12.8119 H   0  0  0  0  0  0  0  0  0  0  0  0
    8.3688   -9.8769  -11.2417 H   0  0  0  0  0  0  0  0  0  0  0  0
  1  2  1  0
  2  3  1  0
  3  4  1  0
  4  5  1  0
  5  6  1  0
  6  7  2  0
  7  8  1  0
  8  9  2  0
  9 10  1  0
 10 11  1  0
 11 12  2  0
 12 13  1  0
 13 14  1  0
 14 15  1  0
 14 16  2  0
 16 17  1  0
 17 18  2  0
 18 19  1  0
 19 20  2  0
 20 21  1  0
 21 22  1  0
 22 23  2  0
 22 24  1  0
 24 25  1  0
 25 26  1  0
 26 27  1  0
 27 28  1  0
 28 29  1  0
 29 30  1  0
 20 31  1  0
 31 32  2  0
 16 33  1  0
 33 34  2  0
 34 35  1  0
  9 36  1  0
 36 37  2  0
  5 38  1  0
 38 39  1  0
 39  2  1  0
 37  6  1  0
 35 10  2  0
 35 13  1  0
 32 17  1  0
 30 26  1  0
  1 40  1  0
  1 41  1  0
  1 42  1  0
  2 43  1  0
  3 44  1  0
  3 45  1  0
  4 46  1  0
  4 47  1  0
  7 48  1  0
  8 49  1  0
 11 50  1  0
 15 51  1  0
 15 52  1  0
 18 53  1  0
 19 54  1  0
 21 55  1  0
 24 56  1  0
 24 57  1  0
 25 58  1  0
 25 59  1  0
 26 60  1  0
 27 61  1  0
 27 62  1  0
 28 63  1  0
 28 64  1  0
 29 65  1  0
 29 66  1  0
 30 67  1  0
 30 68  1  0
 31 69  1  0
 32 70  1  0
 33 71  1  0
 36 72  1  0
 37 73  1  0
 38 74  1  0
 38 75  1  0
 39 76  1  0
 39 77  1  0
M  CHG  1   2   1
M  END
>  <meeko>  (5) 
{"is_sidechain": [false], "free_energy": -8.394, "intermolecular_energy": -11.991, "internal_energy": -1.227}

$$$$
LIB_NPSXOCPQKKCBFX__M_PUB_ALL__e8__s20260927
     RDKit          3D

 77 82  0  0  0  0  0  0  0  0999 V2000
   -4.9660  -17.3170    4.7150 C   0  0  0  0  0  0  0  0  0  0  0  0
   -3.7020  -17.0040    3.9940 N   0  0  0  0  0  0  0  0  0  0  0  0
   -3.1520  -18.1610    3.1700 C   0  0  0  0  0  0  0  0  0  0  0  0
   -2.1010  -17.6120    2.1720 C   0  0  0  0  0  0  0  0  0  0  0  0
   -1.4550  -16.3950    2.7040 N   0  0  0  0  0  0  0  0  0  0  0  0
   -0.7970  -15.5150    1.8600 C   0  0  0  0  0  0  0  0  0  0  0  0
   -1.3730  -15.0770    0.6570 C   0  0  0  0  0  0  0  0  0  0  0  0
   -0.7030  -14.2060   -0.2170 C   0  0  0  0  0  0  0  0  0  0  0  0
    0.5820  -13.7460    0.0790 C   0  0  0  0  0  0  0  0  0  0  0  0
    1.2670  -12.8450   -0.8320 C   0  0  0  0  0  0  0  0  0  0  0  0
    1.1960  -11.4390   -0.9300 C   0  0  0  0  0  0  0  0  0  0  0  0
    1.9480  -10.9370   -1.9070 N   0  0  0  0  0  0  0  0  0  0  0  0
    2.5350  -12.0320   -2.4770 N   0  0  0  0  0  0  0  0  0  0  0  0
    3.4300  -12.0350   -3.5820 C   0  0  0  0  0  0  0  0  0  0  0  0
    3.7300  -10.8060   -4.1360 N   0  0  0  0  0  0  0  0  0  0  0  0
    3.9040  -13.2240   -4.0160 C   0  0  0  0  0  0  0  0  0  0  0  0
    4.8290  -13.3890   -5.1450 C   0  0  0  0  0  0  0  0  0  0  0  0
    6.0020  -14.1340   -4.9910 C   0  0  0  0  0  0  0  0  0  0  0  0
    6.8960  -14.2860   -6.0580 C   0  0  0  0  0  0  0  0  0  0  0  0
    6.6330  -13.6950   -7.2960 C   0  0  0  0  0  0  0  0  0  0  0  0
    7.4790  -13.8030   -8.4180 N   0  0  0  0  0  0  0  0  0  0  0  0
    7.6360  -14.8980   -9.2540 C   0  0  0  0  0  0  0  0  0  0  0  0
    7.0860  -15.9850   -9.1360 O   0  0  0  0  0  0  0  0  0  0  0  0
    8.6390  -14.6100  -10.3650 C   0  0  0  0  0  0  0  0  0  0  0  0
    8.1230  -13.6360  -11.4260 C   0  0  0  0  0  0  0  0  0  0  0  0
    8.2870  -12.1620  -11.0440 C   0  0  0  0  0  0  0  0  0  0  0  0
    9.1340  -11.3460  -12.0200 C   0  0  0  0  0  0  0  0  0  0  0  0
    8.7160   -9.8950  -11.7860 C   0  0  0  0  0  0  0  0  0  0  0  0
    7.3820   -9.9450  -11.0440 C   0  0  0  0  0  0  0  0  0  0  0  0
    6.9590  -11.4060  -11.0580 C   0  0  0  0  0  0  0  0  0  0  0  0
    5.4560  -12.9520   -7.4500 C   0  0  0  0  0  0  0  0  0  0  0  0
    4.5620  -12.7980   -6.3850 C   0  0  0  0  0  0  0  0  0  0  0  0
    3.4100  -14.4250   -3.2710 C   0  0  0  0  0  0  0  0  0  0  0  0
    2.5930  -14.4400   -2.2610 N   0  0  0  0  0  0  0  0  0  0  0  0
    2.1390  -13.2180   -1.8430 C   0  0  0  0  0  0  0  0  0  0  0  0
    1.1700  -14.1690    1.2710 C   0  0  0  0  0  0  0  0  0  0  0  0
    0.4930  -15.0390    2.1390 C   0  0  0  0  0  0  0  0  0  0  0  0
   -1.2590  -16.3510    4.1630 C   0  0  0  0  0  0  0  0  0  0  0  0
   -2.6210  -16.4030    4.8920 C   0  0  0  0  0  0  0  0  0  0  0  0
   -4.7897  -17.2734    5.7999 H   0  0  0  0  0  0  0  0  0  0  0  0
   -5.7371  -16.5827    4.4390 H   0  0  0  0  0  0  0  0  0  0  0  0
   -5.3053  -18.3263    4.4390 H   0  0  0  0  0  0  0  0  0  0  0  0
   -3.8870  -16.2610    3.3010 H   0  0  0  0  0  0  0  0  0  0  0  0
   -2.6789  -18.8970    3.8367 H   0  0  0  0  0  0  0  0  0  0  0  0
   -3.9701  -18.6480    2.6191 H   0  0  0  0  0  0  0  0  0  0  0  0
   -1.3335  -18.3806    1.9981 H   0  0  0  0  0  0  0  0  0  0  0  0
   -2.6096  -17.3572    1.2305 H   0  0  0  0  0  0  0  0  0  0  0  0
   -2.3812  -15.4273    0.3907 H   0  0  0  0  0  0  0  0  0  0  0  0
   -1.1959  -13.8822   -1.1456 H   0  0  0  0  0  0  0  0  0  0  0  0
    0.5791  -10.8181   -0.2637 H   0  0  0  0  0  0  0  0  0  0  0  0
    3.9450  -10.7830   -5.1330 H   0  0  0  0  0  0  0  0  0  0  0  0
    3.8650   -9.9850   -3.5600 H   0  0  0  0  0  0  0  0  0  0  0  0
    6.2248  -14.6053   -4.0224 H   0  0  0  0  0  0  0  0  0  0  0  0
    7.8139  -14.8763   -5.9200 H   0  0  0  0  0  0  0  0  0  0  0  0
    8.0400  -12.9870   -8.6310 H   0  0  0  0  0  0  0  0  0  0  0  0
    9.5448  -14.1810   -9.9117 H   0  0  0  0  0  0  0  0  0  0  0  0
    8.8349  -15.5648  -10.8750 H   0  0  0  0  0  0  0  0  0  0  0  0
    8.6757  -13.8158  -12.3599 H   0  0  0  0  0  0  0  0  0  0  0  0
    7.0440  -13.8210  -11.5330 H   0  0  0  0  0  0  0  0  0  0  0  0
    8.7541  -12.2352  -10.0508 H   0  0  0  0  0  0  0  0  0  0  0  0
   10.2051  -11.4792  -11.8077 H   0  0  0  0  0  0  0  0  0  0  0  0
    8.9793  -11.6582  -13.0634 H   0  0  0  0  0  0  0  0  0  0  0  0
    9.4706   -9.3751  -11.1775 H   0  0  0  0  0  0  0  0  0  0  0  0
    8.6237   -9.3484  -12.7361 H   0  0  0  0  0  0  0  0  0  0  0  0
    7.5047   -9.5909  -10.0098 H   0  0  0  0  0  0  0  0  0  0  0  0
    6.6285   -9.2992  -11.5185 H   0  0  0  0  0  0  0  0  0  0  0  0
    6.3583  -11.6499  -10.1694 H   0  0  0  0  0  0  0  0  0  0  0  0
    6.3296  -11.6615  -11.9232 H   0  0  0  0  0  0  0  0  0  0  0  0
    5.2317  -12.4839   -8.4198 H   0  0  0  0  0  0  0  0  0  0  0  0
    3.6435  -12.2087   -6.5232 H   0  0  0  0  0  0  0  0  0  0  0  0
    3.7793  -15.4018   -3.6167 H   0  0  0  0  0  0  0  0  0  0  0  0
    2.1780  -13.8158    1.5341 H   0  0  0  0  0  0  0  0  0  0  0  0
    0.9892  -15.3579    3.0675 H   0  0  0  0  0  0  0  0  0  0  0  0
   -0.6491  -17.2124    4.4728 H   0  0  0  0  0  0  0  0  0  0  0  0
   -0.7493  -15.4124    4.4262 H   0  0  0  0  0  0  0  0  0  0  0  0
   -2.5211  -17.0205    5.7968 H   0  0  0  0  0  0  0  0  0  0  0  0
   -2.9161  -15.3766    5.1557 H   0  0  0  0  0  0  0  0  0  0  0  0
  1  2  1  0
  2  3  1  0
  3  4  1  0
  4  5  1  0
  5  6  1  0
  6  7  2  0
  7  8  1  0
  8  9  2  0
  9 10  1  0
 10 11  1  0
 11 12  2  0
 12 13  1  0
 13 14  1  0
 14 15  1  0
 14 16  2  0
 16 17  1  0
 17 18  2  0
 18 19  1  0
 19 20  2  0
 20 21  1  0
 21 22  1  0
 22 23  2  0
 22 24  1  0
 24 25  1  0
 25 26  1  0
 26 27  1  0
 27 28  1  0
 28 29  1  0
 29 30  1  0
 20 31  1  0
 31 32  2  0
 16 33  1  0
 33 34  2  0
 34 35  1  0
  9 36  1  0
 36 37  2  0
  5 38  1  0
 38 39  1  0
 39  2  1  0
 37  6  1  0
 35 10  2  0
 35 13  1  0
 32 17  1  0
 30 26  1  0
  1 40  1  0
  1 41  1  0
  1 42  1  0
  2 43  1  0
  3 44  1  0
  3 45  1  0
  4 46  1  0
  4 47  1  0
  7 48  1  0
  8 49  1  0
 11 50  1  0
 15 51  1  0
 15 52  1  0
 18 53  1  0
 19 54  1  0
 21 55  1  0
 24 56  1  0
 24 57  1  0
 25 58  1  0
 25 59  1  0
 26 60  1  0
 27 61  1  0
 27 62  1  0
 28 63  1  0
 28 64  1  0
 29 65  1  0
 29 66  1  0
 30 67  1  0
 30 68  1  0
 31 69  1  0
 32 70  1  0
 33 71  1  0
 36 72  1  0
 37 73  1  0
 38 74  1  0
 38 75  1  0
 39 76  1  0
 39 77  1  0
M  CHG  1   2   1
M  END
>  <meeko>  (6) 
{"is_sidechain": [false], "free_energy": -8.18, "intermolecular_energy": -12.183, "internal_energy": -0.728}

$$$$
LIB_NPSXOCPQKKCBFX__M_PUB_ALL__e8__s20260927
     RDKit          3D

 77 82  0  0  0  0  0  0  0  0999 V2000
   -1.1780  -20.0950    6.0240 C   0  0  0  0  0  0  0  0  0  0  0  0
   -1.2860  -18.7080    5.4950 N   0  0  0  0  0  0  0  0  0  0  0  0
   -1.2090  -17.6260    6.5640 C   0  0  0  0  0  0  0  0  0  0  0  0
   -0.9260  -16.2640    5.8820 C   0  0  0  0  0  0  0  0  0  0  0  0
   -1.4590  -16.2440    4.5050 N   0  0  0  0  0  0  0  0  0  0  0  0
   -0.9950  -15.3240    3.5780 C   0  0  0  0  0  0  0  0  0  0  0  0
   -1.8650  -14.6530    2.7050 C   0  0  0  0  0  0  0  0  0  0  0  0
   -1.4010  -13.7400    1.7450 C   0  0  0  0  0  0  0  0  0  0  0  0
   -0.0370  -13.4690    1.6180 C   0  0  0  0  0  0  0  0  0  0  0  0
    0.4330  -12.5210    0.6210 C   0  0  0  0  0  0  0  0  0  0  0  0
    0.1240  -11.1540    0.4640 C   0  0  0  0  0  0  0  0  0  0  0  0
    0.7230  -10.5920   -0.5830 N   0  0  0  0  0  0  0  0  0  0  0  0
    1.4490  -11.6070   -1.1410 N   0  0  0  0  0  0  0  0  0  0  0  0
    2.2650  -11.5260   -2.3030 C   0  0  0  0  0  0  0  0  0  0  0  0
    2.3240  -10.2980   -2.9320 N   0  0  0  0  0  0  0  0  0  0  0  0
    2.9040  -12.6450   -2.7120 C   0  0  0  0  0  0  0  0  0  0  0  0
    3.7760  -12.7210   -3.8930 C   0  0  0  0  0  0  0  0  0  0  0  0
    3.2890  -13.2390   -5.0960 C   0  0  0  0  0  0  0  0  0  0  0  0
    4.1170  -13.3270   -6.2210 C   0  0  0  0  0  0  0  0  0  0  0  0
    5.4450  -12.9010   -6.1630 C   0  0  0  0  0  0  0  0  0  0  0  0
    6.3400  -12.9540   -7.2500 N   0  0  0  0  0  0  0  0  0  0  0  0
    6.9930  -14.0710   -7.7510 C   0  0  0  0  0  0  0  0  0  0  0  0
    6.9300  -15.2090   -7.3040 O   0  0  0  0  0  0  0  0  0  0  0  0
    7.8680  -13.7140   -8.9470 C   0  0  0  0  0  0  0  0  0  0  0  0
    7.1200  -13.7150  -10.2810 C   0  0  0  0  0  0  0  0  0  0  0  0
    7.3160  -12.4350  -11.1000 C   0  0  0  0  0  0  0  0  0  0  0  0
    6.8010  -11.1660  -10.4240 C   0  0  0  0  0  0  0  0  0  0  0  0
    7.5630  -10.0240  -11.0950 C   0  0  0  0  0  0  0  0  0  0  0  0
    8.7690  -10.6590  -11.7870 C   0  0  0  0  0  0  0  0  0  0  0  0
    8.7930  -12.1080  -11.3210 C   0  0  0  0  0  0  0  0  0  0  0  0
    5.9310  -12.3790   -4.9570 C   0  0  0  0  0  0  0  0  0  0  0  0
    5.1060  -12.2910   -3.8310 C   0  0  0  0  0  0  0  0  0  0  0  0
    2.6610  -13.8660   -1.8810 C   0  0  0  0  0  0  0  0  0  0  0  0
    1.9200  -13.9580   -0.8180 N   0  0  0  0  0  0  0  0  0  0  0  0
    1.2940  -12.8040   -0.4270 C   0  0  0  0  0  0  0  0  0  0  0  0
    0.8430  -14.1250    2.4780 C   0  0  0  0  0  0  0  0  0  0  0  0
    0.3710  -15.0360    3.4340 C   0  0  0  0  0  0  0  0  0  0  0  0
   -2.7060  -16.9950    4.2810 C   0  0  0  0  0  0  0  0  0  0  0  0
   -2.4910  -18.4970    4.5800 C   0  0  0  0  0  0  0  0  0  0  0  0
   -1.1800  -20.0692    7.1237 H   0  0  0  0  0  0  0  0  0  0  0  0
   -2.0325  -20.6902    5.6696 H   0  0  0  0  0  0  0  0  0  0  0  0
   -0.2417  -20.5507    5.6696 H   0  0  0  0  0  0  0  0  0  0  0  0
   -0.4760  -18.5190    4.8820 H   0  0  0  0  0  0  0  0  0  0  0  0
   -2.1642  -17.5753    7.1072 H   0  0  0  0  0  0  0  0  0  0  0  0
   -0.4026  -17.8612    7.2741 H   0  0  0  0  0  0  0  0  0  0  0  0
   -1.4040  -15.4630    6.4650 H   0  0  0  0  0  0  0  0  0  0  0  0
    0.1625  -16.1111    5.8400 H   0  0  0  0  0  0  0  0  0  0  0  0
   -2.9452  -14.8487    2.7752 H   0  0  0  0  0  0  0  0  0  0  0  0
   -2.1200  -13.2323    1.0853 H   0  0  0  0  0  0  0  0  0  0  0  0
   -0.5471  -10.6055    1.1413 H   0  0  0  0  0  0  0  0  0  0  0  0
    1.4590   -9.9380   -3.3350 H   0  0  0  0  0  0  0  0  0  0  0  0
    3.2060   -9.8350   -3.1060 H   0  0  0  0  0  0  0  0  0  0  0  0
    2.2454  -13.5807   -5.1594 H   0  0  0  0  0  0  0  0  0  0  0  0
    3.7171  -13.7361   -7.1605 H   0  0  0  0  0  0  0  0  0  0  0  0
    6.5310  -12.0740   -7.7120 H   0  0  0  0  0  0  0  0  0  0  0  0
    8.2851  -12.7093   -8.7840 H   0  0  0  0  0  0  0  0  0  0  0  0
    8.6474  -14.4872   -9.0160 H   0  0  0  0  0  0  0  0  0  0  0  0
    7.4768  -14.5671  -10.8782 H   0  0  0  0  0  0  0  0  0  0  0  0
    6.0474  -13.7850  -10.0472 H   0  0  0  0  0  0  0  0  0  0  0  0
    6.7616  -12.6667  -12.0214 H   0  0  0  0  0  0  0  0  0  0  0  0
    5.7183  -11.0549  -10.5837 H   0  0  0  0  0  0  0  0  0  0  0  0
    6.9583  -11.1845   -9.3355 H   0  0  0  0  0  0  0  0  0  0  0  0
    6.9217   -9.5208  -11.8336 H   0  0  0  0  0  0  0  0  0  0  0  0
    7.8768   -9.2677  -10.3604 H   0  0  0  0  0  0  0  0  0  0  0  0
    8.6547  -10.6091  -12.8799 H   0  0  0  0  0  0  0  0  0  0  0  0
    9.7037  -10.1357  -11.5369 H   0  0  0  0  0  0  0  0  0  0  0  0
    9.2297  -12.7615  -12.0905 H   0  0  0  0  0  0  0  0  0  0  0  0
    9.4052  -12.2586  -10.4196 H   0  0  0  0  0  0  0  0  0  0  0  0
    6.9738  -12.0343   -4.8950 H   0  0  0  0  0  0  0  0  0  0  0  0
    5.5051  -11.8814   -2.8913 H   0  0  0  0  0  0  0  0  0  0  0  0
    3.1658  -14.7875   -2.2065 H   0  0  0  0  0  0  0  0  0  0  0  0
    1.9223  -13.9252    2.4056 H   0  0  0  0  0  0  0  0  0  0  0  0
    1.0941  -15.5407    4.0916 H   0  0  0  0  0  0  0  0  0  0  0  0
   -3.4902  -16.6018    4.9446 H   0  0  0  0  0  0  0  0  0  0  0  0
   -3.0083  -16.8799    3.2296 H   0  0  0  0  0  0  0  0  0  0  0  0
   -3.3898  -18.8979    5.0713 H   0  0  0  0  0  0  0  0  0  0  0  0
   -2.3044  -19.0194    3.6301 H   0  0  0  0  0  0  0  0  0  0  0  0
  1  2  1  0
  2  3  1  0
  3  4  1  0
  4  5  1  0
  5  6  1  0
  6  7  2  0
  7  8  1  0
  8  9  2  0
  9 10  1  0
 10 11  1  0
 11 12  2  0
 12 13  1  0
 13 14  1  0
 14 15  1  0
 14 16  2  0
 16 17  1  0
 17 18  2  0
 18 19  1  0
 19 20  2  0
 20 21  1  0
 21 22  1  0
 22 23  2  0
 22 24  1  0
 24 25  1  0
 25 26  1  0
 26 27  1  0
 27 28  1  0
 28 29  1  0
 29 30  1  0
 20 31  1  0
 31 32  2  0
 16 33  1  0
 33 34  2  0
 34 35  1  0
  9 36  1  0
 36 37  2  0
  5 38  1  0
 38 39  1  0
 39  2  1  0
 37  6  1  0
 35 10  2  0
 35 13  1  0
 32 17  1  0
 30 26  1  0
  1 40  1  0
  1 41  1  0
  1 42  1  0
  2 43  1  0
  3 44  1  0
  3 45  1  0
  4 46  1  0
  4 47  1  0
  7 48  1  0
  8 49  1  0
 11 50  1  0
 15 51  1  0
 15 52  1  0
 18 53  1  0
 19 54  1  0
 21 55  1  0
 24 56  1  0
 24 57  1  0
 25 58  1  0
 25 59  1  0
 26 60  1  0
 27 61  1  0
 27 62  1  0
 28 63  1  0
 28 64  1  0
 29 65  1  0
 29 66  1  0
 30 67  1  0
 30 68  1  0
 31 69  1  0
 32 70  1  0
 33 71  1  0
 36 72  1  0
 37 73  1  0
 38 74  1  0
 38 75  1  0
 39 76  1  0
 39 77  1  0
M  CHG  1   2   1
M  END
>  <meeko>  (7) 
{"is_sidechain": [false], "free_energy": -8.156, "intermolecular_energy": -11.756, "internal_energy": -1.12}

$$$$
LIB_NPSXOCPQKKCBFX__M_PUB_ALL__e8__s20260927
     RDKit          3D

 77 82  0  0  0  0  0  0  0  0999 V2000
   13.2830  -16.0010   -8.0310 C   0  0  0  0  0  0  0  0  0  0  0  0
   13.0290  -15.6380   -6.6100 N   0  0  0  0  0  0  0  0  0  0  0  0
   14.1560  -14.8480   -5.9570 C   0  0  0  0  0  0  0  0  0  0  0  0
   13.6250  -14.1930   -4.6580 C   0  0  0  0  0  0  0  0  0  0  0  0
   12.5240  -14.9890   -4.0780 N   0  0  0  0  0  0  0  0  0  0  0  0
   11.6400  -14.4240   -3.1730 C   0  0  0  0  0  0  0  0  0  0  0  0
   11.3490  -15.0380   -1.9450 C   0  0  0  0  0  0  0  0  0  0  0  0
   10.4350  -14.4850   -1.0330 C   0  0  0  0  0  0  0  0  0  0  0  0
    9.7660  -13.2950   -1.3250 C   0  0  0  0  0  0  0  0  0  0  0  0
    8.8220  -12.7310   -0.3740 C   0  0  0  0  0  0  0  0  0  0  0  0
    9.0230  -11.7500    0.6190 C   0  0  0  0  0  0  0  0  0  0  0  0
    7.9320  -11.4880    1.3340 N   0  0  0  0  0  0  0  0  0  0  0  0
    6.9780  -12.3140    0.8070 N   0  0  0  0  0  0  0  0  0  0  0  0
    5.6260  -12.4270    1.2340 C   0  0  0  0  0  0  0  0  0  0  0  0
    5.2420  -11.6250    2.2900 N   0  0  0  0  0  0  0  0  0  0  0  0
    4.8280  -13.3110    0.5950 C   0  0  0  0  0  0  0  0  0  0  0  0
    3.4140  -13.5450    0.9220 C   0  0  0  0  0  0  0  0  0  0  0  0
    3.0450  -14.6410    1.7070 C   0  0  0  0  0  0  0  0  0  0  0  0
    1.7000  -14.8780    2.0120 C   0  0  0  0  0  0  0  0  0  0  0  0
    0.7020  -14.0260    1.5380 C   0  0  0  0  0  0  0  0  0  0  0  0
   -0.6730  -14.1940    1.8020 N   0  0  0  0  0  0  0  0  0  0  0  0
   -1.4120  -13.6200    2.8260 C   0  0  0  0  0  0  0  0  0  0  0  0
   -0.9810  -12.8880    3.7080 O   0  0  0  0  0  0  0  0  0  0  0  0
   -2.8740  -14.0430    2.7600 C   0  0  0  0  0  0  0  0  0  0  0  0
   -3.8260  -12.9140    2.3590 C   0  0  0  0  0  0  0  0  0  0  0  0
   -3.4950  -12.2790    1.0050 C   0  0  0  0  0  0  0  0  0  0  0  0
   -4.7160  -11.9110    0.1630 C   0  0  0  0  0  0  0  0  0  0  0  0
   -4.2170  -10.8430   -0.8090 C   0  0  0  0  0  0  0  0  0  0  0  0
   -2.9030  -10.3170   -0.2340 C   0  0  0  0  0  0  0  0  0  0  0  0
   -2.7860  -10.9330    1.1520 C   0  0  0  0  0  0  0  0  0  0  0  0
    1.0730  -12.9260    0.7540 C   0  0  0  0  0  0  0  0  0  0  0  0
    2.4170  -12.6870    0.4460 C   0  0  0  0  0  0  0  0  0  0  0  0
    5.4810  -14.0920   -0.5040 C   0  0  0  0  0  0  0  0  0  0  0  0
    6.7130  -14.0010   -0.9050 N   0  0  0  0  0  0  0  0  0  0  0  0
    7.4910  -13.0900   -0.2410 C   0  0  0  0  0  0  0  0  0  0  0  0
   10.0440  -12.6690   -2.5400 C   0  0  0  0  0  0  0  0  0  0  0  0
   10.9590  -13.2280   -3.4450 C   0  0  0  0  0  0  0  0  0  0  0  0
   12.6250  -16.4490   -4.2430 C   0  0  0  0  0  0  0  0  0  0  0  0
   12.6120  -16.8250   -5.7420 C   0  0  0  0  0  0  0  0  0  0  0  0
   13.9132  -16.9016   -8.0724 H   0  0  0  0  0  0  0  0  0  0  0  0
   12.3259  -16.1997   -8.5354 H   0  0  0  0  0  0  0  0  0  0  0  0
   13.7976  -15.1699   -8.5354 H   0  0  0  0  0  0  0  0  0  0  0  0
   12.2140  -15.0040   -6.5660 H   0  0  0  0  0  0  0  0  0  0  0  0
   14.9888  -15.5247   -5.7151 H   0  0  0  0  0  0  0  0  0  0  0  0
   14.5127  -14.0693   -6.6472 H   0  0  0  0  0  0  0  0  0  0  0  0
   14.4446  -14.1260   -3.9274 H   0  0  0  0  0  0  0  0  0  0  0  0
   13.2436  -13.1902   -4.9007 H   0  0  0  0  0  0  0  0  0  0  0  0
   11.8525  -15.9818   -1.6887 H   0  0  0  0  0  0  0  0  0  0  0  0
   10.2441  -14.9955   -0.0775 H   0  0  0  0  0  0  0  0  0  0  0  0
    9.9883  -11.2498    0.7862 H   0  0  0  0  0  0  0  0  0  0  0  0
    5.3890  -11.9890    3.2310 H   0  0  0  0  0  0  0  0  0  0  0  0
    4.7170  -10.7720    2.1430 H   0  0  0  0  0  0  0  0  0  0  0  0
    3.8188  -15.3234    2.0885 H   0  0  0  0  0  0  0  0  0  0  0  0
    1.4268  -15.7448    2.6317 H   0  0  0  0  0  0  0  0  0  0  0  0
   -1.1740  -14.8110    1.1740 H   0  0  0  0  0  0  0  0  0  0  0  0
   -2.9675  -14.8539    2.0226 H   0  0  0  0  0  0  0  0  0  0  0  0
   -3.1618  -14.3602    3.7732 H   0  0  0  0  0  0  0  0  0  0  0  0
   -4.8466  -13.3214    2.3109 H   0  0  0  0  0  0  0  0  0  0  0  0
   -3.7239  -12.1238    3.1174 H   0  0  0  0  0  0  0  0  0  0  0  0
   -2.8849  -13.0614    0.5300 H   0  0  0  0  0  0  0  0  0  0  0  0
   -5.0872  -12.7897   -0.3849 H   0  0  0  0  0  0  0  0  0  0  0  0
   -5.5513  -11.5501    0.7811 H   0  0  0  0  0  0  0  0  0  0  0  0
   -4.0484  -11.2823   -1.8033 H   0  0  0  0  0  0  0  0  0  0  0  0
   -4.9535  -10.0343   -0.9255 H   0  0  0  0  0  0  0  0  0  0  0  0
   -2.0567  -10.6272   -0.8645 H   0  0  0  0  0  0  0  0  0  0  0  0
   -2.8882   -9.2179   -0.1930 H   0  0  0  0  0  0  0  0  0  0  0  0
   -1.7316  -11.0726    1.4325 H   0  0  0  0  0  0  0  0  0  0  0  0
   -3.2235  -10.3020    1.9397 H   0  0  0  0  0  0  0  0  0  0  0  0
    0.2988  -12.2421    0.3760 H   0  0  0  0  0  0  0  0  0  0  0  0
    2.6908  -11.8202   -0.1734 H   0  0  0  0  0  0  0  0  0  0  0  0
    4.8478  -14.8225   -1.0288 H   0  0  0  0  0  0  0  0  0  0  0  0
    9.5393  -11.7247   -2.7920 H   0  0  0  0  0  0  0  0  0  0  0  0
   11.1484  -12.7122   -4.3979 H   0  0  0  0  0  0  0  0  0  0  0  0
   13.5634  -16.8008   -3.7894 H   0  0  0  0  0  0  0  0  0  0  0  0
   11.7645  -16.9239   -3.7490 H   0  0  0  0  0  0  0  0  0  0  0  0
   13.3122  -17.6566   -5.9100 H   0  0  0  0  0  0  0  0  0  0  0  0
   11.5891  -17.1191   -6.0199 H   0  0  0  0  0  0  0  0  0  0  0  0
  1  2  1  0
  2  3  1  0
  3  4  1  0
  4  5  1  0
  5  6  1  0
  6  7  2  0
  7  8  1  0
  8  9  2  0
  9 10  1  0
 10 11  1  0
 11 12  2  0
 12 13  1  0
 13 14  1  0
 14 15  1  0
 14 16  2  0
 16 17  1  0
 17 18  2  0
 18 19  1  0
 19 20  2  0
 20 21  1  0
 21 22  1  0
 22 23  2  0
 22 24  1  0
 24 25  1  0
 25 26  1  0
 26 27  1  0
 27 28  1  0
 28 29  1  0
 29 30  1  0
 20 31  1  0
 31 32  2  0
 16 33  1  0
 33 34  2  0
 34 35  1  0
  9 36  1  0
 36 37  2  0
  5 38  1  0
 38 39  1  0
 39  2  1  0
 37  6  1  0
 35 10  2  0
 35 13  1  0
 32 17  1  0
 30 26  1  0
  1 40  1  0
  1 41  1  0
  1 42  1  0
  2 43  1  0
  3 44  1  0
  3 45  1  0
  4 46  1  0
  4 47  1  0
  7 48  1  0
  8 49  1  0
 11 50  1  0
 15 51  1  0
 15 52  1  0
 18 53  1  0
 19 54  1  0
 21 55  1  0
 24 56  1  0
 24 57  1  0
 25 58  1  0
 25 59  1  0
 26 60  1  0
 27 61  1  0
 27 62  1  0
 28 63  1  0
 28 64  1  0
 29 65  1  0
 29 66  1  0
 30 67  1  0
 30 68  1  0
 31 69  1  0
 32 70  1  0
 33 71  1  0
 36 72  1  0
 37 73  1  0
 38 74  1  0
 38 75  1  0
 39 76  1  0
 39 77  1  0
M  CHG  1   2   1
M  END
>  <meeko>  (8) 
{"is_sidechain": [false], "free_energy": -8.148, "intermolecular_energy": -11.735, "internal_energy": -1.13}

$$$$
LIB_NPSXOCPQKKCBFX__M_PUB_ALL__e8__s20260927
     RDKit          3D

 77 82  0  0  0  0  0  0  0  0999 V2000
   14.9380  -14.1380  -10.2620 C   0  0  0  0  0  0  0  0  0  0  0  0
   14.4020  -14.5140   -8.9250 N   0  0  0  0  0  0  0  0  0  0  0  0
   15.3850  -15.2820   -8.0530 C   0  0  0  0  0  0  0  0  0  0  0  0
   14.8820  -15.2580   -6.5870 C   0  0  0  0  0  0  0  0  0  0  0  0
   13.4100  -15.1440   -6.5370 N   0  0  0  0  0  0  0  0  0  0  0  0
   12.7720  -14.7080   -5.3870 C   0  0  0  0  0  0  0  0  0  0  0  0
   13.0940  -15.2270   -4.1230 C   0  0  0  0  0  0  0  0  0  0  0  0
   12.4330  -14.8100   -2.9570 C   0  0  0  0  0  0  0  0  0  0  0  0
   11.4130  -13.8590   -3.0140 C   0  0  0  0  0  0  0  0  0  0  0  0
   10.7360  -13.4340   -1.8000 C   0  0  0  0  0  0  0  0  0  0  0  0
   11.2750  -12.9110   -0.6060 C   0  0  0  0  0  0  0  0  0  0  0  0
   10.3560  -12.6490    0.3210 N   0  0  0  0  0  0  0  0  0  0  0  0
    9.1740  -13.0050   -0.2670 N   0  0  0  0  0  0  0  0  0  0  0  0
    7.8800  -12.9300    0.3180 C   0  0  0  0  0  0  0  0  0  0  0  0
    7.8150  -12.4530    1.6120 N   0  0  0  0  0  0  0  0  0  0  0  0
    6.8230  -13.3400   -0.4180 C   0  0  0  0  0  0  0  0  0  0  0  0
    5.4290  -13.3270    0.0480 C   0  0  0  0  0  0  0  0  0  0  0  0
    4.6110  -12.2230   -0.2080 C   0  0  0  0  0  0  0  0  0  0  0  0
    3.2860  -12.1980    0.2430 C   0  0  0  0  0  0  0  0  0  0  0  0
    2.7580  -13.2740    0.9590 C   0  0  0  0  0  0  0  0  0  0  0  0
    1.4360  -13.3260    1.4450 N   0  0  0  0  0  0  0  0  0  0  0  0
    0.2900  -13.6630    0.7400 C   0  0  0  0  0  0  0  0  0  0  0  0
    0.2270  -13.9400   -0.4520 O   0  0  0  0  0  0  0  0  0  0  0  0
   -0.9460  -13.6130    1.6300 C   0  0  0  0  0  0  0  0  0  0  0  0
   -2.1240  -12.8590    1.0100 C   0  0  0  0  0  0  0  0  0  0  0  0
   -2.4560  -11.5430    1.7200 C   0  0  0  0  0  0  0  0  0  0  0  0
   -1.5850  -11.2440    2.9390 C   0  0  0  0  0  0  0  0  0  0  0  0
   -1.6820   -9.7310    3.1320 C   0  0  0  0  0  0  0  0  0  0  0  0
   -2.2100   -9.1620    1.8160 C   0  0  0  0  0  0  0  0  0  0  0  0
   -2.2000  -10.3240    0.8330 C   0  0  0  0  0  0  0  0  0  0  0  0
    3.5770  -14.3810    1.2120 C   0  0  0  0  0  0  0  0  0  0  0  0
    4.9030  -14.4080    0.7630 C   0  0  0  0  0  0  0  0  0  0  0  0
    7.1500  -13.8460   -1.7890 C   0  0  0  0  0  0  0  0  0  0  0  0
    8.3240  -13.9210   -2.3380 N   0  0  0  0  0  0  0  0  0  0  0  0
    9.3710  -13.4910   -1.5680 C   0  0  0  0  0  0  0  0  0  0  0  0
   11.0810  -13.3310   -4.2610 C   0  0  0  0  0  0  0  0  0  0  0  0
   11.7450  -13.7530   -5.4220 C   0  0  0  0  0  0  0  0  0  0  0  0
   12.6710  -15.8230   -7.6150 C   0  0  0  0  0  0  0  0  0  0  0  0
   13.0490  -15.2210   -8.9890 C   0  0  0  0  0  0  0  0  0  0  0  0
   15.8325  -13.5105  -10.1352 H   0  0  0  0  0  0  0  0  0  0  0  0
   15.2046  -15.0481  -10.8194 H   0  0  0  0  0  0  0  0  0  0  0  0
   14.1730  -13.5776  -10.8194 H   0  0  0  0  0  0  0  0  0  0  0  0
   14.2030  -13.6530   -8.3900 H   0  0  0  0  0  0  0  0  0  0  0  0
   15.4536  -16.3227   -8.4027 H   0  0  0  0  0  0  0  0  0  0  0  0
   16.3794  -14.8155   -8.1132 H   0  0  0  0  0  0  0  0  0  0  0  0
   15.1885  -16.1879   -6.0857 H   0  0  0  0  0  0  0  0  0  0  0  0
   15.3197  -14.3858   -6.0793 H   0  0  0  0  0  0  0  0  0  0  0  0
   13.8886  -15.9836   -4.0439 H   0  0  0  0  0  0  0  0  0  0  0  0
   12.7226  -15.2382   -1.9860 H   0  0  0  0  0  0  0  0  0  0  0  0
   12.3506  -12.7365   -0.4554 H   0  0  0  0  0  0  0  0  0  0  0  0
    7.1370  -11.7160    1.8040 H   0  0  0  0  0  0  0  0  0  0  0  0
    8.4950  -12.7240    2.3110 H   0  0  0  0  0  0  0  0  0  0  0  0
    5.0120  -11.3660   -0.7690 H   0  0  0  0  0  0  0  0  0  0  0  0
    2.6549  -11.3223    0.0313 H   0  0  0  0  0  0  0  0  0  0  0  0
    1.3110  -13.0830    2.4200 H   0  0  0  0  0  0  0  0  0  0  0  0
   -1.2656  -14.6448    1.8378 H   0  0  0  0  0  0  0  0  0  0  0  0
   -0.6617  -13.0681    2.5423 H   0  0  0  0  0  0  0  0  0  0  0  0
   -1.8797  -12.6355   -0.0390 H   0  0  0  0  0  0  0  0  0  0  0  0
   -3.0071  -13.5077    1.1066 H   0  0  0  0  0  0  0  0  0  0  0  0
   -3.5116  -11.6909    1.9918 H   0  0  0  0  0  0  0  0  0  0  0  0
   -1.9660  -11.7722    3.8255 H   0  0  0  0  0  0  0  0  0  0  0  0
   -0.5463  -11.5769    2.7967 H   0  0  0  0  0  0  0  0  0  0  0  0
   -2.3747   -9.4958    3.9535 H   0  0  0  0  0  0  0  0  0  0  0  0
   -0.7043   -9.2981    3.3902 H   0  0  0  0  0  0  0  0  0  0  0  0
   -3.2327   -8.7786    1.9466 H   0  0  0  0  0  0  0  0  0  0  0  0
   -1.5944   -8.3229    1.4598 H   0  0  0  0  0  0  0  0  0  0  0  0
   -2.9953  -10.2104    0.0816 H   0  0  0  0  0  0  0  0  0  0  0  0
   -1.2610  -10.3968    0.2647 H   0  0  0  0  0  0  0  0  0  0  0  0
    3.1742  -15.2392    1.7698 H   0  0  0  0  0  0  0  0  0  0  0  0
    5.5343  -15.2838    0.9736 H   0  0  0  0  0  0  0  0  0  0  0  0
    6.3019  -14.1923   -2.3980 H   0  0  0  0  0  0  0  0  0  0  0  0
   10.2873  -12.5730   -4.3352 H   0  0  0  0  0  0  0  0  0  0  0  0
   11.4513  -13.3217   -6.3903 H   0  0  0  0  0  0  0  0  0  0  0  0
   12.9212  -16.8941   -7.6072 H   0  0  0  0  0  0  0  0  0  0  0  0
   11.5922  -15.6860   -7.4497 H   0  0  0  0  0  0  0  0  0  0  0  0
   13.1005  -16.0290   -9.7336 H   0  0  0  0  0  0  0  0  0  0  0  0
   12.2823  -14.4844   -9.2711 H   0  0  0  0  0  0  0  0  0  0  0  0
  1  2  1  0
  2  3  1  0
  3  4  1  0
  4  5  1  0
  5  6  1  0
  6  7  2  0
  7  8  1  0
  8  9  2  0
  9 10  1  0
 10 11  1  0
 11 12  2  0
 12 13  1  0
 13 14  1  0
 14 15  1  0
 14 16  2  0
 16 17  1  0
 17 18  2  0
 18 19  1  0
 19 20  2  0
 20 21  1  0
 21 22  1  0
 22 23  2  0
 22 24  1  0
 24 25  1  0
 25 26  1  0
 26 27  1  0
 27 28  1  0
 28 29  1  0
 29 30  1  0
 20 31  1  0
 31 32  2  0
 16 33  1  0
 33 34  2  0
 34 35  1  0
  9 36  1  0
 36 37  2  0
  5 38  1  0
 38 39  1  0
 39  2  1  0
 37  6  1  0
 35 10  2  0
 35 13  1  0
 32 17  1  0
 30 26  1  0
  1 40  1  0
  1 41  1  0
  1 42  1  0
  2 43  1  0
  3 44  1  0
  3 45  1  0
  4 46  1  0
  4 47  1  0
  7 48  1  0
  8 49  1  0
 11 50  1  0
 15 51  1  0
 15 52  1  0
 18 53  1  0
 19 54  1  0
 21 55  1  0
 24 56  1  0
 24 57  1  0
 25 58  1  0
 25 59  1  0
 26 60  1  0
 27 61  1  0
 27 62  1  0
 28 63  1  0
 28 64  1  0
 29 65  1  0
 29 66  1  0
 30 67  1  0
 30 68  1  0
 31 69  1  0
 32 70  1  0
 33 71  1  0
 36 72  1  0
 37 73  1  0
 38 74  1  0
 38 75  1  0
 39 76  1  0
 39 77  1  0
M  CHG  1   2   1
M  END
>  <meeko>  (9) 
{"is_sidechain": [false], "free_energy": -8.103, "intermolecular_energy": -11.713, "internal_energy": -1.087}

$$$$
