LIB_HFNYDUGXJCRIRE__M_PUB_ALL__e8__s20260927
     RDKit          3D

 56 59  0  0  0  0  0  0  0  0999 V2000
   17.9730   -9.1220   12.7790 C   0  0  0  0  0  0  0  0  0  0  0  0
   16.5350   -8.9950   12.3630 C   0  0  0  0  0  0  0  0  0  0  0  0
   15.6820  -10.1030   12.5360 C   0  0  0  0  0  0  0  0  0  0  0  0
   14.3320  -10.0890   12.1320 C   0  0  0  0  0  0  0  0  0  0  0  0
   13.4780  -11.2810   12.3230 C   0  0  0  0  0  0  0  0  0  0  0  0
   13.7390  -12.4940   11.7200 C   0  0  0  0  0  0  0  0  0  0  0  0
   12.8560  -13.5040   11.9970 C   0  0  0  0  0  0  0  0  0  0  0  0
   11.7880  -13.3570   12.7990 N   0  0  0  0  0  0  0  0  0  0  0  0
   11.5960  -12.1540   13.3540 C   0  0  0  0  0  0  0  0  0  0  0  0
   10.5230  -11.8890   14.1980 N   0  0  0  0  0  0  0  0  0  0  0  0
    9.5580  -10.8810   14.2610 C   0  0  0  0  0  0  0  0  0  0  0  0
    8.2560  -11.2180   14.6460 C   0  0  0  0  0  0  0  0  0  0  0  0
    7.2420  -10.2510   14.7270 C   0  0  0  0  0  0  0  0  0  0  0  0
    7.4790   -8.9050   14.4230 C   0  0  0  0  0  0  0  0  0  0  0  0
    6.4600   -7.9630   14.5180 N   0  0  0  0  0  0  0  0  0  0  0  0
    6.5670   -6.6760   13.8080 C   0  0  0  0  0  0  0  0  0  0  0  0
    5.5930   -5.6500   14.4060 C   0  0  0  0  0  0  0  0  0  0  0  0
    4.2450   -6.1440   14.4200 O   0  0  0  0  0  0  0  0  0  0  0  0
    4.1730   -7.3310   15.2230 C   0  0  0  0  0  0  0  0  0  0  0  0
    5.0750   -8.4480   14.6760 C   0  0  0  0  0  0  0  0  0  0  0  0
    8.7870   -8.5750   14.0530 C   0  0  0  0  0  0  0  0  0  0  0  0
    9.8040   -9.5410   13.9680 C   0  0  0  0  0  0  0  0  0  0  0  0
   12.4150  -11.1090   13.1420 N   0  0  0  0  0  0  0  0  0  0  0  0
   13.8430   -8.9090   11.5480 C   0  0  0  0  0  0  0  0  0  0  0  0
   14.6640   -7.7900   11.3840 C   0  0  0  0  0  0  0  0  0  0  0  0
   15.9990   -7.8220   11.8080 C   0  0  0  0  0  0  0  0  0  0  0  0
   16.7810   -6.5760   11.6260 C   0  0  0  0  0  0  0  0  0  0  0  0
   17.2310   -6.2750   10.5280 O   0  0  0  0  0  0  0  0  0  0  0  0
   16.9000   -5.7780   12.7380 N   0  0  0  0  0  0  0  0  0  0  0  0
   17.6240   -4.5240   12.6640 C   0  0  0  0  0  0  0  0  0  0  0  0
   16.8610   -3.4140   13.2520 C   0  0  0  0  0  0  0  0  0  0  0  0
   16.2320   -2.5580   13.7210 N   0  0  0  0  0  0  0  0  0  0  0  0
   18.0379   -9.1277   13.8771 H   0  0  0  0  0  0  0  0  0  0  0  0
   18.3880  -10.0603   12.3823 H   0  0  0  0  0  0  0  0  0  0  0  0
   18.5460   -8.2710   12.3823 H   0  0  0  0  0  0  0  0  0  0  0  0
   16.0850  -11.0132   13.0040 H   0  0  0  0  0  0  0  0  0  0  0  0
   14.6041  -12.6413   11.0567 H   0  0  0  0  0  0  0  0  0  0  0  0
   13.0307  -14.4884   11.5382 H   0  0  0  0  0  0  0  0  0  0  0  0
   10.4760  -12.6100   14.9020 H   0  0  0  0  0  0  0  0  0  0  0  0
    8.0216  -12.2645   14.8908 H   0  0  0  0  0  0  0  0  0  0  0  0
    6.2329  -10.5592   15.0380 H   0  0  0  0  0  0  0  0  0  0  0  0
    7.5951   -6.2959   13.9003 H   0  0  0  0  0  0  0  0  0  0  0  0
    6.3143   -6.8316   12.7488 H   0  0  0  0  0  0  0  0  0  0  0  0
    5.9011   -5.4250   15.4377 H   0  0  0  0  0  0  0  0  0  0  0  0
    5.6206   -4.7455   13.7806 H   0  0  0  0  0  0  0  0  0  0  0  0
    4.4905   -7.0871   16.2475 H   0  0  0  0  0  0  0  0  0  0  0  0
    3.1341   -7.6922   15.2053 H   0  0  0  0  0  0  0  0  0  0  0  0
    5.0661   -9.2961   15.3764 H   0  0  0  0  0  0  0  0  0  0  0  0
    4.6943   -8.7637   13.6935 H   0  0  0  0  0  0  0  0  0  0  0  0
    9.0269   -7.5268   13.8214 H   0  0  0  0  0  0  0  0  0  0  0  0
   10.8153   -9.2330   13.6639 H   0  0  0  0  0  0  0  0  0  0  0  0
   12.7959   -8.8648   11.2140 H   0  0  0  0  0  0  0  0  0  0  0  0
   14.2597   -6.8787   10.9193 H   0  0  0  0  0  0  0  0  0  0  0  0
   16.4150   -6.0260   13.5920 H   0  0  0  0  0  0  0  0  0  0  0  0
   18.5742   -4.6296   13.2080 H   0  0  0  0  0  0  0  0  0  0  0  0
   17.7976   -4.2932   11.6026 H   0  0  0  0  0  0  0  0  0  0  0  0
  1  2  1  0
  2  3  2  0
  3  4  1  0
  4  5  1  0
  5  6  2  0
  6  7  1  0
  7  8  2  0
  8  9  1  0
  9 10  1  0
 10 11  1  0
 11 12  2  0
 12 13  1  0
 13 14  2  0
 14 15  1  0
 15 16  1  0
 16 17  1  0
 17 18  1  0
 18 19  1  0
 19 20  1  0
 14 21  1  0
 21 22  2  0
  9 23  2  0
  4 24  2  0
 24 25  1  0
 25 26  2  0
 26 27  1  0
 27 28  2  0
 27 29  1  0
 29 30  1  0
 30 31  1  0
 31 32  3  0
 26  2  1  0
 23  5  1  0
 22 11  1  0
 20 15  1  0
  1 33  1  0
  1 34  1  0
  1 35  1  0
  3 36  1  0
  6 37  1  0
  7 38  1  0
 10 39  1  0
 12 40  1  0
 13 41  1  0
 16 42  1  0
 16 43  1  0
 17 44  1  0
 17 45  1  0
 19 46  1  0
 19 47  1  0
 20 48  1  0
 20 49  1  0
 21 50  1  0
 22 51  1  0
 24 52  1  0
 25 53  1  0
 29 54  1  0
 30 55  1  0
 30 56  1  0
M  END
>  <meeko>  (1) 
{"is_sidechain": [false], "free_energy": -8.493, "intermolecular_energy": -11.473, "internal_energy": -0.635}

$$$$
LIB_HFNYDUGXJCRIRE__M_PUB_ALL__e8__s20260927
     RDKit          3D

 56 59  0  0  0  0  0  0  0  0999 V2000
   16.2740   -6.2110   11.2420 C   0  0  0  0  0  0  0  0  0  0  0  0
   16.5250   -7.5930   11.7770 C   0  0  0  0  0  0  0  0  0  0  0  0
   15.4360   -8.4760   11.9010 C   0  0  0  0  0  0  0  0  0  0  0  0
   15.5700   -9.7740   12.4350 C   0  0  0  0  0  0  0  0  0  0  0  0
   14.3940  -10.6620   12.5580 C   0  0  0  0  0  0  0  0  0  0  0  0
   14.2290  -11.7970   11.7930 C   0  0  0  0  0  0  0  0  0  0  0  0
   13.0870  -12.5170   12.0250 C   0  0  0  0  0  0  0  0  0  0  0  0
   12.1610  -12.1670   12.9340 N   0  0  0  0  0  0  0  0  0  0  0  0
   12.3860  -11.0550   13.6450 C   0  0  0  0  0  0  0  0  0  0  0  0
   11.4950  -10.5990   14.6100 N   0  0  0  0  0  0  0  0  0  0  0  0
   10.2530   -9.9610   14.5650 C   0  0  0  0  0  0  0  0  0  0  0  0
   10.1720   -8.6830   14.0010 C   0  0  0  0  0  0  0  0  0  0  0  0
    8.9540   -7.9900   13.9280 C   0  0  0  0  0  0  0  0  0  0  0  0
    7.7620   -8.5370   14.4170 C   0  0  0  0  0  0  0  0  0  0  0  0
    6.5650   -7.8340   14.3270 N   0  0  0  0  0  0  0  0  0  0  0  0
    5.5830   -7.8910   15.4230 C   0  0  0  0  0  0  0  0  0  0  0  0
    4.2000   -7.4430   14.9290 C   0  0  0  0  0  0  0  0  0  0  0  0
    4.2490   -6.1430   14.3220 O   0  0  0  0  0  0  0  0  0  0  0  0
    5.1270   -6.1720   13.1870 C   0  0  0  0  0  0  0  0  0  0  0  0
    6.5600   -6.5590   13.5830 C   0  0  0  0  0  0  0  0  0  0  0  0
    7.8490   -9.8200   14.9670 C   0  0  0  0  0  0  0  0  0  0  0  0
    9.0680  -10.5160   15.0440 C   0  0  0  0  0  0  0  0  0  0  0  0
   13.4820  -10.2920   13.4870 N   0  0  0  0  0  0  0  0  0  0  0  0
   16.8530  -10.1780   12.8400 C   0  0  0  0  0  0  0  0  0  0  0  0
   17.9530   -9.3260   12.7080 C   0  0  0  0  0  0  0  0  0  0  0  0
   17.7970   -8.0470   12.1590 C   0  0  0  0  0  0  0  0  0  0  0  0
   19.0280   -7.2300   12.0250 C   0  0  0  0  0  0  0  0  0  0  0  0
   19.4020   -6.5090   12.9400 O   0  0  0  0  0  0  0  0  0  0  0  0
   19.7280   -7.3930   10.8540 N   0  0  0  0  0  0  0  0  0  0  0  0
   20.9590   -6.6610   10.6310 C   0  0  0  0  0  0  0  0  0  0  0  0
   20.7900   -5.5950    9.6320 C   0  0  0  0  0  0  0  0  0  0  0  0
   20.6250   -4.7640    8.8380 N   0  0  0  0  0  0  0  0  0  0  0  0
   16.1468   -5.5107   12.0807 H   0  0  0  0  0  0  0  0  0  0  0  0
   17.1294   -5.8950   10.6269 H   0  0  0  0  0  0  0  0  0  0  0  0
   15.3621   -6.2160   10.6269 H   0  0  0  0  0  0  0  0  0  0  0  0
   14.4425   -8.1406   11.5686 H   0  0  0  0  0  0  0  0  0  0  0  0
   14.9702  -12.1060   11.0412 H   0  0  0  0  0  0  0  0  0  0  0  0
   12.9188  -13.4305   11.4358 H   0  0  0  0  0  0  0  0  0  0  0  0
   11.8760  -10.7930   15.5240 H   0  0  0  0  0  0  0  0  0  0  0  0
   11.0836   -8.2109   13.6060 H   0  0  0  0  0  0  0  0  0  0  0  0
    8.9355   -6.9884   13.4736 H   0  0  0  0  0  0  0  0  0  0  0  0
    5.5170   -8.9235   15.7967 H   0  0  0  0  0  0  0  0  0  0  0  0
    5.9090   -7.2165   16.2285 H   0  0  0  0  0  0  0  0  0  0  0  0
    3.8336   -8.1689   14.1881 H   0  0  0  0  0  0  0  0  0  0  0  0
    3.5259   -7.3914   15.7967 H   0  0  0  0  0  0  0  0  0  0  0  0
    4.7473   -6.9070   12.4620 H   0  0  0  0  0  0  0  0  0  0  0  0
    5.1541   -5.1628   12.7502 H   0  0  0  0  0  0  0  0  0  0  0  0
    7.1697   -6.6681   12.6740 H   0  0  0  0  0  0  0  0  0  0  0  0
    6.9762   -5.7701   14.2268 H   0  0  0  0  0  0  0  0  0  0  0  0
    6.9361  -10.2989   15.3509 H   0  0  0  0  0  0  0  0  0  0  0  0
    9.0868  -11.5204   15.4921 H   0  0  0  0  0  0  0  0  0  0  0  0
   16.9942  -11.1814   13.2681 H   0  0  0  0  0  0  0  0  0  0  0  0
   18.9473   -9.6620   13.0373 H   0  0  0  0  0  0  0  0  0  0  0  0
   19.4280   -8.0860   10.1780 H   0  0  0  0  0  0  0  0  0  0  0  0
   21.2817   -6.2101   11.5810 H   0  0  0  0  0  0  0  0  0  0  0  0
   21.7118   -7.3676   10.2514 H   0  0  0  0  0  0  0  0  0  0  0  0
  1  2  1  0
  2  3  2  0
  3  4  1  0
  4  5  1  0
  5  6  2  0
  6  7  1  0
  7  8  2  0
  8  9  1  0
  9 10  1  0
 10 11  1  0
 11 12  2  0
 12 13  1  0
 13 14  2  0
 14 15  1  0
 15 16  1  0
 16 17  1  0
 17 18  1  0
 18 19  1  0
 19 20  1  0
 14 21  1  0
 21 22  2  0
  9 23  2  0
  4 24  2  0
 24 25  1  0
 25 26  2  0
 26 27  1  0
 27 28  2  0
 27 29  1  0
 29 30  1  0
 30 31  1  0
 31 32  3  0
 26  2  1  0
 23  5  1  0
 22 11  1  0
 20 15  1  0
  1 33  1  0
  1 34  1  0
  1 35  1  0
  3 36  1  0
  6 37  1  0
  7 38  1  0
 10 39  1  0
 12 40  1  0
 13 41  1  0
 16 42  1  0
 16 43  1  0
 17 44  1  0
 17 45  1  0
 19 46  1  0
 19 47  1  0
 20 48  1  0
 20 49  1  0
 21 50  1  0
 22 51  1  0
 24 52  1  0
 25 53  1  0
 29 54  1  0
 30 55  1  0
 30 56  1  0
M  END
>  <meeko>  (2) 
{"is_sidechain": [false], "free_energy": -8.401, "intermolecular_energy": -11.092, "internal_energy": -0.892}

$$$$
LIB_HFNYDUGXJCRIRE__M_PUB_ALL__e8__s20260927
     RDKit          3D

 56 59  0  0  0  0  0  0  0  0999 V2000
   10.9780  -15.4140   -4.8030 C   0  0  0  0  0  0  0  0  0  0  0  0
   12.0330  -14.4730   -4.2930 C   0  0  0  0  0  0  0  0  0  0  0  0
   11.7750  -13.7440   -3.1170 C   0  0  0  0  0  0  0  0  0  0  0  0
   12.6880  -12.8060   -2.5920 C   0  0  0  0  0  0  0  0  0  0  0  0
   12.3680  -12.0540   -1.3600 C   0  0  0  0  0  0  0  0  0  0  0  0
   13.1600  -11.0330   -0.8790 C   0  0  0  0  0  0  0  0  0  0  0  0
   12.7280  -10.4300    0.2740 C   0  0  0  0  0  0  0  0  0  0  0  0
   11.6080  -10.7890    0.9230 N   0  0  0  0  0  0  0  0  0  0  0  0
   10.8840  -11.7860    0.3990 C   0  0  0  0  0  0  0  0  0  0  0  0
    9.7090  -12.2390    0.9890 N   0  0  0  0  0  0  0  0  0  0  0  0
    8.3650  -12.2410    0.6080 C   0  0  0  0  0  0  0  0  0  0  0  0
    7.5370  -11.2040    1.0520 C   0  0  0  0  0  0  0  0  0  0  0  0
    6.1790  -11.1500    0.7050 C   0  0  0  0  0  0  0  0  0  0  0  0
    5.5830  -12.1300   -0.0980 C   0  0  0  0  0  0  0  0  0  0  0  0
    4.2360  -12.0520   -0.4360 N   0  0  0  0  0  0  0  0  0  0  0  0
    3.8110  -12.1840   -1.8410 C   0  0  0  0  0  0  0  0  0  0  0  0
    2.3950  -11.6220   -2.0290 C   0  0  0  0  0  0  0  0  0  0  0  0
    1.4580  -12.2300   -1.1270 O   0  0  0  0  0  0  0  0  0  0  0  0
    1.8520  -11.9690    0.2280 C   0  0  0  0  0  0  0  0  0  0  0  0
    3.2430  -12.5440    0.5390 C   0  0  0  0  0  0  0  0  0  0  0  0
    6.4200  -13.1550   -0.5500 C   0  0  0  0  0  0  0  0  0  0  0  0
    7.7810  -13.2130   -0.2010 C   0  0  0  0  0  0  0  0  0  0  0  0
   11.2300  -12.4280   -0.7300 N   0  0  0  0  0  0  0  0  0  0  0  0
   13.8970  -12.6230   -3.2830 C   0  0  0  0  0  0  0  0  0  0  0  0
   14.1840  -13.3500   -4.4420 C   0  0  0  0  0  0  0  0  0  0  0  0
   13.2680  -14.2870   -4.9350 C   0  0  0  0  0  0  0  0  0  0  0  0
   13.6770  -15.0370   -6.1480 C   0  0  0  0  0  0  0  0  0  0  0  0
   13.8100  -16.2530   -6.1160 O   0  0  0  0  0  0  0  0  0  0  0  0
   13.8240  -14.2880   -7.2910 N   0  0  0  0  0  0  0  0  0  0  0  0
   14.1970  -14.9250   -8.5390 C   0  0  0  0  0  0  0  0  0  0  0  0
   15.6050  -15.3470   -8.5400 C   0  0  0  0  0  0  0  0  0  0  0  0
   16.7200  -15.6660   -8.5110 N   0  0  0  0  0  0  0  0  0  0  0  0
   10.4580  -15.8778   -3.9519 H   0  0  0  0  0  0  0  0  0  0  0  0
   10.2541  -14.8562   -5.4152 H   0  0  0  0  0  0  0  0  0  0  0  0
   11.4498  -16.1967   -5.4152 H   0  0  0  0  0  0  0  0  0  0  0  0
   10.8256  -13.9122   -2.5875 H   0  0  0  0  0  0  0  0  0  0  0  0
   14.0830  -10.7210   -1.3897 H   0  0  0  0  0  0  0  0  0  0  0  0
   13.3304   -9.6088    0.6896 H   0  0  0  0  0  0  0  0  0  0  0  0
    9.9300  -12.6440    1.8860 H   0  0  0  0  0  0  0  0  0  0  0  0
    7.9609  -10.4128    1.6879 H   0  0  0  0  0  0  0  0  0  0  0  0
    5.5654  -10.3148    1.0738 H   0  0  0  0  0  0  0  0  0  0  0  0
    4.5094  -11.6285   -2.4842 H   0  0  0  0  0  0  0  0  0  0  0  0
    3.8101  -13.2496   -2.1140 H   0  0  0  0  0  0  0  0  0  0  0  0
    2.4146  -10.5377   -1.8451 H   0  0  0  0  0  0  0  0  0  0  0  0
    2.0727  -11.8418   -3.0575 H   0  0  0  0  0  0  0  0  0  0  0  0
    1.8722  -10.8811    0.3896 H   0  0  0  0  0  0  0  0  0  0  0  0
    1.1245  -12.4545    0.8951 H   0  0  0  0  0  0  0  0  0  0  0  0
    3.5447  -12.2344    1.5505 H   0  0  0  0  0  0  0  0  0  0  0  0
    3.1964  -13.6412    0.4762 H   0  0  0  0  0  0  0  0  0  0  0  0
    6.0013  -13.9392   -1.1978 H   0  0  0  0  0  0  0  0  0  0  0  0
    8.3976  -14.0437   -0.5748 H   0  0  0  0  0  0  0  0  0  0  0  0
   14.6305  -11.8952   -2.9058 H   0  0  0  0  0  0  0  0  0  0  0  0
   15.1350  -13.1849   -4.9697 H   0  0  0  0  0  0  0  0  0  0  0  0
   13.5940  -13.3010   -7.2810 H   0  0  0  0  0  0  0  0  0  0  0  0
   13.5607  -15.8093   -8.6909 H   0  0  0  0  0  0  0  0  0  0  0  0
   14.0599  -14.1937   -9.3492 H   0  0  0  0  0  0  0  0  0  0  0  0
  1  2  1  0
  2  3  2  0
  3  4  1  0
  4  5  1  0
  5  6  2  0
  6  7  1  0
  7  8  2  0
  8  9  1  0
  9 10  1  0
 10 11  1  0
 11 12  2  0
 12 13  1  0
 13 14  2  0
 14 15  1  0
 15 16  1  0
 16 17  1  0
 17 18  1  0
 18 19  1  0
 19 20  1  0
 14 21  1  0
 21 22  2  0
  9 23  2  0
  4 24  2  0
 24 25  1  0
 25 26  2  0
 26 27  1  0
 27 28  2  0
 27 29  1  0
 29 30  1  0
 30 31  1  0
 31 32  3  0
 26  2  1  0
 23  5  1  0
 22 11  1  0
 20 15  1  0
  1 33  1  0
  1 34  1  0
  1 35  1  0
  3 36  1  0
  6 37  1  0
  7 38  1  0
 10 39  1  0
 12 40  1  0
 13 41  1  0
 16 42  1  0
 16 43  1  0
 17 44  1  0
 17 45  1  0
 19 46  1  0
 19 47  1  0
 20 48  1  0
 20 49  1  0
 21 50  1  0
 22 51  1  0
 24 52  1  0
 25 53  1  0
 29 54  1  0
 30 55  1  0
 30 56  1  0
M  END
>  <meeko>  (3) 
{"is_sidechain": [false], "free_energy": -8.328, "intermolecular_energy": -11.22, "internal_energy": -0.664}

$$$$
LIB_HFNYDUGXJCRIRE__M_PUB_ALL__e8__s20260927
     RDKit          3D

 56 59  0  0  0  0  0  0  0  0999 V2000
    2.6100  -10.2050   -3.4220 C   0  0  0  0  0  0  0  0  0  0  0  0
    2.2330  -11.1400   -2.3070 C   0  0  0  0  0  0  0  0  0  0  0  0
    1.1800  -10.7740   -1.4470 C   0  0  0  0  0  0  0  0  0  0  0  0
    0.7890  -11.5660   -0.3480 C   0  0  0  0  0  0  0  0  0  0  0  0
   -0.3150  -11.1350    0.5350 C   0  0  0  0  0  0  0  0  0  0  0  0
   -0.2750   -9.9670    1.2680 C   0  0  0  0  0  0  0  0  0  0  0  0
   -1.3770   -9.7030    2.0390 C   0  0  0  0  0  0  0  0  0  0  0  0
   -2.4470  -10.5130    2.1040 N   0  0  0  0  0  0  0  0  0  0  0  0
   -2.4210  -11.6290    1.3640 C   0  0  0  0  0  0  0  0  0  0  0  0
   -3.4730  -12.5390    1.3570 N   0  0  0  0  0  0  0  0  0  0  0  0
   -4.1070  -13.3030    2.3390 C   0  0  0  0  0  0  0  0  0  0  0  0
   -5.3440  -12.8750    2.8330 C   0  0  0  0  0  0  0  0  0  0  0  0
   -6.0300  -13.5980    3.8200 C   0  0  0  0  0  0  0  0  0  0  0  0
   -5.5110  -14.7800    4.3650 C   0  0  0  0  0  0  0  0  0  0  0  0
   -6.2130  -15.4840    5.3370 N   0  0  0  0  0  0  0  0  0  0  0  0
   -7.5930  -15.9320    5.0830 C   0  0  0  0  0  0  0  0  0  0  0  0
   -8.3030  -16.2620    6.4040 C   0  0  0  0  0  0  0  0  0  0  0  0
   -7.5630  -17.2190    7.1790 O   0  0  0  0  0  0  0  0  0  0  0  0
   -6.2710  -16.6850    7.5010 C   0  0  0  0  0  0  0  0  0  0  0  0
   -5.4510  -16.3700    6.2400 C   0  0  0  0  0  0  0  0  0  0  0  0
   -4.2810  -15.2080    3.8560 C   0  0  0  0  0  0  0  0  0  0  0  0
   -3.5900  -14.4850    2.8680 C   0  0  0  0  0  0  0  0  0  0  0  0
   -1.3850  -11.9620    0.5760 N   0  0  0  0  0  0  0  0  0  0  0  0
    1.4870  -12.7670   -0.1360 C   0  0  0  0  0  0  0  0  0  0  0  0
    2.5220  -13.1610   -0.9870 C   0  0  0  0  0  0  0  0  0  0  0  0
    2.8820  -12.3640   -2.0810 C   0  0  0  0  0  0  0  0  0  0  0  0
    3.9670  -12.8830   -2.9500 C   0  0  0  0  0  0  0  0  0  0  0  0
    5.1410  -12.6950   -2.6620 O   0  0  0  0  0  0  0  0  0  0  0  0
    3.5610  -13.6250   -4.0330 N   0  0  0  0  0  0  0  0  0  0  0  0
    4.5420  -14.2000   -4.9330 C   0  0  0  0  0  0  0  0  0  0  0  0
    4.7640  -13.3540   -6.1150 C   0  0  0  0  0  0  0  0  0  0  0  0
    4.9160  -12.6660   -7.0370 N   0  0  0  0  0  0  0  0  0  0  0  0
    2.9896   -9.2635   -2.9984 H   0  0  0  0  0  0  0  0  0  0  0  0
    3.3911  -10.6695   -4.0418 H   0  0  0  0  0  0  0  0  0  0  0  0
    1.7251   -9.9978   -4.0418 H   0  0  0  0  0  0  0  0  0  0  0  0
    0.6418   -9.8342   -1.6399 H   0  0  0  0  0  0  0  0  0  0  0  0
    0.5898   -9.2880    1.2356 H   0  0  0  0  0  0  0  0  0  0  0  0
   -1.3859   -8.7792    2.6361 H   0  0  0  0  0  0  0  0  0  0  0  0
   -3.8160  -12.6320    0.4130 H   0  0  0  0  0  0  0  0  0  0  0  0
   -5.7890  -11.9498    2.4381 H   0  0  0  0  0  0  0  0  0  0  0  0
   -7.0023  -13.2268    4.1761 H   0  0  0  0  0  0  0  0  0  0  0  0
   -8.1438  -15.1325    4.5659 H   0  0  0  0  0  0  0  0  0  0  0  0
   -7.5640  -16.8373    4.4589 H   0  0  0  0  0  0  0  0  0  0  0  0
   -8.4139  -15.3377    6.9900 H   0  0  0  0  0  0  0  0  0  0  0  0
   -9.2848  -16.6977    6.1667 H   0  0  0  0  0  0  0  0  0  0  0  0
   -6.4030  -15.7590    8.0799 H   0  0  0  0  0  0  0  0  0  0  0  0
   -5.7245  -17.4418    8.0829 H   0  0  0  0  0  0  0  0  0  0  0  0
   -4.5149  -15.8713    6.5318 H   0  0  0  0  0  0  0  0  0  0  0  0
   -5.2308  -17.3106    5.7140 H   0  0  0  0  0  0  0  0  0  0  0  0
   -3.8403  -16.1395    4.2407 H   0  0  0  0  0  0  0  0  0  0  0  0
   -2.6216  -14.8594    2.5048 H   0  0  0  0  0  0  0  0  0  0  0  0
    1.2135  -13.4080    0.7150 H   0  0  0  0  0  0  0  0  0  0  0  0
    3.0576  -14.1028   -0.7969 H   0  0  0  0  0  0  0  0  0  0  0  0
    2.5790  -13.8380   -4.1600 H   0  0  0  0  0  0  0  0  0  0  0  0
    5.4941  -14.3155   -4.3944 H   0  0  0  0  0  0  0  0  0  0  0  0
    4.1604  -15.1727   -5.2768 H   0  0  0  0  0  0  0  0  0  0  0  0
  1  2  1  0
  2  3  2  0
  3  4  1  0
  4  5  1  0
  5  6  2  0
  6  7  1  0
  7  8  2  0
  8  9  1  0
  9 10  1  0
 10 11  1  0
 11 12  2  0
 12 13  1  0
 13 14  2  0
 14 15  1  0
 15 16  1  0
 16 17  1  0
 17 18  1  0
 18 19  1  0
 19 20  1  0
 14 21  1  0
 21 22  2  0
  9 23  2  0
  4 24  2  0
 24 25  1  0
 25 26  2  0
 26 27  1  0
 27 28  2  0
 27 29  1  0
 29 30  1  0
 30 31  1  0
 31 32  3  0
 26  2  1  0
 23  5  1  0
 22 11  1  0
 20 15  1  0
  1 33  1  0
  1 34  1  0
  1 35  1  0
  3 36  1  0
  6 37  1  0
  7 38  1  0
 10 39  1  0
 12 40  1  0
 13 41  1  0
 16 42  1  0
 16 43  1  0
 17 44  1  0
 17 45  1  0
 19 46  1  0
 19 47  1  0
 20 48  1  0
 20 49  1  0
 21 50  1  0
 22 51  1  0
 24 52  1  0
 25 53  1  0
 29 54  1  0
 30 55  1  0
 30 56  1  0
M  END
>  <meeko>  (4) 
{"is_sidechain": [false], "free_energy": -7.95, "intermolecular_energy": -10.53, "internal_energy": -0.844}

$$$$
LIB_HFNYDUGXJCRIRE__M_PUB_ALL__e8__s20260927
     RDKit          3D

 56 59  0  0  0  0  0  0  0  0999 V2000
   -6.5310  -13.7370    8.3200 C   0  0  0  0  0  0  0  0  0  0  0  0
   -6.8100  -14.3850    6.9930 C   0  0  0  0  0  0  0  0  0  0  0  0
   -6.1700  -13.8770    5.8460 C   0  0  0  0  0  0  0  0  0  0  0  0
   -6.4080  -14.3930    4.5560 C   0  0  0  0  0  0  0  0  0  0  0  0
   -5.7220  -13.8190    3.3790 C   0  0  0  0  0  0  0  0  0  0  0  0
   -6.3870  -13.1310    2.3860 C   0  0  0  0  0  0  0  0  0  0  0  0
   -5.6110  -12.6580    1.3600 C   0  0  0  0  0  0  0  0  0  0  0  0
   -4.2810  -12.8380    1.2920 N   0  0  0  0  0  0  0  0  0  0  0  0
   -3.6990  -13.5120    2.2920 C   0  0  0  0  0  0  0  0  0  0  0  0
   -2.3300  -13.7580    2.3220 N   0  0  0  0  0  0  0  0  0  0  0  0
   -1.2660  -13.4480    1.4730 C   0  0  0  0  0  0  0  0  0  0  0  0
   -0.5760  -12.2470    1.6670 C   0  0  0  0  0  0  0  0  0  0  0  0
    0.5010  -11.8780    0.8470 C   0  0  0  0  0  0  0  0  0  0  0  0
    0.9370  -12.6890   -0.2080 C   0  0  0  0  0  0  0  0  0  0  0  0
    2.0120  -12.3070   -1.0030 N   0  0  0  0  0  0  0  0  0  0  0  0
    1.9190  -11.1090   -1.8570 C   0  0  0  0  0  0  0  0  0  0  0  0
    2.9970  -11.1440   -2.9500 C   0  0  0  0  0  0  0  0  0  0  0  0
    4.3110  -11.3040   -2.3940 O   0  0  0  0  0  0  0  0  0  0  0  0
    4.3840  -12.5430   -1.6730 C   0  0  0  0  0  0  0  0  0  0  0  0
    3.3760  -12.5900   -0.5140 C   0  0  0  0  0  0  0  0  0  0  0  0
    0.2510  -13.8940   -0.3870 C   0  0  0  0  0  0  0  0  0  0  0  0
   -0.8300  -14.2650    0.4310 C   0  0  0  0  0  0  0  0  0  0  0  0
   -4.3820  -14.0060    3.3390 N   0  0  0  0  0  0  0  0  0  0  0  0
   -7.3130  -15.4610    4.4430 C   0  0  0  0  0  0  0  0  0  0  0  0
   -7.9460  -15.9940    5.5690 C   0  0  0  0  0  0  0  0  0  0  0  0
   -7.6810  -15.4760    6.8420 C   0  0  0  0  0  0  0  0  0  0  0  0
   -8.3710  -16.1310    7.9800 C   0  0  0  0  0  0  0  0  0  0  0  0
   -9.4700  -15.7410    8.3530 O   0  0  0  0  0  0  0  0  0  0  0  0
   -7.7280  -17.2170    8.5220 N   0  0  0  0  0  0  0  0  0  0  0  0
   -8.3260  -17.9470    9.6230 C   0  0  0  0  0  0  0  0  0  0  0  0
   -7.6440  -17.6750   10.8970 C   0  0  0  0  0  0  0  0  0  0  0  0
   -7.0840  -17.4410   11.8860 N   0  0  0  0  0  0  0  0  0  0  0  0
   -6.8251  -14.4200    9.1306 H   0  0  0  0  0  0  0  0  0  0  0  0
   -5.4569  -13.5135    8.4003 H   0  0  0  0  0  0  0  0  0  0  0  0
   -7.1068  -12.8032    8.4003 H   0  0  0  0  0  0  0  0  0  0  0  0
   -5.4578  -13.0466    5.9610 H   0  0  0  0  0  0  0  0  0  0  0  0
   -7.4750  -12.9714    2.4156 H   0  0  0  0  0  0  0  0  0  0  0  0
   -6.1032  -12.1013    0.5489 H   0  0  0  0  0  0  0  0  0  0  0  0
   -2.1110  -14.2780    3.1590 H   0  0  0  0  0  0  0  0  0  0  0  0
   -0.8851  -11.5758    2.4818 H   0  0  0  0  0  0  0  0  0  0  0  0
    1.0170  -10.9255    1.0381 H   0  0  0  0  0  0  0  0  0  0  0  0
    0.9258  -11.0767   -2.3287 H   0  0  0  0  0  0  0  0  0  0  0  0
    2.0718  -10.2151   -1.2345 H   0  0  0  0  0  0  0  0  0  0  0  0
    2.7912  -11.9862   -3.6270 H   0  0  0  0  0  0  0  0  0  0  0  0
    2.9677  -10.1871   -3.4917 H   0  0  0  0  0  0  0  0  0  0  0  0
    4.1695  -13.3707   -2.3650 H   0  0  0  0  0  0  0  0  0  0  0  0
    5.3954  -12.6329   -1.2499 H   0  0  0  0  0  0  0  0  0  0  0  0
    3.3964  -13.5903   -0.0569 H   0  0  0  0  0  0  0  0  0  0  0  0
    3.6527  -11.8277    0.2292 H   0  0  0  0  0  0  0  0  0  0  0  0
    0.5671  -14.5727   -1.1929 H   0  0  0  0  0  0  0  0  0  0  0  0
   -1.3428  -15.2202    0.2451 H   0  0  0  0  0  0  0  0  0  0  0  0
   -7.5272  -15.8853    3.4510 H   0  0  0  0  0  0  0  0  0  0  0  0
   -8.6568  -16.8256    5.4542 H   0  0  0  0  0  0  0  0  0  0  0  0
   -6.8720  -17.5590    8.1020 H   0  0  0  0  0  0  0  0  0  0  0  0
   -9.3814  -17.6507    9.7144 H   0  0  0  0  0  0  0  0  0  0  0  0
   -8.2326  -19.0220    9.4095 H   0  0  0  0  0  0  0  0  0  0  0  0
  1  2  1  0
  2  3  2  0
  3  4  1  0
  4  5  1  0
  5  6  2  0
  6  7  1  0
  7  8  2  0
  8  9  1  0
  9 10  1  0
 10 11  1  0
 11 12  2  0
 12 13  1  0
 13 14  2  0
 14 15  1  0
 15 16  1  0
 16 17  1  0
 17 18  1  0
 18 19  1  0
 19 20  1  0
 14 21  1  0
 21 22  2  0
  9 23  2  0
  4 24  2  0
 24 25  1  0
 25 26  2  0
 26 27  1  0
 27 28  2  0
 27 29  1  0
 29 30  1  0
 30 31  1  0
 31 32  3  0
 26  2  1  0
 23  5  1  0
 22 11  1  0
 20 15  1  0
  1 33  1  0
  1 34  1  0
  1 35  1  0
  3 36  1  0
  6 37  1  0
  7 38  1  0
 10 39  1  0
 12 40  1  0
 13 41  1  0
 16 42  1  0
 16 43  1  0
 17 44  1  0
 17 45  1  0
 19 46  1  0
 19 47  1  0
 20 48  1  0
 20 49  1  0
 21 50  1  0
 22 51  1  0
 24 52  1  0
 25 53  1  0
 29 54  1  0
 30 55  1  0
 30 56  1  0
M  END
>  <meeko>  (5) 
{"is_sidechain": [false], "free_energy": -7.923, "intermolecular_energy": -10.505, "internal_energy": -0.833}

$$$$
LIB_HFNYDUGXJCRIRE__M_PUB_ALL__e8__s20260927
     RDKit          3D

 56 59  0  0  0  0  0  0  0  0999 V2000
    0.0190  -12.8190    1.7550 C   0  0  0  0  0  0  0  0  0  0  0  0
    0.2770  -11.8270    0.6570 C   0  0  0  0  0  0  0  0  0  0  0  0
    1.2130  -12.1540   -0.3430 C   0  0  0  0  0  0  0  0  0  0  0  0
    1.5500  -11.2660   -1.3850 C   0  0  0  0  0  0  0  0  0  0  0  0
    2.5490  -11.6490   -2.4050 C   0  0  0  0  0  0  0  0  0  0  0  0
    2.2090  -12.2620   -3.5930 C   0  0  0  0  0  0  0  0  0  0  0  0
    3.2480  -12.5530   -4.4380 C   0  0  0  0  0  0  0  0  0  0  0  0
    4.5320  -12.2760   -4.1560 N   0  0  0  0  0  0  0  0  0  0  0  0
    4.7910  -11.6780   -2.9870 C   0  0  0  0  0  0  0  0  0  0  0  0
    6.0830  -11.3470   -2.5930 N   0  0  0  0  0  0  0  0  0  0  0  0
    7.3080  -12.0200   -2.6050 C   0  0  0  0  0  0  0  0  0  0  0  0
    7.4050  -13.2530   -1.9520 C   0  0  0  0  0  0  0  0  0  0  0  0
    8.6070  -13.9770   -1.9270 C   0  0  0  0  0  0  0  0  0  0  0  0
    9.7680  -13.5020   -2.5480 C   0  0  0  0  0  0  0  0  0  0  0  0
   10.9460  -14.2400   -2.5170 N   0  0  0  0  0  0  0  0  0  0  0  0
   11.9920  -14.0170   -3.5300 C   0  0  0  0  0  0  0  0  0  0  0  0
   12.9550  -15.2130   -3.5810 C   0  0  0  0  0  0  0  0  0  0  0  0
   13.5130  -15.4990   -2.2890 O   0  0  0  0  0  0  0  0  0  0  0  0
   12.4610  -15.8270   -1.3690 C   0  0  0  0  0  0  0  0  0  0  0  0
   11.4660  -14.6690   -1.2030 C   0  0  0  0  0  0  0  0  0  0  0  0
    9.6590  -12.2750   -3.2100 C   0  0  0  0  0  0  0  0  0  0  0  0
    8.4570  -11.5460   -3.2340 C   0  0  0  0  0  0  0  0  0  0  0  0
    3.8330  -11.3510   -2.1020 N   0  0  0  0  0  0  0  0  0  0  0  0
    0.9040  -10.0190   -1.4060 C   0  0  0  0  0  0  0  0  0  0  0  0
   -0.0430   -9.6790   -0.4360 C   0  0  0  0  0  0  0  0  0  0  0  0
   -0.3740  -10.5850    0.5790 C   0  0  0  0  0  0  0  0  0  0  0  0
   -1.4160  -10.1500    1.5410 C   0  0  0  0  0  0  0  0  0  0  0  0
   -2.5410  -10.6300    1.5030 O   0  0  0  0  0  0  0  0  0  0  0  0
   -1.0110   -9.2410    2.4890 N   0  0  0  0  0  0  0  0  0  0  0  0
   -1.9450   -8.7680    3.4920 C   0  0  0  0  0  0  0  0  0  0  0  0
   -1.3490   -8.7610    4.8360 C   0  0  0  0  0  0  0  0  0  0  0  0
   -0.8500   -8.7690    5.8850 N   0  0  0  0  0  0  0  0  0  0  0  0
    0.1468  -12.3275    2.7307 H   0  0  0  0  0  0  0  0  0  0  0  0
   -1.0086  -13.2019    1.6692 H   0  0  0  0  0  0  0  0  0  0  0  0
    0.7298  -13.6541    1.6692 H   0  0  0  0  0  0  0  0  0  0  0  0
    1.6998  -13.1399   -0.3099 H   0  0  0  0  0  0  0  0  0  0  0  0
    1.1662  -12.5029   -3.8470 H   0  0  0  0  0  0  0  0  0  0  0  0
    3.0185  -13.0390   -5.3978 H   0  0  0  0  0  0  0  0  0  0  0  0
    6.0820  -10.4080   -2.2240 H   0  0  0  0  0  0  0  0  0  0  0  0
    6.5190  -13.6647   -1.4465 H   0  0  0  0  0  0  0  0  0  0  0  0
    8.6376  -14.9447   -1.4048 H   0  0  0  0  0  0  0  0  0  0  0  0
   11.5203  -13.8897   -4.5155 H   0  0  0  0  0  0  0  0  0  0  0  0
   12.5600  -13.1139   -3.2621 H   0  0  0  0  0  0  0  0  0  0  0  0
   12.4066  -16.0978   -3.9366 H   0  0  0  0  0  0  0  0  0  0  0  0
   13.7800  -14.9611   -4.2635 H   0  0  0  0  0  0  0  0  0  0  0  0
   11.9214  -16.7088   -1.7450 H   0  0  0  0  0  0  0  0  0  0  0  0
   12.9158  -16.0299   -0.3882 H   0  0  0  0  0  0  0  0  0  0  0  0
   10.6275  -15.0000   -0.5726 H   0  0  0  0  0  0  0  0  0  0  0  0
   11.9837  -13.8206   -0.7316 H   0  0  0  0  0  0  0  0  0  0  0  0
   10.5402  -11.8680   -3.7275 H   0  0  0  0  0  0  0  0  0  0  0  0
    8.4232  -10.5809   -3.7607 H   0  0  0  0  0  0  0  0  0  0  0  0
    1.1477   -9.2974   -2.1997 H   0  0  0  0  0  0  0  0  0  0  0  0
   -0.5312   -8.6939   -0.4701 H   0  0  0  0  0  0  0  0  0  0  0  0
   -0.0390   -8.9610    2.5370 H   0  0  0  0  0  0  0  0  0  0  0  0
   -2.2547   -7.7443    3.2349 H   0  0  0  0  0  0  0  0  0  0  0  0
   -2.8068   -9.4515    3.5047 H   0  0  0  0  0  0  0  0  0  0  0  0
  1  2  1  0
  2  3  2  0
  3  4  1  0
  4  5  1  0
  5  6  2  0
  6  7  1  0
  7  8  2  0
  8  9  1  0
  9 10  1  0
 10 11  1  0
 11 12  2  0
 12 13  1  0
 13 14  2  0
 14 15  1  0
 15 16  1  0
 16 17  1  0
 17 18  1  0
 18 19  1  0
 19 20  1  0
 14 21  1  0
 21 22  2  0
  9 23  2  0
  4 24  2  0
 24 25  1  0
 25 26  2  0
 26 27  1  0
 27 28  2  0
 27 29  1  0
 29 30  1  0
 30 31  1  0
 31 32  3  0
 26  2  1  0
 23  5  1  0
 22 11  1  0
 20 15  1  0
  1 33  1  0
  1 34  1  0
  1 35  1  0
  3 36  1  0
  6 37  1  0
  7 38  1  0
 10 39  1  0
 12 40  1  0
 13 41  1  0
 16 42  1  0
 16 43  1  0
 17 44  1  0
 17 45  1  0
 19 46  1  0
 19 47  1  0
 20 48  1  0
 20 49  1  0
 21 50  1  0
 22 51  1  0
 24 52  1  0
 25 53  1  0
 29 54  1  0
 30 55  1  0
 30 56  1  0
M  END
>  <meeko>  (6) 
{"is_sidechain": [false], "free_energy": -7.869, "intermolecular_energy": -10.472, "internal_energy": -0.793}

$$$$
LIB_HFNYDUGXJCRIRE__M_PUB_ALL__e8__s20260927
     RDKit          3D

 56 59  0  0  0  0  0  0  0  0999 V2000
    2.5520  -10.3480   -3.6120 C   0  0  0  0  0  0  0  0  0  0  0  0
    2.4160  -10.9670   -2.2490 C   0  0  0  0  0  0  0  0  0  0  0  0
    1.2550  -10.7000   -1.5000 C   0  0  0  0  0  0  0  0  0  0  0  0
    1.0630  -11.2010   -0.1960 C   0  0  0  0  0  0  0  0  0  0  0  0
   -0.1680  -10.8830    0.5580 C   0  0  0  0  0  0  0  0  0  0  0  0
   -0.3540   -9.6860    1.2190 C   0  0  0  0  0  0  0  0  0  0  0  0
   -1.5500   -9.5400    1.8720 C   0  0  0  0  0  0  0  0  0  0  0  0
   -2.5050  -10.4850    1.8900 N   0  0  0  0  0  0  0  0  0  0  0  0
   -2.2600  -11.6210    1.2250 C   0  0  0  0  0  0  0  0  0  0  0  0
   -3.1770  -12.6660    1.1790 N   0  0  0  0  0  0  0  0  0  0  0  0
   -3.8470  -13.4170    2.1480 C   0  0  0  0  0  0  0  0  0  0  0  0
   -5.0990  -12.9790    2.5940 C   0  0  0  0  0  0  0  0  0  0  0  0
   -5.8210  -13.6890    3.5650 C   0  0  0  0  0  0  0  0  0  0  0  0
   -5.3260  -14.8660    4.1400 C   0  0  0  0  0  0  0  0  0  0  0  0
   -6.0630  -15.5570    5.0950 N   0  0  0  0  0  0  0  0  0  0  0  0
   -5.6190  -15.5880    6.5000 C   0  0  0  0  0  0  0  0  0  0  0  0
   -6.2940  -16.7450    7.2510 C   0  0  0  0  0  0  0  0  0  0  0  0
   -7.7250  -16.6840    7.1430 O   0  0  0  0  0  0  0  0  0  0  0  0
   -8.1110  -16.7780    5.7640 C   0  0  0  0  0  0  0  0  0  0  0  0
   -7.5280  -15.6280    4.9280 C   0  0  0  0  0  0  0  0  0  0  0  0
   -4.0810  -15.3040    3.6780 C   0  0  0  0  0  0  0  0  0  0  0  0
   -3.3540  -14.5940    2.7070 C   0  0  0  0  0  0  0  0  0  0  0  0
   -1.1180  -11.8460    0.5540 N   0  0  0  0  0  0  0  0  0  0  0  0
    2.0810  -12.0030    0.3450 C   0  0  0  0  0  0  0  0  0  0  0  0
    3.2340  -12.2980   -0.3870 C   0  0  0  0  0  0  0  0  0  0  0  0
    3.3940  -11.8030   -1.6870 C   0  0  0  0  0  0  0  0  0  0  0  0
    4.6330  -12.2000   -2.3990 C   0  0  0  0  0  0  0  0  0  0  0  0
    4.6600  -13.2090   -3.0920 O   0  0  0  0  0  0  0  0  0  0  0  0
    5.6960  -11.3370   -2.2760 N   0  0  0  0  0  0  0  0  0  0  0  0
    6.9470  -11.6180   -2.9510 C   0  0  0  0  0  0  0  0  0  0  0  0
    7.9540  -12.1710   -2.0340 C   0  0  0  0  0  0  0  0  0  0  0  0
    8.7280  -12.6030   -1.2840 N   0  0  0  0  0  0  0  0  0  0  0  0
    2.7870   -9.2785   -3.5072 H   0  0  0  0  0  0  0  0  0  0  0  0
    3.3615  -10.8490   -4.1631 H   0  0  0  0  0  0  0  0  0  0  0  0
    1.6071  -10.4635   -4.1631 H   0  0  0  0  0  0  0  0  0  0  0  0
    0.4674  -10.0769   -1.9488 H   0  0  0  0  0  0  0  0  0  0  0  0
    0.4118   -8.8964    1.2216 H   0  0  0  0  0  0  0  0  0  0  0  0
   -1.7381   -8.5992    2.4100 H   0  0  0  0  0  0  0  0  0  0  0  0
   -3.3640  -12.8940    0.2150 H   0  0  0  0  0  0  0  0  0  0  0  0
   -5.5268  -12.0569    2.1736 H   0  0  0  0  0  0  0  0  0  0  0  0
   -6.8035  -13.3105    3.8836 H   0  0  0  0  0  0  0  0  0  0  0  0
   -4.5278  -15.7231    6.5321 H   0  0  0  0  0  0  0  0  0  0  0  0
   -5.8976  -14.6396    6.9825 H   0  0  0  0  0  0  0  0  0  0  0  0
   -5.9446  -17.6978    6.8266 H   0  0  0  0  0  0  0  0  0  0  0  0
   -6.0263  -16.6663    8.3150 H   0  0  0  0  0  0  0  0  0  0  0  0
   -7.7481  -17.7334    5.3571 H   0  0  0  0  0  0  0  0  0  0  0  0
   -9.2080  -16.7167    5.7113 H   0  0  0  0  0  0  0  0  0  0  0  0
   -7.7634  -15.7967    3.8668 H   0  0  0  0  0  0  0  0  0  0  0  0
   -7.9708  -14.6807    5.2693 H   0  0  0  0  0  0  0  0  0  0  0  0
   -3.6574  -16.2331    4.0872 H   0  0  0  0  0  0  0  0  0  0  0  0
   -2.3750  -14.9757    2.3816 H   0  0  0  0  0  0  0  0  0  0  0  0
    1.9687  -12.4058    1.3624 H   0  0  0  0  0  0  0  0  0  0  0  0
    4.0208  -12.9229    0.0607 H   0  0  0  0  0  0  0  0  0  0  0  0
    5.5810  -10.4630   -1.7770 H   0  0  0  0  0  0  0  0  0  0  0  0
    6.7613  -12.3451   -3.7553 H   0  0  0  0  0  0  0  0  0  0  0  0
    7.3366  -10.6713   -3.3535 H   0  0  0  0  0  0  0  0  0  0  0  0
  1  2  1  0
  2  3  2  0
  3  4  1  0
  4  5  1  0
  5  6  2  0
  6  7  1  0
  7  8  2  0
  8  9  1  0
  9 10  1  0
 10 11  1  0
 11 12  2  0
 12 13  1  0
 13 14  2  0
 14 15  1  0
 15 16  1  0
 16 17  1  0
 17 18  1  0
 18 19  1  0
 19 20  1  0
 14 21  1  0
 21 22  2  0
  9 23  2  0
  4 24  2  0
 24 25  1  0
 25 26  2  0
 26 27  1  0
 27 28  2  0
 27 29  1  0
 29 30  1  0
 30 31  1  0
 31 32  3  0
 26  2  1  0
 23  5  1  0
 22 11  1  0
 20 15  1  0
  1 33  1  0
  1 34  1  0
  1 35  1  0
  3 36  1  0
  6 37  1  0
  7 38  1  0
 10 39  1  0
 12 40  1  0
 13 41  1  0
 16 42  1  0
 16 43  1  0
 17 44  1  0
 17 45  1  0
 19 46  1  0
 19 47  1  0
 20 48  1  0
 20 49  1  0
 21 50  1  0
 22 51  1  0
 24 52  1  0
 25 53  1  0
 29 54  1  0
 30 55  1  0
 30 56  1  0
M  END
>  <meeko>  (7) 
{"is_sidechain": [false], "free_energy": -7.866, "intermolecular_energy": -10.434, "internal_energy": -0.826}

$$$$
LIB_HFNYDUGXJCRIRE__M_PUB_ALL__e8__s20260927
     RDKit          3D

 56 59  0  0  0  0  0  0  0  0999 V2000
    9.8250  -14.3180   -1.6700 C   0  0  0  0  0  0  0  0  0  0  0  0
    8.9550  -13.3490   -0.9190 C   0  0  0  0  0  0  0  0  0  0  0  0
    7.5660  -13.3740   -1.1460 C   0  0  0  0  0  0  0  0  0  0  0  0
    6.6800  -12.4720   -0.5220 C   0  0  0  0  0  0  0  0  0  0  0  0
    5.2290  -12.5280   -0.8010 C   0  0  0  0  0  0  0  0  0  0  0  0
    4.2710  -12.2960    0.1630 C   0  0  0  0  0  0  0  0  0  0  0  0
    2.9680  -12.3830   -0.2530 C   0  0  0  0  0  0  0  0  0  0  0  0
    2.6100  -12.6770   -1.5140 N   0  0  0  0  0  0  0  0  0  0  0  0
    3.5910  -12.8870   -2.4000 C   0  0  0  0  0  0  0  0  0  0  0  0
    3.3350  -13.1990   -3.7310 N   0  0  0  0  0  0  0  0  0  0  0  0
    4.0720  -13.1040   -4.9130 C   0  0  0  0  0  0  0  0  0  0  0  0
    4.8240  -14.2070   -5.3300 C   0  0  0  0  0  0  0  0  0  0  0  0
    5.5860  -14.1740   -6.5070 C   0  0  0  0  0  0  0  0  0  0  0  0
    5.6370  -13.0360   -7.3220 C   0  0  0  0  0  0  0  0  0  0  0  0
    6.3930  -13.0280   -8.4890 N   0  0  0  0  0  0  0  0  0  0  0  0
    6.7560  -11.7530   -9.1330 C   0  0  0  0  0  0  0  0  0  0  0  0
    7.1700  -11.9880  -10.5930 C   0  0  0  0  0  0  0  0  0  0  0  0
    8.2220  -12.9590  -10.6970 O   0  0  0  0  0  0  0  0  0  0  0  0
    7.7760  -14.2150  -10.1640 C   0  0  0  0  0  0  0  0  0  0  0  0
    7.3870  -14.1020   -8.6820 C   0  0  0  0  0  0  0  0  0  0  0  0
    4.8710  -11.9420   -6.9060 C   0  0  0  0  0  0  0  0  0  0  0  0
    4.1090  -11.9720   -5.7250 C   0  0  0  0  0  0  0  0  0  0  0  0
    4.8950  -12.8170   -2.0810 N   0  0  0  0  0  0  0  0  0  0  0  0
    7.2320  -11.5330    0.3650 C   0  0  0  0  0  0  0  0  0  0  0  0
    8.6050  -11.5010    0.6210 C   0  0  0  0  0  0  0  0  0  0  0  0
    9.4630  -12.4180    0.0010 C   0  0  0  0  0  0  0  0  0  0  0  0
   10.8990  -12.3320    0.3640 C   0  0  0  0  0  0  0  0  0  0  0  0
   11.3360  -12.9420    1.3310 O   0  0  0  0  0  0  0  0  0  0  0  0
   11.6850  -11.5890   -0.4830 N   0  0  0  0  0  0  0  0  0  0  0  0
   13.1070  -11.4590   -0.2340 C   0  0  0  0  0  0  0  0  0  0  0  0
   13.4380  -10.1760    0.4030 C   0  0  0  0  0  0  0  0  0  0  0  0
   13.6680   -9.1540    0.9030 N   0  0  0  0  0  0  0  0  0  0  0  0
   10.3833  -14.9399   -0.9548 H   0  0  0  0  0  0  0  0  0  0  0  0
    9.1958  -14.9616   -2.3024 H   0  0  0  0  0  0  0  0  0  0  0  0
   10.5324  -13.7616   -2.3024 H   0  0  0  0  0  0  0  0  0  0  0  0
    7.1562  -14.1259   -1.8365 H   0  0  0  0  0  0  0  0  0  0  0  0
    4.5364  -12.0556    1.2031 H   0  0  0  0  0  0  0  0  0  0  0  0
    2.1727  -12.2024    0.4852 H   0  0  0  0  0  0  0  0  0  0  0  0
    2.4000  -13.5700   -3.8040 H   0  0  0  0  0  0  0  0  0  0  0  0
    4.8177  -15.1225   -4.7202 H   0  0  0  0  0  0  0  0  0  0  0  0
    6.1594  -15.0665   -6.7981 H   0  0  0  0  0  0  0  0  0  0  0  0
    5.8905  -11.0746   -9.1066 H   0  0  0  0  0  0  0  0  0  0  0  0
    7.6027  -11.3079   -8.5898 H   0  0  0  0  0  0  0  0  0  0  0  0
    6.2968  -12.3466  -11.1578 H   0  0  0  0  0  0  0  0  0  0  0  0
    7.5403  -11.0363  -11.0018 H   0  0  0  0  0  0  0  0  0  0  0  0
    6.9001  -14.5537  -10.7369 H   0  0  0  0  0  0  0  0  0  0  0  0
    8.6047  -14.9337  -10.2454 H   0  0  0  0  0  0  0  0  0  0  0  0
    6.9573  -15.0575   -8.3466 H   0  0  0  0  0  0  0  0  0  0  0  0
    8.2865  -13.8640   -8.0952 H   0  0  0  0  0  0  0  0  0  0  0  0
    4.8647  -11.0305   -7.5217 H   0  0  0  0  0  0  0  0  0  0  0  0
    3.5295  -11.0829   -5.4356 H   0  0  0  0  0  0  0  0  0  0  0  0
    6.5717  -10.8103    0.8667 H   0  0  0  0  0  0  0  0  0  0  0  0
    9.0146  -10.7511    1.3137 H   0  0  0  0  0  0  0  0  0  0  0  0
   11.2860  -11.1960   -1.3270 H   0  0  0  0  0  0  0  0  0  0  0  0
   13.4284  -12.2774    0.4270 H   0  0  0  0  0  0  0  0  0  0  0  0
   13.6275  -11.5028   -1.2020 H   0  0  0  0  0  0  0  0  0  0  0  0
  1  2  1  0
  2  3  2  0
  3  4  1  0
  4  5  1  0
  5  6  2  0
  6  7  1  0
  7  8  2  0
  8  9  1  0
  9 10  1  0
 10 11  1  0
 11 12  2  0
 12 13  1  0
 13 14  2  0
 14 15  1  0
 15 16  1  0
 16 17  1  0
 17 18  1  0
 18 19  1  0
 19 20  1  0
 14 21  1  0
 21 22  2  0
  9 23  2  0
  4 24  2  0
 24 25  1  0
 25 26  2  0
 26 27  1  0
 27 28  2  0
 27 29  1  0
 29 30  1  0
 30 31  1  0
 31 32  3  0
 26  2  1  0
 23  5  1  0
 22 11  1  0
 20 15  1  0
  1 33  1  0
  1 34  1  0
  1 35  1  0
  3 36  1  0
  6 37  1  0
  7 38  1  0
 10 39  1  0
 12 40  1  0
 13 41  1  0
 16 42  1  0
 16 43  1  0
 17 44  1  0
 17 45  1  0
 19 46  1  0
 19 47  1  0
 20 48  1  0
 20 49  1  0
 21 50  1  0
 22 51  1  0
 24 52  1  0
 25 53  1  0
 29 54  1  0
 30 55  1  0
 30 56  1  0
M  END
>  <meeko>  (8) 
{"is_sidechain": [false], "free_energy": -7.784, "intermolecular_energy": -10.157, "internal_energy": -0.993}

$$$$
LIB_HFNYDUGXJCRIRE__M_PUB_ALL__e8__s20260927
     RDKit          3D

 56 59  0  0  0  0  0  0  0  0999 V2000
   10.3810  -14.7320   -5.6840 C   0  0  0  0  0  0  0  0  0  0  0  0
   11.5100  -14.2330   -4.8270 C   0  0  0  0  0  0  0  0  0  0  0  0
   11.2040  -13.6340   -3.5900 C   0  0  0  0  0  0  0  0  0  0  0  0
   12.1950  -13.0970   -2.7430 C   0  0  0  0  0  0  0  0  0  0  0  0
   11.8250  -12.4660   -1.4590 C   0  0  0  0  0  0  0  0  0  0  0  0
   12.6720  -11.6270   -0.7650 C   0  0  0  0  0  0  0  0  0  0  0  0
   12.1830  -11.1190    0.4100 C   0  0  0  0  0  0  0  0  0  0  0  0
   10.9600  -11.4020    0.8890 N   0  0  0  0  0  0  0  0  0  0  0  0
   10.1890  -12.2210    0.1630 C   0  0  0  0  0  0  0  0  0  0  0  0
    8.9070  -12.5830    0.5650 N   0  0  0  0  0  0  0  0  0  0  0  0
    7.7150  -12.8540   -0.1110 C   0  0  0  0  0  0  0  0  0  0  0  0
    7.2050  -14.1560   -0.0820 C   0  0  0  0  0  0  0  0  0  0  0  0
    6.0130  -14.4920   -0.7410 C   0  0  0  0  0  0  0  0  0  0  0  0
    5.2760  -13.5450   -1.4630 C   0  0  0  0  0  0  0  0  0  0  0  0
    4.0930  -13.8990   -2.1030 N   0  0  0  0  0  0  0  0  0  0  0  0
    2.9370  -14.3720   -1.3220 C   0  0  0  0  0  0  0  0  0  0  0  0
    1.9460  -15.1180   -2.2270 C   0  0  0  0  0  0  0  0  0  0  0  0
    1.5430  -14.3160   -3.3470 O   0  0  0  0  0  0  0  0  0  0  0  0
    2.6910  -13.9820   -4.1420 C   0  0  0  0  0  0  0  0  0  0  0  0
    3.7280  -13.1810   -3.3400 C   0  0  0  0  0  0  0  0  0  0  0  0
    5.7860  -12.2430   -1.4760 C   0  0  0  0  0  0  0  0  0  0  0  0
    6.9810  -11.9040   -0.8180 C   0  0  0  0  0  0  0  0  0  0  0  0
   10.5850  -12.7590   -1.0030 N   0  0  0  0  0  0  0  0  0  0  0  0
   13.5300  -13.1870   -3.1720 C   0  0  0  0  0  0  0  0  0  0  0  0
   13.8600  -13.7930   -4.3860 C   0  0  0  0  0  0  0  0  0  0  0  0
   12.8590  -14.3350   -5.2020 C   0  0  0  0  0  0  0  0  0  0  0  0
   13.3090  -14.9920   -6.4540 C   0  0  0  0  0  0  0  0  0  0  0  0
   13.4140  -16.2090   -6.5180 O   0  0  0  0  0  0  0  0  0  0  0  0
   13.5270  -14.1550   -7.5220 N   0  0  0  0  0  0  0  0  0  0  0  0
   13.9450  -14.6960   -8.8010 C   0  0  0  0  0  0  0  0  0  0  0  0
   15.3690  -15.0610   -8.8030 C   0  0  0  0  0  0  0  0  0  0  0  0
   16.4960  -15.3360   -8.7730 N   0  0  0  0  0  0  0  0  0  0  0  0
    9.5645  -15.0929   -5.0412 H   0  0  0  0  0  0  0  0  0  0  0  0
   10.0129  -13.9127   -6.3191 H   0  0  0  0  0  0  0  0  0  0  0  0
   10.7391  -15.5557   -6.3191 H   0  0  0  0  0  0  0  0  0  0  0  0
   10.1521  -13.5831   -3.2725 H   0  0  0  0  0  0  0  0  0  0  0  0
   13.6791  -11.3807   -1.1326 H   0  0  0  0  0  0  0  0  0  0  0  0
   12.8264  -10.4431    0.9924 H   0  0  0  0  0  0  0  0  0  0  0  0
    8.8870  -12.6490    1.5710 H   0  0  0  0  0  0  0  0  0  0  0  0
    7.7513  -14.9347    0.4704 H   0  0  0  0  0  0  0  0  0  0  0  0
    5.6471  -15.5281   -0.6892 H   0  0  0  0  0  0  0  0  0  0  0  0
    3.2878  -15.0518   -0.5315 H   0  0  0  0  0  0  0  0  0  0  0  0
    2.4287  -13.5038   -0.8772 H   0  0  0  0  0  0  0  0  0  0  0  0
    2.4246  -16.0357   -2.5995 H   0  0  0  0  0  0  0  0  0  0  0  0
    1.0501  -15.3536   -1.6338 H   0  0  0  0  0  0  0  0  0  0  0  0
    3.1584  -14.9111   -4.5001 H   0  0  0  0  0  0  0  0  0  0  0  0
    2.3541  -13.3585   -4.9833 H   0  0  0  0  0  0  0  0  0  0  0  0
    4.6290  -13.0380   -3.9546 H   0  0  0  0  0  0  0  0  0  0  0  0
    3.2937  -12.2069   -3.0706 H   0  0  0  0  0  0  0  0  0  0  0  0
    5.2351  -11.4601   -2.0178 H   0  0  0  0  0  0  0  0  0  0  0  0
    7.3443  -10.8667   -0.8622 H   0  0  0  0  0  0  0  0  0  0  0  0
   14.3295  -12.7727   -2.5402 H   0  0  0  0  0  0  0  0  0  0  0  0
   14.9120  -13.8450   -4.7032 H   0  0  0  0  0  0  0  0  0  0  0  0
   13.3190  -13.1670   -7.4400 H   0  0  0  0  0  0  0  0  0  0  0  0
   13.3476  -15.5933   -9.0199 H   0  0  0  0  0  0  0  0  0  0  0  0
   13.7908  -13.9206   -9.5658 H   0  0  0  0  0  0  0  0  0  0  0  0
  1  2  1  0
  2  3  2  0
  3  4  1  0
  4  5  1  0
  5  6  2  0
  6  7  1  0
  7  8  2  0
  8  9  1  0
  9 10  1  0
 10 11  1  0
 11 12  2  0
 12 13  1  0
 13 14  2  0
 14 15  1  0
 15 16  1  0
 16 17  1  0
 17 18  1  0
 18 19  1  0
 19 20  1  0
 14 21  1  0
 21 22  2  0
  9 23  2  0
  4 24  2  0
 24 25  1  0
 25 26  2  0
 26 27  1  0
 27 28  2  0
 27 29  1  0
 29 30  1  0
 30 31  1  0
 31 32  3  0
 26  2  1  0
 23  5  1  0
 22 11  1  0
 20 15  1  0
  1 33  1  0
  1 34  1  0
  1 35  1  0
  3 36  1  0
  6 37  1  0
  7 38  1  0
 10 39  1  0
 12 40  1  0
 13 41  1  0
 16 42  1  0
 16 43  1  0
 17 44  1  0
 17 45  1  0
 19 46  1  0
 19 47  1  0
 20 48  1  0
 20 49  1  0
 21 50  1  0
 22 51  1  0
 24 52  1  0
 25 53  1  0
 29 54  1  0
 30 55  1  0
 30 56  1  0
M  END
>  <meeko>  (9) 
{"is_sidechain": [false], "free_energy": -7.649, "intermolecular_energy": -10.058, "internal_energy": -0.909}

$$$$
