LIB_XCQOHJYGSBLSOW__M_PUB_ALL__e8__s20260927
     RDKit          3D

 69 73  0  0  0  0  0  0  0  0999 V2000
   -6.4840  -13.9820    7.6740 C   0  0  0  0  0  0  0  0  0  0  0  0
   -6.1550  -15.3640    8.2180 C   0  0  2  0  0  0  0  0  0  0  0  0
   -4.7970  -15.3550    8.6710 O   0  0  0  0  0  0  0  0  0  0  0  0
   -6.3290  -16.4500    7.1390 C   0  0  0  0  0  0  0  0  0  0  0  0
   -5.5500  -16.1410    5.9590 N   0  0  0  0  0  0  0  0  0  0  0  0
   -4.4520  -16.8610    5.5860 C   0  0  0  0  0  0  0  0  0  0  0  0
   -4.5250  -17.4670    4.4000 N   0  0  0  0  0  0  0  0  0  0  0  0
   -3.4560  -18.1860    4.0170 C   0  0  0  0  0  0  0  0  0  0  0  0
   -2.3110  -18.3110    4.7660 C   0  0  0  0  0  0  0  0  0  0  0  0
   -2.3080  -17.6310    5.9640 C   0  0  0  0  0  0  0  0  0  0  0  0
   -1.1890  -17.6790    6.8530 N   0  0  0  0  0  0  0  0  0  0  0  0
   -1.2680  -18.1720    8.1440 C   0  0  0  0  0  0  0  0  0  0  0  0
    0.0170  -18.2280    8.6140 C   0  0  0  0  0  0  0  0  0  0  0  0
    0.8830  -17.7190    7.6930 N   0  0  0  0  0  0  0  0  0  0  0  0
    0.1450  -17.3030    6.6740 C   0  0  0  0  0  0  0  0  0  0  0  0
    0.7030  -16.5100    5.5780 C   0  0  0  0  0  0  0  0  0  0  0  0
    1.2540  -17.1570    4.4660 C   0  0  0  0  0  0  0  0  0  0  0  0
    1.8020  -16.4160    3.4140 C   0  0  0  0  0  0  0  0  0  0  0  0
    1.8220  -15.0170    3.4590 C   0  0  0  0  0  0  0  0  0  0  0  0
    2.3850  -14.3460    2.3530 N   0  0  0  0  0  0  0  0  0  0  0  0
    1.7360  -13.9340    1.2030 C   0  0  0  0  0  0  0  0  0  0  0  0
    0.5410  -14.0330    0.9530 O   0  0  0  0  0  0  0  0  0  0  0  0
    2.6120  -13.2820    0.1900 C   0  0  0  0  0  0  0  0  0  0  0  0
    3.9940  -13.5100    0.2630 C   0  0  0  0  0  0  0  0  0  0  0  0
    4.8900  -12.9340   -0.6500 C   0  0  0  0  0  0  0  0  0  0  0  0
    6.2520  -13.1930   -0.5650 N   0  0  0  0  0  0  0  0  0  0  0  0
    6.6830  -14.5630   -0.2120 C   0  0  0  0  0  0  0  0  0  0  0  0
    8.1420  -14.7980   -0.6370 C   0  0  0  0  0  0  0  0  0  0  0  0
    9.0190  -13.7960   -0.1010 O   0  0  0  0  0  0  0  0  0  0  0  0
    8.6280  -12.5020   -0.5820 C   0  0  0  0  0  0  0  0  0  0  0  0
    7.2000  -12.1430   -0.1480 C   0  0  0  0  0  0  0  0  0  0  0  0
    4.3380  -12.1180   -1.6500 C   0  0  0  0  0  0  0  0  0  0  0  0
    2.9570  -11.8480   -1.7270 C   0  0  0  0  0  0  0  0  0  0  0  0
    2.4140  -10.9580   -2.8160 C   0  0  0  0  0  0  0  0  0  0  0  0
    3.3660  -10.1510   -3.3630 F   0  0  0  0  0  0  0  0  0  0  0  0
    1.4390  -10.1250   -2.3560 F   0  0  0  0  0  0  0  0  0  0  0  0
    1.8650  -11.6450   -3.8550 F   0  0  0  0  0  0  0  0  0  0  0  0
    2.0940  -12.4420   -0.7980 C   0  0  0  0  0  0  0  0  0  0  0  0
    1.2940  -14.3730    4.5790 C   0  0  0  0  0  0  0  0  0  0  0  0
    0.7510  -15.1130    5.6360 C   0  0  0  0  0  0  0  0  0  0  0  0
   -3.3830  -16.9240    6.3880 N   0  0  0  0  0  0  0  0  0  0  0  0
   -6.6492  -13.2881    8.5114 H   0  0  0  0  0  0  0  0  0  0  0  0
   -5.6466  -13.6213    7.0586 H   0  0  0  0  0  0  0  0  0  0  0  0
   -7.3941  -14.0373    7.0586 H   0  0  0  0  0  0  0  0  0  0  0  0
   -6.8441  -15.5976    9.0430 H   0  0  0  0  0  0  0  0  0  0  0  0
   -4.3370  -14.7330    8.0750 H   0  0  0  0  0  0  0  0  0  0  0  0
   -5.9974  -17.4168    7.5455 H   0  0  0  0  0  0  0  0  0  0  0  0
   -7.3909  -16.4939    6.8553 H   0  0  0  0  0  0  0  0  0  0  0  0
   -5.8520  -15.4430    5.2970 H   0  0  0  0  0  0  0  0  0  0  0  0
   -3.5004  -18.7044    3.0478 H   0  0  0  0  0  0  0  0  0  0  0  0
   -1.4539  -18.9138    4.4314 H   0  0  0  0  0  0  0  0  0  0  0  0
   -2.1812  -18.4612    8.6848 H   0  0  0  0  0  0  0  0  0  0  0  0
    0.3090  -18.6275    9.5964 H   0  0  0  0  0  0  0  0  0  0  0  0
    1.2561  -18.2560    4.4191 H   0  0  0  0  0  0  0  0  0  0  0  0
    2.2219  -16.9383    2.5417 H   0  0  0  0  0  0  0  0  0  0  0  0
    3.3640  -14.1080    2.4400 H   0  0  0  0  0  0  0  0  0  0  0  0
    4.3868  -14.1593    1.0593 H   0  0  0  0  0  0  0  0  0  0  0  0
    6.5969  -14.6999    0.8760 H   0  0  0  0  0  0  0  0  0  0  0  0
    6.0399  -15.2837   -0.7384 H   0  0  0  0  0  0  0  0  0  0  0  0
    8.4645  -15.7851   -0.2741 H   0  0  0  0  0  0  0  0  0  0  0  0
    8.1921  -14.7460   -1.7346 H   0  0  0  0  0  0  0  0  0  0  0  0
    9.3223  -11.7483   -0.1822 H   0  0  0  0  0  0  0  0  0  0  0  0
    8.6578  -12.5213   -1.6814 H   0  0  0  0  0  0  0  0  0  0  0  0
    7.1694  -12.0422    0.9469 H   0  0  0  0  0  0  0  0  0  0  0  0
    6.9118  -11.1948   -0.6253 H   0  0  0  0  0  0  0  0  0  0  0  0
    5.0077  -11.6732   -2.4008 H   0  0  0  0  0  0  0  0  0  0  0  0
    1.0124  -12.2477   -0.8463 H   0  0  0  0  0  0  0  0  0  0  0  0
    1.3046  -13.2743    4.6316 H   0  0  0  0  0  0  0  0  0  0  0  0
    0.3582  -14.5909    6.5209 H   0  0  0  0  0  0  0  0  0  0  0  0
  1  2  1  0
  2  3  1  0
  2  4  1  0
  4  5  1  0
  5  6  1  0
  6  7  2  0
  7  8  1  0
  8  9  2  0
  9 10  1  0
 10 11  1  0
 11 12  1  0
 12 13  2  0
 13 14  1  0
 14 15  2  0
 15 16  1  0
 16 17  2  0
 17 18  1  0
 18 19  2  0
 19 20  1  0
 20 21  1  0
 21 22  2  0
 21 23  1  0
 23 24  2  0
 24 25  1  0
 25 26  1  0
 26 27  1  0
 27 28  1  0
 28 29  1  0
 29 30  1  0
 30 31  1  0
 25 32  2  0
 32 33  1  0
 33 34  1  0
 34 35  1  0
 34 36  1  0
 34 37  1  0
 33 38  2  0
 19 39  1  0
 39 40  2  0
 10 41  2  0
 41  6  1  0
 15 11  1  0
 40 16  1  0
 38 23  1  0
 31 26  1  0
  1 42  1  0
  1 43  1  0
  1 44  1  0
  2 45  1  1
  3 46  1  0
  4 47  1  0
  4 48  1  0
  5 49  1  0
  8 50  1  0
  9 51  1  0
 12 52  1  0
 13 53  1  0
 17 54  1  0
 18 55  1  0
 20 56  1  0
 24 57  1  0
 27 58  1  0
 27 59  1  0
 28 60  1  0
 28 61  1  0
 30 62  1  0
 30 63  1  0
 31 64  1  0
 31 65  1  0
 32 66  1  0
 38 67  1  0
 39 68  1  0
 40 69  1  0
M  END
>  <meeko>  (1) 
{"is_sidechain": [false], "free_energy": -8.136, "intermolecular_energy": -12.655, "internal_energy": -1.936}

$$$$
LIB_XCQOHJYGSBLSOW__M_PUB_ALL__e8__s20260927
     RDKit          3D

 69 73  0  0  0  0  0  0  0  0999 V2000
    3.4470  -12.3530   -4.5970 C   0  0  0  0  0  0  0  0  0  0  0  0
    4.7840  -12.3750   -3.8720 C   0  0  2  0  0  0  0  0  0  0  0  0
    4.9370  -11.1320   -3.1780 O   0  0  0  0  0  0  0  0  0  0  0  0
    5.9540  -12.5640   -4.8550 C   0  0  0  0  0  0  0  0  0  0  0  0
    7.1770  -12.0000   -4.3230 N   0  0  0  0  0  0  0  0  0  0  0  0
    8.1360  -12.7530   -3.7110 C   0  0  0  0  0  0  0  0  0  0  0  0
    8.5820  -13.8050   -4.4000 N   0  0  0  0  0  0  0  0  0  0  0  0
    9.5230  -14.5630   -3.8120 C   0  0  0  0  0  0  0  0  0  0  0  0
   10.0470  -14.3030   -2.5690 C   0  0  0  0  0  0  0  0  0  0  0  0
    9.5520  -13.1840   -1.9380 C   0  0  0  0  0  0  0  0  0  0  0  0
    9.9960  -12.7960   -0.6360 N   0  0  0  0  0  0  0  0  0  0  0  0
   11.3210  -12.8460   -0.2410 C   0  0  0  0  0  0  0  0  0  0  0  0
   11.3830  -12.2320    0.9810 C   0  0  0  0  0  0  0  0  0  0  0  0
   10.1370  -11.8700    1.3950 N   0  0  0  0  0  0  0  0  0  0  0  0
    9.2950  -12.2950    0.4640 C   0  0  0  0  0  0  0  0  0  0  0  0
    7.8440  -12.2700    0.6540 C   0  0  0  0  0  0  0  0  0  0  0  0
    7.1040  -13.4450    0.4870 C   0  0  0  0  0  0  0  0  0  0  0  0
    5.7150  -13.4390    0.6520 C   0  0  0  0  0  0  0  0  0  0  0  0
    5.0380  -12.2570    0.9760 C   0  0  0  0  0  0  0  0  0  0  0  0
    3.6390  -12.3390    1.1340 N   0  0  0  0  0  0  0  0  0  0  0  0
    2.6720  -12.1230    0.1680 C   0  0  0  0  0  0  0  0  0  0  0  0
    2.8550  -11.8690   -1.0160 O   0  0  0  0  0  0  0  0  0  0  0  0
    1.2690  -12.2460    0.6510 C   0  0  0  0  0  0  0  0  0  0  0  0
    0.7430  -13.5310    0.8440 C   0  0  0  0  0  0  0  0  0  0  0  0
   -0.5700  -13.7350    1.2960 C   0  0  0  0  0  0  0  0  0  0  0  0
   -1.0570  -15.0200    1.4970 N   0  0  0  0  0  0  0  0  0  0  0  0
   -2.1960  -15.2010    2.4250 C   0  0  0  0  0  0  0  0  0  0  0  0
   -2.9050  -16.5380    2.1590 C   0  0  0  0  0  0  0  0  0  0  0  0
   -1.9880  -17.6430    2.2010 O   0  0  0  0  0  0  0  0  0  0  0  0
   -0.9810  -17.4760    1.1930 C   0  0  0  0  0  0  0  0  0  0  0  0
   -0.1660  -16.1930    1.4120 C   0  0  0  0  0  0  0  0  0  0  0  0
   -1.3370  -12.5890    1.5520 C   0  0  0  0  0  0  0  0  0  0  0  0
   -0.8430  -11.2870    1.3370 C   0  0  0  0  0  0  0  0  0  0  0  0
   -1.7100  -10.0860    1.6200 C   0  0  0  0  0  0  0  0  0  0  0  0
   -2.7080   -9.9280    0.7070 F   0  0  0  0  0  0  0  0  0  0  0  0
   -0.9980   -8.9250    1.5990 F   0  0  0  0  0  0  0  0  0  0  0  0
   -2.3200  -10.1320    2.8360 F   0  0  0  0  0  0  0  0  0  0  0  0
    0.4720  -11.1230    0.8860 C   0  0  0  0  0  0  0  0  0  0  0  0
    5.7740  -11.0800    1.1190 C   0  0  0  0  0  0  0  0  0  0  0  0
    7.1640  -11.0830    0.9470 C   0  0  0  0  0  0  0  0  0  0  0  0
    8.5820  -12.4190   -2.4960 N   0  0  0  0  0  0  0  0  0  0  0  0
    2.6305  -12.3396   -3.8601 H   0  0  0  0  0  0  0  0  0  0  0  0
    3.3866  -11.4537   -5.2276 H   0  0  0  0  0  0  0  0  0  0  0  0
    3.3571  -13.2498   -5.2276 H   0  0  0  0  0  0  0  0  0  0  0  0
    4.7977  -13.2215   -3.1697 H   0  0  0  0  0  0  0  0  0  0  0  0
    4.1340  -11.0500   -2.6290 H   0  0  0  0  0  0  0  0  0  0  0  0
    6.1024  -13.6390   -5.0347 H   0  0  0  0  0  0  0  0  0  0  0  0
    5.7092  -12.0457   -5.7939 H   0  0  0  0  0  0  0  0  0  0  0  0
    7.4230  -11.0350   -4.4810 H   0  0  0  0  0  0  0  0  0  0  0  0
    9.8953  -15.4426   -4.3576 H   0  0  0  0  0  0  0  0  0  0  0  0
   10.8113  -14.9462   -2.1085 H   0  0  0  0  0  0  0  0  0  0  0  0
   12.1585  -13.2909   -0.7983 H   0  0  0  0  0  0  0  0  0  0  0  0
   12.3087  -12.0558    1.5485 H   0  0  0  0  0  0  0  0  0  0  0  0
    7.6183  -14.3811    0.2239 H   0  0  0  0  0  0  0  0  0  0  0  0
    5.1483  -14.3733    0.5258 H   0  0  0  0  0  0  0  0  0  0  0  0
    3.3200  -12.6280    2.0490 H   0  0  0  0  0  0  0  0  0  0  0  0
    1.3777  -14.4048    0.6351 H   0  0  0  0  0  0  0  0  0  0  0  0
   -1.8240  -15.1890    3.4601 H   0  0  0  0  0  0  0  0  0  0  0  0
   -2.9138  -14.3823    2.2684 H   0  0  0  0  0  0  0  0  0  0  0  0
   -3.6804  -16.6889    2.9245 H   0  0  0  0  0  0  0  0  0  0  0  0
   -3.3474  -16.4974    1.1527 H   0  0  0  0  0  0  0  0  0  0  0  0
   -0.3007  -18.3399    1.2221 H   0  0  0  0  0  0  0  0  0  0  0  0
   -1.4820  -17.4017    0.2165 H   0  0  0  0  0  0  0  0  0  0  0  0
    0.4043  -16.2824    2.3484 H   0  0  0  0  0  0  0  0  0  0  0  0
    0.5181  -16.0578    0.5613 H   0  0  0  0  0  0  0  0  0  0  0  0
   -2.3611  -12.7110    1.9344 H   0  0  0  0  0  0  0  0  0  0  0  0
    0.8761  -10.1139    0.7173 H   0  0  0  0  0  0  0  0  0  0  0  0
    5.2578  -10.1414    1.3691 H   0  0  0  0  0  0  0  0  0  0  0  0
    7.7266  -10.1427    1.0433 H   0  0  0  0  0  0  0  0  0  0  0  0
  1  2  1  0
  2  3  1  0
  2  4  1  0
  4  5  1  0
  5  6  1  0
  6  7  2  0
  7  8  1  0
  8  9  2  0
  9 10  1  0
 10 11  1  0
 11 12  1  0
 12 13  2  0
 13 14  1  0
 14 15  2  0
 15 16  1  0
 16 17  2  0
 17 18  1  0
 18 19  2  0
 19 20  1  0
 20 21  1  0
 21 22  2  0
 21 23  1  0
 23 24  2  0
 24 25  1  0
 25 26  1  0
 26 27  1  0
 27 28  1  0
 28 29  1  0
 29 30  1  0
 30 31  1  0
 25 32  2  0
 32 33  1  0
 33 34  1  0
 34 35  1  0
 34 36  1  0
 34 37  1  0
 33 38  2  0
 19 39  1  0
 39 40  2  0
 10 41  2  0
 41  6  1  0
 15 11  1  0
 40 16  1  0
 38 23  1  0
 31 26  1  0
  1 42  1  0
  1 43  1  0
  1 44  1  0
  2 45  1  1
  3 46  1  0
  4 47  1  0
  4 48  1  0
  5 49  1  0
  8 50  1  0
  9 51  1  0
 12 52  1  0
 13 53  1  0
 17 54  1  0
 18 55  1  0
 20 56  1  0
 24 57  1  0
 27 58  1  0
 27 59  1  0
 28 60  1  0
 28 61  1  0
 30 62  1  0
 30 63  1  0
 31 64  1  0
 31 65  1  0
 32 66  1  0
 38 67  1  0
 39 68  1  0
 40 69  1  0
M  END
>  <meeko>  (2) 
{"is_sidechain": [false], "free_energy": -8.103, "intermolecular_energy": -12.719, "internal_energy": -1.821}

$$$$
LIB_XCQOHJYGSBLSOW__M_PUB_ALL__e8__s20260927
     RDKit          3D

 69 73  0  0  0  0  0  0  0  0999 V2000
  -11.2580  -23.2430   10.1200 C   0  0  0  0  0  0  0  0  0  0  0  0
  -11.3970  -23.0800    8.6140 C   0  0  2  0  0  0  0  0  0  0  0  0
  -11.2830  -24.3730    8.0110 O   0  0  0  0  0  0  0  0  0  0  0  0
  -10.3100  -22.1490    8.0460 C   0  0  0  0  0  0  0  0  0  0  0  0
   -9.2840  -21.8850    9.0320 N   0  0  0  0  0  0  0  0  0  0  0  0
   -8.8650  -20.6260    9.3480 C   0  0  0  0  0  0  0  0  0  0  0  0
   -7.6760  -20.5370    9.9470 N   0  0  0  0  0  0  0  0  0  0  0  0
   -7.2480  -19.3050   10.2720 C   0  0  0  0  0  0  0  0  0  0  0  0
   -7.9550  -18.1570   10.0080 C   0  0  0  0  0  0  0  0  0  0  0  0
   -9.1580  -18.3350    9.3630 C   0  0  0  0  0  0  0  0  0  0  0  0
  -10.0060  -17.2320    9.0340 N   0  0  0  0  0  0  0  0  0  0  0  0
  -11.2850  -17.0820    9.5410 C   0  0  0  0  0  0  0  0  0  0  0  0
  -11.7080  -15.8370    9.1580 C   0  0  0  0  0  0  0  0  0  0  0  0
  -10.7720  -15.2380    8.3710 N   0  0  0  0  0  0  0  0  0  0  0  0
   -9.7910  -16.1160    8.2210 C   0  0  0  0  0  0  0  0  0  0  0  0
   -8.6970  -15.9100    7.2700 C   0  0  0  0  0  0  0  0  0  0  0  0
   -7.5500  -15.2190    7.6730 C   0  0  0  0  0  0  0  0  0  0  0  0
   -6.4990  -15.0030    6.7750 C   0  0  0  0  0  0  0  0  0  0  0  0
   -6.5800  -15.4620    5.4550 C   0  0  0  0  0  0  0  0  0  0  0  0
   -5.4740  -15.2100    4.6180 N   0  0  0  0  0  0  0  0  0  0  0  0
   -4.3640  -16.0150    4.4300 C   0  0  0  0  0  0  0  0  0  0  0  0
   -4.1600  -17.1180    4.9200 O   0  0  0  0  0  0  0  0  0  0  0  0
   -3.3370  -15.4570    3.5060 C   0  0  0  0  0  0  0  0  0  0  0  0
   -3.6790  -14.3400    2.7310 C   0  0  0  0  0  0  0  0  0  0  0  0
   -2.7720  -13.7530    1.8350 C   0  0  0  0  0  0  0  0  0  0  0  0
   -3.1320  -12.6350    1.0940 N   0  0  0  0  0  0  0  0  0  0  0  0
   -2.4660  -11.3490    1.3980 C   0  0  0  0  0  0  0  0  0  0  0  0
   -2.5970  -10.3770    0.2140 C   0  0  0  0  0  0  0  0  0  0  0  0
   -3.9670  -10.2020   -0.1790 O   0  0  0  0  0  0  0  0  0  0  0  0
   -4.5210  -11.4610   -0.5850 C   0  0  0  0  0  0  0  0  0  0  0  0
   -4.4980  -12.4860    0.5580 C   0  0  0  0  0  0  0  0  0  0  0  0
   -1.4980  -14.3350    1.7530 C   0  0  0  0  0  0  0  0  0  0  0  0
   -1.1390  -15.4750    2.4980 C   0  0  0  0  0  0  0  0  0  0  0  0
    0.2410  -16.0680    2.3680 C   0  0  0  0  0  0  0  0  0  0  0  0
    0.2360  -17.2980    1.7830 F   0  0  0  0  0  0  0  0  0  0  0  0
    0.8420  -16.2340    3.5790 F   0  0  0  0  0  0  0  0  0  0  0  0
    1.0910  -15.3050    1.6260 F   0  0  0  0  0  0  0  0  0  0  0  0
   -2.0710  -16.0330    3.3810 C   0  0  0  0  0  0  0  0  0  0  0  0
   -7.7350  -16.1300    5.0470 C   0  0  0  0  0  0  0  0  0  0  0  0
   -8.7910  -16.3420    5.9420 C   0  0  0  0  0  0  0  0  0  0  0  0
   -9.6270  -19.5680    9.0510 N   0  0  0  0  0  0  0  0  0  0  0  0
  -11.8907  -22.5010   10.6291 H   0  0  0  0  0  0  0  0  0  0  0  0
  -11.5748  -24.2557   10.4100 H   0  0  0  0  0  0  0  0  0  0  0  0
  -10.2080  -23.0901   10.4100 H   0  0  0  0  0  0  0  0  0  0  0  0
  -12.3746  -22.6275    8.3912 H   0  0  0  0  0  0  0  0  0  0  0  0
  -10.3400  -24.4550    7.7700 H   0  0  0  0  0  0  0  0  0  0  0  0
   -9.8504  -22.6267    7.1681 H   0  0  0  0  0  0  0  0  0  0  0  0
  -10.7789  -21.1945    7.7650 H   0  0  0  0  0  0  0  0  0  0  0  0
   -8.9090  -22.6210    9.6110 H   0  0  0  0  0  0  0  0  0  0  0  0
   -6.2760  -19.2105   10.7783 H   0  0  0  0  0  0  0  0  0  0  0  0
   -7.5843  -17.1614   10.2932 H   0  0  0  0  0  0  0  0  0  0  0  0
  -11.8496  -17.8167   10.1338 H   0  0  0  0  0  0  0  0  0  0  0  0
  -12.6685  -15.3846    9.4456 H   0  0  0  0  0  0  0  0  0  0  0  0
   -7.4735  -14.8424    8.7037 H   0  0  0  0  0  0  0  0  0  0  0  0
   -5.5990  -14.4665    7.1100 H   0  0  0  0  0  0  0  0  0  0  0  0
   -5.5280  -14.3640    4.0670 H   0  0  0  0  0  0  0  0  0  0  0  0
   -4.6873  -13.9112    2.8279 H   0  0  0  0  0  0  0  0  0  0  0  0
   -2.9343  -10.9009    2.2868 H   0  0  0  0  0  0  0  0  0  0  0  0
   -1.3985  -11.5384    1.5841 H   0  0  0  0  0  0  0  0  0  0  0  0
   -2.1823   -9.4010    0.5062 H   0  0  0  0  0  0  0  0  0  0  0  0
   -2.0462  -10.7992   -0.6394 H   0  0  0  0  0  0  0  0  0  0  0  0
   -5.5622  -11.3061   -0.9042 H   0  0  0  0  0  0  0  0  0  0  0  0
   -3.9102  -11.8543   -1.4110 H   0  0  0  0  0  0  0  0  0  0  0  0
   -5.1669  -12.1457    1.3623 H   0  0  0  0  0  0  0  0  0  0  0  0
   -4.8345  -13.4584    0.1692 H   0  0  0  0  0  0  0  0  0  0  0  0
   -0.7520  -13.8842    1.0820 H   0  0  0  0  0  0  0  0  0  0  0  0
   -1.8073  -16.9213    3.9738 H   0  0  0  0  0  0  0  0  0  0  0  0
   -7.8169  -16.4937    4.0121 H   0  0  0  0  0  0  0  0  0  0  0  0
   -9.7026  -16.8527    5.5982 H   0  0  0  0  0  0  0  0  0  0  0  0
  1  2  1  0
  2  3  1  0
  2  4  1  0
  4  5  1  0
  5  6  1  0
  6  7  2  0
  7  8  1  0
  8  9  2  0
  9 10  1  0
 10 11  1  0
 11 12  1  0
 12 13  2  0
 13 14  1  0
 14 15  2  0
 15 16  1  0
 16 17  2  0
 17 18  1  0
 18 19  2  0
 19 20  1  0
 20 21  1  0
 21 22  2  0
 21 23  1  0
 23 24  2  0
 24 25  1  0
 25 26  1  0
 26 27  1  0
 27 28  1  0
 28 29  1  0
 29 30  1  0
 30 31  1  0
 25 32  2  0
 32 33  1  0
 33 34  1  0
 34 35  1  0
 34 36  1  0
 34 37  1  0
 33 38  2  0
 19 39  1  0
 39 40  2  0
 10 41  2  0
 41  6  1  0
 15 11  1  0
 40 16  1  0
 38 23  1  0
 31 26  1  0
  1 42  1  0
  1 43  1  0
  1 44  1  0
  2 45  1  1
  3 46  1  0
  4 47  1  0
  4 48  1  0
  5 49  1  0
  8 50  1  0
  9 51  1  0
 12 52  1  0
 13 53  1  0
 17 54  1  0
 18 55  1  0
 20 56  1  0
 24 57  1  0
 27 58  1  0
 27 59  1  0
 28 60  1  0
 28 61  1  0
 30 62  1  0
 30 63  1  0
 31 64  1  0
 31 65  1  0
 32 66  1  0
 38 67  1  0
 39 68  1  0
 40 69  1  0
M  END
>  <meeko>  (3) 
{"is_sidechain": [false], "free_energy": -8.039, "intermolecular_energy": -12.755, "internal_energy": -1.685}

$$$$
LIB_XCQOHJYGSBLSOW__M_PUB_ALL__e8__s20260927
     RDKit          3D

 69 73  0  0  0  0  0  0  0  0999 V2000
  -11.2410  -23.2310   10.1240 C   0  0  0  0  0  0  0  0  0  0  0  0
  -11.3960  -23.0920    8.6170 C   0  0  2  0  0  0  0  0  0  0  0  0
  -11.3130  -24.3980    8.0360 O   0  0  0  0  0  0  0  0  0  0  0  0
  -10.2990  -22.1930    8.0190 C   0  0  0  0  0  0  0  0  0  0  0  0
   -9.2580  -21.9260    8.9890 N   0  0  0  0  0  0  0  0  0  0  0  0
   -8.8330  -20.6650    9.2930 C   0  0  0  0  0  0  0  0  0  0  0  0
   -7.6200  -20.5730    9.8410 N   0  0  0  0  0  0  0  0  0  0  0  0
   -7.1860  -19.3400   10.1540 C   0  0  0  0  0  0  0  0  0  0  0  0
   -7.9090  -18.1950    9.9270 C   0  0  0  0  0  0  0  0  0  0  0  0
   -9.1380  -18.3770    9.3330 C   0  0  0  0  0  0  0  0  0  0  0  0
  -10.0060  -17.2770    9.0460 N   0  0  0  0  0  0  0  0  0  0  0  0
  -11.2670  -17.1430    9.5980 C   0  0  0  0  0  0  0  0  0  0  0  0
  -11.7130  -15.8980    9.2450 C   0  0  0  0  0  0  0  0  0  0  0  0
  -10.8090  -15.2820    8.4330 N   0  0  0  0  0  0  0  0  0  0  0  0
   -9.8280  -16.1500    8.2390 C   0  0  0  0  0  0  0  0  0  0  0  0
   -8.7690  -15.9250    7.2530 C   0  0  0  0  0  0  0  0  0  0  0  0
   -7.6200  -15.2170    7.6210 C   0  0  0  0  0  0  0  0  0  0  0  0
   -6.6030  -14.9810    6.6900 C   0  0  0  0  0  0  0  0  0  0  0  0
   -6.7200  -15.4380    5.3720 C   0  0  0  0  0  0  0  0  0  0  0  0
   -5.6460  -15.1660    4.4990 N   0  0  0  0  0  0  0  0  0  0  0  0
   -4.5410  -15.9630    4.2570 C   0  0  0  0  0  0  0  0  0  0  0  0
   -4.3150  -17.0730    4.7190 O   0  0  0  0  0  0  0  0  0  0  0  0
   -3.5510  -15.3840    3.3060 C   0  0  0  0  0  0  0  0  0  0  0  0
   -2.4670  -16.1810    2.9100 C   0  0  0  0  0  0  0  0  0  0  0  0
   -1.4900  -15.7140    2.0190 C   0  0  0  0  0  0  0  0  0  0  0  0
   -0.4380  -16.5330    1.6280 N   0  0  0  0  0  0  0  0  0  0  0  0
   -0.4410  -17.0690    0.2490 C   0  0  0  0  0  0  0  0  0  0  0  0
    0.9710  -17.5150   -0.1630 C   0  0  0  0  0  0  0  0  0  0  0  0
    1.5320  -18.4410    0.7800 O   0  0  0  0  0  0  0  0  0  0  0  0
    1.6300  -17.8200    2.0700 C   0  0  0  0  0  0  0  0  0  0  0  0
    0.2530  -17.3990    2.6030 C   0  0  0  0  0  0  0  0  0  0  0  0
   -1.6470  -14.4060    1.5350 C   0  0  0  0  0  0  0  0  0  0  0  0
   -2.7100  -13.5740    1.9400 C   0  0  0  0  0  0  0  0  0  0  0  0
   -2.8310  -12.1730    1.3970 C   0  0  0  0  0  0  0  0  0  0  0  0
   -2.6210  -11.2180    2.3460 F   0  0  0  0  0  0  0  0  0  0  0  0
   -4.0700  -11.9270    0.8890 F   0  0  0  0  0  0  0  0  0  0  0  0
   -1.9510  -11.9020    0.3940 F   0  0  0  0  0  0  0  0  0  0  0  0
   -3.6660  -14.0760    2.8310 C   0  0  0  0  0  0  0  0  0  0  0  0
   -7.8780  -16.1230    4.9990 C   0  0  0  0  0  0  0  0  0  0  0  0
   -8.9000  -16.3540    5.9280 C   0  0  0  0  0  0  0  0  0  0  0  0
   -9.6130  -19.6100    9.0350 N   0  0  0  0  0  0  0  0  0  0  0  0
  -11.9685  -22.5786   10.6291 H   0  0  0  0  0  0  0  0  0  0  0  0
  -11.4209  -24.2761   10.4163 H   0  0  0  0  0  0  0  0  0  0  0  0
  -10.2216  -22.9388   10.4163 H   0  0  0  0  0  0  0  0  0  0  0  0
  -12.3676  -22.6249    8.3984 H   0  0  0  0  0  0  0  0  0  0  0  0
  -10.3750  -24.5020    7.7860 H   0  0  0  0  0  0  0  0  0  0  0  0
   -9.8569  -22.6973    7.1471 H   0  0  0  0  0  0  0  0  0  0  0  0
  -10.7541  -21.2364    7.7226 H   0  0  0  0  0  0  0  0  0  0  0  0
   -8.8760  -22.6600    9.5650 H   0  0  0  0  0  0  0  0  0  0  0  0
   -6.1939  -19.2426   10.6191 H   0  0  0  0  0  0  0  0  0  0  0  0
   -7.5317  -17.1988   10.2013 H   0  0  0  0  0  0  0  0  0  0  0  0
  -11.8050  -17.8891   10.2012 H   0  0  0  0  0  0  0  0  0  0  0  0
  -12.6666  -15.4571    9.5709 H   0  0  0  0  0  0  0  0  0  0  0  0
   -7.5154  -14.8431    8.6502 H   0  0  0  0  0  0  0  0  0  0  0  0
   -5.7016  -14.4303    6.9969 H   0  0  0  0  0  0  0  0  0  0  0  0
   -5.7240  -14.3110    3.9660 H   0  0  0  0  0  0  0  0  0  0  0  0
   -2.3807  -17.2021    3.3100 H   0  0  0  0  0  0  0  0  0  0  0  0
   -1.1215  -17.9318    0.1983 H   0  0  0  0  0  0  0  0  0  0  0  0
   -0.7766  -16.2777   -0.4375 H   0  0  0  0  0  0  0  0  0  0  0  0
    0.9183  -17.9988   -1.1495 H   0  0  0  0  0  0  0  0  0  0  0  0
    1.6162  -16.6246   -0.1944 H   0  0  0  0  0  0  0  0  0  0  0  0
    2.0828  -18.5325    2.7753 H   0  0  0  0  0  0  0  0  0  0  0  0
    2.2500  -16.9169    1.9699 H   0  0  0  0  0  0  0  0  0  0  0  0
   -0.3552  -18.2976    2.7833 H   0  0  0  0  0  0  0  0  0  0  0  0
    0.3910  -16.8391    3.5398 H   0  0  0  0  0  0  0  0  0  0  0  0
   -0.9139  -14.0161    0.8135 H   0  0  0  0  0  0  0  0  0  0  0  0
   -4.5046  -13.4424    3.1557 H   0  0  0  0  0  0  0  0  0  0  0  0
   -7.9885  -16.4845    3.9660 H   0  0  0  0  0  0  0  0  0  0  0  0
   -9.8145  -16.8778    5.6129 H   0  0  0  0  0  0  0  0  0  0  0  0
  1  2  1  0
  2  3  1  0
  2  4  1  0
  4  5  1  0
  5  6  1  0
  6  7  2  0
  7  8  1  0
  8  9  2  0
  9 10  1  0
 10 11  1  0
 11 12  1  0
 12 13  2  0
 13 14  1  0
 14 15  2  0
 15 16  1  0
 16 17  2  0
 17 18  1  0
 18 19  2  0
 19 20  1  0
 20 21  1  0
 21 22  2  0
 21 23  1  0
 23 24  2  0
 24 25  1  0
 25 26  1  0
 26 27  1  0
 27 28  1  0
 28 29  1  0
 29 30  1  0
 30 31  1  0
 25 32  2  0
 32 33  1  0
 33 34  1  0
 34 35  1  0
 34 36  1  0
 34 37  1  0
 33 38  2  0
 19 39  1  0
 39 40  2  0
 10 41  2  0
 41  6  1  0
 15 11  1  0
 40 16  1  0
 38 23  1  0
 31 26  1  0
  1 42  1  0
  1 43  1  0
  1 44  1  0
  2 45  1  1
  3 46  1  0
  4 47  1  0
  4 48  1  0
  5 49  1  0
  8 50  1  0
  9 51  1  0
 12 52  1  0
 13 53  1  0
 17 54  1  0
 18 55  1  0
 20 56  1  0
 24 57  1  0
 27 58  1  0
 27 59  1  0
 28 60  1  0
 28 61  1  0
 30 62  1  0
 30 63  1  0
 31 64  1  0
 31 65  1  0
 32 66  1  0
 38 67  1  0
 39 68  1  0
 40 69  1  0
M  END
>  <meeko>  (4) 
{"is_sidechain": [false], "free_energy": -8.022, "intermolecular_energy": -12.757, "internal_energy": -1.657}

$$$$
LIB_XCQOHJYGSBLSOW__M_PUB_ALL__e8__s20260927
     RDKit          3D

 69 73  0  0  0  0  0  0  0  0999 V2000
   11.3020   -5.0040  -12.1370 C   0  0  0  0  0  0  0  0  0  0  0  0
   12.1570   -6.2320  -11.8630 C   0  0  2  0  0  0  0  0  0  0  0  0
   12.3840   -6.9060  -13.1060 O   0  0  0  0  0  0  0  0  0  0  0  0
   11.4630   -7.1900  -10.8770 C   0  0  0  0  0  0  0  0  0  0  0  0
   11.9280   -8.5500  -11.0590 N   0  0  0  0  0  0  0  0  0  0  0  0
   11.0910   -9.5870  -11.3530 C   0  0  0  0  0  0  0  0  0  0  0  0
    9.8270   -9.2590  -11.6250 N   0  0  0  0  0  0  0  0  0  0  0  0
    8.9850  -10.2670  -11.9110 C   0  0  0  0  0  0  0  0  0  0  0  0
    9.3610  -11.5880  -11.9510 C   0  0  0  0  0  0  0  0  0  0  0  0
   10.6890  -11.8360  -11.6860 C   0  0  0  0  0  0  0  0  0  0  0  0
   11.2200  -13.1630  -11.6820 N   0  0  0  0  0  0  0  0  0  0  0  0
   12.1440  -13.6120  -12.6090 C   0  0  0  0  0  0  0  0  0  0  0  0
   12.5510  -14.8480  -12.1820 C   0  0  0  0  0  0  0  0  0  0  0  0
   11.8610  -15.2160  -11.0660 N   0  0  0  0  0  0  0  0  0  0  0  0
   10.9960  -14.2420  -10.8230 C   0  0  0  0  0  0  0  0  0  0  0  0
    9.9370  -14.3700   -9.8200 C   0  0  0  0  0  0  0  0  0  0  0  0
   10.2530  -14.2700   -8.4620 C   0  0  0  0  0  0  0  0  0  0  0  0
    9.2560  -14.4020   -7.4890 C   0  0  0  0  0  0  0  0  0  0  0  0
    7.9280  -14.6480   -7.8550 C   0  0  0  0  0  0  0  0  0  0  0  0
    6.9830  -14.7590   -6.8130 N   0  0  0  0  0  0  0  0  0  0  0  0
    5.8990  -13.9340   -6.5740 C   0  0  0  0  0  0  0  0  0  0  0  0
    5.5300  -12.9830   -7.2520 O   0  0  0  0  0  0  0  0  0  0  0  0
    5.1010  -14.2850   -5.3660 C   0  0  0  0  0  0  0  0  0  0  0  0
    5.6570  -15.1800   -4.4410 C   0  0  0  0  0  0  0  0  0  0  0  0
    4.9740  -15.5640   -3.2770 C   0  0  0  0  0  0  0  0  0  0  0  0
    5.5580  -16.4370   -2.3690 N   0  0  0  0  0  0  0  0  0  0  0  0
    4.7540  -17.5780   -1.8770 C   0  0  0  0  0  0  0  0  0  0  0  0
    5.6650  -18.6760   -1.3040 C   0  0  0  0  0  0  0  0  0  0  0  0
    6.5500  -18.1600   -0.2980 O   0  0  0  0  0  0  0  0  0  0  0  0
    7.3930  -17.1480   -0.8670 C   0  0  0  0  0  0  0  0  0  0  0  0
    6.5750  -15.9670   -1.4080 C   0  0  0  0  0  0  0  0  0  0  0  0
    3.7020  -15.0060   -3.0770 C   0  0  0  0  0  0  0  0  0  0  0  0
    3.1080  -14.1280   -4.0050 C   0  0  0  0  0  0  0  0  0  0  0  0
    1.7350  -13.5610   -3.7470 C   0  0  0  0  0  0  0  0  0  0  0  0
    0.7360  -14.4390   -4.0440 F   0  0  0  0  0  0  0  0  0  0  0  0
    1.4910  -12.4520   -4.4980 F   0  0  0  0  0  0  0  0  0  0  0  0
    1.5350  -13.1910   -2.4520 F   0  0  0  0  0  0  0  0  0  0  0  0
    3.8220  -13.7680   -5.1550 C   0  0  0  0  0  0  0  0  0  0  0  0
    7.6170  -14.7730   -9.2100 C   0  0  0  0  0  0  0  0  0  0  0  0
    8.6140  -14.6480  -10.1850 C   0  0  0  0  0  0  0  0  0  0  0  0
   11.5520  -10.8420  -11.3650 N   0  0  0  0  0  0  0  0  0  0  0  0
   10.9892   -4.5547  -11.1829 H   0  0  0  0  0  0  0  0  0  0  0  0
   11.8864   -4.2715  -12.7131 H   0  0  0  0  0  0  0  0  0  0  0  0
   10.4122   -5.2979  -12.7131 H   0  0  0  0  0  0  0  0  0  0  0  0
   13.1074   -5.9144  -11.4092 H   0  0  0  0  0  0  0  0  0  0  0  0
   11.8990   -7.7500  -13.0250 H   0  0  0  0  0  0  0  0  0  0  0  0
   11.6838   -6.8691   -9.8483 H   0  0  0  0  0  0  0  0  0  0  0  0
   10.3797   -7.1622  -11.0657 H   0  0  0  0  0  0  0  0  0  0  0  0
   12.9110   -8.7700  -11.0830 H   0  0  0  0  0  0  0  0  0  0  0  0
    7.9347  -10.0202  -12.1253 H   0  0  0  0  0  0  0  0  0  0  0  0
    8.6482  -12.3940  -12.1796 H   0  0  0  0  0  0  0  0  0  0  0  0
   12.4843  -13.0813  -13.5104 H   0  0  0  0  0  0  0  0  0  0  0  0
   13.3254  -15.4575  -12.6708 H   0  0  0  0  0  0  0  0  0  0  0  0
   11.2934  -14.0861   -8.1559 H   0  0  0  0  0  0  0  0  0  0  0  0
    9.5191  -14.3114   -6.4248 H   0  0  0  0  0  0  0  0  0  0  0  0
    7.0980  -15.5580   -6.2040 H   0  0  0  0  0  0  0  0  0  0  0  0
    6.6581  -15.5933   -4.6335 H   0  0  0  0  0  0  0  0  0  0  0  0
    4.0722  -17.2263   -1.0887 H   0  0  0  0  0  0  0  0  0  0  0  0
    4.1809  -17.9962   -2.7177 H   0  0  0  0  0  0  0  0  0  0  0  0
    5.0384  -19.4625   -0.8582 H   0  0  0  0  0  0  0  0  0  0  0  0
    6.2765  -19.0777   -2.1255 H   0  0  0  0  0  0  0  0  0  0  0  0
    8.0812  -16.7798   -0.0919 H   0  0  0  0  0  0  0  0  0  0  0  0
    7.9472  -17.5946   -1.7057 H   0  0  0  0  0  0  0  0  0  0  0  0
    6.0739  -15.4602   -0.5701 H   0  0  0  0  0  0  0  0  0  0  0  0
    7.2541  -15.2709   -1.9221 H   0  0  0  0  0  0  0  0  0  0  0  0
    3.1484  -15.2636   -2.1620 H   0  0  0  0  0  0  0  0  0  0  0  0
    3.3764  -13.0805   -5.8890 H   0  0  0  0  0  0  0  0  0  0  0  0
    6.5789  -14.9716   -9.5147 H   0  0  0  0  0  0  0  0  0  0  0  0
    8.3557  -14.7693  -11.2473 H   0  0  0  0  0  0  0  0  0  0  0  0
  1  2  1  0
  2  3  1  0
  2  4  1  0
  4  5  1  0
  5  6  1  0
  6  7  2  0
  7  8  1  0
  8  9  2  0
  9 10  1  0
 10 11  1  0
 11 12  1  0
 12 13  2  0
 13 14  1  0
 14 15  2  0
 15 16  1  0
 16 17  2  0
 17 18  1  0
 18 19  2  0
 19 20  1  0
 20 21  1  0
 21 22  2  0
 21 23  1  0
 23 24  2  0
 24 25  1  0
 25 26  1  0
 26 27  1  0
 27 28  1  0
 28 29  1  0
 29 30  1  0
 30 31  1  0
 25 32  2  0
 32 33  1  0
 33 34  1  0
 34 35  1  0
 34 36  1  0
 34 37  1  0
 33 38  2  0
 19 39  1  0
 39 40  2  0
 10 41  2  0
 41  6  1  0
 15 11  1  0
 40 16  1  0
 38 23  1  0
 31 26  1  0
  1 42  1  0
  1 43  1  0
  1 44  1  0
  2 45  1  1
  3 46  1  0
  4 47  1  0
  4 48  1  0
  5 49  1  0
  8 50  1  0
  9 51  1  0
 12 52  1  0
 13 53  1  0
 17 54  1  0
 18 55  1  0
 20 56  1  0
 24 57  1  0
 27 58  1  0
 27 59  1  0
 28 60  1  0
 28 61  1  0
 30 62  1  0
 30 63  1  0
 31 64  1  0
 31 65  1  0
 32 66  1  0
 38 67  1  0
 39 68  1  0
 40 69  1  0
M  END
>  <meeko>  (5) 
{"is_sidechain": [false], "free_energy": -7.971, "intermolecular_energy": -12.803, "internal_energy": -1.531}

$$$$
LIB_XCQOHJYGSBLSOW__M_PUB_ALL__e8__s20260927
     RDKit          3D

 69 73  0  0  0  0  0  0  0  0999 V2000
   -1.5650   -8.9440    4.0200 C   0  0  0  0  0  0  0  0  0  0  0  0
   -1.5880   -9.4840    2.5970 C   0  0  2  0  0  0  0  0  0  0  0  0
   -2.3020   -8.5530    1.7770 O   0  0  0  0  0  0  0  0  0  0  0  0
   -2.2740  -10.8610    2.5300 C   0  0  0  0  0  0  0  0  0  0  0  0
   -1.6700  -11.6930    1.5110 N   0  0  0  0  0  0  0  0  0  0  0  0
   -2.0340  -12.9920    1.3020 C   0  0  0  0  0  0  0  0  0  0  0  0
   -3.0120  -13.1900    0.4170 N   0  0  0  0  0  0  0  0  0  0  0  0
   -3.3900  -14.4620    0.2010 C   0  0  0  0  0  0  0  0  0  0  0  0
   -2.8170  -15.5440    0.8240 C   0  0  0  0  0  0  0  0  0  0  0  0
   -1.7970  -15.2540    1.7010 C   0  0  0  0  0  0  0  0  0  0  0  0
   -1.1160  -16.2780    2.4300 N   0  0  0  0  0  0  0  0  0  0  0  0
    0.1330  -16.7580    2.0740 C   0  0  0  0  0  0  0  0  0  0  0  0
    0.5340  -17.5800    3.0930 C   0  0  0  0  0  0  0  0  0  0  0  0
   -0.4480  -17.6900    4.0310 N   0  0  0  0  0  0  0  0  0  0  0  0
   -1.4740  -16.9810    3.5820 C   0  0  0  0  0  0  0  0  0  0  0  0
   -2.7910  -17.0240    4.2200 C   0  0  0  0  0  0  0  0  0  0  0  0
   -3.7740  -17.8860    3.7220 C   0  0  0  0  0  0  0  0  0  0  0  0
   -5.0420  -17.9320    4.3110 C   0  0  0  0  0  0  0  0  0  0  0  0
   -5.3550  -17.1110    5.4010 C   0  0  0  0  0  0  0  0  0  0  0  0
   -6.6520  -17.2270    5.9420 N   0  0  0  0  0  0  0  0  0  0  0  0
   -7.0990  -16.7430    7.1590 C   0  0  0  0  0  0  0  0  0  0  0  0
   -6.4630  -16.0820    7.9700 O   0  0  0  0  0  0  0  0  0  0  0  0
   -8.5210  -17.0580    7.4720 C   0  0  0  0  0  0  0  0  0  0  0  0
   -8.9040  -18.4050    7.5350 C   0  0  0  0  0  0  0  0  0  0  0  0
  -10.2220  -18.7890    7.8230 C   0  0  0  0  0  0  0  0  0  0  0  0
  -10.5680  -20.1330    7.8980 N   0  0  0  0  0  0  0  0  0  0  0  0
  -10.0110  -21.0580    6.8870 C   0  0  0  0  0  0  0  0  0  0  0  0
  -10.0770  -22.5100    7.3850 C   0  0  0  0  0  0  0  0  0  0  0  0
  -11.4070  -22.8750    7.7830 O   0  0  0  0  0  0  0  0  0  0  0  0
  -11.8440  -22.0260    8.8540 C   0  0  0  0  0  0  0  0  0  0  0  0
  -11.8790  -20.5510    8.4300 C   0  0  0  0  0  0  0  0  0  0  0  0
  -11.1460  -17.7580    8.0520 C   0  0  0  0  0  0  0  0  0  0  0  0
  -10.7950  -16.3970    7.9650 C   0  0  0  0  0  0  0  0  0  0  0  0
  -11.8270  -15.3260    8.2110 C   0  0  0  0  0  0  0  0  0  0  0  0
  -12.0760  -14.5670    7.1070 F   0  0  0  0  0  0  0  0  0  0  0  0
  -11.4370  -14.4540    9.1820 F   0  0  0  0  0  0  0  0  0  0  0  0
  -13.0340  -15.8170    8.6070 F   0  0  0  0  0  0  0  0  0  0  0  0
   -9.4690  -16.0530    7.6750 C   0  0  0  0  0  0  0  0  0  0  0  0
   -4.3820  -16.2340    5.8820 C   0  0  0  0  0  0  0  0  0  0  0  0
   -3.1140  -16.1820    5.2900 C   0  0  0  0  0  0  0  0  0  0  0  0
   -1.4170  -13.9790    1.9590 N   0  0  0  0  0  0  0  0  0  0  0  0
   -1.6007   -9.7826    4.7310 H   0  0  0  0  0  0  0  0  0  0  0  0
   -0.6415   -8.3678    4.1787 H   0  0  0  0  0  0  0  0  0  0  0  0
   -2.4362   -8.2914    4.1787 H   0  0  0  0  0  0  0  0  0  0  0  0
   -0.5540   -9.6074    2.2426 H   0  0  0  0  0  0  0  0  0  0  0  0
   -2.4060   -7.7570    2.3330 H   0  0  0  0  0  0  0  0  0  0  0  0
   -2.1762  -11.3594    3.5057 H   0  0  0  0  0  0  0  0  0  0  0  0
   -3.3342  -10.7122    2.2775 H   0  0  0  0  0  0  0  0  0  0  0  0
   -1.0260  -11.3130    0.8340 H   0  0  0  0  0  0  0  0  0  0  0  0
   -4.2042  -14.6468   -0.5152 H   0  0  0  0  0  0  0  0  0  0  0  0
   -3.1516  -16.5746    0.6343 H   0  0  0  0  0  0  0  0  0  0  0  0
    0.6918  -16.5253    1.1555 H   0  0  0  0  0  0  0  0  0  0  0  0
    1.5117  -18.0812    3.1468 H   0  0  0  0  0  0  0  0  0  0  0  0
   -3.5482  -18.5323    2.8610 H   0  0  0  0  0  0  0  0  0  0  0  0
   -5.8017  -18.6210    3.9133 H   0  0  0  0  0  0  0  0  0  0  0  0
   -7.3330  -17.6800    5.3470 H   0  0  0  0  0  0  0  0  0  0  0  0
   -8.1487  -19.1838    7.3532 H   0  0  0  0  0  0  0  0  0  0  0  0
  -10.5914  -20.9685    5.9569 H   0  0  0  0  0  0  0  0  0  0  0  0
   -8.9586  -20.7932    6.7069 H   0  0  0  0  0  0  0  0  0  0  0  0
   -9.7507  -23.1796    6.5756 H   0  0  0  0  0  0  0  0  0  0  0  0
   -9.4193  -22.6019    8.2619 H   0  0  0  0  0  0  0  0  0  0  0  0
  -12.8544  -22.3325    9.1625 H   0  0  0  0  0  0  0  0  0  0  0  0
  -11.1308  -22.1274    9.6853 H   0  0  0  0  0  0  0  0  0  0  0  0
  -12.6446  -20.4165    7.6517 H   0  0  0  0  0  0  0  0  0  0  0  0
  -12.1181  -19.9346    9.3091 H   0  0  0  0  0  0  0  0  0  0  0  0
  -12.1823  -18.0226    8.3089 H   0  0  0  0  0  0  0  0  0  0  0  0
   -9.1752  -14.9951    7.6074 H   0  0  0  0  0  0  0  0  0  0  0  0
   -4.6131  -15.5776    6.7339 H   0  0  0  0  0  0  0  0  0  0  0  0
   -2.3644  -15.4722    5.6699 H   0  0  0  0  0  0  0  0  0  0  0  0
  1  2  1  0
  2  3  1  0
  2  4  1  0
  4  5  1  0
  5  6  1  0
  6  7  2  0
  7  8  1  0
  8  9  2  0
  9 10  1  0
 10 11  1  0
 11 12  1  0
 12 13  2  0
 13 14  1  0
 14 15  2  0
 15 16  1  0
 16 17  2  0
 17 18  1  0
 18 19  2  0
 19 20  1  0
 20 21  1  0
 21 22  2  0
 21 23  1  0
 23 24  2  0
 24 25  1  0
 25 26  1  0
 26 27  1  0
 27 28  1  0
 28 29  1  0
 29 30  1  0
 30 31  1  0
 25 32  2  0
 32 33  1  0
 33 34  1  0
 34 35  1  0
 34 36  1  0
 34 37  1  0
 33 38  2  0
 19 39  1  0
 39 40  2  0
 10 41  2  0
 41  6  1  0
 15 11  1  0
 40 16  1  0
 38 23  1  0
 31 26  1  0
  1 42  1  0
  1 43  1  0
  1 44  1  0
  2 45  1  6
  3 46  1  0
  4 47  1  0
  4 48  1  0
  5 49  1  0
  8 50  1  0
  9 51  1  0
 12 52  1  0
 13 53  1  0
 17 54  1  0
 18 55  1  0
 20 56  1  0
 24 57  1  0
 27 58  1  0
 27 59  1  0
 28 60  1  0
 28 61  1  0
 30 62  1  0
 30 63  1  0
 31 64  1  0
 31 65  1  0
 32 66  1  0
 38 67  1  0
 39 68  1  0
 40 69  1  0
M  END
>  <meeko>  (6) 
{"is_sidechain": [false], "free_energy": -7.945, "intermolecular_energy": -13.099, "internal_energy": -1.195}

$$$$
LIB_XCQOHJYGSBLSOW__M_PUB_ALL__e8__s20260927
     RDKit          3D

 69 73  0  0  0  0  0  0  0  0999 V2000
    6.7260  -18.6690    8.2930 C   0  0  0  0  0  0  0  0  0  0  0  0
    5.2530  -18.6810    8.6730 C   0  0  2  0  0  0  0  0  0  0  0  0
    4.4820  -18.5100    7.4790 O   0  0  0  0  0  0  0  0  0  0  0  0
    4.9200  -17.5540    9.6670 C   0  0  0  0  0  0  0  0  0  0  0  0
    3.6120  -16.9930    9.3990 N   0  0  0  0  0  0  0  0  0  0  0  0
    2.4560  -17.5510    9.8610 C   0  0  0  0  0  0  0  0  0  0  0  0
    2.0960  -17.2110   11.1000 N   0  0  0  0  0  0  0  0  0  0  0  0
    0.9630  -17.7550   11.5750 C   0  0  0  0  0  0  0  0  0  0  0  0
    0.1680  -18.6140   10.8560 C   0  0  0  0  0  0  0  0  0  0  0  0
    0.5960  -18.8910    9.5780 C   0  0  0  0  0  0  0  0  0  0  0  0
   -0.1250  -19.7770    8.7170 N   0  0  0  0  0  0  0  0  0  0  0  0
   -0.2640  -21.1300    8.9700 C   0  0  0  0  0  0  0  0  0  0  0  0
   -1.1580  -21.6040    8.0470 C   0  0  0  0  0  0  0  0  0  0  0  0
   -1.5200  -20.6140    7.1840 N   0  0  0  0  0  0  0  0  0  0  0  0
   -0.8260  -19.5400    7.5330 C   0  0  0  0  0  0  0  0  0  0  0  0
   -0.7930  -18.3300    6.7100 C   0  0  0  0  0  0  0  0  0  0  0  0
   -0.2070  -18.3710    5.4400 C   0  0  0  0  0  0  0  0  0  0  0  0
   -0.1560  -17.2220    4.6440 C   0  0  0  0  0  0  0  0  0  0  0  0
   -0.6790  -16.0090    5.1060 C   0  0  0  0  0  0  0  0  0  0  0  0
   -0.5950  -14.9000    4.2380 N   0  0  0  0  0  0  0  0  0  0  0  0
   -1.5580  -14.4590    3.3470 C   0  0  0  0  0  0  0  0  0  0  0  0
   -2.6800  -14.9200    3.1840 O   0  0  0  0  0  0  0  0  0  0  0  0
   -1.1600  -13.2760    2.5330 C   0  0  0  0  0  0  0  0  0  0  0  0
   -0.3470  -13.4870    1.4110 C   0  0  0  0  0  0  0  0  0  0  0  0
    0.0730  -12.4290    0.5910 C   0  0  0  0  0  0  0  0  0  0  0  0
    0.8630  -12.6700   -0.5270 N   0  0  0  0  0  0  0  0  0  0  0  0
    1.1660  -14.0740   -0.8810 C   0  0  0  0  0  0  0  0  0  0  0  0
    1.6000  -14.1800   -2.3520 C   0  0  0  0  0  0  0  0  0  0  0  0
    2.6910  -13.2960   -2.6490 O   0  0  0  0  0  0  0  0  0  0  0  0
    2.2950  -11.9380   -2.4080 C   0  0  0  0  0  0  0  0  0  0  0  0
    1.9070  -11.7120   -0.9400 C   0  0  0  0  0  0  0  0  0  0  0  0
   -0.3630  -11.1430    0.9430 C   0  0  0  0  0  0  0  0  0  0  0  0
   -1.1550  -10.9000    2.0830 C   0  0  0  0  0  0  0  0  0  0  0  0
   -1.5910   -9.4980    2.4230 C   0  0  0  0  0  0  0  0  0  0  0  0
   -2.3600   -8.9330    1.4510 F   0  0  0  0  0  0  0  0  0  0  0  0
   -0.5310   -8.6600    2.5940 F   0  0  0  0  0  0  0  0  0  0  0  0
   -2.3220   -9.4200    3.5700 F   0  0  0  0  0  0  0  0  0  0  0  0
   -1.5550  -11.9820    2.8770 C   0  0  0  0  0  0  0  0  0  0  0  0
   -1.2410  -15.9620    6.3830 C   0  0  0  0  0  0  0  0  0  0  0  0
   -1.2870  -17.1100    7.1840 C   0  0  0  0  0  0  0  0  0  0  0  0
    1.7500  -18.3800    9.0840 N   0  0  0  0  0  0  0  0  0  0  0  0
    7.3401  -18.6640    9.2056 H   0  0  0  0  0  0  0  0  0  0  0  0
    6.9588  -19.5653    7.6993 H   0  0  0  0  0  0  0  0  0  0  0  0
    6.9442  -17.7690    7.6993 H   0  0  0  0  0  0  0  0  0  0  0  0
    5.0155  -19.6379    9.1607 H   0  0  0  0  0  0  0  0  0  0  0  0
    4.1680  -17.5860    7.5140 H   0  0  0  0  0  0  0  0  0  0  0  0
    4.9342  -17.9604   10.6891 H   0  0  0  0  0  0  0  0  0  0  0  0
    5.6711  -16.7579    9.5574 H   0  0  0  0  0  0  0  0  0  0  0  0
    3.5070  -16.0980    8.9470 H   0  0  0  0  0  0  0  0  0  0  0  0
    0.6542  -17.4976   12.5989 H   0  0  0  0  0  0  0  0  0  0  0  0
   -0.7504  -19.0516   11.2744 H   0  0  0  0  0  0  0  0  0  0  0  0
    0.2425  -21.7096    9.7558 H   0  0  0  0  0  0  0  0  0  0  0  0
   -1.5311  -22.6381    8.0080 H   0  0  0  0  0  0  0  0  0  0  0  0
    0.2168  -19.3141    5.0647 H   0  0  0  0  0  0  0  0  0  0  0  0
    0.3000  -17.2724    3.6443 H   0  0  0  0  0  0  0  0  0  0  0  0
    0.2500  -14.3510    4.3130 H   0  0  0  0  0  0  0  0  0  0  0  0
   -0.0292  -14.5113    1.1664 H   0  0  0  0  0  0  0  0  0  0  0  0
    1.9784  -14.4418   -0.2371 H   0  0  0  0  0  0  0  0  0  0  0  0
    0.2598  -14.6800   -0.7343 H   0  0  0  0  0  0  0  0  0  0  0  0
    1.9132  -15.2142   -2.5576 H   0  0  0  0  0  0  0  0  0  0  0  0
    0.7455  -13.8939   -2.9829 H   0  0  0  0  0  0  0  0  0  0  0  0
    3.1327  -11.2719   -2.6620 H   0  0  0  0  0  0  0  0  0  0  0  0
    1.4158  -11.7211   -3.0325 H   0  0  0  0  0  0  0  0  0  0  0  0
    2.7952  -11.8491   -0.3058 H   0  0  0  0  0  0  0  0  0  0  0  0
    1.5154  -10.6900   -0.8292 H   0  0  0  0  0  0  0  0  0  0  0  0
   -0.0762  -10.2933    0.3060 H   0  0  0  0  0  0  0  0  0  0  0  0
   -2.1777  -11.8130    3.7679 H   0  0  0  0  0  0  0  0  0  0  0  0
   -1.6513  -15.0150    6.7635 H   0  0  0  0  0  0  0  0  0  0  0  0
   -1.7156  -17.0518    8.1954 H   0  0  0  0  0  0  0  0  0  0  0  0
  1  2  1  0
  2  3  1  0
  2  4  1  0
  4  5  1  0
  5  6  1  0
  6  7  2  0
  7  8  1  0
  8  9  2  0
  9 10  1  0
 10 11  1  0
 11 12  1  0
 12 13  2  0
 13 14  1  0
 14 15  2  0
 15 16  1  0
 16 17  2  0
 17 18  1  0
 18 19  2  0
 19 20  1  0
 20 21  1  0
 21 22  2  0
 21 23  1  0
 23 24  2  0
 24 25  1  0
 25 26  1  0
 26 27  1  0
 27 28  1  0
 28 29  1  0
 29 30  1  0
 30 31  1  0
 25 32  2  0
 32 33  1  0
 33 34  1  0
 34 35  1  0
 34 36  1  0
 34 37  1  0
 33 38  2  0
 19 39  1  0
 39 40  2  0
 10 41  2  0
 41  6  1  0
 15 11  1  0
 40 16  1  0
 38 23  1  0
 31 26  1  0
  1 42  1  0
  1 43  1  0
  1 44  1  0
  2 45  1  1
  3 46  1  0
  4 47  1  0
  4 48  1  0
  5 49  1  0
  8 50  1  0
  9 51  1  0
 12 52  1  0
 13 53  1  0
 17 54  1  0
 18 55  1  0
 20 56  1  0
 24 57  1  0
 27 58  1  0
 27 59  1  0
 28 60  1  0
 28 61  1  0
 30 62  1  0
 30 63  1  0
 31 64  1  0
 31 65  1  0
 32 66  1  0
 38 67  1  0
 39 68  1  0
 40 69  1  0
M  END
>  <meeko>  (7) 
{"is_sidechain": [false], "free_energy": -7.844, "intermolecular_energy": -12.465, "internal_energy": -1.671}

$$$$
LIB_XCQOHJYGSBLSOW__M_PUB_ALL__e8__s20260927
     RDKit          3D

 69 73  0  0  0  0  0  0  0  0999 V2000
    6.8830  -13.3600  -11.2960 C   0  0  0  0  0  0  0  0  0  0  0  0
    8.3610  -13.3580  -10.9350 C   0  0  2  0  0  0  0  0  0  0  0  0
    8.5460  -12.4890   -9.8130 O   0  0  0  0  0  0  0  0  0  0  0  0
    9.2260  -12.8710  -12.1120 C   0  0  0  0  0  0  0  0  0  0  0  0
   10.4940  -13.5690  -12.1500 N   0  0  0  0  0  0  0  0  0  0  0  0
   11.5880  -13.1590  -11.4440 C   0  0  0  0  0  0  0  0  0  0  0  0
   11.9130  -11.8710  -11.5640 N   0  0  0  0  0  0  0  0  0  0  0  0
   12.9910  -11.4490  -10.8820 C   0  0  0  0  0  0  0  0  0  0  0  0
   13.7480  -12.2600  -10.0730 C   0  0  0  0  0  0  0  0  0  0  0  0
   13.3280  -13.5680   -9.9820 C   0  0  0  0  0  0  0  0  0  0  0  0
   14.0250  -14.5290   -9.1860 N   0  0  0  0  0  0  0  0  0  0  0  0
   15.0820  -15.2840   -9.6630 C   0  0  0  0  0  0  0  0  0  0  0  0
   15.6050  -15.9430   -8.5820 C   0  0  0  0  0  0  0  0  0  0  0  0
   14.8670  -15.6840   -7.4660 N   0  0  0  0  0  0  0  0  0  0  0  0
   13.8640  -14.9100   -7.8520 C   0  0  0  0  0  0  0  0  0  0  0  0
   12.7410  -14.5890   -6.9680 C   0  0  0  0  0  0  0  0  0  0  0  0
   12.9900  -14.1210   -5.6740 C   0  0  0  0  0  0  0  0  0  0  0  0
   11.9310  -13.8200   -4.8110 C   0  0  0  0  0  0  0  0  0  0  0  0
   10.6040  -13.9920   -5.2220 C   0  0  0  0  0  0  0  0  0  0  0  0
    9.5950  -13.6570   -4.2950 N   0  0  0  0  0  0  0  0  0  0  0  0
    9.4940  -12.4960   -3.5490 C   0  0  0  0  0  0  0  0  0  0  0  0
   10.2360  -11.5230   -3.5930 O   0  0  0  0  0  0  0  0  0  0  0  0
    8.3300  -12.4490   -2.6210 C   0  0  0  0  0  0  0  0  0  0  0  0
    7.0420  -12.5440   -3.1670 C   0  0  0  0  0  0  0  0  0  0  0  0
    5.8920  -12.5070   -2.3640 C   0  0  0  0  0  0  0  0  0  0  0  0
    4.6290  -12.6230   -2.9310 N   0  0  0  0  0  0  0  0  0  0  0  0
    4.0790  -13.9800   -3.1470 C   0  0  0  0  0  0  0  0  0  0  0  0
    2.5510  -13.9270   -3.3000 C   0  0  0  0  0  0  0  0  0  0  0  0
    2.1510  -13.0070   -4.3280 O   0  0  0  0  0  0  0  0  0  0  0  0
    2.6020  -11.6860   -3.9980 C   0  0  0  0  0  0  0  0  0  0  0  0
    4.1320  -11.6180   -3.8910 C   0  0  0  0  0  0  0  0  0  0  0  0
    6.0890  -12.3760   -0.9810 C   0  0  0  0  0  0  0  0  0  0  0  0
    7.3710  -12.2490   -0.4100 C   0  0  0  0  0  0  0  0  0  0  0  0
    7.5290  -12.1020    1.0820 C   0  0  0  0  0  0  0  0  0  0  0  0
    6.9700  -10.9560    1.5630 F   0  0  0  0  0  0  0  0  0  0  0  0
    8.8380  -12.0620    1.4550 F   0  0  0  0  0  0  0  0  0  0  0  0
    6.9660  -13.1190    1.7900 F   0  0  0  0  0  0  0  0  0  0  0  0
    8.4950  -12.2890   -1.2440 C   0  0  0  0  0  0  0  0  0  0  0  0
   10.3560  -14.4820   -6.5050 C   0  0  0  0  0  0  0  0  0  0  0  0
   11.4160  -14.7900   -7.3680 C   0  0  0  0  0  0  0  0  0  0  0  0
   12.2630  -14.0270  -10.6830 N   0  0  0  0  0  0  0  0  0  0  0  0
    6.2807  -13.3608  -10.3755 H   0  0  0  0  0  0  0  0  0  0  0  0
    6.6486  -12.4622  -11.8867 H   0  0  0  0  0  0  0  0  0  0  0  0
    6.6511  -14.2585  -11.8867 H   0  0  0  0  0  0  0  0  0  0  0  0
    8.6731  -14.3846  -10.6926 H   0  0  0  0  0  0  0  0  0  0  0  0
    9.4960  -12.5600   -9.5940 H   0  0  0  0  0  0  0  0  0  0  0  0
    8.6871  -13.0532  -13.0535 H   0  0  0  0  0  0  0  0  0  0  0  0
    9.4221  -11.7966  -11.9808 H   0  0  0  0  0  0  0  0  0  0  0  0
   10.5920  -14.4570  -12.6180 H   0  0  0  0  0  0  0  0  0  0  0  0
   13.2839  -10.3930  -10.9773 H   0  0  0  0  0  0  0  0  0  0  0  0
   14.6318  -11.8891   -9.5332 H   0  0  0  0  0  0  0  0  0  0  0  0
   15.4327  -15.3432  -10.7039 H   0  0  0  0  0  0  0  0  0  0  0  0
   16.4945  -16.5895   -8.6107 H   0  0  0  0  0  0  0  0  0  0  0  0
   14.0270  -13.9885   -5.3319 H   0  0  0  0  0  0  0  0  0  0  0  0
   12.1432  -13.4443   -3.7991 H   0  0  0  0  0  0  0  0  0  0  0  0
    8.8460  -14.3300   -4.2040 H   0  0  0  0  0  0  0  0  0  0  0  0
    6.9299  -12.6506   -4.2561 H   0  0  0  0  0  0  0  0  0  0  0  0
    4.5190  -14.4071   -4.0602 H   0  0  0  0  0  0  0  0  0  0  0  0
    4.3264  -14.6053   -2.2765 H   0  0  0  0  0  0  0  0  0  0  0  0
    2.1836  -14.9313   -3.5579 H   0  0  0  0  0  0  0  0  0  0  0  0
    2.1230  -13.5830   -2.3469 H   0  0  0  0  0  0  0  0  0  0  0  0
    2.2682  -10.9894   -4.7812 H   0  0  0  0  0  0  0  0  0  0  0  0
    2.1776  -11.4132   -3.0205 H   0  0  0  0  0  0  0  0  0  0  0  0
    4.5729  -11.8130   -4.8797 H   0  0  0  0  0  0  0  0  0  0  0  0
    4.4194  -10.6166   -3.5380 H   0  0  0  0  0  0  0  0  0  0  0  0
    5.2109  -12.3723   -0.3185 H   0  0  0  0  0  0  0  0  0  0  0  0
    9.5039  -12.1947   -0.8160 H   0  0  0  0  0  0  0  0  0  0  0  0
    9.3190  -14.6277   -6.8418 H   0  0  0  0  0  0  0  0  0  0  0  0
   11.2041  -15.1935   -8.3691 H   0  0  0  0  0  0  0  0  0  0  0  0
  1  2  1  0
  2  3  1  0
  2  4  1  0
  4  5  1  0
  5  6  1  0
  6  7  2  0
  7  8  1  0
  8  9  2  0
  9 10  1  0
 10 11  1  0
 11 12  1  0
 12 13  2  0
 13 14  1  0
 14 15  2  0
 15 16  1  0
 16 17  2  0
 17 18  1  0
 18 19  2  0
 19 20  1  0
 20 21  1  0
 21 22  2  0
 21 23  1  0
 23 24  2  0
 24 25  1  0
 25 26  1  0
 26 27  1  0
 27 28  1  0
 28 29  1  0
 29 30  1  0
 30 31  1  0
 25 32  2  0
 32 33  1  0
 33 34  1  0
 34 35  1  0
 34 36  1  0
 34 37  1  0
 33 38  2  0
 19 39  1  0
 39 40  2  0
 10 41  2  0
 41  6  1  0
 15 11  1  0
 40 16  1  0
 38 23  1  0
 31 26  1  0
  1 42  1  0
  1 43  1  0
  1 44  1  0
  2 45  1  1
  3 46  1  0
  4 47  1  0
  4 48  1  0
  5 49  1  0
  8 50  1  0
  9 51  1  0
 12 52  1  0
 13 53  1  0
 17 54  1  0
 18 55  1  0
 20 56  1  0
 24 57  1  0
 27 58  1  0
 27 59  1  0
 28 60  1  0
 28 61  1  0
 30 62  1  0
 30 63  1  0
 31 64  1  0
 31 65  1  0
 32 66  1  0
 38 67  1  0
 39 68  1  0
 40 69  1  0
M  END
>  <meeko>  (8) 
{"is_sidechain": [false], "free_energy": -7.742, "intermolecular_energy": -12.556, "internal_energy": -1.421}

$$$$
LIB_XCQOHJYGSBLSOW__M_PUB_ALL__e8__s20260927
     RDKit          3D

 69 73  0  0  0  0  0  0  0  0999 V2000
   12.7490  -10.7890   -0.1500 C   0  0  0  0  0  0  0  0  0  0  0  0
   12.0020  -12.0280   -0.6220 C   0  0  2  0  0  0  0  0  0  0  0  0
   11.3150  -11.7010   -1.8340 O   0  0  0  0  0  0  0  0  0  0  0  0
   10.9870  -12.5070    0.4320 C   0  0  0  0  0  0  0  0  0  0  0  0
    9.9930  -11.4880    0.6990 N   0  0  0  0  0  0  0  0  0  0  0  0
    8.6530  -11.7430    0.7100 C   0  0  0  0  0  0  0  0  0  0  0  0
    7.8590  -10.6920    0.9170 N   0  0  0  0  0  0  0  0  0  0  0  0
    6.5350  -10.9240    0.9380 C   0  0  0  0  0  0  0  0  0  0  0  0
    5.9740  -12.1620    0.7430 C   0  0  0  0  0  0  0  0  0  0  0  0
    6.8620  -13.1870    0.5080 C   0  0  0  0  0  0  0  0  0  0  0  0
    6.4220  -14.5310    0.2990 N   0  0  0  0  0  0  0  0  0  0  0  0
    5.9310  -15.3330    1.3150 C   0  0  0  0  0  0  0  0  0  0  0  0
    5.4450  -16.4630    0.7120 C   0  0  0  0  0  0  0  0  0  0  0  0
    5.6830  -16.4270   -0.6290 N   0  0  0  0  0  0  0  0  0  0  0  0
    6.3540  -15.3080   -0.8600 C   0  0  0  0  0  0  0  0  0  0  0  0
    6.9660  -15.0190   -2.1570 C   0  0  0  0  0  0  0  0  0  0  0  0
    6.2430  -14.3090   -3.1220 C   0  0  0  0  0  0  0  0  0  0  0  0
    6.8070  -14.0330   -4.3720 C   0  0  0  0  0  0  0  0  0  0  0  0
    8.0990  -14.4710   -4.6860 C   0  0  0  0  0  0  0  0  0  0  0  0
    8.5960  -14.1440   -5.9640 N   0  0  0  0  0  0  0  0  0  0  0  0
    8.7160  -14.9840   -7.0580 C   0  0  0  0  0  0  0  0  0  0  0  0
    8.3660  -16.1550   -7.1320 O   0  0  0  0  0  0  0  0  0  0  0  0
    9.3180  -14.3530   -8.2660 C   0  0  0  0  0  0  0  0  0  0  0  0
   10.7000  -14.4810   -8.4620 C   0  0  0  0  0  0  0  0  0  0  0  0
   11.3460  -13.9180   -9.5730 C   0  0  0  0  0  0  0  0  0  0  0  0
   12.7150  -14.0770   -9.7510 N   0  0  0  0  0  0  0  0  0  0  0  0
   13.2670  -13.9170  -11.1150 C   0  0  0  0  0  0  0  0  0  0  0  0
   14.7770  -13.6350  -11.0580 C   0  0  0  0  0  0  0  0  0  0  0  0
   15.4760  -14.6360  -10.3020 O   0  0  0  0  0  0  0  0  0  0  0  0
   14.9860  -14.6550   -8.9540 C   0  0  0  0  0  0  0  0  0  0  0  0
   13.4900  -14.9980   -8.8990 C   0  0  0  0  0  0  0  0  0  0  0  0
   10.5420  -13.2210  -10.4870 C   0  0  0  0  0  0  0  0  0  0  0  0
    9.1560  -13.0520  -10.2980 C   0  0  0  0  0  0  0  0  0  0  0  0
    8.3370  -12.2870  -11.3060 C   0  0  0  0  0  0  0  0  0  0  0  0
    7.7340  -11.1880  -10.7730 F   0  0  0  0  0  0  0  0  0  0  0  0
    7.3340  -13.0440  -11.8300 F   0  0  0  0  0  0  0  0  0  0  0  0
    9.0630  -11.8370  -12.3670 F   0  0  0  0  0  0  0  0  0  0  0  0
    8.5470  -13.6290   -9.1770 C   0  0  0  0  0  0  0  0  0  0  0  0
    8.8110  -15.2010   -3.7320 C   0  0  0  0  0  0  0  0  0  0  0  0
    8.2450  -15.4830   -2.4830 C   0  0  0  0  0  0  0  0  0  0  0  0
    8.2020  -12.9870    0.5120 N   0  0  0  0  0  0  0  0  0  0  0  0
   12.7629  -10.7659    0.9497 H   0  0  0  0  0  0  0  0  0  0  0  0
   13.7812  -10.8165   -0.5292 H   0  0  0  0  0  0  0  0  0  0  0  0
   12.2429   -9.8890   -0.5292 H   0  0  0  0  0  0  0  0  0  0  0  0
   12.7235  -12.8419   -0.7864 H   0  0  0  0  0  0  0  0  0  0  0  0
   10.9190  -12.5430   -2.1330 H   0  0  0  0  0  0  0  0  0  0  0  0
   10.4834  -13.4117    0.0607 H   0  0  0  0  0  0  0  0  0  0  0  0
   11.5275  -12.7212    1.3658 H   0  0  0  0  0  0  0  0  0  0  0  0
   10.2580  -10.5620    0.9990 H   0  0  0  0  0  0  0  0  0  0  0  0
    5.8625  -10.0732    1.1220 H   0  0  0  0  0  0  0  0  0  0  0  0
    4.8864  -12.3239    0.7726 H   0  0  0  0  0  0  0  0  0  0  0  0
    5.9311  -15.1078    2.3917 H   0  0  0  0  0  0  0  0  0  0  0  0
    4.9344  -17.2840    1.2367 H   0  0  0  0  0  0  0  0  0  0  0  0
    5.2229  -13.9651   -2.8958 H   0  0  0  0  0  0  0  0  0  0  0  0
    6.2290  -13.4656   -5.1163 H   0  0  0  0  0  0  0  0  0  0  0  0
    8.8530  -13.1750   -6.0970 H   0  0  0  0  0  0  0  0  0  0  0  0
   11.2950  -15.0387   -7.7238 H   0  0  0  0  0  0  0  0  0  0  0  0
   13.0931  -14.8410  -11.6860 H   0  0  0  0  0  0  0  0  0  0  0  0
   12.7659  -13.0680  -11.6030 H   0  0  0  0  0  0  0  0  0  0  0  0
   15.1757  -13.6194  -12.0831 H   0  0  0  0  0  0  0  0  0  0  0  0
   14.9261  -12.6644  -10.5622 H   0  0  0  0  0  0  0  0  0  0  0  0
   15.5461  -15.4091   -8.3816 H   0  0  0  0  0  0  0  0  0  0  0  0
   15.1242  -13.6518   -8.5244 H   0  0  0  0  0  0  0  0  0  0  0  0
   13.3422  -16.0289   -9.2531 H   0  0  0  0  0  0  0  0  0  0  0  0
   13.1412  -14.8988   -7.8605 H   0  0  0  0  0  0  0  0  0  0  0  0
   11.0108  -12.7906  -11.3842 H   0  0  0  0  0  0  0  0  0  0  0  0
    7.4653  -13.5122   -9.0148 H   0  0  0  0  0  0  0  0  0  0  0  0
    9.8254  -15.5576   -3.9639 H   0  0  0  0  0  0  0  0  0  0  0  0
    8.8120  -16.0758   -1.7501 H   0  0  0  0  0  0  0  0  0  0  0  0
  1  2  1  0
  2  3  1  0
  2  4  1  0
  4  5  1  0
  5  6  1  0
  6  7  2  0
  7  8  1  0
  8  9  2  0
  9 10  1  0
 10 11  1  0
 11 12  1  0
 12 13  2  0
 13 14  1  0
 14 15  2  0
 15 16  1  0
 16 17  2  0
 17 18  1  0
 18 19  2  0
 19 20  1  0
 20 21  1  0
 21 22  2  0
 21 23  1  0
 23 24  2  0
 24 25  1  0
 25 26  1  0
 26 27  1  0
 27 28  1  0
 28 29  1  0
 29 30  1  0
 30 31  1  0
 25 32  2  0
 32 33  1  0
 33 34  1  0
 34 35  1  0
 34 36  1  0
 34 37  1  0
 33 38  2  0
 19 39  1  0
 39 40  2  0
 10 41  2  0
 41  6  1  0
 15 11  1  0
 40 16  1  0
 38 23  1  0
 31 26  1  0
  1 42  1  0
  1 43  1  0
  1 44  1  0
  2 45  1  6
  3 46  1  0
  4 47  1  0
  4 48  1  0
  5 49  1  0
  8 50  1  0
  9 51  1  0
 12 52  1  0
 13 53  1  0
 17 54  1  0
 18 55  1  0
 20 56  1  0
 24 57  1  0
 27 58  1  0
 27 59  1  0
 28 60  1  0
 28 61  1  0
 30 62  1  0
 30 63  1  0
 31 64  1  0
 31 65  1  0
 32 66  1  0
 38 67  1  0
 39 68  1  0
 40 69  1  0
M  END
>  <meeko>  (9) 
{"is_sidechain": [false], "free_energy": -7.728, "intermolecular_energy": -12.255, "internal_energy": -1.701}

$$$$
