LIB_ZRXGKCCYQOMSJI__M_PUB_ALL__e8__s20260927
     RDKit          3D

 72 78  0  0  0  0  0  0  0  0999 V2000
    3.6510  -14.1500   -4.1240 C   0  0  0  0  0  0  0  0  0  0  0  0
    3.4460  -12.7170   -4.1120 N   0  0  0  0  0  0  0  0  0  0  0  0
    3.5720  -11.8990   -5.2090 C   0  0  0  0  0  0  0  0  0  0  0  0
    3.3440  -10.6040   -4.8010 C   0  0  0  0  0  0  0  0  0  0  0  0
    3.0600  -10.6440   -3.4140 C   0  0  0  0  0  0  0  0  0  0  0  0
    3.0880  -11.9680   -3.0120 C   0  0  0  0  0  0  0  0  0  0  0  0
    2.8780  -12.5350   -1.7170 C   0  0  0  0  0  0  0  0  0  0  0  0
    1.6740  -12.5890   -1.1860 N   0  0  0  0  0  0  0  0  0  0  0  0
    1.8260  -13.2030    0.0290 C   0  0  0  0  0  0  0  0  0  0  0  0
    0.8560  -13.5160    0.9940 C   0  0  0  0  0  0  0  0  0  0  0  0
    1.2690  -14.1310    2.1860 C   0  0  0  0  0  0  0  0  0  0  0  0
    0.2480  -14.3970    3.2360 C   0  0  0  0  0  0  0  0  0  0  0  0
    0.5300  -14.2740    4.4220 O   0  0  0  0  0  0  0  0  0  0  0  0
   -0.9750  -14.8260    2.7760 N   0  0  0  0  0  0  0  0  0  0  0  0
   -2.1290  -15.0480    3.6440 C   0  0  1  0  0  0  0  0  0  0  0  0
   -3.4490  -14.5740    2.9910 C   0  0  0  0  0  0  0  0  0  0  0  0
   -3.2360  -13.6940    1.7960 C   0  0  0  0  0  0  0  0  0  0  0  0
   -3.5160  -14.0010    0.4770 C   0  0  0  0  0  0  0  0  0  0  0  0
   -3.2490  -12.8930   -0.2830 N   0  0  0  0  0  0  0  0  0  0  0  0
   -2.8140  -11.8620    0.5120 C   0  0  0  0  0  0  0  0  0  0  0  0
   -2.4800  -10.5460    0.1950 C   0  0  0  0  0  0  0  0  0  0  0  0
   -2.0970   -9.7040    1.2540 C   0  0  0  0  0  0  0  0  0  0  0  0
   -2.0020  -10.1080    2.5980 C   0  0  0  0  0  0  0  0  0  0  0  0
   -1.6870   -9.3070    3.5380 O   0  0  0  0  0  0  0  0  0  0  0  0
   -2.3000  -11.4660    2.8300 C   0  0  0  0  0  0  0  0  0  0  0  0
   -2.7470  -12.3460    1.8140 C   0  0  0  0  0  0  0  0  0  0  0  0
   -2.2300  -16.5170    4.0060 C   0  0  0  0  0  0  0  0  0  0  0  0
   -1.4820  -17.2100    4.9470 C   0  0  0  0  0  0  0  0  0  0  0  0
   -1.9520  -18.8570    4.9940 S   0  0  0  0  0  0  0  0  0  0  0  0
   -3.0980  -18.5420    3.7630 C   0  0  0  0  0  0  0  0  0  0  0  0
   -3.1480  -17.3080    3.3150 N   0  0  0  0  0  0  0  0  0  0  0  0
    2.6120  -14.4720    2.3770 C   0  0  0  0  0  0  0  0  0  0  0  0
    3.5870  -14.1570    1.4270 C   0  0  0  0  0  0  0  0  0  0  0  0
    3.1620  -13.5110    0.2610 C   0  0  0  0  0  0  0  0  0  0  0  0
    3.8320  -13.0260   -0.8490 N   0  0  0  0  0  0  0  0  0  0  0  0
    5.2900  -13.0080   -0.9600 C   0  0  0  0  0  0  0  0  0  0  0  0
    5.9420  -12.0120    0.0090 C   0  0  0  0  0  0  0  0  0  0  0  0
    7.4500  -11.9190   -0.2230 C   0  0  0  0  0  0  0  0  0  0  0  0
    8.1190  -13.2910   -0.1770 C   0  0  0  0  0  0  0  0  0  0  0  0
    7.4720  -14.2700   -1.1530 C   0  0  0  0  0  0  0  0  0  0  0  0
    5.9670  -14.3880   -0.9070 C   0  0  0  0  0  0  0  0  0  0  0  0
    3.7041  -14.5215   -3.0900 H   0  0  0  0  0  0  0  0  0  0  0  0
    2.8132  -14.6359   -4.6456 H   0  0  0  0  0  0  0  0  0  0  0  0
    4.5914  -14.3815   -4.6456 H   0  0  0  0  0  0  0  0  0  0  0  0
    3.8126  -12.2220   -6.2326 H   0  0  0  0  0  0  0  0  0  0  0  0
    3.3764   -9.7053   -5.4345 H   0  0  0  0  0  0  0  0  0  0  0  0
    2.8537   -9.7763   -2.7702 H   0  0  0  0  0  0  0  0  0  0  0  0
   -0.2051  -13.2842    0.8197 H   0  0  0  0  0  0  0  0  0  0  0  0
   -1.1150  -14.9420    1.7800 H   0  0  0  0  0  0  0  0  0  0  0  0
   -1.9768  -14.4501    4.5547 H   0  0  0  0  0  0  0  0  0  0  0  0
   -4.0202  -15.4595    2.6753 H   0  0  0  0  0  0  0  0  0  0  0  0
   -3.9891  -13.9789    3.7421 H   0  0  0  0  0  0  0  0  0  0  0  0
   -3.8881  -14.9663    0.1033 H   0  0  0  0  0  0  0  0  0  0  0  0
   -3.3850  -12.8210   -1.2800 H   0  0  0  0  0  0  0  0  0  0  0  0
   -2.5147  -10.1810   -0.8421 H   0  0  0  0  0  0  0  0  0  0  0  0
   -1.8551   -8.6579    1.0151 H   0  0  0  0  0  0  0  0  0  0  0  0
   -2.1796  -11.8615    3.8493 H   0  0  0  0  0  0  0  0  0  0  0  0
   -0.6968  -16.7642    5.5752 H   0  0  0  0  0  0  0  0  0  0  0  0
   -3.7568  -19.3296    3.3684 H   0  0  0  0  0  0  0  0  0  0  0  0
    2.9072  -15.0000    3.2957 H   0  0  0  0  0  0  0  0  0  0  0  0
    4.6459  -14.4068    1.5893 H   0  0  0  0  0  0  0  0  0  0  0  0
    5.4723  -12.6483   -1.9834 H   0  0  0  0  0  0  0  0  0  0  0  0
    5.4940  -11.0188   -0.1425 H   0  0  0  0  0  0  0  0  0  0  0  0
    5.7695  -12.3635    1.0370 H   0  0  0  0  0  0  0  0  0  0  0  0
    7.6308  -11.4681   -1.2099 H   0  0  0  0  0  0  0  0  0  0  0  0
    7.8810  -11.3025    0.5796 H   0  0  0  0  0  0  0  0  0  0  0  0
    9.1816  -13.1779   -0.4380 H   0  0  0  0  0  0  0  0  0  0  0  0
    8.0024  -13.6944    0.8397 H   0  0  0  0  0  0  0  0  0  0  0  0
    7.6403  -13.9153   -2.1805 H   0  0  0  0  0  0  0  0  0  0  0  0
    7.9267  -15.2604   -1.0035 H   0  0  0  0  0  0  0  0  0  0  0  0
    5.5259  -15.0350   -1.6795 H   0  0  0  0  0  0  0  0  0  0  0  0
    5.8080  -14.8182    0.0928 H   0  0  0  0  0  0  0  0  0  0  0  0
  1  2  1  0
  2  3  1  0
  3  4  2  0
  4  5  1  0
  5  6  2  0
  6  7  1  0
  7  8  2  0
  8  9  1  0
  9 10  2  0
 10 11  1  0
 11 12  1  0
 12 13  2  0
 12 14  1  0
 14 15  1  0
 15 16  1  0
 16 17  1  0
 17 18  2  0
 18 19  1  0
 19 20  1  0
 20 21  2  0
 21 22  1  0
 22 23  2  0
 23 24  1  0
 23 25  1  0
 25 26  2  0
 15 27  1  0
 27 28  2  0
 28 29  1  0
 29 30  1  0
 30 31  2  0
 11 32  2  0
 32 33  1  0
 33 34  2  0
 34 35  1  0
 35 36  1  0
 36 37  1  0
 37 38  1  0
 38 39  1  0
 39 40  1  0
 40 41  1  0
  6  2  1  0
 35  7  1  0
 41 36  1  0
 34  9  1  0
 26 17  1  0
 31 27  1  0
 26 20  1  0
  1 42  1  0
  1 43  1  0
  1 44  1  0
  3 45  1  0
  4 46  1  0
  5 47  1  0
 10 48  1  0
 14 49  1  0
 15 50  1  1
 16 51  1  0
 16 52  1  0
 18 53  1  0
 19 54  1  0
 21 55  1  0
 22 56  1  0
 25 57  1  0
 28 58  1  0
 30 59  1  0
 32 60  1  0
 33 61  1  0
 36 62  1  0
 37 63  1  0
 37 64  1  0
 38 65  1  0
 38 66  1  0
 39 67  1  0
 39 68  1  0
 40 69  1  0
 40 70  1  0
 41 71  1  0
 41 72  1  0
M  CHG  1  24  -1
M  END
>  <meeko>  (1) 
{"is_sidechain": [false], "free_energy": -8.634, "intermolecular_energy": -12.167, "internal_energy": -2.104}

$$$$
LIB_ZRXGKCCYQOMSJI__M_PUB_ALL__e8__s20260927
     RDKit          3D

 72 78  0  0  0  0  0  0  0  0999 V2000
    6.6790  -11.4090   -0.8200 C   0  0  0  0  0  0  0  0  0  0  0  0
    6.9480  -12.7410   -1.3200 N   0  0  0  0  0  0  0  0  0  0  0  0
    8.1450  -13.1480   -1.8560 C   0  0  0  0  0  0  0  0  0  0  0  0
    8.0070  -14.4570   -2.2570 C   0  0  0  0  0  0  0  0  0  0  0  0
    6.6850  -14.8560   -1.9430 C   0  0  0  0  0  0  0  0  0  0  0  0
    6.0550  -13.7900   -1.3260 C   0  0  0  0  0  0  0  0  0  0  0  0
    4.7190  -13.6800   -0.8290 C   0  0  0  0  0  0  0  0  0  0  0  0
    4.4100  -14.0850    0.3860 N   0  0  0  0  0  0  0  0  0  0  0  0
    3.0760  -13.8180    0.5430 C   0  0  0  0  0  0  0  0  0  0  0  0
    2.2490  -14.0440    1.6540 C   0  0  0  0  0  0  0  0  0  0  0  0
    0.8910  -13.7030    1.5620 C   0  0  0  0  0  0  0  0  0  0  0  0
    0.0040  -14.0090    2.7170 C   0  0  0  0  0  0  0  0  0  0  0  0
    0.4020  -13.8500    3.8660 O   0  0  0  0  0  0  0  0  0  0  0  0
   -1.2340  -14.5140    2.3940 N   0  0  0  0  0  0  0  0  0  0  0  0
   -2.2750  -14.7860    3.3830 C   0  0  1  0  0  0  0  0  0  0  0  0
   -3.6550  -14.2470    2.9380 C   0  0  0  0  0  0  0  0  0  0  0  0
   -3.5800  -13.3300    1.7540 C   0  0  0  0  0  0  0  0  0  0  0  0
   -4.0440  -13.5840    0.4770 C   0  0  0  0  0  0  0  0  0  0  0  0
   -3.8510  -12.4560   -0.2770 N   0  0  0  0  0  0  0  0  0  0  0  0
   -3.2820  -11.4650    0.4840 C   0  0  0  0  0  0  0  0  0  0  0  0
   -2.9560  -10.1480    0.1660 C   0  0  0  0  0  0  0  0  0  0  0  0
   -2.4090   -9.3520    1.1910 C   0  0  0  0  0  0  0  0  0  0  0  0
   -2.1450   -9.8060    2.4950 C   0  0  0  0  0  0  0  0  0  0  0  0
   -1.6830   -9.0480    3.4090 O   0  0  0  0  0  0  0  0  0  0  0  0
   -2.4490  -11.1650    2.7220 C   0  0  0  0  0  0  0  0  0  0  0  0
   -3.0550  -11.9970    1.7490 C   0  0  0  0  0  0  0  0  0  0  0  0
   -2.3630  -16.2760    3.6460 C   0  0  0  0  0  0  0  0  0  0  0  0
   -1.8780  -16.9720    4.7440 C   0  0  0  0  0  0  0  0  0  0  0  0
   -2.2080  -18.6460    4.5900 S   0  0  0  0  0  0  0  0  0  0  0  0
   -2.9540  -18.3370    3.0810 C   0  0  0  0  0  0  0  0  0  0  0  0
   -2.9650  -17.0860    2.6820 N   0  0  0  0  0  0  0  0  0  0  0  0
    0.3920  -13.0980    0.4040 C   0  0  0  0  0  0  0  0  0  0  0  0
    1.2030  -12.8750   -0.7120 C   0  0  0  0  0  0  0  0  0  0  0  0
    2.5460  -13.2570   -0.6140 C   0  0  0  0  0  0  0  0  0  0  0  0
    3.6050  -13.2250   -1.5050 N   0  0  0  0  0  0  0  0  0  0  0  0
    3.4600  -12.8390   -2.9080 C   0  0  0  0  0  0  0  0  0  0  0  0
    3.9440  -11.4070   -3.1770 C   0  0  0  0  0  0  0  0  0  0  0  0
    3.6570  -10.9860   -4.6180 C   0  0  0  0  0  0  0  0  0  0  0  0
    4.2200  -11.9850   -5.6260 C   0  0  0  0  0  0  0  0  0  0  0  0
    3.7220  -13.4030   -5.3580 C   0  0  0  0  0  0  0  0  0  0  0  0
    4.0320  -13.8400   -3.9250 C   0  0  0  0  0  0  0  0  0  0  0  0
    6.6818  -11.4227    0.2799 H   0  0  0  0  0  0  0  0  0  0  0  0
    7.4558  -10.7184   -1.1800 H   0  0  0  0  0  0  0  0  0  0  0  0
    5.6951  -11.0740   -1.1800 H   0  0  0  0  0  0  0  0  0  0  0  0
    9.0540  -12.5355   -1.9485 H   0  0  0  0  0  0  0  0  0  0  0  0
    8.7800  -15.0782   -2.7331 H   0  0  0  0  0  0  0  0  0  0  0  0
    6.2383  -15.8391   -2.1525 H   0  0  0  0  0  0  0  0  0  0  0  0
    2.6570  -14.4795    2.5780 H   0  0  0  0  0  0  0  0  0  0  0  0
   -1.4720  -14.6540    1.4200 H   0  0  0  0  0  0  0  0  0  0  0  0
   -1.9966  -14.2610    4.3087 H   0  0  0  0  0  0  0  0  0  0  0  0
   -4.2962  -15.1019    2.6774 H   0  0  0  0  0  0  0  0  0  0  0  0
   -4.0627  -13.6635    3.7766 H   0  0  0  0  0  0  0  0  0  0  0  0
   -4.4901  -14.5266    0.1271 H   0  0  0  0  0  0  0  0  0  0  0  0
   -4.1170  -12.3450   -1.2430 H   0  0  0  0  0  0  0  0  0  0  0  0
   -3.1193   -9.7463   -0.8449 H   0  0  0  0  0  0  0  0  0  0  0  0
   -2.1723   -8.3040    0.9552 H   0  0  0  0  0  0  0  0  0  0  0  0
   -2.2034  -11.5995    3.7023 H   0  0  0  0  0  0  0  0  0  0  0  0
   -1.3543  -16.5126    5.5953 H   0  0  0  0  0  0  0  0  0  0  0  0
   -3.3998  -19.1421    2.4785 H   0  0  0  0  0  0  0  0  0  0  0  0
   -0.6636  -12.7905    0.3709 H   0  0  0  0  0  0  0  0  0  0  0  0
    0.8027  -12.4183   -1.6292 H   0  0  0  0  0  0  0  0  0  0  0  0
    2.3734  -12.8633   -3.0775 H   0  0  0  0  0  0  0  0  0  0  0  0
    3.4260  -10.7190   -2.4926 H   0  0  0  0  0  0  0  0  0  0  0  0
    5.0314  -11.3715   -3.0146 H   0  0  0  0  0  0  0  0  0  0  0  0
    2.5682  -10.9152   -4.7576 H   0  0  0  0  0  0  0  0  0  0  0  0
    4.1432  -10.0149   -4.7926 H   0  0  0  0  0  0  0  0  0  0  0  0
    3.9093  -11.6838   -6.6373 H   0  0  0  0  0  0  0  0  0  0  0  0
    5.3160  -11.9842   -5.5323 H   0  0  0  0  0  0  0  0  0  0  0  0
    2.6338  -13.4362   -5.5152 H   0  0  0  0  0  0  0  0  0  0  0  0
    4.2362  -14.0877   -6.0485 H   0  0  0  0  0  0  0  0  0  0  0  0
    3.5857  -14.8293   -3.7461 H   0  0  0  0  0  0  0  0  0  0  0  0
    5.1240  -13.8816   -3.7997 H   0  0  0  0  0  0  0  0  0  0  0  0
  1  2  1  0
  2  3  1  0
  3  4  2  0
  4  5  1  0
  5  6  2  0
  6  7  1  0
  7  8  2  0
  8  9  1  0
  9 10  2  0
 10 11  1  0
 11 12  1  0
 12 13  2  0
 12 14  1  0
 14 15  1  0
 15 16  1  0
 16 17  1  0
 17 18  2  0
 18 19  1  0
 19 20  1  0
 20 21  2  0
 21 22  1  0
 22 23  2  0
 23 24  1  0
 23 25  1  0
 25 26  2  0
 15 27  1  0
 27 28  2  0
 28 29  1  0
 29 30  1  0
 30 31  2  0
 11 32  2  0
 32 33  1  0
 33 34  2  0
 34 35  1  0
 35 36  1  0
 36 37  1  0
 37 38  1  0
 38 39  1  0
 39 40  1  0
 40 41  1  0
  6  2  1  0
 35  7  1  0
 41 36  1  0
 34  9  1  0
 26 17  1  0
 31 27  1  0
 26 20  1  0
  1 42  1  0
  1 43  1  0
  1 44  1  0
  3 45  1  0
  4 46  1  0
  5 47  1  0
 10 48  1  0
 14 49  1  0
 15 50  1  1
 16 51  1  0
 16 52  1  0
 18 53  1  0
 19 54  1  0
 21 55  1  0
 22 56  1  0
 25 57  1  0
 28 58  1  0
 30 59  1  0
 32 60  1  0
 33 61  1  0
 36 62  1  0
 37 63  1  0
 37 64  1  0
 38 65  1  0
 38 66  1  0
 39 67  1  0
 39 68  1  0
 40 69  1  0
 40 70  1  0
 41 71  1  0
 41 72  1  0
M  CHG  1  24  -1
M  END
>  <meeko>  (2) 
{"is_sidechain": [false], "free_energy": -8.629, "intermolecular_energy": -12.264, "internal_energy": -2.001}

$$$$
LIB_ZRXGKCCYQOMSJI__M_PUB_ALL__e8__s20260927
     RDKit          3D

 72 78  0  0  0  0  0  0  0  0999 V2000
    0.4710  -17.0490    2.0810 C   0  0  0  0  0  0  0  0  0  0  0  0
    0.6310  -16.2680    3.2900 N   0  0  0  0  0  0  0  0  0  0  0  0
    0.2470  -16.6790    4.5430 C   0  0  0  0  0  0  0  0  0  0  0  0
    0.5180  -15.6580    5.4260 C   0  0  0  0  0  0  0  0  0  0  0  0
    1.0950  -14.6010    4.6810 C   0  0  0  0  0  0  0  0  0  0  0  0
    1.1940  -15.0130    3.3640 C   0  0  0  0  0  0  0  0  0  0  0  0
    1.6950  -14.3130    2.2220 C   0  0  0  0  0  0  0  0  0  0  0  0
    2.9660  -14.3880    1.8840 N   0  0  0  0  0  0  0  0  0  0  0  0
    3.0980  -13.6310    0.7500 C   0  0  0  0  0  0  0  0  0  0  0  0
    4.2410  -13.3810   -0.0240 C   0  0  0  0  0  0  0  0  0  0  0  0
    4.1260  -12.5410   -1.1410 C   0  0  0  0  0  0  0  0  0  0  0  0
    5.3550  -12.2230   -1.9180 C   0  0  0  0  0  0  0  0  0  0  0  0
    5.5490  -11.0860   -2.3360 O   0  0  0  0  0  0  0  0  0  0  0  0
    6.1940  -13.2850   -2.1600 N   0  0  0  0  0  0  0  0  0  0  0  0
    7.4890  -13.1540   -2.8220 C   0  0  1  0  0  0  0  0  0  0  0  0
    8.5970  -13.9570   -2.0990 C   0  0  0  0  0  0  0  0  0  0  0  0
    9.6320  -13.0870   -1.4500 C   0  0  0  0  0  0  0  0  0  0  0  0
    9.6230  -12.6140   -0.1510 C   0  0  0  0  0  0  0  0  0  0  0  0
   10.7900  -11.9280    0.0590 N   0  0  0  0  0  0  0  0  0  0  0  0
   11.5690  -11.9540   -1.0710 C   0  0  0  0  0  0  0  0  0  0  0  0
   12.8440  -11.4440   -1.3100 C   0  0  0  0  0  0  0  0  0  0  0  0
   13.4020  -11.6680   -2.5830 C   0  0  0  0  0  0  0  0  0  0  0  0
   12.7480  -12.3400   -3.6310 C   0  0  0  0  0  0  0  0  0  0  0  0
   13.2980  -12.5560   -4.7600 O   0  0  0  0  0  0  0  0  0  0  0  0
   11.4410  -12.7750   -3.3300 C   0  0  0  0  0  0  0  0  0  0  0  0
   10.8510  -12.6310   -2.0510 C   0  0  0  0  0  0  0  0  0  0  0  0
    7.3820  -13.6060   -4.2650 C   0  0  0  0  0  0  0  0  0  0  0  0
    6.3620  -13.3320   -5.1640 C   0  0  0  0  0  0  0  0  0  0  0  0
    6.6790  -14.0680   -6.6780 S   0  0  0  0  0  0  0  0  0  0  0  0
    8.1320  -14.7070   -6.0370 C   0  0  0  0  0  0  0  0  0  0  0  0
    8.3900  -14.4210   -4.7810 N   0  0  0  0  0  0  0  0  0  0  0  0
    2.8820  -12.0120   -1.5030 C   0  0  0  0  0  0  0  0  0  0  0  0
    1.7390  -12.2470   -0.7350 C   0  0  0  0  0  0  0  0  0  0  0  0
    1.8810  -13.0570    0.3970 C   0  0  0  0  0  0  0  0  0  0  0  0
    1.0010  -13.4630    1.3860 N   0  0  0  0  0  0  0  0  0  0  0  0
   -0.3710  -12.9700    1.4890 C   0  0  0  0  0  0  0  0  0  0  0  0
   -1.4120  -14.0540    1.1750 C   0  0  0  0  0  0  0  0  0  0  0  0
   -2.8260  -13.4770    1.1590 C   0  0  0  0  0  0  0  0  0  0  0  0
   -3.1490  -12.7230    2.4470 C   0  0  0  0  0  0  0  0  0  0  0  0
   -2.1160  -11.6390    2.7440 C   0  0  0  0  0  0  0  0  0  0  0  0
   -0.7000  -12.2160    2.7880 C   0  0  0  0  0  0  0  0  0  0  0  0
    0.2567  -18.0949    2.3458 H   0  0  0  0  0  0  0  0  0  0  0  0
   -0.3625  -16.6424    1.4894 H   0  0  0  0  0  0  0  0  0  0  0  0
    1.3972  -17.0029    1.4894 H   0  0  0  0  0  0  0  0  0  0  0  0
   -0.1985  -17.6523    4.7964 H   0  0  0  0  0  0  0  0  0  0  0  0
    0.3227  -15.6625    6.5085 H   0  0  0  0  0  0  0  0  0  0  0  0
    1.4090  -13.6248    5.0791 H   0  0  0  0  0  0  0  0  0  0  0  0
    5.2077  -13.8346    0.2399 H   0  0  0  0  0  0  0  0  0  0  0  0
    5.9400  -14.2030   -1.8150 H   0  0  0  0  0  0  0  0  0  0  0  0
    7.7719  -12.0916   -2.7852 H   0  0  0  0  0  0  0  0  0  0  0  0
    8.1274  -14.5793   -1.3230 H   0  0  0  0  0  0  0  0  0  0  0  0
    9.1107  -14.5621   -2.8605 H   0  0  0  0  0  0  0  0  0  0  0  0
    8.8193  -12.7625    0.5852 H   0  0  0  0  0  0  0  0  0  0  0  0
   11.0660  -11.4930    0.9260 H   0  0  0  0  0  0  0  0  0  0  0  0
   13.3924  -10.8886   -0.5349 H   0  0  0  0  0  0  0  0  0  0  0  0
   14.4185  -11.2918   -2.7706 H   0  0  0  0  0  0  0  0  0  0  0  0
   10.8508  -13.2495   -4.1279 H   0  0  0  0  0  0  0  0  0  0  0  0
    5.4727  -12.7260   -4.9363 H   0  0  0  0  0  0  0  0  0  0  0  0
    8.8122  -15.3232   -6.6434 H   0  0  0  0  0  0  0  0  0  0  0  0
    2.8025  -11.3978   -2.4121 H   0  0  0  0  0  0  0  0  0  0  0  0
    0.7663  -11.8126   -1.0092 H   0  0  0  0  0  0  0  0  0  0  0  0
   -0.4357  -12.2053    0.7009 H   0  0  0  0  0  0  0  0  0  0  0  0
   -1.1909  -14.4882    0.1888 H   0  0  0  0  0  0  0  0  0  0  0  0
   -1.3597  -14.8234    1.9594 H   0  0  0  0  0  0  0  0  0  0  0  0
   -2.9177  -12.7846    0.3092 H   0  0  0  0  0  0  0  0  0  0  0  0
   -3.5342  -14.3138    1.0676 H   0  0  0  0  0  0  0  0  0  0  0  0
   -4.1387  -12.2536    2.3461 H   0  0  0  0  0  0  0  0  0  0  0  0
   -3.1361  -13.4441    3.2776 H   0  0  0  0  0  0  0  0  0  0  0  0
   -2.1658  -10.8718    1.9573 H   0  0  0  0  0  0  0  0  0  0  0  0
   -2.3436  -11.2035    3.7281 H   0  0  0  0  0  0  0  0  0  0  0  0
    0.0193  -11.3941    2.9188 H   0  0  0  0  0  0  0  0  0  0  0  0
   -0.6356  -12.9223    3.6288 H   0  0  0  0  0  0  0  0  0  0  0  0
  1  2  1  0
  2  3  1  0
  3  4  2  0
  4  5  1  0
  5  6  2  0
  6  7  1  0
  7  8  2  0
  8  9  1  0
  9 10  2  0
 10 11  1  0
 11 12  1  0
 12 13  2  0
 12 14  1  0
 14 15  1  0
 15 16  1  0
 16 17  1  0
 17 18  2  0
 18 19  1  0
 19 20  1  0
 20 21  2  0
 21 22  1  0
 22 23  2  0
 23 24  1  0
 23 25  1  0
 25 26  2  0
 15 27  1  0
 27 28  2  0
 28 29  1  0
 29 30  1  0
 30 31  2  0
 11 32  2  0
 32 33  1  0
 33 34  2  0
 34 35  1  0
 35 36  1  0
 36 37  1  0
 37 38  1  0
 38 39  1  0
 39 40  1  0
 40 41  1  0
  6  2  1  0
 35  7  1  0
 41 36  1  0
 34  9  1  0
 26 17  1  0
 31 27  1  0
 26 20  1  0
  1 42  1  0
  1 43  1  0
  1 44  1  0
  3 45  1  0
  4 46  1  0
  5 47  1  0
 10 48  1  0
 14 49  1  0
 15 50  1  6
 16 51  1  0
 16 52  1  0
 18 53  1  0
 19 54  1  0
 21 55  1  0
 22 56  1  0
 25 57  1  0
 28 58  1  0
 30 59  1  0
 32 60  1  0
 33 61  1  0
 36 62  1  0
 37 63  1  0
 37 64  1  0
 38 65  1  0
 38 66  1  0
 39 67  1  0
 39 68  1  0
 40 69  1  0
 40 70  1  0
 41 71  1  0
 41 72  1  0
M  CHG  1  24  -1
M  END
>  <meeko>  (3) 
{"is_sidechain": [false], "free_energy": -8.311, "intermolecular_energy": -12.129, "internal_energy": -1.687}

$$$$
LIB_ZRXGKCCYQOMSJI__M_PUB_ALL__e8__s20260927
     RDKit          3D

 72 78  0  0  0  0  0  0  0  0999 V2000
   -2.2710  -13.5080    0.2040 C   0  0  0  0  0  0  0  0  0  0  0  0
   -1.9740  -12.2070    0.7680 N   0  0  0  0  0  0  0  0  0  0  0  0
   -2.8930  -11.2010    0.9400 C   0  0  0  0  0  0  0  0  0  0  0  0
   -2.2350  -10.1100    1.4600 C   0  0  0  0  0  0  0  0  0  0  0  0
   -0.8750  -10.4740    1.6160 C   0  0  0  0  0  0  0  0  0  0  0  0
   -0.7400  -11.7920    1.2180 C   0  0  0  0  0  0  0  0  0  0  0  0
    0.4250  -12.6200    1.1750 C   0  0  0  0  0  0  0  0  0  0  0  0
    1.2980  -12.5130    0.1930 N   0  0  0  0  0  0  0  0  0  0  0  0
    2.2860  -13.4200    0.4690 C   0  0  0  0  0  0  0  0  0  0  0  0
    3.4560  -13.7070   -0.2510 C   0  0  0  0  0  0  0  0  0  0  0  0
    4.3110  -14.7100    0.2280 C   0  0  0  0  0  0  0  0  0  0  0  0
    5.5150  -15.0590   -0.5760 C   0  0  0  0  0  0  0  0  0  0  0  0
    5.7510  -16.2270   -0.8660 O   0  0  0  0  0  0  0  0  0  0  0  0
    6.3310  -14.0030   -0.9080 N   0  0  0  0  0  0  0  0  0  0  0  0
    7.5040  -14.1320   -1.7690 C   0  0  1  0  0  0  0  0  0  0  0  0
    7.2660  -13.5250   -3.1720 C   0  0  0  0  0  0  0  0  0  0  0  0
    5.9660  -13.9480   -3.7880 C   0  0  0  0  0  0  0  0  0  0  0  0
    5.6450  -15.2040   -4.2680 C   0  0  0  0  0  0  0  0  0  0  0  0
    4.3350  -15.1830   -4.6690 N   0  0  0  0  0  0  0  0  0  0  0  0
    3.7880  -13.9440   -4.4500 C   0  0  0  0  0  0  0  0  0  0  0  0
    2.4910  -13.4720   -4.6480 C   0  0  0  0  0  0  0  0  0  0  0  0
    2.2260  -12.1390   -4.2860 C   0  0  0  0  0  0  0  0  0  0  0  0
    3.1840  -11.2490   -3.7680 C   0  0  0  0  0  0  0  0  0  0  0  0
    2.8990  -10.0570   -3.4170 O   0  0  0  0  0  0  0  0  0  0  0  0
    4.4840  -11.7830   -3.6510 C   0  0  0  0  0  0  0  0  0  0  0  0
    4.7980  -13.1320   -3.9430 C   0  0  0  0  0  0  0  0  0  0  0  0
    8.7010  -13.4710   -1.1160 C   0  0  0  0  0  0  0  0  0  0  0  0
   10.0190  -13.4850   -1.5520 C   0  0  0  0  0  0  0  0  0  0  0  0
   11.0180  -12.6040   -0.4770 S   0  0  0  0  0  0  0  0  0  0  0  0
    9.6480  -12.2770    0.4950 C   0  0  0  0  0  0  0  0  0  0  0  0
    8.5080  -12.7840    0.0830 N   0  0  0  0  0  0  0  0  0  0  0  0
    4.0260  -15.3680    1.4290 C   0  0  0  0  0  0  0  0  0  0  0  0
    2.8600  -15.0980    2.1500 C   0  0  0  0  0  0  0  0  0  0  0  0
    2.0010  -14.1200    1.6370 C   0  0  0  0  0  0  0  0  0  0  0  0
    0.7730  -13.6290    2.0480 N   0  0  0  0  0  0  0  0  0  0  0  0
    0.0210  -14.1920    3.1690 C   0  0  0  0  0  0  0  0  0  0  0  0
   -0.5890  -15.5620    2.8400 C   0  0  0  0  0  0  0  0  0  0  0  0
   -1.4770  -16.0620    3.9790 C   0  0  0  0  0  0  0  0  0  0  0  0
   -0.7400  -16.0640    5.3170 C   0  0  0  0  0  0  0  0  0  0  0  0
   -0.1490  -14.6940    5.6410 C   0  0  0  0  0  0  0  0  0  0  0  0
    0.7630  -14.2010    4.5160 C   0  0  0  0  0  0  0  0  0  0  0  0
   -2.4360  -14.2309    1.0165 H   0  0  0  0  0  0  0  0  0  0  0  0
   -3.1769  -13.4406   -0.4164 H   0  0  0  0  0  0  0  0  0  0  0  0
   -1.4256  -13.8404   -0.4164 H   0  0  0  0  0  0  0  0  0  0  0  0
   -3.9658  -11.2574    0.7038 H   0  0  0  0  0  0  0  0  0  0  0  0
   -2.6821   -9.1361    1.7084 H   0  0  0  0  0  0  0  0  0  0  0  0
   -0.0692   -9.8240    1.9877 H   0  0  0  0  0  0  0  0  0  0  0  0
    3.6974  -13.1564   -1.1722 H   0  0  0  0  0  0  0  0  0  0  0  0
    6.0860  -13.0720   -0.5940 H   0  0  0  0  0  0  0  0  0  0  0  0
    7.6995  -15.2063   -1.9020 H   0  0  0  0  0  0  0  0  0  0  0  0
    7.2701  -12.4286   -3.0834 H   0  0  0  0  0  0  0  0  0  0  0  0
    8.0711  -13.8907   -3.8263 H   0  0  0  0  0  0  0  0  0  0  0  0
    6.3227  -16.0689   -4.3191 H   0  0  0  0  0  0  0  0  0  0  0  0
    3.8240  -15.9690   -5.0400 H   0  0  0  0  0  0  0  0  0  0  0  0
    1.7062  -14.1166   -5.0706 H   0  0  0  0  0  0  0  0  0  0  0  0
    1.1991  -11.7670   -4.4170 H   0  0  0  0  0  0  0  0  0  0  0  0
    5.2940  -11.1183   -3.3163 H   0  0  0  0  0  0  0  0  0  0  0  0
   10.3723  -13.9919   -2.4621 H   0  0  0  0  0  0  0  0  0  0  0  0
    9.7179  -11.6758    1.4135 H   0  0  0  0  0  0  0  0  0  0  0  0
    4.7357  -16.1148    1.8145 H   0  0  0  0  0  0  0  0  0  0  0  0
    2.6269  -15.6325    3.0828 H   0  0  0  0  0  0  0  0  0  0  0  0
   -0.8072  -13.4828    3.3139 H   0  0  0  0  0  0  0  0  0  0  0  0
   -1.1942  -15.4746    1.9256 H   0  0  0  0  0  0  0  0  0  0  0  0
    0.2304  -16.2817    2.6968 H   0  0  0  0  0  0  0  0  0  0  0  0
   -2.3565  -15.4061    4.0584 H   0  0  0  0  0  0  0  0  0  0  0  0
   -1.7732  -17.0966    3.7514 H   0  0  0  0  0  0  0  0  0  0  0  0
   -1.4465  -16.3441    6.1122 H   0  0  0  0  0  0  0  0  0  0  0  0
    0.0871  -16.7861    5.2506 H   0  0  0  0  0  0  0  0  0  0  0  0
   -0.9689  -13.9738    5.7790 H   0  0  0  0  0  0  0  0  0  0  0  0
    0.4500  -14.7830    6.5593 H   0  0  0  0  0  0  0  0  0  0  0  0
    1.1003  -13.1800    4.7477 H   0  0  0  0  0  0  0  0  0  0  0  0
    1.6229  -14.8825    4.4379 H   0  0  0  0  0  0  0  0  0  0  0  0
  1  2  1  0
  2  3  1  0
  3  4  2  0
  4  5  1  0
  5  6  2  0
  6  7  1  0
  7  8  2  0
  8  9  1  0
  9 10  2  0
 10 11  1  0
 11 12  1  0
 12 13  2  0
 12 14  1  0
 14 15  1  0
 15 16  1  0
 16 17  1  0
 17 18  2  0
 18 19  1  0
 19 20  1  0
 20 21  2  0
 21 22  1  0
 22 23  2  0
 23 24  1  0
 23 25  1  0
 25 26  2  0
 15 27  1  0
 27 28  2  0
 28 29  1  0
 29 30  1  0
 30 31  2  0
 11 32  2  0
 32 33  1  0
 33 34  2  0
 34 35  1  0
 35 36  1  0
 36 37  1  0
 37 38  1  0
 38 39  1  0
 39 40  1  0
 40 41  1  0
  6  2  1  0
 35  7  1  0
 41 36  1  0
 34  9  1  0
 26 17  1  0
 31 27  1  0
 26 20  1  0
  1 42  1  0
  1 43  1  0
  1 44  1  0
  3 45  1  0
  4 46  1  0
  5 47  1  0
 10 48  1  0
 14 49  1  0
 15 50  1  6
 16 51  1  0
 16 52  1  0
 18 53  1  0
 19 54  1  0
 21 55  1  0
 22 56  1  0
 25 57  1  0
 28 58  1  0
 30 59  1  0
 32 60  1  0
 33 61  1  0
 36 62  1  0
 37 63  1  0
 37 64  1  0
 38 65  1  0
 38 66  1  0
 39 67  1  0
 39 68  1  0
 40 69  1  0
 40 70  1  0
 41 71  1  0
 41 72  1  0
M  CHG  1  24  -1
M  END
>  <meeko>  (4) 
{"is_sidechain": [false], "free_energy": -8.306, "intermolecular_energy": -11.534, "internal_energy": -2.276}

$$$$
LIB_ZRXGKCCYQOMSJI__M_PUB_ALL__e8__s20260927
     RDKit          3D

 72 78  0  0  0  0  0  0  0  0999 V2000
   11.9390  -11.9250    0.1950 C   0  0  0  0  0  0  0  0  0  0  0  0
   12.0310  -12.0510   -1.2440 N   0  0  0  0  0  0  0  0  0  0  0  0
   13.1350  -11.7140   -1.9900 C   0  0  0  0  0  0  0  0  0  0  0  0
   12.8330  -11.9290   -3.3150 C   0  0  0  0  0  0  0  0  0  0  0  0
   11.5060  -12.4220   -3.3690 C   0  0  0  0  0  0  0  0  0  0  0  0
   11.0380  -12.5290   -2.0720 C   0  0  0  0  0  0  0  0  0  0  0  0
    9.7640  -12.9630   -1.5910 C   0  0  0  0  0  0  0  0  0  0  0  0
    8.8510  -12.0950   -1.2050 N   0  0  0  0  0  0  0  0  0  0  0  0
    7.7620  -12.8370   -0.8320 C   0  0  0  0  0  0  0  0  0  0  0  0
    6.5160  -12.4060   -0.3510 C   0  0  0  0  0  0  0  0  0  0  0  0
    5.5580  -13.3720   -0.0080 C   0  0  0  0  0  0  0  0  0  0  0  0
    4.2640  -12.9120    0.5670 C   0  0  0  0  0  0  0  0  0  0  0  0
    4.1280  -11.7540    0.9440 O   0  0  0  0  0  0  0  0  0  0  0  0
    3.2910  -13.8780    0.6790 N   0  0  0  0  0  0  0  0  0  0  0  0
    1.9290  -13.6000    1.1310 C   0  0  1  0  0  0  0  0  0  0  0  0
    0.9470  -13.4260   -0.0520 C   0  0  0  0  0  0  0  0  0  0  0  0
    1.5270  -13.8460   -1.3700 C   0  0  0  0  0  0  0  0  0  0  0  0
    1.5900  -15.1300   -1.8780 C   0  0  0  0  0  0  0  0  0  0  0  0
    2.1190  -15.0620   -3.1400 N   0  0  0  0  0  0  0  0  0  0  0  0
    2.3910  -13.7580   -3.4730 C   0  0  0  0  0  0  0  0  0  0  0  0
    2.8800  -13.2040   -4.6560 C   0  0  0  0  0  0  0  0  0  0  0  0
    3.0180  -11.8050   -4.7040 C   0  0  0  0  0  0  0  0  0  0  0  0
    2.7260  -10.9380   -3.6360 C   0  0  0  0  0  0  0  0  0  0  0  0
    2.8290   -9.6710   -3.7270 O   0  0  0  0  0  0  0  0  0  0  0  0
    2.2910  -11.5790   -2.4570 C   0  0  0  0  0  0  0  0  0  0  0  0
    2.0770  -12.9760   -2.3680 C   0  0  0  0  0  0  0  0  0  0  0  0
    1.4490  -14.7100    2.0430 C   0  0  0  0  0  0  0  0  0  0  0  0
    1.9920  -15.1040    3.2580 C   0  0  0  0  0  0  0  0  0  0  0  0
    1.1090  -16.4140    3.9170 S   0  0  0  0  0  0  0  0  0  0  0  0
    0.0800  -16.3800    2.5490 C   0  0  0  0  0  0  0  0  0  0  0  0
    0.3540  -15.4740    1.6380 N   0  0  0  0  0  0  0  0  0  0  0  0
    5.8260  -14.7320   -0.1970 C   0  0  0  0  0  0  0  0  0  0  0  0
    7.0660  -15.1730   -0.6670 C   0  0  0  0  0  0  0  0  0  0  0  0
    8.0210  -14.1960   -0.9680 C   0  0  0  0  0  0  0  0  0  0  0  0
    9.3330  -14.2610   -1.4070 N   0  0  0  0  0  0  0  0  0  0  0  0
   10.0700  -15.5160   -1.5460 C   0  0  0  0  0  0  0  0  0  0  0  0
   10.1390  -16.0000   -3.0020 C   0  0  0  0  0  0  0  0  0  0  0  0
   10.7950  -17.3760   -3.0980 C   0  0  0  0  0  0  0  0  0  0  0  0
   12.1610  -17.4050   -2.4150 C   0  0  0  0  0  0  0  0  0  0  0  0
   12.0800  -16.9350   -0.9650 C   0  0  0  0  0  0  0  0  0  0  0  0
   11.4480  -15.5450   -0.8650 C   0  0  0  0  0  0  0  0  0  0  0  0
   12.5237  -12.7258    0.6713 H   0  0  0  0  0  0  0  0  0  0  0  0
   12.3371  -10.9471    0.5036 H   0  0  0  0  0  0  0  0  0  0  0  0
   10.8863  -12.0064    0.5036 H   0  0  0  0  0  0  0  0  0  0  0  0
   14.0914  -11.3386   -1.5971 H   0  0  0  0  0  0  0  0  0  0  0  0
   13.4982  -11.7512   -4.1728 H   0  0  0  0  0  0  0  0  0  0  0  0
   10.9465  -12.6751   -4.2816 H   0  0  0  0  0  0  0  0  0  0  0  0
    6.2952  -11.3336   -0.2452 H   0  0  0  0  0  0  0  0  0  0  0  0
    3.4970  -14.8230    0.3820 H   0  0  0  0  0  0  0  0  0  0  0  0
    1.9522  -12.6495    1.6841 H   0  0  0  0  0  0  0  0  0  0  0  0
    0.0515  -14.0336    0.1451 H   0  0  0  0  0  0  0  0  0  0  0  0
    0.7119  -12.3540   -0.1258 H   0  0  0  0  0  0  0  0  0  0  0  0
    1.2711  -16.0463   -1.3596 H   0  0  0  0  0  0  0  0  0  0  0  0
    2.2590  -15.8450   -3.7590 H   0  0  0  0  0  0  0  0  0  0  0  0
    3.1468  -13.8354   -5.5163 H   0  0  0  0  0  0  0  0  0  0  0  0
    3.3794  -11.3582   -5.6419 H   0  0  0  0  0  0  0  0  0  0  0  0
    2.1092  -10.9638   -1.5634 H   0  0  0  0  0  0  0  0  0  0  0  0
    2.8688  -14.6387    3.7320 H   0  0  0  0  0  0  0  0  0  0  0  0
   -0.7633  -17.0777    2.4391 H   0  0  0  0  0  0  0  0  0  0  0  0
    5.0431  -15.4708    0.0294 H   0  0  0  0  0  0  0  0  0  0  0  0
    7.2822  -16.2439   -0.7950 H   0  0  0  0  0  0  0  0  0  0  0  0
    9.4661  -16.2404   -0.9797 H   0  0  0  0  0  0  0  0  0  0  0  0
    9.1186  -16.0602   -3.4085 H   0  0  0  0  0  0  0  0  0  0  0  0
   10.7452  -15.2850   -3.5776 H   0  0  0  0  0  0  0  0  0  0  0  0
   10.1403  -18.1165   -2.6153 H   0  0  0  0  0  0  0  0  0  0  0  0
   10.9413  -17.6102   -4.1628 H   0  0  0  0  0  0  0  0  0  0  0  0
   12.5470  -18.4349   -2.4344 H   0  0  0  0  0  0  0  0  0  0  0  0
   12.8298  -16.7218   -2.9590 H   0  0  0  0  0  0  0  0  0  0  0  0
   11.4701  -17.6480   -0.3909 H   0  0  0  0  0  0  0  0  0  0  0  0
   13.1013  -16.8817   -0.5600 H   0  0  0  0  0  0  0  0  0  0  0  0
   11.3307  -15.2787    0.1958 H   0  0  0  0  0  0  0  0  0  0  0  0
   12.1052  -14.8239   -1.3730 H   0  0  0  0  0  0  0  0  0  0  0  0
  1  2  1  0
  2  3  1  0
  3  4  2  0
  4  5  1  0
  5  6  2  0
  6  7  1  0
  7  8  2  0
  8  9  1  0
  9 10  2  0
 10 11  1  0
 11 12  1  0
 12 13  2  0
 12 14  1  0
 14 15  1  0
 15 16  1  0
 16 17  1  0
 17 18  2  0
 18 19  1  0
 19 20  1  0
 20 21  2  0
 21 22  1  0
 22 23  2  0
 23 24  1  0
 23 25  1  0
 25 26  2  0
 15 27  1  0
 27 28  2  0
 28 29  1  0
 29 30  1  0
 30 31  2  0
 11 32  2  0
 32 33  1  0
 33 34  2  0
 34 35  1  0
 35 36  1  0
 36 37  1  0
 37 38  1  0
 38 39  1  0
 39 40  1  0
 40 41  1  0
  6  2  1  0
 35  7  1  0
 41 36  1  0
 34  9  1  0
 26 17  1  0
 31 27  1  0
 26 20  1  0
  1 42  1  0
  1 43  1  0
  1 44  1  0
  3 45  1  0
  4 46  1  0
  5 47  1  0
 10 48  1  0
 14 49  1  0
 15 50  1  1
 16 51  1  0
 16 52  1  0
 18 53  1  0
 19 54  1  0
 21 55  1  0
 22 56  1  0
 25 57  1  0
 28 58  1  0
 30 59  1  0
 32 60  1  0
 33 61  1  0
 36 62  1  0
 37 63  1  0
 37 64  1  0
 38 65  1  0
 38 66  1  0
 39 67  1  0
 39 68  1  0
 40 69  1  0
 40 70  1  0
 41 71  1  0
 41 72  1  0
M  CHG  1  24  -1
M  END
>  <meeko>  (5) 
{"is_sidechain": [false], "free_energy": -8.302, "intermolecular_energy": -11.895, "internal_energy": -1.908}

$$$$
LIB_ZRXGKCCYQOMSJI__M_PUB_ALL__e8__s20260927
     RDKit          3D

 72 78  0  0  0  0  0  0  0  0999 V2000
   -1.3820   -9.9820    1.0520 C   0  0  0  0  0  0  0  0  0  0  0  0
   -2.4210  -10.7950    0.4560 N   0  0  0  0  0  0  0  0  0  0  0  0
   -3.4540  -10.3080   -0.3070 C   0  0  0  0  0  0  0  0  0  0  0  0
   -4.2580  -11.3690   -0.6590 C   0  0  0  0  0  0  0  0  0  0  0  0
   -3.6840  -12.5350   -0.0980 C   0  0  0  0  0  0  0  0  0  0  0  0
   -2.5230  -12.1660    0.5570 C   0  0  0  0  0  0  0  0  0  0  0  0
   -1.5910  -12.9650    1.2880 C   0  0  0  0  0  0  0  0  0  0  0  0
   -1.7960  -13.2590    2.5560 N   0  0  0  0  0  0  0  0  0  0  0  0
   -0.7400  -14.0450    2.9350 C   0  0  0  0  0  0  0  0  0  0  0  0
   -0.4730  -14.6360    4.1800 C   0  0  0  0  0  0  0  0  0  0  0  0
    0.7030  -15.3860    4.3290 C   0  0  0  0  0  0  0  0  0  0  0  0
    1.0160  -15.9520    5.6700 C   0  0  0  0  0  0  0  0  0  0  0  0
    1.2020  -15.2110    6.6280 O   0  0  0  0  0  0  0  0  0  0  0  0
    1.1250  -17.3220    5.7220 N   0  0  0  0  0  0  0  0  0  0  0  0
    1.3340  -18.0660    6.9630 C   0  0  1  0  0  0  0  0  0  0  0  0
    0.0390  -18.7560    7.4530 C   0  0  0  0  0  0  0  0  0  0  0  0
   -1.1980  -17.9480    7.1940 C   0  0  0  0  0  0  0  0  0  0  0  0
   -1.8170  -17.0740    8.0670 C   0  0  0  0  0  0  0  0  0  0  0  0
   -2.8640  -16.4860    7.4080 N   0  0  0  0  0  0  0  0  0  0  0  0
   -2.9340  -16.9460    6.1160 C   0  0  0  0  0  0  0  0  0  0  0  0
   -3.7870  -16.5970    5.0710 C   0  0  0  0  0  0  0  0  0  0  0  0
   -3.5810  -17.2290    3.8300 C   0  0  0  0  0  0  0  0  0  0  0  0
   -2.5970  -18.2040    3.5880 C   0  0  0  0  0  0  0  0  0  0  0  0
   -2.4150  -18.7300    2.4410 O   0  0  0  0  0  0  0  0  0  0  0  0
   -1.8110  -18.5430    4.7090 C   0  0  0  0  0  0  0  0  0  0  0  0
   -1.9330  -17.8990    5.9640 C   0  0  0  0  0  0  0  0  0  0  0  0
    2.4280  -19.0970    6.7710 C   0  0  0  0  0  0  0  0  0  0  0  0
    2.2860  -20.4170    6.3690 C   0  0  0  0  0  0  0  0  0  0  0  0
    3.8110  -21.1950    6.3050 S   0  0  0  0  0  0  0  0  0  0  0  0
    4.5490  -19.7410    6.8250 C   0  0  0  0  0  0  0  0  0  0  0  0
    3.7450  -18.7280    7.0510 N   0  0  0  0  0  0  0  0  0  0  0  0
    1.5580  -15.5840    3.2400 C   0  0  0  0  0  0  0  0  0  0  0  0
    1.3070  -14.9940    1.9980 C   0  0  0  0  0  0  0  0  0  0  0  0
    0.1490  -14.2180    1.8790 C   0  0  0  0  0  0  0  0  0  0  0  0
   -0.3870  -13.4720    0.8430 N   0  0  0  0  0  0  0  0  0  0  0  0
    0.3030  -13.2540   -0.4270 C   0  0  0  0  0  0  0  0  0  0  0  0
    1.4720  -12.2660   -0.3000 C   0  0  0  0  0  0  0  0  0  0  0  0
    2.0870  -11.9560   -1.6630 C   0  0  0  0  0  0  0  0  0  0  0  0
    2.4850  -13.2270   -2.4110 C   0  0  0  0  0  0  0  0  0  0  0  0
    1.3140  -14.1970   -2.5430 C   0  0  0  0  0  0  0  0  0  0  0  0
    0.7110  -14.5320   -1.1780 C   0  0  0  0  0  0  0  0  0  0  0  0
   -1.4551  -10.0392    2.1481 H   0  0  0  0  0  0  0  0  0  0  0  0
   -0.3972  -10.3519    0.7304 H   0  0  0  0  0  0  0  0  0  0  0  0
   -1.5042   -8.9372    0.7304 H   0  0  0  0  0  0  0  0  0  0  0  0
   -3.6113   -9.2560   -0.5874 H   0  0  0  0  0  0  0  0  0  0  0  0
   -5.1756  -11.3197   -1.2636 H   0  0  0  0  0  0  0  0  0  0  0  0
   -4.0898  -13.5549   -0.1702 H   0  0  0  0  0  0  0  0  0  0  0  0
   -1.1713  -14.5135    5.0211 H   0  0  0  0  0  0  0  0  0  0  0  0
    0.9970  -17.8610    4.8740 H   0  0  0  0  0  0  0  0  0  0  0  0
    1.6364  -17.3428    7.7347 H   0  0  0  0  0  0  0  0  0  0  0  0
   -0.0597  -19.7214    6.9351 H   0  0  0  0  0  0  0  0  0  0  0  0
    0.1267  -18.8775    8.5427 H   0  0  0  0  0  0  0  0  0  0  0  0
   -1.5208  -16.8837    9.1091 H   0  0  0  0  0  0  0  0  0  0  0  0
   -3.4790  -15.7860    7.7930 H   0  0  0  0  0  0  0  0  0  0  0  0
   -4.5892  -15.8573    5.2101 H   0  0  0  0  0  0  0  0  0  0  0  0
   -4.2339  -16.9406    2.9930 H   0  0  0  0  0  0  0  0  0  0  0  0
   -1.0673  -19.3465    4.6031 H   0  0  0  0  0  0  0  0  0  0  0  0
    1.3271  -20.8976    6.1251 H   0  0  0  0  0  0  0  0  0  0  0  0
    5.6374  -19.6597    6.9623 H   0  0  0  0  0  0  0  0  0  0  0  0
    2.4481  -16.2184    3.3637 H   0  0  0  0  0  0  0  0  0  0  0  0
    1.9920  -15.1341    1.1488 H   0  0  0  0  0  0  0  0  0  0  0  0
   -0.4621  -12.7889   -1.0660 H   0  0  0  0  0  0  0  0  0  0  0  0
    1.1040  -11.3312    0.1481 H   0  0  0  0  0  0  0  0  0  0  0  0
    2.2458  -12.7233    0.3342 H   0  0  0  0  0  0  0  0  0  0  0  0
    1.3525  -11.4032   -2.2671 H   0  0  0  0  0  0  0  0  0  0  0  0
    2.9958  -11.3585   -1.4988 H   0  0  0  0  0  0  0  0  0  0  0  0
    2.8357  -12.9531   -3.4170 H   0  0  0  0  0  0  0  0  0  0  0  0
    3.2799  -13.7265   -1.8377 H   0  0  0  0  0  0  0  0  0  0  0  0
    0.5386  -13.7383   -3.1741 H   0  0  0  0  0  0  0  0  0  0  0  0
    1.6850  -15.1283   -2.9958 H   0  0  0  0  0  0  0  0  0  0  0  0
   -0.1780  -15.1635   -1.3227 H   0  0  0  0  0  0  0  0  0  0  0  0
    1.4677  -15.0625   -0.5814 H   0  0  0  0  0  0  0  0  0  0  0  0
  1  2  1  0
  2  3  1  0
  3  4  2  0
  4  5  1  0
  5  6  2  0
  6  7  1  0
  7  8  2  0
  8  9  1  0
  9 10  2  0
 10 11  1  0
 11 12  1  0
 12 13  2  0
 12 14  1  0
 14 15  1  0
 15 16  1  0
 16 17  1  0
 17 18  2  0
 18 19  1  0
 19 20  1  0
 20 21  2  0
 21 22  1  0
 22 23  2  0
 23 24  1  0
 23 25  1  0
 25 26  2  0
 15 27  1  0
 27 28  2  0
 28 29  1  0
 29 30  1  0
 30 31  2  0
 11 32  2  0
 32 33  1  0
 33 34  2  0
 34 35  1  0
 35 36  1  0
 36 37  1  0
 37 38  1  0
 38 39  1  0
 39 40  1  0
 40 41  1  0
  6  2  1  0
 35  7  1  0
 41 36  1  0
 34  9  1  0
 26 17  1  0
 31 27  1  0
 26 20  1  0
  1 42  1  0
  1 43  1  0
  1 44  1  0
  3 45  1  0
  4 46  1  0
  5 47  1  0
 10 48  1  0
 14 49  1  0
 15 50  1  1
 16 51  1  0
 16 52  1  0
 18 53  1  0
 19 54  1  0
 21 55  1  0
 22 56  1  0
 25 57  1  0
 28 58  1  0
 30 59  1  0
 32 60  1  0
 33 61  1  0
 36 62  1  0
 37 63  1  0
 37 64  1  0
 38 65  1  0
 38 66  1  0
 39 67  1  0
 39 68  1  0
 40 69  1  0
 40 70  1  0
 41 71  1  0
 41 72  1  0
M  CHG  1  24  -1
M  END
>  <meeko>  (6) 
{"is_sidechain": [false], "free_energy": -8.269, "intermolecular_energy": -11.741, "internal_energy": -2.017}

$$$$
LIB_ZRXGKCCYQOMSJI__M_PUB_ALL__e8__s20260927
     RDKit          3D

 72 78  0  0  0  0  0  0  0  0999 V2000
   -1.5560  -10.4600    1.4650 C   0  0  0  0  0  0  0  0  0  0  0  0
   -2.6510  -10.8980    0.6250 N   0  0  0  0  0  0  0  0  0  0  0  0
   -3.3400  -10.0900   -0.2460 C   0  0  0  0  0  0  0  0  0  0  0  0
   -4.3300  -10.8450   -0.8320 C   0  0  0  0  0  0  0  0  0  0  0  0
   -4.2270  -12.1550   -0.3050 C   0  0  0  0  0  0  0  0  0  0  0  0
   -3.1540  -12.1790    0.5680 C   0  0  0  0  0  0  0  0  0  0  0  0
   -2.6420  -13.2540    1.3590 C   0  0  0  0  0  0  0  0  0  0  0  0
   -3.1920  -13.5700    2.5140 N   0  0  0  0  0  0  0  0  0  0  0  0
   -2.4820  -14.6400    2.9880 C   0  0  0  0  0  0  0  0  0  0  0  0
   -2.6580  -15.3690    4.1750 C   0  0  0  0  0  0  0  0  0  0  0  0
   -1.7740  -16.4220    4.4540 C   0  0  0  0  0  0  0  0  0  0  0  0
   -1.9210  -17.1470    5.7460 C   0  0  0  0  0  0  0  0  0  0  0  0
   -2.3270  -18.3030    5.7670 O   0  0  0  0  0  0  0  0  0  0  0  0
   -1.6220  -16.4150    6.8710 N   0  0  0  0  0  0  0  0  0  0  0  0
   -1.6170  -16.9780    8.2190 C   0  0  1  0  0  0  0  0  0  0  0  0
   -3.0340  -17.3900    8.6830 C   0  0  0  0  0  0  0  0  0  0  0  0
   -3.9610  -16.2250    8.8630 C   0  0  0  0  0  0  0  0  0  0  0  0
   -3.9720  -15.3260    9.9140 C   0  0  0  0  0  0  0  0  0  0  0  0
   -4.9190  -14.3730    9.6470 N   0  0  0  0  0  0  0  0  0  0  0  0
   -5.5190  -14.6210    8.4380 C   0  0  0  0  0  0  0  0  0  0  0  0
   -6.4880  -13.9030    7.7380 C   0  0  0  0  0  0  0  0  0  0  0  0
   -6.8810  -14.4030    6.4820 C   0  0  0  0  0  0  0  0  0  0  0  0
   -6.3850  -15.5860    5.9060 C   0  0  0  0  0  0  0  0  0  0  0  0
   -6.7380  -15.9900    4.7500 O   0  0  0  0  0  0  0  0  0  0  0  0
   -5.4530  -16.2850    6.7000 C   0  0  0  0  0  0  0  0  0  0  0  0
   -4.9760  -15.8010    7.9430 C   0  0  0  0  0  0  0  0  0  0  0  0
   -0.6860  -18.1730    8.2790 C   0  0  0  0  0  0  0  0  0  0  0  0
    0.6810  -18.1940    8.0420 C   0  0  0  0  0  0  0  0  0  0  0  0
    1.2990  -19.7810    8.2200 S   0  0  0  0  0  0  0  0  0  0  0  0
   -0.2810  -20.3310    8.5840 C   0  0  0  0  0  0  0  0  0  0  0  0
   -1.2300  -19.4240    8.5710 N   0  0  0  0  0  0  0  0  0  0  0  0
   -0.7760  -16.7700    3.5370 C   0  0  0  0  0  0  0  0  0  0  0  0
   -0.5860  -16.0470    2.3560 C   0  0  0  0  0  0  0  0  0  0  0  0
   -1.4540  -14.9760    2.1130 C   0  0  0  0  0  0  0  0  0  0  0  0
   -1.5380  -14.0400    1.0970 N   0  0  0  0  0  0  0  0  0  0  0  0
   -0.5500  -13.9300    0.0250 C   0  0  0  0  0  0  0  0  0  0  0  0
    0.7990  -13.3890    0.5210 C   0  0  0  0  0  0  0  0  0  0  0  0
    1.7650  -13.1590   -0.6400 C   0  0  0  0  0  0  0  0  0  0  0  0
    1.9270  -14.4090   -1.5020 C   0  0  0  0  0  0  0  0  0  0  0  0
    0.5820  -14.9320   -2.0010 C   0  0  0  0  0  0  0  0  0  0  0  0
   -0.3800  -15.1900   -0.8400 C   0  0  0  0  0  0  0  0  0  0  0  0
   -1.8373  -10.5725    2.5224 H   0  0  0  0  0  0  0  0  0  0  0  0
   -0.6658  -11.0713    1.2554 H   0  0  0  0  0  0  0  0  0  0  0  0
   -1.3330   -9.4034    1.2554 H   0  0  0  0  0  0  0  0  0  0  0  0
   -3.1363   -9.0267   -0.4408 H   0  0  0  0  0  0  0  0  0  0  0  0
   -5.0648  -10.4957   -1.5723 H   0  0  0  0  0  0  0  0  0  0  0  0
   -4.8839  -13.0036   -0.5469 H   0  0  0  0  0  0  0  0  0  0  0  0
   -3.4720  -15.1197    4.8716 H   0  0  0  0  0  0  0  0  0  0  0  0
   -1.3330  -15.4500    6.7700 H   0  0  0  0  0  0  0  0  0  0  0  0
   -1.2592  -16.1938    8.9024 H   0  0  0  0  0  0  0  0  0  0  0  0
   -3.4651  -18.0662    7.9301 H   0  0  0  0  0  0  0  0  0  0  0  0
   -2.9273  -17.8762    9.6639 H   0  0  0  0  0  0  0  0  0  0  0  0
   -3.3323  -15.3688   10.8078 H   0  0  0  0  0  0  0  0  0  0  0  0
   -5.1290  -13.5780   10.2300 H   0  0  0  0  0  0  0  0  0  0  0  0
   -6.9276  -12.9829    8.1506 H   0  0  0  0  0  0  0  0  0  0  0  0
   -7.6269  -13.8292    5.9124 H   0  0  0  0  0  0  0  0  0  0  0  0
   -5.0780  -17.2532    6.3367 H   0  0  0  0  0  0  0  0  0  0  0  0
    1.2841  -17.3132    7.7766 H   0  0  0  0  0  0  0  0  0  0  0  0
   -0.4894  -21.3859    8.8159 H   0  0  0  0  0  0  0  0  0  0  0  0
   -0.1265  -17.6318    3.7503 H   0  0  0  0  0  0  0  0  0  0  0  0
    0.2129  -16.3089    1.6466 H   0  0  0  0  0  0  0  0  0  0  0  0
   -0.9820  -13.1819   -0.6560 H   0  0  0  0  0  0  0  0  0  0  0  0
    0.6326  -12.4352    1.0431 H   0  0  0  0  0  0  0  0  0  0  0  0
    1.2427  -14.1319    1.2002 H   0  0  0  0  0  0  0  0  0  0  0  0
    1.3790  -12.3420   -1.2673 H   0  0  0  0  0  0  0  0  0  0  0  0
    2.7492  -12.9050   -0.2194 H   0  0  0  0  0  0  0  0  0  0  0  0
    2.5578  -14.1641   -2.3693 H   0  0  0  0  0  0  0  0  0  0  0  0
    2.3907  -15.1924   -0.8845 H   0  0  0  0  0  0  0  0  0  0  0  0
    0.1364  -14.1871   -2.6767 H   0  0  0  0  0  0  0  0  0  0  0  0
    0.7531  -15.8825   -2.5276 H   0  0  0  0  0  0  0  0  0  0  0  0
   -1.3601  -15.4843   -1.2435 H   0  0  0  0  0  0  0  0  0  0  0  0
    0.0351  -15.9925   -0.2126 H   0  0  0  0  0  0  0  0  0  0  0  0
  1  2  1  0
  2  3  1  0
  3  4  2  0
  4  5  1  0
  5  6  2  0
  6  7  1  0
  7  8  2  0
  8  9  1  0
  9 10  2  0
 10 11  1  0
 11 12  1  0
 12 13  2  0
 12 14  1  0
 14 15  1  0
 15 16  1  0
 16 17  1  0
 17 18  2  0
 18 19  1  0
 19 20  1  0
 20 21  2  0
 21 22  1  0
 22 23  2  0
 23 24  1  0
 23 25  1  0
 25 26  2  0
 15 27  1  0
 27 28  2  0
 28 29  1  0
 29 30  1  0
 30 31  2  0
 11 32  2  0
 32 33  1  0
 33 34  2  0
 34 35  1  0
 35 36  1  0
 36 37  1  0
 37 38  1  0
 38 39  1  0
 39 40  1  0
 40 41  1  0
  6  2  1  0
 35  7  1  0
 41 36  1  0
 34  9  1  0
 26 17  1  0
 31 27  1  0
 26 20  1  0
  1 42  1  0
  1 43  1  0
  1 44  1  0
  3 45  1  0
  4 46  1  0
  5 47  1  0
 10 48  1  0
 14 49  1  0
 15 50  1  1
 16 51  1  0
 16 52  1  0
 18 53  1  0
 19 54  1  0
 21 55  1  0
 22 56  1  0
 25 57  1  0
 28 58  1  0
 30 59  1  0
 32 60  1  0
 33 61  1  0
 36 62  1  0
 37 63  1  0
 37 64  1  0
 38 65  1  0
 38 66  1  0
 39 67  1  0
 39 68  1  0
 40 69  1  0
 40 70  1  0
 41 71  1  0
 41 72  1  0
M  CHG  1  24  -1
M  END
>  <meeko>  (7) 
{"is_sidechain": [false], "free_energy": -8.261, "intermolecular_energy": -12.072, "internal_energy": -1.673}

$$$$
LIB_ZRXGKCCYQOMSJI__M_PUB_ALL__e8__s20260927
     RDKit          3D

 72 78  0  0  0  0  0  0  0  0999 V2000
   10.8130  -14.6850   -4.5750 C   0  0  0  0  0  0  0  0  0  0  0  0
   11.4660  -15.2700   -3.4230 N   0  0  0  0  0  0  0  0  0  0  0  0
   12.6230  -16.0080   -3.4710 C   0  0  0  0  0  0  0  0  0  0  0  0
   12.9120  -16.4290   -2.1930 C   0  0  0  0  0  0  0  0  0  0  0  0
   11.9000  -15.9180   -1.3440 C   0  0  0  0  0  0  0  0  0  0  0  0
   11.0330  -15.1680   -2.1190 C   0  0  0  0  0  0  0  0  0  0  0  0
    9.8520  -14.4570   -1.7430 C   0  0  0  0  0  0  0  0  0  0  0  0
    8.6560  -14.9770   -1.9330 N   0  0  0  0  0  0  0  0  0  0  0  0
    7.7650  -14.0570   -1.4470 C   0  0  0  0  0  0  0  0  0  0  0  0
    6.3640  -14.1170   -1.3970 C   0  0  0  0  0  0  0  0  0  0  0  0
    5.6630  -13.0230   -0.8680 C   0  0  0  0  0  0  0  0  0  0  0  0
    4.1750  -13.0620   -0.8810 C   0  0  0  0  0  0  0  0  0  0  0  0
    3.5280  -12.3080   -0.1630 O   0  0  0  0  0  0  0  0  0  0  0  0
    3.6150  -14.0150   -1.6990 N   0  0  0  0  0  0  0  0  0  0  0  0
    2.1760  -14.1450   -1.9170 C   0  0  1  0  0  0  0  0  0  0  0  0
    1.8040  -14.0520   -3.4160 C   0  0  0  0  0  0  0  0  0  0  0  0
    2.7010  -13.1350   -4.1940 C   0  0  0  0  0  0  0  0  0  0  0  0
    2.5780  -11.7640   -4.3190 C   0  0  0  0  0  0  0  0  0  0  0  0
    3.6470  -11.3070   -5.0450 N   0  0  0  0  0  0  0  0  0  0  0  0
    4.4730  -12.3490   -5.3850 C   0  0  0  0  0  0  0  0  0  0  0  0
    5.6900  -12.3620   -6.0650 C   0  0  0  0  0  0  0  0  0  0  0  0
    6.3260  -13.6060   -6.2280 C   0  0  0  0  0  0  0  0  0  0  0  0
    5.8030  -14.8320   -5.7800 C   0  0  0  0  0  0  0  0  0  0  0  0
    6.4240  -15.9370   -5.9140 O   0  0  0  0  0  0  0  0  0  0  0  0
    4.5430  -14.7440   -5.1530 C   0  0  0  0  0  0  0  0  0  0  0  0
    3.8840  -13.5150   -4.9080 C   0  0  0  0  0  0  0  0  0  0  0  0
    1.6810  -15.4570   -1.3420 C   0  0  0  0  0  0  0  0  0  0  0  0
    0.4070  -15.7520   -0.8800 C   0  0  0  0  0  0  0  0  0  0  0  0
    0.3290  -17.3660   -0.3140 S   0  0  0  0  0  0  0  0  0  0  0  0
    1.9850  -17.5590   -0.7050 C   0  0  0  0  0  0  0  0  0  0  0  0
    2.5890  -16.5090   -1.2140 N   0  0  0  0  0  0  0  0  0  0  0  0
    6.3550  -11.9230   -0.3510 C   0  0  0  0  0  0  0  0  0  0  0  0
    7.7500  -11.8480   -0.4030 C   0  0  0  0  0  0  0  0  0  0  0  0
    8.4290  -12.9330   -0.9690 C   0  0  0  0  0  0  0  0  0  0  0  0
    9.7680  -13.1840   -1.2160 N   0  0  0  0  0  0  0  0  0  0  0  0
   10.8220  -12.1950   -1.0000 C   0  0  0  0  0  0  0  0  0  0  0  0
   11.1640  -12.0130    0.4860 C   0  0  0  0  0  0  0  0  0  0  0  0
   12.1690  -10.8810    0.6900 C   0  0  0  0  0  0  0  0  0  0  0  0
   13.4170  -11.0650   -0.1700 C   0  0  0  0  0  0  0  0  0  0  0  0
   13.0680  -11.2320   -1.6470 C   0  0  0  0  0  0  0  0  0  0  0  0
   12.0830  -12.3820   -1.8600 C   0  0  0  0  0  0  0  0  0  0  0  0
   10.0329  -13.9862   -4.2387 H   0  0  0  0  0  0  0  0  0  0  0  0
   11.5542  -14.1432   -5.1808 H   0  0  0  0  0  0  0  0  0  0  0  0
   10.3557  -15.4811   -5.1808 H   0  0  0  0  0  0  0  0  0  0  0  0
   13.2149  -16.2246   -4.3725 H   0  0  0  0  0  0  0  0  0  0  0  0
   13.7692  -17.0471   -1.8878 H   0  0  0  0  0  0  0  0  0  0  0  0
   11.8178  -16.0874   -0.2602 H   0  0  0  0  0  0  0  0  0  0  0  0
    5.8265  -15.0034   -1.7649 H   0  0  0  0  0  0  0  0  0  0  0  0
    4.2220  -14.6280   -2.2300 H   0  0  0  0  0  0  0  0  0  0  0  0
    1.6866  -13.3056   -1.4013 H   0  0  0  0  0  0  0  0  0  0  0  0
    1.8684  -15.0586   -3.8549 H   0  0  0  0  0  0  0  0  0  0  0  0
    0.7862  -13.6389   -3.4742 H   0  0  0  0  0  0  0  0  0  0  0  0
    1.7648  -11.1477   -3.9079 H   0  0  0  0  0  0  0  0  0  0  0  0
    3.8310  -10.3420   -5.2720 H   0  0  0  0  0  0  0  0  0  0  0  0
    6.1352  -11.4362   -6.4584 H   0  0  0  0  0  0  0  0  0  0  0  0
    7.2990  -13.6208   -6.7410 H   0  0  0  0  0  0  0  0  0  0  0  0
    4.0483  -15.6750   -4.8391 H   0  0  0  0  0  0  0  0  0  0  0  0
   -0.4369  -15.0464   -0.8776 H   0  0  0  0  0  0  0  0  0  0  0  0
    2.5137  -18.5093   -0.5392 H   0  0  0  0  0  0  0  0  0  0  0  0
    5.7889  -11.0984    0.1068 H   0  0  0  0  0  0  0  0  0  0  0  0
    8.2915  -10.9726   -0.0152 H   0  0  0  0  0  0  0  0  0  0  0  0
   10.3777  -11.2554   -1.3602 H   0  0  0  0  0  0  0  0  0  0  0  0
   10.2428  -11.7783    1.0395 H   0  0  0  0  0  0  0  0  0  0  0  0
   11.6132  -12.9466    0.8556 H   0  0  0  0  0  0  0  0  0  0  0  0
   11.6900   -9.9277    0.4220 H   0  0  0  0  0  0  0  0  0  0  0  0
   12.4788  -10.8866    1.7455 H   0  0  0  0  0  0  0  0  0  0  0  0
   14.0626  -10.1819   -0.0543 H   0  0  0  0  0  0  0  0  0  0  0  0
   13.9317  -11.9776    0.1651 H   0  0  0  0  0  0  0  0  0  0  0  0
   12.6151  -10.2998   -2.0155 H   0  0  0  0  0  0  0  0  0  0  0  0
   13.9923  -11.4608   -2.1978 H   0  0  0  0  0  0  0  0  0  0  0  0
   11.7932  -12.4154   -2.9206 H   0  0  0  0  0  0  0  0  0  0  0  0
   12.5725  -13.3216   -1.5640 H   0  0  0  0  0  0  0  0  0  0  0  0
  1  2  1  0
  2  3  1  0
  3  4  2  0
  4  5  1  0
  5  6  2  0
  6  7  1  0
  7  8  2  0
  8  9  1  0
  9 10  2  0
 10 11  1  0
 11 12  1  0
 12 13  2  0
 12 14  1  0
 14 15  1  0
 15 16  1  0
 16 17  1  0
 17 18  2  0
 18 19  1  0
 19 20  1  0
 20 21  2  0
 21 22  1  0
 22 23  2  0
 23 24  1  0
 23 25  1  0
 25 26  2  0
 15 27  1  0
 27 28  2  0
 28 29  1  0
 29 30  1  0
 30 31  2  0
 11 32  2  0
 32 33  1  0
 33 34  2  0
 34 35  1  0
 35 36  1  0
 36 37  1  0
 37 38  1  0
 38 39  1  0
 39 40  1  0
 40 41  1  0
  6  2  1  0
 35  7  1  0
 41 36  1  0
 34  9  1  0
 26 17  1  0
 31 27  1  0
 26 20  1  0
  1 42  1  0
  1 43  1  0
  1 44  1  0
  3 45  1  0
  4 46  1  0
  5 47  1  0
 10 48  1  0
 14 49  1  0
 15 50  1  1
 16 51  1  0
 16 52  1  0
 18 53  1  0
 19 54  1  0
 21 55  1  0
 22 56  1  0
 25 57  1  0
 28 58  1  0
 30 59  1  0
 32 60  1  0
 33 61  1  0
 36 62  1  0
 37 63  1  0
 37 64  1  0
 38 65  1  0
 38 66  1  0
 39 67  1  0
 39 68  1  0
 40 69  1  0
 40 70  1  0
 41 71  1  0
 41 72  1  0
M  CHG  1  24  -1
M  END
>  <meeko>  (8) 
{"is_sidechain": [false], "free_energy": -8.172, "intermolecular_energy": -11.974, "internal_energy": -1.647}

$$$$
LIB_ZRXGKCCYQOMSJI__M_PUB_ALL__e8__s20260927
     RDKit          3D

 72 78  0  0  0  0  0  0  0  0999 V2000
   -1.9630  -14.4380   -0.0990 C   0  0  0  0  0  0  0  0  0  0  0  0
   -2.1210  -13.4480    0.9450 N   0  0  0  0  0  0  0  0  0  0  0  0
   -3.3250  -13.0600    1.4800 C   0  0  0  0  0  0  0  0  0  0  0  0
   -3.0790  -12.0750    2.4100 C   0  0  0  0  0  0  0  0  0  0  0  0
   -1.6780  -11.8700    2.4440 C   0  0  0  0  0  0  0  0  0  0  0  0
   -1.0960  -12.7590    1.5570 C   0  0  0  0  0  0  0  0  0  0  0  0
    0.2800  -12.9440    1.2180 C   0  0  0  0  0  0  0  0  0  0  0  0
    0.8590  -12.2010    0.2980 N   0  0  0  0  0  0  0  0  0  0  0  0
    2.1620  -12.6200    0.2410 C   0  0  0  0  0  0  0  0  0  0  0  0
    3.2110  -12.1540   -0.5660 C   0  0  0  0  0  0  0  0  0  0  0  0
    4.4670  -12.7710   -0.4570 C   0  0  0  0  0  0  0  0  0  0  0  0
    5.5580  -12.3210   -1.3640 C   0  0  0  0  0  0  0  0  0  0  0  0
    5.7300  -11.1270   -1.5840 O   0  0  0  0  0  0  0  0  0  0  0  0
    6.2920  -13.3250   -1.9500 N   0  0  0  0  0  0  0  0  0  0  0  0
    7.4590  -13.0820   -2.7940 C   0  0  1  0  0  0  0  0  0  0  0  0
    8.6930  -13.8930   -2.3300 C   0  0  0  0  0  0  0  0  0  0  0  0
    9.6890  -13.0730   -1.5660 C   0  0  0  0  0  0  0  0  0  0  0  0
    9.6080  -12.6920   -0.2400 C   0  0  0  0  0  0  0  0  0  0  0  0
   10.7600  -12.0240    0.0810 N   0  0  0  0  0  0  0  0  0  0  0  0
   11.5990  -11.9710   -1.0050 C   0  0  0  0  0  0  0  0  0  0  0  0
   12.8840  -11.4470   -1.1370 C   0  0  0  0  0  0  0  0  0  0  0  0
   13.5100  -11.5810   -2.3900 C   0  0  0  0  0  0  0  0  0  0  0  0
   12.9160  -12.1770   -3.5170 C   0  0  0  0  0  0  0  0  0  0  0  0
   13.5270  -12.3130   -4.6280 O   0  0  0  0  0  0  0  0  0  0  0  0
   11.5950  -12.6300   -3.3190 C   0  0  0  0  0  0  0  0  0  0  0  0
   10.9370  -12.5760   -2.0670 C   0  0  0  0  0  0  0  0  0  0  0  0
    7.1350  -13.4150   -4.2370 C   0  0  0  0  0  0  0  0  0  0  0  0
    6.0780  -12.9380   -4.9990 C   0  0  0  0  0  0  0  0  0  0  0  0
    6.1210  -13.6080   -6.5740 S   0  0  0  0  0  0  0  0  0  0  0  0
    7.5210  -14.4900   -6.1370 C   0  0  0  0  0  0  0  0  0  0  0  0
    7.9490  -14.3300   -4.9060 N   0  0  0  0  0  0  0  0  0  0  0  0
    4.6750  -13.7900    0.4790 C   0  0  0  0  0  0  0  0  0  0  0  0
    3.6360  -14.2670    1.2810 C   0  0  0  0  0  0  0  0  0  0  0  0
    2.3820  -13.6650    1.1320 C   0  0  0  0  0  0  0  0  0  0  0  0
    1.1470  -13.8970    1.7140 N   0  0  0  0  0  0  0  0  0  0  0  0
    0.8840  -15.0150    2.6170 C   0  0  0  0  0  0  0  0  0  0  0  0
    1.1370  -16.3780    1.9560 C   0  0  0  0  0  0  0  0  0  0  0  0
    0.7280  -17.5270    2.8770 C   0  0  0  0  0  0  0  0  0  0  0  0
    1.3890  -17.4200    4.2490 C   0  0  0  0  0  0  0  0  0  0  0  0
    1.1210  -16.0670    4.9040 C   0  0  0  0  0  0  0  0  0  0  0  0
    1.5550  -14.9140    3.9970 C   0  0  0  0  0  0  0  0  0  0  0  0
   -1.8051  -15.4275    0.3549 H   0  0  0  0  0  0  0  0  0  0  0  0
   -2.8688  -14.4610   -0.7226 H   0  0  0  0  0  0  0  0  0  0  0  0
   -1.0950  -14.1779   -0.7226 H   0  0  0  0  0  0  0  0  0  0  0  0
   -4.3121  -13.4650    1.2125 H   0  0  0  0  0  0  0  0  0  0  0  0
   -3.8306  -11.5458    3.0141 H   0  0  0  0  0  0  0  0  0  0  0  0
   -1.1464  -11.1343    3.0655 H   0  0  0  0  0  0  0  0  0  0  0  0
    3.0524  -11.3230   -1.2690 H   0  0  0  0  0  0  0  0  0  0  0  0
    6.0590  -14.2900   -1.7480 H   0  0  0  0  0  0  0  0  0  0  0  0
    7.7117  -12.0150   -2.7069 H   0  0  0  0  0  0  0  0  0  0  0  0
    8.3484  -14.7142   -1.6844 H   0  0  0  0  0  0  0  0  0  0  0  0
    9.1996  -14.2611   -3.2344 H   0  0  0  0  0  0  0  0  0  0  0  0
    8.7656  -12.8905    0.4390 H   0  0  0  0  0  0  0  0  0  0  0  0
   10.9880  -11.6520    0.9900 H   0  0  0  0  0  0  0  0  0  0  0  0
   13.3882  -10.9489   -0.2957 H   0  0  0  0  0  0  0  0  0  0  0  0
   14.5339  -11.1931   -2.4953 H   0  0  0  0  0  0  0  0  0  0  0  0
   11.0497  -13.0454   -4.1793 H   0  0  0  0  0  0  0  0  0  0  0  0
    5.3180  -12.2280   -4.6409 H   0  0  0  0  0  0  0  0  0  0  0  0
    8.0340  -15.1542   -6.8481 H   0  0  0  0  0  0  0  0  0  0  0  0
    5.6796  -14.2252    0.5855 H   0  0  0  0  0  0  0  0  0  0  0  0
    3.7971  -15.0831    2.0008 H   0  0  0  0  0  0  0  0  0  0  0  0
   -0.1933  -14.9370    2.8254 H   0  0  0  0  0  0  0  0  0  0  0  0
    0.5527  -16.4390    1.0260 H   0  0  0  0  0  0  0  0  0  0  0  0
    2.2131  -16.4675    1.7465 H   0  0  0  0  0  0  0  0  0  0  0  0
   -0.3642  -17.5078    3.0060 H   0  0  0  0  0  0  0  0  0  0  0  0
    1.0561  -18.4689    2.4132 H   0  0  0  0  0  0  0  0  0  0  0  0
    0.9924  -18.2146    4.8982 H   0  0  0  0  0  0  0  0  0  0  0  0
    2.4756  -17.5251    4.1140 H   0  0  0  0  0  0  0  0  0  0  0  0
    0.0442  -15.9754    5.1094 H   0  0  0  0  0  0  0  0  0  0  0  0
    1.7014  -16.0121    5.8368 H   0  0  0  0  0  0  0  0  0  0  0  0
    1.2706  -13.9606    4.4663 H   0  0  0  0  0  0  0  0  0  0  0  0
    2.6453  -14.9667    3.8610 H   0  0  0  0  0  0  0  0  0  0  0  0
  1  2  1  0
  2  3  1  0
  3  4  2  0
  4  5  1  0
  5  6  2  0
  6  7  1  0
  7  8  2  0
  8  9  1  0
  9 10  2  0
 10 11  1  0
 11 12  1  0
 12 13  2  0
 12 14  1  0
 14 15  1  0
 15 16  1  0
 16 17  1  0
 17 18  2  0
 18 19  1  0
 19 20  1  0
 20 21  2  0
 21 22  1  0
 22 23  2  0
 23 24  1  0
 23 25  1  0
 25 26  2  0
 15 27  1  0
 27 28  2  0
 28 29  1  0
 29 30  1  0
 30 31  2  0
 11 32  2  0
 32 33  1  0
 33 34  2  0
 34 35  1  0
 35 36  1  0
 36 37  1  0
 37 38  1  0
 38 39  1  0
 39 40  1  0
 40 41  1  0
  6  2  1  0
 35  7  1  0
 41 36  1  0
 34  9  1  0
 26 17  1  0
 31 27  1  0
 26 20  1  0
  1 42  1  0
  1 43  1  0
  1 44  1  0
  3 45  1  0
  4 46  1  0
  5 47  1  0
 10 48  1  0
 14 49  1  0
 15 50  1  6
 16 51  1  0
 16 52  1  0
 18 53  1  0
 19 54  1  0
 21 55  1  0
 22 56  1  0
 25 57  1  0
 28 58  1  0
 30 59  1  0
 32 60  1  0
 33 61  1  0
 36 62  1  0
 37 63  1  0
 37 64  1  0
 38 65  1  0
 38 66  1  0
 39 67  1  0
 39 68  1  0
 40 69  1  0
 40 70  1  0
 41 71  1  0
 41 72  1  0
M  CHG  1  24  -1
M  END
>  <meeko>  (9) 
{"is_sidechain": [false], "free_energy": -8.16, "intermolecular_energy": -12.013, "internal_energy": -1.59}

$$$$
