LIB_FZTHERNGBACIMX__M_PUB_ALL__e8__s20260927
     RDKit          3D

 63 67  0  0  0  0  0  0  0  0999 V2000
    0.6170  -15.1030    5.8580 C   0  0  0  0  0  0  0  0  0  0  0  0
    1.2190  -15.3230    4.4780 C   0  0  2  0  0  0  0  0  0  0  0  0
    1.6000  -14.0410    3.9740 O   0  0  0  0  0  0  0  0  0  0  0  0
    0.2150  -16.0180    3.5360 C   0  0  0  0  0  0  0  0  0  0  0  0
   -1.0880  -15.3870    3.5850 N   0  0  0  0  0  0  0  0  0  0  0  0
   -1.5730  -14.5330    2.6420 C   0  0  0  0  0  0  0  0  0  0  0  0
   -2.3060  -15.0850    1.6740 N   0  0  0  0  0  0  0  0  0  0  0  0
   -2.7800  -14.2630    0.7230 C   0  0  0  0  0  0  0  0  0  0  0  0
   -2.5650  -12.9060    0.7130 C   0  0  0  0  0  0  0  0  0  0  0  0
   -1.8230  -12.4100    1.7610 C   0  0  0  0  0  0  0  0  0  0  0  0
   -1.5370  -11.0130    1.8820 N   0  0  0  0  0  0  0  0  0  0  0  0
   -2.2970  -10.1400    2.6400 C   0  0  0  0  0  0  0  0  0  0  0  0
   -1.6140   -8.9540    2.6650 C   0  0  0  0  0  0  0  0  0  0  0  0
   -0.5000   -9.0290    1.8840 N   0  0  0  0  0  0  0  0  0  0  0  0
   -0.5100  -10.2360    1.3370 C   0  0  0  0  0  0  0  0  0  0  0  0
    0.4170  -10.6130    0.2680 C   0  0  0  0  0  0  0  0  0  0  0  0
    1.3790  -11.5990    0.5010 C   0  0  0  0  0  0  0  0  0  0  0  0
    2.2820  -11.9630   -0.5040 C   0  0  0  0  0  0  0  0  0  0  0  0
    2.2450  -11.3400   -1.7580 C   0  0  0  0  0  0  0  0  0  0  0  0
    3.1890  -11.7680   -2.7140 N   0  0  0  0  0  0  0  0  0  0  0  0
    2.9500  -12.4790   -3.8760 C   0  0  0  0  0  0  0  0  0  0  0  0
    1.8620  -12.9150   -4.2340 O   0  0  0  0  0  0  0  0  0  0  0  0
    4.1430  -12.7160   -4.6820 C   0  0  0  0  0  0  0  0  0  0  0  0
    5.3810  -12.1810   -4.3870 C   0  0  0  0  0  0  0  0  0  0  0  0
    6.3110  -12.5600   -5.2970 O   0  0  0  0  0  0  0  0  0  0  0  0
    5.6860  -13.3600   -6.2110 C   0  0  0  0  0  0  0  0  0  0  0  0
    6.5370  -13.8770   -7.2820 C   0  0  0  0  0  0  0  0  0  0  0  0
    6.3620  -13.3650   -8.5840 C   0  0  0  0  0  0  0  0  0  0  0  0
    7.1460  -13.8020   -9.6670 C   0  0  0  0  0  0  0  0  0  0  0  0
    6.9450  -13.2110  -11.0430 C   0  0  0  0  0  0  0  0  0  0  0  0
    8.0170  -13.3910  -11.8640 F   0  0  0  0  0  0  0  0  0  0  0  0
    6.7290  -11.8680  -10.9970 F   0  0  0  0  0  0  0  0  0  0  0  0
    5.8780  -13.7430  -11.7000 F   0  0  0  0  0  0  0  0  0  0  0  0
    8.1350  -14.7640   -9.4370 C   0  0  0  0  0  0  0  0  0  0  0  0
    8.3210  -15.2890   -8.1570 C   0  0  0  0  0  0  0  0  0  0  0  0
    7.5280  -14.8540   -7.0850 C   0  0  0  0  0  0  0  0  0  0  0  0
    7.8180  -15.6100   -5.5550 Cl  0  0  0  0  0  0  0  0  0  0  0  0
    4.3560  -13.4950   -5.8620 C   0  0  0  0  0  0  0  0  0  0  0  0
    1.3050  -10.3330   -1.9800 C   0  0  0  0  0  0  0  0  0  0  0  0
    0.4040   -9.9630   -0.9720 C   0  0  0  0  0  0  0  0  0  0  0  0
   -1.2880  -13.2250    2.7060 N   0  0  0  0  0  0  0  0  0  0  0  0
    1.3554  -15.3728    6.6274 H   0  0  0  0  0  0  0  0  0  0  0  0
    0.3385  -14.0450    5.9721 H   0  0  0  0  0  0  0  0  0  0  0  0
   -0.2781  -15.7321    5.9721 H   0  0  0  0  0  0  0  0  0  0  0  0
    2.0944  -15.9861    4.5414 H   0  0  0  0  0  0  0  0  0  0  0  0
    1.2920  -14.0110    3.0450 H   0  0  0  0  0  0  0  0  0  0  0  0
    0.5978  -15.9668    2.5060 H   0  0  0  0  0  0  0  0  0  0  0  0
    0.1036  -17.0625    3.8626 H   0  0  0  0  0  0  0  0  0  0  0  0
   -1.6960  -15.5130    4.3810 H   0  0  0  0  0  0  0  0  0  0  0  0
   -3.3734  -14.7008   -0.0932 H   0  0  0  0  0  0  0  0  0  0  0  0
   -2.9607  -12.2570   -0.0821 H   0  0  0  0  0  0  0  0  0  0  0  0
   -3.2597  -10.3562    3.1263 H   0  0  0  0  0  0  0  0  0  0  0  0
   -1.9213   -8.0651    3.2355 H   0  0  0  0  0  0  0  0  0  0  0  0
    1.4269  -12.0932    1.4826 H   0  0  0  0  0  0  0  0  0  0  0  0
    3.0286  -12.7465   -0.3073 H   0  0  0  0  0  0  0  0  0  0  0  0
    4.1520  -11.5450   -2.5060 H   0  0  0  0  0  0  0  0  0  0  0  0
    5.5862  -11.5305   -3.5240 H   0  0  0  0  0  0  0  0  0  0  0  0
    5.5896  -12.6013   -8.7580 H   0  0  0  0  0  0  0  0  0  0  0  0
    8.7685  -15.1081  -10.2678 H   0  0  0  0  0  0  0  0  0  0  0  0
    9.0964  -16.0506   -7.9876 H   0  0  0  0  0  0  0  0  0  0  0  0
    3.6003  -14.0917   -6.3938 H   0  0  0  0  0  0  0  0  0  0  0  0
    1.2707   -9.8248   -2.9550 H   0  0  0  0  0  0  0  0  0  0  0  0
   -0.3194   -9.1552   -1.1567 H   0  0  0  0  0  0  0  0  0  0  0  0
  1  2  1  0
  2  3  1  0
  2  4  1  0
  4  5  1  0
  5  6  1  0
  6  7  2  0
  7  8  1  0
  8  9  2  0
  9 10  1  0
 10 11  1  0
 11 12  1  0
 12 13  2  0
 13 14  1  0
 14 15  2  0
 15 16  1  0
 16 17  2  0
 17 18  1  0
 18 19  2  0
 19 20  1  0
 20 21  1  0
 21 22  2  0
 21 23  1  0
 23 24  2  0
 24 25  1  0
 25 26  1  0
 26 27  1  0
 27 28  2  0
 28 29  1  0
 29 30  1  0
 30 31  1  0
 30 32  1  0
 30 33  1  0
 29 34  2  0
 34 35  1  0
 35 36  2  0
 36 37  1  0
 26 38  2  0
 19 39  1  0
 39 40  2  0
 10 41  2  0
 41  6  1  0
 15 11  1  0
 40 16  1  0
 38 23  1  0
 36 27  1  0
  1 42  1  0
  1 43  1  0
  1 44  1  0
  2 45  1  1
  3 46  1  0
  4 47  1  0
  4 48  1  0
  5 49  1  0
  8 50  1  0
  9 51  1  0
 12 52  1  0
 13 53  1  0
 17 54  1  0
 18 55  1  0
 20 56  1  0
 24 57  1  0
 28 58  1  0
 34 59  1  0
 35 60  1  0
 38 61  1  0
 39 62  1  0
 40 63  1  0
M  END
>  <meeko>  (1) 
{"is_sidechain": [false], "free_energy": -8.869, "intermolecular_energy": -13.794, "internal_energy": -1.958}

$$$$
LIB_FZTHERNGBACIMX__M_PUB_ALL__e8__s20260927
     RDKit          3D

 63 67  0  0  0  0  0  0  0  0999 V2000
    0.7900  -14.8080   -2.3630 C   0  0  0  0  0  0  0  0  0  0  0  0
    0.2630  -15.1400   -0.9750 C   0  0  2  0  0  0  0  0  0  0  0  0
    0.7820  -16.4250   -0.6210 O   0  0  0  0  0  0  0  0  0  0  0  0
   -1.2800  -15.1340   -0.9480 C   0  0  0  0  0  0  0  0  0  0  0  0
   -1.7910  -15.2950    0.3970 N   0  0  0  0  0  0  0  0  0  0  0  0
   -1.4680  -14.4950    1.4510 C   0  0  0  0  0  0  0  0  0  0  0  0
   -1.1500  -15.1210    2.5840 N   0  0  0  0  0  0  0  0  0  0  0  0
   -0.8450  -14.3510    3.6420 C   0  0  0  0  0  0  0  0  0  0  0  0
   -0.8280  -12.9770    3.6050 C   0  0  0  0  0  0  0  0  0  0  0  0
   -1.1420  -12.4070    2.3910 C   0  0  0  0  0  0  0  0  0  0  0  0
   -1.1470  -10.9890    2.2080 N   0  0  0  0  0  0  0  0  0  0  0  0
   -2.0000  -10.1350    2.8830 C   0  0  0  0  0  0  0  0  0  0  0  0
   -1.5840   -8.8620    2.5940 C   0  0  0  0  0  0  0  0  0  0  0  0
   -0.5580   -8.8900    1.6980 N   0  0  0  0  0  0  0  0  0  0  0  0
   -0.3640  -10.1650    1.3930 C   0  0  0  0  0  0  0  0  0  0  0  0
    0.5180  -10.5780    0.3000 C   0  0  0  0  0  0  0  0  0  0  0  0
    1.5010  -11.5450    0.5280 C   0  0  0  0  0  0  0  0  0  0  0  0
    2.3600  -11.9420   -0.5010 C   0  0  0  0  0  0  0  0  0  0  0  0
    2.2590  -11.3720   -1.7770 C   0  0  0  0  0  0  0  0  0  0  0  0
    3.1630  -11.8310   -2.7570 N   0  0  0  0  0  0  0  0  0  0  0  0
    3.5850  -11.1650   -3.8940 C   0  0  0  0  0  0  0  0  0  0  0  0
    3.1810  -10.0710   -4.2710 O   0  0  0  0  0  0  0  0  0  0  0  0
    4.5760  -11.8970   -4.6770 C   0  0  0  0  0  0  0  0  0  0  0  0
    5.8830  -12.0820   -4.2690 C   0  0  0  0  0  0  0  0  0  0  0  0
    6.5860  -12.7940   -5.1820 O   0  0  0  0  0  0  0  0  0  0  0  0
    5.7380  -13.0900   -6.2120 C   0  0  0  0  0  0  0  0  0  0  0  0
    6.3210  -13.8680   -7.3040 C   0  0  0  0  0  0  0  0  0  0  0  0
    6.3370  -13.3030   -8.5960 C   0  0  0  0  0  0  0  0  0  0  0  0
    6.8870  -13.9810   -9.6980 C   0  0  0  0  0  0  0  0  0  0  0  0
    6.9090  -13.3310  -11.0620 C   0  0  0  0  0  0  0  0  0  0  0  0
    8.0620  -13.5660  -11.7480 F   0  0  0  0  0  0  0  0  0  0  0  0
    6.7860  -11.9780  -10.9870 F   0  0  0  0  0  0  0  0  0  0  0  0
    5.9000  -13.7570  -11.8710 F   0  0  0  0  0  0  0  0  0  0  0  0
    7.4440  -15.2490   -9.4990 C   0  0  0  0  0  0  0  0  0  0  0  0
    7.4330  -15.8300   -8.2290 C   0  0  0  0  0  0  0  0  0  0  0  0
    6.8730  -15.1500   -7.1390 C   0  0  0  0  0  0  0  0  0  0  0  0
    6.8740  -15.9890   -5.6240 Cl  0  0  0  0  0  0  0  0  0  0  0  0
    4.4880  -12.5700   -5.9340 C   0  0  0  0  0  0  0  0  0  0  0  0
    1.2990  -10.3840   -1.9970 C   0  0  0  0  0  0  0  0  0  0  0  0
    0.4410   -9.9810   -0.9650 C   0  0  0  0  0  0  0  0  0  0  0  0
   -1.5040  -13.1620    1.3210 N   0  0  0  0  0  0  0  0  0  0  0  0
    1.7176  -14.2236   -2.2729 H   0  0  0  0  0  0  0  0  0  0  0  0
    0.9955  -15.7401   -2.9098 H   0  0  0  0  0  0  0  0  0  0  0  0
    0.0380  -14.2202   -2.9098 H   0  0  0  0  0  0  0  0  0  0  0  0
    0.5891  -14.3811   -0.2485 H   0  0  0  0  0  0  0  0  0  0  0  0
    0.5820  -16.5450    0.3300 H   0  0  0  0  0  0  0  0  0  0  0  0
   -1.6403  -14.1774   -1.3544 H   0  0  0  0  0  0  0  0  0  0  0  0
   -1.6376  -15.9788   -1.5549 H   0  0  0  0  0  0  0  0  0  0  0  0
   -2.3890  -16.0720    0.6360 H   0  0  0  0  0  0  0  0  0  0  0  0
   -0.5949  -14.8480    4.5909 H   0  0  0  0  0  0  0  0  0  0  0  0
   -0.5794  -12.3711    4.4888 H   0  0  0  0  0  0  0  0  0  0  0  0
   -2.8458  -10.4214    3.5253 H   0  0  0  0  0  0  0  0  0  0  0  0
   -2.0170   -7.9470    3.0244 H   0  0  0  0  0  0  0  0  0  0  0  0
    1.5996  -11.9976    1.5257 H   0  0  0  0  0  0  0  0  0  0  0  0
    3.1232  -12.7100   -0.3069 H   0  0  0  0  0  0  0  0  0  0  0  0
    3.5220  -12.7640   -2.6160 H   0  0  0  0  0  0  0  0  0  0  0  0
    6.2989  -11.7004   -3.3248 H   0  0  0  0  0  0  0  0  0  0  0  0
    5.9063  -12.3020   -8.7460 H   0  0  0  0  0  0  0  0  0  0  0  0
    7.8920  -15.7900  -10.3455 H   0  0  0  0  0  0  0  0  0  0  0  0
    7.8676  -16.8299   -8.0830 H   0  0  0  0  0  0  0  0  0  0  0  0
    3.5909  -12.6581   -6.5644 H   0  0  0  0  0  0  0  0  0  0  0  0
    1.2148   -9.9171   -2.9894 H   0  0  0  0  0  0  0  0  0  0  0  0
   -0.2995   -9.1889   -1.1498 H   0  0  0  0  0  0  0  0  0  0  0  0
  1  2  1  0
  2  3  1  0
  2  4  1  0
  4  5  1  0
  5  6  1  0
  6  7  2  0
  7  8  1  0
  8  9  2  0
  9 10  1  0
 10 11  1  0
 11 12  1  0
 12 13  2  0
 13 14  1  0
 14 15  2  0
 15 16  1  0
 16 17  2  0
 17 18  1  0
 18 19  2  0
 19 20  1  0
 20 21  1  0
 21 22  2  0
 21 23  1  0
 23 24  2  0
 24 25  1  0
 25 26  1  0
 26 27  1  0
 27 28  2  0
 28 29  1  0
 29 30  1  0
 30 31  1  0
 30 32  1  0
 30 33  1  0
 29 34  2  0
 34 35  1  0
 35 36  2  0
 36 37  1  0
 26 38  2  0
 19 39  1  0
 39 40  2  0
 10 41  2  0
 41  6  1  0
 15 11  1  0
 40 16  1  0
 38 23  1  0
 36 27  1  0
  1 42  1  0
  1 43  1  0
  1 44  1  0
  2 45  1  1
  3 46  1  0
  4 47  1  0
  4 48  1  0
  5 49  1  0
  8 50  1  0
  9 51  1  0
 12 52  1  0
 13 53  1  0
 17 54  1  0
 18 55  1  0
 20 56  1  0
 24 57  1  0
 28 58  1  0
 34 59  1  0
 35 60  1  0
 38 61  1  0
 39 62  1  0
 40 63  1  0
M  END
>  <meeko>  (2) 
{"is_sidechain": [false], "free_energy": -8.776, "intermolecular_energy": -14.184, "internal_energy": -1.424}

$$$$
LIB_FZTHERNGBACIMX__M_PUB_ALL__e8__s20260927
     RDKit          3D

 63 67  0  0  0  0  0  0  0  0999 V2000
    7.4630  -11.1960    0.9490 C   0  0  0  0  0  0  0  0  0  0  0  0
    8.6500  -12.0300    0.4920 C   0  0  2  0  0  0  0  0  0  0  0  0
    8.2290  -13.3960    0.4850 O   0  0  0  0  0  0  0  0  0  0  0  0
    9.8660  -11.8230    1.4180 C   0  0  0  0  0  0  0  0  0  0  0  0
   11.0210  -12.5640    0.9550 N   0  0  0  0  0  0  0  0  0  0  0  0
   11.7900  -12.2150   -0.1130 C   0  0  0  0  0  0  0  0  0  0  0  0
   12.7740  -11.3490    0.1310 N   0  0  0  0  0  0  0  0  0  0  0  0
   13.5340  -10.9770   -0.9130 C   0  0  0  0  0  0  0  0  0  0  0  0
   13.3590  -11.4530   -2.1900 C   0  0  0  0  0  0  0  0  0  0  0  0
   12.3400  -12.3640   -2.3550 C   0  0  0  0  0  0  0  0  0  0  0  0
   12.0580  -12.9510   -3.6290 N   0  0  0  0  0  0  0  0  0  0  0  0
   13.0230  -13.1880   -4.5910 C   0  0  0  0  0  0  0  0  0  0  0  0
   12.4170  -13.9220   -5.5760 C   0  0  0  0  0  0  0  0  0  0  0  0
   11.0910  -14.0790   -5.3030 N   0  0  0  0  0  0  0  0  0  0  0  0
   10.8590  -13.4100   -4.1830 C   0  0  0  0  0  0  0  0  0  0  0  0
    9.5020  -13.1710   -3.6870 C   0  0  0  0  0  0  0  0  0  0  0  0
    8.6540  -14.2540   -3.4360 C   0  0  0  0  0  0  0  0  0  0  0  0
    7.3510  -14.0440   -2.9750 C   0  0  0  0  0  0  0  0  0  0  0  0
    6.8670  -12.7460   -2.7640 C   0  0  0  0  0  0  0  0  0  0  0  0
    5.5430  -12.6230   -2.2950 N   0  0  0  0  0  0  0  0  0  0  0  0
    5.0060  -13.1550   -1.1370 C   0  0  0  0  0  0  0  0  0  0  0  0
    5.5930  -13.8870   -0.3480 O   0  0  0  0  0  0  0  0  0  0  0  0
    3.6100  -12.7940   -0.9100 C   0  0  0  0  0  0  0  0  0  0  0  0
    2.8860  -11.9800   -1.7600 C   0  0  0  0  0  0  0  0  0  0  0  0
    1.6180  -11.8080   -1.3130 O   0  0  0  0  0  0  0  0  0  0  0  0
    1.4930  -12.5170   -0.1520 C   0  0  0  0  0  0  0  0  0  0  0  0
    0.1780  -12.4570    0.4830 C   0  0  0  0  0  0  0  0  0  0  0  0
   -0.0880  -11.3980    1.3750 C   0  0  0  0  0  0  0  0  0  0  0  0
   -1.3300  -11.2620    2.0210 C   0  0  0  0  0  0  0  0  0  0  0  0
   -1.5850  -10.0980    2.9490 C   0  0  0  0  0  0  0  0  0  0  0  0
   -2.8860   -9.6940    2.9550 F   0  0  0  0  0  0  0  0  0  0  0  0
   -0.8540   -9.0020    2.6110 F   0  0  0  0  0  0  0  0  0  0  0  0
   -1.2750  -10.3740    4.2460 F   0  0  0  0  0  0  0  0  0  0  0  0
   -2.3320  -12.2030    1.7570 C   0  0  0  0  0  0  0  0  0  0  0  0
   -2.0870  -13.2630    0.8830 C   0  0  0  0  0  0  0  0  0  0  0  0
   -0.8430  -13.3950    0.2510 C   0  0  0  0  0  0  0  0  0  0  0  0
   -0.6410  -14.7750   -0.7740 Cl  0  0  0  0  0  0  0  0  0  0  0  0
    2.6900  -13.1510    0.1230 C   0  0  0  0  0  0  0  0  0  0  0  0
    7.7040  -11.6640   -3.0440 C   0  0  0  0  0  0  0  0  0  0  0  0
    9.0080  -11.8730   -3.5120 C   0  0  0  0  0  0  0  0  0  0  0  0
   11.5250  -12.7170   -1.3280 N   0  0  0  0  0  0  0  0  0  0  0  0
    7.4318  -11.1741    2.0483 H   0  0  0  0  0  0  0  0  0  0  0  0
    7.5657  -10.1705    0.5646 H   0  0  0  0  0  0  0  0  0  0  0  0
    6.5330  -11.6403    0.5646 H   0  0  0  0  0  0  0  0  0  0  0  0
    8.9718  -11.7233   -0.5142 H   0  0  0  0  0  0  0  0  0  0  0  0
    8.6950  -13.8200   -0.2650 H   0  0  0  0  0  0  0  0  0  0  0  0
   10.1161  -10.7521    1.4447 H   0  0  0  0  0  0  0  0  0  0  0  0
    9.6013  -12.1898    2.4207 H   0  0  0  0  0  0  0  0  0  0  0  0
   11.2850  -13.4370    1.3860 H   0  0  0  0  0  0  0  0  0  0  0  0
   14.3411  -10.2510   -0.7353 H   0  0  0  0  0  0  0  0  0  0  0  0
   13.9930  -11.1268   -3.0276 H   0  0  0  0  0  0  0  0  0  0  0  0
   14.0706  -12.8531   -4.5694 H   0  0  0  0  0  0  0  0  0  0  0  0
   12.9281  -14.3273   -6.4617 H   0  0  0  0  0  0  0  0  0  0  0  0
    9.0150  -15.2796   -3.6026 H   0  0  0  0  0  0  0  0  0  0  0  0
    6.6987  -14.9070   -2.7758 H   0  0  0  0  0  0  0  0  0  0  0  0
    4.9150  -12.1060   -2.8930 H   0  0  0  0  0  0  0  0  0  0  0  0
    3.2868  -11.5299   -2.6802 H   0  0  0  0  0  0  0  0  0  0  0  0
    0.6996  -10.6557    1.5717 H   0  0  0  0  0  0  0  0  0  0  0  0
   -3.3156  -12.1067    2.2399 H   0  0  0  0  0  0  0  0  0  0  0  0
   -2.8780  -14.0022    0.6882 H   0  0  0  0  0  0  0  0  0  0  0  0
    2.8963  -13.8094    0.9797 H   0  0  0  0  0  0  0  0  0  0  0  0
    7.3362  -10.6380   -2.8958 H   0  0  0  0  0  0  0  0  0  0  0  0
    9.6490  -11.0097   -3.7439 H   0  0  0  0  0  0  0  0  0  0  0  0
  1  2  1  0
  2  3  1  0
  2  4  1  0
  4  5  1  0
  5  6  1  0
  6  7  2  0
  7  8  1  0
  8  9  2  0
  9 10  1  0
 10 11  1  0
 11 12  1  0
 12 13  2  0
 13 14  1  0
 14 15  2  0
 15 16  1  0
 16 17  2  0
 17 18  1  0
 18 19  2  0
 19 20  1  0
 20 21  1  0
 21 22  2  0
 21 23  1  0
 23 24  2  0
 24 25  1  0
 25 26  1  0
 26 27  1  0
 27 28  2  0
 28 29  1  0
 29 30  1  0
 30 31  1  0
 30 32  1  0
 30 33  1  0
 29 34  2  0
 34 35  1  0
 35 36  2  0
 36 37  1  0
 26 38  2  0
 19 39  1  0
 39 40  2  0
 10 41  2  0
 41  6  1  0
 15 11  1  0
 40 16  1  0
 38 23  1  0
 36 27  1  0
  1 42  1  0
  1 43  1  0
  1 44  1  0
  2 45  1  6
  3 46  1  0
  4 47  1  0
  4 48  1  0
  5 49  1  0
  8 50  1  0
  9 51  1  0
 12 52  1  0
 13 53  1  0
 17 54  1  0
 18 55  1  0
 20 56  1  0
 24 57  1  0
 28 58  1  0
 34 59  1  0
 35 60  1  0
 38 61  1  0
 39 62  1  0
 40 63  1  0
M  END
>  <meeko>  (3) 
{"is_sidechain": [false], "free_energy": -8.484, "intermolecular_energy": -13.105, "internal_energy": -2.049}

$$$$
LIB_FZTHERNGBACIMX__M_PUB_ALL__e8__s20260927
     RDKit          3D

 63 67  0  0  0  0  0  0  0  0999 V2000
   -2.3670  -18.7670    4.5110 C   0  0  0  0  0  0  0  0  0  0  0  0
   -2.4290  -17.8720    3.2820 C   0  0  2  0  0  0  0  0  0  0  0  0
   -1.2030  -18.0480    2.5690 O   0  0  0  0  0  0  0  0  0  0  0  0
   -2.6400  -16.3960    3.6770 C   0  0  0  0  0  0  0  0  0  0  0  0
   -1.7260  -15.5200    2.9730 N   0  0  0  0  0  0  0  0  0  0  0  0
   -2.1010  -14.5670    2.0750 C   0  0  0  0  0  0  0  0  0  0  0  0
   -2.8390  -14.9890    1.0480 N   0  0  0  0  0  0  0  0  0  0  0  0
   -3.2050  -14.0690    0.1400 C   0  0  0  0  0  0  0  0  0  0  0  0
   -2.8770  -12.7380    0.2300 C   0  0  0  0  0  0  0  0  0  0  0  0
   -2.1370  -12.3770    1.3350 C   0  0  0  0  0  0  0  0  0  0  0  0
   -1.7400  -11.0210    1.5600 N   0  0  0  0  0  0  0  0  0  0  0  0
   -2.4850  -10.1200    2.3000 C   0  0  0  0  0  0  0  0  0  0  0  0
   -1.7040   -9.0050    2.4530 C   0  0  0  0  0  0  0  0  0  0  0  0
   -0.5350   -9.1460    1.7660 N   0  0  0  0  0  0  0  0  0  0  0  0
   -0.6030  -10.3170    1.1510 C   0  0  0  0  0  0  0  0  0  0  0  0
    0.3800  -10.7250    0.1460 C   0  0  0  0  0  0  0  0  0  0  0  0
    0.5350   -9.9700   -1.0200 C   0  0  0  0  0  0  0  0  0  0  0  0
    1.4590  -10.3530   -1.9980 C   0  0  0  0  0  0  0  0  0  0  0  0
    2.2410  -11.5040   -1.8320 C   0  0  0  0  0  0  0  0  0  0  0  0
    3.1490  -11.8160   -2.8640 N   0  0  0  0  0  0  0  0  0  0  0  0
    2.8830  -12.4700   -4.0530 C   0  0  0  0  0  0  0  0  0  0  0  0
    1.8030  -12.9490   -4.3770 O   0  0  0  0  0  0  0  0  0  0  0  0
    4.0380  -12.5850   -4.9380 C   0  0  0  0  0  0  0  0  0  0  0  0
    5.3050  -12.1570   -4.5970 C   0  0  0  0  0  0  0  0  0  0  0  0
    6.1870  -12.3830   -5.6000 O   0  0  0  0  0  0  0  0  0  0  0  0
    5.5010  -12.9710   -6.6240 C   0  0  0  0  0  0  0  0  0  0  0  0
    6.2950  -13.2990   -7.8070 C   0  0  0  0  0  0  0  0  0  0  0  0
    6.7960  -14.6110   -7.9350 C   0  0  0  0  0  0  0  0  0  0  0  0
    7.5600  -15.0110   -9.0460 C   0  0  0  0  0  0  0  0  0  0  0  0
    8.0560  -16.4330   -9.1600 C   0  0  0  0  0  0  0  0  0  0  0  0
    7.3310  -17.3140   -8.4160 F   0  0  0  0  0  0  0  0  0  0  0  0
    9.3450  -16.5610   -8.7430 F   0  0  0  0  0  0  0  0  0  0  0  0
    8.0240  -16.9070  -10.4360 F   0  0  0  0  0  0  0  0  0  0  0  0
    7.8160  -14.0780  -10.0570 C   0  0  0  0  0  0  0  0  0  0  0  0
    7.3360  -12.7720   -9.9470 C   0  0  0  0  0  0  0  0  0  0  0  0
    6.5840  -12.3800   -8.8310 C   0  0  0  0  0  0  0  0  0  0  0  0
    6.0810  -10.7240   -8.7820 Cl  0  0  0  0  0  0  0  0  0  0  0  0
    4.1790  -13.1280   -6.2530 C   0  0  0  0  0  0  0  0  0  0  0  0
    2.0640  -12.2750   -0.6820 C   0  0  0  0  0  0  0  0  0  0  0  0
    1.1340  -11.8960    0.2950 C   0  0  0  0  0  0  0  0  0  0  0  0
   -1.7100  -13.2960    2.2380 N   0  0  0  0  0  0  0  0  0  0  0  0
   -2.4099  -18.1470    5.4186 H   0  0  0  0  0  0  0  0  0  0  0  0
   -3.2191  -19.4626    4.5014 H   0  0  0  0  0  0  0  0  0  0  0  0
   -1.4271  -19.3384    4.5014 H   0  0  0  0  0  0  0  0  0  0  0  0
   -3.2844  -18.1477    2.6477 H   0  0  0  0  0  0  0  0  0  0  0  0
   -1.1800  -18.9880    2.2950 H   0  0  0  0  0  0  0  0  0  0  0  0
   -3.6724  -16.1052    3.4331 H   0  0  0  0  0  0  0  0  0  0  0  0
   -2.4488  -16.2977    4.7558 H   0  0  0  0  0  0  0  0  0  0  0  0
   -0.7270  -15.6180    3.0780 H   0  0  0  0  0  0  0  0  0  0  0  0
   -3.8005  -14.3999   -0.7237 H   0  0  0  0  0  0  0  0  0  0  0  0
   -3.1855  -12.0068   -0.5317 H   0  0  0  0  0  0  0  0  0  0  0  0
   -3.5031  -10.2695    2.6886 H   0  0  0  0  0  0  0  0  0  0  0  0
   -1.9809   -8.1210    3.0462 H   0  0  0  0  0  0  0  0  0  0  0  0
   -0.0748   -9.0669   -1.1699 H   0  0  0  0  0  0  0  0  0  0  0  0
    1.5730   -9.7442   -2.9070 H   0  0  0  0  0  0  0  0  0  0  0  0
    4.1080  -11.5470   -2.6960 H   0  0  0  0  0  0  0  0  0  0  0  0
    5.5651  -11.6922   -3.6346 H   0  0  0  0  0  0  0  0  0  0  0  0
    6.5829  -15.3433   -7.1423 H   0  0  0  0  0  0  0  0  0  0  0  0
    8.3979  -14.3750  -10.9420 H   0  0  0  0  0  0  0  0  0  0  0  0
    7.5498  -12.0438  -10.7433 H   0  0  0  0  0  0  0  0  0  0  0  0
    3.3825  -13.5861   -6.8577 H   0  0  0  0  0  0  0  0  0  0  0  0
    2.6602  -13.1887   -0.5414 H   0  0  0  0  0  0  0  0  0  0  0  0
    0.9947  -12.5239    1.1874 H   0  0  0  0  0  0  0  0  0  0  0  0
  1  2  1  0
  2  3  1  0
  2  4  1  0
  4  5  1  0
  5  6  1  0
  6  7  2  0
  7  8  1  0
  8  9  2  0
  9 10  1  0
 10 11  1  0
 11 12  1  0
 12 13  2  0
 13 14  1  0
 14 15  2  0
 15 16  1  0
 16 17  2  0
 17 18  1  0
 18 19  2  0
 19 20  1  0
 20 21  1  0
 21 22  2  0
 21 23  1  0
 23 24  2  0
 24 25  1  0
 25 26  1  0
 26 27  1  0
 27 28  2  0
 28 29  1  0
 29 30  1  0
 30 31  1  0
 30 32  1  0
 30 33  1  0
 29 34  2  0
 34 35  1  0
 35 36  2  0
 36 37  1  0
 26 38  2  0
 19 39  1  0
 39 40  2  0
 10 41  2  0
 41  6  1  0
 15 11  1  0
 40 16  1  0
 38 23  1  0
 36 27  1  0
  1 42  1  0
  1 43  1  0
  1 44  1  0
  2 45  1  6
  3 46  1  0
  4 47  1  0
  4 48  1  0
  5 49  1  0
  8 50  1  0
  9 51  1  0
 12 52  1  0
 13 53  1  0
 17 54  1  0
 18 55  1  0
 20 56  1  0
 24 57  1  0
 28 58  1  0
 34 59  1  0
 35 60  1  0
 38 61  1  0
 39 62  1  0
 40 63  1  0
M  END
>  <meeko>  (4) 
{"is_sidechain": [false], "free_energy": -8.412, "intermolecular_energy": -13.372, "internal_energy": -1.669}

$$$$
LIB_FZTHERNGBACIMX__M_PUB_ALL__e8__s20260927
     RDKit          3D

 63 67  0  0  0  0  0  0  0  0999 V2000
    7.2040  -10.8320    0.9070 C   0  0  0  0  0  0  0  0  0  0  0  0
    8.2740  -11.8940    0.7050 C   0  0  2  0  0  0  0  0  0  0  0  0
    7.7150  -13.1420    1.1210 O   0  0  0  0  0  0  0  0  0  0  0  0
    9.5500  -11.5580    1.5040 C   0  0  0  0  0  0  0  0  0  0  0  0
   10.6680  -12.3810    1.0940 N   0  0  0  0  0  0  0  0  0  0  0  0
   11.4650  -12.1290    0.0190 C   0  0  0  0  0  0  0  0  0  0  0  0
   12.5000  -11.3160    0.2340 N   0  0  0  0  0  0  0  0  0  0  0  0
   13.2890  -11.0390   -0.8170 C   0  0  0  0  0  0  0  0  0  0  0  0
   13.0940  -11.5600   -2.0730 C   0  0  0  0  0  0  0  0  0  0  0  0
   12.0210  -12.4130   -2.2080 C   0  0  0  0  0  0  0  0  0  0  0  0
   11.7120  -13.0380   -3.4570 N   0  0  0  0  0  0  0  0  0  0  0  0
   12.6670  -13.3640   -4.4040 C   0  0  0  0  0  0  0  0  0  0  0  0
   12.0260  -14.1070   -5.3600 C   0  0  0  0  0  0  0  0  0  0  0  0
   10.6930  -14.1850   -5.0870 N   0  0  0  0  0  0  0  0  0  0  0  0
   10.4930  -13.4590   -3.9970 C   0  0  0  0  0  0  0  0  0  0  0  0
    9.1490  -13.1310   -3.5170 C   0  0  0  0  0  0  0  0  0  0  0  0
    8.2360  -14.1560   -3.2550 C   0  0  0  0  0  0  0  0  0  0  0  0
    6.9440  -13.8600   -2.8080 C   0  0  0  0  0  0  0  0  0  0  0  0
    6.5370  -12.5320   -2.6250 C   0  0  0  0  0  0  0  0  0  0  0  0
    5.2190  -12.3230   -2.1700 N   0  0  0  0  0  0  0  0  0  0  0  0
    4.6550  -12.7630   -0.9860 C   0  0  0  0  0  0  0  0  0  0  0  0
    5.2060  -13.4760   -0.1550 O   0  0  0  0  0  0  0  0  0  0  0  0
    3.2770  -12.3260   -0.7880 C   0  0  0  0  0  0  0  0  0  0  0  0
    2.5950  -11.5250   -1.6820 C   0  0  0  0  0  0  0  0  0  0  0  0
    1.3350  -11.2710   -1.2530 O   0  0  0  0  0  0  0  0  0  0  0  0
    1.1720  -11.9120   -0.0580 C   0  0  0  0  0  0  0  0  0  0  0  0
   -0.1410  -11.7580    0.5660 C   0  0  0  0  0  0  0  0  0  0  0  0
   -0.9970  -12.8780    0.6120 C   0  0  0  0  0  0  0  0  0  0  0  0
   -2.2710  -12.8160    1.2020 C   0  0  0  0  0  0  0  0  0  0  0  0
   -3.1480  -14.0460    1.2560 C   0  0  0  0  0  0  0  0  0  0  0  0
   -3.9160  -14.1060    2.3790 F   0  0  0  0  0  0  0  0  0  0  0  0
   -2.4220  -15.1960    1.2350 F   0  0  0  0  0  0  0  0  0  0  0  0
   -4.0140  -14.1270    0.2080 F   0  0  0  0  0  0  0  0  0  0  0  0
   -2.6930  -11.6090    1.7690 C   0  0  0  0  0  0  0  0  0  0  0  0
   -1.8650  -10.4860    1.7280 C   0  0  0  0  0  0  0  0  0  0  0  0
   -0.5990  -10.5550    1.1290 C   0  0  0  0  0  0  0  0  0  0  0  0
    0.3190   -9.0870    1.0970 Cl  0  0  0  0  0  0  0  0  0  0  0  0
    2.3370  -12.5860    0.2580 C   0  0  0  0  0  0  0  0  0  0  0  0
    7.4390  -11.5080   -2.9170 C   0  0  0  0  0  0  0  0  0  0  0  0
    8.7320  -11.8030   -3.3690 C   0  0  0  0  0  0  0  0  0  0  0  0
   11.1780  -12.6680   -1.1740 N   0  0  0  0  0  0  0  0  0  0  0  0
    7.0438  -10.6730    1.9836 H   0  0  0  0  0  0  0  0  0  0  0  0
    7.5299   -9.8900    0.4417 H   0  0  0  0  0  0  0  0  0  0  0  0
    6.2645  -11.1649    0.4417 H   0  0  0  0  0  0  0  0  0  0  0  0
    8.5741  -11.9422   -0.3522 H   0  0  0  0  0  0  0  0  0  0  0  0
    7.9080  -13.2200    2.0780 H   0  0  0  0  0  0  0  0  0  0  0  0
    9.8059  -10.5008    1.3398 H   0  0  0  0  0  0  0  0  0  0  0  0
    9.3510  -11.7535    2.5680 H   0  0  0  0  0  0  0  0  0  0  0  0
   10.8810  -13.2440    1.5720 H   0  0  0  0  0  0  0  0  0  0  0  0
   14.1384  -10.3571   -0.6635 H   0  0  0  0  0  0  0  0  0  0  0  0
   13.7533  -11.3116   -2.9178 H   0  0  0  0  0  0  0  0  0  0  0  0
   13.7303  -13.0823   -4.3916 H   0  0  0  0  0  0  0  0  0  0  0  0
   12.5178  -14.5746   -6.2257 H   0  0  0  0  0  0  0  0  0  0  0  0
    8.5358  -15.2042   -3.4015 H   0  0  0  0  0  0  0  0  0  0  0  0
    6.2400  -14.6787   -2.5979 H   0  0  0  0  0  0  0  0  0  0  0  0
    4.6170  -11.8120   -2.7990 H   0  0  0  0  0  0  0  0  0  0  0  0
    3.0198  -11.1422   -2.6217 H   0  0  0  0  0  0  0  0  0  0  0  0
   -0.6575  -13.8278    0.1732 H   0  0  0  0  0  0  0  0  0  0  0  0
   -3.6807  -11.5445    2.2488 H   0  0  0  0  0  0  0  0  0  0  0  0
   -2.2085   -9.5388    2.1693 H   0  0  0  0  0  0  0  0  0  0  0  0
    2.5091  -13.2074    1.1492 H   0  0  0  0  0  0  0  0  0  0  0  0
    7.1320  -10.4592   -2.7911 H   0  0  0  0  0  0  0  0  0  0  0  0
    9.4255  -10.9838   -3.6097 H   0  0  0  0  0  0  0  0  0  0  0  0
  1  2  1  0
  2  3  1  0
  2  4  1  0
  4  5  1  0
  5  6  1  0
  6  7  2  0
  7  8  1  0
  8  9  2  0
  9 10  1  0
 10 11  1  0
 11 12  1  0
 12 13  2  0
 13 14  1  0
 14 15  2  0
 15 16  1  0
 16 17  2  0
 17 18  1  0
 18 19  2  0
 19 20  1  0
 20 21  1  0
 21 22  2  0
 21 23  1  0
 23 24  2  0
 24 25  1  0
 25 26  1  0
 26 27  1  0
 27 28  2  0
 28 29  1  0
 29 30  1  0
 30 31  1  0
 30 32  1  0
 30 33  1  0
 29 34  2  0
 34 35  1  0
 35 36  2  0
 36 37  1  0
 26 38  2  0
 19 39  1  0
 39 40  2  0
 10 41  2  0
 41  6  1  0
 15 11  1  0
 40 16  1  0
 38 23  1  0
 36 27  1  0
  1 42  1  0
  1 43  1  0
  1 44  1  0
  2 45  1  6
  3 46  1  0
  4 47  1  0
  4 48  1  0
  5 49  1  0
  8 50  1  0
  9 51  1  0
 12 52  1  0
 13 53  1  0
 17 54  1  0
 18 55  1  0
 20 56  1  0
 24 57  1  0
 28 58  1  0
 34 59  1  0
 35 60  1  0
 38 61  1  0
 39 62  1  0
 40 63  1  0
M  END
>  <meeko>  (5) 
{"is_sidechain": [false], "free_energy": -8.359, "intermolecular_energy": -13.002, "internal_energy": -1.957}

$$$$
LIB_FZTHERNGBACIMX__M_PUB_ALL__e8__s20260927
     RDKit          3D

 63 67  0  0  0  0  0  0  0  0999 V2000
    0.9740  -10.4810    0.5680 C   0  0  0  0  0  0  0  0  0  0  0  0
   -0.0440   -9.4040    0.9120 C   0  0  2  0  0  0  0  0  0  0  0  0
    0.5890   -8.4970    1.8180 O   0  0  0  0  0  0  0  0  0  0  0  0
   -1.3160  -10.0170    1.5330 C   0  0  0  0  0  0  0  0  0  0  0  0
   -1.0340  -10.6620    2.7990 N   0  0  0  0  0  0  0  0  0  0  0  0
   -1.0140  -12.0090    2.9970 C   0  0  0  0  0  0  0  0  0  0  0  0
   -0.7570  -12.4140    4.2410 N   0  0  0  0  0  0  0  0  0  0  0  0
   -0.7140  -13.7400    4.4550 C   0  0  0  0  0  0  0  0  0  0  0  0
   -0.9380  -14.6770    3.4760 C   0  0  0  0  0  0  0  0  0  0  0  0
   -1.2240  -14.1780    2.2240 C   0  0  0  0  0  0  0  0  0  0  0  0
   -1.4930  -15.0430    1.1160 N   0  0  0  0  0  0  0  0  0  0  0  0
   -2.6740  -15.7460    0.9650 C   0  0  0  0  0  0  0  0  0  0  0  0
   -2.6390  -16.2990   -0.2870 C   0  0  0  0  0  0  0  0  0  0  0  0
   -1.4450  -16.0370   -0.8890 N   0  0  0  0  0  0  0  0  0  0  0  0
   -0.7210  -15.3660   -0.0040 C   0  0  0  0  0  0  0  0  0  0  0  0
    0.7020  -15.0910   -0.2120 C   0  0  0  0  0  0  0  0  0  0  0  0
    1.6390  -15.5450    0.7210 C   0  0  0  0  0  0  0  0  0  0  0  0
    3.0010  -15.2800    0.5460 C   0  0  0  0  0  0  0  0  0  0  0  0
    3.4510  -14.5480   -0.5600 C   0  0  0  0  0  0  0  0  0  0  0  0
    4.8400  -14.3280   -0.6610 N   0  0  0  0  0  0  0  0  0  0  0  0
    5.5520  -13.2210   -0.2370 C   0  0  0  0  0  0  0  0  0  0  0  0
    5.0680  -12.2040    0.2470 O   0  0  0  0  0  0  0  0  0  0  0  0
    6.9940  -13.3300   -0.4360 C   0  0  0  0  0  0  0  0  0  0  0  0
    7.6810  -14.5270   -0.3910 C   0  0  0  0  0  0  0  0  0  0  0  0
    9.0050  -14.3430   -0.6090 O   0  0  0  0  0  0  0  0  0  0  0  0
    9.2060  -13.0060   -0.8040 C   0  0  0  0  0  0  0  0  0  0  0  0
   10.5890  -12.6080   -1.0620 C   0  0  0  0  0  0  0  0  0  0  0  0
   11.1870  -13.0110   -2.2740 C   0  0  0  0  0  0  0  0  0  0  0  0
   12.5090  -12.6610   -2.6040 C   0  0  0  0  0  0  0  0  0  0  0  0
   13.1060  -13.0900   -3.9240 C   0  0  0  0  0  0  0  0  0  0  0  0
   14.1190  -13.9900   -3.7850 F   0  0  0  0  0  0  0  0  0  0  0  0
   13.6270  -12.0410   -4.6160 F   0  0  0  0  0  0  0  0  0  0  0  0
   12.1980  -13.6760   -4.7530 F   0  0  0  0  0  0  0  0  0  0  0  0
   13.2430  -11.8810   -1.7040 C   0  0  0  0  0  0  0  0  0  0  0  0
   12.6720  -11.4780   -0.4950 C   0  0  0  0  0  0  0  0  0  0  0  0
   11.3570  -11.8390   -0.1720 C   0  0  0  0  0  0  0  0  0  0  0  0
   10.7740  -11.3200    1.3740 Cl  0  0  0  0  0  0  0  0  0  0  0  0
    7.9930  -12.3480   -0.7220 C   0  0  0  0  0  0  0  0  0  0  0  0
    2.5130  -14.0680   -1.4750 C   0  0  0  0  0  0  0  0  0  0  0  0
    1.1470  -14.3280   -1.2980 C   0  0  0  0  0  0  0  0  0  0  0  0
   -1.2210  -12.8450    1.9700 N   0  0  0  0  0  0  0  0  0  0  0  0
    1.3804  -10.9110    1.4953 H   0  0  0  0  0  0  0  0  0  0  0  0
    0.4861  -11.2723   -0.0200 H   0  0  0  0  0  0  0  0  0  0  0  0
    1.7915  -10.0384   -0.0200 H   0  0  0  0  0  0  0  0  0  0  0  0
   -0.3664   -8.8755    0.0028 H   0  0  0  0  0  0  0  0  0  0  0  0
   -0.0200   -8.4030    2.5780 H   0  0  0  0  0  0  0  0  0  0  0  0
   -2.0543   -9.2180    1.6961 H   0  0  0  0  0  0  0  0  0  0  0  0
   -1.7057  -10.7765    0.8393 H   0  0  0  0  0  0  0  0  0  0  0  0
   -0.8910  -10.1190    3.6380 H   0  0  0  0  0  0  0  0  0  0  0  0
   -0.4867  -14.0949    5.4711 H   0  0  0  0  0  0  0  0  0  0  0  0
   -0.8920  -15.7572    3.6787 H   0  0  0  0  0  0  0  0  0  0  0  0
   -3.4823  -15.8420    1.7049 H   0  0  0  0  0  0  0  0  0  0  0  0
   -3.4589  -16.8736   -0.7425 H   0  0  0  0  0  0  0  0  0  0  0  0
    1.3024  -16.1150    1.5995 H   0  0  0  0  0  0  0  0  0  0  0  0
    3.7267  -15.6505    1.2850 H   0  0  0  0  0  0  0  0  0  0  0  0
    5.3650  -15.0600   -1.1180 H   0  0  0  0  0  0  0  0  0  0  0  0
    7.2130  -15.5045   -0.2023 H   0  0  0  0  0  0  0  0  0  0  0  0
   10.6026  -13.6168   -2.9821 H   0  0  0  0  0  0  0  0  0  0  0  0
   14.2733  -11.5841   -1.9495 H   0  0  0  0  0  0  0  0  0  0  0  0
   13.2597  -10.8718    0.2101 H   0  0  0  0  0  0  0  0  0  0  0  0
    7.8271  -11.2685   -0.8526 H   0  0  0  0  0  0  0  0  0  0  0  0
    2.8484  -13.4806   -2.3425 H   0  0  0  0  0  0  0  0  0  0  0  0
    0.4183  -13.9289   -2.0189 H   0  0  0  0  0  0  0  0  0  0  0  0
  1  2  1  0
  2  3  1  0
  2  4  1  0
  4  5  1  0
  5  6  1  0
  6  7  2  0
  7  8  1  0
  8  9  2  0
  9 10  1  0
 10 11  1  0
 11 12  1  0
 12 13  2  0
 13 14  1  0
 14 15  2  0
 15 16  1  0
 16 17  2  0
 17 18  1  0
 18 19  2  0
 19 20  1  0
 20 21  1  0
 21 22  2  0
 21 23  1  0
 23 24  2  0
 24 25  1  0
 25 26  1  0
 26 27  1  0
 27 28  2  0
 28 29  1  0
 29 30  1  0
 30 31  1  0
 30 32  1  0
 30 33  1  0
 29 34  2  0
 34 35  1  0
 35 36  2  0
 36 37  1  0
 26 38  2  0
 19 39  1  0
 39 40  2  0
 10 41  2  0
 41  6  1  0
 15 11  1  0
 40 16  1  0
 38 23  1  0
 36 27  1  0
  1 42  1  0
  1 43  1  0
  1 44  1  0
  2 45  1  6
  3 46  1  0
  4 47  1  0
  4 48  1  0
  5 49  1  0
  8 50  1  0
  9 51  1  0
 12 52  1  0
 13 53  1  0
 17 54  1  0
 18 55  1  0
 20 56  1  0
 24 57  1  0
 28 58  1  0
 34 59  1  0
 35 60  1  0
 38 61  1  0
 39 62  1  0
 40 63  1  0
M  END
>  <meeko>  (6) 
{"is_sidechain": [false], "free_energy": -8.161, "intermolecular_energy": -12.784, "internal_energy": -1.868}

$$$$
LIB_FZTHERNGBACIMX__M_PUB_ALL__e8__s20260927
     RDKit          3D

 63 67  0  0  0  0  0  0  0  0999 V2000
   -2.0420   -9.1210    1.8630 C   0  0  0  0  0  0  0  0  0  0  0  0
   -0.6320   -9.6650    1.6970 C   0  0  2  0  0  0  0  0  0  0  0  0
    0.2540   -8.5430    1.6710 O   0  0  0  0  0  0  0  0  0  0  0  0
   -0.5070  -10.5050    0.4090 C   0  0  0  0  0  0  0  0  0  0  0  0
   -0.3660  -11.9160    0.7040 N   0  0  0  0  0  0  0  0  0  0  0  0
   -1.3850  -12.8190    0.6850 C   0  0  0  0  0  0  0  0  0  0  0  0
   -2.5200  -12.4090    0.1170 N   0  0  0  0  0  0  0  0  0  0  0  0
   -3.5440  -13.2780    0.1040 C   0  0  0  0  0  0  0  0  0  0  0  0
   -3.4720  -14.5490    0.6190 C   0  0  0  0  0  0  0  0  0  0  0  0
   -2.2570  -14.9060    1.1630 C   0  0  0  0  0  0  0  0  0  0  0  0
   -2.0390  -16.2060    1.7210 N   0  0  0  0  0  0  0  0  0  0  0  0
   -2.9770  -16.8770    2.4840 C   0  0  0  0  0  0  0  0  0  0  0  0
   -2.4910  -18.1430    2.6710 C   0  0  0  0  0  0  0  0  0  0  0  0
   -1.2480  -18.2600    2.1240 N   0  0  0  0  0  0  0  0  0  0  0  0
   -0.9400  -17.0660    1.6410 C   0  0  0  0  0  0  0  0  0  0  0  0
    0.4070  -16.7440    1.1630 C   0  0  0  0  0  0  0  0  0  0  0  0
    1.3520  -16.2230    2.0510 C   0  0  0  0  0  0  0  0  0  0  0  0
    2.6380  -15.8970    1.6100 C   0  0  0  0  0  0  0  0  0  0  0  0
    3.0010  -16.0780    0.2680 C   0  0  0  0  0  0  0  0  0  0  0  0
    4.3180  -15.7270   -0.0920 N   0  0  0  0  0  0  0  0  0  0  0  0
    4.7150  -14.7620   -1.0000 C   0  0  0  0  0  0  0  0  0  0  0  0
    3.9670  -14.0890   -1.6990 O   0  0  0  0  0  0  0  0  0  0  0  0
    6.1630  -14.6040   -1.1020 C   0  0  0  0  0  0  0  0  0  0  0  0
    7.0670  -15.4630   -0.5090 C   0  0  0  0  0  0  0  0  0  0  0  0
    8.3430  -15.0850   -0.7630 O   0  0  0  0  0  0  0  0  0  0  0  0
    8.2910  -13.9600   -1.5360 C   0  0  0  0  0  0  0  0  0  0  0  0
    9.5860  -13.4000   -1.9200 C   0  0  0  0  0  0  0  0  0  0  0  0
   10.3570  -12.7530   -0.9320 C   0  0  0  0  0  0  0  0  0  0  0  0
   11.6160  -12.1960   -1.2170 C   0  0  0  0  0  0  0  0  0  0  0  0
   12.4240  -11.5350   -0.1250 C   0  0  0  0  0  0  0  0  0  0  0  0
   13.2430  -12.4020    0.5340 F   0  0  0  0  0  0  0  0  0  0  0  0
   11.6330  -10.9690    0.8270 F   0  0  0  0  0  0  0  0  0  0  0  0
   13.2290  -10.5390   -0.5870 F   0  0  0  0  0  0  0  0  0  0  0  0
   12.1190  -12.3000   -2.5190 C   0  0  0  0  0  0  0  0  0  0  0  0
   11.3690  -12.9290   -3.5140 C   0  0  0  0  0  0  0  0  0  0  0  0
   10.1110  -13.4730   -3.2220 C   0  0  0  0  0  0  0  0  0  0  0  0
    9.2530  -14.1870   -4.5460 Cl  0  0  0  0  0  0  0  0  0  0  0  0
    6.9700  -13.6390   -1.7810 C   0  0  0  0  0  0  0  0  0  0  0  0
    2.0480  -16.5690   -0.6250 C   0  0  0  0  0  0  0  0  0  0  0  0
    0.7570  -16.8900   -0.1850 C   0  0  0  0  0  0  0  0  0  0  0  0
   -1.2240  -14.0300    1.2360 N   0  0  0  0  0  0  0  0  0  0  0  0
   -2.2764   -9.0306    2.9339 H   0  0  0  0  0  0  0  0  0  0  0  0
   -2.1116   -8.1315    1.3876 H   0  0  0  0  0  0  0  0  0  0  0  0
   -2.7582   -9.8074    1.3876 H   0  0  0  0  0  0  0  0  0  0  0  0
   -0.3778  -10.3356    2.5311 H   0  0  0  0  0  0  0  0  0  0  0  0
   -0.1750   -7.8460    2.2090 H   0  0  0  0  0  0  0  0  0  0  0  0
   -1.4090  -10.3567   -0.2028 H   0  0  0  0  0  0  0  0  0  0  0  0
    0.3927  -10.1749   -0.1310 H   0  0  0  0  0  0  0  0  0  0  0  0
    0.5190  -12.2980    1.0050 H   0  0  0  0  0  0  0  0  0  0  0  0
   -4.4944  -12.9532   -0.3447 H   0  0  0  0  0  0  0  0  0  0  0  0
   -4.3292  -15.2381    0.5987 H   0  0  0  0  0  0  0  0  0  0  0  0
   -3.9264  -16.4731    2.8654 H   0  0  0  0  0  0  0  0  0  0  0  0
   -3.0276  -18.9514    3.1893 H   0  0  0  0  0  0  0  0  0  0  0  0
    1.0817  -16.0681    3.1060 H   0  0  0  0  0  0  0  0  0  0  0  0
    3.3724  -15.4944    2.3231 H   0  0  0  0  0  0  0  0  0  0  0  0
    5.0500  -16.2630    0.3530 H   0  0  0  0  0  0  0  0  0  0  0  0
    6.7873  -16.3408    0.0920 H   0  0  0  0  0  0  0  0  0  0  0  0
    9.9615  -12.6821    0.0920 H   0  0  0  0  0  0  0  0  0  0  0  0
   13.1089  -11.8846   -2.7589 H   0  0  0  0  0  0  0  0  0  0  0  0
   11.7689  -12.9983   -4.5364 H   0  0  0  0  0  0  0  0  0  0  0  0
    6.6061  -12.7961   -2.3869 H   0  0  0  0  0  0  0  0  0  0  0  0
    2.3125  -16.7053   -1.6840 H   0  0  0  0  0  0  0  0  0  0  0  0
    0.0119  -17.2599   -0.9048 H   0  0  0  0  0  0  0  0  0  0  0  0
  1  2  1  0
  2  3  1  0
  2  4  1  0
  4  5  1  0
  5  6  1  0
  6  7  2  0
  7  8  1  0
  8  9  2  0
  9 10  1  0
 10 11  1  0
 11 12  1  0
 12 13  2  0
 13 14  1  0
 14 15  2  0
 15 16  1  0
 16 17  2  0
 17 18  1  0
 18 19  2  0
 19 20  1  0
 20 21  1  0
 21 22  2  0
 21 23  1  0
 23 24  2  0
 24 25  1  0
 25 26  1  0
 26 27  1  0
 27 28  2  0
 28 29  1  0
 29 30  1  0
 30 31  1  0
 30 32  1  0
 30 33  1  0
 29 34  2  0
 34 35  1  0
 35 36  2  0
 36 37  1  0
 26 38  2  0
 19 39  1  0
 39 40  2  0
 10 41  2  0
 41  6  1  0
 15 11  1  0
 40 16  1  0
 38 23  1  0
 36 27  1  0
  1 42  1  0
  1 43  1  0
  1 44  1  0
  2 45  1  1
  3 46  1  0
  4 47  1  0
  4 48  1  0
  5 49  1  0
  8 50  1  0
  9 51  1  0
 12 52  1  0
 13 53  1  0
 17 54  1  0
 18 55  1  0
 20 56  1  0
 24 57  1  0
 28 58  1  0
 34 59  1  0
 35 60  1  0
 38 61  1  0
 39 62  1  0
 40 63  1  0
M  END
>  <meeko>  (7) 
{"is_sidechain": [false], "free_energy": -8.045, "intermolecular_energy": -13.045, "internal_energy": -1.426}

$$$$
LIB_FZTHERNGBACIMX__M_PUB_ALL__e8__s20260927
     RDKit          3D

 63 67  0  0  0  0  0  0  0  0999 V2000
    6.1080  -11.3320    1.1550 C   0  0  0  0  0  0  0  0  0  0  0  0
    7.4290  -12.0620    0.9650 C   0  0  2  0  0  0  0  0  0  0  0  0
    8.3550  -11.1240    0.4110 O   0  0  0  0  0  0  0  0  0  0  0  0
    7.2590  -13.2900    0.0460 C   0  0  0  0  0  0  0  0  0  0  0  0
    6.2440  -14.1940    0.5450 N   0  0  0  0  0  0  0  0  0  0  0  0
    5.4780  -15.0080   -0.2330 C   0  0  0  0  0  0  0  0  0  0  0  0
    5.6570  -16.3180   -0.0630 N   0  0  0  0  0  0  0  0  0  0  0  0
    4.9240  -17.1390   -0.8330 C   0  0  0  0  0  0  0  0  0  0  0  0
    4.0040  -16.7000   -1.7550 C   0  0  0  0  0  0  0  0  0  0  0  0
    3.8590  -15.3340   -1.8510 C   0  0  0  0  0  0  0  0  0  0  0  0
    2.9250  -14.7420   -2.7590 N   0  0  0  0  0  0  0  0  0  0  0  0
    3.2960  -14.1090   -3.9320 C   0  0  0  0  0  0  0  0  0  0  0  0
    2.1380  -13.8480   -4.6150 C   0  0  0  0  0  0  0  0  0  0  0  0
    1.0560  -14.2190   -3.8740 N   0  0  0  0  0  0  0  0  0  0  0  0
    1.5290  -14.6640   -2.7200 C   0  0  0  0  0  0  0  0  0  0  0  0
    0.6560  -14.9560   -1.5820 C   0  0  0  0  0  0  0  0  0  0  0  0
   -0.5730  -15.5870   -1.7940 C   0  0  0  0  0  0  0  0  0  0  0  0
   -1.4260  -15.8620   -0.7210 C   0  0  0  0  0  0  0  0  0  0  0  0
   -1.0710  -15.5010    0.5860 C   0  0  0  0  0  0  0  0  0  0  0  0
   -1.9880  -15.8170    1.6090 N   0  0  0  0  0  0  0  0  0  0  0  0
   -2.1860  -17.0450    2.2150 C   0  0  0  0  0  0  0  0  0  0  0  0
   -1.6280  -18.0910    1.9060 O   0  0  0  0  0  0  0  0  0  0  0  0
   -3.1760  -17.0240    3.2870 C   0  0  0  0  0  0  0  0  0  0  0  0
   -3.8650  -18.1440    3.7100 C   0  0  0  0  0  0  0  0  0  0  0  0
   -4.7210  -17.8430    4.7160 O   0  0  0  0  0  0  0  0  0  0  0  0
   -4.6010  -16.5070    4.9710 C   0  0  0  0  0  0  0  0  0  0  0  0
   -5.4520  -15.9910    6.0420 C   0  0  0  0  0  0  0  0  0  0  0  0
   -4.8810  -15.7970    7.3170 C   0  0  0  0  0  0  0  0  0  0  0  0
   -5.6270  -15.2960    8.3980 C   0  0  0  0  0  0  0  0  0  0  0  0
   -4.9720  -15.0770    9.7420 C   0  0  0  0  0  0  0  0  0  0  0  0
   -5.3240  -16.0130   10.6670 F   0  0  0  0  0  0  0  0  0  0  0  0
   -5.3020  -13.8730   10.2840 F   0  0  0  0  0  0  0  0  0  0  0  0
   -3.6120  -15.1040    9.6820 F   0  0  0  0  0  0  0  0  0  0  0  0
   -6.9730  -14.9700    8.1940 C   0  0  0  0  0  0  0  0  0  0  0  0
   -7.5590  -15.1620    6.9420 C   0  0  0  0  0  0  0  0  0  0  0  0
   -6.8100  -15.6710    5.8730 C   0  0  0  0  0  0  0  0  0  0  0  0
   -7.6560  -15.9080    4.3810 Cl  0  0  0  0  0  0  0  0  0  0  0  0
   -3.6500  -15.9670    4.1250 C   0  0  0  0  0  0  0  0  0  0  0  0
    0.1410  -14.8430    0.7940 C   0  0  0  0  0  0  0  0  0  0  0  0
    0.9950  -14.5620   -0.2820 C   0  0  0  0  0  0  0  0  0  0  0  0
    4.6240  -14.4820   -1.1220 N   0  0  0  0  0  0  0  0  0  0  0  0
    5.9030  -11.2187    2.2298 H   0  0  0  0  0  0  0  0  0  0  0  0
    6.1673  -10.3386    0.6863 H   0  0  0  0  0  0  0  0  0  0  0  0
    5.2985  -11.9108    0.6863 H   0  0  0  0  0  0  0  0  0  0  0  0
    7.8002  -12.4436    1.9276 H   0  0  0  0  0  0  0  0  0  0  0  0
    8.7200  -11.5470   -0.3930 H   0  0  0  0  0  0  0  0  0  0  0  0
    6.9687  -12.9468   -0.9580 H   0  0  0  0  0  0  0  0  0  0  0  0
    8.2161  -13.8313    0.0153 H   0  0  0  0  0  0  0  0  0  0  0  0
    6.0100  -14.2210    1.5270 H   0  0  0  0  0  0  0  0  0  0  0  0
    5.0681  -18.2236   -0.7193 H   0  0  0  0  0  0  0  0  0  0  0  0
    3.4208  -17.3954   -2.3765 H   0  0  0  0  0  0  0  0  0  0  0  0
    4.3192  -13.8638   -4.2527 H   0  0  0  0  0  0  0  0  0  0  0  0
    2.0882  -13.4021   -5.6193 H   0  0  0  0  0  0  0  0  0  0  0  0
   -0.8718  -15.8698   -2.8142 H   0  0  0  0  0  0  0  0  0  0  0  0
   -2.3859  -16.3670   -0.9044 H   0  0  0  0  0  0  0  0  0  0  0  0
   -2.5800  -15.0580    1.9130 H   0  0  0  0  0  0  0  0  0  0  0  0
   -3.7354  -19.1503    3.2850 H   0  0  0  0  0  0  0  0  0  0  0  0
   -3.8203  -16.0451    7.4700 H   0  0  0  0  0  0  0  0  0  0  0  0
   -7.5703  -14.5615    9.0225 H   0  0  0  0  0  0  0  0  0  0  0  0
   -8.6196  -14.9112    6.7930 H   0  0  0  0  0  0  0  0  0  0  0  0
   -3.3193  -14.9182    4.1011 H   0  0  0  0  0  0  0  0  0  0  0  0
    0.4297  -14.5416    1.8118 H   0  0  0  0  0  0  0  0  0  0  0  0
    1.9395  -14.0273   -0.1032 H   0  0  0  0  0  0  0  0  0  0  0  0
  1  2  1  0
  2  3  1  0
  2  4  1  0
  4  5  1  0
  5  6  1  0
  6  7  2  0
  7  8  1  0
  8  9  2  0
  9 10  1  0
 10 11  1  0
 11 12  1  0
 12 13  2  0
 13 14  1  0
 14 15  2  0
 15 16  1  0
 16 17  2  0
 17 18  1  0
 18 19  2  0
 19 20  1  0
 20 21  1  0
 21 22  2  0
 21 23  1  0
 23 24  2  0
 24 25  1  0
 25 26  1  0
 26 27  1  0
 27 28  2  0
 28 29  1  0
 29 30  1  0
 30 31  1  0
 30 32  1  0
 30 33  1  0
 29 34  2  0
 34 35  1  0
 35 36  2  0
 36 37  1  0
 26 38  2  0
 19 39  1  0
 39 40  2  0
 10 41  2  0
 41  6  1  0
 15 11  1  0
 40 16  1  0
 38 23  1  0
 36 27  1  0
  1 42  1  0
  1 43  1  0
  1 44  1  0
  2 45  1  1
  3 46  1  0
  4 47  1  0
  4 48  1  0
  5 49  1  0
  8 50  1  0
  9 51  1  0
 12 52  1  0
 13 53  1  0
 17 54  1  0
 18 55  1  0
 20 56  1  0
 24 57  1  0
 28 58  1  0
 34 59  1  0
 35 60  1  0
 38 61  1  0
 39 62  1  0
 40 63  1  0
M  END
>  <meeko>  (8) 
{"is_sidechain": [false], "free_energy": -7.95, "intermolecular_energy": -12.744, "internal_energy": -1.58}

$$$$
LIB_FZTHERNGBACIMX__M_PUB_ALL__e8__s20260927
     RDKit          3D

 63 67  0  0  0  0  0  0  0  0999 V2000
   13.4000  -11.0780   -0.2480 C   0  0  0  0  0  0  0  0  0  0  0  0
   11.9160  -11.2750    0.0190 C   0  0  2  0  0  0  0  0  0  0  0  0
   11.5270  -10.2980    0.9880 O   0  0  0  0  0  0  0  0  0  0  0  0
   11.6240  -12.7050    0.5180 C   0  0  0  0  0  0  0  0  0  0  0  0
   12.4720  -13.6810   -0.1330 N   0  0  0  0  0  0  0  0  0  0  0  0
   12.0400  -14.6070   -1.0340 C   0  0  0  0  0  0  0  0  0  0  0  0
   11.9700  -15.8640   -0.5940 N   0  0  0  0  0  0  0  0  0  0  0  0
   11.5640  -16.7960   -1.4720 C   0  0  0  0  0  0  0  0  0  0  0  0
   11.2060  -16.5170   -2.7680 C   0  0  0  0  0  0  0  0  0  0  0  0
   11.2780  -15.1920   -3.1380 C   0  0  0  0  0  0  0  0  0  0  0  0
   10.9190  -14.7600   -4.4530 N   0  0  0  0  0  0  0  0  0  0  0  0
   11.8430  -14.4840   -5.4450 C   0  0  0  0  0  0  0  0  0  0  0  0
   11.1280  -14.2910   -6.5970 C   0  0  0  0  0  0  0  0  0  0  0  0
    9.7910  -14.3540   -6.3430 N   0  0  0  0  0  0  0  0  0  0  0  0
    9.6680  -14.5380   -5.0370 C   0  0  0  0  0  0  0  0  0  0  0  0
    8.3750  -14.4450   -4.3570 C   0  0  0  0  0  0  0  0  0  0  0  0
    7.9280  -13.2090   -3.8820 C   0  0  0  0  0  0  0  0  0  0  0  0
    6.7020  -13.1030   -3.2180 C   0  0  0  0  0  0  0  0  0  0  0  0
    5.9020  -14.2350   -3.0080 C   0  0  0  0  0  0  0  0  0  0  0  0
    4.6810  -14.0390   -2.3330 N   0  0  0  0  0  0  0  0  0  0  0  0
    3.4090  -14.0170   -2.8780 C   0  0  0  0  0  0  0  0  0  0  0  0
    3.1430  -14.1020   -4.0710 O   0  0  0  0  0  0  0  0  0  0  0  0
    2.3450  -13.8500   -1.8930 C   0  0  0  0  0  0  0  0  0  0  0  0
    1.1710  -14.5780   -1.9090 C   0  0  0  0  0  0  0  0  0  0  0  0
    0.3590  -14.2230   -0.8850 O   0  0  0  0  0  0  0  0  0  0  0  0
    0.9980  -13.2470   -0.1740 C   0  0  0  0  0  0  0  0  0  0  0  0
    0.2720  -12.7350    0.9870 C   0  0  0  0  0  0  0  0  0  0  0  0
   -0.1530  -11.3900    0.9720 C   0  0  0  0  0  0  0  0  0  0  0  0
   -0.8650  -10.8230    2.0440 C   0  0  0  0  0  0  0  0  0  0  0  0
   -1.3260   -9.3860    1.9790 C   0  0  0  0  0  0  0  0  0  0  0  0
   -1.6130   -8.8600    3.2020 F   0  0  0  0  0  0  0  0  0  0  0  0
   -2.4560   -9.2420    1.2350 F   0  0  0  0  0  0  0  0  0  0  0  0
   -0.4010   -8.5550    1.4240 F   0  0  0  0  0  0  0  0  0  0  0  0
   -1.1680  -11.6250    3.1500 C   0  0  0  0  0  0  0  0  0  0  0  0
   -0.7500  -12.9560    3.1880 C   0  0  0  0  0  0  0  0  0  0  0  0
   -0.0330  -13.5100    2.1190 C   0  0  0  0  0  0  0  0  0  0  0  0
    0.4710  -15.1560    2.3000 Cl  0  0  0  0  0  0  0  0  0  0  0  0
    2.2290  -12.9990   -0.7510 C   0  0  0  0  0  0  0  0  0  0  0  0
    6.3630  -15.4740   -3.4540 C   0  0  0  0  0  0  0  0  0  0  0  0
    7.5950  -15.5820   -4.1150 C   0  0  0  0  0  0  0  0  0  0  0  0
   11.7360  -14.2390   -2.2860 N   0  0  0  0  0  0  0  0  0  0  0  0
   13.9383  -11.0065    0.7086 H   0  0  0  0  0  0  0  0  0  0  0  0
   13.7858  -11.9328   -0.8229 H   0  0  0  0  0  0  0  0  0  0  0  0
   13.5494  -10.1521   -0.8229 H   0  0  0  0  0  0  0  0  0  0  0  0
   11.3381  -11.1466   -0.9081 H   0  0  0  0  0  0  0  0  0  0  0  0
   10.6030  -10.5110    1.2330 H   0  0  0  0  0  0  0  0  0  0  0  0
   11.7995  -12.7471    1.6031 H   0  0  0  0  0  0  0  0  0  0  0  0
   10.5775  -12.9453    0.2793 H   0  0  0  0  0  0  0  0  0  0  0  0
   13.4500  -13.7600    0.1030 H   0  0  0  0  0  0  0  0  0  0  0  0
   11.5156  -17.8416   -1.1338 H   0  0  0  0  0  0  0  0  0  0  0  0
   10.8821  -17.3023   -3.4669 H   0  0  0  0  0  0  0  0  0  0  0  0
   12.9358  -14.4302   -5.3310 H   0  0  0  0  0  0  0  0  0  0  0  0
   11.5708  -14.1106   -7.5877 H   0  0  0  0  0  0  0  0  0  0  0  0
    8.5461  -12.3115   -4.0318 H   0  0  0  0  0  0  0  0  0  0  0  0
    6.3617  -12.1213   -2.8567 H   0  0  0  0  0  0  0  0  0  0  0  0
    4.7530  -13.8740   -1.3390 H   0  0  0  0  0  0  0  0  0  0  0  0
    0.9272  -15.3468   -2.6570 H   0  0  0  0  0  0  0  0  0  0  0  0
    0.0793  -10.7664    0.0961 H   0  0  0  0  0  0  0  0  0  0  0  0
   -1.7375  -11.2050    3.9922 H   0  0  0  0  0  0  0  0  0  0  0  0
   -0.9856  -13.5761    4.0655 H   0  0  0  0  0  0  0  0  0  0  0  0
    2.9812  -12.2789   -0.3964 H   0  0  0  0  0  0  0  0  0  0  0  0
    5.7543  -16.3746   -3.2855 H   0  0  0  0  0  0  0  0  0  0  0  0
    7.9515  -16.5685   -4.4462 H   0  0  0  0  0  0  0  0  0  0  0  0
  1  2  1  0
  2  3  1  0
  2  4  1  0
  4  5  1  0
  5  6  1  0
  6  7  2  0
  7  8  1  0
  8  9  2  0
  9 10  1  0
 10 11  1  0
 11 12  1  0
 12 13  2  0
 13 14  1  0
 14 15  2  0
 15 16  1  0
 16 17  2  0
 17 18  1  0
 18 19  2  0
 19 20  1  0
 20 21  1  0
 21 22  2  0
 21 23  1  0
 23 24  2  0
 24 25  1  0
 25 26  1  0
 26 27  1  0
 27 28  2  0
 28 29  1  0
 29 30  1  0
 30 31  1  0
 30 32  1  0
 30 33  1  0
 29 34  2  0
 34 35  1  0
 35 36  2  0
 36 37  1  0
 26 38  2  0
 19 39  1  0
 39 40  2  0
 10 41  2  0
 41  6  1  0
 15 11  1  0
 40 16  1  0
 38 23  1  0
 36 27  1  0
  1 42  1  0
  1 43  1  0
  1 44  1  0
  2 45  1  6
  3 46  1  0
  4 47  1  0
  4 48  1  0
  5 49  1  0
  8 50  1  0
  9 51  1  0
 12 52  1  0
 13 53  1  0
 17 54  1  0
 18 55  1  0
 20 56  1  0
 24 57  1  0
 28 58  1  0
 34 59  1  0
 35 60  1  0
 38 61  1  0
 39 62  1  0
 40 63  1  0
M  END
>  <meeko>  (9) 
{"is_sidechain": [false], "free_energy": -7.878, "intermolecular_energy": -12.436, "internal_energy": -1.776}

$$$$
