LIB_KXCARQILTFDOLE__M_PUB_ALL__e8__s20260927
     RDKit          3D

 54 58  0  0  0  0  0  0  0  0999 V2000
   11.7040   -7.7850  -13.0330 O   0  0  0  0  0  0  0  0  0  0  0  0
   11.5270   -7.4330  -11.8740 C   0  0  0  0  0  0  0  0  0  0  0  0
   11.3590   -8.2970  -10.7990 N   0  0  0  0  0  0  0  0  0  0  0  0
   11.2190   -9.7010  -10.8390 C   0  0  0  0  0  0  0  0  0  0  0  0
   10.0700  -10.2110  -11.4550 C   0  0  0  0  0  0  0  0  0  0  0  0
    9.8640  -11.5880  -11.5400 C   0  0  0  0  0  0  0  0  0  0  0  0
   10.8050  -12.4670  -11.0070 C   0  0  0  0  0  0  0  0  0  0  0  0
   11.9640  -11.9850  -10.3820 C   0  0  0  0  0  0  0  0  0  0  0  0
   12.9610  -12.9440   -9.8410 C   0  0  0  0  0  0  0  0  0  0  0  0
   13.8810  -13.4970  -10.6580 C   0  0  0  0  0  0  0  0  0  0  0  0
   14.7930  -14.3730  -10.1130 N   0  0  0  0  0  0  0  0  0  0  0  0
   15.8250  -15.0880  -10.6530 C   0  0  0  0  0  0  0  0  0  0  0  0
   16.3720  -15.7830   -9.5950 C   0  0  0  0  0  0  0  0  0  0  0  0
   15.7080  -15.5130   -8.4210 N   0  0  0  0  0  0  0  0  0  0  0  0
   14.7660  -14.6630   -8.7790 C   0  0  0  0  0  0  0  0  0  0  0  0
   13.7650  -14.0390   -7.9250 C   0  0  0  0  0  0  0  0  0  0  0  0
   13.7790  -14.3520   -6.5800 N   0  0  0  0  0  0  0  0  0  0  0  0
   12.9360  -13.9350   -5.5430 C   0  0  0  0  0  0  0  0  0  0  0  0
   13.4270  -13.0170   -4.6040 C   0  0  0  0  0  0  0  0  0  0  0  0
   12.6220  -12.5600   -3.5620 C   0  0  0  0  0  0  0  0  0  0  0  0
   11.3250  -13.0330   -3.4800 C   0  0  0  0  0  0  0  0  0  0  0  0
   10.8000  -13.9110   -4.3550 N   0  0  0  0  0  0  0  0  0  0  0  0
   11.6140  -14.3390   -5.3590 C   0  0  0  0  0  0  0  0  0  0  0  0
   12.9120  -13.2070   -8.4750 N   0  0  0  0  0  0  0  0  0  0  0  0
   12.1630  -10.5930  -10.3210 C   0  0  0  0  0  0  0  0  0  0  0  0
   11.4740   -6.1150  -11.4440 N   0  0  0  0  0  0  0  0  0  0  0  0
   11.7030   -4.9490  -12.2040 C   0  0  0  0  0  0  0  0  0  0  0  0
   13.0230   -4.6930  -12.5970 C   0  0  0  0  0  0  0  0  0  0  0  0
   13.3380   -3.5610  -13.3510 C   0  0  0  0  0  0  0  0  0  0  0  0
   12.3320   -2.6730  -13.7260 C   0  0  0  0  0  0  0  0  0  0  0  0
   11.0030   -2.9140  -13.3560 C   0  0  0  0  0  0  0  0  0  0  0  0
    9.9030   -1.9550  -13.7410 C   0  0  0  0  0  0  0  0  0  0  0  0
    8.8890   -2.5520  -14.4300 F   0  0  0  0  0  0  0  0  0  0  0  0
    9.3150   -1.3600  -12.6670 F   0  0  0  0  0  0  0  0  0  0  0  0
   10.3470   -0.9450  -14.5370 F   0  0  0  0  0  0  0  0  0  0  0  0
   10.7010   -4.0550  -12.5900 C   0  0  0  0  0  0  0  0  0  0  0  0
   11.4240   -7.8880   -9.8800 H   0  0  0  0  0  0  0  0  0  0  0  0
    9.3239   -9.5206  -11.8752 H   0  0  0  0  0  0  0  0  0  0  0  0
    8.9592  -11.9799  -12.0275 H   0  0  0  0  0  0  0  0  0  0  0  0
   10.6365  -13.5517  -11.0774 H   0  0  0  0  0  0  0  0  0  0  0  0
   13.9021  -13.2547  -11.7308 H   0  0  0  0  0  0  0  0  0  0  0  0
   16.1491  -15.1053  -11.7040 H   0  0  0  0  0  0  0  0  0  0  0  0
   17.2300  -16.4662   -9.6792 H   0  0  0  0  0  0  0  0  0  0  0  0
   14.5180  -14.9970   -6.3200 H   0  0  0  0  0  0  0  0  0  0  0  0
   14.4612  -12.6526   -4.6908 H   0  0  0  0  0  0  0  0  0  0  0  0
   13.0083  -11.8417   -2.8239 H   0  0  0  0  0  0  0  0  0  0  0  0
   10.6896  -12.6732   -2.6573 H   0  0  0  0  0  0  0  0  0  0  0  0
   11.1972  -15.0580   -6.0797 H   0  0  0  0  0  0  0  0  0  0  0  0
   13.0791  -10.1991   -9.8567 H   0  0  0  0  0  0  0  0  0  0  0  0
   11.1720   -5.9680  -10.4930 H   0  0  0  0  0  0  0  0  0  0  0  0
   13.8212   -5.3925  -12.3080 H   0  0  0  0  0  0  0  0  0  0  0  0
   14.3796   -3.3703  -13.6488 H   0  0  0  0  0  0  0  0  0  0  0  0
   12.5828   -1.7787  -14.3153 H   0  0  0  0  0  0  0  0  0  0  0  0
    9.6600   -4.2461  -12.2904 H   0  0  0  0  0  0  0  0  0  0  0  0
  1  2  2  0
  2  3  1  0
  3  4  1  0
  4  5  2  0
  5  6  1  0
  6  7  2  0
  7  8  1  0
  8  9  1  0
  9 10  2  0
 10 11  1  0
 11 12  1  0
 12 13  2  0
 13 14  1  0
 14 15  2  0
 15 16  1  0
 16 17  1  0
 17 18  1  0
 18 19  2  0
 19 20  1  0
 20 21  2  0
 21 22  1  0
 22 23  2  0
 16 24  2  0
  8 25  2  0
  2 26  1  0
 26 27  1  0
 27 28  2  0
 28 29  1  0
 29 30  2  0
 30 31  1  0
 31 32  1  0
 32 33  1  0
 32 34  1  0
 32 35  1  0
 31 36  2  0
 25  4  1  0
 36 27  1  0
 24  9  1  0
 15 11  1  0
 23 18  1  0
  3 37  1  0
  5 38  1  0
  6 39  1  0
  7 40  1  0
 10 41  1  0
 12 42  1  0
 13 43  1  0
 17 44  1  0
 19 45  1  0
 20 46  1  0
 21 47  1  0
 23 48  1  0
 25 49  1  0
 26 50  1  0
 28 51  1  0
 29 52  1  0
 30 53  1  0
 36 54  1  0
M  END
>  <meeko>  (1) 
{"is_sidechain": [false], "free_energy": -9.827, "intermolecular_energy": -12.7, "internal_energy": -0.89}

$$$$
LIB_KXCARQILTFDOLE__M_PUB_ALL__e8__s20260927
     RDKit          3D

 54 58  0  0  0  0  0  0  0  0999 V2000
    4.0400  -13.3420   -6.3160 O   0  0  0  0  0  0  0  0  0  0  0  0
    5.0620  -12.8690   -5.8360 C   0  0  0  0  0  0  0  0  0  0  0  0
    5.1240  -12.1610   -4.6430 N   0  0  0  0  0  0  0  0  0  0  0  0
    4.0440  -11.7320   -3.8410 C   0  0  0  0  0  0  0  0  0  0  0  0
    3.3460  -10.5950   -4.2650 C   0  0  0  0  0  0  0  0  0  0  0  0
    2.2630  -10.1140   -3.5290 C   0  0  0  0  0  0  0  0  0  0  0  0
    1.8700  -10.7660   -2.3610 C   0  0  0  0  0  0  0  0  0  0  0  0
    2.5510  -11.9060   -1.9120 C   0  0  0  0  0  0  0  0  0  0  0  0
    2.0980  -12.5930   -0.6760 C   0  0  0  0  0  0  0  0  0  0  0  0
    2.9710  -13.3150    0.0570 C   0  0  0  0  0  0  0  0  0  0  0  0
    2.5110  -13.9270    1.2010 N   0  0  0  0  0  0  0  0  0  0  0  0
    3.1210  -14.7110    2.1400 C   0  0  0  0  0  0  0  0  0  0  0  0
    2.1310  -15.0160    3.0510 C   0  0  0  0  0  0  0  0  0  0  0  0
    0.9330  -14.4390    2.7010 N   0  0  0  0  0  0  0  0  0  0  0  0
    1.2060  -13.7950    1.5830 C   0  0  0  0  0  0  0  0  0  0  0  0
    0.2950  -13.0000    0.7730 C   0  0  0  0  0  0  0  0  0  0  0  0
   -1.0130  -12.8850    1.2000 N   0  0  0  0  0  0  0  0  0  0  0  0
   -2.1010  -12.2200    0.6210 C   0  0  0  0  0  0  0  0  0  0  0  0
   -2.0560  -10.8230    0.5090 C   0  0  0  0  0  0  0  0  0  0  0  0
   -3.1080  -10.1170   -0.0730 C   0  0  0  0  0  0  0  0  0  0  0  0
   -4.1960  -10.8310   -0.5410 C   0  0  0  0  0  0  0  0  0  0  0  0
   -4.2920  -12.1710   -0.4620 N   0  0  0  0  0  0  0  0  0  0  0  0
   -3.2490  -12.8290    0.1140 C   0  0  0  0  0  0  0  0  0  0  0  0
    0.7650  -12.4280   -0.3100 N   0  0  0  0  0  0  0  0  0  0  0  0
    3.6310  -12.3870   -2.6760 C   0  0  0  0  0  0  0  0  0  0  0  0
    6.3250  -12.9710   -6.4000 N   0  0  0  0  0  0  0  0  0  0  0  0
    6.7010  -13.6980   -7.5500 C   0  0  0  0  0  0  0  0  0  0  0  0
    7.0670  -15.0380   -7.3660 C   0  0  0  0  0  0  0  0  0  0  0  0
    7.4530  -15.8280   -8.4510 C   0  0  0  0  0  0  0  0  0  0  0  0
    7.4710  -15.2880   -9.7340 C   0  0  0  0  0  0  0  0  0  0  0  0
    7.0970  -13.9550   -9.9450 C   0  0  0  0  0  0  0  0  0  0  0  0
    7.1240  -13.3490  -11.3260 C   0  0  0  0  0  0  0  0  0  0  0  0
    6.3180  -14.0000  -12.2130 F   0  0  0  0  0  0  0  0  0  0  0  0
    6.7170  -12.0490  -11.3470 F   0  0  0  0  0  0  0  0  0  0  0  0
    8.3680  -13.3640  -11.8780 F   0  0  0  0  0  0  0  0  0  0  0  0
    6.7170  -13.1670   -8.8420 C   0  0  0  0  0  0  0  0  0  0  0  0
    6.0430  -12.0030   -4.2610 H   0  0  0  0  0  0  0  0  0  0  0  0
    3.6538  -10.0771   -5.1853 H   0  0  0  0  0  0  0  0  0  0  0  0
    1.7193   -9.2206   -3.8700 H   0  0  0  0  0  0  0  0  0  0  0  0
    1.0155  -10.3813   -1.7850 H   0  0  0  0  0  0  0  0  0  0  0  0
    4.0224  -13.4120   -0.2514 H   0  0  0  0  0  0  0  0  0  0  0  0
    4.1735  -15.0297    2.1640 H   0  0  0  0  0  0  0  0  0  0  0  0
    2.2809  -15.6411    3.9436 H   0  0  0  0  0  0  0  0  0  0  0  0
   -1.2040  -13.3750    2.0680 H   0  0  0  0  0  0  0  0  0  0  0  0
   -1.1787  -10.2766    0.8855 H   0  0  0  0  0  0  0  0  0  0  0  0
   -3.0735   -9.0208   -0.1577 H   0  0  0  0  0  0  0  0  0  0  0  0
   -5.0258  -10.2749   -1.0016 H   0  0  0  0  0  0  0  0  0  0  0  0
   -3.3165  -13.9246    0.1851 H   0  0  0  0  0  0  0  0  0  0  0  0
    4.1601  -13.2949   -2.3508 H   0  0  0  0  0  0  0  0  0  0  0  0
    7.0480  -12.4090   -5.9800 H   0  0  0  0  0  0  0  0  0  0  0  0
    7.0501  -15.4726   -6.3556 H   0  0  0  0  0  0  0  0  0  0  0  0
    7.7429  -16.8771   -8.2918 H   0  0  0  0  0  0  0  0  0  0  0  0
    7.7804  -15.9112  -10.5860 H   0  0  0  0  0  0  0  0  0  0  0  0
    6.4283  -12.1174   -8.9999 H   0  0  0  0  0  0  0  0  0  0  0  0
  1  2  2  0
  2  3  1  0
  3  4  1  0
  4  5  2  0
  5  6  1  0
  6  7  2  0
  7  8  1  0
  8  9  1  0
  9 10  2  0
 10 11  1  0
 11 12  1  0
 12 13  2  0
 13 14  1  0
 14 15  2  0
 15 16  1  0
 16 17  1  0
 17 18  1  0
 18 19  2  0
 19 20  1  0
 20 21  2  0
 21 22  1  0
 22 23  2  0
 16 24  2  0
  8 25  2  0
  2 26  1  0
 26 27  1  0
 27 28  2  0
 28 29  1  0
 29 30  2  0
 30 31  1  0
 31 32  1  0
 32 33  1  0
 32 34  1  0
 32 35  1  0
 31 36  2  0
 25  4  1  0
 36 27  1  0
 24  9  1  0
 15 11  1  0
 23 18  1  0
  3 37  1  0
  5 38  1  0
  6 39  1  0
  7 40  1  0
 10 41  1  0
 12 42  1  0
 13 43  1  0
 17 44  1  0
 19 45  1  0
 20 46  1  0
 21 47  1  0
 23 48  1  0
 25 49  1  0
 26 50  1  0
 28 51  1  0
 29 52  1  0
 30 53  1  0
 36 54  1  0
M  END
>  <meeko>  (2) 
{"is_sidechain": [false], "free_energy": -9.813, "intermolecular_energy": -12.636, "internal_energy": -0.935}

$$$$
LIB_KXCARQILTFDOLE__M_PUB_ALL__e8__s20260927
     RDKit          3D

 54 58  0  0  0  0  0  0  0  0999 V2000
    4.0680  -13.7210   -6.2810 O   0  0  0  0  0  0  0  0  0  0  0  0
    5.0500  -13.1320   -5.8470 C   0  0  0  0  0  0  0  0  0  0  0  0
    5.0800  -12.4020   -4.6660 N   0  0  0  0  0  0  0  0  0  0  0  0
    3.9910  -12.0790   -3.8270 C   0  0  0  0  0  0  0  0  0  0  0  0
    3.5580  -10.7480   -3.8250 C   0  0  0  0  0  0  0  0  0  0  0  0
    2.4840  -10.3540   -3.0280 C   0  0  0  0  0  0  0  0  0  0  0  0
    1.8340  -11.2890   -2.2240 C   0  0  0  0  0  0  0  0  0  0  0  0
    2.2470  -12.6280   -2.2030 C   0  0  0  0  0  0  0  0  0  0  0  0
    1.5230  -13.6070   -1.3530 C   0  0  0  0  0  0  0  0  0  0  0  0
    1.7720  -14.9270   -1.4780 C   0  0  0  0  0  0  0  0  0  0  0  0
    1.0870  -15.8000   -0.6630 N   0  0  0  0  0  0  0  0  0  0  0  0
    1.1040  -17.1610   -0.5430 C   0  0  0  0  0  0  0  0  0  0  0  0
    0.1960  -17.4450    0.4550 C   0  0  0  0  0  0  0  0  0  0  0  0
   -0.3770  -16.2980    0.9520 N   0  0  0  0  0  0  0  0  0  0  0  0
    0.1860  -15.3330    0.2510 C   0  0  0  0  0  0  0  0  0  0  0  0
   -0.0500  -13.9020    0.3660 C   0  0  0  0  0  0  0  0  0  0  0  0
   -0.9610  -13.4710    1.3100 N   0  0  0  0  0  0  0  0  0  0  0  0
   -1.4040  -12.1800    1.6210 C   0  0  0  0  0  0  0  0  0  0  0  0
   -1.0620  -11.6320    2.8650 C   0  0  0  0  0  0  0  0  0  0  0  0
   -1.4670  -10.3450    3.2150 C   0  0  0  0  0  0  0  0  0  0  0  0
   -2.2120   -9.6210    2.3020 C   0  0  0  0  0  0  0  0  0  0  0  0
   -2.5670  -10.0960    1.0940 N   0  0  0  0  0  0  0  0  0  0  0  0
   -2.1570  -11.3570    0.7840 C   0  0  0  0  0  0  0  0  0  0  0  0
    0.6210  -13.0970   -0.4240 N   0  0  0  0  0  0  0  0  0  0  0  0
    3.3220  -13.0110   -3.0280 C   0  0  0  0  0  0  0  0  0  0  0  0
    6.2940  -13.1050   -6.4600 N   0  0  0  0  0  0  0  0  0  0  0  0
    6.7030  -13.8060   -7.6150 C   0  0  0  0  0  0  0  0  0  0  0  0
    7.0920  -15.1410   -7.4470 C   0  0  0  0  0  0  0  0  0  0  0  0
    7.5100  -15.9060   -8.5370 C   0  0  0  0  0  0  0  0  0  0  0  0
    7.5390  -15.3440   -9.8120 C   0  0  0  0  0  0  0  0  0  0  0  0
    7.1430  -14.0150  -10.0070 C   0  0  0  0  0  0  0  0  0  0  0  0
    7.1820  -13.3860  -11.3780 C   0  0  0  0  0  0  0  0  0  0  0  0
    8.4180  -13.4290  -11.9520 F   0  0  0  0  0  0  0  0  0  0  0  0
    6.3440  -13.9900  -12.2650 F   0  0  0  0  0  0  0  0  0  0  0  0
    6.8280  -12.0720  -11.3590 F   0  0  0  0  0  0  0  0  0  0  0  0
    6.7300  -13.2530   -8.8980 C   0  0  0  0  0  0  0  0  0  0  0  0
    5.9900  -12.1380   -4.3240 H   0  0  0  0  0  0  0  0  0  0  0  0
    4.0691  -10.0070   -4.4572 H   0  0  0  0  0  0  0  0  0  0  0  0
    2.1498   -9.3060   -3.0336 H   0  0  0  0  0  0  0  0  0  0  0  0
    0.9866  -10.9719   -1.5984 H   0  0  0  0  0  0  0  0  0  0  0  0
    2.5033  -15.2962   -2.2120 H   0  0  0  0  0  0  0  0  0  0  0  0
    1.7109  -17.8756   -1.1183 H   0  0  0  0  0  0  0  0  0  0  0  0
   -0.0399  -18.4596    0.8085 H   0  0  0  0  0  0  0  0  0  0  0  0
   -1.3760  -14.2250    1.8490 H   0  0  0  0  0  0  0  0  0  0  0  0
   -0.4663  -12.2253    3.5743 H   0  0  0  0  0  0  0  0  0  0  0  0
   -1.2009   -9.9161    4.1924 H   0  0  0  0  0  0  0  0  0  0  0  0
   -2.5307   -8.6048    2.5774 H   0  0  0  0  0  0  0  0  0  0  0  0
   -2.4411  -11.7565   -0.2007 H   0  0  0  0  0  0  0  0  0  0  0  0
    3.6414  -14.0635   -3.0441 H   0  0  0  0  0  0  0  0  0  0  0  0
    6.9670  -12.4600   -6.0760 H   0  0  0  0  0  0  0  0  0  0  0  0
    7.0678  -15.5920   -6.4440 H   0  0  0  0  0  0  0  0  0  0  0  0
    7.8164  -16.9521   -8.3898 H   0  0  0  0  0  0  0  0  0  0  0  0
    7.8744  -15.9469  -10.6688 H   0  0  0  0  0  0  0  0  0  0  0  0
    6.4239  -12.2065   -9.0434 H   0  0  0  0  0  0  0  0  0  0  0  0
  1  2  2  0
  2  3  1  0
  3  4  1  0
  4  5  2  0
  5  6  1  0
  6  7  2  0
  7  8  1  0
  8  9  1  0
  9 10  2  0
 10 11  1  0
 11 12  1  0
 12 13  2  0
 13 14  1  0
 14 15  2  0
 15 16  1  0
 16 17  1  0
 17 18  1  0
 18 19  2  0
 19 20  1  0
 20 21  2  0
 21 22  1  0
 22 23  2  0
 16 24  2  0
  8 25  2  0
  2 26  1  0
 26 27  1  0
 27 28  2  0
 28 29  1  0
 29 30  2  0
 30 31  1  0
 31 32  1  0
 32 33  1  0
 32 34  1  0
 32 35  1  0
 31 36  2  0
 25  4  1  0
 36 27  1  0
 24  9  1  0
 15 11  1  0
 23 18  1  0
  3 37  1  0
  5 38  1  0
  6 39  1  0
  7 40  1  0
 10 41  1  0
 12 42  1  0
 13 43  1  0
 17 44  1  0
 19 45  1  0
 20 46  1  0
 21 47  1  0
 23 48  1  0
 25 49  1  0
 26 50  1  0
 28 51  1  0
 29 52  1  0
 30 53  1  0
 36 54  1  0
M  END
>  <meeko>  (3) 
{"is_sidechain": [false], "free_energy": -9.4, "intermolecular_energy": -12.06, "internal_energy": -0.977}

$$$$
LIB_KXCARQILTFDOLE__M_PUB_ALL__e8__s20260927
     RDKit          3D

 54 58  0  0  0  0  0  0  0  0999 V2000
    7.0140  -10.7840   -2.0870 O   0  0  0  0  0  0  0  0  0  0  0  0
    6.8250  -11.9870   -2.2050 C   0  0  0  0  0  0  0  0  0  0  0  0
    5.5860  -12.5800   -2.4080 N   0  0  0  0  0  0  0  0  0  0  0  0
    4.3200  -11.9560   -2.3790 C   0  0  0  0  0  0  0  0  0  0  0  0
    3.9160  -11.2730   -3.5320 C   0  0  0  0  0  0  0  0  0  0  0  0
    2.6760  -10.6380   -3.5810 C   0  0  0  0  0  0  0  0  0  0  0  0
    1.8280  -10.6770   -2.4760 C   0  0  0  0  0  0  0  0  0  0  0  0
    2.2060  -11.3520   -1.3060 C   0  0  0  0  0  0  0  0  0  0  0  0
    1.2750  -11.3970   -0.1500 C   0  0  0  0  0  0  0  0  0  0  0  0
    0.6720  -10.2680    0.2780 C   0  0  0  0  0  0  0  0  0  0  0  0
   -0.1930  -10.3570    1.3460 N   0  0  0  0  0  0  0  0  0  0  0  0
   -0.9420   -9.4260    2.0080 C   0  0  0  0  0  0  0  0  0  0  0  0
   -1.6060  -10.1320    2.9900 C   0  0  0  0  0  0  0  0  0  0  0  0
   -1.2870  -11.4690    2.9470 N   0  0  0  0  0  0  0  0  0  0  0  0
   -0.4340  -11.5590    1.9450 C   0  0  0  0  0  0  0  0  0  0  0  0
    0.2260  -12.7580    1.4500 C   0  0  0  0  0  0  0  0  0  0  0  0
   -0.0540  -13.9550    2.0790 N   0  0  0  0  0  0  0  0  0  0  0  0
    0.4450  -15.2420    1.8430 C   0  0  0  0  0  0  0  0  0  0  0  0
    1.5940  -15.6570    2.5300 C   0  0  0  0  0  0  0  0  0  0  0  0
    2.1200  -16.9340    2.3400 C   0  0  0  0  0  0  0  0  0  0  0  0
    1.4760  -17.7830    1.4600 C   0  0  0  0  0  0  0  0  0  0  0  0
    0.3690  -17.4400    0.7760 N   0  0  0  0  0  0  0  0  0  0  0  0
   -0.1170  -16.1850    0.9830 C   0  0  0  0  0  0  0  0  0  0  0  0
    1.0420  -12.6410    0.4290 N   0  0  0  0  0  0  0  0  0  0  0  0
    3.4550  -12.0020   -1.2810 C   0  0  0  0  0  0  0  0  0  0  0  0
    7.8190  -12.9540   -2.1640 N   0  0  0  0  0  0  0  0  0  0  0  0
    9.2140  -12.7570   -2.0810 C   0  0  0  0  0  0  0  0  0  0  0  0
    9.9180  -12.6650   -3.2880 C   0  0  0  0  0  0  0  0  0  0  0  0
   11.3010  -12.4700   -3.2960 C   0  0  0  0  0  0  0  0  0  0  0  0
   11.9950  -12.3590   -2.0930 C   0  0  0  0  0  0  0  0  0  0  0  0
   11.3110  -12.4340   -0.8730 C   0  0  0  0  0  0  0  0  0  0  0  0
   12.0480  -12.3290    0.4390 C   0  0  0  0  0  0  0  0  0  0  0  0
   12.9110  -11.2740    0.4860 F   0  0  0  0  0  0  0  0  0  0  0  0
   11.2170  -12.1710    1.5060 F   0  0  0  0  0  0  0  0  0  0  0  0
   12.7990  -13.4330    0.7050 F   0  0  0  0  0  0  0  0  0  0  0  0
    9.9180  -12.6380   -0.8800 C   0  0  0  0  0  0  0  0  0  0  0  0
    5.5910  -13.5480   -2.6880 H   0  0  0  0  0  0  0  0  0  0  0  0
    4.5823  -11.2370   -4.4065 H   0  0  0  0  0  0  0  0  0  0  0  0
    2.3667  -10.1058   -4.4926 H   0  0  0  0  0  0  0  0  0  0  0  0
    0.8514  -10.1729   -2.5217 H   0  0  0  0  0  0  0  0  0  0  0  0
    0.8661   -9.3029   -0.2128 H   0  0  0  0  0  0  0  0  0  0  0  0
   -1.0026   -8.3470    1.8026 H   0  0  0  0  0  0  0  0  0  0  0  0
   -2.3014   -9.6830    3.7144 H   0  0  0  0  0  0  0  0  0  0  0  0
   -0.7210  -13.8700    2.8380 H   0  0  0  0  0  0  0  0  0  0  0  0
    2.0876  -14.9655    3.2288 H   0  0  0  0  0  0  0  0  0  0  0  0
    3.0241  -17.2574    2.8766 H   0  0  0  0  0  0  0  0  0  0  0  0
    1.8897  -18.7913    1.3110 H   0  0  0  0  0  0  0  0  0  0  0  0
   -1.0217  -15.8928    0.4298 H   0  0  0  0  0  0  0  0  0  0  0  0
    3.7562  -12.5568   -0.3802 H   0  0  0  0  0  0  0  0  0  0  0  0
    7.5080  -13.9130   -2.1210 H   0  0  0  0  0  0  0  0  0  0  0  0
    9.3753  -12.7473   -4.2413 H   0  0  0  0  0  0  0  0  0  0  0  0
   11.8420  -12.4041   -4.2515 H   0  0  0  0  0  0  0  0  0  0  0  0
   13.0851  -12.2118   -2.1014 H   0  0  0  0  0  0  0  0  0  0  0  0
    9.3756  -12.7047    0.0746 H   0  0  0  0  0  0  0  0  0  0  0  0
  1  2  2  0
  2  3  1  0
  3  4  1  0
  4  5  2  0
  5  6  1  0
  6  7  2  0
  7  8  1  0
  8  9  1  0
  9 10  2  0
 10 11  1  0
 11 12  1  0
 12 13  2  0
 13 14  1  0
 14 15  2  0
 15 16  1  0
 16 17  1  0
 17 18  1  0
 18 19  2  0
 19 20  1  0
 20 21  2  0
 21 22  1  0
 22 23  2  0
 16 24  2  0
  8 25  2  0
  2 26  1  0
 26 27  1  0
 27 28  2  0
 28 29  1  0
 29 30  2  0
 30 31  1  0
 31 32  1  0
 32 33  1  0
 32 34  1  0
 32 35  1  0
 31 36  2  0
 25  4  1  0
 36 27  1  0
 24  9  1  0
 15 11  1  0
 23 18  1  0
  3 37  1  0
  5 38  1  0
  6 39  1  0
  7 40  1  0
 10 41  1  0
 12 42  1  0
 13 43  1  0
 17 44  1  0
 19 45  1  0
 20 46  1  0
 21 47  1  0
 23 48  1  0
 25 49  1  0
 26 50  1  0
 28 51  1  0
 29 52  1  0
 30 53  1  0
 36 54  1  0
M  END
>  <meeko>  (4) 
{"is_sidechain": [false], "free_energy": -9.347, "intermolecular_energy": -11.908, "internal_energy": -1.061}

$$$$
LIB_KXCARQILTFDOLE__M_PUB_ALL__e8__s20260927
     RDKit          3D

 54 58  0  0  0  0  0  0  0  0999 V2000
    8.3120  -11.6690   -0.2160 O   0  0  0  0  0  0  0  0  0  0  0  0
    8.7090  -12.7810    0.1080 C   0  0  0  0  0  0  0  0  0  0  0  0
    7.8910  -13.8350    0.4910 N   0  0  0  0  0  0  0  0  0  0  0  0
    6.4980  -13.8030    0.7170 C   0  0  0  0  0  0  0  0  0  0  0  0
    6.0670  -13.5540    2.0250 C   0  0  0  0  0  0  0  0  0  0  0  0
    4.7060  -13.5010    2.3250 C   0  0  0  0  0  0  0  0  0  0  0  0
    3.7630  -13.6970    1.3180 C   0  0  0  0  0  0  0  0  0  0  0  0
    4.1640  -13.9500   -0.0010 C   0  0  0  0  0  0  0  0  0  0  0  0
    3.1380  -14.1350   -1.0590 C   0  0  0  0  0  0  0  0  0  0  0  0
    3.4180  -13.8090   -2.3380 C   0  0  0  0  0  0  0  0  0  0  0  0
    2.4410  -14.0070   -3.2880 N   0  0  0  0  0  0  0  0  0  0  0  0
    2.4040  -13.7830   -4.6360 C   0  0  0  0  0  0  0  0  0  0  0  0
    1.1460  -14.1870   -5.0330 C   0  0  0  0  0  0  0  0  0  0  0  0
    0.4120  -14.6540   -3.9670 N   0  0  0  0  0  0  0  0  0  0  0  0
    1.2280  -14.5260   -2.9400 C   0  0  0  0  0  0  0  0  0  0  0  0
    0.9650  -14.8760   -1.5520 C   0  0  0  0  0  0  0  0  0  0  0  0
   -0.2720  -15.4080   -1.2430 N   0  0  0  0  0  0  0  0  0  0  0  0
   -0.8080  -15.8050   -0.0120 C   0  0  0  0  0  0  0  0  0  0  0  0
   -0.6230  -17.1290    0.4080 C   0  0  0  0  0  0  0  0  0  0  0  0
   -1.1240  -17.5680    1.6330 C   0  0  0  0  0  0  0  0  0  0  0  0
   -1.8060  -16.6620    2.4240 C   0  0  0  0  0  0  0  0  0  0  0  0
   -2.0110  -15.3790    2.0730 N   0  0  0  0  0  0  0  0  0  0  0  0
   -1.5100  -14.9840    0.8700 C   0  0  0  0  0  0  0  0  0  0  0  0
    1.9170  -14.6780   -0.6700 N   0  0  0  0  0  0  0  0  0  0  0  0
    5.5420  -13.9840   -0.2880 C   0  0  0  0  0  0  0  0  0  0  0  0
   10.0400  -13.1700    0.1370 N   0  0  0  0  0  0  0  0  0  0  0  0
   11.1670  -12.4300   -0.2800 C   0  0  0  0  0  0  0  0  0  0  0  0
   11.6100  -11.4100    0.5710 C   0  0  0  0  0  0  0  0  0  0  0  0
   12.7180  -10.6290    0.2340 C   0  0  0  0  0  0  0  0  0  0  0  0
   13.4000  -10.8660   -0.9580 C   0  0  0  0  0  0  0  0  0  0  0  0
   12.9840  -11.8900   -1.8180 C   0  0  0  0  0  0  0  0  0  0  0  0
   13.7010  -12.1510   -3.1190 C   0  0  0  0  0  0  0  0  0  0  0  0
   14.9390  -11.5800   -3.1730 F   0  0  0  0  0  0  0  0  0  0  0  0
   13.8990  -13.4760   -3.3630 F   0  0  0  0  0  0  0  0  0  0  0  0
   13.0240  -11.6660   -4.1950 F   0  0  0  0  0  0  0  0  0  0  0  0
   11.8610  -12.6640   -1.4700 C   0  0  0  0  0  0  0  0  0  0  0  0
    8.3220  -14.7440    0.5370 H   0  0  0  0  0  0  0  0  0  0  0  0
    6.8079  -13.3988    2.8231 H   0  0  0  0  0  0  0  0  0  0  0  0
    4.3771  -13.3046    3.3561 H   0  0  0  0  0  0  0  0  0  0  0  0
    2.6911  -13.6526    1.5611 H   0  0  0  0  0  0  0  0  0  0  0  0
    4.3996  -13.3965   -2.6142 H   0  0  0  0  0  0  0  0  0  0  0  0
    3.2043  -13.3699   -5.2676 H   0  0  0  0  0  0  0  0  0  0  0  0
    0.7773  -14.1416   -6.0684 H   0  0  0  0  0  0  0  0  0  0  0  0
   -0.8830  -15.5120   -2.0470 H   0  0  0  0  0  0  0  0  0  0  0  0
   -0.0752  -17.8315   -0.2373 H   0  0  0  0  0  0  0  0  0  0  0  0
   -0.9804  -18.6079    1.9615 H   0  0  0  0  0  0  0  0  0  0  0  0
   -2.2016  -17.0078    3.3904 H   0  0  0  0  0  0  0  0  0  0  0  0
   -1.6713  -13.9377    0.5712 H   0  0  0  0  0  0  0  0  0  0  0  0
    5.8733  -14.1563   -1.3227 H   0  0  0  0  0  0  0  0  0  0  0  0
   10.2350  -14.0610    0.5670 H   0  0  0  0  0  0  0  0  0  0  0  0
   11.0793  -11.2216    1.5159 H   0  0  0  0  0  0  0  0  0  0  0  0
   13.0520   -9.8273    0.9091 H   0  0  0  0  0  0  0  0  0  0  0  0
   14.2688  -10.2461   -1.2245 H   0  0  0  0  0  0  0  0  0  0  0  0
   11.5247  -13.4649   -2.1448 H   0  0  0  0  0  0  0  0  0  0  0  0
  1  2  2  0
  2  3  1  0
  3  4  1  0
  4  5  2  0
  5  6  1  0
  6  7  2  0
  7  8  1  0
  8  9  1  0
  9 10  2  0
 10 11  1  0
 11 12  1  0
 12 13  2  0
 13 14  1  0
 14 15  2  0
 15 16  1  0
 16 17  1  0
 17 18  1  0
 18 19  2  0
 19 20  1  0
 20 21  2  0
 21 22  1  0
 22 23  2  0
 16 24  2  0
  8 25  2  0
  2 26  1  0
 26 27  1  0
 27 28  2  0
 28 29  1  0
 29 30  2  0
 30 31  1  0
 31 32  1  0
 32 33  1  0
 32 34  1  0
 32 35  1  0
 31 36  2  0
 25  4  1  0
 36 27  1  0
 24  9  1  0
 15 11  1  0
 23 18  1  0
  3 37  1  0
  5 38  1  0
  6 39  1  0
  7 40  1  0
 10 41  1  0
 12 42  1  0
 13 43  1  0
 17 44  1  0
 19 45  1  0
 20 46  1  0
 21 47  1  0
 23 48  1  0
 25 49  1  0
 26 50  1  0
 28 51  1  0
 29 52  1  0
 30 53  1  0
 36 54  1  0
M  END
>  <meeko>  (5) 
{"is_sidechain": [false], "free_energy": -9.247, "intermolecular_energy": -11.827, "internal_energy": -1.012}

$$$$
LIB_KXCARQILTFDOLE__M_PUB_ALL__e8__s20260927
     RDKit          3D

 54 58  0  0  0  0  0  0  0  0999 V2000
    7.0620  -10.7970   -1.2480 O   0  0  0  0  0  0  0  0  0  0  0  0
    6.9770  -12.0170   -1.1900 C   0  0  0  0  0  0  0  0  0  0  0  0
    5.8200  -12.7440   -1.4410 N   0  0  0  0  0  0  0  0  0  0  0  0
    4.5200  -12.2420   -1.6640 C   0  0  0  0  0  0  0  0  0  0  0  0
    4.2200  -11.7970   -2.9560 C   0  0  0  0  0  0  0  0  0  0  0  0
    2.9550  -11.2940   -3.2560 C   0  0  0  0  0  0  0  0  0  0  0  0
    1.9780  -11.2290   -2.2640 C   0  0  0  0  0  0  0  0  0  0  0  0
    2.2500  -11.6650   -0.9600 C   0  0  0  0  0  0  0  0  0  0  0  0
    1.1840  -11.6050    0.0730 C   0  0  0  0  0  0  0  0  0  0  0  0
    0.5600  -10.4380    0.3340 C   0  0  0  0  0  0  0  0  0  0  0  0
   -0.4290  -10.4300    1.2920 N   0  0  0  0  0  0  0  0  0  0  0  0
   -1.2320   -9.4390    1.7830 C   0  0  0  0  0  0  0  0  0  0  0  0
   -2.0270  -10.0550    2.7270 C   0  0  0  0  0  0  0  0  0  0  0  0
   -1.7360  -11.3950    2.8270 N   0  0  0  0  0  0  0  0  0  0  0  0
   -0.7700  -11.5770    1.9490 C   0  0  0  0  0  0  0  0  0  0  0  0
   -0.0830  -12.8200    1.6330 C   0  0  0  0  0  0  0  0  0  0  0  0
   -0.4640  -13.9600    2.3130 N   0  0  0  0  0  0  0  0  0  0  0  0
    0.0290  -15.2680    2.2410 C   0  0  0  0  0  0  0  0  0  0  0  0
    1.2850  -15.5470    2.7970 C   0  0  0  0  0  0  0  0  0  0  0  0
    1.8120  -16.8370    2.7630 C   0  0  0  0  0  0  0  0  0  0  0  0
    1.0620  -17.8350    2.1700 C   0  0  0  0  0  0  0  0  0  0  0  0
   -0.1500  -17.6270    1.6240 N   0  0  0  0  0  0  0  0  0  0  0  0
   -0.6340  -16.3550    1.6720 C   0  0  0  0  0  0  0  0  0  0  0  0
    0.8540  -12.7960    0.7140 N   0  0  0  0  0  0  0  0  0  0  0  0
    3.5280  -12.1860   -0.6800 C   0  0  0  0  0  0  0  0  0  0  0  0
    8.0230  -12.8710   -0.8740 N   0  0  0  0  0  0  0  0  0  0  0  0
    9.3760  -12.5370   -0.6580 C   0  0  0  0  0  0  0  0  0  0  0  0
    9.7410  -12.1590    0.6400 C   0  0  0  0  0  0  0  0  0  0  0  0
   11.0610  -11.8120    0.9400 C   0  0  0  0  0  0  0  0  0  0  0  0
   12.0330  -11.8460   -0.0570 C   0  0  0  0  0  0  0  0  0  0  0  0
   11.6950  -12.2330   -1.3600 C   0  0  0  0  0  0  0  0  0  0  0  0
   12.7310  -12.2610   -2.4560 C   0  0  0  0  0  0  0  0  0  0  0  0
   12.2530  -11.8260   -3.6570 F   0  0  0  0  0  0  0  0  0  0  0  0
   13.8130  -11.4770   -2.1870 F   0  0  0  0  0  0  0  0  0  0  0  0
   13.2180  -13.5110   -2.6820 F   0  0  0  0  0  0  0  0  0  0  0  0
   10.3600  -12.5730   -1.6500 C   0  0  0  0  0  0  0  0  0  0  0  0
    5.9320  -13.7390   -1.5560 H   0  0  0  0  0  0  0  0  0  0  0  0
    4.9886  -11.8444   -3.7415 H   0  0  0  0  0  0  0  0  0  0  0  0
    2.7279  -10.9485   -4.2753 H   0  0  0  0  0  0  0  0  0  0  0  0
    0.9819  -10.8309   -2.5074 H   0  0  0  0  0  0  0  0  0  0  0  0
    0.8336   -9.5182   -0.2036 H   0  0  0  0  0  0  0  0  0  0  0  0
   -1.2421   -8.3791    1.4889 H   0  0  0  0  0  0  0  0  0  0  0  0
   -2.7950   -9.5404    3.3231 H   0  0  0  0  0  0  0  0  0  0  0  0
   -1.2170  -13.8050    2.9760 H   0  0  0  0  0  0  0  0  0  0  0  0
    1.8626  -14.7371    3.2665 H   0  0  0  0  0  0  0  0  0  0  0  0
    2.7991  -17.0550    3.1968 H   0  0  0  0  0  0  0  0  0  0  0  0
    1.4779  -18.8530    2.1430 H   0  0  0  0  0  0  0  0  0  0  0  0
   -1.6235  -16.1709    1.2281 H   0  0  0  0  0  0  0  0  0  0  0  0
    3.7501  -12.5559    0.3318 H   0  0  0  0  0  0  0  0  0  0  0  0
    7.7780  -13.8360   -0.7140 H   0  0  0  0  0  0  0  0  0  0  0  0
    8.9793  -12.1349    1.4332 H   0  0  0  0  0  0  0  0  0  0  0  0
   11.3323  -11.5122    1.9630 H   0  0  0  0  0  0  0  0  0  0  0  0
   13.0705  -11.5677    0.1799 H   0  0  0  0  0  0  0  0  0  0  0  0
   10.0871  -12.8716   -2.6729 H   0  0  0  0  0  0  0  0  0  0  0  0
  1  2  2  0
  2  3  1  0
  3  4  1  0
  4  5  2  0
  5  6  1  0
  6  7  2  0
  7  8  1  0
  8  9  1  0
  9 10  2  0
 10 11  1  0
 11 12  1  0
 12 13  2  0
 13 14  1  0
 14 15  2  0
 15 16  1  0
 16 17  1  0
 17 18  1  0
 18 19  2  0
 19 20  1  0
 20 21  2  0
 21 22  1  0
 22 23  2  0
 16 24  2  0
  8 25  2  0
  2 26  1  0
 26 27  1  0
 27 28  2  0
 28 29  1  0
 29 30  2  0
 30 31  1  0
 31 32  1  0
 32 33  1  0
 32 34  1  0
 32 35  1  0
 31 36  2  0
 25  4  1  0
 36 27  1  0
 24  9  1  0
 15 11  1  0
 23 18  1  0
  3 37  1  0
  5 38  1  0
  6 39  1  0
  7 40  1  0
 10 41  1  0
 12 42  1  0
 13 43  1  0
 17 44  1  0
 19 45  1  0
 20 46  1  0
 21 47  1  0
 23 48  1  0
 25 49  1  0
 26 50  1  0
 28 51  1  0
 29 52  1  0
 30 53  1  0
 36 54  1  0
M  END
>  <meeko>  (6) 
{"is_sidechain": [false], "free_energy": -9.244, "intermolecular_energy": -11.84, "internal_energy": -0.996}

$$$$
LIB_KXCARQILTFDOLE__M_PUB_ALL__e8__s20260927
     RDKit          3D

 54 58  0  0  0  0  0  0  0  0999 V2000
    9.3960  -12.2220   -2.2760 O   0  0  0  0  0  0  0  0  0  0  0  0
    9.9160  -12.5950   -1.2320 C   0  0  0  0  0  0  0  0  0  0  0  0
    9.2360  -12.8160   -0.0410 N   0  0  0  0  0  0  0  0  0  0  0  0
    7.8820  -12.5310    0.2400 C   0  0  0  0  0  0  0  0  0  0  0  0
    7.6190  -11.4500    1.0890 C   0  0  0  0  0  0  0  0  0  0  0  0
    6.3070  -11.1030    1.4090 C   0  0  0  0  0  0  0  0  0  0  0  0
    5.2450  -11.8360    0.8820 C   0  0  0  0  0  0  0  0  0  0  0  0
    5.4770  -12.9250    0.0310 C   0  0  0  0  0  0  0  0  0  0  0  0
    4.3260  -13.6750   -0.5330 C   0  0  0  0  0  0  0  0  0  0  0  0
    3.3220  -14.0800    0.2720 C   0  0  0  0  0  0  0  0  0  0  0  0
    2.2690  -14.7640   -0.2940 N   0  0  0  0  0  0  0  0  0  0  0  0
    1.1270  -15.3000    0.2300 C   0  0  0  0  0  0  0  0  0  0  0  0
    0.4650  -15.8560   -0.8450 C   0  0  0  0  0  0  0  0  0  0  0  0
    1.1680  -15.6730   -2.0140 N   0  0  0  0  0  0  0  0  0  0  0  0
    2.2450  -15.0150   -1.6360 C   0  0  0  0  0  0  0  0  0  0  0  0
    3.3410  -14.5530   -2.4760 C   0  0  0  0  0  0  0  0  0  0  0  0
    3.2730  -14.8190   -3.8290 N   0  0  0  0  0  0  0  0  0  0  0  0
    4.1770  -14.5270   -4.8580 C   0  0  0  0  0  0  0  0  0  0  0  0
    3.9750  -13.3710   -5.6250 C   0  0  0  0  0  0  0  0  0  0  0  0
    4.8560  -13.0300   -6.6500 C   0  0  0  0  0  0  0  0  0  0  0  0
    5.9350  -13.8600   -6.8890 C   0  0  0  0  0  0  0  0  0  0  0  0
    6.1790  -14.9800   -6.1840 N   0  0  0  0  0  0  0  0  0  0  0  0
    5.2990  -15.2850   -5.1910 C   0  0  0  0  0  0  0  0  0  0  0  0
    4.3280  -13.9030   -1.9060 N   0  0  0  0  0  0  0  0  0  0  0  0
    6.8080  -13.2500   -0.2940 C   0  0  0  0  0  0  0  0  0  0  0  0
   11.2670  -12.8640   -1.0700 N   0  0  0  0  0  0  0  0  0  0  0  0
   12.2730  -12.8630   -2.0590 C   0  0  0  0  0  0  0  0  0  0  0  0
   13.1390  -11.7620   -2.0870 C   0  0  0  0  0  0  0  0  0  0  0  0
   14.1620  -11.6820   -3.0350 C   0  0  0  0  0  0  0  0  0  0  0  0
   14.3340  -12.7070   -3.9620 C   0  0  0  0  0  0  0  0  0  0  0  0
   13.4890  -13.8240   -3.9450 C   0  0  0  0  0  0  0  0  0  0  0  0
   13.6520  -14.9370   -4.9510 C   0  0  0  0  0  0  0  0  0  0  0  0
   14.2140  -16.0600   -4.4210 F   0  0  0  0  0  0  0  0  0  0  0  0
   12.4710  -15.3400   -5.4950 F   0  0  0  0  0  0  0  0  0  0  0  0
   14.4480  -14.5830   -5.9960 F   0  0  0  0  0  0  0  0  0  0  0  0
   12.4570  -13.8880   -2.9900 C   0  0  0  0  0  0  0  0  0  0  0  0
    9.7390  -13.3080    0.6790 H   0  0  0  0  0  0  0  0  0  0  0  0
    8.4543  -10.8692    1.5074 H   0  0  0  0  0  0  0  0  0  0  0  0
    6.1102  -10.2514    2.0769 H   0  0  0  0  0  0  0  0  0  0  0  0
    4.2122  -11.5563    1.1372 H   0  0  0  0  0  0  0  0  0  0  0  0
    3.3438  -13.8696    1.3515 H   0  0  0  0  0  0  0  0  0  0  0  0
    0.8049  -15.2904    1.2817 H   0  0  0  0  0  0  0  0  0  0  0  0
   -0.5006  -16.3784   -0.7767 H   0  0  0  0  0  0  0  0  0  0  0  0
    2.4310  -15.3150   -4.1050 H   0  0  0  0  0  0  0  0  0  0  0  0
    3.1100  -12.7246   -5.4152 H   0  0  0  0  0  0  0  0  0  0  0  0
    4.6966  -12.1239   -7.2530 H   0  0  0  0  0  0  0  0  0  0  0  0
    6.6306  -13.5911   -7.6976 H   0  0  0  0  0  0  0  0  0  0  0  0
    5.4873  -16.1982   -4.6074 H   0  0  0  0  0  0  0  0  0  0  0  0
    7.0068  -14.0856   -0.9812 H   0  0  0  0  0  0  0  0  0  0  0  0
   11.5820  -13.0130   -0.1240 H   0  0  0  0  0  0  0  0  0  0  0  0
   13.0120  -10.9514   -1.3543 H   0  0  0  0  0  0  0  0  0  0  0  0
   14.8316  -10.8094   -3.0493 H   0  0  0  0  0  0  0  0  0  0  0  0
   15.1369  -12.6391   -4.7108 H   0  0  0  0  0  0  0  0  0  0  0  0
   11.7849  -14.7587   -2.9766 H   0  0  0  0  0  0  0  0  0  0  0  0
  1  2  2  0
  2  3  1  0
  3  4  1  0
  4  5  2  0
  5  6  1  0
  6  7  2  0
  7  8  1  0
  8  9  1  0
  9 10  2  0
 10 11  1  0
 11 12  1  0
 12 13  2  0
 13 14  1  0
 14 15  2  0
 15 16  1  0
 16 17  1  0
 17 18  1  0
 18 19  2  0
 19 20  1  0
 20 21  2  0
 21 22  1  0
 22 23  2  0
 16 24  2  0
  8 25  2  0
  2 26  1  0
 26 27  1  0
 27 28  2  0
 28 29  1  0
 29 30  2  0
 30 31  1  0
 31 32  1  0
 32 33  1  0
 32 34  1  0
 32 35  1  0
 31 36  2  0
 25  4  1  0
 36 27  1  0
 24  9  1  0
 15 11  1  0
 23 18  1  0
  3 37  1  0
  5 38  1  0
  6 39  1  0
  7 40  1  0
 10 41  1  0
 12 42  1  0
 13 43  1  0
 17 44  1  0
 19 45  1  0
 20 46  1  0
 21 47  1  0
 23 48  1  0
 25 49  1  0
 26 50  1  0
 28 51  1  0
 29 52  1  0
 30 53  1  0
 36 54  1  0
M  END
>  <meeko>  (7) 
{"is_sidechain": [false], "free_energy": -8.871, "intermolecular_energy": -11.2, "internal_energy": -1.154}

$$$$
LIB_KXCARQILTFDOLE__M_PUB_ALL__e8__s20260927
     RDKit          3D

 54 58  0  0  0  0  0  0  0  0999 V2000
    5.8510  -14.8850   -5.9940 O   0  0  0  0  0  0  0  0  0  0  0  0
    6.0850  -13.8350   -6.5780 C   0  0  0  0  0  0  0  0  0  0  0  0
    7.0250  -13.6820   -7.5890 N   0  0  0  0  0  0  0  0  0  0  0  0
    7.9670  -14.6320   -8.0370 C   0  0  0  0  0  0  0  0  0  0  0  0
    7.4860  -15.6940   -8.8110 C   0  0  0  0  0  0  0  0  0  0  0  0
    8.3570  -16.6690   -9.2960 C   0  0  0  0  0  0  0  0  0  0  0  0
    9.7190  -16.5900   -9.0110 C   0  0  0  0  0  0  0  0  0  0  0  0
   10.2300  -15.5390   -8.2370 C   0  0  0  0  0  0  0  0  0  0  0  0
   11.6880  -15.4680   -7.9650 C   0  0  0  0  0  0  0  0  0  0  0  0
   12.5700  -15.9300   -8.8760 C   0  0  0  0  0  0  0  0  0  0  0  0
   13.9130  -15.8340   -8.5880 N   0  0  0  0  0  0  0  0  0  0  0  0
   15.0350  -16.2010   -9.2780 C   0  0  0  0  0  0  0  0  0  0  0  0
   16.0890  -15.8410   -8.4650 C   0  0  0  0  0  0  0  0  0  0  0  0
   15.6470  -15.2610   -7.2990 N   0  0  0  0  0  0  0  0  0  0  0  0
   14.3340  -15.2790   -7.4140 C   0  0  0  0  0  0  0  0  0  0  0  0
   13.3550  -14.7810   -6.4590 C   0  0  0  0  0  0  0  0  0  0  0  0
   13.8230  -14.2180   -5.2880 N   0  0  0  0  0  0  0  0  0  0  0  0
   13.1280  -13.6910   -4.1940 C   0  0  0  0  0  0  0  0  0  0  0  0
   12.6440  -14.5700   -3.2150 C   0  0  0  0  0  0  0  0  0  0  0  0
   11.9590  -14.0920   -2.0990 C   0  0  0  0  0  0  0  0  0  0  0  0
   11.7720  -12.7280   -1.9800 C   0  0  0  0  0  0  0  0  0  0  0  0
   12.2170  -11.8370   -2.8860 N   0  0  0  0  0  0  0  0  0  0  0  0
   12.8800  -12.3370   -3.9650 C   0  0  0  0  0  0  0  0  0  0  0  0
   12.0830  -14.8840   -6.7640 N   0  0  0  0  0  0  0  0  0  0  0  0
    9.3380  -14.5550   -7.7700 C   0  0  0  0  0  0  0  0  0  0  0  0
    5.4450  -12.6300   -6.3290 N   0  0  0  0  0  0  0  0  0  0  0  0
    4.3620  -12.3900   -5.4580 C   0  0  0  0  0  0  0  0  0  0  0  0
    4.0340  -11.0530   -5.2010 C   0  0  0  0  0  0  0  0  0  0  0  0
    2.9750  -10.7270   -4.3500 C   0  0  0  0  0  0  0  0  0  0  0  0
    2.2280  -11.7380   -3.7500 C   0  0  0  0  0  0  0  0  0  0  0  0
    2.5290  -13.0830   -4.0020 C   0  0  0  0  0  0  0  0  0  0  0  0
    1.7390  -14.1910   -3.3500 C   0  0  0  0  0  0  0  0  0  0  0  0
    2.5230  -15.2070   -2.8880 F   0  0  0  0  0  0  0  0  0  0  0  0
    1.0160  -13.7700   -2.2750 F   0  0  0  0  0  0  0  0  0  0  0  0
    0.8490  -14.7680   -4.2020 F   0  0  0  0  0  0  0  0  0  0  0  0
    3.6030  -13.3970   -4.8560 C   0  0  0  0  0  0  0  0  0  0  0  0
    6.9780  -12.8260   -8.1190 H   0  0  0  0  0  0  0  0  0  0  0  0
    6.4119  -15.7602   -9.0387 H   0  0  0  0  0  0  0  0  0  0  0  0
    7.9693  -17.5002   -9.9033 H   0  0  0  0  0  0  0  0  0  0  0  0
   10.4009  -17.3615   -9.3980 H   0  0  0  0  0  0  0  0  0  0  0  0
   12.2254  -16.3713   -9.8228 H   0  0  0  0  0  0  0  0  0  0  0  0
   15.0858  -16.6796  -10.2671 H   0  0  0  0  0  0  0  0  0  0  0  0
   17.1482  -15.9977   -8.7170 H   0  0  0  0  0  0  0  0  0  0  0  0
   14.8350  -14.2010   -5.2210 H   0  0  0  0  0  0  0  0  0  0  0  0
   12.8070  -15.6519   -3.3291 H   0  0  0  0  0  0  0  0  0  0  0  0
   11.5772  -14.7828   -1.3328 H   0  0  0  0  0  0  0  0  0  0  0  0
   11.2315  -12.3506   -1.0994 H   0  0  0  0  0  0  0  0  0  0  0  0
   13.2480  -11.6192   -4.7129 H   0  0  0  0  0  0  0  0  0  0  0  0
    9.7267  -13.7092   -7.1838 H   0  0  0  0  0  0  0  0  0  0  0  0
    5.8400  -11.8150   -6.7730 H   0  0  0  0  0  0  0  0  0  0  0  0
    4.6172  -10.2497   -5.6749 H   0  0  0  0  0  0  0  0  0  0  0  0
    2.7313   -9.6724   -4.1539 H   0  0  0  0  0  0  0  0  0  0  0  0
    1.3984  -11.4794   -3.0756 H   0  0  0  0  0  0  0  0  0  0  0  0
    3.8485  -14.4511   -5.0524 H   0  0  0  0  0  0  0  0  0  0  0  0
  1  2  2  0
  2  3  1  0
  3  4  1  0
  4  5  2  0
  5  6  1  0
  6  7  2  0
  7  8  1  0
  8  9  1  0
  9 10  2  0
 10 11  1  0
 11 12  1  0
 12 13  2  0
 13 14  1  0
 14 15  2  0
 15 16  1  0
 16 17  1  0
 17 18  1  0
 18 19  2  0
 19 20  1  0
 20 21  2  0
 21 22  1  0
 22 23  2  0
 16 24  2  0
  8 25  2  0
  2 26  1  0
 26 27  1  0
 27 28  2  0
 28 29  1  0
 29 30  2  0
 30 31  1  0
 31 32  1  0
 32 33  1  0
 32 34  1  0
 32 35  1  0
 31 36  2  0
 25  4  1  0
 36 27  1  0
 24  9  1  0
 15 11  1  0
 23 18  1  0
  3 37  1  0
  5 38  1  0
  6 39  1  0
  7 40  1  0
 10 41  1  0
 12 42  1  0
 13 43  1  0
 17 44  1  0
 19 45  1  0
 20 46  1  0
 21 47  1  0
 23 48  1  0
 25 49  1  0
 26 50  1  0
 28 51  1  0
 29 52  1  0
 30 53  1  0
 36 54  1  0
M  END
>  <meeko>  (8) 
{"is_sidechain": [false], "free_energy": -8.841, "intermolecular_energy": -11.669, "internal_energy": -0.646}

$$$$
LIB_KXCARQILTFDOLE__M_PUB_ALL__e8__s20260927
     RDKit          3D

 54 58  0  0  0  0  0  0  0  0999 V2000
    6.8990  -13.5400   -2.6800 O   0  0  0  0  0  0  0  0  0  0  0  0
    6.9800  -12.3180   -2.6720 C   0  0  0  0  0  0  0  0  0  0  0  0
    5.8970  -11.4500   -2.7190 N   0  0  0  0  0  0  0  0  0  0  0  0
    4.5390  -11.7810   -2.9210 C   0  0  0  0  0  0  0  0  0  0  0  0
    3.9140  -11.2490   -4.0550 C   0  0  0  0  0  0  0  0  0  0  0  0
    2.5770  -11.5350   -4.3260 C   0  0  0  0  0  0  0  0  0  0  0  0
    1.8510  -12.3560   -3.4640 C   0  0  0  0  0  0  0  0  0  0  0  0
    2.4500  -12.9020   -2.3200 C   0  0  0  0  0  0  0  0  0  0  0  0
    1.6610  -13.7900   -1.4300 C   0  0  0  0  0  0  0  0  0  0  0  0
    1.8860  -15.1210   -1.4290 C   0  0  0  0  0  0  0  0  0  0  0  0
    1.1390  -15.9070   -0.5800 N   0  0  0  0  0  0  0  0  0  0  0  0
    1.1180  -17.2530   -0.3440 C   0  0  0  0  0  0  0  0  0  0  0  0
    0.1520  -17.4330    0.6240 C   0  0  0  0  0  0  0  0  0  0  0  0
   -0.4190  -16.2360    0.9900 N   0  0  0  0  0  0  0  0  0  0  0  0
    0.2020  -15.3460    0.2410 C   0  0  0  0  0  0  0  0  0  0  0  0
   -0.0060  -13.9060    0.2210 C   0  0  0  0  0  0  0  0  0  0  0  0
   -0.9560  -13.3790    1.0740 N   0  0  0  0  0  0  0  0  0  0  0  0
   -1.3850  -12.0580    1.2500 C   0  0  0  0  0  0  0  0  0  0  0  0
   -0.9350  -11.3470    2.3710 C   0  0  0  0  0  0  0  0  0  0  0  0
   -1.3230  -10.0250    2.5820 C   0  0  0  0  0  0  0  0  0  0  0  0
   -2.1580   -9.4310    1.6550 C   0  0  0  0  0  0  0  0  0  0  0  0
   -2.6180  -10.0640    0.5590 N   0  0  0  0  0  0  0  0  0  0  0  0
   -2.2220  -11.3550    0.3840 C   0  0  0  0  0  0  0  0  0  0  0  0
    0.7240  -13.1850   -0.5970 N   0  0  0  0  0  0  0  0  0  0  0  0
    3.8060  -12.6150   -2.0710 C   0  0  0  0  0  0  0  0  0  0  0  0
    8.1670  -11.6020   -2.6080 N   0  0  0  0  0  0  0  0  0  0  0  0
    9.4730  -12.1090   -2.4430 C   0  0  0  0  0  0  0  0  0  0  0  0
   10.1360  -12.5510   -3.5950 C   0  0  0  0  0  0  0  0  0  0  0  0
   11.4320  -13.0660   -3.5200 C   0  0  0  0  0  0  0  0  0  0  0  0
   12.0820  -13.1390   -2.2900 C   0  0  0  0  0  0  0  0  0  0  0  0
   11.4450  -12.6910   -1.1260 C   0  0  0  0  0  0  0  0  0  0  0  0
   12.1290  -12.7750    0.2160 C   0  0  0  0  0  0  0  0  0  0  0  0
   12.6810  -13.9980    0.4590 F   0  0  0  0  0  0  0  0  0  0  0  0
   13.1460  -11.8800    0.3540 F   0  0  0  0  0  0  0  0  0  0  0  0
   11.2770  -12.5420    1.2510 F   0  0  0  0  0  0  0  0  0  0  0  0
   10.1360  -12.1800   -1.2150 C   0  0  0  0  0  0  0  0  0  0  0  0
    6.0860  -10.4840   -2.5050 H   0  0  0  0  0  0  0  0  0  0  0  0
    4.4825  -10.6002   -4.7376 H   0  0  0  0  0  0  0  0  0  0  0  0
    2.0946  -11.1130   -5.2200 H   0  0  0  0  0  0  0  0  0  0  0  0
    0.7963  -12.5778   -3.6840 H   0  0  0  0  0  0  0  0  0  0  0  0
    2.6456  -15.5659   -2.0886 H   0  0  0  0  0  0  0  0  0  0  0  0
    1.7375  -18.0258   -0.8226 H   0  0  0  0  0  0  0  0  0  0  0  0
   -0.1262  -18.4087    1.0489 H   0  0  0  0  0  0  0  0  0  0  0  0
   -1.4150  -14.0760    1.6520 H   0  0  0  0  0  0  0  0  0  0  0  0
   -0.2670  -11.8387    3.0935 H   0  0  0  0  0  0  0  0  0  0  0  0
   -0.9733   -9.4686    3.4641 H   0  0  0  0  0  0  0  0  0  0  0  0
   -2.4627   -8.3871    1.8209 H   0  0  0  0  0  0  0  0  0  0  0  0
   -2.5901  -11.8833   -0.5078 H   0  0  0  0  0  0  0  0  0  0  0  0
    4.2979  -13.0552   -1.1911 H   0  0  0  0  0  0  0  0  0  0  0  0
    8.0970  -10.6080   -2.7630 H   0  0  0  0  0  0  0  0  0  0  0  0
    9.6301  -12.4918   -4.5700 H   0  0  0  0  0  0  0  0  0  0  0  0
   11.9394  -13.4139   -4.4319 H   0  0  0  0  0  0  0  0  0  0  0  0
   13.1005  -13.5505   -2.2328 H   0  0  0  0  0  0  0  0  0  0  0  0
    9.6275  -11.8314   -0.3040 H   0  0  0  0  0  0  0  0  0  0  0  0
  1  2  2  0
  2  3  1  0
  3  4  1  0
  4  5  2  0
  5  6  1  0
  6  7  2  0
  7  8  1  0
  8  9  1  0
  9 10  2  0
 10 11  1  0
 11 12  1  0
 12 13  2  0
 13 14  1  0
 14 15  2  0
 15 16  1  0
 16 17  1  0
 17 18  1  0
 18 19  2  0
 19 20  1  0
 20 21  2  0
 21 22  1  0
 22 23  2  0
 16 24  2  0
  8 25  2  0
  2 26  1  0
 26 27  1  0
 27 28  2  0
 28 29  1  0
 29 30  2  0
 30 31  1  0
 31 32  1  0
 32 33  1  0
 32 34  1  0
 32 35  1  0
 31 36  2  0
 25  4  1  0
 36 27  1  0
 24  9  1  0
 15 11  1  0
 23 18  1  0
  3 37  1  0
  5 38  1  0
  6 39  1  0
  7 40  1  0
 10 41  1  0
 12 42  1  0
 13 43  1  0
 17 44  1  0
 19 45  1  0
 20 46  1  0
 21 47  1  0
 23 48  1  0
 25 49  1  0
 26 50  1  0
 28 51  1  0
 29 52  1  0
 30 53  1  0
 36 54  1  0
M  END
>  <meeko>  (9) 
{"is_sidechain": [false], "free_energy": -8.785, "intermolecular_energy": -11.315, "internal_energy": -0.928}

$$$$
