LIB_XKOPCBHBBCCNEY__M_PUB_ALL__e8__s20260927
     RDKit          3D

 93 98  0  0  0  0  0  0  0  0999 V2000
    5.8380  -18.8400    0.0800 C   0  0  0  0  0  0  0  0  0  0  0  0
    6.2370  -17.4020    0.1640 C   0  0  0  0  0  0  0  0  0  0  0  0
    5.5200  -16.3750    0.6630 C   0  0  0  0  0  0  0  0  0  0  0  0
    4.1600  -16.4690    1.2890 C   0  0  0  0  0  0  0  0  0  0  0  0
    6.1600  -15.0220    0.6040 C   0  0  0  0  0  0  0  0  0  0  0  0
    6.7750  -14.5050    1.5230 O   0  0  0  0  0  0  0  0  0  0  0  0
    5.9780  -14.5020   -0.6320 O   0  0  0  0  0  0  0  0  0  0  0  0
    6.0430  -13.0590   -0.7700 C   0  0  2  0  0  0  0  0  0  0  0  0
    4.6020  -12.5250   -0.7070 C   0  0  2  0  0  0  0  0  0  0  0  0
    3.8560  -12.9500    0.4570 O   0  0  0  0  0  0  0  0  0  0  0  0
    2.5350  -13.3930    0.0220 C   0  0  0  0  0  0  0  0  0  0  0  0
    2.3540  -12.8810   -1.4210 C   0  0  2  0  0  0  0  0  0  0  0  0
    1.8240  -11.4350   -1.3360 C   0  0  0  0  0  0  0  0  0  0  0  0
    1.4580  -13.7080   -2.3690 C   0  0  2  0  0  0  0  0  0  0  0  0
    1.6950  -15.1130   -2.1400 O   0  0  0  0  0  0  0  0  0  0  0  0
    0.8110  -15.7650   -1.3400 C   0  0  0  0  0  0  0  0  0  0  0  0
   -0.5650  -15.2140   -1.5470 C   0  0  0  0  0  0  0  0  0  0  0  0
    1.0890  -16.6680   -0.5630 O   0  0  0  0  0  0  0  0  0  0  0  0
    1.7750  -13.3550   -3.8540 C   0  0  0  0  0  0  0  0  0  0  0  0
    3.2790  -13.4240   -4.2470 C   0  0  2  0  0  0  0  0  0  0  0  0
    3.6470  -14.8030   -4.3090 O   0  0  0  0  0  0  0  0  0  0  0  0
    4.2360  -12.6420   -3.2650 C   0  0  1  0  0  0  0  0  0  0  0  0
    4.0550  -11.1310   -3.5380 C   0  0  0  0  0  0  0  0  0  0  0  0
    3.7970  -13.0610   -1.8620 C   0  0  1  0  0  0  0  0  0  0  0  0
    5.7670  -13.1190   -3.3750 C   0  0  1  0  0  0  0  0  0  0  0  0
    6.3710  -12.8810   -4.7840 C   0  0  0  0  0  0  0  0  0  0  0  0
    7.2210  -13.9820   -5.3660 C   0  0  2  0  0  0  0  0  0  0  0  0
    6.3810  -15.1480   -5.4050 O   0  0  0  0  0  0  0  0  0  0  0  0
    6.7720  -16.0650   -6.4210 C   0  0  0  0  0  0  0  0  0  0  0  0
    6.5090  -17.4710   -5.9210 C   0  0  0  0  0  0  0  0  0  0  0  0
    8.3760  -14.2490   -4.5930 O   0  0  0  0  0  0  0  0  0  0  0  0
    8.1830  -14.6390   -3.2410 C   0  0  1  0  0  0  0  0  0  0  0  0
    9.4110  -15.4180   -2.7700 C   0  0  0  0  0  0  0  0  0  0  0  0
   10.2390  -14.4290   -1.9460 C   0  0  1  0  0  0  0  0  0  0  0  0
   11.3670  -13.8260   -2.7180 C   0  0  0  0  0  0  0  0  0  0  0  0
   11.5030  -12.6860   -3.3960 C   0  0  0  0  0  0  0  0  0  0  0  0
   12.8570  -12.5600   -3.9610 C   0  0  0  0  0  0  0  0  0  0  0  0
   13.5250  -13.7450   -3.5400 O   0  0  0  0  0  0  0  0  0  0  0  0
   12.6720  -14.5010   -2.7960 C   0  0  0  0  0  0  0  0  0  0  0  0
   12.9480  -15.5660   -2.2750 O   0  0  0  0  0  0  0  0  0  0  0  0
    9.1870  -13.4300   -1.4960 C   0  0  0  0  0  0  0  0  0  0  0  0
    9.5030  -12.5960   -0.2960 C   0  0  0  0  0  0  0  0  0  0  0  0
    8.0590  -13.5080   -2.2380 C   0  0  0  0  0  0  0  0  0  0  0  0
    6.7310  -12.7130   -2.1530 C   0  0  2  0  0  0  0  0  0  0  0  0
    7.0430  -11.1980   -2.2120 C   0  0  0  0  0  0  0  0  0  0  0  0
    5.7245  -19.2489    1.0948 H   0  0  0  0  0  0  0  0  0  0  0  0
    4.8825  -18.9245   -0.4583 H   0  0  0  0  0  0  0  0  0  0  0  0
    6.6134  -19.4048   -0.4583 H   0  0  0  0  0  0  0  0  0  0  0  0
    7.2340  -17.1519   -0.2278 H   0  0  0  0  0  0  0  0  0  0  0  0
    4.2593  -16.4621    2.3845 H   0  0  0  0  0  0  0  0  0  0  0  0
    3.5498  -15.6109    0.9708 H   0  0  0  0  0  0  0  0  0  0  0  0
    3.6736  -17.4029    0.9708 H   0  0  0  0  0  0  0  0  0  0  0  0
    6.6368  -12.5937    0.0306 H   0  0  0  0  0  0  0  0  0  0  0  0
    4.7262  -11.4320   -0.7038 H   0  0  0  0  0  0  0  0  0  0  0  0
    2.4757  -14.4911    0.0457 H   0  0  0  0  0  0  0  0  0  0  0  0
    1.7473  -13.0036    0.6837 H   0  0  0  0  0  0  0  0  0  0  0  0
    1.7177  -11.1449   -0.2803 H   0  0  0  0  0  0  0  0  0  0  0  0
    2.5315  -10.7553   -1.8336 H   0  0  0  0  0  0  0  0  0  0  0  0
    0.8449  -11.3735   -1.8336 H   0  0  0  0  0  0  0  0  0  0  0  0
    0.4025  -13.4722   -2.1684 H   0  0  0  0  0  0  0  0  0  0  0  0
   -1.0353  -15.0257   -0.5706 H   0  0  0  0  0  0  0  0  0  0  0  0
   -0.5017  -14.2719   -2.1113 H   0  0  0  0  0  0  0  0  0  0  0  0
   -1.1694  -15.9394   -2.1113 H   0  0  0  0  0  0  0  0  0  0  0  0
    1.2234  -14.0579   -4.4957 H   0  0  0  0  0  0  0  0  0  0  0  0
    1.4731  -12.3058   -3.9885 H   0  0  0  0  0  0  0  0  0  0  0  0
    3.3992  -12.9258   -5.2203 H   0  0  0  0  0  0  0  0  0  0  0  0
    4.0020  -15.0530   -3.4370 H   0  0  0  0  0  0  0  0  0  0  0  0
    3.9903  -10.5908   -2.5819 H   0  0  0  0  0  0  0  0  0  0  0  0
    4.9147  -10.7567   -4.1131 H   0  0  0  0  0  0  0  0  0  0  0  0
    3.1312  -10.9704   -4.1131 H   0  0  0  0  0  0  0  0  0  0  0  0
    3.9795  -14.1275   -2.0602 H   0  0  0  0  0  0  0  0  0  0  0  0
    5.7109  -14.2105   -3.2506 H   0  0  0  0  0  0  0  0  0  0  0  0
    5.5347  -12.7075   -5.4772 H   0  0  0  0  0  0  0  0  0  0  0  0
    7.0573  -12.0307   -4.6576 H   0  0  0  0  0  0  0  0  0  0  0  0
    7.5858  -13.6858   -6.3606 H   0  0  0  0  0  0  0  0  0  0  0  0
    6.1873  -15.8797   -7.3341 H   0  0  0  0  0  0  0  0  0  0  0  0
    7.8397  -15.9395   -6.6538 H   0  0  0  0  0  0  0  0  0  0  0  0
    6.5083  -17.4748   -4.8210 H   0  0  0  0  0  0  0  0  0  0  0  0
    5.5311  -17.8143   -6.2895 H   0  0  0  0  0  0  0  0  0  0  0  0
    7.2967  -18.1446   -6.2895 H   0  0  0  0  0  0  0  0  0  0  0  0
    7.2380  -15.2017   -3.2603 H   0  0  0  0  0  0  0  0  0  0  0  0
    9.1072  -16.2740   -2.1495 H   0  0  0  0  0  0  0  0  0  0  0  0
    9.9854  -15.8208   -3.6173 H   0  0  0  0  0  0  0  0  0  0  0  0
   10.7715  -14.8910   -1.1016 H   0  0  0  0  0  0  0  0  0  0  0  0
   10.7069  -11.9367   -3.5175 H   0  0  0  0  0  0  0  0  0  0  0  0
   12.8176  -12.5039   -5.0589 H   0  0  0  0  0  0  0  0  0  0  0  0
   13.3695  -11.6465   -3.6251 H   0  0  0  0  0  0  0  0  0  0  0  0
    9.2856  -13.1698    0.6169 H   0  0  0  0  0  0  0  0  0  0  0  0
   10.5678  -12.3205   -0.3110 H   0  0  0  0  0  0  0  0  0  0  0  0
    8.8881  -11.6841   -0.3110 H   0  0  0  0  0  0  0  0  0  0  0  0
    7.1249  -10.8004   -1.1896 H   0  0  0  0  0  0  0  0  0  0  0  0
    7.9926  -11.0397   -2.7441 H   0  0  0  0  0  0  0  0  0  0  0  0
    6.2332  -10.6773   -2.7441 H   0  0  0  0  0  0  0  0  0  0  0  0
  1  2  1  0
  2  3  2  0
  3  4  1  0
  3  5  1  0
  5  6  2  0
  5  7  1  0
  7  8  1  0
  8  9  1  0
  9 10  1  0
 10 11  1  0
 11 12  1  0
 12 13  1  1
 12 14  1  0
 14 15  1  0
 15 16  1  0
 16 17  1  0
 16 18  2  0
 14 19  1  0
 19 20  1  0
 20 21  1  0
 20 22  1  0
 22 23  1  1
 22 24  1  0
 22 25  1  0
 25 26  1  0
 26 27  1  0
 27 28  1  0
 28 29  1  0
 29 30  1  0
 27 31  1  0
 31 32  1  0
 32 33  1  0
 33 34  1  0
 34 35  1  0
 35 36  2  0
 36 37  1  0
 37 38  1  0
 38 39  1  0
 39 40  2  0
 34 41  1  0
 41 42  1  0
 41 43  2  0
 43 44  1  0
 44 45  1  1
 44  8  1  0
 24  9  1  0
 44 25  1  0
 24 12  1  0
 43 32  1  0
 39 35  1  0
  1 46  1  0
  1 47  1  0
  1 48  1  0
  2 49  1  0
  4 50  1  0
  4 51  1  0
  4 52  1  0
  8 53  1  1
  9 54  1  6
 11 55  1  0
 11 56  1  0
 13 57  1  0
 13 58  1  0
 13 59  1  0
 14 60  1  1
 17 61  1  0
 17 62  1  0
 17 63  1  0
 19 64  1  0
 19 65  1  0
 20 66  1  6
 21 67  1  0
 23 68  1  0
 23 69  1  0
 23 70  1  0
 24 71  1  6
 25 72  1  1
 26 73  1  0
 26 74  1  0
 27 75  1  6
 29 76  1  0
 29 77  1  0
 30 78  1  0
 30 79  1  0
 30 80  1  0
 32 81  1  6
 33 82  1  0
 33 83  1  0
 34 84  1  1
 36 85  1  0
 37 86  1  0
 37 87  1  0
 42 88  1  0
 42 89  1  0
 42 90  1  0
 45 91  1  0
 45 92  1  0
 45 93  1  0
M  END
>  <meeko>  (1) 
{"is_sidechain": [false], "free_energy": -6.889, "intermolecular_energy": -11.923, "internal_energy": -2.654}

$$$$
LIB_XKOPCBHBBCCNEY__M_PUB_ALL__e8__s20260927
     RDKit          3D

 93 98  0  0  0  0  0  0  0  0999 V2000
    7.0880   -8.9820    0.9020 C   0  0  0  0  0  0  0  0  0  0  0  0
    7.3270  -10.4570    0.9150 C   0  0  0  0  0  0  0  0  0  0  0  0
    7.2190  -11.3190   -0.1170 C   0  0  0  0  0  0  0  0  0  0  0  0
    6.8700  -10.9650   -1.5320 C   0  0  0  0  0  0  0  0  0  0  0  0
    7.5000  -12.7590    0.1840 C   0  0  0  0  0  0  0  0  0  0  0  0
    7.6570  -13.2160    1.3050 O   0  0  0  0  0  0  0  0  0  0  0  0
    7.5080  -13.4590   -0.9750 O   0  0  0  0  0  0  0  0  0  0  0  0
    7.3980  -14.9030   -0.8890 C   0  0  2  0  0  0  0  0  0  0  0  0
    8.7530  -15.4940   -1.3110 C   0  0  2  0  0  0  0  0  0  0  0  0
    9.8890  -14.9680   -0.5850 O   0  0  0  0  0  0  0  0  0  0  0  0
   10.9400  -14.6450   -1.5450 C   0  0  0  0  0  0  0  0  0  0  0  0
   10.5540  -15.3360   -2.8680 C   0  0  2  0  0  0  0  0  0  0  0  0
   11.0790  -16.7850   -2.8040 C   0  0  0  0  0  0  0  0  0  0  0  0
   11.0140  -14.6740   -4.1850 C   0  0  2  0  0  0  0  0  0  0  0  0
   10.8810  -13.2420   -4.0680 O   0  0  0  0  0  0  0  0  0  0  0  0
   12.0160  -12.5330   -3.8330 C   0  0  0  0  0  0  0  0  0  0  0  0
   13.1210  -13.0370   -4.7100 C   0  0  0  0  0  0  0  0  0  0  0  0
   12.1300  -11.6200   -3.0280 O   0  0  0  0  0  0  0  0  0  0  0  0
   10.1520  -15.1880   -5.3770 C   0  0  0  0  0  0  0  0  0  0  0  0
    8.6130  -15.0950   -5.1720 C   0  0  2  0  0  0  0  0  0  0  0  0
    8.2460  -13.7170   -5.2680 O   0  0  0  0  0  0  0  0  0  0  0  0
    8.1070  -15.7050   -3.8070 C   0  0  1  0  0  0  0  0  0  0  0  0
    8.1730  -17.2450   -3.9290 C   0  0  0  0  0  0  0  0  0  0  0  0
    9.0510  -15.1410   -2.7440 C   0  0  1  0  0  0  0  0  0  0  0  0
    6.6510  -15.1720   -3.3860 C   0  0  1  0  0  0  0  0  0  0  0  0
    5.5520  -15.5490   -4.4130 C   0  0  0  0  0  0  0  0  0  0  0  0
    4.5250  -14.5020   -4.7680 C   0  0  2  0  0  0  0  0  0  0  0  0
    5.2620  -13.3850   -5.2910 O   0  0  0  0  0  0  0  0  0  0  0  0
    4.5650  -12.7160   -6.3370 C   0  0  0  0  0  0  0  0  0  0  0  0
    5.5830  -12.2140   -7.3420 C   0  0  0  0  0  0  0  0  0  0  0  0
    3.7610  -14.0910   -3.6500 O   0  0  0  0  0  0  0  0  0  0  0  0
    4.4620  -13.5410   -2.5440 C   0  0  1  0  0  0  0  0  0  0  0  0
    3.5100  -12.6480   -1.7480 C   0  0  0  0  0  0  0  0  0  0  0  0
    3.0720  -13.4820   -0.5410 C   0  0  1  0  0  0  0  0  0  0  0  0
    1.7350  -14.1220   -0.7280 C   0  0  0  0  0  0  0  0  0  0  0  0
    1.3430  -15.2720   -1.2770 C   0  0  0  0  0  0  0  0  0  0  0  0
   -0.1160  -15.4400   -1.1750 C   0  0  0  0  0  0  0  0  0  0  0  0
   -0.5590  -14.2700   -0.4970 O   0  0  0  0  0  0  0  0  0  0  0  0
    0.5150  -13.4830   -0.2110 C   0  0  0  0  0  0  0  0  0  0  0  0
    0.4720  -12.4200    0.3820 O   0  0  0  0  0  0  0  0  0  0  0  0
    4.2210  -14.4650   -0.3990 C   0  0  0  0  0  0  0  0  0  0  0  0
    4.4000  -15.1220    0.9320 C   0  0  0  0  0  0  0  0  0  0  0  0
    4.9720  -14.5380   -1.5210 C   0  0  0  0  0  0  0  0  0  0  0  0
    6.2310  -15.3800   -1.8470 C   0  0  2  0  0  0  0  0  0  0  0  0
    5.9240  -16.8750   -1.5840 C   0  0  0  0  0  0  0  0  0  0  0  0
    7.0279   -8.6112    1.9359 H   0  0  0  0  0  0  0  0  0  0  0  0
    7.9167   -8.4809    0.3803 H   0  0  0  0  0  0  0  0  0  0  0  0
    6.1435   -8.7682    0.3803 H   0  0  0  0  0  0  0  0  0  0  0  0
    7.6264  -10.8913    1.8803 H   0  0  0  0  0  0  0  0  0  0  0  0
    6.0977  -10.1817   -1.5342 H   0  0  0  0  0  0  0  0  0  0  0  0
    7.7677  -10.5963   -2.0498 H   0  0  0  0  0  0  0  0  0  0  0  0
    6.4886  -11.8574   -2.0498 H   0  0  0  0  0  0  0  0  0  0  0  0
    7.1588  -15.2393    0.1306 H   0  0  0  0  0  0  0  0  0  0  0  0
    8.6417  -16.5713   -1.1184 H   0  0  0  0  0  0  0  0  0  0  0  0
   11.0012  -13.5562   -1.6890 H   0  0  0  0  0  0  0  0  0  0  0  0
   11.9224  -14.9890   -1.1891 H   0  0  0  0  0  0  0  0  0  0  0  0
   11.1891  -17.0890   -1.7526 H   0  0  0  0  0  0  0  0  0  0  0  0
   10.3667  -17.4556   -3.3069 H   0  0  0  0  0  0  0  0  0  0  0  0
   12.0556  -16.8437   -3.3069 H   0  0  0  0  0  0  0  0  0  0  0  0
   12.0659  -14.9348   -4.3735 H   0  0  0  0  0  0  0  0  0  0  0  0
   13.9439  -13.4123   -4.0839 H   0  0  0  0  0  0  0  0  0  0  0  0
   12.7426  -13.8515   -5.3451 H   0  0  0  0  0  0  0  0  0  0  0  0
   13.4880  -12.2172   -5.3451 H   0  0  0  0  0  0  0  0  0  0  0  0
   10.4130  -14.5950   -6.2659 H   0  0  0  0  0  0  0  0  0  0  0  0
   10.3814  -16.2589   -5.4792 H   0  0  0  0  0  0  0  0  0  0  0  0
    8.1301  -15.7018   -5.9521 H   0  0  0  0  0  0  0  0  0  0  0  0
    7.8050  -13.4710   -4.4360 H   0  0  0  0  0  0  0  0  0  0  0  0
    8.1922  -17.6919   -2.9241 H   0  0  0  0  0  0  0  0  0  0  0  0
    7.2896  -17.6078   -4.4749 H   0  0  0  0  0  0  0  0  0  0  0  0
    9.0842  -17.5309   -4.4749 H   0  0  0  0  0  0  0  0  0  0  0  0
    8.8041  -14.0986   -2.9937 H   0  0  0  0  0  0  0  0  0  0  0  0
    6.7497  -14.0776   -3.4362 H   0  0  0  0  0  0  0  0  0  0  0  0
    6.0603  -15.8378   -5.3448 H   0  0  0  0  0  0  0  0  0  0  0  0
    4.9744  -16.3436   -3.9181 H   0  0  0  0  0  0  0  0  0  0  0  0
    3.8076  -14.9125   -5.4938 H   0  0  0  0  0  0  0  0  0  0  0  0
    3.8711  -13.4144   -6.8276 H   0  0  0  0  0  0  0  0  0  0  0  0
    3.9875  -11.8733   -5.9292 H   0  0  0  0  0  0  0  0  0  0  0  0
    6.4458  -11.7885   -6.8086 H   0  0  0  0  0  0  0  0  0  0  0  0
    5.9181  -13.0501   -7.9733 H   0  0  0  0  0  0  0  0  0  0  0  0
    5.1237  -11.4391   -7.9733 H   0  0  0  0  0  0  0  0  0  0  0  0
    5.3227  -13.0329   -3.0034 H   0  0  0  0  0  0  0  0  0  0  0  0
    4.0272  -11.7355   -1.4164 H   0  0  0  0  0  0  0  0  0  0  0  0
    2.6498  -12.3289   -2.3548 H   0  0  0  0  0  0  0  0  0  0  0  0
    2.9075  -12.8909    0.3720 H   0  0  0  0  0  0  0  0  0  0  0  0
    2.0214  -16.0004   -1.7452 H   0  0  0  0  0  0  0  0  0  0  0  0
   -0.5712  -15.5070   -2.1742 H   0  0  0  0  0  0  0  0  0  0  0  0
   -0.3964  -16.3631   -0.6465 H   0  0  0  0  0  0  0  0  0  0  0  0
    4.2012  -14.3923    1.7308 H   0  0  0  0  0  0  0  0  0  0  0  0
    3.6987  -15.9646    1.0223 H   0  0  0  0  0  0  0  0  0  0  0  0
    5.4318  -15.4924    1.0223 H   0  0  0  0  0  0  0  0  0  0  0  0
    5.8867  -17.0564   -0.4997 H   0  0  0  0  0  0  0  0  0  0  0  0
    4.9538  -17.1346   -2.0327 H   0  0  0  0  0  0  0  0  0  0  0  0
    6.7134  -17.4959   -2.0327 H   0  0  0  0  0  0  0  0  0  0  0  0
  1  2  1  0
  2  3  2  0
  3  4  1  0
  3  5  1  0
  5  6  2  0
  5  7  1  0
  7  8  1  0
  8  9  1  0
  9 10  1  0
 10 11  1  0
 11 12  1  0
 12 13  1  1
 12 14  1  0
 14 15  1  0
 15 16  1  0
 16 17  1  0
 16 18  2  0
 14 19  1  0
 19 20  1  0
 20 21  1  0
 20 22  1  0
 22 23  1  6
 22 24  1  0
 22 25  1  0
 25 26  1  0
 26 27  1  0
 27 28  1  0
 28 29  1  0
 29 30  1  0
 27 31  1  0
 31 32  1  0
 32 33  1  0
 33 34  1  0
 34 35  1  0
 35 36  2  0
 36 37  1  0
 37 38  1  0
 38 39  1  0
 39 40  2  0
 34 41  1  0
 41 42  1  0
 41 43  2  0
 43 44  1  0
 44 45  1  6
 44  8  1  0
 24  9  1  0
 44 25  1  0
 24 12  1  0
 43 32  1  0
 39 35  1  0
  1 46  1  0
  1 47  1  0
  1 48  1  0
  2 49  1  0
  4 50  1  0
  4 51  1  0
  4 52  1  0
  8 53  1  1
  9 54  1  6
 11 55  1  0
 11 56  1  0
 13 57  1  0
 13 58  1  0
 13 59  1  0
 14 60  1  6
 17 61  1  0
 17 62  1  0
 17 63  1  0
 19 64  1  0
 19 65  1  0
 20 66  1  6
 21 67  1  0
 23 68  1  0
 23 69  1  0
 23 70  1  0
 24 71  1  1
 25 72  1  1
 26 73  1  0
 26 74  1  0
 27 75  1  6
 29 76  1  0
 29 77  1  0
 30 78  1  0
 30 79  1  0
 30 80  1  0
 32 81  1  6
 33 82  1  0
 33 83  1  0
 34 84  1  1
 36 85  1  0
 37 86  1  0
 37 87  1  0
 42 88  1  0
 42 89  1  0
 42 90  1  0
 45 91  1  0
 45 92  1  0
 45 93  1  0
M  END
>  <meeko>  (2) 
{"is_sidechain": [false], "free_energy": -6.811, "intermolecular_energy": -11.546, "internal_energy": -2.896}

$$$$
LIB_XKOPCBHBBCCNEY__M_PUB_ALL__e8__s20260927
     RDKit          3D

 93 98  0  0  0  0  0  0  0  0999 V2000
   -4.4690  -13.7580    2.7890 C   0  0  0  0  0  0  0  0  0  0  0  0
   -3.1850  -13.1770    2.2920 C   0  0  0  0  0  0  0  0  0  0  0  0
   -2.5040  -13.5150    1.1790 C   0  0  0  0  0  0  0  0  0  0  0  0
   -2.9210  -14.5360    0.1620 C   0  0  0  0  0  0  0  0  0  0  0  0
   -1.2230  -12.7790    0.9300 C   0  0  0  0  0  0  0  0  0  0  0  0
   -1.1240  -11.5640    0.8600 O   0  0  0  0  0  0  0  0  0  0  0  0
   -0.2100  -13.6730    0.8410 O   0  0  0  0  0  0  0  0  0  0  0  0
    0.9750  -13.4260    1.6410 C   0  0  2  0  0  0  0  0  0  0  0  0
    2.0790  -12.9350    0.6910 C   0  0  2  0  0  0  0  0  0  0  0  0
    1.7040  -11.8030   -0.1290 O   0  0  0  0  0  0  0  0  0  0  0  0
    2.1240  -12.0680   -1.5010 C   0  0  0  0  0  0  0  0  0  0  0  0
    3.1080  -13.2530   -1.4380 C   0  0  2  0  0  0  0  0  0  0  0  0
    4.5070  -12.6760   -1.1360 C   0  0  0  0  0  0  0  0  0  0  0  0
    3.1850  -14.1900   -2.6630 C   0  0  2  0  0  0  0  0  0  0  0  0
    1.8550  -14.4000   -3.1830 O   0  0  0  0  0  0  0  0  0  0  0  0
    1.6480  -14.0950   -4.4900 C   0  0  0  0  0  0  0  0  0  0  0  0
    2.8170  -13.3270   -5.0250 C   0  0  0  0  0  0  0  0  0  0  0  0
    0.6590  -14.3960   -5.1420 O   0  0  0  0  0  0  0  0  0  0  0  0
    3.8150  -15.5570   -2.2570 C   0  0  0  0  0  0  0  0  0  0  0  0
    3.1690  -16.2460   -1.0220 C   0  0  2  0  0  0  0  0  0  0  0  0
    1.8940  -16.7500   -1.4260 O   0  0  0  0  0  0  0  0  0  0  0  0
    3.0150  -15.3020    0.2340 C   0  0  1  0  0  0  0  0  0  0  0  0
    4.4180  -15.1150    0.8540 C   0  0  0  0  0  0  0  0  0  0  0  0
    2.4160  -14.0050   -0.3130 C   0  0  1  0  0  0  0  0  0  0  0  0
    1.9290  -15.8410    1.2900 C   0  0  1  0  0  0  0  0  0  0  0  0
    2.3030  -17.2240    1.8830 C   0  0  0  0  0  0  0  0  0  0  0  0
    1.3980  -17.7950    2.9940 C   0  0  2  0  0  0  0  0  0  0  0  0
    1.8370  -19.1470    3.2080 O   0  0  0  0  0  0  0  0  0  0  0  0
    2.4480  -19.3250    4.4810 C   0  0  0  0  0  0  0  0  0  0  0  0
    1.5600  -20.2300    5.3130 C   0  0  0  0  0  0  0  0  0  0  0  0
    0.0230  -17.7840    2.6620 O   0  0  0  0  0  0  0  0  0  0  0  0
   -0.5970  -16.5190    2.4820 C   0  0  1  0  0  0  0  0  0  0  0  0
   -1.9490  -16.5230    3.1970 C   0  0  0  0  0  0  0  0  0  0  0  0
   -1.7220  -15.7740    4.5140 C   0  0  1  0  0  0  0  0  0  0  0  0
   -1.5130  -16.6890    5.6760 C   0  0  0  0  0  0  0  0  0  0  0  0
   -0.4270  -17.2380    6.2220 C   0  0  0  0  0  0  0  0  0  0  0  0
   -0.7760  -18.0560    7.3950 C   0  0  0  0  0  0  0  0  0  0  0  0
   -2.1900  -17.9330    7.5020 O   0  0  0  0  0  0  0  0  0  0  0  0
   -2.6460  -17.1220    6.5080 C   0  0  0  0  0  0  0  0  0  0  0  0
   -3.8090  -16.8040    6.3370 O   0  0  0  0  0  0  0  0  0  0  0  0
   -0.5240  -14.9020    4.1820 C   0  0  0  0  0  0  0  0  0  0  0  0
   -0.3010  -13.6930    5.0340 C   0  0  0  0  0  0  0  0  0  0  0  0
    0.1330  -15.3330    3.0820 C   0  0  0  0  0  0  0  0  0  0  0  0
    1.3870  -14.7740    2.3640 C   0  0  2  0  0  0  0  0  0  0  0  0
    2.4860  -14.4820    3.4150 C   0  0  0  0  0  0  0  0  0  0  0  0
   -4.4698  -13.7584    3.8890 H   0  0  0  0  0  0  0  0  0  0  0  0
   -5.3114  -13.1534    2.4219 H   0  0  0  0  0  0  0  0  0  0  0  0
   -4.5709  -14.7899    2.4219 H   0  0  0  0  0  0  0  0  0  0  0  0
   -2.7434  -12.3792    2.9072 H   0  0  0  0  0  0  0  0  0  0  0  0
   -3.2887  -15.4364    0.6759 H   0  0  0  0  0  0  0  0  0  0  0  0
   -3.7215  -14.1205   -0.4678 H   0  0  0  0  0  0  0  0  0  0  0  0
   -2.0585  -14.7997   -0.4678 H   0  0  0  0  0  0  0  0  0  0  0  0
    0.7995  -12.6643    2.4150 H   0  0  0  0  0  0  0  0  0  0  0  0
    2.9046  -12.6633    1.3652 H   0  0  0  0  0  0  0  0  0  0  0  0
    1.2537  -12.3296   -2.1208 H   0  0  0  0  0  0  0  0  0  0  0  0
    2.5973  -11.1821   -1.9496 H   0  0  0  0  0  0  0  0  0  0  0  0
    4.6518  -12.6163   -0.0472 H   0  0  0  0  0  0  0  0  0  0  0  0
    5.2757  -13.3305   -1.5728 H   0  0  0  0  0  0  0  0  0  0  0  0
    4.5908  -11.6699   -1.5728 H   0  0  0  0  0  0  0  0  0  0  0  0
    3.8168  -13.7271   -3.4354 H   0  0  0  0  0  0  0  0  0  0  0  0
    3.4129  -12.9355   -4.1873 H   0  0  0  0  0  0  0  0  0  0  0  0
    3.4416  -13.9913   -5.6403 H   0  0  0  0  0  0  0  0  0  0  0  0
    2.4552  -12.4900   -5.6403 H   0  0  0  0  0  0  0  0  0  0  0  0
    3.7241  -16.2408   -3.1138 H   0  0  0  0  0  0  0  0  0  0  0  0
    4.8557  -15.3402   -1.9744 H   0  0  0  0  0  0  0  0  0  0  0  0
    3.8411  -17.0520   -0.6925 H   0  0  0  0  0  0  0  0  0  0  0  0
    1.3780  -16.9260   -0.6200 H   0  0  0  0  0  0  0  0  0  0  0  0
    4.3384  -15.1256    1.9511 H   0  0  0  0  0  0  0  0  0  0  0  0
    5.0758  -15.9334    0.5261 H   0  0  0  0  0  0  0  0  0  0  0  0
    4.8385  -14.1529    0.5261 H   0  0  0  0  0  0  0  0  0  0  0  0
    1.5290  -14.5143   -0.7177 H   0  0  0  0  0  0  0  0  0  0  0  0
    1.0294  -16.0068    0.6791 H   0  0  0  0  0  0  0  0  0  0  0  0
    2.3030  -17.9477    1.0546 H   0  0  0  0  0  0  0  0  0  0  0  0
    3.2758  -17.0640    2.3709 H   0  0  0  0  0  0  0  0  0  0  0  0
    1.4872  -17.1675    3.8931 H   0  0  0  0  0  0  0  0  0  0  0  0
    3.4383  -19.7875    4.3569 H   0  0  0  0  0  0  0  0  0  0  0  0
    2.5729  -18.3530    4.9807 H   0  0  0  0  0  0  0  0  0  0  0  0
    1.7438  -20.0427    6.3812 H   0  0  0  0  0  0  0  0  0  0  0  0
    0.5050  -20.0228    5.0806 H   0  0  0  0  0  0  0  0  0  0  0  0
    1.7871  -21.2809    5.0806 H   0  0  0  0  0  0  0  0  0  0  0  0
   -0.6345  -16.3963    1.3895 H   0  0  0  0  0  0  0  0  0  0  0  0
   -2.7066  -16.0079    2.5882 H   0  0  0  0  0  0  0  0  0  0  0  0
   -2.3150  -17.5460    3.3689 H   0  0  0  0  0  0  0  0  0  0  0  0
   -2.5905  -15.1875    4.8482 H   0  0  0  0  0  0  0  0  0  0  0  0
    0.5967  -17.0977    5.8447 H   0  0  0  0  0  0  0  0  0  0  0  0
   -0.4870  -19.1057    7.2379 H   0  0  0  0  0  0  0  0  0  0  0  0
   -0.2555  -17.7269    8.3065 H   0  0  0  0  0  0  0  0  0  0  0  0
   -0.3535  -13.9776    6.0953 H   0  0  0  0  0  0  0  0  0  0  0  0
    0.6905  -13.2691    4.8167 H   0  0  0  0  0  0  0  0  0  0  0  0
   -1.0760  -12.9432    4.8167 H   0  0  0  0  0  0  0  0  0  0  0  0
    2.0659  -14.5936    4.4255 H   0  0  0  0  0  0  0  0  0  0  0  0
    3.3170  -15.1905    3.2831 H   0  0  0  0  0  0  0  0  0  0  0  0
    2.8558  -13.4544    3.2831 H   0  0  0  0  0  0  0  0  0  0  0  0
  1  2  1  0
  2  3  2  0
  3  4  1  0
  3  5  1  0
  5  6  2  0
  5  7  1  0
  7  8  1  0
  8  9  1  0
  9 10  1  0
 10 11  1  0
 11 12  1  0
 12 13  1  1
 12 14  1  0
 14 15  1  0
 15 16  1  0
 16 17  1  0
 16 18  2  0
 14 19  1  0
 19 20  1  0
 20 21  1  0
 20 22  1  0
 22 23  1  1
 22 24  1  0
 22 25  1  0
 25 26  1  0
 26 27  1  0
 27 28  1  0
 28 29  1  0
 29 30  1  0
 27 31  1  0
 31 32  1  0
 32 33  1  0
 33 34  1  0
 34 35  1  0
 35 36  2  0
 36 37  1  0
 37 38  1  0
 38 39  1  0
 39 40  2  0
 34 41  1  0
 41 42  1  0
 41 43  2  0
 43 44  1  0
 44 45  1  1
 44  8  1  0
 24  9  1  0
 44 25  1  0
 24 12  1  0
 43 32  1  0
 39 35  1  0
  1 46  1  0
  1 47  1  0
  1 48  1  0
  2 49  1  0
  4 50  1  0
  4 51  1  0
  4 52  1  0
  8 53  1  1
  9 54  1  1
 11 55  1  0
 11 56  1  0
 13 57  1  0
 13 58  1  0
 13 59  1  0
 14 60  1  6
 17 61  1  0
 17 62  1  0
 17 63  1  0
 19 64  1  0
 19 65  1  0
 20 66  1  1
 21 67  1  0
 23 68  1  0
 23 69  1  0
 23 70  1  0
 24 71  1  6
 25 72  1  6
 26 73  1  0
 26 74  1  0
 27 75  1  1
 29 76  1  0
 29 77  1  0
 30 78  1  0
 30 79  1  0
 30 80  1  0
 32 81  1  6
 33 82  1  0
 33 83  1  0
 34 84  1  1
 36 85  1  0
 37 86  1  0
 37 87  1  0
 42 88  1  0
 42 89  1  0
 42 90  1  0
 45 91  1  0
 45 92  1  0
 45 93  1  0
M  END
>  <meeko>  (3) 
{"is_sidechain": [false], "free_energy": -6.775, "intermolecular_energy": -11.759, "internal_energy": -2.62}

$$$$
LIB_XKOPCBHBBCCNEY__M_PUB_ALL__e8__s20260927
     RDKit          3D

 93 98  0  0  0  0  0  0  0  0999 V2000
    3.2110  -11.1780   -4.3150 C   0  0  0  0  0  0  0  0  0  0  0  0
    2.5770  -11.4510   -2.9900 C   0  0  0  0  0  0  0  0  0  0  0  0
    2.2130  -12.6450   -2.4790 C   0  0  0  0  0  0  0  0  0  0  0  0
    2.4110  -13.9810   -3.1300 C   0  0  0  0  0  0  0  0  0  0  0  0
    1.5750  -12.6260   -1.1250 C   0  0  0  0  0  0  0  0  0  0  0  0
    1.0710  -11.6400   -0.6090 O   0  0  0  0  0  0  0  0  0  0  0  0
    1.6140  -13.8730   -0.6000 O   0  0  0  0  0  0  0  0  0  0  0  0
    1.9210  -13.9980    0.8120 C   0  0  2  0  0  0  0  0  0  0  0  0
    3.3270  -14.6110    0.9250 C   0  0  2  0  0  0  0  0  0  0  0  0
    4.3500  -13.9070    0.1840 O   0  0  0  0  0  0  0  0  0  0  0  0
    5.1470  -14.8870   -0.5470 C   0  0  0  0  0  0  0  0  0  0  0  0
    4.8130  -16.2640    0.0580 C   0  0  2  0  0  0  0  0  0  0  0  0
    5.7240  -16.4630    1.2880 C   0  0  0  0  0  0  0  0  0  0  0  0
    4.9100  -17.4980   -0.8660 C   0  0  2  0  0  0  0  0  0  0  0  0
    4.3990  -17.1550   -2.1710 O   0  0  0  0  0  0  0  0  0  0  0  0
    5.3010  -17.0640   -3.1830 C   0  0  0  0  0  0  0  0  0  0  0  0
    6.4360  -18.0100   -2.9390 C   0  0  0  0  0  0  0  0  0  0  0  0
    5.2100  -16.3220   -4.1510 O   0  0  0  0  0  0  0  0  0  0  0  0
    4.0890  -18.6820   -0.2720 C   0  0  0  0  0  0  0  0  0  0  0  0
    2.6200  -18.3440    0.1140 C   0  0  2  0  0  0  0  0  0  0  0  0
    1.8770  -18.2000   -1.0970 O   0  0  0  0  0  0  0  0  0  0  0  0
    2.4720  -17.0510    1.0080 C   0  0  1  0  0  0  0  0  0  0  0  0
    2.9480  -17.4100    2.4340 C   0  0  0  0  0  0  0  0  0  0  0  0
    3.3410  -15.9940    0.3280 C   0  0  1  0  0  0  0  0  0  0  0  0
    0.9850  -16.4400    0.9790 C   0  0  1  0  0  0  0  0  0  0  0  0
   -0.0790  -17.4230    1.5320 C   0  0  0  0  0  0  0  0  0  0  0  0
   -1.5120  -16.9160    1.6850 C   0  0  2  0  0  0  0  0  0  0  0  0
   -2.3010  -18.0710    2.0200 O   0  0  0  0  0  0  0  0  0  0  0  0
   -3.1220  -17.8560    3.1620 C   0  0  0  0  0  0  0  0  0  0  0  0
   -2.4960  -18.5760    4.3410 C   0  0  0  0  0  0  0  0  0  0  0  0
   -2.0300  -16.3030    0.5200 O   0  0  0  0  0  0  0  0  0  0  0  0
   -1.3950  -15.1180    0.0660 C   0  0  1  0  0  0  0  0  0  0  0  0
   -2.4660  -14.1080   -0.3490 C   0  0  0  0  0  0  0  0  0  0  0  0
   -2.5780  -13.1220    0.8170 C   0  0  1  0  0  0  0  0  0  0  0  0
   -3.7260  -13.4200    1.7250 C   0  0  0  0  0  0  0  0  0  0  0  0
   -3.8310  -14.0880    2.8740 C   0  0  0  0  0  0  0  0  0  0  0  0
   -5.2130  -14.0610    3.3820 C   0  0  0  0  0  0  0  0  0  0  0  0
   -5.9270  -13.2960    2.4170 O   0  0  0  0  0  0  0  0  0  0  0  0
   -5.0710  -12.8970    1.4370 C   0  0  0  0  0  0  0  0  0  0  0  0
   -5.3700  -12.2110    0.4770 O   0  0  0  0  0  0  0  0  0  0  0  0
   -1.2140  -13.2470    1.4740 C   0  0  0  0  0  0  0  0  0  0  0  0
   -0.7640  -12.1140    2.3390 C   0  0  0  0  0  0  0  0  0  0  0  0
   -0.5680  -14.3740    1.0970 C   0  0  0  0  0  0  0  0  0  0  0  0
    0.8270  -14.9220    1.4880 C   0  0  2  0  0  0  0  0  0  0  0  0
    0.9820  -14.8660    3.0280 C   0  0  0  0  0  0  0  0  0  0  0  0
    4.2114  -10.7472   -4.1610 H   0  0  0  0  0  0  0  0  0  0  0  0
    3.2994  -12.1178   -4.8798 H   0  0  0  0  0  0  0  0  0  0  0  0
    2.5890  -10.4680   -4.8798 H   0  0  0  0  0  0  0  0  0  0  0  0
    2.3840  -10.5735   -2.3554 H   0  0  0  0  0  0  0  0  0  0  0  0
    2.5254  -14.7532   -2.3550 H   0  0  0  0  0  0  0  0  0  0  0  0
    1.5380  -14.2167   -3.7563 H   0  0  0  0  0  0  0  0  0  0  0  0
    3.3149  -13.9533   -3.7563 H   0  0  0  0  0  0  0  0  0  0  0  0
    1.9083  -13.0254    1.3257 H   0  0  0  0  0  0  0  0  0  0  0  0
    3.5437  -14.5751    2.0028 H   0  0  0  0  0  0  0  0  0  0  0  0
    4.8856  -14.8681   -1.6153 H   0  0  0  0  0  0  0  0  0  0  0  0
    6.2215  -14.6667   -0.4636 H   0  0  0  0  0  0  0  0  0  0  0  0
    5.1330  -16.3339    2.2067 H   0  0  0  0  0  0  0  0  0  0  0  0
    6.1524  -17.4759    1.2669 H   0  0  0  0  0  0  0  0  0  0  0  0
    6.5358  -15.7210    1.2669 H   0  0  0  0  0  0  0  0  0  0  0  0
    5.9625  -17.8068   -0.9495 H   0  0  0  0  0  0  0  0  0  0  0  0
    6.5841  -18.1334   -1.8560 H   0  0  0  0  0  0  0  0  0  0  0  0
    6.2038  -18.9856   -3.3909 H   0  0  0  0  0  0  0  0  0  0  0  0
    7.3538  -17.6058   -3.3909 H   0  0  0  0  0  0  0  0  0  0  0  0
    4.0671  -19.4891   -1.0191 H   0  0  0  0  0  0  0  0  0  0  0  0
    4.5931  -18.9625    0.6646 H   0  0  0  0  0  0  0  0  0  0  0  0
    2.2337  -19.1663    0.7342 H   0  0  0  0  0  0  0  0  0  0  0  0
    0.9430  -18.3870   -0.8940 H   0  0  0  0  0  0  0  0  0  0  0  0
    2.2970  -16.9190    3.1723 H   0  0  0  0  0  0  0  0  0  0  0  0
    2.9021  -18.5003    2.5723 H   0  0  0  0  0  0  0  0  0  0  0  0
    3.9837  -17.0662    2.5723 H   0  0  0  0  0  0  0  0  0  0  0  0
    2.7849  -16.0636   -0.6185 H   0  0  0  0  0  0  0  0  0  0  0  0
    0.7671  -16.3307   -0.0936 H   0  0  0  0  0  0  0  0  0  0  0  0
   -0.1088  -18.2885    0.8538 H   0  0  0  0  0  0  0  0  0  0  0  0
    0.2495  -17.6339    2.5604 H   0  0  0  0  0  0  0  0  0  0  0  0
   -1.5380  -16.1324    2.4565 H   0  0  0  0  0  0  0  0  0  0  0  0
   -3.1871  -16.7790    3.3758 H   0  0  0  0  0  0  0  0  0  0  0  0
   -4.1358  -18.2409    2.9777 H   0  0  0  0  0  0  0  0  0  0  0  0
   -2.8736  -18.1417    5.2784 H   0  0  0  0  0  0  0  0  0  0  0  0
   -2.7580  -19.6436    4.2998 H   0  0  0  0  0  0  0  0  0  0  0  0
   -1.4024  -18.4650    4.2998 H   0  0  0  0  0  0  0  0  0  0  0  0
   -0.7300  -15.4666   -0.7379 H   0  0  0  0  0  0  0  0  0  0  0  0
   -2.1635  -13.5835   -1.2674 H   0  0  0  0  0  0  0  0  0  0  0  0
   -3.4275  -14.5988   -0.5600 H   0  0  0  0  0  0  0  0  0  0  0  0
   -2.8035  -12.0911    0.5065 H   0  0  0  0  0  0  0  0  0  0  0  0
   -2.9938  -14.5938    3.3773 H   0  0  0  0  0  0  0  0  0  0  0  0
   -5.6224  -15.0796    3.4524 H   0  0  0  0  0  0  0  0  0  0  0  0
   -5.2812  -13.6322    4.3927 H   0  0  0  0  0  0  0  0  0  0  0  0
   -0.8751  -12.3938    3.3970 H   0  0  0  0  0  0  0  0  0  0  0  0
    0.2919  -11.8887    2.1283 H   0  0  0  0  0  0  0  0  0  0  0  0
   -1.3776  -11.2257    2.1283 H   0  0  0  0  0  0  0  0  0  0  0  0
    0.0488  -15.2031    3.5029 H   0  0  0  0  0  0  0  0  0  0  0  0
    1.8088  -15.5223    3.3374 H   0  0  0  0  0  0  0  0  0  0  0  0
    1.1984  -13.8328    3.3374 H   0  0  0  0  0  0  0  0  0  0  0  0
  1  2  1  0
  2  3  2  0
  3  4  1  0
  3  5  1  0
  5  6  2  0
  5  7  1  0
  7  8  1  0
  8  9  1  0
  9 10  1  0
 10 11  1  0
 11 12  1  0
 12 13  1  1
 12 14  1  0
 14 15  1  0
 15 16  1  0
 16 17  1  0
 16 18  2  0
 14 19  1  0
 19 20  1  0
 20 21  1  0
 20 22  1  0
 22 23  1  1
 22 24  1  0
 22 25  1  0
 25 26  1  0
 26 27  1  0
 27 28  1  0
 28 29  1  0
 29 30  1  0
 27 31  1  0
 31 32  1  0
 32 33  1  0
 33 34  1  0
 34 35  1  0
 35 36  2  0
 36 37  1  0
 37 38  1  0
 38 39  1  0
 39 40  2  0
 34 41  1  0
 41 42  1  0
 41 43  2  0
 43 44  1  0
 44 45  1  1
 44  8  1  0
 24  9  1  0
 44 25  1  0
 24 12  1  0
 43 32  1  0
 39 35  1  0
  1 46  1  0
  1 47  1  0
  1 48  1  0
  2 49  1  0
  4 50  1  0
  4 51  1  0
  4 52  1  0
  8 53  1  1
  9 54  1  1
 11 55  1  0
 11 56  1  0
 13 57  1  0
 13 58  1  0
 13 59  1  0
 14 60  1  6
 17 61  1  0
 17 62  1  0
 17 63  1  0
 19 64  1  0
 19 65  1  0
 20 66  1  1
 21 67  1  0
 23 68  1  0
 23 69  1  0
 23 70  1  0
 24 71  1  6
 25 72  1  6
 26 73  1  0
 26 74  1  0
 27 75  1  1
 29 76  1  0
 29 77  1  0
 30 78  1  0
 30 79  1  0
 30 80  1  0
 32 81  1  6
 33 82  1  0
 33 83  1  0
 34 84  1  6
 36 85  1  0
 37 86  1  0
 37 87  1  0
 42 88  1  0
 42 89  1  0
 42 90  1  0
 45 91  1  0
 45 92  1  0
 45 93  1  0
M  END
>  <meeko>  (4) 
{"is_sidechain": [false], "free_energy": -6.691, "intermolecular_energy": -12.233, "internal_energy": -2.002}

$$$$
LIB_XKOPCBHBBCCNEY__M_PUB_ALL__e8__s20260927
     RDKit          3D

 93 98  0  0  0  0  0  0  0  0999 V2000
    7.7960  -14.5700   -8.3070 C   0  0  0  0  0  0  0  0  0  0  0  0
    7.1910  -15.2730   -7.1350 C   0  0  0  0  0  0  0  0  0  0  0  0
    6.3690  -14.7580   -6.1980 C   0  0  0  0  0  0  0  0  0  0  0  0
    5.8440  -13.3540   -6.1590 C   0  0  0  0  0  0  0  0  0  0  0  0
    5.9240  -15.6910   -5.1140 C   0  0  0  0  0  0  0  0  0  0  0  0
    5.5370  -16.8340   -5.2980 O   0  0  0  0  0  0  0  0  0  0  0  0
    6.0640  -15.0750   -3.9170 O   0  0  0  0  0  0  0  0  0  0  0  0
    6.3100  -15.9090   -2.7560 C   0  0  2  0  0  0  0  0  0  0  0  0
    5.0930  -15.7760   -1.8260 C   0  0  2  0  0  0  0  0  0  0  0  0
    3.8210  -16.0490   -2.4600 O   0  0  0  0  0  0  0  0  0  0  0  0
    2.8810  -15.0000   -2.0790 C   0  0  0  0  0  0  0  0  0  0  0  0
    3.5120  -14.2600   -0.8830 C   0  0  2  0  0  0  0  0  0  0  0  0
    3.1360  -15.0390    0.3940 C   0  0  0  0  0  0  0  0  0  0  0  0
    3.1660  -12.7650   -0.7000 C   0  0  2  0  0  0  0  0  0  0  0  0
    3.1330  -12.1240   -1.9930 O   0  0  0  0  0  0  0  0  0  0  0  0
    2.2660  -11.0900   -2.1470 C   0  0  0  0  0  0  0  0  0  0  0  0
    2.5860  -10.3410   -3.4040 C   0  0  0  0  0  0  0  0  0  0  0  0
    1.3580  -10.8040   -1.3800 O   0  0  0  0  0  0  0  0  0  0  0  0
    4.2300  -12.0730    0.2050 C   0  0  0  0  0  0  0  0  0  0  0  0
    5.7100  -12.2930   -0.2220 C   0  0  2  0  0  0  0  0  0  0  0  0
    5.9410  -11.5140   -1.3970 O   0  0  0  0  0  0  0  0  0  0  0  0
    6.0870  -13.8040   -0.4800 C   0  0  1  0  0  0  0  0  0  0  0  0
    6.1980  -14.5010    0.8950 C   0  0  0  0  0  0  0  0  0  0  0  0
    4.9550  -14.3550   -1.3490 C   0  0  1  0  0  0  0  0  0  0  0  0
    7.4100  -13.9720   -1.3770 C   0  0  1  0  0  0  0  0  0  0  0  0
    8.6700  -13.3630   -0.7090 C   0  0  0  0  0  0  0  0  0  0  0  0
   10.0290  -13.5820   -1.3970 C   0  0  2  0  0  0  0  0  0  0  0  0
   10.9750  -12.7680   -0.6830 O   0  0  0  0  0  0  0  0  0  0  0  0
   11.9890  -12.2420   -1.5320 C   0  0  0  0  0  0  0  0  0  0  0  0
   12.8700  -11.3230   -0.7090 C   0  0  0  0  0  0  0  0  0  0  0  0
   10.0250  -13.2230   -2.7660 O   0  0  0  0  0  0  0  0  0  0  0  0
    9.1850  -13.9680   -3.6350 C   0  0  1  0  0  0  0  0  0  0  0  0
    9.9540  -14.2810   -4.9190 C   0  0  0  0  0  0  0  0  0  0  0  0
   10.4190  -15.7330   -4.7800 C   0  0  1  0  0  0  0  0  0  0  0  0
   11.8400  -15.8490   -4.3320 C   0  0  0  0  0  0  0  0  0  0  0  0
   12.4170  -15.8920   -3.1310 C   0  0  0  0  0  0  0  0  0  0  0  0
   13.8770  -16.0430   -3.2470 C   0  0  0  0  0  0  0  0  0  0  0  0
   14.1160  -16.0950   -4.6490 O   0  0  0  0  0  0  0  0  0  0  0  0
   12.9290  -15.9950   -5.3090 C   0  0  0  0  0  0  0  0  0  0  0  0
   12.7920  -16.0260   -6.5190 O   0  0  0  0  0  0  0  0  0  0  0  0
    9.4070  -16.3000   -3.8000 C   0  0  0  0  0  0  0  0  0  0  0  0
    9.2310  -17.7850   -3.7790 C   0  0  0  0  0  0  0  0  0  0  0  0
    8.7490  -15.3290   -3.1280 C   0  0  0  0  0  0  0  0  0  0  0  0
    7.6380  -15.4150   -2.0500 C   0  0  2  0  0  0  0  0  0  0  0  0
    8.0610  -16.4390   -0.9670 C   0  0  0  0  0  0  0  0  0  0  0  0
    8.4749  -13.7811   -7.9509 H   0  0  0  0  0  0  0  0  0  0  0  0
    8.3599  -15.2916   -8.9163 H   0  0  0  0  0  0  0  0  0  0  0  0
    6.9984  -14.1199   -8.9163 H   0  0  0  0  0  0  0  0  0  0  0  0
    7.4466  -16.3371   -7.0234 H   0  0  0  0  0  0  0  0  0  0  0  0
    5.7251  -13.0359   -5.1127 H   0  0  0  0  0  0  0  0  0  0  0  0
    6.5521  -12.6835   -6.6678 H   0  0  0  0  0  0  0  0  0  0  0  0
    4.8696  -13.3126   -6.6678 H   0  0  0  0  0  0  0  0  0  0  0  0
    6.4428  -16.9665   -3.0281 H   0  0  0  0  0  0  0  0  0  0  0  0
    5.2893  -16.5093   -1.0299 H   0  0  0  0  0  0  0  0  0  0  0  0
    2.7269  -14.3049   -2.9175 H   0  0  0  0  0  0  0  0  0  0  0  0
    1.9005  -15.4219   -1.8133 H   0  0  0  0  0  0  0  0  0  0  0  0
    3.4199  -14.4509    1.2792 H   0  0  0  0  0  0  0  0  0  0  0  0
    2.0511  -15.2204    0.4068 H   0  0  0  0  0  0  0  0  0  0  0  0
    3.6688  -16.0012    0.4068 H   0  0  0  0  0  0  0  0  0  0  0  0
    2.1817  -12.6765   -0.2170 H   0  0  0  0  0  0  0  0  0  0  0  0
    3.0063   -9.3573   -3.1478 H   0  0  0  0  0  0  0  0  0  0  0  0
    3.3193  -10.9107   -3.9937 H   0  0  0  0  0  0  0  0  0  0  0  0
    1.6674  -10.2050   -3.9937 H   0  0  0  0  0  0  0  0  0  0  0  0
    4.0312  -10.9911    0.1970 H   0  0  0  0  0  0  0  0  0  0  0  0
    4.1287  -12.5322    1.1994 H   0  0  0  0  0  0  0  0  0  0  0  0
    6.3547  -11.9763    0.6111 H   0  0  0  0  0  0  0  0  0  0  0  0
    5.2650  -11.7620   -2.0530 H   0  0  0  0  0  0  0  0  0  0  0  0
    6.0792  -13.7552    1.6948 H   0  0  0  0  0  0  0  0  0  0  0  0
    5.4099  -15.2632    0.9844 H   0  0  0  0  0  0  0  0  0  0  0  0
    7.1839  -14.9807    0.9844 H   0  0  0  0  0  0  0  0  0  0  0  0
    5.1231  -13.6128   -2.1433 H   0  0  0  0  0  0  0  0  0  0  0  0
    7.2065  -13.3515   -2.2622 H   0  0  0  0  0  0  0  0  0  0  0  0
    8.5103  -12.2770   -0.6383 H   0  0  0  0  0  0  0  0  0  0  0  0
    8.7579  -13.8958    0.2493 H   0  0  0  0  0  0  0  0  0  0  0  0
   10.2826  -14.6521   -1.3707 H   0  0  0  0  0  0  0  0  0  0  0  0
   12.5921  -13.0642   -1.9445 H   0  0  0  0  0  0  0  0  0  0  0  0
   11.5346  -11.6854   -2.3649 H   0  0  0  0  0  0  0  0  0  0  0  0
   12.6935  -11.5072    0.3610 H   0  0  0  0  0  0  0  0  0  0  0  0
   13.9263  -11.5190   -0.9454 H   0  0  0  0  0  0  0  0  0  0  0  0
   12.6296  -10.2760   -0.9454 H   0  0  0  0  0  0  0  0  0  0  0  0
    8.2956  -13.3315   -3.7526 H   0  0  0  0  0  0  0  0  0  0  0  0
    9.2984  -14.1705   -5.7953 H   0  0  0  0  0  0  0  0  0  0  0  0
   10.8020  -13.5951   -5.0618 H   0  0  0  0  0  0  0  0  0  0  0  0
   10.4405  -16.2864   -5.7304 H   0  0  0  0  0  0  0  0  0  0  0  0
   11.8731  -15.8236   -2.1773 H   0  0  0  0  0  0  0  0  0  0  0  0
   14.3945  -15.1838   -2.7953 H   0  0  0  0  0  0  0  0  0  0  0  0
   14.2495  -16.9363   -2.7242 H   0  0  0  0  0  0  0  0  0  0  0  0
    9.1896  -18.1346   -2.7369 H   0  0  0  0  0  0  0  0  0  0  0  0
    8.2951  -18.0506   -4.2923 H   0  0  0  0  0  0  0  0  0  0  0  0
   10.0789  -18.2620   -4.2923 H   0  0  0  0  0  0  0  0  0  0  0  0
    7.8843  -16.0113    0.0309 H   0  0  0  0  0  0  0  0  0  0  0  0
    7.4694  -17.3593   -1.0815 H   0  0  0  0  0  0  0  0  0  0  0  0
    9.1296  -16.6735   -1.0815 H   0  0  0  0  0  0  0  0  0  0  0  0
  1  2  1  0
  2  3  2  0
  3  4  1  0
  3  5  1  0
  5  6  2  0
  5  7  1  0
  7  8  1  0
  8  9  1  0
  9 10  1  0
 10 11  1  0
 11 12  1  0
 12 13  1  1
 12 14  1  0
 14 15  1  0
 15 16  1  0
 16 17  1  0
 16 18  2  0
 14 19  1  0
 19 20  1  0
 20 21  1  0
 20 22  1  0
 22 23  1  1
 22 24  1  0
 22 25  1  0
 25 26  1  0
 26 27  1  0
 27 28  1  0
 28 29  1  0
 29 30  1  0
 27 31  1  0
 31 32  1  0
 32 33  1  0
 33 34  1  0
 34 35  1  0
 35 36  2  0
 36 37  1  0
 37 38  1  0
 38 39  1  0
 39 40  2  0
 34 41  1  0
 41 42  1  0
 41 43  2  0
 43 44  1  0
 44 45  1  1
 44  8  1  0
 24  9  1  0
 44 25  1  0
 24 12  1  0
 43 32  1  0
 39 35  1  0
  1 46  1  0
  1 47  1  0
  1 48  1  0
  2 49  1  0
  4 50  1  0
  4 51  1  0
  4 52  1  0
  8 53  1  6
  9 54  1  1
 11 55  1  0
 11 56  1  0
 13 57  1  0
 13 58  1  0
 13 59  1  0
 14 60  1  1
 17 61  1  0
 17 62  1  0
 17 63  1  0
 19 64  1  0
 19 65  1  0
 20 66  1  1
 21 67  1  0
 23 68  1  0
 23 69  1  0
 23 70  1  0
 24 71  1  6
 25 72  1  6
 26 73  1  0
 26 74  1  0
 27 75  1  6
 29 76  1  0
 29 77  1  0
 30 78  1  0
 30 79  1  0
 30 80  1  0
 32 81  1  6
 33 82  1  0
 33 83  1  0
 34 84  1  6
 36 85  1  0
 37 86  1  0
 37 87  1  0
 42 88  1  0
 42 89  1  0
 42 90  1  0
 45 91  1  0
 45 92  1  0
 45 93  1  0
M  END
>  <meeko>  (5) 
{"is_sidechain": [false], "free_energy": -6.439, "intermolecular_energy": -11.233, "internal_energy": -2.565}

$$$$
LIB_XKOPCBHBBCCNEY__M_PUB_ALL__e8__s20260927
     RDKit          3D

 93 98  0  0  0  0  0  0  0  0999 V2000
    2.3720  -10.2830   -3.5710 C   0  0  0  0  0  0  0  0  0  0  0  0
    3.7240  -10.8210   -3.2290 C   0  0  0  0  0  0  0  0  0  0  0  0
    4.4760  -11.6780   -3.9490 C   0  0  0  0  0  0  0  0  0  0  0  0
    4.1250  -12.2500   -5.2910 C   0  0  0  0  0  0  0  0  0  0  0  0
    5.7940  -12.0710   -3.3560 C   0  0  0  0  0  0  0  0  0  0  0  0
    6.6090  -11.2870   -2.8960 O   0  0  0  0  0  0  0  0  0  0  0  0
    5.9030  -13.4200   -3.3780 O   0  0  0  0  0  0  0  0  0  0  0  0
    6.6490  -14.0510   -2.3050 C   0  0  2  0  0  0  0  0  0  0  0  0
    7.8800  -14.7240   -2.9330 C   0  0  2  0  0  0  0  0  0  0  0  0
    8.6930  -13.8460   -3.7470 O   0  0  0  0  0  0  0  0  0  0  0  0
    9.0120  -14.5360   -4.9930 C   0  0  0  0  0  0  0  0  0  0  0  0
    8.6730  -16.0230   -4.7700 C   0  0  2  0  0  0  0  0  0  0  0  0
    9.9010  -16.6830   -4.1090 C   0  0  0  0  0  0  0  0  0  0  0  0
    8.2350  -16.8510   -5.9980 C   0  0  2  0  0  0  0  0  0  0  0  0
    7.3760  -16.0460   -6.8320 O   0  0  0  0  0  0  0  0  0  0  0  0
    7.5790  -16.1130   -8.1730 C   0  0  0  0  0  0  0  0  0  0  0  0
    7.9970  -14.7710   -8.6910 C   0  0  0  0  0  0  0  0  0  0  0  0
    7.4430  -17.1120   -8.8640 O   0  0  0  0  0  0  0  0  0  0  0  0
    7.4760  -18.1330   -5.5390 C   0  0  0  0  0  0  0  0  0  0  0  0
    6.3100  -17.8920   -4.5390 C   0  0  2  0  0  0  0  0  0  0  0  0
    5.2330  -17.2970   -5.2660 O   0  0  0  0  0  0  0  0  0  0  0  0
    6.7000  -16.9960   -3.3000 C   0  0  1  0  0  0  0  0  0  0  0  0
    7.5660  -17.8570   -2.3520 C   0  0  0  0  0  0  0  0  0  0  0  0
    7.4520  -15.8030   -3.8920 C   0  0  1  0  0  0  0  0  0  0  0  0
    5.4220  -16.3520   -2.5680 C   0  0  1  0  0  0  0  0  0  0  0  0
    4.4580  -17.4210   -1.9900 C   0  0  0  0  0  0  0  0  0  0  0  0
    3.2980  -16.9540   -1.1020 C   0  0  2  0  0  0  0  0  0  0  0  0
    2.4990  -18.1210   -0.8430 O   0  0  0  0  0  0  0  0  0  0  0  0
    2.1250  -18.2300    0.5260 C   0  0  0  0  0  0  0  0  0  0  0  0
    3.1610  -19.0790    1.2370 C   0  0  0  0  0  0  0  0  0  0  0  0
    2.5050  -15.9580   -1.7190 O   0  0  0  0  0  0  0  0  0  0  0  0
    3.1290  -14.7190   -2.0220 C   0  0  1  0  0  0  0  0  0  0  0  0
    2.1680  -13.5820   -1.6730 C   0  0  0  0  0  0  0  0  0  0  0  0
    2.6460  -13.0340   -0.3260 C   0  0  1  0  0  0  0  0  0  0  0  0
    1.8620  -13.5640    0.8310 C   0  0  0  0  0  0  0  0  0  0  0  0
    2.0850  -14.5370    1.7140 C   0  0  0  0  0  0  0  0  0  0  0  0
    0.9850  -14.6340    2.6880 C   0  0  0  0  0  0  0  0  0  0  0  0
    0.0790  -13.6070    2.2990 O   0  0  0  0  0  0  0  0  0  0  0  0
    0.5800  -12.9540    1.2150 C   0  0  0  0  0  0  0  0  0  0  0  0
    0.0510  -12.0110    0.6550 O   0  0  0  0  0  0  0  0  0  0  0  0
    4.1120  -13.4320   -0.3210 C   0  0  0  0  0  0  0  0  0  0  0  0
    5.0250  -12.6720    0.5870 C   0  0  0  0  0  0  0  0  0  0  0  0
    4.3810  -14.3980   -1.2280 C   0  0  0  0  0  0  0  0  0  0  0  0
    5.7100  -15.1080   -1.5900 C   0  0  2  0  0  0  0  0  0  0  0  0
    6.3890  -15.6080   -0.2910 C   0  0  0  0  0  0  0  0  0  0  0  0
    1.8199  -10.0633   -2.6453 H   0  0  0  0  0  0  0  0  0  0  0  0
    2.4827   -9.3604   -4.1597 H   0  0  0  0  0  0  0  0  0  0  0  0
    1.8185  -11.0294   -4.1597 H   0  0  0  0  0  0  0  0  0  0  0  0
    4.1565  -10.4773   -2.2778 H   0  0  0  0  0  0  0  0  0  0  0  0
    3.5541  -13.1804   -5.1551 H   0  0  0  0  0  0  0  0  0  0  0  0
    3.5163  -11.5247   -5.8509 H   0  0  0  0  0  0  0  0  0  0  0  0
    5.0473  -12.4642   -5.8509 H   0  0  0  0  0  0  0  0  0  0  0  0
    6.9808  -13.3239   -1.5492 H   0  0  0  0  0  0  0  0  0  0  0  0
    8.4537  -15.0835   -2.0660 H   0  0  0  0  0  0  0  0  0  0  0  0
    8.4092  -14.1285   -5.8180 H   0  0  0  0  0  0  0  0  0  0  0  0
   10.0712  -14.4055   -5.2597 H   0  0  0  0  0  0  0  0  0  0  0  0
    9.8015  -16.6295   -3.0148 H   0  0  0  0  0  0  0  0  0  0  0  0
    9.9633  -17.7361   -4.4205 H   0  0  0  0  0  0  0  0  0  0  0  0
   10.8137  -16.1539   -4.4205 H   0  0  0  0  0  0  0  0  0  0  0  0
    9.1255  -17.1540   -6.5683 H   0  0  0  0  0  0  0  0  0  0  0  0
    8.2060  -14.1001   -7.8447 H   0  0  0  0  0  0  0  0  0  0  0  0
    8.9035  -14.8808   -9.3043 H   0  0  0  0  0  0  0  0  0  0  0  0
    7.1885  -14.3466   -9.3043 H   0  0  0  0  0  0  0  0  0  0  0  0
    7.0614  -18.6211   -6.4333 H   0  0  0  0  0  0  0  0  0  0  0  0
    8.2140  -18.7484   -5.0035 H   0  0  0  0  0  0  0  0  0  0  0  0
    6.0247  -18.8636   -4.1094 H   0  0  0  0  0  0  0  0  0  0  0  0
    4.4090  -17.7290   -4.9790 H   0  0  0  0  0  0  0  0  0  0  0  0
    7.3204  -17.6128   -1.3079 H   0  0  0  0  0  0  0  0  0  0  0  0
    7.3636  -18.9223   -2.5368 H   0  0  0  0  0  0  0  0  0  0  0  0
    8.6301  -17.6485   -2.5368 H   0  0  0  0  0  0  0  0  0  0  0  0
    6.6041  -15.5068   -4.5271 H   0  0  0  0  0  0  0  0  0  0  0  0
    4.8736  -15.8600   -3.3849 H   0  0  0  0  0  0  0  0  0  0  0  0
    4.0183  -17.9577   -2.8436 H   0  0  0  0  0  0  0  0  0  0  0  0
    5.0899  -18.0188   -1.3167 H   0  0  0  0  0  0  0  0  0  0  0  0
    3.6945  -16.4999   -0.1819 H   0  0  0  0  0  0  0  0  0  0  0  0
    2.0875  -17.2297    0.9820 H   0  0  0  0  0  0  0  0  0  0  0  0
    1.1315  -18.6943    0.6114 H   0  0  0  0  0  0  0  0  0  0  0  0
    3.0354  -18.9761    2.3249 H   0  0  0  0  0  0  0  0  0  0  0  0
    3.0303  -20.1331    0.9509 H   0  0  0  0  0  0  0  0  0  0  0  0
    4.1688  -18.7437    0.9509 H   0  0  0  0  0  0  0  0  0  0  0  0
    3.3962  -14.8100   -3.0852 H   0  0  0  0  0  0  0  0  0  0  0  0
    2.2075  -12.7967   -2.4423 H   0  0  0  0  0  0  0  0  0  0  0  0
    1.1264  -13.9321   -1.6222 H   0  0  0  0  0  0  0  0  0  0  0  0
    2.5032  -11.9493   -0.2118 H   0  0  0  0  0  0  0  0  0  0  0  0
    2.9750  -15.1835    1.7150 H   0  0  0  0  0  0  0  0  0  0  0  0
    0.5021  -15.6208    2.6334 H   0  0  0  0  0  0  0  0  0  0  0  0
    1.3311  -14.5182    3.7257 H   0  0  0  0  0  0  0  0  0  0  0  0
    4.7648  -12.8886    1.6336 H   0  0  0  0  0  0  0  0  0  0  0  0
    6.0655  -12.9744    0.3977 H   0  0  0  0  0  0  0  0  0  0  0  0
    4.9163  -11.5939    0.3977 H   0  0  0  0  0  0  0  0  0  0  0  0
    5.8493  -15.2106    0.5812 H   0  0  0  0  0  0  0  0  0  0  0  0
    6.3674  -16.7075   -0.2658 H   0  0  0  0  0  0  0  0  0  0  0  0
    7.4326  -15.2611   -0.2658 H   0  0  0  0  0  0  0  0  0  0  0  0
  1  2  1  0
  2  3  2  0
  3  4  1  0
  3  5  1  0
  5  6  2  0
  5  7  1  0
  7  8  1  0
  8  9  1  0
  9 10  1  0
 10 11  1  0
 11 12  1  0
 12 13  1  1
 12 14  1  0
 14 15  1  0
 15 16  1  0
 16 17  1  0
 16 18  2  0
 14 19  1  0
 19 20  1  0
 20 21  1  0
 20 22  1  0
 22 23  1  1
 22 24  1  0
 22 25  1  0
 25 26  1  0
 26 27  1  0
 27 28  1  0
 28 29  1  0
 29 30  1  0
 27 31  1  0
 31 32  1  0
 32 33  1  0
 33 34  1  0
 34 35  1  0
 35 36  2  0
 36 37  1  0
 37 38  1  0
 38 39  1  0
 39 40  2  0
 34 41  1  0
 41 42  1  0
 41 43  2  0
 43 44  1  0
 44 45  1  1
 44  8  1  0
 24  9  1  0
 44 25  1  0
 24 12  1  0
 43 32  1  0
 39 35  1  0
  1 46  1  0
  1 47  1  0
  1 48  1  0
  2 49  1  0
  4 50  1  0
  4 51  1  0
  4 52  1  0
  8 53  1  1
  9 54  1  1
 11 55  1  0
 11 56  1  0
 13 57  1  0
 13 58  1  0
 13 59  1  0
 14 60  1  6
 17 61  1  0
 17 62  1  0
 17 63  1  0
 19 64  1  0
 19 65  1  0
 20 66  1  1
 21 67  1  0
 23 68  1  0
 23 69  1  0
 23 70  1  0
 24 71  1  6
 25 72  1  6
 26 73  1  0
 26 74  1  0
 27 75  1  1
 29 76  1  0
 29 77  1  0
 30 78  1  0
 30 79  1  0
 30 80  1  0
 32 81  1  6
 33 82  1  0
 33 83  1  0
 34 84  1  6
 36 85  1  0
 37 86  1  0
 37 87  1  0
 42 88  1  0
 42 89  1  0
 42 90  1  0
 45 91  1  0
 45 92  1  0
 45 93  1  0
M  END
>  <meeko>  (6) 
{"is_sidechain": [false], "free_energy": -6.412, "intermolecular_energy": -11.193, "internal_energy": -2.557}

$$$$
LIB_XKOPCBHBBCCNEY__M_PUB_ALL__e8__s20260927
     RDKit          3D

 93 98  0  0  0  0  0  0  0  0999 V2000
    7.2670  -11.9990    0.7980 C   0  0  0  0  0  0  0  0  0  0  0  0
    5.7870  -11.8740    0.6270 C   0  0  0  0  0  0  0  0  0  0  0  0
    4.8240  -12.6150    1.2130 C   0  0  0  0  0  0  0  0  0  0  0  0
    5.0380  -13.7140    2.2100 C   0  0  0  0  0  0  0  0  0  0  0  0
    3.4110  -12.2850    0.8430 C   0  0  0  0  0  0  0  0  0  0  0  0
    3.0060  -11.1630    0.5820 O   0  0  0  0  0  0  0  0  0  0  0  0
    2.6850  -13.4270    0.8090 O   0  0  0  0  0  0  0  0  0  0  0  0
    1.6650  -13.5440   -0.2160 C   0  0  2  0  0  0  0  0  0  0  0  0
    0.3070  -13.6510    0.4960 C   0  0  2  0  0  0  0  0  0  0  0  0
    0.0400  -12.5890    1.4410 O   0  0  0  0  0  0  0  0  0  0  0  0
   -0.4750  -13.1850    2.6700 C   0  0  0  0  0  0  0  0  0  0  0  0
   -0.8690  -14.6340    2.3240 C   0  0  2  0  0  0  0  0  0  0  0  0
   -2.3030  -14.6010    1.7570 C   0  0  0  0  0  0  0  0  0  0  0  0
   -0.7770  -15.6900    3.4480 C   0  0  2  0  0  0  0  0  0  0  0  0
    0.4080  -15.4460    4.2340 O   0  0  0  0  0  0  0  0  0  0  0  0
    0.5640  -16.1870    5.3610 C   0  0  0  0  0  0  0  0  0  0  0  0
   -0.5250  -15.8640    6.3370 C   0  0  0  0  0  0  0  0  0  0  0  0
    1.4580  -16.9970    5.5610 O   0  0  0  0  0  0  0  0  0  0  0  0
   -0.7190  -17.1230    2.8360 C   0  0  0  0  0  0  0  0  0  0  0  0
    0.3600  -17.3320    1.7350 C   0  0  2  0  0  0  0  0  0  0  0  0
    1.6350  -17.3600    2.3800 O   0  0  0  0  0  0  0  0  0  0  0  0
    0.3410  -16.2360    0.6000 C   0  0  1  0  0  0  0  0  0  0  0  0
   -0.8830  -16.5150   -0.3020 C   0  0  0  0  0  0  0  0  0  0  0  0
    0.2570  -14.8990    1.3380 C   0  0  1  0  0  0  0  0  0  0  0  0
    1.7210  -16.1640   -0.2210 C   0  0  1  0  0  0  0  0  0  0  0  0
    2.0500  -17.4870   -0.9600 C   0  0  0  0  0  0  0  0  0  0  0  0
    3.4780  -17.9770   -0.9190 C   0  0  2  0  0  0  0  0  0  0  0  0
    3.8050  -18.1420    0.4710 O   0  0  0  0  0  0  0  0  0  0  0  0
    4.6160  -19.2890    0.7050 C   0  0  0  0  0  0  0  0  0  0  0  0
    5.9520  -18.8240    1.2500 C   0  0  0  0  0  0  0  0  0  0  0  0
    4.3810  -17.0690   -1.5200 O   0  0  0  0  0  0  0  0  0  0  0  0
    4.4440  -15.7570   -0.9810 C   0  0  1  0  0  0  0  0  0  0  0  0
    5.8060  -15.1480   -1.3190 C   0  0  0  0  0  0  0  0  0  0  0  0
    5.5590  -14.2140   -2.5070 C   0  0  1  0  0  0  0  0  0  0  0  0
    5.9170  -14.8330   -3.8190 C   0  0  0  0  0  0  0  0  0  0  0  0
    5.2200  -15.5230   -4.7230 C   0  0  0  0  0  0  0  0  0  0  0  0
    6.0580  -15.8870   -5.8770 C   0  0  0  0  0  0  0  0  0  0  0  0
    7.3340  -15.3340   -5.5740 O   0  0  0  0  0  0  0  0  0  0  0  0
    7.2730  -14.6970   -4.3720 C   0  0  0  0  0  0  0  0  0  0  0  0
    8.1950  -14.1060   -3.8410 O   0  0  0  0  0  0  0  0  0  0  0  0
    4.0840  -13.8850   -2.3530 C   0  0  0  0  0  0  0  0  0  0  0  0
    3.5860  -12.6440   -3.0220 C   0  0  0  0  0  0  0  0  0  0  0  0
    3.4480  -14.7610   -1.5440 C   0  0  0  0  0  0  0  0  0  0  0  0
    1.9680  -14.8310   -1.0880 C   0  0  2  0  0  0  0  0  0  0  0  0
    1.0520  -14.8390   -2.3360 C   0  0  0  0  0  0  0  0  0  0  0  0
    7.5118  -12.0197    1.8702 H   0  0  0  0  0  0  0  0  0  0  0  0
    7.6135  -12.9296    0.3248 H   0  0  0  0  0  0  0  0  0  0  0  0
    7.7647  -11.1397    0.3248 H   0  0  0  0  0  0  0  0  0  0  0  0
    5.4427  -11.0847   -0.0574 H   0  0  0  0  0  0  0  0  0  0  0  0
    4.9585  -13.3058    3.2284 H   0  0  0  0  0  0  0  0  0  0  0  0
    4.2747  -14.4929    2.0666 H   0  0  0  0  0  0  0  0  0  0  0  0
    6.0378  -14.1496    2.0666 H   0  0  0  0  0  0  0  0  0  0  0  0
    1.6532  -12.6735   -0.8884 H   0  0  0  0  0  0  0  0  0  0  0  0
   -0.4235  -13.6239   -0.3260 H   0  0  0  0  0  0  0  0  0  0  0  0
    0.3012  -13.1784    3.4495 H   0  0  0  0  0  0  0  0  0  0  0  0
   -1.3371  -12.6201    3.0543 H   0  0  0  0  0  0  0  0  0  0  0  0
   -3.0250  -14.5844    2.5867 H   0  0  0  0  0  0  0  0  0  0  0  0
   -2.4327  -13.6996    1.1400 H   0  0  0  0  0  0  0  0  0  0  0  0
   -2.4740  -15.4954    1.1400 H   0  0  0  0  0  0  0  0  0  0  0  0
   -1.6677  -15.6160    4.0892 H   0  0  0  0  0  0  0  0  0  0  0  0
   -0.1436  -15.9771    7.3626 H   0  0  0  0  0  0  0  0  0  0  0  0
   -0.8602  -14.8278    6.1827 H   0  0  0  0  0  0  0  0  0  0  0  0
   -1.3710  -16.5499    6.1827 H   0  0  0  0  0  0  0  0  0  0  0  0
   -0.5148  -17.8328    3.6512 H   0  0  0  0  0  0  0  0  0  0  0  0
   -1.6901  -17.2838    2.3449 H   0  0  0  0  0  0  0  0  0  0  0  0
    0.1417  -18.2793    1.2203 H   0  0  0  0  0  0  0  0  0  0  0  0
    2.0460  -18.2200    2.1810 H   0  0  0  0  0  0  0  0  0  0  0  0
   -1.7633  -16.7157    0.3263 H   0  0  0  0  0  0  0  0  0  0  0  0
   -1.0779  -15.6382   -0.9371 H   0  0  0  0  0  0  0  0  0  0  0  0
   -0.6787  -17.3896   -0.9371 H   0  0  0  0  0  0  0  0  0  0  0  0
    1.1863  -15.0822    1.8973 H   0  0  0  0  0  0  0  0  0  0  0  0
    2.4860  -16.0560    0.5621 H   0  0  0  0  0  0  0  0  0  0  0  0
    1.4197  -18.2743   -0.5208 H   0  0  0  0  0  0  0  0  0  0  0  0
    1.8616  -17.2672   -2.0212 H   0  0  0  0  0  0  0  0  0  0  0  0
    3.5658  -18.9152   -1.4864 H   0  0  0  0  0  0  0  0  0  0  0  0
    4.1254  -19.9486    1.4359 H   0  0  0  0  0  0  0  0  0  0  0  0
    4.7622  -19.8473   -0.2315 H   0  0  0  0  0  0  0  0  0  0  0  0
    5.9230  -18.8341    2.3496 H   0  0  0  0  0  0  0  0  0  0  0  0
    6.7464  -19.4985    0.8979 H   0  0  0  0  0  0  0  0  0  0  0  0
    6.1560  -17.8020    0.8979 H   0  0  0  0  0  0  0  0  0  0  0  0
    4.2354  -15.9009    0.0894 H   0  0  0  0  0  0  0  0  0  0  0  0
    6.1966  -14.5817   -0.4606 H   0  0  0  0  0  0  0  0  0  0  0  0
    6.5488  -15.9229   -1.5594 H   0  0  0  0  0  0  0  0  0  0  0  0
    6.1933  -13.3153   -2.5061 H   0  0  0  0  0  0  0  0  0  0  0  0
    4.1569  -15.7859   -4.6195 H   0  0  0  0  0  0  0  0  0  0  0  0
    6.1222  -16.9800   -5.9825 H   0  0  0  0  0  0  0  0  0  0  0  0
    5.6515  -15.5097   -6.8270 H   0  0  0  0  0  0  0  0  0  0  0  0
    3.2911  -11.9090   -2.2586 H   0  0  0  0  0  0  0  0  0  0  0  0
    4.3838  -12.2205   -3.6498 H   0  0  0  0  0  0  0  0  0  0  0  0
    2.7167  -12.8895   -3.6498 H   0  0  0  0  0  0  0  0  0  0  0  0
   -0.0010  -14.8482   -2.0179 H   0  0  0  0  0  0  0  0  0  0  0  0
    1.2452  -13.9391   -2.9384 H   0  0  0  0  0  0  0  0  0  0  0  0
    1.2609  -15.7354   -2.9384 H   0  0  0  0  0  0  0  0  0  0  0  0
  1  2  1  0
  2  3  2  0
  3  4  1  0
  3  5  1  0
  5  6  2  0
  5  7  1  0
  7  8  1  0
  8  9  1  0
  9 10  1  0
 10 11  1  0
 11 12  1  0
 12 13  1  6
 12 14  1  0
 14 15  1  0
 15 16  1  0
 16 17  1  0
 16 18  2  0
 14 19  1  0
 19 20  1  0
 20 21  1  0
 20 22  1  0
 22 23  1  6
 22 24  1  0
 22 25  1  0
 25 26  1  0
 26 27  1  0
 27 28  1  0
 28 29  1  0
 29 30  1  0
 27 31  1  0
 31 32  1  0
 32 33  1  0
 33 34  1  0
 34 35  1  0
 35 36  2  0
 36 37  1  0
 37 38  1  0
 38 39  1  0
 39 40  2  0
 34 41  1  0
 41 42  1  0
 41 43  2  0
 43 44  1  0
 44 45  1  6
 44  8  1  0
 24  9  1  0
 44 25  1  0
 24 12  1  0
 43 32  1  0
 39 35  1  0
  1 46  1  0
  1 47  1  0
  1 48  1  0
  2 49  1  0
  4 50  1  0
  4 51  1  0
  4 52  1  0
  8 53  1  6
  9 54  1  6
 11 55  1  0
 11 56  1  0
 13 57  1  0
 13 58  1  0
 13 59  1  0
 14 60  1  1
 17 61  1  0
 17 62  1  0
 17 63  1  0
 19 64  1  0
 19 65  1  0
 20 66  1  6
 21 67  1  0
 23 68  1  0
 23 69  1  0
 23 70  1  0
 24 71  1  1
 25 72  1  1
 26 73  1  0
 26 74  1  0
 27 75  1  6
 29 76  1  0
 29 77  1  0
 30 78  1  0
 30 79  1  0
 30 80  1  0
 32 81  1  1
 33 82  1  0
 33 83  1  0
 34 84  1  1
 36 85  1  0
 37 86  1  0
 37 87  1  0
 42 88  1  0
 42 89  1  0
 42 90  1  0
 45 91  1  0
 45 92  1  0
 45 93  1  0
M  END
>  <meeko>  (7) 
{"is_sidechain": [false], "free_energy": -6.365, "intermolecular_energy": -9.858, "internal_energy": -3.811}

$$$$
LIB_XKOPCBHBBCCNEY__M_PUB_ALL__e8__s20260927
     RDKit          3D

 93 98  0  0  0  0  0  0  0  0999 V2000
   11.7970  -12.2230   -1.3110 C   0  0  0  0  0  0  0  0  0  0  0  0
   11.5980  -12.5310   -2.7600 C   0  0  0  0  0  0  0  0  0  0  0  0
   11.8460  -13.6930   -3.3980 C   0  0  0  0  0  0  0  0  0  0  0  0
   12.3450  -14.9590   -2.7660 C   0  0  0  0  0  0  0  0  0  0  0  0
   11.5720  -13.7190   -4.8700 C   0  0  0  0  0  0  0  0  0  0  0  0
   12.4320  -13.6880   -5.7360 O   0  0  0  0  0  0  0  0  0  0  0  0
   10.2370  -13.8240   -5.0680 O   0  0  0  0  0  0  0  0  0  0  0  0
    9.6090  -15.0930   -4.7530 C   0  0  2  0  0  0  0  0  0  0  0  0
    9.7580  -16.0000   -5.9860 C   0  0  2  0  0  0  0  0  0  0  0  0
   11.1150  -16.1430   -6.4640 O   0  0  0  0  0  0  0  0  0  0  0  0
   11.1130  -15.9790   -7.9150 C   0  0  0  0  0  0  0  0  0  0  0  0
    9.6450  -16.0930   -8.3670 C   0  0  2  0  0  0  0  0  0  0  0  0
    9.3330  -17.5930   -8.5520 C   0  0  0  0  0  0  0  0  0  0  0  0
    9.2200  -15.3140   -9.6310 C   0  0  2  0  0  0  0  0  0  0  0  0
    9.8630  -14.0220   -9.6310 O   0  0  0  0  0  0  0  0  0  0  0  0
   10.5930  -13.6950  -10.7280 C   0  0  0  0  0  0  0  0  0  0  0  0
    9.7180  -13.0180  -11.7380 C   0  0  0  0  0  0  0  0  0  0  0  0
   11.7860  -13.9170  -10.8810 O   0  0  0  0  0  0  0  0  0  0  0  0
    7.6720  -15.1330   -9.6580 C   0  0  0  0  0  0  0  0  0  0  0  0
    7.0500  -14.5440   -8.3600 C   0  0  2  0  0  0  0  0  0  0  0  0
    7.3910  -13.1570   -8.3080 O   0  0  0  0  0  0  0  0  0  0  0  0
    7.5090  -15.2740   -7.0380 C   0  0  1  0  0  0  0  0  0  0  0  0
    6.7800  -16.6350   -6.9770 C   0  0  0  0  0  0  0  0  0  0  0  0
    9.0270  -15.4050   -7.1610 C   0  0  1  0  0  0  0  0  0  0  0  0
    7.2800  -14.3810   -5.7210 C   0  0  1  0  0  0  0  0  0  0  0  0
    5.7870  -14.0370   -5.4800 C   0  0  0  0  0  0  0  0  0  0  0  0
    5.4380  -13.2570   -4.2010 C   0  0  2  0  0  0  0  0  0  0  0  0
    4.0620  -12.8720   -4.3580 O   0  0  0  0  0  0  0  0  0  0  0  0
    3.7630  -11.6470   -3.6980 C   0  0  0  0  0  0  0  0  0  0  0  0
    3.0660  -10.7320   -4.6860 C   0  0  0  0  0  0  0  0  0  0  0  0
    6.2360  -12.1090   -3.9840 O   0  0  0  0  0  0  0  0  0  0  0  0
    7.6230  -12.3100   -3.7530 C   0  0  1  0  0  0  0  0  0  0  0  0
    8.0620  -11.4320   -2.5800 C   0  0  0  0  0  0  0  0  0  0  0  0
    8.1360  -12.3660   -1.3690 C   0  0  1  0  0  0  0  0  0  0  0  0
    6.9230  -12.2910   -0.5000 C   0  0  0  0  0  0  0  0  0  0  0  0
    5.6220  -12.1600   -0.7590 C   0  0  0  0  0  0  0  0  0  0  0  0
    4.8280  -12.1680    0.4820 C   0  0  0  0  0  0  0  0  0  0  0  0
    5.7940  -12.3280    1.5160 O   0  0  0  0  0  0  0  0  0  0  0  0
    7.0340  -12.4150    0.9620 C   0  0  0  0  0  0  0  0  0  0  0  0
    8.0710  -12.5750    1.5790 O   0  0  0  0  0  0  0  0  0  0  0  0
    8.3520  -13.7200   -2.0230 C   0  0  0  0  0  0  0  0  0  0  0  0
    8.9470  -14.8010   -1.1780 C   0  0  0  0  0  0  0  0  0  0  0  0
    8.0280  -13.7100   -3.3350 C   0  0  0  0  0  0  0  0  0  0  0  0
    8.0870  -14.8320   -4.4040 C   0  0  2  0  0  0  0  0  0  0  0  0
    7.4600  -16.1220   -3.8200 C   0  0  0  0  0  0  0  0  0  0  0  0
   11.3002  -12.9919   -0.7011 H   0  0  0  0  0  0  0  0  0  0  0  0
   12.8730  -12.2126   -1.0828 H   0  0  0  0  0  0  0  0  0  0  0  0
   11.3642  -11.2378   -1.0828 H   0  0  0  0  0  0  0  0  0  0  0  0
   11.2023  -11.7127   -3.3796 H   0  0  0  0  0  0  0  0  0  0  0  0
   12.3068  -14.8620   -1.6710 H   0  0  0  0  0  0  0  0  0  0  0  0
   11.7115  -15.8009   -3.0818 H   0  0  0  0  0  0  0  0  0  0  0  0
   13.3826  -15.1422   -3.0818 H   0  0  0  0  0  0  0  0  0  0  0  0
   10.0776  -15.5816   -3.8860 H   0  0  0  0  0  0  0  0  0  0  0  0
    9.3674  -16.9710   -5.6474 H   0  0  0  0  0  0  0  0  0  0  0  0
   11.5185  -14.9932   -8.1864 H   0  0  0  0  0  0  0  0  0  0  0  0
   11.7390  -16.7412   -8.4019 H   0  0  0  0  0  0  0  0  0  0  0  0
    9.2336  -18.0711   -7.5663 H   0  0  0  0  0  0  0  0  0  0  0  0
    8.3922  -17.7056   -9.1108 H   0  0  0  0  0  0  0  0  0  0  0  0
   10.1509  -18.0714   -9.1108 H   0  0  0  0  0  0  0  0  0  0  0  0
    9.5237  -15.8794  -10.5244 H   0  0  0  0  0  0  0  0  0  0  0  0
    8.9508  -12.4244  -11.2193 H   0  0  0  0  0  0  0  0  0  0  0  0
   10.3299  -12.3559  -12.3682 H   0  0  0  0  0  0  0  0  0  0  0  0
    9.2307  -13.7766  -12.3682 H   0  0  0  0  0  0  0  0  0  0  0  0
    7.4230  -14.4587  -10.4907 H   0  0  0  0  0  0  0  0  0  0  0  0
    7.2491  -16.1426   -9.7675 H   0  0  0  0  0  0  0  0  0  0  0  0
    5.9614  -14.6953   -8.4061 H   0  0  0  0  0  0  0  0  0  0  0  0
    8.2840  -13.0590   -8.6810 H   0  0  0  0  0  0  0  0  0  0  0  0
    6.6263  -16.9219   -5.9262 H   0  0  0  0  0  0  0  0  0  0  0  0
    5.8056  -16.5519   -7.4807 H   0  0  0  0  0  0  0  0  0  0  0  0
    7.3891  -17.4001   -7.4807 H   0  0  0  0  0  0  0  0  0  0  0  0
    9.1712  -14.3187   -7.2565 H   0  0  0  0  0  0  0  0  0  0  0  0
    7.7745  -13.4282   -5.9610 H   0  0  0  0  0  0  0  0  0  0  0  0
    5.4442  -13.4373   -6.3361 H   0  0  0  0  0  0  0  0  0  0  0  0
    5.2897  -15.0108   -5.3602 H   0  0  0  0  0  0  0  0  0  0  0  0
    5.6233  -13.8944   -3.3239 H   0  0  0  0  0  0  0  0  0  0  0  0
    3.1031  -11.8387   -2.8390 H   0  0  0  0  0  0  0  0  0  0  0  0
    4.6884  -11.1770   -3.3337 H   0  0  0  0  0  0  0  0  0  0  0  0
    2.4880   -9.9732   -4.1382 H   0  0  0  0  0  0  0  0  0  0  0  0
    3.8167  -10.2353   -5.3183 H   0  0  0  0  0  0  0  0  0  0  0  0
    2.3877  -11.3238   -5.3183 H   0  0  0  0  0  0  0  0  0  0  0  0
    8.0885  -12.0809   -4.7229 H   0  0  0  0  0  0  0  0  0  0  0  0
    9.0474  -10.9867   -2.7818 H   0  0  0  0  0  0  0  0  0  0  0  0
    7.3614  -10.6012   -2.4100 H   0  0  0  0  0  0  0  0  0  0  0  0
    8.9345  -12.1090   -0.6575 H   0  0  0  0  0  0  0  0  0  0  0  0
    5.1964  -12.0590   -1.7683 H   0  0  0  0  0  0  0  0  0  0  0  0
    4.2822  -11.2205    0.6017 H   0  0  0  0  0  0  0  0  0  0  0  0
    4.0680  -12.9632    0.4898 H   0  0  0  0  0  0  0  0  0  0  0  0
    8.8103  -14.5527   -0.1151 H   0  0  0  0  0  0  0  0  0  0  0  0
    8.4473  -15.7558   -1.3987 H   0  0  0  0  0  0  0  0  0  0  0  0
   10.0210  -14.8896   -1.3987 H   0  0  0  0  0  0  0  0  0  0  0  0
    7.4825  -16.0757   -2.7212 H   0  0  0  0  0  0  0  0  0  0  0  0
    6.4183  -16.2107   -4.1620 H   0  0  0  0  0  0  0  0  0  0  0  0
    8.0338  -16.9959   -4.1620 H   0  0  0  0  0  0  0  0  0  0  0  0
  1  2  1  0
  2  3  2  0
  3  4  1  0
  3  5  1  0
  5  6  2  0
  5  7  1  0
  7  8  1  0
  8  9  1  0
  9 10  1  0
 10 11  1  0
 11 12  1  0
 12 13  1  6
 12 14  1  0
 14 15  1  0
 15 16  1  0
 16 17  1  0
 16 18  2  0
 14 19  1  0
 19 20  1  0
 20 21  1  0
 20 22  1  0
 22 23  1  1
 22 24  1  0
 22 25  1  0
 25 26  1  0
 26 27  1  0
 27 28  1  0
 28 29  1  0
 29 30  1  0
 27 31  1  0
 31 32  1  0
 32 33  1  0
 33 34  1  0
 34 35  1  0
 35 36  2  0
 36 37  1  0
 37 38  1  0
 38 39  1  0
 39 40  2  0
 34 41  1  0
 41 42  1  0
 41 43  2  0
 43 44  1  0
 44 45  1  1
 44  8  1  0
 24  9  1  0
 44 25  1  0
 24 12  1  0
 43 32  1  0
 39 35  1  0
  1 46  1  0
  1 47  1  0
  1 48  1  0
  2 49  1  0
  4 50  1  0
  4 51  1  0
  4 52  1  0
  8 53  1  1
  9 54  1  1
 11 55  1  0
 11 56  1  0
 13 57  1  0
 13 58  1  0
 13 59  1  0
 14 60  1  6
 17 61  1  0
 17 62  1  0
 17 63  1  0
 19 64  1  0
 19 65  1  0
 20 66  1  6
 21 67  1  0
 23 68  1  0
 23 69  1  0
 23 70  1  0
 24 71  1  6
 25 72  1  6
 26 73  1  0
 26 74  1  0
 27 75  1  1
 29 76  1  0
 29 77  1  0
 30 78  1  0
 30 79  1  0
 30 80  1  0
 32 81  1  6
 33 82  1  0
 33 83  1  0
 34 84  1  1
 36 85  1  0
 37 86  1  0
 37 87  1  0
 42 88  1  0
 42 89  1  0
 42 90  1  0
 45 91  1  0
 45 92  1  0
 45 93  1  0
M  END
>  <meeko>  (8) 
{"is_sidechain": [false], "free_energy": -6.322, "intermolecular_energy": -11.507, "internal_energy": -2.089}

$$$$
LIB_XKOPCBHBBCCNEY__M_PUB_ALL__e8__s20260927
     RDKit          3D

 93 98  0  0  0  0  0  0  0  0999 V2000
    0.4590  -14.4650   -5.2140 C   0  0  0  0  0  0  0  0  0  0  0  0
    1.0830  -13.6220   -4.1490 C   0  0  0  0  0  0  0  0  0  0  0  0
    2.3680  -13.2200   -4.0630 C   0  0  0  0  0  0  0  0  0  0  0  0
    3.4510  -13.5030   -5.0600 C   0  0  0  0  0  0  0  0  0  0  0  0
    2.7290  -12.3920   -2.8680 C   0  0  0  0  0  0  0  0  0  0  0  0
    2.2110  -11.3240   -2.5810 O   0  0  0  0  0  0  0  0  0  0  0  0
    3.6800  -13.0390   -2.1550 O   0  0  0  0  0  0  0  0  0  0  0  0
    3.9400  -12.5750   -0.8050 C   0  0  2  0  0  0  0  0  0  0  0  0
    5.4060  -12.1170   -0.7490 C   0  0  2  0  0  0  0  0  0  0  0  0
    5.7710  -11.1500   -1.7600 O   0  0  0  0  0  0  0  0  0  0  0  0
    7.0390  -11.5600   -2.3550 C   0  0  0  0  0  0  0  0  0  0  0  0
    7.6390  -12.6270   -1.4170 C   0  0  2  0  0  0  0  0  0  0  0  0
    8.4160  -11.8860   -0.3100 C   0  0  0  0  0  0  0  0  0  0  0  0
    8.5390  -13.7120   -2.0470 C   0  0  2  0  0  0  0  0  0  0  0  0
    7.9800  -14.1160   -3.3150 O   0  0  0  0  0  0  0  0  0  0  0  0
    8.8330  -14.1970   -4.3680 C   0  0  0  0  0  0  0  0  0  0  0  0
   10.0370  -13.3440   -4.1140 C   0  0  0  0  0  0  0  0  0  0  0  0
    8.6540  -14.8610   -5.3790 O   0  0  0  0  0  0  0  0  0  0  0  0
    8.6410  -14.9450   -1.0980 C   0  0  0  0  0  0  0  0  0  0  0  0
    7.2820  -15.5150   -0.6020 C   0  0  2  0  0  0  0  0  0  0  0  0
    6.6680  -16.1880   -1.7030 O   0  0  0  0  0  0  0  0  0  0  0  0
    6.3060  -14.4270   -0.0080 C   0  0  1  0  0  0  0  0  0  0  0  0
    6.8430  -14.0250    1.3840 C   0  0  0  0  0  0  0  0  0  0  0  0
    6.3250  -13.2790   -1.0190 C   0  0  1  0  0  0  0  0  0  0  0  0
    4.7750  -14.9150    0.0290 C   0  0  1  0  0  0  0  0  0  0  0  0
    4.5630  -16.1620    0.9260 C   0  0  0  0  0  0  0  0  0  0  0  0
    3.1150  -16.6670    1.1090 C   0  0  2  0  0  0  0  0  0  0  0  0
    3.2250  -17.9370    1.7730 O   0  0  0  0  0  0  0  0  0  0  0  0
    1.9620  -18.4430    2.1910 C   0  0  0  0  0  0  0  0  0  0  0  0
    1.8220  -18.2020    3.6820 C   0  0  0  0  0  0  0  0  0  0  0  0
    2.4050  -16.8210   -0.1050 O   0  0  0  0  0  0  0  0  0  0  0  0
    2.1380  -15.6490   -0.8600 C   0  0  1  0  0  0  0  0  0  0  0  0
    0.6820  -15.6790   -1.3260 C   0  0  0  0  0  0  0  0  0  0  0  0
   -0.0770  -14.7520   -0.3730 C   0  0  1  0  0  0  0  0  0  0  0  0
   -0.7890  -15.4890    0.7140 C   0  0  0  0  0  0  0  0  0  0  0  0
   -0.5150  -15.7040    2.0010 C   0  0  0  0  0  0  0  0  0  0  0  0
   -1.5820  -16.4870    2.6490 C   0  0  0  0  0  0  0  0  0  0  0  0
   -2.5310  -16.7120    1.6130 O   0  0  0  0  0  0  0  0  0  0  0  0
   -2.0930  -16.1230    0.4660 C   0  0  0  0  0  0  0  0  0  0  0  0
   -2.6890  -16.1190   -0.5960 O   0  0  0  0  0  0  0  0  0  0  0  0
    1.0240  -13.8270    0.1170 C   0  0  0  0  0  0  0  0  0  0  0  0
    0.6080  -12.5050    0.6780 C   0  0  0  0  0  0  0  0  0  0  0  0
    2.2560  -14.3360   -0.1090 C   0  0  0  0  0  0  0  0  0  0  0  0
    3.6630  -13.7650    0.2020 C   0  0  2  0  0  0  0  0  0  0  0  0
    3.6830  -13.2300    1.6550 C   0  0  0  0  0  0  0  0  0  0  0  0
   -0.1337  -15.2657   -4.7475 H   0  0  0  0  0  0  0  0  0  0  0  0
   -0.1962  -13.8405   -5.8391 H   0  0  0  0  0  0  0  0  0  0  0  0
    1.2476  -14.9092   -5.8391 H   0  0  0  0  0  0  0  0  0  0  0  0
    0.4158  -13.2902   -3.3399 H   0  0  0  0  0  0  0  0  0  0  0  0
    4.3833  -13.7466   -4.5294 H   0  0  0  0  0  0  0  0  0  0  0  0
    3.1552  -14.3540   -5.6911 H   0  0  0  0  0  0  0  0  0  0  0  0
    3.6093  -12.6161   -5.6911 H   0  0  0  0  0  0  0  0  0  0  0  0
    3.2882  -11.7345   -0.5246 H   0  0  0  0  0  0  0  0  0  0  0  0
    5.5060  -11.6774    0.2544 H   0  0  0  0  0  0  0  0  0  0  0  0
    6.8694  -11.9855   -3.3551 H   0  0  0  0  0  0  0  0  0  0  0  0
    7.7197  -10.7035   -2.4696 H   0  0  0  0  0  0  0  0  0  0  0  0
    8.0620  -12.2236    0.6752 H   0  0  0  0  0  0  0  0  0  0  0  0
    9.4900  -12.1029   -0.4078 H   0  0  0  0  0  0  0  0  0  0  0  0
    8.2503  -10.8030   -0.4078 H   0  0  0  0  0  0  0  0  0  0  0  0
    9.5479  -13.3017   -2.2011 H   0  0  0  0  0  0  0  0  0  0  0  0
   10.1883  -13.2368   -3.0297 H   0  0  0  0  0  0  0  0  0  0  0  0
   10.9228  -13.8171   -4.5628 H   0  0  0  0  0  0  0  0  0  0  0  0
    9.8844  -12.3514   -4.5628 H   0  0  0  0  0  0  0  0  0  0  0  0
    9.1693  -15.7456   -1.6364 H   0  0  0  0  0  0  0  0  0  0  0  0
    9.1704  -14.5948   -0.1996 H   0  0  0  0  0  0  0  0  0  0  0  0
    7.4862  -16.2008    0.2334 H   0  0  0  0  0  0  0  0  0  0  0  0
    7.3510  -16.7290   -2.1370 H   0  0  0  0  0  0  0  0  0  0  0  0
    6.2225  -14.4895    2.1645 H   0  0  0  0  0  0  0  0  0  0  0  0
    7.8826  -14.3687    1.4892 H   0  0  0  0  0  0  0  0  0  0  0  0
    6.8061  -12.9307    1.4892 H   0  0  0  0  0  0  0  0  0  0  0  0
    5.9803  -13.9207   -1.8433 H   0  0  0  0  0  0  0  0  0  0  0  0
    4.5812  -15.2478   -1.0014 H   0  0  0  0  0  0  0  0  0  0  0  0
    5.1472  -16.9856    0.4897 H   0  0  0  0  0  0  0  0  0  0  0  0
    4.8793  -15.8436    1.9303 H   0  0  0  0  0  0  0  0  0  0  0  0
    2.5429  -15.9238    1.6837 H   0  0  0  0  0  0  0  0  0  0  0  0
    1.1562  -17.9224    1.6528 H   0  0  0  0  0  0  0  0  0  0  0  0
    1.8939  -19.5190    1.9730 H   0  0  0  0  0  0  0  0  0  0  0  0
    2.3002  -19.0252    4.2330 H   0  0  0  0  0  0  0  0  0  0  0  0
    2.3087  -17.2519    3.9471 H   0  0  0  0  0  0  0  0  0  0  0  0
    0.7555  -18.1541    3.9471 H   0  0  0  0  0  0  0  0  0  0  0  0
    2.8957  -15.6712   -1.6571 H   0  0  0  0  0  0  0  0  0  0  0  0
    0.6028  -15.3137   -2.3605 H   0  0  0  0  0  0  0  0  0  0  0  0
    0.2721  -16.6997   -1.3119 H   0  0  0  0  0  0  0  0  0  0  0  0
   -0.9051  -14.2065   -0.8491 H   0  0  0  0  0  0  0  0  0  0  0  0
    0.3898  -15.3438    2.5125 H   0  0  0  0  0  0  0  0  0  0  0  0
   -1.1885  -17.4406    3.0310 H   0  0  0  0  0  0  0  0  0  0  0  0
   -2.0192  -15.9667    3.5139 H   0  0  0  0  0  0  0  0  0  0  0  0
    0.6228  -12.5520    1.7769 H   0  0  0  0  0  0  0  0  0  0  0  0
    1.3043  -11.7256    0.3349 H   0  0  0  0  0  0  0  0  0  0  0  0
   -0.4092  -12.2648    0.3349 H   0  0  0  0  0  0  0  0  0  0  0  0
    3.6514  -14.0758    2.3576 H   0  0  0  0  0  0  0  0  0  0  0  0
    4.6034  -12.6506    1.8198 H   0  0  0  0  0  0  0  0  0  0  0  0
    2.8084  -12.5835    1.8198 H   0  0  0  0  0  0  0  0  0  0  0  0
  1  2  1  0
  2  3  2  0
  3  4  1  0
  3  5  1  0
  5  6  2  0
  5  7  1  0
  7  8  1  0
  8  9  1  0
  9 10  1  0
 10 11  1  0
 11 12  1  0
 12 13  1  1
 12 14  1  0
 14 15  1  0
 15 16  1  0
 16 17  1  0
 16 18  2  0
 14 19  1  0
 19 20  1  0
 20 21  1  0
 20 22  1  0
 22 23  1  1
 22 24  1  0
 22 25  1  0
 25 26  1  0
 26 27  1  0
 27 28  1  0
 28 29  1  0
 29 30  1  0
 27 31  1  0
 31 32  1  0
 32 33  1  0
 33 34  1  0
 34 35  1  0
 35 36  2  0
 36 37  1  0
 37 38  1  0
 38 39  1  0
 39 40  2  0
 34 41  1  0
 41 42  1  0
 41 43  2  0
 43 44  1  0
 44 45  1  1
 44  8  1  0
 24  9  1  0
 44 25  1  0
 24 12  1  0
 43 32  1  0
 39 35  1  0
  1 46  1  0
  1 47  1  0
  1 48  1  0
  2 49  1  0
  4 50  1  0
  4 51  1  0
  4 52  1  0
  8 53  1  1
  9 54  1  1
 11 55  1  0
 11 56  1  0
 13 57  1  0
 13 58  1  0
 13 59  1  0
 14 60  1  6
 17 61  1  0
 17 62  1  0
 17 63  1  0
 19 64  1  0
 19 65  1  0
 20 66  1  1
 21 67  1  0
 23 68  1  0
 23 69  1  0
 23 70  1  0
 24 71  1  6
 25 72  1  6
 26 73  1  0
 26 74  1  0
 27 75  1  1
 29 76  1  0
 29 77  1  0
 30 78  1  0
 30 79  1  0
 30 80  1  0
 32 81  1  6
 33 82  1  0
 33 83  1  0
 34 84  1  6
 36 85  1  0
 37 86  1  0
 37 87  1  0
 42 88  1  0
 42 89  1  0
 42 90  1  0
 45 91  1  0
 45 92  1  0
 45 93  1  0
M  END
>  <meeko>  (9) 
{"is_sidechain": [false], "free_energy": -6.311, "intermolecular_energy": -11.069, "internal_energy": -2.507}

$$$$
