LIB_IWFOIUWPNYEUAI__M_PUB_ALL__e8__s20260927
     RDKit          3D

 73 78  0  0  0  0  0  0  0  0999 V2000
   12.7340  -17.0860   -6.8520 C   0  0  0  0  0  0  0  0  0  0  0  0
   12.2060  -16.1110   -5.8410 C   0  0  0  0  0  0  0  0  0  0  0  0
   12.1860  -16.3890   -4.5250 C   0  0  0  0  0  0  0  0  0  0  0  0
   11.6450  -15.4750   -3.4610 C   0  0  1  0  0  0  0  0  0  0  0  0
   12.7920  -15.0690   -2.7010 O   0  0  0  0  0  0  0  0  0  0  0  0
   12.5650  -14.0370   -1.7400 C   0  0  2  0  0  0  0  0  0  0  0  0
   11.3840  -14.3430   -0.8120 C   0  0  0  0  0  0  0  0  0  0  0  0
   10.1440  -13.7400   -1.5240 C   0  0  1  0  0  0  0  0  0  0  0  0
    9.5710  -12.6940   -0.7090 O   0  0  0  0  0  0  0  0  0  0  0  0
    8.4260  -13.0010   -0.0540 C   0  0  0  0  0  0  0  0  0  0  0  0
    7.9510  -14.1140    0.0970 O   0  0  0  0  0  0  0  0  0  0  0  0
    7.8650  -11.7900    0.5740 C   0  0  0  0  0  0  0  0  0  0  0  0
    7.0740  -10.8800   -0.0160 C   0  0  0  0  0  0  0  0  0  0  0  0
    6.5520  -10.9380   -1.3640 C   0  0  0  0  0  0  0  0  0  0  0  0
    5.3590  -11.4730   -1.6720 C   0  0  0  0  0  0  0  0  0  0  0  0
    4.7910  -11.5810   -3.0630 C   0  0  1  0  0  0  0  0  0  0  0  0
    5.2280  -12.7890   -3.6960 O   0  0  0  0  0  0  0  0  0  0  0  0
    4.0840  -13.3290   -4.3720 C   0  0  2  0  0  0  0  0  0  0  0  0
    4.4500  -13.7120   -5.8130 C   0  0  0  0  0  0  0  0  0  0  0  0
    5.6690  -14.6250   -5.8520 C   0  0  0  0  0  0  0  0  0  0  0  0
    5.5200  -15.9150   -5.0940 C   0  0  0  0  0  0  0  0  0  0  0  0
    6.7840  -14.1890   -6.4700 C   0  0  0  0  0  0  0  0  0  0  0  0
    8.1250  -14.8010   -6.3970 C   0  0  0  0  0  0  0  0  0  0  0  0
    8.5140  -15.8080   -6.9570 O   0  0  0  0  0  0  0  0  0  0  0  0
    8.8110  -14.0820   -5.4710 O   0  0  0  0  0  0  0  0  0  0  0  0
    9.3880  -14.8580   -4.4160 C   0  0  0  0  0  0  0  0  0  0  0  0
   10.7840  -14.2810   -4.0140 C   0  0  2  0  0  0  0  0  0  0  0  0
   11.4830  -13.7360   -5.3030 C   0  0  0  0  0  0  0  0  0  0  0  0
   11.7090  -14.7990   -6.3860 C   0  0  0  0  0  0  0  0  0  0  0  0
   10.6810  -13.1330   -2.8850 C   0  0  1  0  0  0  0  0  0  0  0  0
    9.8950  -11.8800   -3.3010 C   0  0  0  0  0  0  0  0  0  0  0  0
   12.1110  -12.8290   -2.4760 C   0  0  2  0  0  0  0  0  0  0  0  0
   13.0290  -11.7670   -3.0340 C   0  0  0  0  0  0  0  0  0  0  0  0
   12.3400  -11.5910   -1.7880 O   0  0  0  0  0  0  0  0  0  0  0  0
    3.0310  -12.3600   -4.3500 O   0  0  0  0  0  0  0  0  0  0  0  0
    3.2680  -11.6650   -3.1200 C   0  0  2  0  0  0  0  0  0  0  0  0
    2.5720  -10.3170   -3.1360 C   0  0  0  0  0  0  0  0  0  0  0  0
   13.1958  -17.9387   -6.3327 H   0  0  0  0  0  0  0  0  0  0  0  0
   11.9069  -17.4447   -7.4822 H   0  0  0  0  0  0  0  0  0  0  0  0
   13.4864  -16.5893   -7.4822 H   0  0  0  0  0  0  0  0  0  0  0  0
   12.5962  -17.3576   -4.2033 H   0  0  0  0  0  0  0  0  0  0  0  0
   10.9122  -15.9952   -2.8267 H   0  0  0  0  0  0  0  0  0  0  0  0
   13.4978  -13.9261   -1.1676 H   0  0  0  0  0  0  0  0  0  0  0  0
   11.2653  -15.4290   -0.6832 H   0  0  0  0  0  0  0  0  0  0  0  0
   11.5288  -13.9196    0.1929 H   0  0  0  0  0  0  0  0  0  0  0  0
    9.3640  -14.4962   -1.6963 H   0  0  0  0  0  0  0  0  0  0  0  0
    8.1199  -11.6154    1.6297 H   0  0  0  0  0  0  0  0  0  0  0  0
    6.7948  -10.0024    0.5856 H   0  0  0  0  0  0  0  0  0  0  0  0
    7.1635  -10.5226   -2.1786 H   0  0  0  0  0  0  0  0  0  0  0  0
    4.7491  -11.8627   -0.8437 H   0  0  0  0  0  0  0  0  0  0  0  0
    5.1416  -10.6624   -3.5563 H   0  0  0  0  0  0  0  0  0  0  0  0
    3.7436  -14.2408   -3.8595 H   0  0  0  0  0  0  0  0  0  0  0  0
    3.5973  -14.2333   -6.2725 H   0  0  0  0  0  0  0  0  0  0  0  0
    4.6884  -12.7917   -6.3663 H   0  0  0  0  0  0  0  0  0  0  0  0
    5.5437  -15.7102   -4.0135 H   0  0  0  0  0  0  0  0  0  0  0  0
    4.5615  -16.3862   -5.3570 H   0  0  0  0  0  0  0  0  0  0  0  0
    6.3459  -16.5923   -5.3570 H   0  0  0  0  0  0  0  0  0  0  0  0
    6.6849  -13.2866   -7.0911 H   0  0  0  0  0  0  0  0  0  0  0  0
    8.7207  -14.8337   -3.5419 H   0  0  0  0  0  0  0  0  0  0  0  0
    9.5175  -15.8931   -4.7649 H   0  0  0  0  0  0  0  0  0  0  0  0
   10.8547  -12.9386   -5.7265 H   0  0  0  0  0  0  0  0  0  0  0  0
   12.4765  -13.3751   -4.9984 H   0  0  0  0  0  0  0  0  0  0  0  0
   10.7556  -14.9759   -6.9054 H   0  0  0  0  0  0  0  0  0  0  0  0
   12.4857  -14.4132   -7.0627 H   0  0  0  0  0  0  0  0  0  0  0  0
    9.5582  -11.3431   -2.4019 H   0  0  0  0  0  0  0  0  0  0  0  0
   10.5429  -11.2226   -3.8995 H   0  0  0  0  0  0  0  0  0  0  0  0
    9.0212  -12.1772   -3.8995 H   0  0  0  0  0  0  0  0  0  0  0  0
   14.1173  -11.9262   -3.0485 H   0  0  0  0  0  0  0  0  0  0  0  0
   13.1050  -11.2079   -3.9783 H   0  0  0  0  0  0  0  0  0  0  0  0
    2.8653  -12.1590   -2.2235 H   0  0  0  0  0  0  0  0  0  0  0  0
    2.3988   -9.9815   -2.1028 H   0  0  0  0  0  0  0  0  0  0  0  0
    3.2043   -9.5840   -3.6584 H   0  0  0  0  0  0  0  0  0  0  0  0
    1.6083  -10.4081   -3.6584 H   0  0  0  0  0  0  0  0  0  0  0  0
  1  2  1  0
  2  3  2  0
  3  4  1  0
  4  5  1  0
  5  6  1  0
  6  7  1  0
  7  8  1  0
  8  9  1  0
  9 10  1  0
 10 11  2  0
 10 12  1  0
 12 13  2  0
 13 14  1  0
 14 15  2  0
 15 16  1  0
 16 17  1  0
 17 18  1  0
 18 19  1  0
 19 20  1  0
 20 21  1  0
 20 22  2  0
 22 23  1  0
 23 24  2  0
 23 25  1  0
 25 26  1  0
 27 26  1  6
 27 28  1  0
 28 29  1  0
 27 30  1  0
 30 31  1  6
 30 32  1  0
 32 33  1  0
 33 34  1  0
 18 35  1  0
 35 36  1  0
 36 37  1  0
 29  2  1  0
 32 34  1  1
 27  4  1  0
 32  6  1  0
 30  8  1  0
 36 16  1  0
  1 38  1  0
  1 39  1  0
  1 40  1  0
  3 41  1  0
  4 42  1  1
  6 43  1  1
  7 44  1  0
  7 45  1  0
  8 46  1  6
 12 47  1  0
 13 48  1  0
 14 49  1  0
 15 50  1  0
 16 51  1  6
 18 52  1  1
 19 53  1  0
 19 54  1  0
 21 55  1  0
 21 56  1  0
 21 57  1  0
 22 58  1  0
 26 59  1  0
 26 60  1  0
 28 61  1  0
 28 62  1  0
 29 63  1  0
 29 64  1  0
 31 65  1  0
 31 66  1  0
 31 67  1  0
 33 68  1  0
 33 69  1  0
 36 70  1  1
 37 71  1  0
 37 72  1  0
 37 73  1  0
M  END
>  <meeko>  (1) 
{"is_sidechain": [false], "free_energy": -6.346, "intermolecular_energy": -10.055, "internal_energy": -1.333}

$$$$
LIB_IWFOIUWPNYEUAI__M_PUB_ALL__e8__s20260927
     RDKit          3D

 73 78  0  0  0  0  0  0  0  0999 V2000
   13.4490  -10.6310    0.1410 C   0  0  0  0  0  0  0  0  0  0  0  0
   12.7010  -11.7450   -0.5320 C   0  0  0  0  0  0  0  0  0  0  0  0
   12.5600  -11.8030   -1.8680 C   0  0  0  0  0  0  0  0  0  0  0  0
   11.8000  -12.8700   -2.6080 C   0  0  1  0  0  0  0  0  0  0  0  0
   12.7990  -13.6060   -3.3280 O   0  0  0  0  0  0  0  0  0  0  0  0
   12.3480  -14.8030   -3.9640 C   0  0  2  0  0  0  0  0  0  0  0  0
   11.1090  -14.5780   -4.8370 C   0  0  0  0  0  0  0  0  0  0  0  0
    9.9000  -14.8080   -3.8910 C   0  0  1  0  0  0  0  0  0  0  0  0
    9.1240  -15.9350   -4.3530 O   0  0  0  0  0  0  0  0  0  0  0  0
    7.9240  -15.6500   -4.9110 C   0  0  0  0  0  0  0  0  0  0  0  0
    7.5930  -14.5950   -5.4250 O   0  0  0  0  0  0  0  0  0  0  0  0
    7.0740  -16.8560   -4.9230 C   0  0  0  0  0  0  0  0  0  0  0  0
    6.2140  -17.2330   -3.9640 C   0  0  0  0  0  0  0  0  0  0  0  0
    5.8920  -16.5000   -2.7590 C   0  0  0  0  0  0  0  0  0  0  0  0
    5.8190  -17.0700   -1.5440 C   0  0  0  0  0  0  0  0  0  0  0  0
    5.4590  -16.3510   -0.2700 C   0  0  1  0  0  0  0  0  0  0  0  0
    5.5970  -14.9350   -0.4320 O   0  0  0  0  0  0  0  0  0  0  0  0
    4.4560  -14.3420    0.2050 C   0  0  2  0  0  0  0  0  0  0  0  0
    4.8980  -13.1960    1.1260 C   0  0  0  0  0  0  0  0  0  0  0  0
    6.1190  -12.4750    0.5680 C   0  0  0  0  0  0  0  0  0  0  0  0
    5.8790  -11.7130   -0.7060 C   0  0  0  0  0  0  0  0  0  0  0  0
    7.3040  -12.6350    1.1890 C   0  0  0  0  0  0  0  0  0  0  0  0
    8.6450  -12.2410    0.6930 C   0  0  0  0  0  0  0  0  0  0  0  0
    9.1740  -11.1540    0.8240 O   0  0  0  0  0  0  0  0  0  0  0  0
    9.1150  -13.2770   -0.0490 O   0  0  0  0  0  0  0  0  0  0  0  0
    9.6150  -12.9140   -1.3390 C   0  0  0  0  0  0  0  0  0  0  0  0
   10.8820  -13.7590   -1.6910 C   0  0  2  0  0  0  0  0  0  0  0  0
   11.6600  -14.0570   -0.3680 C   0  0  0  0  0  0  0  0  0  0  0  0
   12.1280  -12.7990    0.3760 C   0  0  0  0  0  0  0  0  0  0  0  0
   10.5210  -15.1260   -2.4680 C   0  0  1  0  0  0  0  0  0  0  0  0
    9.6540  -16.1160   -1.6750 C   0  0  0  0  0  0  0  0  0  0  0  0
   11.8510  -15.7150   -2.9020 C   0  0  2  0  0  0  0  0  0  0  0  0
   12.7040  -16.7220   -2.1640 C   0  0  0  0  0  0  0  0  0  0  0  0
   11.8590  -17.1060   -3.2590 O   0  0  0  0  0  0  0  0  0  0  0  0
    3.7580  -15.3510    0.9400 O   0  0  0  0  0  0  0  0  0  0  0  0
    4.0100  -16.5330    0.1700 C   0  0  2  0  0  0  0  0  0  0  0  0
    3.7670  -17.7710    1.0140 C   0  0  0  0  0  0  0  0  0  0  0  0
   13.3725  -10.7449    1.2324 H   0  0  0  0  0  0  0  0  0  0  0  0
   14.5070  -10.6666   -0.1581 H   0  0  0  0  0  0  0  0  0  0  0  0
   13.0157   -9.6652   -0.1581 H   0  0  0  0  0  0  0  0  0  0  0  0
   13.0360  -11.0109   -2.4647 H   0  0  0  0  0  0  0  0  0  0  0  0
   11.0612  -12.4287   -3.2931 H   0  0  0  0  0  0  0  0  0  0  0  0
   13.1892  -15.1800   -4.5642 H   0  0  0  0  0  0  0  0  0  0  0  0
   11.0982  -13.5526   -5.2350 H   0  0  0  0  0  0  0  0  0  0  0  0
   11.0879  -15.2542   -5.7044 H   0  0  0  0  0  0  0  0  0  0  0  0
    9.2344  -13.9328   -3.8580 H   0  0  0  0  0  0  0  0  0  0  0  0
    7.1528  -17.5100   -5.8040 H   0  0  0  0  0  0  0  0  0  0  0  0
    5.7026  -18.1961   -4.1088 H   0  0  0  0  0  0  0  0  0  0  0  0
    5.6969  -15.4206   -2.8414 H   0  0  0  0  0  0  0  0  0  0  0  0
    6.0393  -18.1455   -1.4744 H   0  0  0  0  0  0  0  0  0  0  0  0
    6.1417  -16.7867    0.4744 H   0  0  0  0  0  0  0  0  0  0  0  0
    3.7815  -13.9200   -0.5545 H   0  0  0  0  0  0  0  0  0  0  0  0
    4.0715  -12.4768    1.2247 H   0  0  0  0  0  0  0  0  0  0  0  0
    5.1639  -13.6211    2.1051 H   0  0  0  0  0  0  0  0  0  0  0  0
    5.5565  -10.6892   -0.4657 H   0  0  0  0  0  0  0  0  0  0  0  0
    6.8091  -11.6764   -1.2921 H   0  0  0  0  0  0  0  0  0  0  0  0
    5.0958  -12.2160   -1.2921 H   0  0  0  0  0  0  0  0  0  0  0  0
    7.2732  -13.1135    2.1790 H   0  0  0  0  0  0  0  0  0  0  0  0
    8.8363  -13.0970   -2.0940 H   0  0  0  0  0  0  0  0  0  0  0  0
    9.8888  -11.8487   -1.3283 H   0  0  0  0  0  0  0  0  0  0  0  0
   10.9998  -14.6291    0.3005 H   0  0  0  0  0  0  0  0  0  0  0  0
   12.5645  -14.6163   -0.6490 H   0  0  0  0  0  0  0  0  0  0  0  0
   11.2673  -12.3691    0.9093 H   0  0  0  0  0  0  0  0  0  0  0  0
   12.9308  -13.1076    1.0617 H   0  0  0  0  0  0  0  0  0  0  0  0
    9.7997  -15.9496   -0.5975 H   0  0  0  0  0  0  0  0  0  0  0  0
    8.5951  -15.9619   -1.9299 H   0  0  0  0  0  0  0  0  0  0  0  0
    9.9464  -17.1453   -1.9299 H   0  0  0  0  0  0  0  0  0  0  0  0
   13.7976  -16.7158   -2.2828 H   0  0  0  0  0  0  0  0  0  0  0  0
   12.8263  -17.0336   -1.1162 H   0  0  0  0  0  0  0  0  0  0  0  0
    3.3481  -16.6716   -0.6976 H   0  0  0  0  0  0  0  0  0  0  0  0
    3.8194  -17.5042    2.0799 H   0  0  0  0  0  0  0  0  0  0  0  0
    2.7714  -18.1800    0.7869 H   0  0  0  0  0  0  0  0  0  0  0  0
    4.5341  -18.5260    0.7869 H   0  0  0  0  0  0  0  0  0  0  0  0
  1  2  1  0
  2  3  2  0
  3  4  1  0
  4  5  1  0
  5  6  1  0
  6  7  1  0
  7  8  1  0
  8  9  1  0
  9 10  1  0
 10 11  2  0
 10 12  1  0
 12 13  2  0
 13 14  1  0
 14 15  2  0
 15 16  1  0
 16 17  1  0
 17 18  1  0
 18 19  1  0
 19 20  1  0
 20 21  1  0
 20 22  2  0
 22 23  1  0
 23 24  2  0
 23 25  1  0
 25 26  1  0
 27 26  1  1
 27 28  1  0
 28 29  1  0
 27 30  1  0
 30 31  1  1
 30 32  1  0
 32 33  1  0
 33 34  1  0
 18 35  1  0
 35 36  1  0
 36 37  1  0
 29  2  1  0
 32 34  1  6
 27  4  1  0
 32  6  1  0
 30  8  1  0
 36 16  1  0
  1 38  1  0
  1 39  1  0
  1 40  1  0
  3 41  1  0
  4 42  1  6
  6 43  1  6
  7 44  1  0
  7 45  1  0
  8 46  1  1
 12 47  1  0
 13 48  1  0
 14 49  1  0
 15 50  1  0
 16 51  1  1
 18 52  1  6
 19 53  1  0
 19 54  1  0
 21 55  1  0
 21 56  1  0
 21 57  1  0
 22 58  1  0
 26 59  1  0
 26 60  1  0
 28 61  1  0
 28 62  1  0
 29 63  1  0
 29 64  1  0
 31 65  1  0
 31 66  1  0
 31 67  1  0
 33 68  1  0
 33 69  1  0
 36 70  1  6
 37 71  1  0
 37 72  1  0
 37 73  1  0
M  END
>  <meeko>  (2) 
{"is_sidechain": [false], "free_energy": -6.183, "intermolecular_energy": -9.749, "internal_energy": -1.382}

$$$$
LIB_IWFOIUWPNYEUAI__M_PUB_ALL__e8__s20260927
     RDKit          3D

 73 78  0  0  0  0  0  0  0  0999 V2000
   13.5810  -10.3970    0.1390 C   0  0  0  0  0  0  0  0  0  0  0  0
   12.8850  -11.5120   -0.5870 C   0  0  0  0  0  0  0  0  0  0  0  0
   12.7570  -11.5200   -1.9260 C   0  0  0  0  0  0  0  0  0  0  0  0
   12.0470  -12.5850   -2.7160 C   0  0  1  0  0  0  0  0  0  0  0  0
   13.0810  -13.2490   -3.4570 O   0  0  0  0  0  0  0  0  0  0  0  0
   12.6850  -14.4360   -4.1460 C   0  0  2  0  0  0  0  0  0  0  0  0
   11.4440  -14.2250   -5.0210 C   0  0  0  0  0  0  0  0  0  0  0  0
   10.2390  -14.5440   -4.0960 C   0  0  1  0  0  0  0  0  0  0  0  0
    9.5130  -15.6810   -4.6120 O   0  0  0  0  0  0  0  0  0  0  0  0
    8.4990  -15.4100   -5.4670 C   0  0  0  0  0  0  0  0  0  0  0  0
    8.3410  -14.3820   -6.1050 O   0  0  0  0  0  0  0  0  0  0  0  0
    7.6400  -16.5990   -5.6240 C   0  0  0  0  0  0  0  0  0  0  0  0
    6.5190  -16.8670   -4.9350 C   0  0  0  0  0  0  0  0  0  0  0  0
    5.8880  -16.0150   -3.9520 C   0  0  0  0  0  0  0  0  0  0  0  0
    4.8610  -15.1950   -4.2340 C   0  0  0  0  0  0  0  0  0  0  0  0
    4.1940  -14.2700   -3.2500 C   0  0  1  0  0  0  0  0  0  0  0  0
    5.1480  -13.7530   -2.3160 O   0  0  0  0  0  0  0  0  0  0  0  0
    4.8440  -12.3600   -2.1560 C   0  0  2  0  0  0  0  0  0  0  0  0
    4.7950  -11.9950   -0.6650 C   0  0  0  0  0  0  0  0  0  0  0  0
    6.1940  -11.7910   -0.0970 C   0  0  0  0  0  0  0  0  0  0  0  0
    6.5950  -10.3560    0.1050 C   0  0  0  0  0  0  0  0  0  0  0  0
    6.9760  -12.8720    0.0960 C   0  0  0  0  0  0  0  0  0  0  0  0
    8.4350  -12.8730    0.3980 C   0  0  0  0  0  0  0  0  0  0  0  0
    9.0020  -12.2880    1.3010 O   0  0  0  0  0  0  0  0  0  0  0  0
    9.0320  -13.5610   -0.6100 O   0  0  0  0  0  0  0  0  0  0  0  0
    9.8560  -12.7700   -1.4710 C   0  0  0  0  0  0  0  0  0  0  0  0
   11.1590  -13.5480   -1.8460 C   0  0  2  0  0  0  0  0  0  0  0  0
   11.9390  -13.8690   -0.5290 C   0  0  0  0  0  0  0  0  0  0  0  0
   12.3480  -12.6250    0.2710 C   0  0  0  0  0  0  0  0  0  0  0  0
   10.8610  -14.8950   -2.6820 C   0  0  1  0  0  0  0  0  0  0  0  0
   10.0290  -15.9520   -1.9390 C   0  0  0  0  0  0  0  0  0  0  0  0
   12.2180  -15.4110   -3.1280 C   0  0  2  0  0  0  0  0  0  0  0  0
   13.1050  -16.4120   -2.4230 C   0  0  0  0  0  0  0  0  0  0  0  0
   12.2850  -16.7840   -3.5410 O   0  0  0  0  0  0  0  0  0  0  0  0
    3.5940  -12.0820   -2.7940 O   0  0  0  0  0  0  0  0  0  0  0  0
    3.5740  -13.0230   -3.8740 C   0  0  2  0  0  0  0  0  0  0  0  0
    2.1560  -13.2180   -4.3740 C   0  0  0  0  0  0  0  0  0  0  0  0
   13.4854  -10.5501    1.2241 H   0  0  0  0  0  0  0  0  0  0  0  0
   14.6456  -10.3876   -0.1376 H   0  0  0  0  0  0  0  0  0  0  0  0
   13.1218   -9.4365   -0.1376 H   0  0  0  0  0  0  0  0  0  0  0  0
   13.2051  -10.6853   -2.4850 H   0  0  0  0  0  0  0  0  0  0  0  0
   11.2956  -12.1457   -3.3886 H   0  0  0  0  0  0  0  0  0  0  0  0
   13.5458  -14.7532   -4.7530 H   0  0  0  0  0  0  0  0  0  0  0  0
   11.3939  -13.1850   -5.3759 H   0  0  0  0  0  0  0  0  0  0  0  0
   11.4571  -14.8639   -5.9163 H   0  0  0  0  0  0  0  0  0  0  0  0
    9.5379  -13.6988   -4.0323 H   0  0  0  0  0  0  0  0  0  0  0  0
    7.9476  -17.3378   -6.3787 H   0  0  0  0  0  0  0  0  0  0  0  0
    6.0318  -17.8319   -5.1390 H   0  0  0  0  0  0  0  0  0  0  0  0
    6.2680  -16.0391   -2.9200 H   0  0  0  0  0  0  0  0  0  0  0  0
    4.4773  -15.1998   -5.2649 H   0  0  0  0  0  0  0  0  0  0  0  0
    3.4131  -14.8968   -2.7947 H   0  0  0  0  0  0  0  0  0  0  0  0
    5.6300  -11.7494   -2.6243 H   0  0  0  0  0  0  0  0  0  0  0  0
    4.2199  -11.0653   -0.5427 H   0  0  0  0  0  0  0  0  0  0  0  0
    4.3176  -12.8234   -0.1210 H   0  0  0  0  0  0  0  0  0  0  0  0
    6.6553  -10.1403    1.1819 H   0  0  0  0  0  0  0  0  0  0  0  0
    7.5765  -10.1807   -0.3596 H   0  0  0  0  0  0  0  0  0  0  0  0
    5.8465   -9.6972   -0.3596 H   0  0  0  0  0  0  0  0  0  0  0  0
    6.4866  -13.8544    0.0230 H   0  0  0  0  0  0  0  0  0  0  0  0
    9.2984  -12.5335   -2.3892 H   0  0  0  0  0  0  0  0  0  0  0  0
   10.1327  -11.8433   -0.9469 H   0  0  0  0  0  0  0  0  0  0  0  0
   11.2983  -14.4957    0.1089 H   0  0  0  0  0  0  0  0  0  0  0  0
   12.8683  -14.3780   -0.8246 H   0  0  0  0  0  0  0  0  0  0  0  0
   11.4656  -12.2531    0.8124 H   0  0  0  0  0  0  0  0  0  0  0  0
   13.1566  -12.9286    0.9521 H   0  0  0  0  0  0  0  0  0  0  0  0
   10.1406  -15.8102   -0.8539 H   0  0  0  0  0  0  0  0  0  0  0  0
    8.9697  -15.8457   -2.2156 H   0  0  0  0  0  0  0  0  0  0  0  0
   10.3812  -16.9567   -2.2156 H   0  0  0  0  0  0  0  0  0  0  0  0
   14.1983  -16.3571   -2.5307 H   0  0  0  0  0  0  0  0  0  0  0  0
   13.2314  -16.7611   -1.3876 H   0  0  0  0  0  0  0  0  0  0  0  0
    4.1288  -12.7118   -4.7714 H   0  0  0  0  0  0  0  0  0  0  0  0
    1.4743  -13.3118   -3.5158 H   0  0  0  0  0  0  0  0  0  0  0  0
    1.8601  -12.3521   -4.9845 H   0  0  0  0  0  0  0  0  0  0  0  0
    2.1048  -14.1316   -4.9845 H   0  0  0  0  0  0  0  0  0  0  0  0
  1  2  1  0
  2  3  2  0
  3  4  1  0
  4  5  1  0
  5  6  1  0
  6  7  1  0
  7  8  1  0
  8  9  1  0
  9 10  1  0
 10 11  2  0
 10 12  1  0
 12 13  2  0
 13 14  1  0
 14 15  2  0
 15 16  1  0
 16 17  1  0
 17 18  1  0
 18 19  1  0
 19 20  1  0
 20 21  1  0
 20 22  2  0
 22 23  1  0
 23 24  2  0
 23 25  1  0
 25 26  1  0
 27 26  1  1
 27 28  1  0
 28 29  1  0
 27 30  1  0
 30 31  1  1
 30 32  1  0
 32 33  1  0
 33 34  1  0
 18 35  1  0
 35 36  1  0
 36 37  1  0
 29  2  1  0
 32 34  1  6
 27  4  1  0
 32  6  1  0
 30  8  1  0
 36 16  1  0
  1 38  1  0
  1 39  1  0
  1 40  1  0
  3 41  1  0
  4 42  1  6
  6 43  1  6
  7 44  1  0
  7 45  1  0
  8 46  1  1
 12 47  1  0
 13 48  1  0
 14 49  1  0
 15 50  1  0
 16 51  1  1
 18 52  1  6
 19 53  1  0
 19 54  1  0
 21 55  1  0
 21 56  1  0
 21 57  1  0
 22 58  1  0
 26 59  1  0
 26 60  1  0
 28 61  1  0
 28 62  1  0
 29 63  1  0
 29 64  1  0
 31 65  1  0
 31 66  1  0
 31 67  1  0
 33 68  1  0
 33 69  1  0
 36 70  1  6
 37 71  1  0
 37 72  1  0
 37 73  1  0
M  END
>  <meeko>  (3) 
{"is_sidechain": [false], "free_energy": -6.123, "intermolecular_energy": -10.317, "internal_energy": -0.718}

$$$$
LIB_IWFOIUWPNYEUAI__M_PUB_ALL__e8__s20260927
     RDKit          3D

 73 78  0  0  0  0  0  0  0  0999 V2000
   12.5430  -15.9010   -0.9510 C   0  0  0  0  0  0  0  0  0  0  0  0
   11.2870  -15.1510   -1.2870 C   0  0  0  0  0  0  0  0  0  0  0  0
   10.0690  -15.7030   -1.1480 C   0  0  0  0  0  0  0  0  0  0  0  0
    8.7720  -15.0240   -1.4930 C   0  0  1  0  0  0  0  0  0  0  0  0
    8.1130  -14.8200   -0.2350 O   0  0  0  0  0  0  0  0  0  0  0  0
    6.9360  -14.0120   -0.2770 C   0  0  2  0  0  0  0  0  0  0  0  0
    5.9360  -14.4790   -1.3410 C   0  0  0  0  0  0  0  0  0  0  0  0
    6.3250  -13.7060   -2.6290 C   0  0  1  0  0  0  0  0  0  0  0  0
    5.2380  -12.8430   -3.0300 O   0  0  0  0  0  0  0  0  0  0  0  0
    4.3280  -13.3790   -3.8780 C   0  0  0  0  0  0  0  0  0  0  0  0
    3.8640  -14.5060   -3.8300 O   0  0  0  0  0  0  0  0  0  0  0  0
    3.8660  -12.3540   -4.8340 C   0  0  0  0  0  0  0  0  0  0  0  0
    4.4140  -12.0740   -6.0270 C   0  0  0  0  0  0  0  0  0  0  0  0
    5.5220  -12.7640   -6.6500 C   0  0  0  0  0  0  0  0  0  0  0  0
    5.8510  -12.6170   -7.9450 C   0  0  0  0  0  0  0  0  0  0  0  0
    6.9760  -13.3380   -8.6400 C   0  0  1  0  0  0  0  0  0  0  0  0
    7.3260  -14.5320   -7.9310 O   0  0  0  0  0  0  0  0  0  0  0  0
    7.5270  -15.5480   -8.9240 C   0  0  2  0  0  0  0  0  0  0  0  0
    8.8440  -16.2920   -8.6630 C   0  0  0  0  0  0  0  0  0  0  0  0
    9.4500  -15.8960   -7.3230 C   0  0  0  0  0  0  0  0  0  0  0  0
   10.7280  -15.1080   -7.4120 C   0  0  0  0  0  0  0  0  0  0  0  0
    8.8640  -16.3380   -6.1930 C   0  0  0  0  0  0  0  0  0  0  0  0
    9.4090  -16.2900   -4.7970 C   0  0  0  0  0  0  0  0  0  0  0  0
   10.3070  -16.9710   -4.3380 O   0  0  0  0  0  0  0  0  0  0  0  0
    8.6320  -15.4160   -4.1060 O   0  0  0  0  0  0  0  0  0  0  0  0
    9.2520  -14.1590   -3.8190 C   0  0  0  0  0  0  0  0  0  0  0  0
    8.9380  -13.7180   -2.3520 C   0  0  2  0  0  0  0  0  0  0  0  0
   10.1700  -12.9280   -1.8010 C   0  0  0  0  0  0  0  0  0  0  0  0
   11.4720  -13.7410   -1.7780 C   0  0  0  0  0  0  0  0  0  0  0  0
    7.5920  -12.8350   -2.2430 C   0  0  1  0  0  0  0  0  0  0  0  0
    7.6230  -11.5020   -3.0060 C   0  0  0  0  0  0  0  0  0  0  0  0
    7.3330  -12.6640   -0.7560 C   0  0  2  0  0  0  0  0  0  0  0  0
    7.7820  -11.5300    0.1370 C   0  0  0  0  0  0  0  0  0  0  0  0
    6.4420  -11.6070   -0.3710 O   0  0  0  0  0  0  0  0  0  0  0  0
    7.5290  -14.9380  -10.2180 O   0  0  0  0  0  0  0  0  0  0  0  0
    6.6400  -13.8270  -10.0460 C   0  0  2  0  0  0  0  0  0  0  0  0
    6.8710  -12.7960  -11.1340 C   0  0  0  0  0  0  0  0  0  0  0  0
   12.6505  -15.9652    0.1419 H   0  0  0  0  0  0  0  0  0  0  0  0
   12.4890  -16.9149   -1.3743 H   0  0  0  0  0  0  0  0  0  0  0  0
   13.4100  -15.3726   -1.3743 H   0  0  0  0  0  0  0  0  0  0  0  0
   10.0171  -16.7281   -0.7523 H   0  0  0  0  0  0  0  0  0  0  0  0
    8.1630  -15.6485   -2.1632 H   0  0  0  0  0  0  0  0  0  0  0  0
    6.4892  -14.0503    0.7274 H   0  0  0  0  0  0  0  0  0  0  0  0
    6.0213  -15.5639   -1.5012 H   0  0  0  0  0  0  0  0  0  0  0  0
    4.8955  -14.2843   -1.0421 H   0  0  0  0  0  0  0  0  0  0  0  0
    6.5392  -14.3876   -3.4654 H   0  0  0  0  0  0  0  0  0  0  0  0
    2.9868  -11.7617   -4.5403 H   0  0  0  0  0  0  0  0  0  0  0  0
    3.9761  -11.2349   -6.5875 H   0  0  0  0  0  0  0  0  0  0  0  0
    6.1267  -13.4442   -6.0322 H   0  0  0  0  0  0  0  0  0  0  0  0
    5.2518  -11.9154   -8.5439 H   0  0  0  0  0  0  0  0  0  0  0  0
    7.7791  -12.5874   -8.6791 H   0  0  0  0  0  0  0  0  0  0  0  0
    6.7115  -16.2847   -8.8759 H   0  0  0  0  0  0  0  0  0  0  0  0
    8.6492  -17.3746   -8.6617 H   0  0  0  0  0  0  0  0  0  0  0  0
    9.5561  -16.0243   -9.4575 H   0  0  0  0  0  0  0  0  0  0  0  0
   11.0918  -14.8837   -6.3984 H   0  0  0  0  0  0  0  0  0  0  0  0
   11.4848  -15.6965   -7.9513 H   0  0  0  0  0  0  0  0  0  0  0  0
   10.5421  -14.1675   -7.9513 H   0  0  0  0  0  0  0  0  0  0  0  0
    7.8668  -16.7877   -6.3085 H   0  0  0  0  0  0  0  0  0  0  0  0
   10.3407  -14.2552   -3.9433 H   0  0  0  0  0  0  0  0  0  0  0  0
    8.8578  -13.4006   -4.5114 H   0  0  0  0  0  0  0  0  0  0  0  0
   10.3257  -12.0430   -2.4355 H   0  0  0  0  0  0  0  0  0  0  0  0
    9.9397  -12.6653   -0.7579 H   0  0  0  0  0  0  0  0  0  0  0  0
   11.8782  -13.7779   -2.7996 H   0  0  0  0  0  0  0  0  0  0  0  0
   12.1556  -13.2399   -1.0768 H   0  0  0  0  0  0  0  0  0  0  0  0
    7.6424  -10.6689   -2.2880 H   0  0  0  0  0  0  0  0  0  0  0  0
    8.5223  -11.4622   -3.6382 H   0  0  0  0  0  0  0  0  0  0  0  0
    6.7265  -11.4204   -3.6382 H   0  0  0  0  0  0  0  0  0  0  0  0
    7.9822  -11.7096    1.2036 H   0  0  0  0  0  0  0  0  0  0  0  0
    8.5905  -10.7844    0.1178 H   0  0  0  0  0  0  0  0  0  0  0  0
    5.5709  -14.0694  -10.1364 H   0  0  0  0  0  0  0  0  0  0  0  0
    7.0895  -11.8207  -10.6745 H   0  0  0  0  0  0  0  0  0  0  0  0
    7.7219  -13.1061  -11.7583 H   0  0  0  0  0  0  0  0  0  0  0  0
    5.9691  -12.7134  -11.7583 H   0  0  0  0  0  0  0  0  0  0  0  0
  1  2  1  0
  2  3  2  0
  3  4  1  0
  4  5  1  0
  5  6  1  0
  6  7  1  0
  7  8  1  0
  8  9  1  0
  9 10  1  0
 10 11  2  0
 10 12  1  0
 12 13  2  0
 13 14  1  0
 14 15  2  0
 15 16  1  0
 16 17  1  0
 17 18  1  0
 18 19  1  0
 19 20  1  0
 20 21  1  0
 20 22  2  0
 22 23  1  0
 23 24  2  0
 23 25  1  0
 25 26  1  0
 27 26  1  6
 27 28  1  0
 28 29  1  0
 27 30  1  0
 30 31  1  6
 30 32  1  0
 32 33  1  0
 33 34  1  0
 18 35  1  0
 35 36  1  0
 36 37  1  0
 29  2  1  0
 32 34  1  6
 27  4  1  0
 32  6  1  0
 30  8  1  0
 36 16  1  0
  1 38  1  0
  1 39  1  0
  1 40  1  0
  3 41  1  0
  4 42  1  6
  6 43  1  1
  7 44  1  0
  7 45  1  0
  8 46  1  6
 12 47  1  0
 13 48  1  0
 14 49  1  0
 15 50  1  0
 16 51  1  6
 18 52  1  6
 19 53  1  0
 19 54  1  0
 21 55  1  0
 21 56  1  0
 21 57  1  0
 22 58  1  0
 26 59  1  0
 26 60  1  0
 28 61  1  0
 28 62  1  0
 29 63  1  0
 29 64  1  0
 31 65  1  0
 31 66  1  0
 31 67  1  0
 33 68  1  0
 33 69  1  0
 36 70  1  1
 37 71  1  0
 37 72  1  0
 37 73  1  0
M  END
>  <meeko>  (4) 
{"is_sidechain": [false], "free_energy": -5.862, "intermolecular_energy": -9.64, "internal_energy": -0.983}

$$$$
LIB_IWFOIUWPNYEUAI__M_PUB_ALL__e8__s20260927
     RDKit          3D

 73 78  0  0  0  0  0  0  0  0999 V2000
   -0.0670  -12.5570    1.1620 C   0  0  0  0  0  0  0  0  0  0  0  0
    0.9750  -12.6630    0.0870 C   0  0  0  0  0  0  0  0  0  0  0  0
    0.8790  -13.5580   -0.9120 C   0  0  0  0  0  0  0  0  0  0  0  0
    1.8970  -13.7410   -2.0040 C   0  0  1  0  0  0  0  0  0  0  0  0
    1.2410  -13.3000   -3.2020 O   0  0  0  0  0  0  0  0  0  0  0  0
    2.0720  -13.1950   -4.3590 C   0  0  2  0  0  0  0  0  0  0  0  0
    2.8810  -14.4690   -4.6250 C   0  0  0  0  0  0  0  0  0  0  0  0
    4.2080  -14.2750   -3.8450 C   0  0  1  0  0  0  0  0  0  0  0  0
    5.3200  -14.2490   -4.7670 O   0  0  0  0  0  0  0  0  0  0  0  0
    6.0360  -15.3930   -4.8770 C   0  0  0  0  0  0  0  0  0  0  0  0
    5.7610  -16.4740   -4.3810 O   0  0  0  0  0  0  0  0  0  0  0  0
    7.1690  -15.1920   -5.8000 C   0  0  0  0  0  0  0  0  0  0  0  0
    8.2490  -14.4250   -5.5780 C   0  0  0  0  0  0  0  0  0  0  0  0
    8.5550  -13.6990   -4.3660 C   0  0  0  0  0  0  0  0  0  0  0  0
    9.8020  -13.3380   -4.0150 C   0  0  0  0  0  0  0  0  0  0  0  0
   10.1680  -12.6080   -2.7490 C   0  0  1  0  0  0  0  0  0  0  0  0
    9.1350  -12.7480   -1.7670 O   0  0  0  0  0  0  0  0  0  0  0  0
    9.7960  -12.9900   -0.5170 C   0  0  2  0  0  0  0  0  0  0  0  0
    9.2220  -12.0730    0.5730 C   0  0  0  0  0  0  0  0  0  0  0  0
    7.7060  -12.1920    0.6570 C   0  0  0  0  0  0  0  0  0  0  0  0
    6.9770  -10.8920    0.8600 C   0  0  0  0  0  0  0  0  0  0  0  0
    7.1510  -13.4200    0.6290 C   0  0  0  0  0  0  0  0  0  0  0  0
    5.7320  -13.7750    0.9500 C   0  0  0  0  0  0  0  0  0  0  0  0
    5.3490  -14.5860    1.7710 O   0  0  0  0  0  0  0  0  0  0  0  0
    4.9510  -13.0920    0.0730 O   0  0  0  0  0  0  0  0  0  0  0  0
    4.0430  -13.9030   -0.6800 C   0  0  0  0  0  0  0  0  0  0  0  0
    3.2730  -13.0330   -1.7260 C   0  0  2  0  0  0  0  0  0  0  0  0
    2.9800  -11.6360   -1.0870 C   0  0  0  0  0  0  0  0  0  0  0  0
    2.1270  -11.7010    0.1870 C   0  0  0  0  0  0  0  0  0  0  0  0
    4.0790  -12.8740   -3.1150 C   0  0  1  0  0  0  0  0  0  0  0  0
    5.4350  -12.1610   -3.0030 C   0  0  0  0  0  0  0  0  0  0  0  0
    3.1200  -12.1840   -4.0690 C   0  0  2  0  0  0  0  0  0  0  0  0
    2.9840  -10.7020   -4.3340 C   0  0  0  0  0  0  0  0  0  0  0  0
    3.6940  -11.5680   -5.2320 O   0  0  0  0  0  0  0  0  0  0  0  0
   11.2000  -12.7720   -0.6830 O   0  0  0  0  0  0  0  0  0  0  0  0
   11.4160  -13.1410   -2.0510 C   0  0  2  0  0  0  0  0  0  0  0  0
   12.7150  -12.5420   -2.5570 C   0  0  0  0  0  0  0  0  0  0  0  0
    0.4174  -12.6063    2.1484 H   0  0  0  0  0  0  0  0  0  0  0  0
   -0.6002  -11.6000    1.0628 H   0  0  0  0  0  0  0  0  0  0  0  0
   -0.7820  -13.3870    1.0628 H   0  0  0  0  0  0  0  0  0  0  0  0
   -0.0106  -14.2047   -0.9321 H   0  0  0  0  0  0  0  0  0  0  0  0
    2.2066  -14.7934   -2.0856 H   0  0  0  0  0  0  0  0  0  0  0  0
    1.4081  -12.9670   -5.2059 H   0  0  0  0  0  0  0  0  0  0  0  0
    2.3414  -15.3534   -4.2553 H   0  0  0  0  0  0  0  0  0  0  0  0
    3.0541  -14.6307   -5.6992 H   0  0  0  0  0  0  0  0  0  0  0  0
    4.3836  -15.0919   -3.1296 H   0  0  0  0  0  0  0  0  0  0  0  0
    7.1251  -15.7215   -6.7632 H   0  0  0  0  0  0  0  0  0  0  0  0
    8.9736  -14.3408   -6.4013 H   0  0  0  0  0  0  0  0  0  0  0  0
    7.7253  -13.4279   -3.6965 H   0  0  0  0  0  0  0  0  0  0  0  0
   10.6182  -13.5958   -4.7060 H   0  0  0  0  0  0  0  0  0  0  0  0
   10.3306  -11.5734   -3.0852 H   0  0  0  0  0  0  0  0  0  0  0  0
    9.6294  -14.0308   -0.2023 H   0  0  0  0  0  0  0  0  0  0  0  0
    9.6575  -12.3542    1.5432 H   0  0  0  0  0  0  0  0  0  0  0  0
    9.4743  -11.0329    0.3189 H   0  0  0  0  0  0  0  0  0  0  0  0
    6.8678  -10.6972    1.9371 H   0  0  0  0  0  0  0  0  0  0  0  0
    7.5485  -10.0748    0.3957 H   0  0  0  0  0  0  0  0  0  0  0  0
    5.9817  -10.9534    0.3957 H   0  0  0  0  0  0  0  0  0  0  0  0
    7.8113  -14.2507    0.3392 H   0  0  0  0  0  0  0  0  0  0  0  0
    4.6080  -14.6866   -1.2061 H   0  0  0  0  0  0  0  0  0  0  0  0
    3.3164  -14.3584    0.0089 H   0  0  0  0  0  0  0  0  0  0  0  0
    3.9403  -11.1614   -0.8369 H   0  0  0  0  0  0  0  0  0  0  0  0
    2.4045  -11.0609   -1.8273 H   0  0  0  0  0  0  0  0  0  0  0  0
    2.7710  -12.0140    1.0220 H   0  0  0  0  0  0  0  0  0  0  0  0
    1.7004  -10.6992    0.3433 H   0  0  0  0  0  0  0  0  0  0  0  0
    5.6917  -12.0260   -1.9419 H   0  0  0  0  0  0  0  0  0  0  0  0
    6.2101  -12.7682   -3.4934 H   0  0  0  0  0  0  0  0  0  0  0  0
    5.3741  -11.1783   -3.4934 H   0  0  0  0  0  0  0  0  0  0  0  0
    2.0119  -10.2774   -4.6252 H   0  0  0  0  0  0  0  0  0  0  0  0
    3.2146   -9.7785   -3.7827 H   0  0  0  0  0  0  0  0  0  0  0  0
   11.5371  -14.2200   -2.2273 H   0  0  0  0  0  0  0  0  0  0  0  0
   13.3430  -12.2524   -1.7016 H   0  0  0  0  0  0  0  0  0  0  0  0
   13.2480  -13.2853   -3.1681 H   0  0  0  0  0  0  0  0  0  0  0  0
   12.4958  -11.6541   -3.1681 H   0  0  0  0  0  0  0  0  0  0  0  0
  1  2  1  0
  2  3  2  0
  3  4  1  0
  4  5  1  0
  5  6  1  0
  6  7  1  0
  7  8  1  0
  8  9  1  0
  9 10  1  0
 10 11  2  0
 10 12  1  0
 12 13  2  0
 13 14  1  0
 14 15  2  0
 15 16  1  0
 16 17  1  0
 17 18  1  0
 18 19  1  0
 19 20  1  0
 20 21  1  0
 20 22  2  0
 22 23  1  0
 23 24  2  0
 23 25  1  0
 25 26  1  0
 27 26  1  1
 27 28  1  0
 28 29  1  0
 27 30  1  0
 30 31  1  1
 30 32  1  0
 32 33  1  0
 33 34  1  0
 18 35  1  0
 35 36  1  0
 36 37  1  0
 29  2  1  0
 32 34  1  6
 27  4  1  0
 32  6  1  0
 30  8  1  0
 36 16  1  0
  1 38  1  0
  1 39  1  0
  1 40  1  0
  3 41  1  0
  4 42  1  6
  6 43  1  6
  7 44  1  0
  7 45  1  0
  8 46  1  1
 12 47  1  0
 13 48  1  0
 14 49  1  0
 15 50  1  0
 16 51  1  6
 18 52  1  1
 19 53  1  0
 19 54  1  0
 21 55  1  0
 21 56  1  0
 21 57  1  0
 22 58  1  0
 26 59  1  0
 26 60  1  0
 28 61  1  0
 28 62  1  0
 29 63  1  0
 29 64  1  0
 31 65  1  0
 31 66  1  0
 31 67  1  0
 33 68  1  0
 33 69  1  0
 36 70  1  1
 37 71  1  0
 37 72  1  0
 37 73  1  0
M  END
>  <meeko>  (5) 
{"is_sidechain": [false], "free_energy": -5.66, "intermolecular_energy": -9.282, "internal_energy": -1.02}

$$$$
LIB_IWFOIUWPNYEUAI__M_PUB_ALL__e8__s20260927
     RDKit          3D

 73 78  0  0  0  0  0  0  0  0999 V2000
    5.1610  -19.4210    0.2840 C   0  0  0  0  0  0  0  0  0  0  0  0
    4.6780  -18.0280    0.0010 C   0  0  0  0  0  0  0  0  0  0  0  0
    4.1720  -17.6790   -1.1950 C   0  0  0  0  0  0  0  0  0  0  0  0
    3.6990  -16.2980   -1.5590 C   0  0  1  0  0  0  0  0  0  0  0  0
    2.2780  -16.4230   -1.7180 O   0  0  0  0  0  0  0  0  0  0  0  0
    1.5640  -15.1960   -1.8780 C   0  0  2  0  0  0  0  0  0  0  0  0
    2.1540  -14.3080   -2.9790 C   0  0  0  0  0  0  0  0  0  0  0  0
    3.2070  -13.4210   -2.2620 C   0  0  1  0  0  0  0  0  0  0  0  0
    2.8230  -12.0320   -2.3570 O   0  0  0  0  0  0  0  0  0  0  0  0
    3.6180  -11.2390   -3.1140 C   0  0  0  0  0  0  0  0  0  0  0  0
    4.7170  -10.8060   -2.8070 O   0  0  0  0  0  0  0  0  0  0  0  0
    3.0190  -11.0520   -4.4490 C   0  0  0  0  0  0  0  0  0  0  0  0
    3.4390  -11.6100   -5.5950 C   0  0  0  0  0  0  0  0  0  0  0  0
    4.5190  -12.5610   -5.7450 C   0  0  0  0  0  0  0  0  0  0  0  0
    5.4070  -12.5190   -6.7530 C   0  0  0  0  0  0  0  0  0  0  0  0
    6.5260  -13.5050   -6.9630 C   0  0  1  0  0  0  0  0  0  0  0  0
    6.5430  -14.4820   -5.9170 O   0  0  0  0  0  0  0  0  0  0  0  0
    6.7820  -15.7480   -6.5490 C   0  0  2  0  0  0  0  0  0  0  0  0
    7.8930  -16.5090   -5.8100 C   0  0  0  0  0  0  0  0  0  0  0  0
    7.4700  -16.8690   -4.3920 C   0  0  0  0  0  0  0  0  0  0  0  0
    6.6110  -18.0970   -4.2780 C   0  0  0  0  0  0  0  0  0  0  0  0
    7.8140  -16.0410   -3.3860 C   0  0  0  0  0  0  0  0  0  0  0  0
    7.3030  -16.0590   -1.9880 C   0  0  0  0  0  0  0  0  0  0  0  0
    7.8180  -16.5730   -1.0130 O   0  0  0  0  0  0  0  0  0  0  0  0
    6.0740  -15.4830   -2.0340 O   0  0  0  0  0  0  0  0  0  0  0  0
    5.6480  -14.8760   -0.8100 C   0  0  0  0  0  0  0  0  0  0  0  0
    4.1380  -15.1790   -0.5460 C   0  0  2  0  0  0  0  0  0  0  0  0
    3.9960  -15.7530    0.9020 C   0  0  0  0  0  0  0  0  0  0  0  0
    4.7840  -17.0490    1.1380 C   0  0  0  0  0  0  0  0  0  0  0  0
    3.1990  -13.8830   -0.7460 C   0  0  1  0  0  0  0  0  0  0  0  0
    3.4890  -12.7140    0.2080 C   0  0  0  0  0  0  0  0  0  0  0  0
    1.7710  -14.3910   -0.6480 C   0  0  2  0  0  0  0  0  0  0  0  0
    0.8940  -14.4550    0.5810 C   0  0  0  0  0  0  0  0  0  0  0  0
    0.7510  -13.4130   -0.3960 O   0  0  0  0  0  0  0  0  0  0  0  0
    7.1350  -15.5240   -7.9170 O   0  0  0  0  0  0  0  0  0  0  0  0
    6.4090  -14.3320   -8.2400 C   0  0  2  0  0  0  0  0  0  0  0  0
    7.0050  -13.6690   -9.4670 C   0  0  0  0  0  0  0  0  0  0  0  0
    5.2149  -19.5765    1.3716 H   0  0  0  0  0  0  0  0  0  0  0  0
    4.4624  -20.1478   -0.1561 H   0  0  0  0  0  0  0  0  0  0  0  0
    6.1596  -19.5593   -0.1561 H   0  0  0  0  0  0  0  0  0  0  0  0
    4.0984  -18.4616   -1.9645 H   0  0  0  0  0  0  0  0  0  0  0  0
    4.1734  -15.9471   -2.4873 H   0  0  0  0  0  0  0  0  0  0  0  0
    0.5213  -15.4636   -2.1042 H   0  0  0  0  0  0  0  0  0  0  0  0
    2.6316  -14.9225   -3.7563 H   0  0  0  0  0  0  0  0  0  0  0  0
    1.3820  -13.7067   -3.4815 H   0  0  0  0  0  0  0  0  0  0  0  0
    4.2050  -13.5249   -2.7129 H   0  0  0  0  0  0  0  0  0  0  0  0
    2.1423  -10.3905   -4.5113 H   0  0  0  0  0  0  0  0  0  0  0  0
    2.9089  -11.3147   -6.5125 H   0  0  0  0  0  0  0  0  0  0  0  0
    4.6185  -13.3597   -4.9953 H   0  0  0  0  0  0  0  0  0  0  0  0
    5.3089  -11.7006   -7.4815 H   0  0  0  0  0  0  0  0  0  0  0  0
    7.4243  -12.8712   -7.0000 H   0  0  0  0  0  0  0  0  0  0  0  0
    5.8714  -16.3638   -6.5095 H   0  0  0  0  0  0  0  0  0  0  0  0
    8.1216  -17.4332   -6.3610 H   0  0  0  0  0  0  0  0  0  0  0  0
    8.7792  -15.8598   -5.7531 H   0  0  0  0  0  0  0  0  0  0  0  0
    6.4465  -18.3321   -3.2161 H   0  0  0  0  0  0  0  0  0  0  0  0
    5.6429  -17.9140   -4.7672 H   0  0  0  0  0  0  0  0  0  0  0  0
    7.1148  -18.9436   -4.7672 H   0  0  0  0  0  0  0  0  0  0  0  0
    8.5558  -15.2646   -3.6247 H   0  0  0  0  0  0  0  0  0  0  0  0
    6.2482  -15.2760    0.0206 H   0  0  0  0  0  0  0  0  0  0  0  0
    5.7845  -13.7872   -0.8862 H   0  0  0  0  0  0  0  0  0  0  0  0
    4.3567  -14.9943    1.6121 H   0  0  0  0  0  0  0  0  0  0  0  0
    2.9328  -15.9953    1.0463 H   0  0  0  0  0  0  0  0  0  0  0  0
    5.8442  -16.7917    1.2789 H   0  0  0  0  0  0  0  0  0  0  0  0
    4.3524  -17.5344    2.0258 H   0  0  0  0  0  0  0  0  0  0  0  0
    3.4032  -13.0600    1.2486 H   0  0  0  0  0  0  0  0  0  0  0  0
    4.5074  -12.3388    0.0292 H   0  0  0  0  0  0  0  0  0  0  0  0
    2.7640  -11.9063    0.0292 H   0  0  0  0  0  0  0  0  0  0  0  0
    0.1261  -15.2370    0.6745 H   0  0  0  0  0  0  0  0  0  0  0  0
    1.0616  -14.4992    1.6673 H   0  0  0  0  0  0  0  0  0  0  0  0
    5.3554  -14.4907   -8.5134 H   0  0  0  0  0  0  0  0  0  0  0  0
    7.7100  -12.8848   -9.1540 H   0  0  0  0  0  0  0  0  0  0  0  0
    7.5366  -14.4211  -10.0684 H   0  0  0  0  0  0  0  0  0  0  0  0
    6.2007  -13.2203  -10.0684 H   0  0  0  0  0  0  0  0  0  0  0  0
  1  2  1  0
  2  3  2  0
  3  4  1  0
  4  5  1  0
  5  6  1  0
  6  7  1  0
  7  8  1  0
  8  9  1  0
  9 10  1  0
 10 11  2  0
 10 12  1  0
 12 13  2  0
 13 14  1  0
 14 15  2  0
 15 16  1  0
 16 17  1  0
 17 18  1  0
 18 19  1  0
 19 20  1  0
 20 21  1  0
 20 22  2  0
 22 23  1  0
 23 24  2  0
 23 25  1  0
 25 26  1  0
 27 26  1  6
 27 28  1  0
 28 29  1  0
 27 30  1  0
 30 31  1  1
 30 32  1  0
 32 33  1  0
 33 34  1  0
 18 35  1  0
 35 36  1  0
 36 37  1  0
 29  2  1  0
 32 34  1  6
 27  4  1  0
 32  6  1  0
 30  8  1  0
 36 16  1  0
  1 38  1  0
  1 39  1  0
  1 40  1  0
  3 41  1  0
  4 42  1  6
  6 43  1  6
  7 44  1  0
  7 45  1  0
  8 46  1  6
 12 47  1  0
 13 48  1  0
 14 49  1  0
 15 50  1  0
 16 51  1  6
 18 52  1  6
 19 53  1  0
 19 54  1  0
 21 55  1  0
 21 56  1  0
 21 57  1  0
 22 58  1  0
 26 59  1  0
 26 60  1  0
 28 61  1  0
 28 62  1  0
 29 63  1  0
 29 64  1  0
 31 65  1  0
 31 66  1  0
 31 67  1  0
 33 68  1  0
 33 69  1  0
 36 70  1  6
 37 71  1  0
 37 72  1  0
 37 73  1  0
M  END
>  <meeko>  (6) 
{"is_sidechain": [false], "free_energy": -5.609, "intermolecular_energy": -8.574, "internal_energy": -1.647}

$$$$
LIB_IWFOIUWPNYEUAI__M_PUB_ALL__e8__s20260927
     RDKit          3D

 73 78  0  0  0  0  0  0  0  0999 V2000
    6.6150  -10.8520    1.2000 C   0  0  0  0  0  0  0  0  0  0  0  0
    6.4600  -11.5480   -0.1210 C   0  0  0  0  0  0  0  0  0  0  0  0
    5.8030  -12.7150   -0.2400 C   0  0  0  0  0  0  0  0  0  0  0  0
    5.6360  -13.4820   -1.5220 C   0  0  1  0  0  0  0  0  0  0  0  0
    4.2350  -13.4040   -1.8220 O   0  0  0  0  0  0  0  0  0  0  0  0
    3.8480  -13.8980   -3.1050 C   0  0  2  0  0  0  0  0  0  0  0  0
    4.3810  -15.3080   -3.3810 C   0  0  0  0  0  0  0  0  0  0  0  0
    5.7640  -15.0930   -4.0530 C   0  0  1  0  0  0  0  0  0  0  0  0
    5.7450  -15.6260   -5.3950 O   0  0  0  0  0  0  0  0  0  0  0  0
    6.2940  -16.8520   -5.5630 C   0  0  0  0  0  0  0  0  0  0  0  0
    6.5160  -17.6750   -4.6900 O   0  0  0  0  0  0  0  0  0  0  0  0
    6.4890  -17.1240   -7.0000 C   0  0  0  0  0  0  0  0  0  0  0  0
    7.4340  -16.5900   -7.7900 C   0  0  0  0  0  0  0  0  0  0  0  0
    8.4950  -15.6970   -7.3800 C   0  0  0  0  0  0  0  0  0  0  0  0
    9.4180  -15.2070   -8.2260 C   0  0  0  0  0  0  0  0  0  0  0  0
   10.5550  -14.2990   -7.8370 C   0  0  1  0  0  0  0  0  0  0  0  0
   10.8130  -14.3850   -6.4310 O   0  0  0  0  0  0  0  0  0  0  0  0
   12.2390  -14.4200   -6.2830 C   0  0  2  0  0  0  0  0  0  0  0  0
   12.6870  -13.4150   -5.2110 C   0  0  0  0  0  0  0  0  0  0  0  0
   11.9730  -13.6590   -3.8880 C   0  0  0  0  0  0  0  0  0  0  0  0
   12.1280  -15.0470   -3.3300 C   0  0  0  0  0  0  0  0  0  0  0  0
   11.2100  -12.6750   -3.3740 C   0  0  0  0  0  0  0  0  0  0  0  0
   10.2240  -12.7730   -2.2630 C   0  0  0  0  0  0  0  0  0  0  0  0
   10.4520  -13.0530   -1.1020 O   0  0  0  0  0  0  0  0  0  0  0  0
    8.9960  -12.6000   -2.8190 O   0  0  0  0  0  0  0  0  0  0  0  0
    8.0070  -13.5420   -2.3950 C   0  0  0  0  0  0  0  0  0  0  0  0
    6.5720  -12.9970   -2.6890 C   0  0  2  0  0  0  0  0  0  0  0  0
    6.6200  -11.4340   -2.6540 C   0  0  0  0  0  0  0  0  0  0  0  0
    7.0750  -10.8560   -1.3080 C   0  0  0  0  0  0  0  0  0  0  0  0
    5.9830  -13.5240   -4.0960 C   0  0  1  0  0  0  0  0  0  0  0  0
    6.7780  -13.0930   -5.3370 C   0  0  0  0  0  0  0  0  0  0  0  0
    4.5340  -13.0710   -4.1300 C   0  0  2  0  0  0  0  0  0  0  0  0
    3.9750  -11.7990   -4.7250 C   0  0  0  0  0  0  0  0  0  0  0  0
    3.8900  -13.0550   -5.4130 O   0  0  0  0  0  0  0  0  0  0  0  0
   12.8450  -14.1280   -7.5460 O   0  0  0  0  0  0  0  0  0  0  0  0
   11.8930  -14.6500   -8.4800 C   0  0  2  0  0  0  0  0  0  0  0  0
   12.1060  -14.0310   -9.8490 C   0  0  0  0  0  0  0  0  0  0  0  0
    6.4545  -11.5728    2.0153 H   0  0  0  0  0  0  0  0  0  0  0  0
    7.6287  -10.4318    1.2764 H   0  0  0  0  0  0  0  0  0  0  0  0
    5.8754  -10.0414    1.2764 H   0  0  0  0  0  0  0  0  0  0  0  0
    5.3538  -13.1406    0.6694 H   0  0  0  0  0  0  0  0  0  0  0  0
    5.9593  -14.5268   -1.4043 H   0  0  0  0  0  0  0  0  0  0  0  0
    2.7485  -13.8804   -3.1334 H   0  0  0  0  0  0  0  0  0  0  0  0
    4.4911  -15.8700   -2.4418 H   0  0  0  0  0  0  0  0  0  0  0  0
    3.6987  -15.8891   -4.0188 H   0  0  0  0  0  0  0  0  0  0  0  0
    6.5696  -15.6006   -3.5022 H   0  0  0  0  0  0  0  0  0  0  0  0
    5.7921  -17.8336   -7.4699 H   0  0  0  0  0  0  0  0  0  0  0  0
    7.3976  -16.8587   -8.8561 H   0  0  0  0  0  0  0  0  0  0  0  0
    8.5497  -15.4035   -6.3213 H   0  0  0  0  0  0  0  0  0  0  0  0
    9.3363  -15.4916   -9.2854 H   0  0  0  0  0  0  0  0  0  0  0  0
   10.2190  -13.3068   -8.1726 H   0  0  0  0  0  0  0  0  0  0  0  0
   12.5558  -15.4214   -5.9563 H   0  0  0  0  0  0  0  0  0  0  0  0
   13.7714  -13.5161   -5.0565 H   0  0  0  0  0  0  0  0  0  0  0  0
   12.4351  -12.4023   -5.5589 H   0  0  0  0  0  0  0  0  0  0  0  0
   12.1231  -15.0030   -2.2309 H   0  0  0  0  0  0  0  0  0  0  0  0
   11.2945  -15.6763   -3.6755 H   0  0  0  0  0  0  0  0  0  0  0  0
   13.0797  -15.4769   -3.6755 H   0  0  0  0  0  0  0  0  0  0  0  0
   11.3298  -11.6809   -3.8294 H   0  0  0  0  0  0  0  0  0  0  0  0
    8.1528  -14.4885   -2.9361 H   0  0  0  0  0  0  0  0  0  0  0  0
    8.1113  -13.7049   -1.3121 H   0  0  0  0  0  0  0  0  0  0  0  0
    7.3183  -11.0915   -3.4318 H   0  0  0  0  0  0  0  0  0  0  0  0
    5.5926  -11.0792   -2.8228 H   0  0  0  0  0  0  0  0  0  0  0  0
    8.1687  -10.9519   -1.2393 H   0  0  0  0  0  0  0  0  0  0  0  0
    6.7466   -9.8066   -1.2779 H   0  0  0  0  0  0  0  0  0  0  0  0
    7.7047  -12.5906   -5.0226 H   0  0  0  0  0  0  0  0  0  0  0  0
    7.0275  -13.9794   -5.9387 H   0  0  0  0  0  0  0  0  0  0  0  0
    6.1714  -12.4002   -5.9387 H   0  0  0  0  0  0  0  0  0  0  0  0
    3.0719  -11.3375   -4.2991 H   0  0  0  0  0  0  0  0  0  0  0  0
    4.3686  -10.7984   -4.9573 H   0  0  0  0  0  0  0  0  0  0  0  0
   11.9707  -15.7315   -8.6650 H   0  0  0  0  0  0  0  0  0  0  0  0
   12.4619  -12.9967   -9.7324 H   0  0  0  0  0  0  0  0  0  0  0  0
   12.8545  -14.6160  -10.4035 H   0  0  0  0  0  0  0  0  0  0  0  0
   11.1560  -14.0315  -10.4035 H   0  0  0  0  0  0  0  0  0  0  0  0
  1  2  1  0
  2  3  2  0
  3  4  1  0
  4  5  1  0
  5  6  1  0
  6  7  1  0
  7  8  1  0
  8  9  1  0
  9 10  1  0
 10 11  2  0
 10 12  1  0
 12 13  2  0
 13 14  1  0
 14 15  2  0
 15 16  1  0
 16 17  1  0
 17 18  1  0
 18 19  1  0
 19 20  1  0
 20 21  1  0
 20 22  2  0
 22 23  1  0
 23 24  2  0
 23 25  1  0
 25 26  1  0
 27 26  1  1
 27 28  1  0
 28 29  1  0
 27 30  1  0
 30 31  1  6
 30 32  1  0
 32 33  1  0
 33 34  1  0
 18 35  1  0
 35 36  1  0
 36 37  1  0
 29  2  1  0
 32 34  1  6
 27  4  1  0
 32  6  1  0
 30  8  1  0
 36 16  1  0
  1 38  1  0
  1 39  1  0
  1 40  1  0
  3 41  1  0
  4 42  1  1
  6 43  1  6
  7 44  1  0
  7 45  1  0
  8 46  1  1
 12 47  1  0
 13 48  1  0
 14 49  1  0
 15 50  1  0
 16 51  1  1
 18 52  1  1
 19 53  1  0
 19 54  1  0
 21 55  1  0
 21 56  1  0
 21 57  1  0
 22 58  1  0
 26 59  1  0
 26 60  1  0
 28 61  1  0
 28 62  1  0
 29 63  1  0
 29 64  1  0
 31 65  1  0
 31 66  1  0
 31 67  1  0
 33 68  1  0
 33 69  1  0
 36 70  1  6
 37 71  1  0
 37 72  1  0
 37 73  1  0
M  END
>  <meeko>  (7) 
{"is_sidechain": [false], "free_energy": -5.602, "intermolecular_energy": -8.945, "internal_energy": -1.265}

$$$$
LIB_IWFOIUWPNYEUAI__M_PUB_ALL__e8__s20260927
     RDKit          3D

 73 78  0  0  0  0  0  0  0  0999 V2000
   -2.6650   -9.6540    1.2960 C   0  0  0  0  0  0  0  0  0  0  0  0
   -2.1500  -11.0580    1.4290 C   0  0  0  0  0  0  0  0  0  0  0  0
   -2.1410  -11.7050    2.6080 C   0  0  0  0  0  0  0  0  0  0  0  0
   -1.6140  -13.0980    2.8210 C   0  0  1  0  0  0  0  0  0  0  0  0
   -2.7700  -13.8900    3.1280 O   0  0  0  0  0  0  0  0  0  0  0  0
   -2.5560  -15.3010    3.1850 C   0  0  2  0  0  0  0  0  0  0  0  0
   -1.3820  -15.6850    4.0920 C   0  0  0  0  0  0  0  0  0  0  0  0
   -0.1380  -15.6900    3.1640 C   0  0  1  0  0  0  0  0  0  0  0  0
    0.4220  -17.0200    3.1020 O   0  0  0  0  0  0  0  0  0  0  0  0
    1.4650  -17.2720    3.9280 C   0  0  0  0  0  0  0  0  0  0  0  0
    1.8140  -16.6000    4.8840 O   0  0  0  0  0  0  0  0  0  0  0  0
    2.0770  -18.5690    3.5840 C   0  0  0  0  0  0  0  0  0  0  0  0
    2.8550  -18.8250    2.5200 C   0  0  0  0  0  0  0  0  0  0  0  0
    3.3090  -17.8690    1.5350 C   0  0  0  0  0  0  0  0  0  0  0  0
    4.5080  -17.9390    0.9330 C   0  0  0  0  0  0  0  0  0  0  0  0
    5.0320  -16.9500   -0.0750 C   0  0  1  0  0  0  0  0  0  0  0  0
    4.7210  -15.6100    0.3240 O   0  0  0  0  0  0  0  0  0  0  0  0
    5.8960  -14.8280    0.0660 C   0  0  2  0  0  0  0  0  0  0  0  0
    5.5250  -13.5440   -0.6890 C   0  0  0  0  0  0  0  0  0  0  0  0
    4.5280  -12.7050    0.0990 C   0  0  0  0  0  0  0  0  0  0  0  0
    4.9760  -12.3210    1.4820 C   0  0  0  0  0  0  0  0  0  0  0  0
    3.3240  -12.4470   -0.4480 C   0  0  0  0  0  0  0  0  0  0  0  0
    2.1100  -11.8810    0.2140 C   0  0  0  0  0  0  0  0  0  0  0  0
    1.9510  -10.7380    0.5990 O   0  0  0  0  0  0  0  0  0  0  0  0
    1.2540  -12.9180    0.4070 O   0  0  0  0  0  0  0  0  0  0  0  0
    0.6480  -12.9640    1.7020 C   0  0  0  0  0  0  0  0  0  0  0  0
   -0.7540  -13.6500    1.6260 C   0  0  2  0  0  0  0  0  0  0  0  0
   -1.4430  -13.2170    0.2910 C   0  0  0  0  0  0  0  0  0  0  0  0
   -1.6550  -11.7020    0.1620 C   0  0  0  0  0  0  0  0  0  0  0  0
   -0.6660  -15.2580    1.7340 C   0  0  1  0  0  0  0  0  0  0  0  0
    0.1170  -15.9440    0.6040 C   0  0  0  0  0  0  0  0  0  0  0  0
   -2.1020  -15.7410    1.8410 C   0  0  2  0  0  0  0  0  0  0  0  0
   -3.0200  -16.1740    0.7210 C   0  0  0  0  0  0  0  0  0  0  0  0
   -2.3430  -17.1270    1.5540 O   0  0  0  0  0  0  0  0  0  0  0  0
    6.8230  -15.6170   -0.6870 O   0  0  0  0  0  0  0  0  0  0  0  0
    6.5500  -16.9470   -0.2290 C   0  0  2  0  0  0  0  0  0  0  0  0
    7.0750  -17.9640   -1.2250 C   0  0  0  0  0  0  0  0  0  0  0  0
   -2.8224   -9.2249    2.2965 H   0  0  0  0  0  0  0  0  0  0  0  0
   -1.9317   -9.0449    0.7470 H   0  0  0  0  0  0  0  0  0  0  0  0
   -3.6182   -9.6635    0.7470 H   0  0  0  0  0  0  0  0  0  0  0  0
   -2.5494  -11.1762    3.4818 H   0  0  0  0  0  0  0  0  0  0  0  0
   -0.8848  -13.1252    3.6441 H   0  0  0  0  0  0  0  0  0  0  0  0
   -3.4939  -15.7497    3.5440 H   0  0  0  0  0  0  0  0  0  0  0  0
   -1.2593  -14.9467    4.8981 H   0  0  0  0  0  0  0  0  0  0  0  0
   -1.5380  -16.6599    4.5770 H   0  0  0  0  0  0  0  0  0  0  0  0
    0.6474  -15.0120    3.5294 H   0  0  0  0  0  0  0  0  0  0  0  0
    1.8765  -19.4087    4.2657 H   0  0  0  0  0  0  0  0  0  0  0  0
    3.1797  -19.8672    2.3841 H   0  0  0  0  0  0  0  0  0  0  0  0
    2.6375  -17.0409    1.2643 H   0  0  0  0  0  0  0  0  0  0  0  0
    5.1586  -18.7857    1.1972 H   0  0  0  0  0  0  0  0  0  0  0  0
    4.5545  -17.2620   -1.0156 H   0  0  0  0  0  0  0  0  0  0  0  0
    6.3644  -14.5333    1.0167 H   0  0  0  0  0  0  0  0  0  0  0  0
    6.4366  -12.9519   -0.8578 H   0  0  0  0  0  0  0  0  0  0  0  0
    5.0605  -13.8264   -1.6453 H   0  0  0  0  0  0  0  0  0  0  0  0
    4.3610  -12.8482    2.2262 H   0  0  0  0  0  0  0  0  0  0  0  0
    6.0319  -12.5989    1.6158 H   0  0  0  0  0  0  0  0  0  0  0  0
    4.8629  -11.2350    1.6158 H   0  0  0  0  0  0  0  0  0  0  0  0
    3.2219  -12.6830   -1.5175 H   0  0  0  0  0  0  0  0  0  0  0  0
    1.2944  -13.5359    2.3840 H   0  0  0  0  0  0  0  0  0  0  0  0
    0.5215  -11.9360    2.0724 H   0  0  0  0  0  0  0  0  0  0  0  0
   -0.8141  -13.5511   -0.5473 H   0  0  0  0  0  0  0  0  0  0  0  0
   -2.4406  -13.6804    0.2822 H   0  0  0  0  0  0  0  0  0  0  0  0
   -0.6965  -11.2380   -0.1136 H   0  0  0  0  0  0  0  0  0  0  0  0
   -2.4280  -11.5463   -0.6050 H   0  0  0  0  0  0  0  0  0  0  0  0
    0.8776  -16.6104    1.0370 H   0  0  0  0  0  0  0  0  0  0  0  0
   -0.5749  -16.5319   -0.0170 H   0  0  0  0  0  0  0  0  0  0  0  0
    0.6089  -15.1808   -0.0170 H   0  0  0  0  0  0  0  0  0  0  0  0
   -4.1074  -16.0337    0.8093 H   0  0  0  0  0  0  0  0  0  0  0  0
   -3.0897  -15.9813   -0.3597 H   0  0  0  0  0  0  0  0  0  0  0  0
    7.0440  -17.2228    0.7143 H   0  0  0  0  0  0  0  0  0  0  0  0
    7.5142  -18.8147   -0.6834 H   0  0  0  0  0  0  0  0  0  0  0  0
    6.2476  -18.3193   -1.8569 H   0  0  0  0  0  0  0  0  0  0  0  0
    7.8438  -17.4953   -1.8569 H   0  0  0  0  0  0  0  0  0  0  0  0
  1  2  1  0
  2  3  2  0
  3  4  1  0
  4  5  1  0
  5  6  1  0
  6  7  1  0
  7  8  1  0
  8  9  1  0
  9 10  1  0
 10 11  2  0
 10 12  1  0
 12 13  2  0
 13 14  1  0
 14 15  2  0
 15 16  1  0
 16 17  1  0
 17 18  1  0
 18 19  1  0
 19 20  1  0
 20 21  1  0
 20 22  2  0
 22 23  1  0
 23 24  2  0
 23 25  1  0
 25 26  1  0
 27 26  1  6
 27 28  1  0
 28 29  1  0
 27 30  1  0
 30 31  1  6
 30 32  1  0
 32 33  1  0
 33 34  1  0
 18 35  1  0
 35 36  1  0
 36 37  1  0
 29  2  1  0
 32 34  1  1
 27  4  1  0
 32  6  1  0
 30  8  1  0
 36 16  1  0
  1 38  1  0
  1 39  1  0
  1 40  1  0
  3 41  1  0
  4 42  1  1
  6 43  1  1
  7 44  1  0
  7 45  1  0
  8 46  1  1
 12 47  1  0
 13 48  1  0
 14 49  1  0
 15 50  1  0
 16 51  1  6
 18 52  1  1
 19 53  1  0
 19 54  1  0
 21 55  1  0
 21 56  1  0
 21 57  1  0
 22 58  1  0
 26 59  1  0
 26 60  1  0
 28 61  1  0
 28 62  1  0
 29 63  1  0
 29 64  1  0
 31 65  1  0
 31 66  1  0
 31 67  1  0
 33 68  1  0
 33 69  1  0
 36 70  1  1
 37 71  1  0
 37 72  1  0
 37 73  1  0
M  END
>  <meeko>  (8) 
{"is_sidechain": [false], "free_energy": -5.572, "intermolecular_energy": -8.802, "internal_energy": -1.361}

$$$$
LIB_IWFOIUWPNYEUAI__M_PUB_ALL__e8__s20260927
     RDKit          3D

 73 78  0  0  0  0  0  0  0  0999 V2000
    2.4980  -18.9940    3.3700 C   0  0  0  0  0  0  0  0  0  0  0  0
    2.2080  -17.7510    2.5790 C   0  0  0  0  0  0  0  0  0  0  0  0
    2.1980  -17.7480    1.2340 C   0  0  0  0  0  0  0  0  0  0  0  0
    1.9470  -16.5370    0.3780 C   0  0  1  0  0  0  0  0  0  0  0  0
    0.6840  -16.7860   -0.2550 O   0  0  0  0  0  0  0  0  0  0  0  0
    0.1270  -15.6870   -0.9790 C   0  0  2  0  0  0  0  0  0  0  0  0
    1.1180  -15.0720   -1.9730 C   0  0  0  0  0  0  0  0  0  0  0  0
    1.8610  -13.9690   -1.1740 C   0  0  1  0  0  0  0  0  0  0  0  0
    1.5940  -12.6750   -1.7580 O   0  0  0  0  0  0  0  0  0  0  0  0
    2.6240  -12.0850   -2.4090 C   0  0  0  0  0  0  0  0  0  0  0  0
    3.6340  -11.6230   -1.9040 O   0  0  0  0  0  0  0  0  0  0  0  0
    2.4180  -12.1770   -3.8670 C   0  0  0  0  0  0  0  0  0  0  0  0
    2.9880  -13.0650   -4.6970 C   0  0  0  0  0  0  0  0  0  0  0  0
    3.8620  -14.1550   -4.3230 C   0  0  0  0  0  0  0  0  0  0  0  0
    5.0710  -14.3550   -4.8750 C   0  0  0  0  0  0  0  0  0  0  0  0
    6.0000  -15.4920   -4.5370 C   0  0  1  0  0  0  0  0  0  0  0  0
    5.7530  -15.9700   -3.2100 O   0  0  0  0  0  0  0  0  0  0  0  0
    5.8000  -17.4020   -3.2800 C   0  0  2  0  0  0  0  0  0  0  0  0
    6.6890  -17.9600   -2.1590 C   0  0  0  0  0  0  0  0  0  0  0  0
    6.1940  -17.5190   -0.7880 C   0  0  0  0  0  0  0  0  0  0  0  0
    5.5360  -18.5980    0.0270 C   0  0  0  0  0  0  0  0  0  0  0  0
    6.3030  -16.2200   -0.4490 C   0  0  0  0  0  0  0  0  0  0  0  0
    5.6650  -15.5290    0.6890 C   0  0  0  0  0  0  0  0  0  0  0  0
    6.1880  -15.1630    1.7240 O   0  0  0  0  0  0  0  0  0  0  0  0
    4.3400  -15.4720    0.3960 O   0  0  0  0  0  0  0  0  0  0  0  0
    3.5290  -14.8530    1.3990 C   0  0  0  0  0  0  0  0  0  0  0  0
    2.0190  -15.1730    1.1560 C   0  0  2  0  0  0  0  0  0  0  0  0
    1.3260  -15.3680    2.5450 C   0  0  0  0  0  0  0  0  0  0  0  0
    1.9190  -16.5110    3.3810 C   0  0  0  0  0  0  0  0  0  0  0  0
    1.2720  -14.0310    0.2960 C   0  0  1  0  0  0  0  0  0  0  0  0
    1.2300  -12.6430    0.9540 C   0  0  0  0  0  0  0  0  0  0  0  0
   -0.1080  -14.5850   -0.0120 C   0  0  2  0  0  0  0  0  0  0  0  0
   -1.3820  -14.3900    0.7780 C   0  0  0  0  0  0  0  0  0  0  0  0
   -1.1110  -13.6400   -0.4160 O   0  0  0  0  0  0  0  0  0  0  0  0
    6.2930  -17.7880   -4.5670 O   0  0  0  0  0  0  0  0  0  0  0  0
    5.8290  -16.7300   -5.4130 C   0  0  2  0  0  0  0  0  0  0  0  0
    6.6310  -16.6960   -6.7000 C   0  0  0  0  0  0  0  0  0  0  0  0
    2.4447  -18.7655    4.4447 H   0  0  0  0  0  0  0  0  0  0  0  0
    1.7562  -19.7676    3.1224 H   0  0  0  0  0  0  0  0  0  0  0  0
    3.5055  -19.3595    3.1224 H   0  0  0  0  0  0  0  0  0  0  0  0
    2.3876  -18.7028    0.7217 H   0  0  0  0  0  0  0  0  0  0  0  0
    2.7455  -16.4043   -0.3668 H   0  0  0  0  0  0  0  0  0  0  0  0
   -0.7658  -16.0677   -1.4967 H   0  0  0  0  0  0  0  0  0  0  0  0
    1.8270  -15.8326   -2.3319 H   0  0  0  0  0  0  0  0  0  0  0  0
    0.6120  -14.6667   -2.8617 H   0  0  0  0  0  0  0  0  0  0  0  0
    2.9502  -14.1223   -1.1827 H   0  0  0  0  0  0  0  0  0  0  0  0
    1.7302  -11.4466   -4.3181 H   0  0  0  0  0  0  0  0  0  0  0  0
    2.7683  -12.9523   -5.7689 H   0  0  0  0  0  0  0  0  0  0  0  0
    3.5198  -14.8559   -3.5474 H   0  0  0  0  0  0  0  0  0  0  0  0
    5.4085  -13.6323   -5.6325 H   0  0  0  0  0  0  0  0  0  0  0  0
    7.0009  -15.0585   -4.6796 H   0  0  0  0  0  0  0  0  0  0  0  0
    4.7901  -17.8161   -3.1434 H   0  0  0  0  0  0  0  0  0  0  0  0
    6.6787  -19.0589   -2.2071 H   0  0  0  0  0  0  0  0  0  0  0  0
    7.7091  -17.5735   -2.3004 H   0  0  0  0  0  0  0  0  0  0  0  0
    5.6682  -18.3812    1.0973 H   0  0  0  0  0  0  0  0  0  0  0  0
    4.4624  -18.6334   -0.2101 H   0  0  0  0  0  0  0  0  0  0  0  0
    5.9961  -19.5686   -0.2101 H   0  0  0  0  0  0  0  0  0  0  0  0
    6.9424  -15.6014   -1.0960 H   0  0  0  0  0  0  0  0  0  0  0  0
    3.8247  -15.2320    2.3884 H   0  0  0  0  0  0  0  0  0  0  0  0
    3.6740  -13.7636    1.3514 H   0  0  0  0  0  0  0  0  0  0  0  0
    1.4259  -14.4332    3.1162 H   0  0  0  0  0  0  0  0  0  0  0  0
    0.2767  -15.6302    2.3443 H   0  0  0  0  0  0  0  0  0  0  0  0
    2.8589  -16.1611    3.8328 H   0  0  0  0  0  0  0  0  0  0  0  0
    1.1689  -16.7820    4.1385 H   0  0  0  0  0  0  0  0  0  0  0  0
    1.2334  -12.7557    2.0482 H   0  0  0  0  0  0  0  0  0  0  0  0
    2.1110  -12.0627    0.6424 H   0  0  0  0  0  0  0  0  0  0  0  0
    0.3155  -12.1170    0.6424 H   0  0  0  0  0  0  0  0  0  0  0  0
   -2.1586  -15.1690    0.7795 H   0  0  0  0  0  0  0  0  0  0  0  0
   -1.6330  -14.1472    1.8211 H   0  0  0  0  0  0  0  0  0  0  0  0
    4.7883  -16.8322   -5.7542 H   0  0  0  0  0  0  0  0  0  0  0  0
    7.7040  -16.6505   -6.4623 H   0  0  0  0  0  0  0  0  0  0  0  0
    6.4233  -17.6038   -7.2855 H   0  0  0  0  0  0  0  0  0  0  0  0
    6.3472  -15.8091   -7.2855 H   0  0  0  0  0  0  0  0  0  0  0  0
  1  2  1  0
  2  3  2  0
  3  4  1  0
  4  5  1  0
  5  6  1  0
  6  7  1  0
  7  8  1  0
  8  9  1  0
  9 10  1  0
 10 11  2  0
 10 12  1  0
 12 13  2  0
 13 14  1  0
 14 15  2  0
 15 16  1  0
 16 17  1  0
 17 18  1  0
 18 19  1  0
 19 20  1  0
 20 21  1  0
 20 22  2  0
 22 23  1  0
 23 24  2  0
 23 25  1  0
 25 26  1  0
 27 26  1  1
 27 28  1  0
 28 29  1  0
 27 30  1  0
 30 31  1  1
 30 32  1  0
 32 33  1  0
 33 34  1  0
 18 35  1  0
 35 36  1  0
 36 37  1  0
 29  2  1  0
 32 34  1  6
 27  4  1  0
 32  6  1  0
 30  8  1  0
 36 16  1  0
  1 38  1  0
  1 39  1  0
  1 40  1  0
  3 41  1  0
  4 42  1  6
  6 43  1  6
  7 44  1  0
  7 45  1  0
  8 46  1  1
 12 47  1  0
 13 48  1  0
 14 49  1  0
 15 50  1  0
 16 51  1  1
 18 52  1  1
 19 53  1  0
 19 54  1  0
 21 55  1  0
 21 56  1  0
 21 57  1  0
 22 58  1  0
 26 59  1  0
 26 60  1  0
 28 61  1  0
 28 62  1  0
 29 63  1  0
 29 64  1  0
 31 65  1  0
 31 66  1  0
 31 67  1  0
 33 68  1  0
 33 69  1  0
 36 70  1  6
 37 71  1  0
 37 72  1  0
 37 73  1  0
M  END
>  <meeko>  (9) 
{"is_sidechain": [false], "free_energy": -5.528, "intermolecular_energy": -8.706, "internal_energy": -1.387}

$$$$
