LIB_BCNXUFFSRWFFQA__M_PUB_ALL__e8__s20260927
     RDKit          3D

 84 89  0  0  0  0  0  0  0  0999 V2000
    6.6650  -11.6420   -0.1700 C   0  0  0  0  0  0  0  0  0  0  0  0
    6.4380  -12.1410   -1.5750 C   0  0  0  0  0  0  0  0  0  0  0  0
    5.4760  -11.4870   -2.3700 C   0  0  0  0  0  0  0  0  0  0  0  0
    5.2430  -11.8870   -3.6840 C   0  0  0  0  0  0  0  0  0  0  0  0
    5.9490  -12.9730   -4.1940 C   0  0  0  0  0  0  0  0  0  0  0  0
    5.8700  -13.3190   -5.6290 C   0  0  0  0  0  0  0  0  0  0  0  0
    4.8180  -13.0620   -6.2230 O   0  0  0  0  0  0  0  0  0  0  0  0
    7.0180  -13.8520   -6.1630 N   0  0  0  0  0  0  0  0  0  0  0  0
    7.1660  -14.4470   -7.4300 C   0  0  0  0  0  0  0  0  0  0  0  0
    7.5380  -15.7810   -7.6080 C   0  0  0  0  0  0  0  0  0  0  0  0
    7.6940  -16.3050   -8.8950 C   0  0  0  0  0  0  0  0  0  0  0  0
    7.4760  -15.4980  -10.0100 C   0  0  0  0  0  0  0  0  0  0  0  0
    7.1140  -14.1540   -9.8520 C   0  0  0  0  0  0  0  0  0  0  0  0
    6.9120  -13.2600  -11.0560 C   0  0  0  0  0  0  0  0  0  0  0  0
    7.9490  -13.3350  -11.9280 F   0  0  0  0  0  0  0  0  0  0  0  0
    5.7880  -13.5620  -11.7590 F   0  0  0  0  0  0  0  0  0  0  0  0
    6.7980  -11.9480  -10.7090 F   0  0  0  0  0  0  0  0  0  0  0  0
    6.9780  -13.6340   -8.5530 C   0  0  0  0  0  0  0  0  0  0  0  0
    6.8630  -13.6650   -3.3960 C   0  0  0  0  0  0  0  0  0  0  0  0
    7.1720  -13.2260   -2.1060 C   0  0  0  0  0  0  0  0  0  0  0  0
    8.2020  -13.8280   -1.3540 N   0  0  0  0  0  0  0  0  0  0  0  0
    9.4580  -13.3660   -1.1120 C   0  0  0  0  0  0  0  0  0  0  0  0
    9.9400  -12.8600    0.0030 N   0  0  0  0  0  0  0  0  0  0  0  0
   11.1100  -12.2430   -0.3630 C   0  0  0  0  0  0  0  0  0  0  0  0
   11.9520  -11.4230    0.4050 C   0  0  0  0  0  0  0  0  0  0  0  0
   13.1100  -10.9040   -0.1840 C   0  0  0  0  0  0  0  0  0  0  0  0
   13.4310  -11.2040   -1.5070 C   0  0  0  0  0  0  0  0  0  0  0  0
   12.6120  -12.0280   -2.2850 C   0  0  0  0  0  0  0  0  0  0  0  0
   11.4450  -12.5270   -1.6870 C   0  0  0  0  0  0  0  0  0  0  0  0
   10.4490  -13.3960   -2.1000 N   0  0  0  0  0  0  0  0  0  0  0  0
   10.5080  -14.3400   -3.1720 C   0  0  0  0  0  0  0  0  0  0  0  0
   10.1050  -15.5920   -2.9820 N   0  0  0  0  0  0  0  0  0  0  0  0
   10.0000  -16.3070   -4.1010 C   0  0  0  0  0  0  0  0  0  0  0  0
   10.1630  -15.8460   -5.3420 N   0  0  0  0  0  0  0  0  0  0  0  0
   10.5340  -14.5830   -5.4310 C   0  0  0  0  0  0  0  0  0  0  0  0
   10.5490  -14.0050   -6.6750 N   0  0  0  0  0  0  0  0  0  0  0  0
   11.0750  -14.6720   -7.8460 C   0  0  0  0  0  0  0  0  0  0  0  0
   12.6150  -14.7470   -7.8530 C   0  0  0  0  0  0  0  0  0  0  0  0
   13.2440  -14.1190   -9.0900 C   0  0  0  0  0  0  0  0  0  0  0  0
   12.4510  -12.9410   -9.6460 N   0  0  0  0  0  0  0  0  0  0  0  0
   11.9470  -13.2730  -11.0540 C   0  0  0  0  0  0  0  0  0  0  0  0
   10.9440  -12.2150  -11.5800 C   0  0  0  0  0  0  0  0  0  0  0  0
   11.0160  -10.9160  -10.7910 N   0  0  0  0  0  0  0  0  0  0  0  0
   10.2400   -9.8090  -11.4590 C   0  0  0  0  0  0  0  0  0  0  0  0
   12.4390  -10.5140  -10.4480 C   0  0  0  0  0  0  0  0  0  0  0  0
   13.1700  -11.6030   -9.6090 C   0  0  0  0  0  0  0  0  0  0  0  0
   10.7670  -13.8170   -4.3770 N   0  0  0  0  0  0  0  0  0  0  0  0
    6.3201  -12.4001    0.5486 H   0  0  0  0  0  0  0  0  0  0  0  0
    7.7377  -11.4529   -0.0169 H   0  0  0  0  0  0  0  0  0  0  0  0
    6.1027  -10.7091   -0.0169 H   0  0  0  0  0  0  0  0  0  0  0  0
    4.9013  -10.6495   -1.9476 H   0  0  0  0  0  0  0  0  0  0  0  0
    4.5123  -11.3528   -4.3090 H   0  0  0  0  0  0  0  0  0  0  0  0
    7.8690  -13.7740   -5.6070 H   0  0  0  0  0  0  0  0  0  0  0  0
    7.7092  -16.4230   -6.7313 H   0  0  0  0  0  0  0  0  0  0  0  0
    7.9894  -17.3563   -9.0276 H   0  0  0  0  0  0  0  0  0  0  0  0
    7.5888  -15.9188  -11.0200 H   0  0  0  0  0  0  0  0  0  0  0  0
    6.7202  -12.5732   -8.4176 H   0  0  0  0  0  0  0  0  0  0  0  0
    7.3476  -14.5706   -3.7897 H   0  0  0  0  0  0  0  0  0  0  0  0
    7.9120  -14.6910   -0.8990 H   0  0  0  0  0  0  0  0  0  0  0  0
   11.7054  -11.1926    1.4519 H   0  0  0  0  0  0  0  0  0  0  0  0
   13.7741  -10.2525    0.4029 H   0  0  0  0  0  0  0  0  0  0  0  0
   14.3471  -10.7840   -1.9478 H   0  0  0  0  0  0  0  0  0  0  0  0
   12.8723  -12.2752   -3.3248 H   0  0  0  0  0  0  0  0  0  0  0  0
    9.7569  -17.3742   -3.9917 H   0  0  0  0  0  0  0  0  0  0  0  0
    9.9260  -13.2090   -6.7630 H   0  0  0  0  0  0  0  0  0  0  0  0
   10.6736  -15.6957   -7.8768 H   0  0  0  0  0  0  0  0  0  0  0  0
   10.7692  -14.0857   -8.7250 H   0  0  0  0  0  0  0  0  0  0  0  0
   12.9940  -14.2218   -6.9639 H   0  0  0  0  0  0  0  0  0  0  0  0
   12.8889  -15.8123   -7.8538 H   0  0  0  0  0  0  0  0  0  0  0  0
   14.2522  -13.7665   -8.8268 H   0  0  0  0  0  0  0  0  0  0  0  0
   13.2627  -14.8932   -9.8712 H   0  0  0  0  0  0  0  0  0  0  0  0
   11.6110  -12.8480   -9.0410 H   0  0  0  0  0  0  0  0  0  0  0  0
   12.8077  -13.3162  -11.7376 H   0  0  0  0  0  0  0  0  0  0  0  0
   11.4249  -14.2401  -11.0071 H   0  0  0  0  0  0  0  0  0  0  0  0
   11.1731  -12.0025  -12.6347 H   0  0  0  0  0  0  0  0  0  0  0  0
    9.9293  -12.6244  -11.4666 H   0  0  0  0  0  0  0  0  0  0  0  0
   10.5110  -11.1030   -9.8970 H   0  0  0  0  0  0  0  0  0  0  0  0
    9.7876   -9.1636  -10.6916 H   0  0  0  0  0  0  0  0  0  0  0  0
   10.9186   -9.2124  -12.0863 H   0  0  0  0  0  0  0  0  0  0  0  0
    9.4477  -10.2435  -12.0863 H   0  0  0  0  0  0  0  0  0  0  0  0
   12.9968  -10.3524  -11.3822 H   0  0  0  0  0  0  0  0  0  0  0  0
   12.3950   -9.5951   -9.8450 H   0  0  0  0  0  0  0  0  0  0  0  0
   14.1854  -11.7362  -10.0106 H   0  0  0  0  0  0  0  0  0  0  0  0
   13.1921  -11.2625   -8.5633 H   0  0  0  0  0  0  0  0  0  0  0  0
  1  2  1  0
  2  3  2  0
  3  4  1  0
  4  5  2  0
  5  6  1  0
  6  7  2  0
  6  8  1  0
  8  9  1  0
  9 10  2  0
 10 11  1  0
 11 12  2  0
 12 13  1  0
 13 14  1  0
 14 15  1  0
 14 16  1  0
 14 17  1  0
 13 18  2  0
  5 19  1  0
 19 20  2  0
 20 21  1  0
 21 22  1  0
 22 23  2  0
 23 24  1  0
 24 25  2  0
 25 26  1  0
 26 27  2  0
 27 28  1  0
 28 29  2  0
 29 30  1  0
 30 31  1  0
 31 32  2  0
 32 33  1  0
 33 34  2  0
 34 35  1  0
 35 36  1  0
 36 37  1  0
 37 38  1  0
 38 39  1  0
 39 40  1  0
 40 41  1  0
 41 42  1  0
 42 43  1  0
 43 44  1  0
 43 45  1  0
 45 46  1  0
 35 47  2  0
 20  2  1  0
 30 22  1  0
 47 31  1  0
 18  9  1  0
 29 24  1  0
 46 40  1  0
  1 48  1  0
  1 49  1  0
  1 50  1  0
  3 51  1  0
  4 52  1  0
  8 53  1  0
 10 54  1  0
 11 55  1  0
 12 56  1  0
 18 57  1  0
 19 58  1  0
 21 59  1  0
 25 60  1  0
 26 61  1  0
 27 62  1  0
 28 63  1  0
 33 64  1  0
 36 65  1  0
 37 66  1  0
 37 67  1  0
 38 68  1  0
 38 69  1  0
 39 70  1  0
 39 71  1  0
 40 72  1  0
 41 73  1  0
 41 74  1  0
 42 75  1  0
 42 76  1  0
 43 77  1  0
 44 78  1  0
 44 79  1  0
 44 80  1  0
 45 81  1  0
 45 82  1  0
 46 83  1  0
 46 84  1  0
M  CHG  2  40   1  43   1
M  END
>  <meeko>  (1) 
{"is_sidechain": [false], "free_energy": -9.138, "intermolecular_energy": -15.014, "internal_energy": -3.017}

$$$$
LIB_BCNXUFFSRWFFQA__M_PUB_ALL__e8__s20260927
     RDKit          3D

 84 89  0  0  0  0  0  0  0  0999 V2000
    6.6050  -11.6710   -0.3590 C   0  0  0  0  0  0  0  0  0  0  0  0
    6.3630  -12.1600   -1.7650 C   0  0  0  0  0  0  0  0  0  0  0  0
    5.4160  -11.4820   -2.5550 C   0  0  0  0  0  0  0  0  0  0  0  0
    5.1700  -11.8720   -3.8710 C   0  0  0  0  0  0  0  0  0  0  0  0
    5.8490  -12.9740   -4.3840 C   0  0  0  0  0  0  0  0  0  0  0  0
    5.7580  -13.3140   -5.8200 C   0  0  0  0  0  0  0  0  0  0  0  0
    4.6490  -13.2360   -6.3580 O   0  0  0  0  0  0  0  0  0  0  0  0
    6.9520  -13.6370   -6.4170 N   0  0  0  0  0  0  0  0  0  0  0  0
    7.1360  -14.1850   -7.7010 C   0  0  0  0  0  0  0  0  0  0  0  0
    7.2820  -15.5540   -7.9320 C   0  0  0  0  0  0  0  0  0  0  0  0
    7.4890  -16.0340   -9.2290 C   0  0  0  0  0  0  0  0  0  0  0  0
    7.5480  -15.1460  -10.3020 C   0  0  0  0  0  0  0  0  0  0  0  0
    7.4150  -13.7670  -10.0890 C   0  0  0  0  0  0  0  0  0  0  0  0
    7.5160  -12.7930  -11.2420 C   0  0  0  0  0  0  0  0  0  0  0  0
    7.7160  -13.4230  -12.4280 F   0  0  0  0  0  0  0  0  0  0  0  0
    6.4010  -12.0280  -11.3890 F   0  0  0  0  0  0  0  0  0  0  0  0
    8.5530  -11.9230  -11.0910 F   0  0  0  0  0  0  0  0  0  0  0  0
    7.2270  -13.2960   -8.7780 C   0  0  0  0  0  0  0  0  0  0  0  0
    6.7470  -13.6900   -3.5900 C   0  0  0  0  0  0  0  0  0  0  0  0
    7.0700  -13.2610   -2.2990 C   0  0  0  0  0  0  0  0  0  0  0  0
    8.0860  -13.8900   -1.5510 N   0  0  0  0  0  0  0  0  0  0  0  0
    9.3510  -13.4550   -1.3040 C   0  0  0  0  0  0  0  0  0  0  0  0
    9.8420  -12.9710   -0.1830 N   0  0  0  0  0  0  0  0  0  0  0  0
   11.0240  -12.3720   -0.5420 C   0  0  0  0  0  0  0  0  0  0  0  0
   11.8800  -11.5780    0.2360 C   0  0  0  0  0  0  0  0  0  0  0  0
   13.0490  -11.0750   -0.3470 C   0  0  0  0  0  0  0  0  0  0  0  0
   13.3650  -11.3660   -1.6730 C   0  0  0  0  0  0  0  0  0  0  0  0
   12.5300  -12.1660   -2.4600 C   0  0  0  0  0  0  0  0  0  0  0  0
   11.3540  -12.6490   -1.8680 C   0  0  0  0  0  0  0  0  0  0  0  0
   10.3420  -13.4940   -2.2910 N   0  0  0  0  0  0  0  0  0  0  0  0
   10.3830  -14.4260   -3.3730 C   0  0  0  0  0  0  0  0  0  0  0  0
   10.0160  -15.6890   -3.1810 N   0  0  0  0  0  0  0  0  0  0  0  0
    9.8860  -16.3970   -4.3020 C   0  0  0  0  0  0  0  0  0  0  0  0
    9.9930  -15.9220   -5.5430 N   0  0  0  0  0  0  0  0  0  0  0  0
   10.3320  -14.6500   -5.6340 C   0  0  0  0  0  0  0  0  0  0  0  0
   10.2890  -14.0610   -6.8730 N   0  0  0  0  0  0  0  0  0  0  0  0
   11.2430  -14.3570   -7.9190 C   0  0  0  0  0  0  0  0  0  0  0  0
   11.0310  -13.5020   -9.1840 C   0  0  0  0  0  0  0  0  0  0  0  0
   12.2440  -12.6550   -9.5490 C   0  0  0  0  0  0  0  0  0  0  0  0
   13.1090  -13.2690  -10.6440 N   0  0  0  0  0  0  0  0  0  0  0  0
   14.4650  -13.6830  -10.0620 C   0  0  0  0  0  0  0  0  0  0  0  0
   15.2990  -14.5200  -11.0640 C   0  0  0  0  0  0  0  0  0  0  0  0
   14.7900  -14.3800  -12.4920 N   0  0  0  0  0  0  0  0  0  0  0  0
   15.7480  -14.9760  -13.4920 C   0  0  0  0  0  0  0  0  0  0  0  0
   14.3870  -12.9570  -12.8350 C   0  0  0  0  0  0  0  0  0  0  0  0
   13.2710  -12.4190  -11.8930 C   0  0  0  0  0  0  0  0  0  0  0  0
   10.5860  -13.8870   -4.5820 N   0  0  0  0  0  0  0  0  0  0  0  0
    6.2350  -12.4187    0.3580 H   0  0  0  0  0  0  0  0  0  0  0  0
    7.6832  -11.5172   -0.2048 H   0  0  0  0  0  0  0  0  0  0  0  0
    6.0733  -10.7205   -0.2048 H   0  0  0  0  0  0  0  0  0  0  0  0
    4.8622  -10.6327   -2.1285 H   0  0  0  0  0  0  0  0  0  0  0  0
    4.4516  -11.3183   -4.4934 H   0  0  0  0  0  0  0  0  0  0  0  0
    7.8040  -13.4190   -5.9020 H   0  0  0  0  0  0  0  0  0  0  0  0
    7.2339  -16.2591   -7.0891 H   0  0  0  0  0  0  0  0  0  0  0  0
    7.6055  -17.1139   -9.4028 H   0  0  0  0  0  0  0  0  0  0  0  0
    7.6998  -15.5297  -11.3217 H   0  0  0  0  0  0  0  0  0  0  0  0
    7.1504  -12.2138   -8.5961 H   0  0  0  0  0  0  0  0  0  0  0  0
    7.2079  -14.6066   -3.9866 H   0  0  0  0  0  0  0  0  0  0  0  0
    7.7780  -14.7510   -1.1040 H   0  0  0  0  0  0  0  0  0  0  0  0
   11.6369  -11.3548    1.2853 H   0  0  0  0  0  0  0  0  0  0  0  0
   13.7254  -10.4434    0.2476 H   0  0  0  0  0  0  0  0  0  0  0  0
   14.2890  -10.9586   -2.1091 H   0  0  0  0  0  0  0  0  0  0  0  0
   12.7858  -12.4068   -3.5024 H   0  0  0  0  0  0  0  0  0  0  0  0
    9.6710  -17.4703   -4.1938 H   0  0  0  0  0  0  0  0  0  0  0  0
    9.3980  -13.6250   -7.0860 H   0  0  0  0  0  0  0  0  0  0  0  0
   12.2559  -14.1686   -7.5337 H   0  0  0  0  0  0  0  0  0  0  0  0
   11.1030  -15.4099   -8.2050 H   0  0  0  0  0  0  0  0  0  0  0  0
   10.8080  -14.1737  -10.0261 H   0  0  0  0  0  0  0  0  0  0  0  0
   10.2016  -12.8104   -8.9747 H   0  0  0  0  0  0  0  0  0  0  0  0
   11.8908  -11.6723   -9.8947 H   0  0  0  0  0  0  0  0  0  0  0  0
   12.8693  -12.5808   -8.6470 H   0  0  0  0  0  0  0  0  0  0  0  0
   12.6290  -14.1440  -10.9350 H   0  0  0  0  0  0  0  0  0  0  0  0
   15.0304  -12.7763   -9.8006 H   0  0  0  0  0  0  0  0  0  0  0  0
   14.2767  -14.3059   -9.1751 H   0  0  0  0  0  0  0  0  0  0  0  0
   16.3446  -14.1804  -11.0255 H   0  0  0  0  0  0  0  0  0  0  0  0
   15.2115  -15.5780  -10.7760 H   0  0  0  0  0  0  0  0  0  0  0  0
   13.9350  -14.9770  -12.5430 H   0  0  0  0  0  0  0  0  0  0  0  0
   16.5651  -15.4843  -12.9591 H   0  0  0  0  0  0  0  0  0  0  0  0
   15.2145  -15.7019  -14.1233 H   0  0  0  0  0  0  0  0  0  0  0  0
   16.1634  -14.1767  -14.1233 H   0  0  0  0  0  0  0  0  0  0  0  0
   15.2701  -12.3073  -12.7452 H   0  0  0  0  0  0  0  0  0  0  0  0
   13.9920  -12.9559  -13.8616 H   0  0  0  0  0  0  0  0  0  0  0  0
   13.5275  -11.3928  -11.5913 H   0  0  0  0  0  0  0  0  0  0  0  0
   12.3207  -12.4504  -12.4461 H   0  0  0  0  0  0  0  0  0  0  0  0
  1  2  1  0
  2  3  2  0
  3  4  1  0
  4  5  2  0
  5  6  1  0
  6  7  2  0
  6  8  1  0
  8  9  1  0
  9 10  2  0
 10 11  1  0
 11 12  2  0
 12 13  1  0
 13 14  1  0
 14 15  1  0
 14 16  1  0
 14 17  1  0
 13 18  2  0
  5 19  1  0
 19 20  2  0
 20 21  1  0
 21 22  1  0
 22 23  2  0
 23 24  1  0
 24 25  2  0
 25 26  1  0
 26 27  2  0
 27 28  1  0
 28 29  2  0
 29 30  1  0
 30 31  1  0
 31 32  2  0
 32 33  1  0
 33 34  2  0
 34 35  1  0
 35 36  1  0
 36 37  1  0
 37 38  1  0
 38 39  1  0
 39 40  1  0
 40 41  1  0
 41 42  1  0
 42 43  1  0
 43 44  1  0
 43 45  1  0
 45 46  1  0
 35 47  2  0
 20  2  1  0
 30 22  1  0
 47 31  1  0
 18  9  1  0
 29 24  1  0
 46 40  1  0
  1 48  1  0
  1 49  1  0
  1 50  1  0
  3 51  1  0
  4 52  1  0
  8 53  1  0
 10 54  1  0
 11 55  1  0
 12 56  1  0
 18 57  1  0
 19 58  1  0
 21 59  1  0
 25 60  1  0
 26 61  1  0
 27 62  1  0
 28 63  1  0
 33 64  1  0
 36 65  1  0
 37 66  1  0
 37 67  1  0
 38 68  1  0
 38 69  1  0
 39 70  1  0
 39 71  1  0
 40 72  1  0
 41 73  1  0
 41 74  1  0
 42 75  1  0
 42 76  1  0
 43 77  1  0
 44 78  1  0
 44 79  1  0
 44 80  1  0
 45 81  1  0
 45 82  1  0
 46 83  1  0
 46 84  1  0
M  CHG  2  40   1  43   1
M  END
>  <meeko>  (2) 
{"is_sidechain": [false], "free_energy": -9.066, "intermolecular_energy": -14.854, "internal_energy": -3.059}

$$$$
LIB_BCNXUFFSRWFFQA__M_PUB_ALL__e8__s20260927
     RDKit          3D

 84 89  0  0  0  0  0  0  0  0999 V2000
    5.5580  -12.5510   -5.5510 C   0  0  0  0  0  0  0  0  0  0  0  0
    4.4880  -12.6920   -4.4980 C   0  0  0  0  0  0  0  0  0  0  0  0
    3.3980  -13.5440   -4.7630 C   0  0  0  0  0  0  0  0  0  0  0  0
    2.3930  -13.7350   -3.8170 C   0  0  0  0  0  0  0  0  0  0  0  0
    2.4590  -13.0390   -2.6140 C   0  0  0  0  0  0  0  0  0  0  0  0
    1.5200  -13.3430   -1.5130 C   0  0  0  0  0  0  0  0  0  0  0  0
    0.6300  -14.1700   -1.7320 O   0  0  0  0  0  0  0  0  0  0  0  0
    1.7820  -12.6950   -0.3300 N   0  0  0  0  0  0  0  0  0  0  0  0
    0.9540  -12.6420    0.8070 C   0  0  0  0  0  0  0  0  0  0  0  0
    0.7950  -13.7150    1.6870 C   0  0  0  0  0  0  0  0  0  0  0  0
   -0.0640  -13.6070    2.7840 C   0  0  0  0  0  0  0  0  0  0  0  0
   -0.7690  -12.4250    3.0090 C   0  0  0  0  0  0  0  0  0  0  0  0
   -0.6320  -11.3420    2.1310 C   0  0  0  0  0  0  0  0  0  0  0  0
   -1.4210  -10.0680    2.3440 C   0  0  0  0  0  0  0  0  0  0  0  0
   -2.6370  -10.1130    1.7440 F   0  0  0  0  0  0  0  0  0  0  0  0
   -1.6430   -9.7960    3.6580 F   0  0  0  0  0  0  0  0  0  0  0  0
   -0.7830   -8.9770    1.8360 F   0  0  0  0  0  0  0  0  0  0  0  0
    0.2210  -11.4680    1.0200 C   0  0  0  0  0  0  0  0  0  0  0  0
    3.5040  -12.1470   -2.3630 C   0  0  0  0  0  0  0  0  0  0  0  0
    4.5650  -12.0090   -3.2640 C   0  0  0  0  0  0  0  0  0  0  0  0
    5.6950  -11.2270   -2.9480 N   0  0  0  0  0  0  0  0  0  0  0  0
    6.9560  -11.6400   -2.6490 C   0  0  0  0  0  0  0  0  0  0  0  0
    8.0870  -11.2900   -3.2250 N   0  0  0  0  0  0  0  0  0  0  0  0
    9.0040  -12.2200   -2.8030 C   0  0  0  0  0  0  0  0  0  0  0  0
   10.3290  -12.4060   -3.2260 C   0  0  0  0  0  0  0  0  0  0  0  0
   11.0880  -13.4260   -2.6410 C   0  0  0  0  0  0  0  0  0  0  0  0
   10.5430  -14.2390   -1.6490 C   0  0  0  0  0  0  0  0  0  0  0  0
    9.2280  -14.0620   -1.2050 C   0  0  0  0  0  0  0  0  0  0  0  0
    8.4740  -13.0460   -1.8120 C   0  0  0  0  0  0  0  0  0  0  0  0
    7.2010  -12.5410   -1.6070 N   0  0  0  0  0  0  0  0  0  0  0  0
    6.3840  -12.6870   -0.4440 C   0  0  0  0  0  0  0  0  0  0  0  0
    6.0320  -11.6190    0.2640 N   0  0  0  0  0  0  0  0  0  0  0  0
    5.0990  -11.8560    1.1850 C   0  0  0  0  0  0  0  0  0  0  0  0
    4.4540  -13.0100    1.3640 N   0  0  0  0  0  0  0  0  0  0  0  0
    4.8520  -14.0050    0.5950 C   0  0  0  0  0  0  0  0  0  0  0  0
    4.1150  -15.1620    0.6110 N   0  0  0  0  0  0  0  0  0  0  0  0
    4.3110  -16.2330   -0.3420 C   0  0  0  0  0  0  0  0  0  0  0  0
    2.9960  -16.7030   -0.9960 C   0  0  0  0  0  0  0  0  0  0  0  0
    2.5510  -18.0840   -0.5310 C   0  0  0  0  0  0  0  0  0  0  0  0
    1.3660  -18.0520    0.4270 N   0  0  0  0  0  0  0  0  0  0  0  0
    0.3100  -17.0670   -0.0860 C   0  0  0  0  0  0  0  0  0  0  0  0
   -1.0130  -17.1600    0.7150 C   0  0  0  0  0  0  0  0  0  0  0  0
   -0.8270  -17.8680    2.0500 N   0  0  0  0  0  0  0  0  0  0  0  0
   -2.0390  -17.7270    2.9350 C   0  0  0  0  0  0  0  0  0  0  0  0
    0.4630  -17.4760    2.7480 C   0  0  0  0  0  0  0  0  0  0  0  0
    1.7180  -17.7880    1.8810 C   0  0  0  0  0  0  0  0  0  0  0  0
    5.8420  -13.9000   -0.2770 N   0  0  0  0  0  0  0  0  0  0  0  0
    6.5362  -12.4221   -5.0648 H   0  0  0  0  0  0  0  0  0  0  0  0
    5.5765  -13.4545   -6.1782 H   0  0  0  0  0  0  0  0  0  0  0  0
    5.3418  -11.6736   -6.1782 H   0  0  0  0  0  0  0  0  0  0  0  0
    3.3394  -14.0655   -5.7297 H   0  0  0  0  0  0  0  0  0  0  0  0
    1.5604  -14.4252   -4.0181 H   0  0  0  0  0  0  0  0  0  0  0  0
    2.6890  -12.2380   -0.2400 H   0  0  0  0  0  0  0  0  0  0  0  0
    1.3488  -14.6499    1.5157 H   0  0  0  0  0  0  0  0  0  0  0  0
   -0.1844  -14.4568    3.4720 H   0  0  0  0  0  0  0  0  0  0  0  0
   -1.4358  -12.3426    3.8800 H   0  0  0  0  0  0  0  0  0  0  0  0
    0.3136  -10.6336    0.3092 H   0  0  0  0  0  0  0  0  0  0  0  0
    3.4925  -11.5440   -1.4431 H   0  0  0  0  0  0  0  0  0  0  0  0
    5.5230  -10.2270   -3.0230 H   0  0  0  0  0  0  0  0  0  0  0  0
   10.7636  -11.7612   -4.0040 H   0  0  0  0  0  0  0  0  0  0  0  0
   12.1258  -13.5877   -2.9677 H   0  0  0  0  0  0  0  0  0  0  0  0
   11.1589  -15.0357   -1.2063 H   0  0  0  0  0  0  0  0  0  0  0  0
    8.8022  -14.6940   -0.4118 H   0  0  0  0  0  0  0  0  0  0  0  0
    4.8371  -11.0261    1.8579 H   0  0  0  0  0  0  0  0  0  0  0  0
    3.6280  -15.3240    1.4860 H   0  0  0  0  0  0  0  0  0  0  0  0
    4.9893  -15.8795   -1.1325 H   0  0  0  0  0  0  0  0  0  0  0  0
    4.7314  -17.0892    0.2058 H   0  0  0  0  0  0  0  0  0  0  0  0
    2.2051  -15.9797   -0.7485 H   0  0  0  0  0  0  0  0  0  0  0  0
    3.1757  -16.7665   -2.0794 H   0  0  0  0  0  0  0  0  0  0  0  0
    2.2679  -18.6742   -1.4150 H   0  0  0  0  0  0  0  0  0  0  0  0
    3.3959  -18.5285    0.0153 H   0  0  0  0  0  0  0  0  0  0  0  0
    0.9370  -18.9980    0.3870 H   0  0  0  0  0  0  0  0  0  0  0  0
    0.7065  -16.0447    0.0018 H   0  0  0  0  0  0  0  0  0  0  0  0
    0.0901  -17.3218   -1.1333 H   0  0  0  0  0  0  0  0  0  0  0  0
   -1.3862  -16.1424    0.9024 H   0  0  0  0  0  0  0  0  0  0  0  0
   -1.7290  -17.7448    0.1188 H   0  0  0  0  0  0  0  0  0  0  0  0
   -0.7710  -18.8850    1.8210 H   0  0  0  0  0  0  0  0  0  0  0  0
   -1.7290  -17.7631    3.9898 H   0  0  0  0  0  0  0  0  0  0  0  0
   -2.5325  -16.7654    2.7305 H   0  0  0  0  0  0  0  0  0  0  0  0
   -2.7400  -18.5496    2.7305 H   0  0  0  0  0  0  0  0  0  0  0  0
    0.4377  -16.3968    2.9595 H   0  0  0  0  0  0  0  0  0  0  0  0
    0.5379  -18.0635    3.6749 H   0  0  0  0  0  0  0  0  0  0  0  0
    2.4027  -16.9284    1.9283 H   0  0  0  0  0  0  0  0  0  0  0  0
    2.1860  -18.6985    2.2835 H   0  0  0  0  0  0  0  0  0  0  0  0
  1  2  1  0
  2  3  2  0
  3  4  1  0
  4  5  2  0
  5  6  1  0
  6  7  2  0
  6  8  1  0
  8  9  1  0
  9 10  2  0
 10 11  1  0
 11 12  2  0
 12 13  1  0
 13 14  1  0
 14 15  1  0
 14 16  1  0
 14 17  1  0
 13 18  2  0
  5 19  1  0
 19 20  2  0
 20 21  1  0
 21 22  1  0
 22 23  2  0
 23 24  1  0
 24 25  2  0
 25 26  1  0
 26 27  2  0
 27 28  1  0
 28 29  2  0
 29 30  1  0
 30 31  1  0
 31 32  2  0
 32 33  1  0
 33 34  2  0
 34 35  1  0
 35 36  1  0
 36 37  1  0
 37 38  1  0
 38 39  1  0
 39 40  1  0
 40 41  1  0
 41 42  1  0
 42 43  1  0
 43 44  1  0
 43 45  1  0
 45 46  1  0
 35 47  2  0
 20  2  1  0
 30 22  1  0
 47 31  1  0
 18  9  1  0
 29 24  1  0
 46 40  1  0
  1 48  1  0
  1 49  1  0
  1 50  1  0
  3 51  1  0
  4 52  1  0
  8 53  1  0
 10 54  1  0
 11 55  1  0
 12 56  1  0
 18 57  1  0
 19 58  1  0
 21 59  1  0
 25 60  1  0
 26 61  1  0
 27 62  1  0
 28 63  1  0
 33 64  1  0
 36 65  1  0
 37 66  1  0
 37 67  1  0
 38 68  1  0
 38 69  1  0
 39 70  1  0
 39 71  1  0
 40 72  1  0
 41 73  1  0
 41 74  1  0
 42 75  1  0
 42 76  1  0
 43 77  1  0
 44 78  1  0
 44 79  1  0
 44 80  1  0
 45 81  1  0
 45 82  1  0
 46 83  1  0
 46 84  1  0
M  CHG  2  40   1  43   1
M  END
>  <meeko>  (3) 
{"is_sidechain": [false], "free_energy": -9.065, "intermolecular_energy": -14.089, "internal_energy": -3.822}

$$$$
LIB_BCNXUFFSRWFFQA__M_PUB_ALL__e8__s20260927
     RDKit          3D

 84 89  0  0  0  0  0  0  0  0999 V2000
    4.3450  -11.8690   -5.9160 C   0  0  0  0  0  0  0  0  0  0  0  0
    3.7470  -11.6990   -4.5420 C   0  0  0  0  0  0  0  0  0  0  0  0
    2.9080  -10.5920   -4.3100 C   0  0  0  0  0  0  0  0  0  0  0  0
    2.3060  -10.3990   -3.0680 C   0  0  0  0  0  0  0  0  0  0  0  0
    2.5780  -11.2980   -2.0410 C   0  0  0  0  0  0  0  0  0  0  0  0
    1.8270  -11.2390   -0.7680 C   0  0  0  0  0  0  0  0  0  0  0  0
    2.2490  -11.9140    0.1760 O   0  0  0  0  0  0  0  0  0  0  0  0
    0.7530  -10.3830   -0.7650 N   0  0  0  0  0  0  0  0  0  0  0  0
   -0.2410  -10.2760    0.2250 C   0  0  0  0  0  0  0  0  0  0  0  0
   -0.2200   -9.3010    1.2260 C   0  0  0  0  0  0  0  0  0  0  0  0
   -1.2240   -9.2650    2.1980 C   0  0  0  0  0  0  0  0  0  0  0  0
   -2.2560  -10.2010    2.1740 C   0  0  0  0  0  0  0  0  0  0  0  0
   -2.2880  -11.1940    1.1850 C   0  0  0  0  0  0  0  0  0  0  0  0
   -3.3840  -12.2380    1.1720 C   0  0  0  0  0  0  0  0  0  0  0  0
   -3.7170  -12.6440    2.4240 F   0  0  0  0  0  0  0  0  0  0  0  0
   -4.5280  -11.7990    0.5860 F   0  0  0  0  0  0  0  0  0  0  0  0
   -3.0170  -13.3590    0.4920 F   0  0  0  0  0  0  0  0  0  0  0  0
   -1.2630  -11.2320    0.2240 C   0  0  0  0  0  0  0  0  0  0  0  0
    3.4540  -12.3660   -2.2420 C   0  0  0  0  0  0  0  0  0  0  0  0
    3.9980  -12.6250   -3.5040 C   0  0  0  0  0  0  0  0  0  0  0  0
    4.7600  -13.7850   -3.7490 N   0  0  0  0  0  0  0  0  0  0  0  0
    4.9180  -14.8800   -2.9560 C   0  0  0  0  0  0  0  0  0  0  0  0
    4.2150  -15.9920   -2.9530 N   0  0  0  0  0  0  0  0  0  0  0  0
    4.5390  -16.6140   -1.7720 C   0  0  0  0  0  0  0  0  0  0  0  0
    3.9700  -17.7600   -1.1950 C   0  0  0  0  0  0  0  0  0  0  0  0
    4.4740  -18.2220    0.0260 C   0  0  0  0  0  0  0  0  0  0  0  0
    5.5300  -17.5640    0.6550 C   0  0  0  0  0  0  0  0  0  0  0  0
    6.1180  -16.4270    0.0900 C   0  0  0  0  0  0  0  0  0  0  0  0
    5.5910  -15.9660   -1.1260 C   0  0  0  0  0  0  0  0  0  0  0  0
    5.9340  -14.9440   -1.9960 N   0  0  0  0  0  0  0  0  0  0  0  0
    7.1840  -14.2570   -2.0800 C   0  0  0  0  0  0  0  0  0  0  0  0
    7.8710  -14.2560   -3.2180 N   0  0  0  0  0  0  0  0  0  0  0  0
    8.8960  -13.4060   -3.2360 C   0  0  0  0  0  0  0  0  0  0  0  0
    9.2010  -12.5270   -2.2800 N   0  0  0  0  0  0  0  0  0  0  0  0
    8.4440  -12.5830   -1.2000 C   0  0  0  0  0  0  0  0  0  0  0  0
    8.5960  -11.5960   -0.2590 N   0  0  0  0  0  0  0  0  0  0  0  0
    9.1360  -11.8420    1.0600 C   0  0  0  0  0  0  0  0  0  0  0  0
   10.6260  -11.4660    1.1790 C   0  0  0  0  0  0  0  0  0  0  0  0
   11.5670  -12.6120    0.8310 C   0  0  0  0  0  0  0  0  0  0  0  0
   11.8470  -12.7390   -0.6610 N   0  0  0  0  0  0  0  0  0  0  0  0
   12.3010  -14.1670   -0.9850 C   0  0  0  0  0  0  0  0  0  0  0  0
   12.3780  -14.4230   -2.5110 C   0  0  0  0  0  0  0  0  0  0  0  0
   12.4060  -13.1280   -3.3100 N   0  0  0  0  0  0  0  0  0  0  0  0
   12.7430  -13.3670   -4.7590 C   0  0  0  0  0  0  0  0  0  0  0  0
   13.2760  -12.0610   -2.6690 C   0  0  0  0  0  0  0  0  0  0  0  0
   12.8050  -11.7050   -1.2290 C   0  0  0  0  0  0  0  0  0  0  0  0
    7.4670  -13.4620   -1.0400 N   0  0  0  0  0  0  0  0  0  0  0  0
    5.3992  -12.1687   -5.8225 H   0  0  0  0  0  0  0  0  0  0  0  0
    3.7904  -12.6451   -6.4638 H   0  0  0  0  0  0  0  0  0  0  0  0
    4.2816  -10.9172   -6.4638 H   0  0  0  0  0  0  0  0  0  0  0  0
    2.7254   -9.8702   -5.1197 H   0  0  0  0  0  0  0  0  0  0  0  0
    1.6268   -9.5498   -2.9021 H   0  0  0  0  0  0  0  0  0  0  0  0
    0.6840   -9.7200   -1.5370 H   0  0  0  0  0  0  0  0  0  0  0  0
    0.5908   -8.5580    1.2491 H   0  0  0  0  0  0  0  0  0  0  0  0
   -1.1993   -8.4957    2.9839 H   0  0  0  0  0  0  0  0  0  0  0  0
   -3.0494  -10.1605    2.9348 H   0  0  0  0  0  0  0  0  0  0  0  0
   -1.2642  -12.0240   -0.5393 H   0  0  0  0  0  0  0  0  0  0  0  0
    3.7207  -13.0142   -1.3942 H   0  0  0  0  0  0  0  0  0  0  0  0
    5.1840  -13.7970   -4.6740 H   0  0  0  0  0  0  0  0  0  0  0  0
    3.1425  -18.2857   -1.6938 H   0  0  0  0  0  0  0  0  0  0  0  0
    4.0323  -19.1138    0.4945 H   0  0  0  0  0  0  0  0  0  0  0  0
    5.9084  -17.9463    1.6145 H   0  0  0  0  0  0  0  0  0  0  0  0
    6.9596  -15.9151    0.5794 H   0  0  0  0  0  0  0  0  0  0  0  0
    9.5507  -13.4310   -4.1196 H   0  0  0  0  0  0  0  0  0  0  0  0
    8.5630  -10.6570   -0.6430 H   0  0  0  0  0  0  0  0  0  0  0  0
    8.5651  -11.2483    1.7891 H   0  0  0  0  0  0  0  0  0  0  0  0
    9.0519  -12.9214    1.2546 H   0  0  0  0  0  0  0  0  0  0  0  0
   10.8299  -10.6276    0.4968 H   0  0  0  0  0  0  0  0  0  0  0  0
   10.8116  -11.2002    2.2301 H   0  0  0  0  0  0  0  0  0  0  0  0
   12.5221  -12.4481    1.3514 H   0  0  0  0  0  0  0  0  0  0  0  0
   11.0730  -13.5426    1.1470 H   0  0  0  0  0  0  0  0  0  0  0  0
   10.9350  -12.6000   -1.1400 H   0  0  0  0  0  0  0  0  0  0  0  0
   13.2969  -14.3302   -0.5475 H   0  0  0  0  0  0  0  0  0  0  0  0
   11.5601  -14.8616   -0.5624 H   0  0  0  0  0  0  0  0  0  0  0  0
   13.2929  -14.9936   -2.7288 H   0  0  0  0  0  0  0  0  0  0  0  0
   11.4779  -14.9824   -2.8056 H   0  0  0  0  0  0  0  0  0  0  0  0
   11.4220  -12.7790   -3.3110 H   0  0  0  0  0  0  0  0  0  0  0  0
   13.6385  -14.0021   -4.8272 H   0  0  0  0  0  0  0  0  0  0  0  0
   11.8987  -13.8693   -5.2538 H   0  0  0  0  0  0  0  0  0  0  0  0
   12.9378  -12.4041   -5.2538 H   0  0  0  0  0  0  0  0  0  0  0  0
   14.3114  -12.4293   -2.6221 H   0  0  0  0  0  0  0  0  0  0  0  0
   13.2020  -11.1513   -3.2830 H   0  0  0  0  0  0  0  0  0  0  0  0
   13.6866  -11.6428   -0.5741 H   0  0  0  0  0  0  0  0  0  0  0  0
   12.2713  -10.7444   -1.2784 H   0  0  0  0  0  0  0  0  0  0  0  0
  1  2  1  0
  2  3  2  0
  3  4  1  0
  4  5  2  0
  5  6  1  0
  6  7  2  0
  6  8  1  0
  8  9  1  0
  9 10  2  0
 10 11  1  0
 11 12  2  0
 12 13  1  0
 13 14  1  0
 14 15  1  0
 14 16  1  0
 14 17  1  0
 13 18  2  0
  5 19  1  0
 19 20  2  0
 20 21  1  0
 21 22  1  0
 22 23  2  0
 23 24  1  0
 24 25  2  0
 25 26  1  0
 26 27  2  0
 27 28  1  0
 28 29  2  0
 29 30  1  0
 30 31  1  0
 31 32  2  0
 32 33  1  0
 33 34  2  0
 34 35  1  0
 35 36  1  0
 36 37  1  0
 37 38  1  0
 38 39  1  0
 39 40  1  0
 40 41  1  0
 41 42  1  0
 42 43  1  0
 43 44  1  0
 43 45  1  0
 45 46  1  0
 35 47  2  0
 20  2  1  0
 30 22  1  0
 47 31  1  0
 18  9  1  0
 29 24  1  0
 46 40  1  0
  1 48  1  0
  1 49  1  0
  1 50  1  0
  3 51  1  0
  4 52  1  0
  8 53  1  0
 10 54  1  0
 11 55  1  0
 12 56  1  0
 18 57  1  0
 19 58  1  0
 21 59  1  0
 25 60  1  0
 26 61  1  0
 27 62  1  0
 28 63  1  0
 33 64  1  0
 36 65  1  0
 37 66  1  0
 37 67  1  0
 38 68  1  0
 38 69  1  0
 39 70  1  0
 39 71  1  0
 40 72  1  0
 41 73  1  0
 41 74  1  0
 42 75  1  0
 42 76  1  0
 43 77  1  0
 44 78  1  0
 44 79  1  0
 44 80  1  0
 45 81  1  0
 45 82  1  0
 46 83  1  0
 46 84  1  0
M  CHG  2  40   1  43   1
M  END
>  <meeko>  (4) 
{"is_sidechain": [false], "free_energy": -8.97, "intermolecular_energy": -14.819, "internal_energy": -2.937}

$$$$
LIB_BCNXUFFSRWFFQA__M_PUB_ALL__e8__s20260927
     RDKit          3D

 84 89  0  0  0  0  0  0  0  0999 V2000
   -1.8610  -17.4410    1.1640 C   0  0  0  0  0  0  0  0  0  0  0  0
   -0.8240  -16.7210    0.3390 C   0  0  0  0  0  0  0  0  0  0  0  0
    0.3940  -17.3760    0.0750 C   0  0  0  0  0  0  0  0  0  0  0  0
    1.3780  -16.7710   -0.7040 C   0  0  0  0  0  0  0  0  0  0  0  0
    1.1570  -15.4850   -1.1890 C   0  0  0  0  0  0  0  0  0  0  0  0
    2.0860  -14.8750   -2.1640 C   0  0  0  0  0  0  0  0  0  0  0  0
    3.1190  -15.4960   -2.4350 O   0  0  0  0  0  0  0  0  0  0  0  0
    1.6620  -13.6870   -2.7070 N   0  0  0  0  0  0  0  0  0  0  0  0
    2.4180  -12.8000   -3.4960 C   0  0  0  0  0  0  0  0  0  0  0  0
    2.2930  -11.4110   -3.4170 C   0  0  0  0  0  0  0  0  0  0  0  0
    3.0540  -10.5840   -4.2490 C   0  0  0  0  0  0  0  0  0  0  0  0
    3.9450  -11.1420   -5.1640 C   0  0  0  0  0  0  0  0  0  0  0  0
    4.0750  -12.5330   -5.2680 C   0  0  0  0  0  0  0  0  0  0  0  0
    5.0120  -13.1490   -6.2840 C   0  0  0  0  0  0  0  0  0  0  0  0
    5.1240  -14.4930   -6.1280 F   0  0  0  0  0  0  0  0  0  0  0  0
    4.6150  -12.9370   -7.5670 F   0  0  0  0  0  0  0  0  0  0  0  0
    6.2740  -12.6460   -6.1910 F   0  0  0  0  0  0  0  0  0  0  0  0
    3.2910  -13.3540   -4.4390 C   0  0  0  0  0  0  0  0  0  0  0  0
   -0.0230  -14.8020   -0.8850 C   0  0  0  0  0  0  0  0  0  0  0  0
   -1.0560  -15.4260   -0.1780 C   0  0  0  0  0  0  0  0  0  0  0  0
   -2.3050  -14.7970   -0.0000 N   0  0  0  0  0  0  0  0  0  0  0  0
   -2.5650  -13.5300    0.4220 C   0  0  0  0  0  0  0  0  0  0  0  0
   -3.3410  -12.6270   -0.1390 N   0  0  0  0  0  0  0  0  0  0  0  0
   -2.9980  -11.4420    0.4620 C   0  0  0  0  0  0  0  0  0  0  0  0
   -3.4120  -10.1400    0.1410 C   0  0  0  0  0  0  0  0  0  0  0  0
   -2.9330   -9.0710    0.9070 C   0  0  0  0  0  0  0  0  0  0  0  0
   -2.0700   -9.2940    1.9780 C   0  0  0  0  0  0  0  0  0  0  0  0
   -1.6550  -10.5850    2.3210 C   0  0  0  0  0  0  0  0  0  0  0  0
   -2.1300  -11.6450    1.5340 C   0  0  0  0  0  0  0  0  0  0  0  0
   -1.9980  -13.0220    1.5960 N   0  0  0  0  0  0  0  0  0  0  0  0
   -1.6100  -13.8090    2.7240 C   0  0  0  0  0  0  0  0  0  0  0  0
   -2.4900  -14.6110    3.3130 N   0  0  0  0  0  0  0  0  0  0  0  0
   -1.9560  -15.4480    4.2020 C   0  0  0  0  0  0  0  0  0  0  0  0
   -0.6540  -15.5990    4.4500 N   0  0  0  0  0  0  0  0  0  0  0  0
    0.1440  -14.7780    3.7960 C   0  0  0  0  0  0  0  0  0  0  0  0
    1.4960  -14.9980    3.8760 N   0  0  0  0  0  0  0  0  0  0  0  0
    2.1710  -16.0360    3.1290 C   0  0  0  0  0  0  0  0  0  0  0  0
    3.1190  -15.4800    2.0490 C   0  0  0  0  0  0  0  0  0  0  0  0
    2.8130  -14.0370    1.6630 C   0  0  0  0  0  0  0  0  0  0  0  0
    4.0580  -13.1710    1.5070 N   0  0  0  0  0  0  0  0  0  0  0  0
    4.3330  -12.9200    0.0210 C   0  0  0  0  0  0  0  0  0  0  0  0
    5.4430  -11.8610   -0.1960 C   0  0  0  0  0  0  0  0  0  0  0  0
    6.2770  -11.6380    1.0580 N   0  0  0  0  0  0  0  0  0  0  0  0
    7.5070  -10.8140    0.7760 C   0  0  0  0  0  0  0  0  0  0  0  0
    6.5870  -12.9290    1.7940 C   0  0  0  0  0  0  0  0  0  0  0  0
    5.2950  -13.6830    2.2270 C   0  0  0  0  0  0  0  0  0  0  0  0
   -0.2940  -13.8400    2.9700 N   0  0  0  0  0  0  0  0  0  0  0  0
   -1.6471  -17.2925    2.2327 H   0  0  0  0  0  0  0  0  0  0  0  0
   -2.8584  -17.0401    0.9305 H   0  0  0  0  0  0  0  0  0  0  0  0
   -1.8339  -18.5156    0.9305 H   0  0  0  0  0  0  0  0  0  0  0  0
    0.5712  -18.3794    0.4895 H   0  0  0  0  0  0  0  0  0  0  0  0
    2.3145  -17.3010   -0.9321 H   0  0  0  0  0  0  0  0  0  0  0  0
    0.6850  -13.4330   -2.5650 H   0  0  0  0  0  0  0  0  0  0  0  0
    1.5919  -10.9652   -2.6961 H   0  0  0  0  0  0  0  0  0  0  0  0
    2.9492   -9.4911   -4.1812 H   0  0  0  0  0  0  0  0  0  0  0  0
    4.5495  -10.4865   -5.8081 H   0  0  0  0  0  0  0  0  0  0  0  0
    3.3648  -14.4475   -4.5329 H   0  0  0  0  0  0  0  0  0  0  0  0
   -0.1417  -13.7568   -1.2067 H   0  0  0  0  0  0  0  0  0  0  0  0
   -3.0890  -15.3760   -0.2930 H   0  0  0  0  0  0  0  0  0  0  0  0
   -4.1009   -9.9627   -0.6980 H   0  0  0  0  0  0  0  0  0  0  0  0
   -3.2410   -8.0441    0.6610 H   0  0  0  0  0  0  0  0  0  0  0  0
   -1.7078   -8.4375    2.5656 H   0  0  0  0  0  0  0  0  0  0  0  0
   -0.9831  -10.7621    3.1737 H   0  0  0  0  0  0  0  0  0  0  0  0
   -2.6517  -16.0705    4.7838 H   0  0  0  0  0  0  0  0  0  0  0  0
    2.0130  -14.2200    4.2730 H   0  0  0  0  0  0  0  0  0  0  0  0
    2.7582  -16.6472    3.8301 H   0  0  0  0  0  0  0  0  0  0  0  0
    1.3987  -16.6280    2.6162 H   0  0  0  0  0  0  0  0  0  0  0  0
    4.1496  -15.5283    2.4306 H   0  0  0  0  0  0  0  0  0  0  0  0
    2.9817  -16.0947    1.1472 H   0  0  0  0  0  0  0  0  0  0  0  0
    2.2694  -14.0404    0.7067 H   0  0  0  0  0  0  0  0  0  0  0  0
    2.2180  -13.6032    2.4802 H   0  0  0  0  0  0  0  0  0  0  0  0
    3.8240  -12.2500    1.9280 H   0  0  0  0  0  0  0  0  0  0  0  0
    4.6482  -13.8648   -0.4458 H   0  0  0  0  0  0  0  0  0  0  0  0
    3.4074  -12.5386   -0.4349 H   0  0  0  0  0  0  0  0  0  0  0  0
    6.1048  -12.2021   -1.0057 H   0  0  0  0  0  0  0  0  0  0  0  0
    4.9560  -10.9084   -0.4519 H   0  0  0  0  0  0  0  0  0  0  0  0
    5.6870  -11.0460    1.6830 H   0  0  0  0  0  0  0  0  0  0  0  0
    7.9675  -10.5055    1.7262 H   0  0  0  0  0  0  0  0  0  0  0  0
    8.2255  -11.4137    0.1980 H   0  0  0  0  0  0  0  0  0  0  0  0
    7.2258   -9.9213    0.1980 H   0  0  0  0  0  0  0  0  0  0  0  0
    7.1736  -13.5825    1.1316 H   0  0  0  0  0  0  0  0  0  0  0  0
    7.1499  -12.6728    2.7037 H   0  0  0  0  0  0  0  0  0  0  0  0
    5.4177  -14.7527    2.0018 H   0  0  0  0  0  0  0  0  0  0  0  0
    5.1515  -13.5124    3.3042 H   0  0  0  0  0  0  0  0  0  0  0  0
  1  2  1  0
  2  3  2  0
  3  4  1  0
  4  5  2  0
  5  6  1  0
  6  7  2  0
  6  8  1  0
  8  9  1  0
  9 10  2  0
 10 11  1  0
 11 12  2  0
 12 13  1  0
 13 14  1  0
 14 15  1  0
 14 16  1  0
 14 17  1  0
 13 18  2  0
  5 19  1  0
 19 20  2  0
 20 21  1  0
 21 22  1  0
 22 23  2  0
 23 24  1  0
 24 25  2  0
 25 26  1  0
 26 27  2  0
 27 28  1  0
 28 29  2  0
 29 30  1  0
 30 31  1  0
 31 32  2  0
 32 33  1  0
 33 34  2  0
 34 35  1  0
 35 36  1  0
 36 37  1  0
 37 38  1  0
 38 39  1  0
 39 40  1  0
 40 41  1  0
 41 42  1  0
 42 43  1  0
 43 44  1  0
 43 45  1  0
 45 46  1  0
 35 47  2  0
 20  2  1  0
 30 22  1  0
 47 31  1  0
 18  9  1  0
 29 24  1  0
 46 40  1  0
  1 48  1  0
  1 49  1  0
  1 50  1  0
  3 51  1  0
  4 52  1  0
  8 53  1  0
 10 54  1  0
 11 55  1  0
 12 56  1  0
 18 57  1  0
 19 58  1  0
 21 59  1  0
 25 60  1  0
 26 61  1  0
 27 62  1  0
 28 63  1  0
 33 64  1  0
 36 65  1  0
 37 66  1  0
 37 67  1  0
 38 68  1  0
 38 69  1  0
 39 70  1  0
 39 71  1  0
 40 72  1  0
 41 73  1  0
 41 74  1  0
 42 75  1  0
 42 76  1  0
 43 77  1  0
 44 78  1  0
 44 79  1  0
 44 80  1  0
 45 81  1  0
 45 82  1  0
 46 83  1  0
 46 84  1  0
M  CHG  2  40   1  43   1
M  END
>  <meeko>  (5) 
{"is_sidechain": [false], "free_energy": -8.939, "intermolecular_energy": -14.526, "internal_energy": -3.179}

$$$$
LIB_BCNXUFFSRWFFQA__M_PUB_ALL__e8__s20260927
     RDKit          3D

 84 89  0  0  0  0  0  0  0  0999 V2000
    5.0390  -12.5360   -6.0300 C   0  0  0  0  0  0  0  0  0  0  0  0
    4.3150  -12.1630   -4.7610 C   0  0  0  0  0  0  0  0  0  0  0  0
    2.9070  -12.1570   -4.7710 C   0  0  0  0  0  0  0  0  0  0  0  0
    2.1840  -11.8460   -3.6210 C   0  0  0  0  0  0  0  0  0  0  0  0
    2.8770  -11.5010   -2.4630 C   0  0  0  0  0  0  0  0  0  0  0  0
    2.1650  -11.3400   -1.1770 C   0  0  0  0  0  0  0  0  0  0  0  0
    2.5800  -11.9860   -0.2100 O   0  0  0  0  0  0  0  0  0  0  0  0
    1.1340  -10.4330   -1.1920 N   0  0  0  0  0  0  0  0  0  0  0  0
    0.1730  -10.2270   -0.1840 C   0  0  0  0  0  0  0  0  0  0  0  0
    0.3480   -9.3170    0.8610 C   0  0  0  0  0  0  0  0  0  0  0  0
   -0.6330   -9.1790    1.8470 C   0  0  0  0  0  0  0  0  0  0  0  0
   -1.7950   -9.9470    1.7930 C   0  0  0  0  0  0  0  0  0  0  0  0
   -1.9830  -10.8740    0.7580 C   0  0  0  0  0  0  0  0  0  0  0  0
   -3.2230  -11.7400    0.7110 C   0  0  0  0  0  0  0  0  0  0  0  0
   -3.7120  -12.0000    1.9500 F   0  0  0  0  0  0  0  0  0  0  0  0
   -4.2360  -11.1760    0.0010 F   0  0  0  0  0  0  0  0  0  0  0  0
   -2.9830  -12.9490    0.1320 F   0  0  0  0  0  0  0  0  0  0  0  0
   -0.9810  -11.0180   -0.2170 C   0  0  0  0  0  0  0  0  0  0  0  0
    4.2730  -11.4470   -2.4580 C   0  0  0  0  0  0  0  0  0  0  0  0
    5.0140  -11.8390   -3.5760 C   0  0  0  0  0  0  0  0  0  0  0  0
    6.4200  -11.9310   -3.5260 N   0  0  0  0  0  0  0  0  0  0  0  0
    7.1920  -13.0380   -3.3520 C   0  0  0  0  0  0  0  0  0  0  0  0
    7.8120  -13.7520   -4.2670 N   0  0  0  0  0  0  0  0  0  0  0  0
    8.1500  -14.9230   -3.6350 C   0  0  0  0  0  0  0  0  0  0  0  0
    8.6970  -16.0930   -4.1830 C   0  0  0  0  0  0  0  0  0  0  0  0
    8.9710  -17.1720   -3.3350 C   0  0  0  0  0  0  0  0  0  0  0  0
    8.7150  -17.0850   -1.9680 C   0  0  0  0  0  0  0  0  0  0  0  0
    8.1810  -15.9230   -1.4000 C   0  0  0  0  0  0  0  0  0  0  0  0
    7.8970  -14.8560   -2.2650 C   0  0  0  0  0  0  0  0  0  0  0  0
    7.4360  -13.5630   -2.0780 N   0  0  0  0  0  0  0  0  0  0  0  0
    7.4460  -12.8040   -0.8680 C   0  0  0  0  0  0  0  0  0  0  0  0
    6.3090  -12.5550   -0.2260 N   0  0  0  0  0  0  0  0  0  0  0  0
    6.4710  -12.0360    0.9900 C   0  0  0  0  0  0  0  0  0  0  0  0
    7.6350  -11.8550    1.6150 N   0  0  0  0  0  0  0  0  0  0  0  0
    8.7080  -12.1570    0.9080 C   0  0  0  0  0  0  0  0  0  0  0  0
    9.9200  -12.1580    1.5500 N   0  0  0  0  0  0  0  0  0  0  0  0
   11.0080  -11.2790    1.1790 C   0  0  0  0  0  0  0  0  0  0  0  0
   12.2110  -12.0330    0.5780 C   0  0  0  0  0  0  0  0  0  0  0  0
   12.7370  -11.4040   -0.7060 C   0  0  0  0  0  0  0  0  0  0  0  0
   12.9620  -12.4090   -1.8290 N   0  0  0  0  0  0  0  0  0  0  0  0
   13.7580  -11.7520   -2.9620 C   0  0  0  0  0  0  0  0  0  0  0  0
   14.2180  -12.7810   -4.0250 C   0  0  0  0  0  0  0  0  0  0  0  0
   13.4390  -14.0860   -3.9350 N   0  0  0  0  0  0  0  0  0  0  0  0
   13.6990  -14.9790   -5.1220 C   0  0  0  0  0  0  0  0  0  0  0  0
   11.9600  -13.8700   -3.6720 C   0  0  0  0  0  0  0  0  0  0  0  0
   11.7070  -13.0900   -2.3480 C   0  0  0  0  0  0  0  0  0  0  0  0
    8.6580  -12.5810   -0.3450 N   0  0  0  0  0  0  0  0  0  0  0  0
    5.9909  -13.0264   -5.7784 H   0  0  0  0  0  0  0  0  0  0  0  0
    4.4158  -13.2253   -6.6187 H   0  0  0  0  0  0  0  0  0  0  0  0
    5.2385  -11.6284   -6.6187 H   0  0  0  0  0  0  0  0  0  0  0  0
    2.3702  -12.4012   -5.6996 H   0  0  0  0  0  0  0  0  0  0  0  0
    1.0843  -11.8725   -3.6276 H   0  0  0  0  0  0  0  0  0  0  0  0
    1.0750   -9.8090   -1.9960 H   0  0  0  0  0  0  0  0  0  0  0  0
    1.2617   -8.7063    0.9082 H   0  0  0  0  0  0  0  0  0  0  0  0
   -0.4876   -8.4619    2.6684 H   0  0  0  0  0  0  0  0  0  0  0  0
   -2.5681   -9.8252    2.5660 H   0  0  0  0  0  0  0  0  0  0  0  0
   -1.1056  -11.7626   -1.0170 H   0  0  0  0  0  0  0  0  0  0  0  0
    4.7974  -11.0901   -1.5593 H   0  0  0  0  0  0  0  0  0  0  0  0
    6.8850  -11.0450   -3.7090 H   0  0  0  0  0  0  0  0  0  0  0  0
    8.9069  -16.1610   -5.2606 H   0  0  0  0  0  0  0  0  0  0  0  0
    9.3928  -18.0984   -3.7519 H   0  0  0  0  0  0  0  0  0  0  0  0
    8.9372  -17.9473   -1.3223 H   0  0  0  0  0  0  0  0  0  0  0  0
    7.9916  -15.8493   -0.3189 H   0  0  0  0  0  0  0  0  0  0  0  0
    5.5618  -11.7287    1.5276 H   0  0  0  0  0  0  0  0  0  0  0  0
    9.9010  -12.6110    2.4580 H   0  0  0  0  0  0  0  0  0  0  0  0
   10.6385  -10.5580    0.4349 H   0  0  0  0  0  0  0  0  0  0  0  0
   11.3560  -10.7799    2.0954 H   0  0  0  0  0  0  0  0  0  0  0  0
   13.0230  -12.0426    1.3200 H   0  0  0  0  0  0  0  0  0  0  0  0
   11.8669  -13.0470    0.3264 H   0  0  0  0  0  0  0  0  0  0  0  0
   12.0087  -10.6550   -1.0502 H   0  0  0  0  0  0  0  0  0  0  0  0
   13.7149  -10.9587   -0.4704 H   0  0  0  0  0  0  0  0  0  0  0  0
   13.5670  -13.1550   -1.4320 H   0  0  0  0  0  0  0  0  0  0  0  0
   13.1233  -10.9977   -3.4501 H   0  0  0  0  0  0  0  0  0  0  0  0
   14.6567  -11.2943   -2.5229 H   0  0  0  0  0  0  0  0  0  0  0  0
   14.0697  -12.3478   -5.0252 H   0  0  0  0  0  0  0  0  0  0  0  0
   15.2787  -13.0067   -3.8406 H   0  0  0  0  0  0  0  0  0  0  0  0
   13.8400  -14.5940   -3.1170 H   0  0  0  0  0  0  0  0  0  0  0  0
   13.9904  -15.9799   -4.7710 H   0  0  0  0  0  0  0  0  0  0  0  0
   12.7858  -15.0553   -5.7304 H   0  0  0  0  0  0  0  0  0  0  0  0
   14.5105  -14.5532   -5.7304 H   0  0  0  0  0  0  0  0  0  0  0  0
   11.5312  -13.2979   -4.5079 H   0  0  0  0  0  0  0  0  0  0  0  0
   11.4853  -14.8579   -3.5786 H   0  0  0  0  0  0  0  0  0  0  0  0
   10.9389  -12.3240   -2.5304 H   0  0  0  0  0  0  0  0  0  0  0  0
   11.3800  -13.8153   -1.5883 H   0  0  0  0  0  0  0  0  0  0  0  0
  1  2  1  0
  2  3  2  0
  3  4  1  0
  4  5  2  0
  5  6  1  0
  6  7  2  0
  6  8  1  0
  8  9  1  0
  9 10  2  0
 10 11  1  0
 11 12  2  0
 12 13  1  0
 13 14  1  0
 14 15  1  0
 14 16  1  0
 14 17  1  0
 13 18  2  0
  5 19  1  0
 19 20  2  0
 20 21  1  0
 21 22  1  0
 22 23  2  0
 23 24  1  0
 24 25  2  0
 25 26  1  0
 26 27  2  0
 27 28  1  0
 28 29  2  0
 29 30  1  0
 30 31  1  0
 31 32  2  0
 32 33  1  0
 33 34  2  0
 34 35  1  0
 35 36  1  0
 36 37  1  0
 37 38  1  0
 38 39  1  0
 39 40  1  0
 40 41  1  0
 41 42  1  0
 42 43  1  0
 43 44  1  0
 43 45  1  0
 45 46  1  0
 35 47  2  0
 20  2  1  0
 30 22  1  0
 47 31  1  0
 18  9  1  0
 29 24  1  0
 46 40  1  0
  1 48  1  0
  1 49  1  0
  1 50  1  0
  3 51  1  0
  4 52  1  0
  8 53  1  0
 10 54  1  0
 11 55  1  0
 12 56  1  0
 18 57  1  0
 19 58  1  0
 21 59  1  0
 25 60  1  0
 26 61  1  0
 27 62  1  0
 28 63  1  0
 33 64  1  0
 36 65  1  0
 37 66  1  0
 37 67  1  0
 38 68  1  0
 38 69  1  0
 39 70  1  0
 39 71  1  0
 40 72  1  0
 41 73  1  0
 41 74  1  0
 42 75  1  0
 42 76  1  0
 43 77  1  0
 44 78  1  0
 44 79  1  0
 44 80  1  0
 45 81  1  0
 45 82  1  0
 46 83  1  0
 46 84  1  0
M  CHG  2  40   1  43   1
M  END
>  <meeko>  (6) 
{"is_sidechain": [false], "free_energy": -8.926, "intermolecular_energy": -15.201, "internal_energy": -2.482}

$$$$
LIB_BCNXUFFSRWFFQA__M_PUB_ALL__e8__s20260927
     RDKit          3D

 84 89  0  0  0  0  0  0  0  0999 V2000
    4.8630  -12.2120   -5.6790 C   0  0  0  0  0  0  0  0  0  0  0  0
    4.0550  -11.9700   -4.4290 C   0  0  0  0  0  0  0  0  0  0  0  0
    2.6690  -12.2170   -4.4720 C   0  0  0  0  0  0  0  0  0  0  0  0
    1.8750  -12.0370   -3.3400 C   0  0  0  0  0  0  0  0  0  0  0  0
    2.4670  -11.5700   -2.1700 C   0  0  0  0  0  0  0  0  0  0  0  0
    1.7080  -11.5350   -0.9020 C   0  0  0  0  0  0  0  0  0  0  0  0
    1.9700  -12.3950   -0.0550 O   0  0  0  0  0  0  0  0  0  0  0  0
    0.8140  -10.4980   -0.7870 N   0  0  0  0  0  0  0  0  0  0  0  0
   -0.1680  -10.3340    0.2080 C   0  0  0  0  0  0  0  0  0  0  0  0
   -0.0990   -9.3460    1.1930 C   0  0  0  0  0  0  0  0  0  0  0  0
   -1.0940   -9.2520    2.1700 C   0  0  0  0  0  0  0  0  0  0  0  0
   -2.1640  -10.1450    2.1680 C   0  0  0  0  0  0  0  0  0  0  0  0
   -2.2450  -11.1500    1.1960 C   0  0  0  0  0  0  0  0  0  0  0  0
   -3.3830  -12.1480    1.2070 C   0  0  0  0  0  0  0  0  0  0  0  0
   -4.4280  -11.7390    0.4440 F   0  0  0  0  0  0  0  0  0  0  0  0
   -3.0180  -13.3730    0.7450 F   0  0  0  0  0  0  0  0  0  0  0  0
   -3.8780  -12.3490    2.4590 F   0  0  0  0  0  0  0  0  0  0  0  0
   -1.2290  -11.2460    0.2290 C   0  0  0  0  0  0  0  0  0  0  0  0
    3.8300  -11.2660   -2.1330 C   0  0  0  0  0  0  0  0  0  0  0  0
    4.6560  -11.5220   -3.2310 C   0  0  0  0  0  0  0  0  0  0  0  0
    6.0540  -11.3610   -3.1490 N   0  0  0  0  0  0  0  0  0  0  0  0
    7.0090  -12.3130   -2.9670 C   0  0  0  0  0  0  0  0  0  0  0  0
    7.8760  -12.7760   -3.8420 N   0  0  0  0  0  0  0  0  0  0  0  0
    8.3640  -13.9300   -3.2810 C   0  0  0  0  0  0  0  0  0  0  0  0
    9.2070  -14.8970   -3.8500 C   0  0  0  0  0  0  0  0  0  0  0  0
    9.5860  -16.0010   -3.0770 C   0  0  0  0  0  0  0  0  0  0  0  0
    9.1440  -16.1340   -1.7620 C   0  0  0  0  0  0  0  0  0  0  0  0
    8.3130  -15.1750   -1.1740 C   0  0  0  0  0  0  0  0  0  0  0  0
    7.9280  -14.0830   -1.9650 C   0  0  0  0  0  0  0  0  0  0  0  0
    7.1900  -12.9360   -1.7270 N   0  0  0  0  0  0  0  0  0  0  0  0
    6.8860  -12.3450   -0.4620 C   0  0  0  0  0  0  0  0  0  0  0  0
    7.3730  -11.1480   -0.1500 N   0  0  0  0  0  0  0  0  0  0  0  0
    6.8450  -10.6130    0.9500 C   0  0  0  0  0  0  0  0  0  0  0  0
    5.8400  -11.1240    1.6630 N   0  0  0  0  0  0  0  0  0  0  0  0
    5.4030  -12.3020    1.2590 C   0  0  0  0  0  0  0  0  0  0  0  0
    4.2630  -12.7970    1.8410 N   0  0  0  0  0  0  0  0  0  0  0  0
    4.1740  -14.1340    2.3850 C   0  0  0  0  0  0  0  0  0  0  0  0
    3.5010  -15.1310    1.4210 C   0  0  0  0  0  0  0  0  0  0  0  0
    4.4470  -16.2150    0.9180 C   0  0  0  0  0  0  0  0  0  0  0  0
    4.7820  -16.0920   -0.5640 N   0  0  0  0  0  0  0  0  0  0  0  0
    3.5710  -15.5450   -1.3260 C   0  0  0  0  0  0  0  0  0  0  0  0
    3.9200  -15.1790   -2.7910 C   0  0  0  0  0  0  0  0  0  0  0  0
    5.2200  -15.8240   -3.2500 N   0  0  0  0  0  0  0  0  0  0  0  0
    5.4230  -15.6870   -4.7370 C   0  0  0  0  0  0  0  0  0  0  0  0
    5.3700  -17.2550   -2.7630 C   0  0  0  0  0  0  0  0  0  0  0  0
    5.3280  -17.3540   -1.2100 C   0  0  0  0  0  0  0  0  0  0  0  0
    5.9300  -12.9640    0.2420 N   0  0  0  0  0  0  0  0  0  0  0  0
    5.8830  -12.5175   -5.4029 H   0  0  0  0  0  0  0  0  0  0  0  0
    4.3900  -13.0079   -6.2730 H   0  0  0  0  0  0  0  0  0  0  0  0
    4.9054  -11.2871   -6.2730 H   0  0  0  0  0  0  0  0  0  0  0  0
    2.2069  -12.5563   -5.4108 H   0  0  0  0  0  0  0  0  0  0  0  0
    0.7984  -12.2604   -3.3711 H   0  0  0  0  0  0  0  0  0  0  0  0
    0.8910   -9.7400   -1.4640 H   0  0  0  0  0  0  0  0  0  0  0  0
    0.7430   -8.6381    1.1998 H   0  0  0  0  0  0  0  0  0  0  0  0
   -1.0324   -8.4713    2.9424 H   0  0  0  0  0  0  0  0  0  0  0  0
   -2.9490  -10.0600    2.9339 H   0  0  0  0  0  0  0  0  0  0  0  0
   -1.2687  -12.0492   -0.5215 H   0  0  0  0  0  0  0  0  0  0  0  0
    4.2601  -10.8179   -1.2251 H   0  0  0  0  0  0  0  0  0  0  0  0
    6.3560  -10.4030   -3.3120 H   0  0  0  0  0  0  0  0  0  0  0  0
    9.5636  -14.7894   -4.8850 H   0  0  0  0  0  0  0  0  0  0  0  0
   10.2395  -16.7715   -3.5121 H   0  0  0  0  0  0  0  0  0  0  0  0
    9.4549  -17.0107   -1.1749 H   0  0  0  0  0  0  0  0  0  0  0  0
    7.9747  -15.2735   -0.1320 H   0  0  0  0  0  0  0  0  0  0  0  0
    7.2767   -9.6644    1.3020 H   0  0  0  0  0  0  0  0  0  0  0  0
    3.5950  -12.0800    2.1040 H   0  0  0  0  0  0  0  0  0  0  0  0
    5.1906  -14.4913    2.6059 H   0  0  0  0  0  0  0  0  0  0  0  0
    3.5526  -14.0807    3.2911 H   0  0  0  0  0  0  0  0  0  0  0  0
    2.6642  -15.6142    1.9466 H   0  0  0  0  0  0  0  0  0  0  0  0
    3.1645  -14.5593    0.5435 H   0  0  0  0  0  0  0  0  0  0  0  0
    5.3831  -16.1538    1.4925 H   0  0  0  0  0  0  0  0  0  0  0  0
    3.9351  -17.1790    1.0544 H   0  0  0  0  0  0  0  0  0  0  0  0
    5.5290  -15.3710   -0.6320 H   0  0  0  0  0  0  0  0  0  0  0  0
    2.7799  -16.3093   -1.3303 H   0  0  0  0  0  0  0  0  0  0  0  0
    3.2376  -14.6279   -0.8182 H   0  0  0  0  0  0  0  0  0  0  0  0
    3.1045  -15.5206   -3.4455 H   0  0  0  0  0  0  0  0  0  0  0  0
    4.0464  -14.0877   -2.8458 H   0  0  0  0  0  0  0  0  0  0  0  0
    5.9810  -15.2570   -2.8160 H   0  0  0  0  0  0  0  0  0  0  0  0
    6.3206  -15.0812   -4.9303 H   0  0  0  0  0  0  0  0  0  0  0  0
    5.5507  -16.6844   -5.1831 H   0  0  0  0  0  0  0  0  0  0  0  0
    4.5459  -15.1954   -5.1831 H   0  0  0  0  0  0  0  0  0  0  0  0
    4.5500  -17.8587   -3.1789 H   0  0  0  0  0  0  0  0  0  0  0  0
    6.3496  -17.6256   -3.0991 H   0  0  0  0  0  0  0  0  0  0  0  0
    4.6864  -18.2016   -0.9272 H   0  0  0  0  0  0  0  0  0  0  0  0
    6.3597  -17.4934   -0.8547 H   0  0  0  0  0  0  0  0  0  0  0  0
  1  2  1  0
  2  3  2  0
  3  4  1  0
  4  5  2  0
  5  6  1  0
  6  7  2  0
  6  8  1  0
  8  9  1  0
  9 10  2  0
 10 11  1  0
 11 12  2  0
 12 13  1  0
 13 14  1  0
 14 15  1  0
 14 16  1  0
 14 17  1  0
 13 18  2  0
  5 19  1  0
 19 20  2  0
 20 21  1  0
 21 22  1  0
 22 23  2  0
 23 24  1  0
 24 25  2  0
 25 26  1  0
 26 27  2  0
 27 28  1  0
 28 29  2  0
 29 30  1  0
 30 31  1  0
 31 32  2  0
 32 33  1  0
 33 34  2  0
 34 35  1  0
 35 36  1  0
 36 37  1  0
 37 38  1  0
 38 39  1  0
 39 40  1  0
 40 41  1  0
 41 42  1  0
 42 43  1  0
 43 44  1  0
 43 45  1  0
 45 46  1  0
 35 47  2  0
 20  2  1  0
 30 22  1  0
 47 31  1  0
 18  9  1  0
 29 24  1  0
 46 40  1  0
  1 48  1  0
  1 49  1  0
  1 50  1  0
  3 51  1  0
  4 52  1  0
  8 53  1  0
 10 54  1  0
 11 55  1  0
 12 56  1  0
 18 57  1  0
 19 58  1  0
 21 59  1  0
 25 60  1  0
 26 61  1  0
 27 62  1  0
 28 63  1  0
 33 64  1  0
 36 65  1  0
 37 66  1  0
 37 67  1  0
 38 68  1  0
 38 69  1  0
 39 70  1  0
 39 71  1  0
 40 72  1  0
 41 73  1  0
 41 74  1  0
 42 75  1  0
 42 76  1  0
 43 77  1  0
 44 78  1  0
 44 79  1  0
 44 80  1  0
 45 81  1  0
 45 82  1  0
 46 83  1  0
 46 84  1  0
M  CHG  2  40   1  43   1
M  END
>  <meeko>  (7) 
{"is_sidechain": [false], "free_energy": -8.892, "intermolecular_energy": -13.224, "internal_energy": -4.403}

$$$$
LIB_BCNXUFFSRWFFQA__M_PUB_ALL__e8__s20260927
     RDKit          3D

 84 89  0  0  0  0  0  0  0  0999 V2000
   10.4290  -18.8810   -0.5120 C   0  0  0  0  0  0  0  0  0  0  0  0
    9.4660  -18.2190   -1.4640 C   0  0  0  0  0  0  0  0  0  0  0  0
    8.3390  -18.9470   -1.8900 C   0  0  0  0  0  0  0  0  0  0  0  0
    7.4000  -18.3770   -2.7480 C   0  0  0  0  0  0  0  0  0  0  0  0
    7.6120  -17.0820   -3.2140 C   0  0  0  0  0  0  0  0  0  0  0  0
    6.5630  -16.3720   -3.9750 C   0  0  0  0  0  0  0  0  0  0  0  0
    5.6390  -17.0460   -4.4410 O   0  0  0  0  0  0  0  0  0  0  0  0
    6.7110  -15.0080   -4.0370 N   0  0  0  0  0  0  0  0  0  0  0  0
    5.9850  -14.1130   -4.8450 C   0  0  0  0  0  0  0  0  0  0  0  0
    6.2180  -13.9610   -6.2140 C   0  0  0  0  0  0  0  0  0  0  0  0
    5.4800  -13.0350   -6.9570 C   0  0  0  0  0  0  0  0  0  0  0  0
    4.5050  -12.2560   -6.3360 C   0  0  0  0  0  0  0  0  0  0  0  0
    4.2660  -12.3860   -4.9620 C   0  0  0  0  0  0  0  0  0  0  0  0
    3.2350  -11.5190   -4.2700 C   0  0  0  0  0  0  0  0  0  0  0  0
    2.3150  -12.2560   -3.5980 F   0  0  0  0  0  0  0  0  0  0  0  0
    3.7830  -10.6610   -3.3690 F   0  0  0  0  0  0  0  0  0  0  0  0
    2.5390  -10.7470   -5.1500 F   0  0  0  0  0  0  0  0  0  0  0  0
    5.0260  -13.3070   -4.2210 C   0  0  0  0  0  0  0  0  0  0  0  0
    8.7570  -16.3710   -2.8440 C   0  0  0  0  0  0  0  0  0  0  0  0
    9.6630  -16.8950   -1.9180 C   0  0  0  0  0  0  0  0  0  0  0  0
   10.7360  -16.1220   -1.4270 N   0  0  0  0  0  0  0  0  0  0  0  0
   11.3890  -15.0950   -2.0330 C   0  0  0  0  0  0  0  0  0  0  0  0
   12.0920  -15.1180   -3.1460 N   0  0  0  0  0  0  0  0  0  0  0  0
   12.8080  -13.9470   -3.1380 C   0  0  0  0  0  0  0  0  0  0  0  0
   13.8240  -13.5310   -4.0120 C   0  0  0  0  0  0  0  0  0  0  0  0
   14.4140  -12.2770   -3.8140 C   0  0  0  0  0  0  0  0  0  0  0  0
   13.9940  -11.4500   -2.7730 C   0  0  0  0  0  0  0  0  0  0  0  0
   12.9750  -11.8430   -1.8990 C   0  0  0  0  0  0  0  0  0  0  0  0
   12.4050  -13.1080   -2.1000 C   0  0  0  0  0  0  0  0  0  0  0  0
   11.3650  -13.8010   -1.5010 N   0  0  0  0  0  0  0  0  0  0  0  0
   10.3090  -13.2630   -0.7020 C   0  0  0  0  0  0  0  0  0  0  0  0
   10.5880  -12.6000    0.4150 N   0  0  0  0  0  0  0  0  0  0  0  0
    9.5460  -11.9640    0.9470 C   0  0  0  0  0  0  0  0  0  0  0  0
    8.3300  -11.8680    0.4070 N   0  0  0  0  0  0  0  0  0  0  0  0
    8.1560  -12.5360   -0.7170 C   0  0  0  0  0  0  0  0  0  0  0  0
    6.9880  -12.3370   -1.4080 N   0  0  0  0  0  0  0  0  0  0  0  0
    5.9150  -11.5010   -0.9160 C   0  0  0  0  0  0  0  0  0  0  0  0
    4.6250  -12.2910   -0.6180 C   0  0  0  0  0  0  0  0  0  0  0  0
    4.7430  -13.2000    0.5990 C   0  0  0  0  0  0  0  0  0  0  0  0
    4.5720  -14.6800    0.2730 N   0  0  0  0  0  0  0  0  0  0  0  0
    5.9330  -15.3820    0.3180 C   0  0  0  0  0  0  0  0  0  0  0  0
    5.7980  -16.9230    0.2250 C   0  0  0  0  0  0  0  0  0  0  0  0
    4.4360  -17.3480   -0.3050 N   0  0  0  0  0  0  0  0  0  0  0  0
    4.3980  -18.8170   -0.6420 C   0  0  0  0  0  0  0  0  0  0  0  0
    3.9470  -16.4690   -1.4420 C   0  0  0  0  0  0  0  0  0  0  0  0
    3.8310  -14.9750   -1.0210 C   0  0  0  0  0  0  0  0  0  0  0  0
    9.0980  -13.2830   -1.2720 N   0  0  0  0  0  0  0  0  0  0  0  0
   10.1235  -18.6710    0.5236 H   0  0  0  0  0  0  0  0  0  0  0  0
   10.4244  -19.9677   -0.6824 H   0  0  0  0  0  0  0  0  0  0  0  0
   11.4419  -18.4874   -0.6824 H   0  0  0  0  0  0  0  0  0  0  0  0
    8.1974  -19.9804   -1.5408 H   0  0  0  0  0  0  0  0  0  0  0  0
    6.5059  -18.9410   -3.0521 H   0  0  0  0  0  0  0  0  0  0  0  0
    7.3850  -14.5840   -3.4000 H   0  0  0  0  0  0  0  0  0  0  0  0
    6.9859  -14.5730   -6.7097 H   0  0  0  0  0  0  0  0  0  0  0  0
    5.6692  -12.9208   -8.0346 H   0  0  0  0  0  0  0  0  0  0  0  0
    3.9207  -11.5359   -6.9277 H   0  0  0  0  0  0  0  0  0  0  0  0
    4.8650  -13.3956   -3.1364 H   0  0  0  0  0  0  0  0  0  0  0  0
    8.9480  -15.3832   -3.2888 H   0  0  0  0  0  0  0  0  0  0  0  0
   10.9880  -16.3520   -0.4680 H   0  0  0  0  0  0  0  0  0  0  0  0
   14.1512  -14.1791   -4.8384 H   0  0  0  0  0  0  0  0  0  0  0  0
   15.2170  -11.9408   -4.4864 H   0  0  0  0  0  0  0  0  0  0  0  0
   14.4733  -10.4694   -2.6363 H   0  0  0  0  0  0  0  0  0  0  0  0
   12.6342  -11.1853   -1.0858 H   0  0  0  0  0  0  0  0  0  0  0  0
    9.7020  -11.4737    1.9192 H   0  0  0  0  0  0  0  0  0  0  0  0
    7.0460  -12.5900   -2.3890 H   0  0  0  0  0  0  0  0  0  0  0  0
    6.2486  -11.0117    0.0110 H   0  0  0  0  0  0  0  0  0  0  0  0
    5.6792  -10.7703   -1.7037 H   0  0  0  0  0  0  0  0  0  0  0  0
    3.8096  -11.5742   -0.4408 H   0  0  0  0  0  0  0  0  0  0  0  0
    4.4288  -12.9349   -1.4880 H   0  0  0  0  0  0  0  0  0  0  0  0
    5.7373  -13.0549    1.0466 H   0  0  0  0  0  0  0  0  0  0  0  0
    3.9306  -12.9249    1.2877 H   0  0  0  0  0  0  0  0  0  0  0  0
    4.0020  -15.0810    1.0450 H   0  0  0  0  0  0  0  0  0  0  0  0
    6.5427  -15.0279   -0.5263 H   0  0  0  0  0  0  0  0  0  0  0  0
    6.4064  -15.1412    1.2813 H   0  0  0  0  0  0  0  0  0  0  0  0
    6.5768  -17.3071   -0.4502 H   0  0  0  0  0  0  0  0  0  0  0  0
    5.9101  -17.3344    1.2390 H   0  0  0  0  0  0  0  0  0  0  0  0
    3.7770  -17.2330    0.4950 H   0  0  0  0  0  0  0  0  0  0  0  0
    4.3828  -19.4060    0.2869 H   0  0  0  0  0  0  0  0  0  0  0  0
    3.4939  -19.0352   -1.2294 H   0  0  0  0  0  0  0  0  0  0  0  0
    5.2896  -19.0816   -1.2294 H   0  0  0  0  0  0  0  0  0  0  0  0
    4.6552  -16.5471   -2.2801 H   0  0  0  0  0  0  0  0  0  0  0  0
    2.9446  -16.8174   -1.7316 H   0  0  0  0  0  0  0  0  0  0  0  0
    4.2529  -14.3485   -1.8207 H   0  0  0  0  0  0  0  0  0  0  0  0
    2.7661  -14.7540   -0.8563 H   0  0  0  0  0  0  0  0  0  0  0  0
  1  2  1  0
  2  3  2  0
  3  4  1  0
  4  5  2  0
  5  6  1  0
  6  7  2  0
  6  8  1  0
  8  9  1  0
  9 10  2  0
 10 11  1  0
 11 12  2  0
 12 13  1  0
 13 14  1  0
 14 15  1  0
 14 16  1  0
 14 17  1  0
 13 18  2  0
  5 19  1  0
 19 20  2  0
 20 21  1  0
 21 22  1  0
 22 23  2  0
 23 24  1  0
 24 25  2  0
 25 26  1  0
 26 27  2  0
 27 28  1  0
 28 29  2  0
 29 30  1  0
 30 31  1  0
 31 32  2  0
 32 33  1  0
 33 34  2  0
 34 35  1  0
 35 36  1  0
 36 37  1  0
 37 38  1  0
 38 39  1  0
 39 40  1  0
 40 41  1  0
 41 42  1  0
 42 43  1  0
 43 44  1  0
 43 45  1  0
 45 46  1  0
 35 47  2  0
 20  2  1  0
 30 22  1  0
 47 31  1  0
 18  9  1  0
 29 24  1  0
 46 40  1  0
  1 48  1  0
  1 49  1  0
  1 50  1  0
  3 51  1  0
  4 52  1  0
  8 53  1  0
 10 54  1  0
 11 55  1  0
 12 56  1  0
 18 57  1  0
 19 58  1  0
 21 59  1  0
 25 60  1  0
 26 61  1  0
 27 62  1  0
 28 63  1  0
 33 64  1  0
 36 65  1  0
 37 66  1  0
 37 67  1  0
 38 68  1  0
 38 69  1  0
 39 70  1  0
 39 71  1  0
 40 72  1  0
 41 73  1  0
 41 74  1  0
 42 75  1  0
 42 76  1  0
 43 77  1  0
 44 78  1  0
 44 79  1  0
 44 80  1  0
 45 81  1  0
 45 82  1  0
 46 83  1  0
 46 84  1  0
M  CHG  2  40   1  43   1
M  END
>  <meeko>  (8) 
{"is_sidechain": [false], "free_energy": -8.785, "intermolecular_energy": -13.231, "internal_energy": -4.22}

$$$$
LIB_BCNXUFFSRWFFQA__M_PUB_ALL__e8__s20260927
     RDKit          3D

 84 89  0  0  0  0  0  0  0  0999 V2000
    5.1810  -13.4680   -5.0840 C   0  0  0  0  0  0  0  0  0  0  0  0
    4.4850  -12.9110   -3.8680 C   0  0  0  0  0  0  0  0  0  0  0  0
    3.2220  -12.3110   -4.0360 C   0  0  0  0  0  0  0  0  0  0  0  0
    2.5200  -11.8020   -2.9450 C   0  0  0  0  0  0  0  0  0  0  0  0
    3.1040  -11.8600   -1.6830 C   0  0  0  0  0  0  0  0  0  0  0  0
    2.3290  -11.5010   -0.4760 C   0  0  0  0  0  0  0  0  0  0  0  0
    2.8410  -11.7360    0.6230 O   0  0  0  0  0  0  0  0  0  0  0  0
    1.1250  -10.8870   -0.7190 N   0  0  0  0  0  0  0  0  0  0  0  0
    0.1070  -10.6190    0.2160 C   0  0  0  0  0  0  0  0  0  0  0  0
    0.0390   -9.4340    0.9520 C   0  0  0  0  0  0  0  0  0  0  0  0
   -0.9830   -9.2400    1.8860 C   0  0  0  0  0  0  0  0  0  0  0  0
   -1.9430  -10.2300    2.0880 C   0  0  0  0  0  0  0  0  0  0  0  0
   -1.8850  -11.4300    1.3680 C   0  0  0  0  0  0  0  0  0  0  0  0
   -2.9020  -12.5260    1.6070 C   0  0  0  0  0  0  0  0  0  0  0  0
   -2.3400  -13.6320    2.1580 F   0  0  0  0  0  0  0  0  0  0  0  0
   -3.9080  -12.1440    2.4380 F   0  0  0  0  0  0  0  0  0  0  0  0
   -3.4990  -12.9340    0.4530 F   0  0  0  0  0  0  0  0  0  0  0  0
   -0.8420  -11.6210    0.4450 C   0  0  0  0  0  0  0  0  0  0  0  0
    4.3810  -12.3990   -1.5120 C   0  0  0  0  0  0  0  0  0  0  0  0
    5.0620  -12.9910   -2.5800 C   0  0  0  0  0  0  0  0  0  0  0  0
    6.2810  -13.6710   -2.3840 N   0  0  0  0  0  0  0  0  0  0  0  0
    7.5460  -13.1700   -2.4080 C   0  0  0  0  0  0  0  0  0  0  0  0
    8.3050  -12.9210   -3.4540 N   0  0  0  0  0  0  0  0  0  0  0  0
    9.5700  -12.7630   -2.9460 C   0  0  0  0  0  0  0  0  0  0  0  0
   10.7850  -12.6260   -3.6350 C   0  0  0  0  0  0  0  0  0  0  0  0
   11.9650  -12.4680   -2.8980 C   0  0  0  0  0  0  0  0  0  0  0  0
   11.9350  -12.4360   -1.5050 C   0  0  0  0  0  0  0  0  0  0  0  0
   10.7330  -12.5600   -0.8010 C   0  0  0  0  0  0  0  0  0  0  0  0
    9.5610  -12.7340   -1.5510 C   0  0  0  0  0  0  0  0  0  0  0  0
    8.2170  -12.8270   -1.2280 N   0  0  0  0  0  0  0  0  0  0  0  0
    7.5830  -12.4100   -0.0180 C   0  0  0  0  0  0  0  0  0  0  0  0
    7.3290  -11.1230    0.1940 N   0  0  0  0  0  0  0  0  0  0  0  0
    6.5440  -10.8870    1.2450 C   0  0  0  0  0  0  0  0  0  0  0  0
    5.9450  -11.8120    1.9960 N   0  0  0  0  0  0  0  0  0  0  0  0
    6.2350  -13.0630    1.6910 C   0  0  0  0  0  0  0  0  0  0  0  0
    5.5190  -14.0560    2.3110 N   0  0  0  0  0  0  0  0  0  0  0  0
    4.1340  -14.3380    2.0030 C   0  0  0  0  0  0  0  0  0  0  0  0
    3.9410  -15.6890    1.2850 C   0  0  0  0  0  0  0  0  0  0  0  0
    3.2070  -15.5650   -0.0450 C   0  0  0  0  0  0  0  0  0  0  0  0
    1.7170  -15.8720    0.0520 N   0  0  0  0  0  0  0  0  0  0  0  0
    0.9100  -14.7410   -0.5950 C   0  0  0  0  0  0  0  0  0  0  0  0
   -0.5900  -15.1010   -0.7360 C   0  0  0  0  0  0  0  0  0  0  0  0
   -0.9870  -16.2680    0.1570 N   0  0  0  0  0  0  0  0  0  0  0  0
   -2.4820  -16.4470    0.2200 C   0  0  0  0  0  0  0  0  0  0  0  0
   -0.3420  -16.2030    1.5300 C   0  0  0  0  0  0  0  0  0  0  0  0
    1.2120  -16.1910    1.4500 C   0  0  0  0  0  0  0  0  0  0  0  0
    7.0840  -13.4000    0.7340 N   0  0  0  0  0  0  0  0  0  0  0  0
    6.0033  -14.1261   -4.7665 H   0  0  0  0  0  0  0  0  0  0  0  0
    4.4626  -14.0434   -5.6863 H   0  0  0  0  0  0  0  0  0  0  0  0
    5.5849  -12.6409   -5.6863 H   0  0  0  0  0  0  0  0  0  0  0  0
    2.7834  -12.2432   -5.0425 H   0  0  0  0  0  0  0  0  0  0  0  0
    1.5209  -11.3617   -3.0791 H   0  0  0  0  0  0  0  0  0  0  0  0
    0.9590  -10.5460   -1.6650 H   0  0  0  0  0  0  0  0  0  0  0  0
    0.7937   -8.6491    0.7959 H   0  0  0  0  0  0  0  0  0  0  0  0
   -1.0295   -8.3043    2.4625 H   0  0  0  0  0  0  0  0  0  0  0  0
   -2.7507  -10.0680    2.8169 H   0  0  0  0  0  0  0  0  0  0  0  0
   -0.7711  -12.5712   -0.1046 H   0  0  0  0  0  0  0  0  0  0  0  0
    4.8584  -12.3571   -0.5219 H   0  0  0  0  0  0  0  0  0  0  0  0
    6.1580  -14.6500   -2.1340 H   0  0  0  0  0  0  0  0  0  0  0  0
   10.8098  -12.6425   -4.7346 H   0  0  0  0  0  0  0  0  0  0  0  0
   12.9259  -12.3681   -3.4240 H   0  0  0  0  0  0  0  0  0  0  0  0
   12.8754  -12.3107   -0.9483 H   0  0  0  0  0  0  0  0  0  0  0  0
   10.7079  -12.5225    0.2981 H   0  0  0  0  0  0  0  0  0  0  0  0
    6.3751   -9.8347    1.5174 H   0  0  0  0  0  0  0  0  0  0  0  0
    6.0990  -14.7410    2.7860 H   0  0  0  0  0  0  0  0  0  0  0  0
    3.5622  -14.3552    2.9425 H   0  0  0  0  0  0  0  0  0  0  0  0
    3.7805  -13.5495    1.3224 H   0  0  0  0  0  0  0  0  0  0  0  0
    4.9314  -16.1295    1.0976 H   0  0  0  0  0  0  0  0  0  0  0  0
    3.3237  -16.3211    1.9403 H   0  0  0  0  0  0  0  0  0  0  0  0
    3.3271  -14.5359   -0.4144 H   0  0  0  0  0  0  0  0  0  0  0  0
    3.6466  -16.3072   -0.7276 H   0  0  0  0  0  0  0  0  0  0  0  0
    1.5590  -16.7220   -0.5260 H   0  0  0  0  0  0  0  0  0  0  0  0
    1.0011  -13.8391    0.0282 H   0  0  0  0  0  0  0  0  0  0  0  0
    1.3136  -14.5718   -1.6042 H   0  0  0  0  0  0  0  0  0  0  0  0
   -1.1926  -14.2230   -0.4604 H   0  0  0  0  0  0  0  0  0  0  0  0
   -0.7696  -15.3978   -1.7798 H   0  0  0  0  0  0  0  0  0  0  0  0
   -0.6280  -17.1220   -0.3240 H   0  0  0  0  0  0  0  0  0  0  0  0
   -2.8027  -16.4854    1.2715 H   0  0  0  0  0  0  0  0  0  0  0  0
   -2.9740  -15.6014   -0.2828 H   0  0  0  0  0  0  0  0  0  0  0  0
   -2.7605  -17.3849   -0.2828 H   0  0  0  0  0  0  0  0  0  0  0  0
   -0.6777  -15.2857    2.0359 H   0  0  0  0  0  0  0  0  0  0  0  0
   -0.6443  -17.1016    2.0877 H   0  0  0  0  0  0  0  0  0  0  0  0
    1.5959  -15.4310    2.1464 H   0  0  0  0  0  0  0  0  0  0  0  0
    1.5696  -17.1970    1.7148 H   0  0  0  0  0  0  0  0  0  0  0  0
  1  2  1  0
  2  3  2  0
  3  4  1  0
  4  5  2  0
  5  6  1  0
  6  7  2  0
  6  8  1  0
  8  9  1  0
  9 10  2  0
 10 11  1  0
 11 12  2  0
 12 13  1  0
 13 14  1  0
 14 15  1  0
 14 16  1  0
 14 17  1  0
 13 18  2  0
  5 19  1  0
 19 20  2  0
 20 21  1  0
 21 22  1  0
 22 23  2  0
 23 24  1  0
 24 25  2  0
 25 26  1  0
 26 27  2  0
 27 28  1  0
 28 29  2  0
 29 30  1  0
 30 31  1  0
 31 32  2  0
 32 33  1  0
 33 34  2  0
 34 35  1  0
 35 36  1  0
 36 37  1  0
 37 38  1  0
 38 39  1  0
 39 40  1  0
 40 41  1  0
 41 42  1  0
 42 43  1  0
 43 44  1  0
 43 45  1  0
 45 46  1  0
 35 47  2  0
 20  2  1  0
 30 22  1  0
 47 31  1  0
 18  9  1  0
 29 24  1  0
 46 40  1  0
  1 48  1  0
  1 49  1  0
  1 50  1  0
  3 51  1  0
  4 52  1  0
  8 53  1  0
 10 54  1  0
 11 55  1  0
 12 56  1  0
 18 57  1  0
 19 58  1  0
 21 59  1  0
 25 60  1  0
 26 61  1  0
 27 62  1  0
 28 63  1  0
 33 64  1  0
 36 65  1  0
 37 66  1  0
 37 67  1  0
 38 68  1  0
 38 69  1  0
 39 70  1  0
 39 71  1  0
 40 72  1  0
 41 73  1  0
 41 74  1  0
 42 75  1  0
 42 76  1  0
 43 77  1  0
 44 78  1  0
 44 79  1  0
 44 80  1  0
 45 81  1  0
 45 82  1  0
 46 83  1  0
 46 84  1  0
M  CHG  2  40   1  43   1
M  END
>  <meeko>  (9) 
{"is_sidechain": [false], "free_energy": -8.754, "intermolecular_energy": -13.82, "internal_energy": -3.581}

$$$$
