LIB_QDISWXTVLYHRCQ__M_PUB_ALL__e8__s20260927
     RDKit          3D

 85 89  0  0  0  0  0  0  0  0999 V2000
    8.4840  -11.8860    0.8390 C   0  0  0  0  0  0  0  0  0  0  0  0
    9.8870  -12.2840    0.5010 C   0  0  0  0  0  0  0  0  0  0  0  0
   10.7670  -12.4920    1.3250 O   0  0  0  0  0  0  0  0  0  0  0  0
   10.0270  -12.3950   -0.8450 O   0  0  0  0  0  0  0  0  0  0  0  0
   10.4310  -13.6820   -1.3680 C   0  0  1  0  0  0  0  0  0  0  0  0
    9.6220  -14.0070   -2.6470 C   0  0  2  0  0  0  0  0  0  0  0  0
    8.2090  -14.0650   -2.3280 O   0  0  0  0  0  0  0  0  0  0  0  0
    7.4790  -12.9430   -2.5420 C   0  0  0  0  0  0  0  0  0  0  0  0
    7.8410  -11.9490   -3.1490 O   0  0  0  0  0  0  0  0  0  0  0  0
    6.1270  -13.0870   -1.9460 C   0  0  0  0  0  0  0  0  0  0  0  0
    5.5840  -14.3740   -1.8410 C   0  0  0  0  0  0  0  0  0  0  0  0
    4.3140  -14.5560   -1.2910 C   0  0  0  0  0  0  0  0  0  0  0  0
    3.5810  -13.4540   -0.8510 C   0  0  0  0  0  0  0  0  0  0  0  0
    4.1130  -12.1700   -0.9620 C   0  0  0  0  0  0  0  0  0  0  0  0
    5.3830  -11.9820   -1.5100 C   0  0  0  0  0  0  0  0  0  0  0  0
   10.0330  -15.3820   -3.2770 C   0  0  1  0  0  0  0  0  0  0  0  0
    9.5640  -16.5380   -2.3400 C   0  0  0  0  0  0  0  0  0  0  0  0
    9.2630  -15.6290   -4.6300 C   0  0  1  0  0  0  0  0  0  0  0  0
    8.9900  -14.3740   -5.2830 O   0  0  0  0  0  0  0  0  0  0  0  0
    8.0150  -14.3680   -6.2240 C   0  0  0  0  0  0  0  0  0  0  0  0
    8.1760  -14.4800   -7.4300 O   0  0  0  0  0  0  0  0  0  0  0  0
    6.6760  -14.1830   -5.6280 C   0  0  0  0  0  0  0  0  0  0  0  0
    5.8830  -13.1280   -5.8680 C   0  0  0  0  0  0  0  0  0  0  0  0
    4.5470  -12.9570   -5.2820 C   0  0  0  0  0  0  0  0  0  0  0  0
    3.7080  -14.0410   -4.9950 C   0  0  0  0  0  0  0  0  0  0  0  0
    2.4550  -13.8360   -4.4120 C   0  0  0  0  0  0  0  0  0  0  0  0
    2.0330  -12.5440   -4.1010 C   0  0  0  0  0  0  0  0  0  0  0  0
    2.8650  -11.4590   -4.3650 C   0  0  0  0  0  0  0  0  0  0  0  0
    4.1190  -11.6660   -4.9470 C   0  0  0  0  0  0  0  0  0  0  0  0
   10.0070  -16.5850   -5.6030 C   0  0  0  0  0  0  0  0  0  0  0  0
   11.5550  -16.4990   -5.5920 C   0  0  2  0  0  0  0  0  0  0  0  0
   12.0180  -16.7150   -4.1610 C   0  0  0  0  0  0  0  0  0  0  0  0
   11.5880  -15.3800   -3.5350 C   0  0  1  0  0  0  0  0  0  0  0  0
   11.8510  -14.3960   -4.6150 O   0  0  0  0  0  0  0  0  0  0  0  0
   12.1260  -15.0990   -5.8510 C   0  0  0  0  0  0  0  0  0  0  0  0
   11.5480  -14.3580   -7.0580 C   0  0  0  0  0  0  0  0  0  0  0  0
   13.6560  -15.1110   -6.0690 C   0  0  0  0  0  0  0  0  0  0  0  0
   12.4610  -14.9310   -2.3090 C   0  0  1  0  0  0  0  0  0  0  0  0
   12.6730  -15.9980   -1.2280 C   0  0  0  0  0  0  0  0  0  0  0  0
   13.7960  -14.6610   -2.8040 O   0  0  0  0  0  0  0  0  0  0  0  0
   11.9380  -13.6120   -1.6770 C   0  0  1  0  0  0  0  0  0  0  0  0
   12.1840  -12.5270   -2.6150 O   0  0  0  0  0  0  0  0  0  0  0  0
   13.2870  -11.7600   -2.4050 C   0  0  0  0  0  0  0  0  0  0  0  0
   13.2180  -11.1410   -1.0430 C   0  0  0  0  0  0  0  0  0  0  0  0
   14.2030  -11.5880   -3.1970 O   0  0  0  0  0  0  0  0  0  0  0  0
    8.3656  -11.8524    1.9321 H   0  0  0  0  0  0  0  0  0  0  0  0
    8.2728  -10.8925    0.4166 H   0  0  0  0  0  0  0  0  0  0  0  0
    7.7826  -12.6206    0.4166 H   0  0  0  0  0  0  0  0  0  0  0  0
   10.2366  -14.4797   -0.6359 H   0  0  0  0  0  0  0  0  0  0  0  0
    9.8360  -13.2094   -3.3736 H   0  0  0  0  0  0  0  0  0  0  0  0
    6.1595  -15.2430   -2.1927 H   0  0  0  0  0  0  0  0  0  0  0  0
    3.8916  -15.5680   -1.2047 H   0  0  0  0  0  0  0  0  0  0  0  0
    2.5812  -13.5982   -0.4155 H   0  0  0  0  0  0  0  0  0  0  0  0
    3.5305  -11.3030   -0.6169 H   0  0  0  0  0  0  0  0  0  0  0  0
    5.7994  -10.9678   -1.5996 H   0  0  0  0  0  0  0  0  0  0  0  0
    9.6879  -16.2325   -1.2906 H   0  0  0  0  0  0  0  0  0  0  0  0
    8.5044  -16.7606   -2.5344 H   0  0  0  0  0  0  0  0  0  0  0  0
   10.1690  -17.4359   -2.5344 H   0  0  0  0  0  0  0  0  0  0  0  0
    8.3204  -16.1288   -4.3621 H   0  0  0  0  0  0  0  0  0  0  0  0
    6.3055  -14.9602   -4.9435 H   0  0  0  0  0  0  0  0  0  0  0  0
    6.2555  -12.3442   -6.5440 H   0  0  0  0  0  0  0  0  0  0  0  0
    4.0386  -15.0633   -5.2308 H   0  0  0  0  0  0  0  0  0  0  0  0
    1.8011  -14.6943   -4.1982 H   0  0  0  0  0  0  0  0  0  0  0  0
    1.0440  -12.3820   -3.6476 H   0  0  0  0  0  0  0  0  0  0  0  0
    2.5356  -10.4395   -4.1157 H   0  0  0  0  0  0  0  0  0  0  0  0
    4.7764  -10.8063   -5.1439 H   0  0  0  0  0  0  0  0  0  0  0  0
    9.7257  -17.6159   -5.3421 H   0  0  0  0  0  0  0  0  0  0  0  0
    9.7008  -16.2758   -6.6133 H   0  0  0  0  0  0  0  0  0  0  0  0
   11.8777  -17.2167   -6.3607 H   0  0  0  0  0  0  0  0  0  0  0  0
   11.5075  -17.5688   -3.6916 H   0  0  0  0  0  0  0  0  0  0  0  0
   13.0860  -16.9545   -4.0516 H   0  0  0  0  0  0  0  0  0  0  0  0
   10.9062  -13.5352   -6.7102 H   0  0  0  0  0  0  0  0  0  0  0  0
   12.3693  -13.9506   -7.6659 H   0  0  0  0  0  0  0  0  0  0  0  0
   10.9529  -15.0554   -7.6659 H   0  0  0  0  0  0  0  0  0  0  0  0
   14.1653  -15.1150   -5.0940 H   0  0  0  0  0  0  0  0  0  0  0  0
   13.9388  -16.0114   -6.6341 H   0  0  0  0  0  0  0  0  0  0  0  0
   13.9529  -14.2152   -6.6341 H   0  0  0  0  0  0  0  0  0  0  0  0
   12.5812  -15.5361   -0.2339 H   0  0  0  0  0  0  0  0  0  0  0  0
   11.9140  -16.7866   -1.3374 H   0  0  0  0  0  0  0  0  0  0  0  0
   13.6758  -16.4366   -1.3374 H   0  0  0  0  0  0  0  0  0  0  0  0
   13.8060  -15.0610   -3.6980 H   0  0  0  0  0  0  0  0  0  0  0  0
   12.4662  -13.4455   -0.7266 H   0  0  0  0  0  0  0  0  0  0  0  0
   13.3056  -11.9268   -0.2783 H   0  0  0  0  0  0  0  0  0  0  0  0
   14.0415  -10.4213   -0.9252 H   0  0  0  0  0  0  0  0  0  0  0  0
   12.2562  -10.6203   -0.9252 H   0  0  0  0  0  0  0  0  0  0  0  0
  1  2  1  0
  2  3  2  0
  2  4  1  0
  4  5  1  0
  5  6  1  0
  6  7  1  0
  7  8  1  0
  8  9  2  0
  8 10  1  0
 10 11  2  0
 11 12  1  0
 12 13  2  0
 13 14  1  0
 14 15  2  0
  6 16  1  0
 16 17  1  1
 16 18  1  0
 18 19  1  0
 19 20  1  0
 20 21  2  0
 20 22  1  0
 22 23  2  0
 23 24  1  0
 24 25  2  0
 25 26  1  0
 26 27  2  0
 27 28  1  0
 28 29  2  0
 18 30  1  0
 30 31  1  0
 31 32  1  0
 32 33  1  0
 33 34  1  6
 34 35  1  0
 35 36  1  0
 35 37  1  0
 33 38  1  0
 38 39  1  0
 38 40  1  6
 38 41  1  0
 41 42  1  0
 42 43  1  0
 43 44  1  0
 43 45  2  0
 41  5  1  0
 15 10  1  0
 33 16  1  0
 29 24  1  0
 35 31  1  0
  1 46  1  0
  1 47  1  0
  1 48  1  0
  5 49  1  1
  6 50  1  6
 11 51  1  0
 12 52  1  0
 13 53  1  0
 14 54  1  0
 15 55  1  0
 17 56  1  0
 17 57  1  0
 17 58  1  0
 18 59  1  1
 22 60  1  0
 23 61  1  0
 25 62  1  0
 26 63  1  0
 27 64  1  0
 28 65  1  0
 29 66  1  0
 30 67  1  0
 30 68  1  0
 31 69  1  6
 32 70  1  0
 32 71  1  0
 36 72  1  0
 36 73  1  0
 36 74  1  0
 37 75  1  0
 37 76  1  0
 37 77  1  0
 39 78  1  0
 39 79  1  0
 39 80  1  0
 40 81  1  0
 41 82  1  1
 44 83  1  0
 44 84  1  0
 44 85  1  0
M  END
>  <meeko>  (1) 
{"is_sidechain": [false], "free_energy": -7.885, "intermolecular_energy": -13.186, "internal_energy": -4.918}

$$$$
LIB_QDISWXTVLYHRCQ__M_PUB_ALL__e8__s20260927
     RDKit          3D

 85 89  0  0  0  0  0  0  0  0999 V2000
   12.8330  -11.2160    0.0200 C   0  0  0  0  0  0  0  0  0  0  0  0
   12.0110  -12.4680   -0.0070 C   0  0  0  0  0  0  0  0  0  0  0  0
   11.8870  -13.2370    0.9360 O   0  0  0  0  0  0  0  0  0  0  0  0
   11.4180  -12.6080   -1.2200 O   0  0  0  0  0  0  0  0  0  0  0  0
   11.2890  -13.9490   -1.7470 C   0  0  1  0  0  0  0  0  0  0  0  0
    9.9150  -14.1120   -2.4390 C   0  0  2  0  0  0  0  0  0  0  0  0
    8.8550  -13.8950   -1.4750 O   0  0  0  0  0  0  0  0  0  0  0  0
    8.2630  -12.6750   -1.4690 C   0  0  0  0  0  0  0  0  0  0  0  0
    8.4010  -11.8010   -2.3070 O   0  0  0  0  0  0  0  0  0  0  0  0
    7.3740  -12.5400   -0.2870 C   0  0  0  0  0  0  0  0  0  0  0  0
    6.9050  -11.2630    0.0450 C   0  0  0  0  0  0  0  0  0  0  0  0
    6.0710  -11.0880    1.1500 C   0  0  0  0  0  0  0  0  0  0  0  0
    5.7080  -12.1870    1.9300 C   0  0  0  0  0  0  0  0  0  0  0  0
    6.1800  -13.4590    1.6090 C   0  0  0  0  0  0  0  0  0  0  0  0
    7.0150  -13.6390    0.5040 C   0  0  0  0  0  0  0  0  0  0  0  0
    9.7250  -15.5420   -3.0540 C   0  0  1  0  0  0  0  0  0  0  0  0
    9.5900  -16.5840   -1.9010 C   0  0  0  0  0  0  0  0  0  0  0  0
    8.3610  -15.6350   -3.8370 C   0  0  1  0  0  0  0  0  0  0  0  0
    8.0170  -14.3520   -4.3950 O   0  0  0  0  0  0  0  0  0  0  0  0
    6.7130  -14.1390   -4.6950 C   0  0  0  0  0  0  0  0  0  0  0  0
    6.2580  -13.9040   -5.8040 O   0  0  0  0  0  0  0  0  0  0  0  0
    5.8560  -14.1980   -3.4930 C   0  0  0  0  0  0  0  0  0  0  0  0
    4.9830  -13.2410   -3.1420 C   0  0  0  0  0  0  0  0  0  0  0  0
    4.1240  -13.3130   -1.9530 C   0  0  0  0  0  0  0  0  0  0  0  0
    3.9010  -14.5080   -1.2580 C   0  0  0  0  0  0  0  0  0  0  0  0
    3.0980  -14.5270   -0.1150 C   0  0  0  0  0  0  0  0  0  0  0  0
    2.5170  -13.3480    0.3500 C   0  0  0  0  0  0  0  0  0  0  0  0
    2.7450  -12.1500   -0.3220 C   0  0  0  0  0  0  0  0  0  0  0  0
    3.5490  -12.1320   -1.4650 C   0  0  0  0  0  0  0  0  0  0  0  0
    8.3560  -16.7180   -4.9520 C   0  0  0  0  0  0  0  0  0  0  0  0
    9.6990  -16.9330   -5.6960 C   0  0  2  0  0  0  0  0  0  0  0  0
   10.7620  -17.2340   -4.6540 C   0  0  0  0  0  0  0  0  0  0  0  0
   10.9270  -15.8410   -4.0290 C   0  0  1  0  0  0  0  0  0  0  0  0
   10.7860  -14.9270   -5.1900 O   0  0  0  0  0  0  0  0  0  0  0  0
   10.2950  -15.6710   -6.3320 C   0  0  0  0  0  0  0  0  0  0  0  0
    9.3330  -14.8330   -7.1750 C   0  0  0  0  0  0  0  0  0  0  0  0
   11.4930  -15.9790   -7.2590 C   0  0  0  0  0  0  0  0  0  0  0  0
   12.3510  -15.5690   -3.4250 C   0  0  1  0  0  0  0  0  0  0  0  0
   12.8840  -16.6560   -2.4840 C   0  0  0  0  0  0  0  0  0  0  0  0
   13.2930  -15.5630   -4.5260 O   0  0  0  0  0  0  0  0  0  0  0  0
   12.4370  -14.1730   -2.7490 C   0  0  1  0  0  0  0  0  0  0  0  0
   12.3690  -13.1560   -3.7890 O   0  0  0  0  0  0  0  0  0  0  0  0
   13.2160  -12.0980   -3.6820 C   0  0  0  0  0  0  0  0  0  0  0  0
   14.6310  -12.5880   -3.6510 C   0  0  0  0  0  0  0  0  0  0  0  0
   12.8910  -10.9210   -3.6180 O   0  0  0  0  0  0  0  0  0  0  0  0
   13.0239  -10.9252    1.0635 H   0  0  0  0  0  0  0  0  0  0  0  0
   13.7901  -11.3947   -0.4919 H   0  0  0  0  0  0  0  0  0  0  0  0
   12.2885  -10.4088   -0.4919 H   0  0  0  0  0  0  0  0  0  0  0  0
   11.3480  -14.6935   -0.9394 H   0  0  0  0  0  0  0  0  0  0  0  0
    9.8749  -13.3714   -3.2513 H   0  0  0  0  0  0  0  0  0  0  0  0
    7.1947  -10.3958   -0.5667 H   0  0  0  0  0  0  0  0  0  0  0  0
    5.6999  -10.0846    1.4061 H   0  0  0  0  0  0  0  0  0  0  0  0
    5.0484  -12.0493    2.7995 H   0  0  0  0  0  0  0  0  0  0  0  0
    5.8941  -14.3227    2.2274 H   0  0  0  0  0  0  0  0  0  0  0  0
    7.3903  -14.6426    0.2551 H   0  0  0  0  0  0  0  0  0  0  0  0
    9.6568  -16.0687   -0.9314 H   0  0  0  0  0  0  0  0  0  0  0  0
    8.6183  -17.0936   -1.9793 H   0  0  0  0  0  0  0  0  0  0  0  0
   10.3997  -17.3244   -1.9793 H   0  0  0  0  0  0  0  0  0  0  0  0
    7.6043  -15.9417   -3.0999 H   0  0  0  0  0  0  0  0  0  0  0  0
    5.9387  -15.0826   -2.8445 H   0  0  0  0  0  0  0  0  0  0  0  0
    4.9063  -12.3501   -3.7827 H   0  0  0  0  0  0  0  0  0  0  0  0
    4.3624  -15.4404   -1.6153 H   0  0  0  0  0  0  0  0  0  0  0  0
    2.9240  -15.4730    0.4186 H   0  0  0  0  0  0  0  0  0  0  0  0
    1.8795  -13.3642    1.2463 H   0  0  0  0  0  0  0  0  0  0  0  0
    2.2923  -11.2177    0.0468 H   0  0  0  0  0  0  0  0  0  0  0  0
    3.7323  -11.1811   -1.9868 H   0  0  0  0  0  0  0  0  0  0  0  0
    8.0698  -17.6747   -4.4907 H   0  0  0  0  0  0  0  0  0  0  0  0
    7.6494  -16.3565   -5.7136 H   0  0  0  0  0  0  0  0  0  0  0  0
    9.4755  -17.7006   -6.4516 H   0  0  0  0  0  0  0  0  0  0  0  0
   10.4136  -17.9730   -3.9174 H   0  0  0  0  0  0  0  0  0  0  0  0
   11.6878  -17.6754   -5.0516 H   0  0  0  0  0  0  0  0  0  0  0  0
    8.6712  -14.2565   -6.5119 H   0  0  0  0  0  0  0  0  0  0  0  0
    9.9078  -14.1426   -7.8098 H   0  0  0  0  0  0  0  0  0  0  0  0
    8.7279  -15.4971   -7.8098 H   0  0  0  0  0  0  0  0  0  0  0  0
   12.3795  -16.2069   -6.6490 H   0  0  0  0  0  0  0  0  0  0  0  0
   11.2524  -16.8445   -7.8938 H   0  0  0  0  0  0  0  0  0  0  0  0
   11.6996  -15.1048   -7.8938 H   0  0  0  0  0  0  0  0  0  0  0  0
   12.7312  -16.3445   -1.4402 H   0  0  0  0  0  0  0  0  0  0  0  0
   12.3451  -17.5971   -2.6684 H   0  0  0  0  0  0  0  0  0  0  0  0
   13.9580  -16.8062   -2.6684 H   0  0  0  0  0  0  0  0  0  0  0  0
   12.7680  -15.2500   -5.2910 H   0  0  0  0  0  0  0  0  0  0  0  0
   13.3835  -14.1118   -2.1919 H   0  0  0  0  0  0  0  0  0  0  0  0
   14.9571  -12.7009   -2.6065 H   0  0  0  0  0  0  0  0  0  0  0  0
   14.6937  -13.5602   -4.1618 H   0  0  0  0  0  0  0  0  0  0  0  0
   15.2814  -11.8628   -4.1618 H   0  0  0  0  0  0  0  0  0  0  0  0
  1  2  1  0
  2  3  2  0
  2  4  1  0
  4  5  1  0
  5  6  1  0
  6  7  1  0
  7  8  1  0
  8  9  2  0
  8 10  1  0
 10 11  2  0
 11 12  1  0
 12 13  2  0
 13 14  1  0
 14 15  2  0
  6 16  1  0
 16 17  1  1
 16 18  1  0
 18 19  1  0
 19 20  1  0
 20 21  2  0
 20 22  1  0
 22 23  2  0
 23 24  1  0
 24 25  2  0
 25 26  1  0
 26 27  2  0
 27 28  1  0
 28 29  2  0
 18 30  1  0
 30 31  1  0
 31 32  1  0
 32 33  1  0
 33 34  1  6
 34 35  1  0
 35 36  1  0
 35 37  1  0
 33 38  1  0
 38 39  1  0
 38 40  1  6
 38 41  1  0
 41 42  1  0
 42 43  1  0
 43 44  1  0
 43 45  2  0
 41  5  1  0
 15 10  1  0
 33 16  1  0
 29 24  1  0
 35 31  1  0
  1 46  1  0
  1 47  1  0
  1 48  1  0
  5 49  1  1
  6 50  1  6
 11 51  1  0
 12 52  1  0
 13 53  1  0
 14 54  1  0
 15 55  1  0
 17 56  1  0
 17 57  1  0
 17 58  1  0
 18 59  1  1
 22 60  1  0
 23 61  1  0
 25 62  1  0
 26 63  1  0
 27 64  1  0
 28 65  1  0
 29 66  1  0
 30 67  1  0
 30 68  1  0
 31 69  1  6
 32 70  1  0
 32 71  1  0
 36 72  1  0
 36 73  1  0
 36 74  1  0
 37 75  1  0
 37 76  1  0
 37 77  1  0
 39 78  1  0
 39 79  1  0
 39 80  1  0
 40 81  1  0
 41 82  1  1
 44 83  1  0
 44 84  1  0
 44 85  1  0
M  END
>  <meeko>  (2) 
{"is_sidechain": [false], "free_energy": -7.332, "intermolecular_energy": -12.23, "internal_energy": -4.95}

$$$$
LIB_QDISWXTVLYHRCQ__M_PUB_ALL__e8__s20260927
     RDKit          3D

 85 89  0  0  0  0  0  0  0  0999 V2000
    1.0230  -10.5870    0.6000 C   0  0  0  0  0  0  0  0  0  0  0  0
    1.0590  -10.5600   -0.8970 C   0  0  0  0  0  0  0  0  0  0  0  0
    0.6760   -9.6230   -1.5830 O   0  0  0  0  0  0  0  0  0  0  0  0
    1.5930  -11.7150   -1.3700 O   0  0  0  0  0  0  0  0  0  0  0  0
    2.7790  -12.2180   -0.7120 C   0  0  1  0  0  0  0  0  0  0  0  0
    2.6530  -13.7450   -0.4950 C   0  0  2  0  0  0  0  0  0  0  0  0
    1.5080  -14.0240    0.3490 O   0  0  0  0  0  0  0  0  0  0  0  0
    0.3250  -14.2570   -0.2690 C   0  0  0  0  0  0  0  0  0  0  0  0
    0.1710  -14.6370   -1.4180 O   0  0  0  0  0  0  0  0  0  0  0  0
   -0.8020  -14.0080    0.6650 C   0  0  0  0  0  0  0  0  0  0  0  0
   -2.1080  -14.1610    0.1830 C   0  0  0  0  0  0  0  0  0  0  0  0
   -3.1970  -13.9330    1.0250 C   0  0  0  0  0  0  0  0  0  0  0  0
   -2.9860  -13.5460    2.3480 C   0  0  0  0  0  0  0  0  0  0  0  0
   -1.6880  -13.3820    2.8310 C   0  0  0  0  0  0  0  0  0  0  0  0
   -0.5940  -13.6100    1.9930 C   0  0  0  0  0  0  0  0  0  0  0  0
    3.9230  -14.3550    0.1940 C   0  0  1  0  0  0  0  0  0  0  0  0
    3.9940  -13.8610    1.6710 C   0  0  0  0  0  0  0  0  0  0  0  0
    3.8000  -15.9220    0.3030 C   0  0  1  0  0  0  0  0  0  0  0  0
    3.0240  -16.4390   -0.7960 O   0  0  0  0  0  0  0  0  0  0  0  0
    2.4220  -17.6400   -0.6150 C   0  0  0  0  0  0  0  0  0  0  0  0
    2.8250  -18.7160   -1.0280 O   0  0  0  0  0  0  0  0  0  0  0  0
    1.1630  -17.5150    0.1460 C   0  0  0  0  0  0  0  0  0  0  0  0
    1.0910  -17.4880    1.4860 C   0  0  0  0  0  0  0  0  0  0  0  0
   -0.1640  -17.3500    2.2360 C   0  0  0  0  0  0  0  0  0  0  0  0
   -0.1970  -16.9710    3.5840 C   0  0  0  0  0  0  0  0  0  0  0  0
   -1.4150  -16.8260    4.2520 C   0  0  0  0  0  0  0  0  0  0  0  0
   -2.6130  -17.0490    3.5770 C   0  0  0  0  0  0  0  0  0  0  0  0
   -2.5950  -17.4110    2.2320 C   0  0  0  0  0  0  0  0  0  0  0  0
   -1.3760  -17.5540    1.5630 C   0  0  0  0  0  0  0  0  0  0  0  0
    5.1710  -16.6500    0.3750 C   0  0  0  0  0  0  0  0  0  0  0  0
    6.3230  -16.0140   -0.4440 C   0  0  2  0  0  0  0  0  0  0  0  0
    6.4550  -14.5650   -0.0070 C   0  0  0  0  0  0  0  0  0  0  0  0
    5.1960  -13.9730   -0.6540 C   0  0  1  0  0  0  0  0  0  0  0  0
    5.0980  -14.7030   -1.9430 O   0  0  0  0  0  0  0  0  0  0  0  0
    6.0230  -15.8170   -1.9360 C   0  0  0  0  0  0  0  0  0  0  0  0
    5.4430  -17.0320   -2.6630 C   0  0  0  0  0  0  0  0  0  0  0  0
    7.2750  -15.4110   -2.7470 C   0  0  0  0  0  0  0  0  0  0  0  0
    5.3130  -12.4500   -1.0200 C   0  0  1  0  0  0  0  0  0  0  0  0
    5.8270  -11.5420    0.1040 C   0  0  0  0  0  0  0  0  0  0  0  0
    6.3180  -12.3300   -2.0570 O   0  0  0  0  0  0  0  0  0  0  0  0
    3.9880  -11.8910   -1.6080 C   0  0  1  0  0  0  0  0  0  0  0  0
    3.7840  -12.4850   -2.9210 O   0  0  0  0  0  0  0  0  0  0  0  0
    4.1230  -11.7350   -4.0040 C   0  0  0  0  0  0  0  0  0  0  0  0
    3.0980  -10.6640   -4.2150 C   0  0  0  0  0  0  0  0  0  0  0  0
    5.1090  -11.8970   -4.7090 O   0  0  0  0  0  0  0  0  0  0  0  0
    1.8435   -9.9716    0.9977 H   0  0  0  0  0  0  0  0  0  0  0  0
    0.0607  -10.1861    0.9509 H   0  0  0  0  0  0  0  0  0  0  0  0
    1.1384  -11.6231    0.9509 H   0  0  0  0  0  0  0  0  0  0  0  0
    2.9069  -11.7485    0.2745 H   0  0  0  0  0  0  0  0  0  0  0  0
    2.5388  -14.2021   -1.4890 H   0  0  0  0  0  0  0  0  0  0  0  0
   -2.2756  -14.4616   -0.8618 H   0  0  0  0  0  0  0  0  0  0  0  0
   -4.2217  -14.0585    0.6453 H   0  0  0  0  0  0  0  0  0  0  0  0
   -3.8451  -13.3697    3.0120 H   0  0  0  0  0  0  0  0  0  0  0  0
   -1.5254  -13.0725    3.8740 H   0  0  0  0  0  0  0  0  0  0  0  0
    0.4292  -13.4775    2.3745 H   0  0  0  0  0  0  0  0  0  0  0  0
    3.8709  -14.7173    2.3504 H   0  0  0  0  0  0  0  0  0  0  0  0
    4.9696  -13.3863    1.8524 H   0  0  0  0  0  0  0  0  0  0  0  0
    3.1916  -13.1308    1.8524 H   0  0  0  0  0  0  0  0  0  0  0  0
    3.2884  -16.1249    1.2554 H   0  0  0  0  0  0  0  0  0  0  0  0
    0.2238  -17.4391   -0.4216 H   0  0  0  0  0  0  0  0  0  0  0  0
    2.0277  -17.5744    2.0563 H   0  0  0  0  0  0  0  0  0  0  0  0
    0.7448  -16.7859    4.1214 H   0  0  0  0  0  0  0  0  0  0  0  0
   -1.4283  -16.5352    5.3128 H   0  0  0  0  0  0  0  0  0  0  0  0
   -3.5716  -16.9394    4.1052 H   0  0  0  0  0  0  0  0  0  0  0  0
   -3.5400  -17.5843    1.6964 H   0  0  0  0  0  0  0  0  0  0  0  0
   -1.3681  -17.8293    0.4980 H   0  0  0  0  0  0  0  0  0  0  0  0
    5.4828  -16.6765    1.4296 H   0  0  0  0  0  0  0  0  0  0  0  0
    5.0034  -17.6417   -0.0705 H   0  0  0  0  0  0  0  0  0  0  0  0
    7.1779  -16.6882   -0.2872 H   0  0  0  0  0  0  0  0  0  0  0  0
    6.4356  -14.4660    1.0884 H   0  0  0  0  0  0  0  0  0  0  0  0
    7.3973  -14.0781   -0.2988 H   0  0  0  0  0  0  0  0  0  0  0  0
    5.0917  -17.7678   -1.9247 H   0  0  0  0  0  0  0  0  0  0  0  0
    4.5996  -16.7139   -3.2935 H   0  0  0  0  0  0  0  0  0  0  0  0
    6.2207  -17.4877   -3.2935 H   0  0  0  0  0  0  0  0  0  0  0  0
    8.0895  -15.1469   -2.0564 H   0  0  0  0  0  0  0  0  0  0  0  0
    7.5902  -16.2530   -3.3808 H   0  0  0  0  0  0  0  0  0  0  0  0
    7.0361  -14.5443   -3.3808 H   0  0  0  0  0  0  0  0  0  0  0  0
    5.5755  -11.9864    1.0783 H   0  0  0  0  0  0  0  0  0  0  0  0
    6.9187  -11.4366    0.0199 H   0  0  0  0  0  0  0  0  0  0  0  0
    5.3555  -10.5517    0.0199 H   0  0  0  0  0  0  0  0  0  0  0  0
    5.9450  -12.8290   -2.8130 H   0  0  0  0  0  0  0  0  0  0  0  0
    4.0689  -10.7959   -1.6730 H   0  0  0  0  0  0  0  0  0  0  0  0
    2.7460  -10.2962   -3.2399 H   0  0  0  0  0  0  0  0  0  0  0  0
    3.5464   -9.8335   -4.7800 H   0  0  0  0  0  0  0  0  0  0  0  0
    2.2487  -11.0755   -4.7800 H   0  0  0  0  0  0  0  0  0  0  0  0
  1  2  1  0
  2  3  2  0
  2  4  1  0
  4  5  1  0
  5  6  1  0
  6  7  1  0
  7  8  1  0
  8  9  2  0
  8 10  1  0
 10 11  2  0
 11 12  1  0
 12 13  2  0
 13 14  1  0
 14 15  2  0
  6 16  1  0
 16 17  1  1
 16 18  1  0
 18 19  1  0
 19 20  1  0
 20 21  2  0
 20 22  1  0
 22 23  2  0
 23 24  1  0
 24 25  2  0
 25 26  1  0
 26 27  2  0
 27 28  1  0
 28 29  2  0
 18 30  1  0
 30 31  1  0
 31 32  1  0
 32 33  1  0
 33 34  1  6
 34 35  1  0
 35 36  1  0
 35 37  1  0
 33 38  1  0
 38 39  1  0
 38 40  1  6
 38 41  1  0
 41 42  1  0
 42 43  1  0
 43 44  1  0
 43 45  2  0
 41  5  1  0
 15 10  1  0
 33 16  1  0
 29 24  1  0
 35 31  1  0
  1 46  1  0
  1 47  1  0
  1 48  1  0
  5 49  1  1
  6 50  1  6
 11 51  1  0
 12 52  1  0
 13 53  1  0
 14 54  1  0
 15 55  1  0
 17 56  1  0
 17 57  1  0
 17 58  1  0
 18 59  1  1
 22 60  1  0
 23 61  1  0
 25 62  1  0
 26 63  1  0
 27 64  1  0
 28 65  1  0
 29 66  1  0
 30 67  1  0
 30 68  1  0
 31 69  1  6
 32 70  1  0
 32 71  1  0
 36 72  1  0
 36 73  1  0
 36 74  1  0
 37 75  1  0
 37 76  1  0
 37 77  1  0
 39 78  1  0
 39 79  1  0
 39 80  1  0
 40 81  1  0
 41 82  1  6
 44 83  1  0
 44 84  1  0
 44 85  1  0
M  END
>  <meeko>  (3) 
{"is_sidechain": [false], "free_energy": -7.159, "intermolecular_energy": -11.869, "internal_energy": -5.021}

$$$$
LIB_QDISWXTVLYHRCQ__M_PUB_ALL__e8__s20260927
     RDKit          3D

 85 89  0  0  0  0  0  0  0  0999 V2000
   -0.5060   -9.2700    1.3210 C   0  0  0  0  0  0  0  0  0  0  0  0
   -1.0540  -10.3820    0.4810 C   0  0  0  0  0  0  0  0  0  0  0  0
   -2.1260  -10.3450   -0.1060 O   0  0  0  0  0  0  0  0  0  0  0  0
   -0.1790  -11.4200    0.4580 O   0  0  0  0  0  0  0  0  0  0  0  0
   -0.7240  -12.7460    0.2610 C   0  0  1  0  0  0  0  0  0  0  0  0
    0.4060  -13.7250   -0.1390 C   0  0  2  0  0  0  0  0  0  0  0  0
    1.0110  -13.2890   -1.3820 O   0  0  0  0  0  0  0  0  0  0  0  0
    2.1150  -12.5070   -1.2930 C   0  0  0  0  0  0  0  0  0  0  0  0
    2.6850  -12.1760   -0.2670 O   0  0  0  0  0  0  0  0  0  0  0  0
    2.5760  -12.1110   -2.6470 C   0  0  0  0  0  0  0  0  0  0  0  0
    2.8690  -10.7610   -2.8770 C   0  0  0  0  0  0  0  0  0  0  0  0
    3.3020  -10.3420   -4.1370 C   0  0  0  0  0  0  0  0  0  0  0  0
    3.4360  -11.2700   -5.1700 C   0  0  0  0  0  0  0  0  0  0  0  0
    3.1360  -12.6130   -4.9500 C   0  0  0  0  0  0  0  0  0  0  0  0
    2.7040  -13.0370   -3.6910 C   0  0  0  0  0  0  0  0  0  0  0  0
   -0.1200  -15.1880   -0.3440 C   0  0  1  0  0  0  0  0  0  0  0  0
   -1.0110  -15.2400   -1.6230 C   0  0  0  0  0  0  0  0  0  0  0  0
    1.0720  -16.1720   -0.6480 C   0  0  1  0  0  0  0  0  0  0  0  0
    2.2710  -15.7200    0.0100 O   0  0  0  0  0  0  0  0  0  0  0  0
    3.4490  -16.2060   -0.4510 C   0  0  0  0  0  0  0  0  0  0  0  0
    3.9360  -17.2920   -0.1770 O   0  0  0  0  0  0  0  0  0  0  0  0
    4.1300  -15.2450   -1.3420 C   0  0  0  0  0  0  0  0  0  0  0  0
    5.1940  -14.5090   -0.9840 C   0  0  0  0  0  0  0  0  0  0  0  0
    5.8750  -13.5640   -1.8790 C   0  0  0  0  0  0  0  0  0  0  0  0
    6.2630  -13.9090   -3.1800 C   0  0  0  0  0  0  0  0  0  0  0  0
    6.8850  -12.9700   -4.0080 C   0  0  0  0  0  0  0  0  0  0  0  0
    7.1150  -11.6760   -3.5460 C   0  0  0  0  0  0  0  0  0  0  0  0
    6.7180  -11.3160   -2.2610 C   0  0  0  0  0  0  0  0  0  0  0  0
    6.0950  -12.2550   -1.4330 C   0  0  0  0  0  0  0  0  0  0  0  0
    0.7760  -17.6470   -0.2600 C   0  0  0  0  0  0  0  0  0  0  0  0
   -0.1050  -17.8550    0.9990 C   0  0  2  0  0  0  0  0  0  0  0  0
   -1.3950  -17.0800    0.7930 C   0  0  0  0  0  0  0  0  0  0  0  0
   -0.8760  -15.6450    0.9620 C   0  0  1  0  0  0  0  0  0  0  0  0
    0.1420  -15.7740    2.0340 O   0  0  0  0  0  0  0  0  0  0  0  0
    0.4150  -17.1760    2.2720 C   0  0  0  0  0  0  0  0  0  0  0  0
    1.8920  -17.4130    2.5950 C   0  0  0  0  0  0  0  0  0  0  0  0
   -0.3580  -17.6110    3.5380 C   0  0  0  0  0  0  0  0  0  0  0  0
   -1.9490  -14.6290    1.4950 C   0  0  1  0  0  0  0  0  0  0  0  0
   -3.2900  -14.6390    0.7520 C   0  0  0  0  0  0  0  0  0  0  0  0
   -2.2910  -15.0290    2.8450 O   0  0  0  0  0  0  0  0  0  0  0  0
   -1.3860  -13.1830    1.5810 C   0  0  1  0  0  0  0  0  0  0  0  0
   -0.3970  -13.1400    2.6480 O   0  0  0  0  0  0  0  0  0  0  0  0
   -0.7530  -12.5150    3.8020 C   0  0  0  0  0  0  0  0  0  0  0  0
   -0.3350  -13.3480    4.9750 C   0  0  0  0  0  0  0  0  0  0  0  0
   -1.3280  -11.4390    3.8880 O   0  0  0  0  0  0  0  0  0  0  0  0
   -0.6290   -9.5195    2.3852 H   0  0  0  0  0  0  0  0  0  0  0  0
    0.5624   -9.1338    1.0974 H   0  0  0  0  0  0  0  0  0  0  0  0
   -1.0489   -8.3398    1.0974 H   0  0  0  0  0  0  0  0  0  0  0  0
   -1.4693  -12.7460   -0.5481 H   0  0  0  0  0  0  0  0  0  0  0  0
    1.1365  -13.7254    0.6834 H   0  0  0  0  0  0  0  0  0  0  0  0
    2.7579  -10.0290   -2.0635 H   0  0  0  0  0  0  0  0  0  0  0  0
    3.5370   -9.2822   -4.3145 H   0  0  0  0  0  0  0  0  0  0  0  0
    3.7797  -10.9405   -6.1616 H   0  0  0  0  0  0  0  0  0  0  0  0
    3.2395  -13.3402   -5.7688 H   0  0  0  0  0  0  0  0  0  0  0  0
    2.4645  -14.0968   -3.5193 H   0  0  0  0  0  0  0  0  0  0  0  0
   -2.0695  -15.3018   -1.3302 H   0  0  0  0  0  0  0  0  0  0  0  0
   -0.8483  -14.3308   -2.2204 H   0  0  0  0  0  0  0  0  0  0  0  0
   -0.7436  -16.1241   -2.2204 H   0  0  0  0  0  0  0  0  0  0  0  0
    1.2113  -16.1587   -1.7391 H   0  0  0  0  0  0  0  0  0  0  0  0
    3.7407  -15.1247   -2.3637 H   0  0  0  0  0  0  0  0  0  0  0  0
    5.5788  -14.6201    0.0405 H   0  0  0  0  0  0  0  0  0  0  0  0
    6.0768  -14.9269   -3.5531 H   0  0  0  0  0  0  0  0  0  0  0  0
    7.1931  -13.2531   -5.0253 H   0  0  0  0  0  0  0  0  0  0  0  0
    7.6099  -10.9393   -4.1959 H   0  0  0  0  0  0  0  0  0  0  0  0
    6.8944  -10.2930   -1.8971 H   0  0  0  0  0  0  0  0  0  0  0  0
    5.7748  -11.9627   -0.4220 H   0  0  0  0  0  0  0  0  0  0  0  0
    0.2655  -18.1227   -1.1103 H   0  0  0  0  0  0  0  0  0  0  0  0
    1.7523  -18.0910   -0.0154 H   0  0  0  0  0  0  0  0  0  0  0  0
   -0.1632  -18.9471    1.1170 H   0  0  0  0  0  0  0  0  0  0  0  0
   -1.8151  -17.2464   -0.2099 H   0  0  0  0  0  0  0  0  0  0  0  0
   -2.2151  -17.3582    1.4712 H   0  0  0  0  0  0  0  0  0  0  0  0
    2.0298  -17.4351    3.6861 H   0  0  0  0  0  0  0  0  0  0  0  0
    2.2116  -18.3739    2.1655 H   0  0  0  0  0  0  0  0  0  0  0  0
    2.4962  -16.6003    2.1655 H   0  0  0  0  0  0  0  0  0  0  0  0
    0.1989  -17.2976    4.4334 H   0  0  0  0  0  0  0  0  0  0  0  0
   -1.3519  -17.1397    3.5408 H   0  0  0  0  0  0  0  0  0  0  0  0
   -0.4710  -18.7052    3.5408 H   0  0  0  0  0  0  0  0  0  0  0  0
   -4.1133  -14.6451    1.4815 H   0  0  0  0  0  0  0  0  0  0  0  0
   -3.3661  -13.7414    0.1207 H   0  0  0  0  0  0  0  0  0  0  0  0
   -3.3527  -15.5376    0.1207 H   0  0  0  0  0  0  0  0  0  0  0  0
   -2.3950  -16.0010    2.7880 H   0  0  0  0  0  0  0  0  0  0  0  0
   -2.2199  -12.4942    1.7812 H   0  0  0  0  0  0  0  0  0  0  0  0
   -0.5969  -12.8261    5.9072 H   0  0  0  0  0  0  0  0  0  0  0  0
   -0.8534  -14.3176    4.9395 H   0  0  0  0  0  0  0  0  0  0  0  0
    0.7521  -13.5119    4.9395 H   0  0  0  0  0  0  0  0  0  0  0  0
  1  2  1  0
  2  3  2  0
  2  4  1  0
  4  5  1  0
  5  6  1  0
  6  7  1  0
  7  8  1  0
  8  9  2  0
  8 10  1  0
 10 11  2  0
 11 12  1  0
 12 13  2  0
 13 14  1  0
 14 15  2  0
  6 16  1  0
 16 17  1  6
 16 18  1  0
 18 19  1  0
 19 20  1  0
 20 21  2  0
 20 22  1  0
 22 23  2  0
 23 24  1  0
 24 25  2  0
 25 26  1  0
 26 27  2  0
 27 28  1  0
 28 29  2  0
 18 30  1  0
 30 31  1  0
 31 32  1  0
 32 33  1  0
 33 34  1  1
 34 35  1  0
 35 36  1  0
 35 37  1  0
 33 38  1  0
 38 39  1  0
 38 40  1  1
 38 41  1  0
 41 42  1  0
 42 43  1  0
 43 44  1  0
 43 45  2  0
 41  5  1  0
 15 10  1  0
 33 16  1  0
 29 24  1  0
 35 31  1  0
  1 46  1  0
  1 47  1  0
  1 48  1  0
  5 49  1  6
  6 50  1  1
 11 51  1  0
 12 52  1  0
 13 53  1  0
 14 54  1  0
 15 55  1  0
 17 56  1  0
 17 57  1  0
 17 58  1  0
 18 59  1  6
 22 60  1  0
 23 61  1  0
 25 62  1  0
 26 63  1  0
 27 64  1  0
 28 65  1  0
 29 66  1  0
 30 67  1  0
 30 68  1  0
 31 69  1  1
 32 70  1  0
 32 71  1  0
 36 72  1  0
 36 73  1  0
 36 74  1  0
 37 75  1  0
 37 76  1  0
 37 77  1  0
 39 78  1  0
 39 79  1  0
 39 80  1  0
 40 81  1  0
 41 82  1  1
 44 83  1  0
 44 84  1  0
 44 85  1  0
M  END
>  <meeko>  (4) 
{"is_sidechain": [false], "free_energy": -7.058, "intermolecular_energy": -12.507, "internal_energy": -4.214}

$$$$
LIB_QDISWXTVLYHRCQ__M_PUB_ALL__e8__s20260927
     RDKit          3D

 85 89  0  0  0  0  0  0  0  0999 V2000
    0.9590  -10.3990   -1.2340 C   0  0  0  0  0  0  0  0  0  0  0  0
    1.8160  -10.5340   -2.4550 C   0  0  0  0  0  0  0  0  0  0  0  0
    2.1060   -9.6130   -3.2050 O   0  0  0  0  0  0  0  0  0  0  0  0
    2.2300  -11.8200   -2.5900 O   0  0  0  0  0  0  0  0  0  0  0  0
    3.4070  -12.2210   -1.8500 C   0  0  1  0  0  0  0  0  0  0  0  0
    3.2280  -13.6650   -1.3210 C   0  0  2  0  0  0  0  0  0  0  0  0
    2.0850  -13.7190   -0.4300 O   0  0  0  0  0  0  0  0  0  0  0  0
    0.9140  -14.1600   -0.9510 C   0  0  0  0  0  0  0  0  0  0  0  0
    0.7600  -14.6870   -2.0400 O   0  0  0  0  0  0  0  0  0  0  0  0
   -0.1930  -13.9380    0.0120 C   0  0  0  0  0  0  0  0  0  0  0  0
    0.1090  -13.3390    1.2420 C   0  0  0  0  0  0  0  0  0  0  0  0
   -0.9000  -13.1150    2.1790 C   0  0  0  0  0  0  0  0  0  0  0  0
   -2.2120  -13.4940    1.8950 C   0  0  0  0  0  0  0  0  0  0  0  0
   -2.5170  -14.1000    0.6770 C   0  0  0  0  0  0  0  0  0  0  0  0
   -1.5110  -14.3250   -0.2660 C   0  0  0  0  0  0  0  0  0  0  0  0
    4.4840  -14.1670   -0.5290 C   0  0  1  0  0  0  0  0  0  0  0  0
    4.5940  -13.3810    0.8140 C   0  0  0  0  0  0  0  0  0  0  0  0
    4.3060  -15.6720   -0.0970 C   0  0  1  0  0  0  0  0  0  0  0  0
    3.4970  -16.3740   -1.0600 O   0  0  0  0  0  0  0  0  0  0  0  0
    2.8380  -17.4770   -0.6250 C   0  0  0  0  0  0  0  0  0  0  0  0
    2.9500  -18.6060   -1.0770 O   0  0  0  0  0  0  0  0  0  0  0  0
    1.9130  -17.1640    0.4830 C   0  0  0  0  0  0  0  0  0  0  0  0
    0.6310  -17.5590    0.5290 C   0  0  0  0  0  0  0  0  0  0  0  0
   -0.2790  -17.2560    1.6410 C   0  0  0  0  0  0  0  0  0  0  0  0
   -1.6430  -17.5730    1.6030 C   0  0  0  0  0  0  0  0  0  0  0  0
   -2.4690  -17.2910    2.6940 C   0  0  0  0  0  0  0  0  0  0  0  0
   -1.9360  -16.6980    3.8380 C   0  0  0  0  0  0  0  0  0  0  0  0
   -0.5780  -16.3950    3.8950 C   0  0  0  0  0  0  0  0  0  0  0  0
    0.2470  -16.6780    2.8030 C   0  0  0  0  0  0  0  0  0  0  0  0
    5.6500  -16.4220    0.1170 C   0  0  0  0  0  0  0  0  0  0  0  0
    6.8130  -16.0130   -0.8240 C   0  0  2  0  0  0  0  0  0  0  0  0
    7.0040  -14.5110   -0.6970 C   0  0  0  0  0  0  0  0  0  0  0  0
    5.7580  -14.0180   -1.4450 C   0  0  1  0  0  0  0  0  0  0  0  0
    5.6160  -14.9940   -2.5540 O   0  0  0  0  0  0  0  0  0  0  0  0
    6.5000  -16.1180   -2.3220 C   0  0  0  0  0  0  0  0  0  0  0  0
    5.8660  -17.4330   -2.7790 C   0  0  0  0  0  0  0  0  0  0  0  0
    7.7540  -15.9360   -3.2070 C   0  0  0  0  0  0  0  0  0  0  0  0
    5.9260  -12.6090   -2.1190 C   0  0  1  0  0  0  0  0  0  0  0  0
    6.4880  -11.5090   -1.2100 C   0  0  0  0  0  0  0  0  0  0  0  0
    6.9200  -12.7450   -3.1640 O   0  0  0  0  0  0  0  0  0  0  0  0
    4.6140  -12.1330   -2.8020 C   0  0  1  0  0  0  0  0  0  0  0  0
    4.3700  -12.9770   -3.9620 O   0  0  0  0  0  0  0  0  0  0  0  0
    4.3390  -12.3700   -5.1790 C   0  0  0  0  0  0  0  0  0  0  0  0
    4.9450  -13.2740   -6.2080 C   0  0  0  0  0  0  0  0  0  0  0  0
    3.8910  -11.2570   -5.4140 O   0  0  0  0  0  0  0  0  0  0  0  0
    1.5843  -10.4975   -0.3344 H   0  0  0  0  0  0  0  0  0  0  0  0
    0.4714   -9.4130   -1.2354 H   0  0  0  0  0  0  0  0  0  0  0  0
    0.1919  -11.1874   -1.2354 H   0  0  0  0  0  0  0  0  0  0  0  0
    3.5667  -11.5628   -0.9832 H   0  0  0  0  0  0  0  0  0  0  0  0
    3.0828  -14.3132   -2.1978 H   0  0  0  0  0  0  0  0  0  0  0  0
    1.1442  -13.0446    1.4694 H   0  0  0  0  0  0  0  0  0  0  0  0
   -0.6610  -12.6395    3.1417 H   0  0  0  0  0  0  0  0  0  0  0  0
   -3.0074  -13.3144    2.6333 H   0  0  0  0  0  0  0  0  0  0  0  0
   -3.5519  -14.4016    0.4580 H   0  0  0  0  0  0  0  0  0  0  0  0
   -1.7531  -14.8053   -1.2255 H   0  0  0  0  0  0  0  0  0  0  0  0
    4.4961  -14.0805    1.6573 H   0  0  0  0  0  0  0  0  0  0  0  0
    5.5712  -12.8786    0.8659 H   0  0  0  0  0  0  0  0  0  0  0  0
    3.7923  -12.6297    0.8659 H   0  0  0  0  0  0  0  0  0  0  0  0
    3.8009  -15.6538    0.8800 H   0  0  0  0  0  0  0  0  0  0  0  0
    2.2992  -16.5694    1.3240 H   0  0  0  0  0  0  0  0  0  0  0  0
    0.2390  -18.1441   -0.3160 H   0  0  0  0  0  0  0  0  0  0  0  0
   -2.0675  -18.0481    0.7063 H   0  0  0  0  0  0  0  0  0  0  0  0
   -3.5403  -17.5369    2.6505 H   0  0  0  0  0  0  0  0  0  0  0  0
   -2.5875  -16.4698    4.6944 H   0  0  0  0  0  0  0  0  0  0  0  0
   -0.1548  -15.9331    4.7992 H   0  0  0  0  0  0  0  0  0  0  0  0
    1.3205  -16.4443    2.8568 H   0  0  0  0  0  0  0  0  0  0  0  0
    5.9751  -16.2416    1.1522 H   0  0  0  0  0  0  0  0  0  0  0  0
    5.4407  -17.4775   -0.1110 H   0  0  0  0  0  0  0  0  0  0  0  0
    7.6451  -16.6725   -0.5364 H   0  0  0  0  0  0  0  0  0  0  0  0
    7.0035  -14.1871    0.3542 H   0  0  0  0  0  0  0  0  0  0  0  0
    7.9592  -14.1313   -1.0887 H   0  0  0  0  0  0  0  0  0  0  0  0
    5.5795  -18.0273   -1.8988 H   0  0  0  0  0  0  0  0  0  0  0  0
    4.9723  -17.2186   -3.3834 H   0  0  0  0  0  0  0  0  0  0  0  0
    6.5903  -17.9987   -3.3834 H   0  0  0  0  0  0  0  0  0  0  0  0
    8.6392  -15.8075   -2.5667 H   0  0  0  0  0  0  0  0  0  0  0  0
    7.8867  -16.8243   -3.8421 H   0  0  0  0  0  0  0  0  0  0  0  0
    7.6287  -15.0466   -3.8421 H   0  0  0  0  0  0  0  0  0  0  0  0
    6.3427  -11.7934   -0.1574 H   0  0  0  0  0  0  0  0  0  0  0  0
    7.5620  -11.3809   -1.4103 H   0  0  0  0  0  0  0  0  0  0  0  0
    5.9624  -10.5637   -1.4103 H   0  0  0  0  0  0  0  0  0  0  0  0
    7.4850  -13.4860   -2.8640 H   0  0  0  0  0  0  0  0  0  0  0  0
    4.7338  -11.0790   -3.0932 H   0  0  0  0  0  0  0  0  0  0  0  0
    5.4901  -14.0871   -5.7063 H   0  0  0  0  0  0  0  0  0  0  0  0
    4.1490  -13.6995   -6.8367 H   0  0  0  0  0  0  0  0  0  0  0  0
    5.6410  -12.6993   -6.8367 H   0  0  0  0  0  0  0  0  0  0  0  0
  1  2  1  0
  2  3  2  0
  2  4  1  0
  4  5  1  0
  5  6  1  0
  6  7  1  0
  7  8  1  0
  8  9  2  0
  8 10  1  0
 10 11  2  0
 11 12  1  0
 12 13  2  0
 13 14  1  0
 14 15  2  0
  6 16  1  0
 16 17  1  1
 16 18  1  0
 18 19  1  0
 19 20  1  0
 20 21  2  0
 20 22  1  0
 22 23  2  0
 23 24  1  0
 24 25  2  0
 25 26  1  0
 26 27  2  0
 27 28  1  0
 28 29  2  0
 18 30  1  0
 30 31  1  0
 31 32  1  0
 32 33  1  0
 33 34  1  6
 34 35  1  0
 35 36  1  0
 35 37  1  0
 33 38  1  0
 38 39  1  0
 38 40  1  6
 38 41  1  0
 41 42  1  0
 42 43  1  0
 43 44  1  0
 43 45  2  0
 41  5  1  0
 15 10  1  0
 33 16  1  0
 29 24  1  0
 35 31  1  0
  1 46  1  0
  1 47  1  0
  1 48  1  0
  5 49  1  1
  6 50  1  6
 11 51  1  0
 12 52  1  0
 13 53  1  0
 14 54  1  0
 15 55  1  0
 17 56  1  0
 17 57  1  0
 17 58  1  0
 18 59  1  1
 22 60  1  0
 23 61  1  0
 25 62  1  0
 26 63  1  0
 27 64  1  0
 28 65  1  0
 29 66  1  0
 30 67  1  0
 30 68  1  0
 31 69  1  6
 32 70  1  0
 32 71  1  0
 36 72  1  0
 36 73  1  0
 36 74  1  0
 37 75  1  0
 37 76  1  0
 37 77  1  0
 39 78  1  0
 39 79  1  0
 39 80  1  0
 40 81  1  0
 41 82  1  6
 44 83  1  0
 44 84  1  0
 44 85  1  0
M  END
>  <meeko>  (5) 
{"is_sidechain": [false], "free_energy": -7.015, "intermolecular_energy": -11.358, "internal_energy": -5.292}

$$$$
LIB_QDISWXTVLYHRCQ__M_PUB_ALL__e8__s20260927
     RDKit          3D

 85 89  0  0  0  0  0  0  0  0999 V2000
    0.6750   -9.9330   -1.2800 C   0  0  0  0  0  0  0  0  0  0  0  0
    0.5670   -9.9450    0.2140 C   0  0  0  0  0  0  0  0  0  0  0  0
    0.1590   -9.0080    0.8870 O   0  0  0  0  0  0  0  0  0  0  0  0
    0.9700  -11.1470    0.6990 O   0  0  0  0  0  0  0  0  0  0  0  0
    0.3180  -12.3280    0.1760 C   0  0  1  0  0  0  0  0  0  0  0  0
    1.3570  -13.4590   -0.0190 C   0  0  2  0  0  0  0  0  0  0  0  0
    2.3660  -13.0340   -0.9690 O   0  0  0  0  0  0  0  0  0  0  0  0
    3.5650  -12.6480   -0.4680 C   0  0  0  0  0  0  0  0  0  0  0  0
    3.8620  -12.5640    0.7120 O   0  0  0  0  0  0  0  0  0  0  0  0
    4.5140  -12.3560   -1.5710 C   0  0  0  0  0  0  0  0  0  0  0  0
    5.8640  -12.1640   -1.2500 C   0  0  0  0  0  0  0  0  0  0  0  0
    6.7900  -11.8820   -2.2550 C   0  0  0  0  0  0  0  0  0  0  0  0
    6.3700  -11.7850   -3.5820 C   0  0  0  0  0  0  0  0  0  0  0  0
    5.0270  -11.9660   -3.9060 C   0  0  0  0  0  0  0  0  0  0  0  0
    4.0960  -12.2490   -2.9040 C   0  0  0  0  0  0  0  0  0  0  0  0
    0.7050  -14.7770   -0.5610 C   0  0  1  0  0  0  0  0  0  0  0  0
    0.2430  -14.5550   -2.0340 C   0  0  0  0  0  0  0  0  0  0  0  0
    1.7720  -15.9330   -0.6480 C   0  0  1  0  0  0  0  0  0  0  0  0
    2.7710  -15.7660    0.3770 O   0  0  0  0  0  0  0  0  0  0  0  0
    4.0040  -16.2700    0.1250 C   0  0  0  0  0  0  0  0  0  0  0  0
    4.7220  -16.8510    0.9240 O   0  0  0  0  0  0  0  0  0  0  0  0
    4.4270  -16.0180   -1.2680 C   0  0  0  0  0  0  0  0  0  0  0  0
    5.7030  -15.8490   -1.6490 C   0  0  0  0  0  0  0  0  0  0  0  0
    6.1170  -15.6120   -3.0380 C   0  0  0  0  0  0  0  0  0  0  0  0
    5.2080  -15.6080   -4.1030 C   0  0  0  0  0  0  0  0  0  0  0  0
    5.6420  -15.3520   -5.4070 C   0  0  0  0  0  0  0  0  0  0  0  0
    6.9870  -15.0860   -5.6560 C   0  0  0  0  0  0  0  0  0  0  0  0
    7.8980  -15.0700   -4.6020 C   0  0  0  0  0  0  0  0  0  0  0  0
    7.4640  -15.3250   -3.2990 C   0  0  0  0  0  0  0  0  0  0  0  0
    1.1570  -17.3570   -0.5640 C   0  0  0  0  0  0  0  0  0  0  0  0
   -0.0830  -17.5090    0.3540 C   0  0  2  0  0  0  0  0  0  0  0  0
   -1.1210  -16.4960   -0.1000 C   0  0  0  0  0  0  0  0  0  0  0  0
   -0.4680  -15.2000    0.4030 C   0  0  1  0  0  0  0  0  0  0  0  0
    0.1490  -15.6050    1.6910 O   0  0  0  0  0  0  0  0  0  0  0  0
    0.1250  -17.0490    1.8020 C   0  0  0  0  0  0  0  0  0  0  0  0
    1.3830  -17.5790    2.4930 C   0  0  0  0  0  0  0  0  0  0  0  0
   -1.0490  -17.4430    2.7270 C   0  0  0  0  0  0  0  0  0  0  0  0
   -1.4870  -14.0550    0.7460 C   0  0  1  0  0  0  0  0  0  0  0  0
   -2.5290  -13.7560   -0.3400 C   0  0  0  0  0  0  0  0  0  0  0  0
   -2.2760  -14.5010    1.8760 O   0  0  0  0  0  0  0  0  0  0  0  0
   -0.7680  -12.7500    1.1840 C   0  0  1  0  0  0  0  0  0  0  0  0
   -0.1520  -12.9810    2.4820 O   0  0  0  0  0  0  0  0  0  0  0  0
   -0.7570  -12.4270    3.5660 C   0  0  0  0  0  0  0  0  0  0  0  0
   -1.5600  -11.2370    3.1410 C   0  0  0  0  0  0  0  0  0  0  0  0
   -0.6690  -12.8250    4.7190 O   0  0  0  0  0  0  0  0  0  0  0  0
    1.7295   -9.8158   -1.5705 H   0  0  0  0  0  0  0  0  0  0  0  0
    0.2866  -10.8798   -1.6833 H   0  0  0  0  0  0  0  0  0  0  0  0
    0.0882   -9.0945   -1.6833 H   0  0  0  0  0  0  0  0  0  0  0  0
   -0.1403  -12.1211   -0.8023 H   0  0  0  0  0  0  0  0  0  0  0  0
    1.7978  -13.6650    0.9675 H   0  0  0  0  0  0  0  0  0  0  0  0
    6.1948  -12.2357   -0.2034 H   0  0  0  0  0  0  0  0  0  0  0  0
    7.8504  -11.7363   -2.0013 H   0  0  0  0  0  0  0  0  0  0  0  0
    7.1008  -11.5651   -4.3742 H   0  0  0  0  0  0  0  0  0  0  0  0
    4.6993  -11.8859   -4.9530 H   0  0  0  0  0  0  0  0  0  0  0  0
    3.0355  -12.3878   -3.1612 H   0  0  0  0  0  0  0  0  0  0  0  0
   -0.7485  -14.0786   -2.0395 H   0  0  0  0  0  0  0  0  0  0  0  0
    0.9648  -13.9054   -2.5507 H   0  0  0  0  0  0  0  0  0  0  0  0
    0.1868  -15.5245   -2.5507 H   0  0  0  0  0  0  0  0  0  0  0  0
    2.2328  -15.8516   -1.6435 H   0  0  0  0  0  0  0  0  0  0  0  0
    3.6470  -15.9656   -2.0418 H   0  0  0  0  0  0  0  0  0  0  0  0
    6.4842  -15.8904   -0.8757 H   0  0  0  0  0  0  0  0  0  0  0  0
    4.1433  -15.8080   -3.9120 H   0  0  0  0  0  0  0  0  0  0  0  0
    4.9208  -15.3606   -6.2376 H   0  0  0  0  0  0  0  0  0  0  0  0
    7.3288  -14.8890   -6.6828 H   0  0  0  0  0  0  0  0  0  0  0  0
    8.9595  -14.8565   -4.7960 H   0  0  0  0  0  0  0  0  0  0  0  0
    8.1863  -15.3004   -2.4697 H   0  0  0  0  0  0  0  0  0  0  0  0
    0.8619  -17.6566   -1.5805 H   0  0  0  0  0  0  0  0  0  0  0  0
    1.9367  -17.9907   -0.1163 H   0  0  0  0  0  0  0  0  0  0  0  0
   -0.3366  -18.5780    0.3004 H   0  0  0  0  0  0  0  0  0  0  0  0
   -1.2396  -16.4954   -1.1936 H   0  0  0  0  0  0  0  0  0  0  0  0
   -2.1393  -16.6770    0.2746 H   0  0  0  0  0  0  0  0  0  0  0  0
    1.2528  -17.5242    3.5839 H   0  0  0  0  0  0  0  0  0  0  0  0
    1.5516  -18.6246    2.1959 H   0  0  0  0  0  0  0  0  0  0  0  0
    2.2490  -16.9693    2.1959 H   0  0  0  0  0  0  0  0  0  0  0  0
   -0.7391  -17.3390    3.7773 H   0  0  0  0  0  0  0  0  0  0  0  0
   -1.9074  -16.7837    2.5310 H   0  0  0  0  0  0  0  0  0  0  0  0
   -1.3359  -18.4867    2.5310 H   0  0  0  0  0  0  0  0  0  0  0  0
   -3.4835  -13.4821    0.1332 H   0  0  0  0  0  0  0  0  0  0  0  0
   -2.1775  -12.9225   -0.9658 H   0  0  0  0  0  0  0  0  0  0  0  0
   -2.6730  -14.6491   -0.9658 H   0  0  0  0  0  0  0  0  0  0  0  0
   -2.3110  -13.7220    2.4690 H   0  0  0  0  0  0  0  0  0  0  0  0
   -1.5109  -11.9403    1.2335 H   0  0  0  0  0  0  0  0  0  0  0  0
   -1.9213  -10.7015    4.0313 H   0  0  0  0  0  0  0  0  0  0  0  0
   -0.9298  -10.5652    2.5397 H   0  0  0  0  0  0  0  0  0  0  0  0
   -2.4188  -11.5700    2.5397 H   0  0  0  0  0  0  0  0  0  0  0  0
  1  2  1  0
  2  3  2  0
  2  4  1  0
  4  5  1  0
  5  6  1  0
  6  7  1  0
  7  8  1  0
  8  9  2  0
  8 10  1  0
 10 11  2  0
 11 12  1  0
 12 13  2  0
 13 14  1  0
 14 15  2  0
  6 16  1  0
 16 17  1  6
 16 18  1  0
 18 19  1  0
 19 20  1  0
 20 21  2  0
 20 22  1  0
 22 23  2  0
 23 24  1  0
 24 25  2  0
 25 26  1  0
 26 27  2  0
 27 28  1  0
 28 29  2  0
 18 30  1  0
 30 31  1  0
 31 32  1  0
 32 33  1  0
 33 34  1  1
 34 35  1  0
 35 36  1  0
 35 37  1  0
 33 38  1  0
 38 39  1  0
 38 40  1  1
 38 41  1  0
 41 42  1  0
 42 43  1  0
 43 44  1  0
 43 45  2  0
 41  5  1  0
 15 10  1  0
 33 16  1  0
 29 24  1  0
 35 31  1  0
  1 46  1  0
  1 47  1  0
  1 48  1  0
  5 49  1  6
  6 50  1  1
 11 51  1  0
 12 52  1  0
 13 53  1  0
 14 54  1  0
 15 55  1  0
 17 56  1  0
 17 57  1  0
 17 58  1  0
 18 59  1  6
 22 60  1  0
 23 61  1  0
 25 62  1  0
 26 63  1  0
 27 64  1  0
 28 65  1  0
 29 66  1  0
 30 67  1  0
 30 68  1  0
 31 69  1  1
 32 70  1  0
 32 71  1  0
 36 72  1  0
 36 73  1  0
 36 74  1  0
 37 75  1  0
 37 76  1  0
 37 77  1  0
 39 78  1  0
 39 79  1  0
 39 80  1  0
 40 81  1  0
 41 82  1  1
 44 83  1  0
 44 84  1  0
 44 85  1  0
M  END
>  <meeko>  (6) 
{"is_sidechain": [false], "free_energy": -6.925, "intermolecular_energy": -11.491, "internal_energy": -5.008}

$$$$
LIB_QDISWXTVLYHRCQ__M_PUB_ALL__e8__s20260927
     RDKit          3D

 85 89  0  0  0  0  0  0  0  0999 V2000
    0.7110  -10.2010   -1.2120 C   0  0  0  0  0  0  0  0  0  0  0  0
    0.5220   -9.9880    0.2590 C   0  0  0  0  0  0  0  0  0  0  0  0
    0.3140   -8.9020    0.7820 O   0  0  0  0  0  0  0  0  0  0  0  0
    0.6000  -11.1750    0.9130 O   0  0  0  0  0  0  0  0  0  0  0  0
   -0.3340  -12.2100    0.5270 C   0  0  1  0  0  0  0  0  0  0  0  0
    0.2900  -13.6030    0.7810 C   0  0  2  0  0  0  0  0  0  0  0  0
    1.4920  -13.7500   -0.0160 O   0  0  0  0  0  0  0  0  0  0  0  0
    2.6570  -13.3290    0.5360 C   0  0  0  0  0  0  0  0  0  0  0  0
    2.9310  -13.3170    1.7230 O   0  0  0  0  0  0  0  0  0  0  0  0
    3.6000  -12.8930   -0.5250 C   0  0  0  0  0  0  0  0  0  0  0  0
    3.1750  -12.9620   -1.8580 C   0  0  0  0  0  0  0  0  0  0  0  0
    4.0300  -12.5660   -2.8870 C   0  0  0  0  0  0  0  0  0  0  0  0
    5.3120  -12.1060   -2.5900 C   0  0  0  0  0  0  0  0  0  0  0  0
    5.7440  -12.0440   -1.2650 C   0  0  0  0  0  0  0  0  0  0  0  0
    4.8920  -12.4390   -0.2310 C   0  0  0  0  0  0  0  0  0  0  0  0
   -0.6870  -14.7700    0.4050 C   0  0  1  0  0  0  0  0  0  0  0  0
   -0.8640  -14.8130   -1.1440 C   0  0  0  0  0  0  0  0  0  0  0  0
   -0.0560  -16.1660    0.7730 C   0  0  1  0  0  0  0  0  0  0  0  0
    0.8070  -16.0360    1.9190 O   0  0  0  0  0  0  0  0  0  0  0  0
    1.7760  -16.9720    2.0700 C   0  0  0  0  0  0  0  0  0  0  0  0
    1.6820  -18.0090    2.7090 O   0  0  0  0  0  0  0  0  0  0  0  0
    3.0220  -16.5910    1.3750 C   0  0  0  0  0  0  0  0  0  0  0  0
    3.2570  -16.8140    0.0730 C   0  0  0  0  0  0  0  0  0  0  0  0
    4.4940  -16.4200   -0.6150 C   0  0  0  0  0  0  0  0  0  0  0  0
    4.5790  -16.3200   -2.0090 C   0  0  0  0  0  0  0  0  0  0  0  0
    5.7690  -15.9160   -2.6220 C   0  0  0  0  0  0  0  0  0  0  0  0
    6.8810  -15.5980   -1.8450 C   0  0  0  0  0  0  0  0  0  0  0  0
    6.8040  -15.6760   -0.4560 C   0  0  0  0  0  0  0  0  0  0  0  0
    5.6130  -16.0800    0.1560 C   0  0  0  0  0  0  0  0  0  0  0  0
   -1.1120  -17.2790    1.0250 C   0  0  0  0  0  0  0  0  0  0  0  0
   -2.4350  -16.8220    1.6890 C   0  0  2  0  0  0  0  0  0  0  0  0
   -3.0180  -15.7050    0.8390 C   0  0  0  0  0  0  0  0  0  0  0  0
   -2.0430  -14.5700    1.1830 C   0  0  1  0  0  0  0  0  0  0  0  0
   -1.7570  -14.7890    2.6230 O   0  0  0  0  0  0  0  0  0  0  0  0
   -2.2680  -16.0840    3.0230 C   0  0  0  0  0  0  0  0  0  0  0  0
   -1.3490  -16.7570    4.0450 C   0  0  0  0  0  0  0  0  0  0  0  0
   -3.6110  -15.8670    3.7580 C   0  0  0  0  0  0  0  0  0  0  0  0
   -2.6630  -13.1310    1.0710 C   0  0  1  0  0  0  0  0  0  0  0  0
   -3.4060  -12.8350   -0.2380 C   0  0  0  0  0  0  0  0  0  0  0  0
   -3.6870  -13.0210    2.0900 O   0  0  0  0  0  0  0  0  0  0  0  0
   -1.6140  -12.0230    1.3640 C   0  0  1  0  0  0  0  0  0  0  0  0
   -1.2730  -12.0780    2.7780 O   0  0  0  0  0  0  0  0  0  0  0  0
   -1.4890  -10.9560    3.5150 C   0  0  0  0  0  0  0  0  0  0  0  0
   -2.2340   -9.9500    2.6930 C   0  0  0  0  0  0  0  0  0  0  0  0
   -1.1350  -10.7780    4.6710 O   0  0  0  0  0  0  0  0  0  0  0  0
    1.4330  -11.0147   -1.3749 H   0  0  0  0  0  0  0  0  0  0  0  0
   -0.2524  -10.4684   -1.6705 H   0  0  0  0  0  0  0  0  0  0  0  0
    1.0912   -9.2762   -1.6705 H   0  0  0  0  0  0  0  0  0  0  0  0
   -0.5739  -12.1403   -0.5443 H   0  0  0  0  0  0  0  0  0  0  0  0
    0.5125  -13.6644    1.8565 H   0  0  0  0  0  0  0  0  0  0  0  0
    2.1653  -13.3291   -2.0939 H   0  0  0  0  0  0  0  0  0  0  0  0
    3.6925  -12.6168   -3.9327 H   0  0  0  0  0  0  0  0  0  0  0  0
    5.9842  -11.7913   -3.4019 H   0  0  0  0  0  0  0  0  0  0  0  0
    6.7573  -11.6835   -1.0341 H   0  0  0  0  0  0  0  0  0  0  0  0
    5.2353  -12.3936    0.8131 H   0  0  0  0  0  0  0  0  0  0  0  0
   -1.9065  -15.0663   -1.3870 H   0  0  0  0  0  0  0  0  0  0  0  0
   -0.6172  -13.8288   -1.5687 H   0  0  0  0  0  0  0  0  0  0  0  0
   -0.1931  -15.5743   -1.5687 H   0  0  0  0  0  0  0  0  0  0  0  0
    0.5267  -16.4818   -0.1049 H   0  0  0  0  0  0  0  0  0  0  0  0
    3.8075  -16.0927    1.9621 H   0  0  0  0  0  0  0  0  0  0  0  0
    2.4775  -17.3218   -0.5140 H   0  0  0  0  0  0  0  0  0  0  0  0
    3.7019  -16.5614   -2.6274 H   0  0  0  0  0  0  0  0  0  0  0  0
    5.8273  -15.8492   -3.7184 H   0  0  0  0  0  0  0  0  0  0  0  0
    7.8188  -15.2857   -2.3277 H   0  0  0  0  0  0  0  0  0  0  0  0
    7.6794  -15.4200    0.1589 H   0  0  0  0  0  0  0  0  0  0  0  0
    5.5545  -16.1312    1.2532 H   0  0  0  0  0  0  0  0  0  0  0  0
   -1.3616  -17.7321    0.0542 H   0  0  0  0  0  0  0  0  0  0  0  0
   -0.6461  -17.9736    1.7394 H   0  0  0  0  0  0  0  0  0  0  0  0
   -3.0172  -17.7477    1.8076 H   0  0  0  0  0  0  0  0  0  0  0  0
   -2.9941  -15.9527   -0.2325 H   0  0  0  0  0  0  0  0  0  0  0  0
   -4.0771  -15.4802    1.0332 H   0  0  0  0  0  0  0  0  0  0  0  0
   -1.6876  -16.5090    5.0618 H   0  0  0  0  0  0  0  0  0  0  0  0
   -1.3801  -17.8475    3.9039 H   0  0  0  0  0  0  0  0  0  0  0  0
   -0.3188  -16.3982    3.9039 H   0  0  0  0  0  0  0  0  0  0  0  0
   -3.4428  -15.8942    4.8447 H   0  0  0  0  0  0  0  0  0  0  0  0
   -4.0295  -14.8896    3.4761 H   0  0  0  0  0  0  0  0  0  0  0  0
   -4.3161  -16.6629    3.4761 H   0  0  0  0  0  0  0  0  0  0  0  0
   -4.4057  -12.4367   -0.0102 H   0  0  0  0  0  0  0  0  0  0  0  0
   -2.8401  -12.0936   -0.8212 H   0  0  0  0  0  0  0  0  0  0  0  0
   -3.5049  -13.7624   -0.8212 H   0  0  0  0  0  0  0  0  0  0  0  0
   -4.1800  -13.8650    2.0270 H   0  0  0  0  0  0  0  0  0  0  0  0
   -2.0494  -11.0489    1.0964 H   0  0  0  0  0  0  0  0  0  0  0  0
   -2.7552   -9.2462    3.3586 H   0  0  0  0  0  0  0  0  0  0  0  0
   -1.5252   -9.3979    2.0583 H   0  0  0  0  0  0  0  0  0  0  0  0
   -2.9688  -10.4669    2.0583 H   0  0  0  0  0  0  0  0  0  0  0  0
  1  2  1  0
  2  3  2  0
  2  4  1  0
  4  5  1  0
  5  6  1  0
  6  7  1  0
  7  8  1  0
  8  9  2  0
  8 10  1  0
 10 11  2  0
 11 12  1  0
 12 13  2  0
 13 14  1  0
 14 15  2  0
  6 16  1  0
 16 17  1  6
 16 18  1  0
 18 19  1  0
 19 20  1  0
 20 21  2  0
 20 22  1  0
 22 23  2  0
 23 24  1  0
 24 25  2  0
 25 26  1  0
 26 27  2  0
 27 28  1  0
 28 29  2  0
 18 30  1  0
 30 31  1  0
 31 32  1  0
 32 33  1  0
 33 34  1  1
 34 35  1  0
 35 36  1  0
 35 37  1  0
 33 38  1  0
 38 39  1  0
 38 40  1  1
 38 41  1  0
 41 42  1  0
 42 43  1  0
 43 44  1  0
 43 45  2  0
 41  5  1  0
 15 10  1  0
 33 16  1  0
 29 24  1  0
 35 31  1  0
  1 46  1  0
  1 47  1  0
  1 48  1  0
  5 49  1  6
  6 50  1  1
 11 51  1  0
 12 52  1  0
 13 53  1  0
 14 54  1  0
 15 55  1  0
 17 56  1  0
 17 57  1  0
 17 58  1  0
 18 59  1  6
 22 60  1  0
 23 61  1  0
 25 62  1  0
 26 63  1  0
 27 64  1  0
 28 65  1  0
 29 66  1  0
 30 67  1  0
 30 68  1  0
 31 69  1  1
 32 70  1  0
 32 71  1  0
 36 72  1  0
 36 73  1  0
 36 74  1  0
 37 75  1  0
 37 76  1  0
 37 77  1  0
 39 78  1  0
 39 79  1  0
 39 80  1  0
 40 81  1  0
 41 82  1  1
 44 83  1  0
 44 84  1  0
 44 85  1  0
M  END
>  <meeko>  (7) 
{"is_sidechain": [false], "free_energy": -6.863, "intermolecular_energy": -11.45, "internal_energy": -4.945}

$$$$
LIB_QDISWXTVLYHRCQ__M_PUB_ALL__e8__s20260927
     RDKit          3D

 85 89  0  0  0  0  0  0  0  0999 V2000
   11.9620  -13.7500   -0.2280 C   0  0  0  0  0  0  0  0  0  0  0  0
   10.7170  -13.1720    0.3710 C   0  0  0  0  0  0  0  0  0  0  0  0
   10.7000  -12.3130    1.2420 O   0  0  0  0  0  0  0  0  0  0  0  0
    9.6220  -13.7300   -0.2050 O   0  0  0  0  0  0  0  0  0  0  0  0
    8.7390  -12.8530   -0.9420 C   0  0  1  0  0  0  0  0  0  0  0  0
    8.4400  -13.4560   -2.3350 C   0  0  2  0  0  0  0  0  0  0  0  0
    9.6750  -13.5930   -3.0820 O   0  0  0  0  0  0  0  0  0  0  0  0
   10.2120  -14.8350   -3.1690 C   0  0  0  0  0  0  0  0  0  0  0  0
    9.7230  -15.8660   -2.7400 O   0  0  0  0  0  0  0  0  0  0  0  0
   11.5030  -14.7870   -3.9000 C   0  0  0  0  0  0  0  0  0  0  0  0
   11.9590  -13.5430   -4.3570 C   0  0  0  0  0  0  0  0  0  0  0  0
   13.1650  -13.4520   -5.0530 C   0  0  0  0  0  0  0  0  0  0  0  0
   13.9160  -14.6010   -5.3000 C   0  0  0  0  0  0  0  0  0  0  0  0
   13.4630  -15.8420   -4.8550 C   0  0  0  0  0  0  0  0  0  0  0  0
   12.2570  -15.9390   -4.1580 C   0  0  0  0  0  0  0  0  0  0  0  0
    7.4640  -12.5610   -3.1740 C   0  0  1  0  0  0  0  0  0  0  0  0
    8.1950  -11.2450   -3.5820 C   0  0  0  0  0  0  0  0  0  0  0  0
    7.1040  -13.2570   -4.5410 C   0  0  1  0  0  0  0  0  0  0  0  0
    7.1210  -14.6900   -4.3900 O   0  0  0  0  0  0  0  0  0  0  0  0
    7.3240  -15.4250   -5.5100 C   0  0  0  0  0  0  0  0  0  0  0  0
    6.6190  -16.3390   -5.9090 O   0  0  0  0  0  0  0  0  0  0  0  0
    8.5490  -15.0130   -6.2260 C   0  0  0  0  0  0  0  0  0  0  0  0
    9.3860  -15.8630   -6.8390 C   0  0  0  0  0  0  0  0  0  0  0  0
   10.5950  -15.4440   -7.5600 C   0  0  0  0  0  0  0  0  0  0  0  0
   10.8410  -14.1090   -7.9030 C   0  0  0  0  0  0  0  0  0  0  0  0
   12.0170  -13.7500   -8.5660 C   0  0  0  0  0  0  0  0  0  0  0  0
   12.9650  -14.7210   -8.8820 C   0  0  0  0  0  0  0  0  0  0  0  0
   12.7410  -16.0500   -8.5310 C   0  0  0  0  0  0  0  0  0  0  0  0
   11.5640  -16.4090   -7.8670 C   0  0  0  0  0  0  0  0  0  0  0  0
    5.7410  -12.8010   -5.1320 C   0  0  0  0  0  0  0  0  0  0  0  0
    4.6260  -12.4810   -4.1020 C   0  0  2  0  0  0  0  0  0  0  0  0
    5.1730  -11.4430   -3.1370 C   0  0  0  0  0  0  0  0  0  0  0  0
    6.1530  -12.3120   -2.3350 C   0  0  1  0  0  0  0  0  0  0  0  0
    5.4470  -13.6140   -2.2290 O   0  0  0  0  0  0  0  0  0  0  0  0
    4.3070  -13.6170   -3.1220 C   0  0  0  0  0  0  0  0  0  0  0  0
    4.0900  -14.9960   -3.7490 C   0  0  0  0  0  0  0  0  0  0  0  0
    3.0370  -13.3420   -2.2840 C   0  0  0  0  0  0  0  0  0  0  0  0
    6.3940  -11.8220   -0.8620 C   0  0  1  0  0  0  0  0  0  0  0  0
    6.7350  -10.3340   -0.7130 C   0  0  0  0  0  0  0  0  0  0  0  0
    5.1420  -11.9690   -0.1470 O   0  0  0  0  0  0  0  0  0  0  0  0
    7.4430  -12.6980   -0.1230 C   0  0  1  0  0  0  0  0  0  0  0  0
    6.8610  -14.0120    0.1050 O   0  0  0  0  0  0  0  0  0  0  0  0
    6.4290  -14.2920    1.3630 C   0  0  0  0  0  0  0  0  0  0  0  0
    5.1850  -15.1230    1.2950 C   0  0  0  0  0  0  0  0  0  0  0  0
    6.9590  -13.9270    2.4020 O   0  0  0  0  0  0  0  0  0  0  0  0
   12.6430  -14.0662    0.5759 H   0  0  0  0  0  0  0  0  0  0  0  0
   11.7005  -14.6188   -0.8499 H   0  0  0  0  0  0  0  0  0  0  0  0
   12.4569  -12.9895   -0.8499 H   0  0  0  0  0  0  0  0  0  0  0  0
    9.2049  -11.8686   -1.0966 H   0  0  0  0  0  0  0  0  0  0  0  0
    7.9635  -14.4329   -2.1658 H   0  0  0  0  0  0  0  0  0  0  0  0
   11.3652  -12.6368   -4.1667 H   0  0  0  0  0  0  0  0  0  0  0  0
   13.5234  -12.4741   -5.4068 H   0  0  0  0  0  0  0  0  0  0  0  0
   14.8676  -14.5278   -5.8470 H   0  0  0  0  0  0  0  0  0  0  0  0
   14.0567  -16.7465   -5.0533 H   0  0  0  0  0  0  0  0  0  0  0  0
   11.8991  -16.9198   -3.8116 H   0  0  0  0  0  0  0  0  0  0  0  0
    8.4986  -10.6985   -2.6769 H   0  0  0  0  0  0  0  0  0  0  0  0
    9.0861  -11.4903   -4.1784 H   0  0  0  0  0  0  0  0  0  0  0  0
    7.5158  -10.6181   -4.1784 H   0  0  0  0  0  0  0  0  0  0  0  0
    7.8760  -12.9427   -5.2588 H   0  0  0  0  0  0  0  0  0  0  0  0
    8.7900  -13.9402   -6.2584 H   0  0  0  0  0  0  0  0  0  0  0  0
    9.1532  -16.9374   -6.7994 H   0  0  0  0  0  0  0  0  0  0  0  0
   10.1014  -13.3357   -7.6480 H   0  0  0  0  0  0  0  0  0  0  0  0
   12.1948  -12.6994   -8.8390 H   0  0  0  0  0  0  0  0  0  0  0  0
   13.8889  -14.4383   -9.4079 H   0  0  0  0  0  0  0  0  0  0  0  0
   13.4901  -16.8173   -8.7762 H   0  0  0  0  0  0  0  0  0  0  0  0
   11.3970  -17.4585   -7.5829 H   0  0  0  0  0  0  0  0  0  0  0  0
    5.9192  -11.8937   -5.7278 H   0  0  0  0  0  0  0  0  0  0  0  0
    5.3695  -13.6566   -5.7150 H   0  0  0  0  0  0  0  0  0  0  0  0
    3.7516  -12.2163   -4.7147 H   0  0  0  0  0  0  0  0  0  0  0  0
    5.6889  -10.6273   -3.6647 H   0  0  0  0  0  0  0  0  0  0  0  0
    4.4123  -10.9262   -2.5334 H   0  0  0  0  0  0  0  0  0  0  0  0
    3.9720  -15.7462   -2.9532 H   0  0  0  0  0  0  0  0  0  0  0  0
    3.1838  -14.9769   -4.3723 H   0  0  0  0  0  0  0  0  0  0  0  0
    4.9583  -15.2562   -4.3723 H   0  0  0  0  0  0  0  0  0  0  0  0
    3.2852  -13.3957   -1.2137 H   0  0  0  0  0  0  0  0  0  0  0  0
    2.6512  -12.3395   -2.5211 H   0  0  0  0  0  0  0  0  0  0  0  0
    2.2711  -14.0951   -2.5211 H   0  0  0  0  0  0  0  0  0  0  0  0
    6.7940  -10.0765    0.3548 H   0  0  0  0  0  0  0  0  0  0  0  0
    7.7032  -10.1298   -1.1935 H   0  0  0  0  0  0  0  0  0  0  0  0
    5.9523   -9.7286   -1.1935 H   0  0  0  0  0  0  0  0  0  0  0  0
    4.6490  -12.6400   -0.6620 H   0  0  0  0  0  0  0  0  0  0  0  0
    7.7042  -12.2072    0.8261 H   0  0  0  0  0  0  0  0  0  0  0  0
    4.8413  -15.3526    2.3144 H   0  0  0  0  0  0  0  0  0  0  0  0
    4.4011  -14.5665    0.7603 H   0  0  0  0  0  0  0  0  0  0  0  0
    5.3989  -16.0602    0.7603 H   0  0  0  0  0  0  0  0  0  0  0  0
  1  2  1  0
  2  3  2  0
  2  4  1  0
  4  5  1  0
  5  6  1  0
  6  7  1  0
  7  8  1  0
  8  9  2  0
  8 10  1  0
 10 11  2  0
 11 12  1  0
 12 13  2  0
 13 14  1  0
 14 15  2  0
  6 16  1  0
 16 17  1  6
 16 18  1  0
 18 19  1  0
 19 20  1  0
 20 21  2  0
 20 22  1  0
 22 23  2  0
 23 24  1  0
 24 25  2  0
 25 26  1  0
 26 27  2  0
 27 28  1  0
 28 29  2  0
 18 30  1  0
 30 31  1  0
 31 32  1  0
 32 33  1  0
 33 34  1  1
 34 35  1  0
 35 36  1  0
 35 37  1  0
 33 38  1  0
 38 39  1  0
 38 40  1  1
 38 41  1  0
 41 42  1  0
 42 43  1  0
 43 44  1  0
 43 45  2  0
 41  5  1  0
 15 10  1  0
 33 16  1  0
 29 24  1  0
 35 31  1  0
  1 46  1  0
  1 47  1  0
  1 48  1  0
  5 49  1  6
  6 50  1  1
 11 51  1  0
 12 52  1  0
 13 53  1  0
 14 54  1  0
 15 55  1  0
 17 56  1  0
 17 57  1  0
 17 58  1  0
 18 59  1  6
 22 60  1  0
 23 61  1  0
 25 62  1  0
 26 63  1  0
 27 64  1  0
 28 65  1  0
 29 66  1  0
 30 67  1  0
 30 68  1  0
 31 69  1  6
 32 70  1  0
 32 71  1  0
 36 72  1  0
 36 73  1  0
 36 74  1  0
 37 75  1  0
 37 76  1  0
 37 77  1  0
 39 78  1  0
 39 79  1  0
 39 80  1  0
 40 81  1  0
 41 82  1  1
 44 83  1  0
 44 84  1  0
 44 85  1  0
M  END
>  <meeko>  (8) 
{"is_sidechain": [false], "free_energy": -6.556, "intermolecular_energy": -10.82, "internal_energy": -5.062}

$$$$
LIB_QDISWXTVLYHRCQ__M_PUB_ALL__e8__s20260927
     RDKit          3D

 85 89  0  0  0  0  0  0  0  0999 V2000
    5.6670  -13.1260   -7.4420 C   0  0  0  0  0  0  0  0  0  0  0  0
    5.9850  -13.9900   -6.2610 C   0  0  0  0  0  0  0  0  0  0  0  0
    6.2100  -15.1910   -6.3210 O   0  0  0  0  0  0  0  0  0  0  0  0
    6.0020  -13.2410   -5.1290 O   0  0  0  0  0  0  0  0  0  0  0  0
    5.5350  -13.8670   -3.9110 C   0  0  1  0  0  0  0  0  0  0  0  0
    6.6160  -13.7450   -2.8100 C   0  0  2  0  0  0  0  0  0  0  0  0
    7.8260  -14.4200   -3.2370 O   0  0  0  0  0  0  0  0  0  0  0  0
    8.7340  -13.6870   -3.9250 C   0  0  0  0  0  0  0  0  0  0  0  0
    8.8710  -12.4760   -3.8790 O   0  0  0  0  0  0  0  0  0  0  0  0
    9.5910  -14.5730   -4.7520 C   0  0  0  0  0  0  0  0  0  0  0  0
    9.4800  -15.9580   -4.5700 C   0  0  0  0  0  0  0  0  0  0  0  0
   10.2690  -16.8290   -5.3230 C   0  0  0  0  0  0  0  0  0  0  0  0
   11.1750  -16.3200   -6.2540 C   0  0  0  0  0  0  0  0  0  0  0  0
   11.2970  -14.9430   -6.4320 C   0  0  0  0  0  0  0  0  0  0  0  0
   10.5090  -14.0670   -5.6820 C   0  0  0  0  0  0  0  0  0  0  0  0
    6.1580  -14.3840   -1.4530 C   0  0  1  0  0  0  0  0  0  0  0  0
    6.0860  -15.9340   -1.6140 C   0  0  0  0  0  0  0  0  0  0  0  0
    7.2400  -14.1490   -0.3320 C   0  0  1  0  0  0  0  0  0  0  0  0
    7.9370  -12.9100   -0.5640 O   0  0  0  0  0  0  0  0  0  0  0  0
    9.1740  -12.7870   -0.0240 C   0  0  0  0  0  0  0  0  0  0  0  0
    9.4360  -12.3200    1.0740 O   0  0  0  0  0  0  0  0  0  0  0  0
   10.2260  -13.2730   -0.9400 C   0  0  0  0  0  0  0  0  0  0  0  0
   10.7250  -14.5190   -0.9210 C   0  0  0  0  0  0  0  0  0  0  0  0
   11.7620  -14.9990   -1.8440 C   0  0  0  0  0  0  0  0  0  0  0  0
   12.5260  -14.1300   -2.6330 C   0  0  0  0  0  0  0  0  0  0  0  0
   13.5210  -14.6280   -3.4790 C   0  0  0  0  0  0  0  0  0  0  0  0
   13.7680  -15.9980   -3.5350 C   0  0  0  0  0  0  0  0  0  0  0  0
   13.0270  -16.8710   -2.7420 C   0  0  0  0  0  0  0  0  0  0  0  0
   12.0320  -16.3720   -1.8960 C   0  0  0  0  0  0  0  0  0  0  0  0
    6.6580  -14.1700    1.1090 C   0  0  0  0  0  0  0  0  0  0  0  0
    5.2280  -13.5950    1.2730 C   0  0  2  0  0  0  0  0  0  0  0  0
    4.3180  -14.3390    0.3100 C   0  0  0  0  0  0  0  0  0  0  0  0
    4.7870  -13.7370   -1.0220 C   0  0  1  0  0  0  0  0  0  0  0  0
    5.0620  -12.3190   -0.6790 O   0  0  0  0  0  0  0  0  0  0  0  0
    5.0450  -12.1610    0.7610 C   0  0  0  0  0  0  0  0  0  0  0  0
    6.0960  -11.1500    1.2260 C   0  0  0  0  0  0  0  0  0  0  0  0
    3.6830  -11.5530    1.1640 C   0  0  0  0  0  0  0  0  0  0  0  0
    3.6860  -13.7120   -2.1430 C   0  0  1  0  0  0  0  0  0  0  0  0
    2.9520  -15.0390   -2.3720 C   0  0  0  0  0  0  0  0  0  0  0  0
    2.6450  -12.8040   -1.7060 O   0  0  0  0  0  0  0  0  0  0  0  0
    4.2370  -13.1550   -3.4850 C   0  0  1  0  0  0  0  0  0  0  0  0
    4.5040  -11.7350   -3.3150 O   0  0  0  0  0  0  0  0  0  0  0  0
    3.5900  -10.8650   -3.8210 C   0  0  0  0  0  0  0  0  0  0  0  0
    3.5900  -10.9470   -5.3160 C   0  0  0  0  0  0  0  0  0  0  0  0
    2.8710  -10.1200   -3.1700 O   0  0  0  0  0  0  0  0  0  0  0  0
    5.3066  -12.1469   -7.0936 H   0  0  0  0  0  0  0  0  0  0  0  0
    6.5733  -12.9880   -8.0500 H   0  0  0  0  0  0  0  0  0  0  0  0
    4.8875  -13.6085   -8.0500 H   0  0  0  0  0  0  0  0  0  0  0  0
    5.3387  -14.9374   -4.0716 H   0  0  0  0  0  0  0  0  0  0  0  0
    6.7919  -12.6708   -2.6514 H   0  0  0  0  0  0  0  0  0  0  0  0
    8.7697  -16.3595   -3.8323 H   0  0  0  0  0  0  0  0  0  0  0  0
   10.1766  -17.9161   -5.1825 H   0  0  0  0  0  0  0  0  0  0  0  0
   11.7945  -17.0071   -6.8490 H   0  0  0  0  0  0  0  0  0  0  0  0
   12.0151  -14.5455   -7.1644 H   0  0  0  0  0  0  0  0  0  0  0  0
   10.6090  -12.9804   -5.8213 H   0  0  0  0  0  0  0  0  0  0  0  0
    6.0641  -16.4052   -0.6203 H   0  0  0  0  0  0  0  0  0  0  0  0
    5.1744  -16.2032   -2.1676 H   0  0  0  0  0  0  0  0  0  0  0  0
    6.9687  -16.2865   -2.1676 H   0  0  0  0  0  0  0  0  0  0  0  0
    7.9401  -14.9949   -0.3982 H   0  0  0  0  0  0  0  0  0  0  0  0
   10.6258  -12.5693   -1.6849 H   0  0  0  0  0  0  0  0  0  0  0  0
   10.3345  -15.2218   -0.1703 H   0  0  0  0  0  0  0  0  0  0  0  0
   12.3415  -13.0466   -2.5865 H   0  0  0  0  0  0  0  0  0  0  0  0
   14.1095  -13.9376   -4.1011 H   0  0  0  0  0  0  0  0  0  0  0  0
   14.5475  -16.3899   -4.2049 H   0  0  0  0  0  0  0  0  0  0  0  0
   13.2245  -17.9524   -2.7813 H   0  0  0  0  0  0  0  0  0  0  0  0
   11.4557  -17.0647   -1.2651 H   0  0  0  0  0  0  0  0  0  0  0  0
    6.6414  -15.2157    1.4500 H   0  0  0  0  0  0  0  0  0  0  0  0
    7.3114  -13.5133    1.7022 H   0  0  0  0  0  0  0  0  0  0  0  0
    5.0227  -13.6698    2.3511 H   0  0  0  0  0  0  0  0  0  0  0  0
    4.4851  -15.4256    0.3479 H   0  0  0  0  0  0  0  0  0  0  0  0
    3.2423  -14.2310    0.5132 H   0  0  0  0  0  0  0  0  0  0  0  0
    6.1207  -11.1262    2.3255 H   0  0  0  0  0  0  0  0  0  0  0  0
    7.0839  -11.4459    0.8434 H   0  0  0  0  0  0  0  0  0  0  0  0
    5.8386  -10.1513    0.8434 H   0  0  0  0  0  0  0  0  0  0  0  0
    3.6068  -11.5190    2.2608 H   0  0  0  0  0  0  0  0  0  0  0  0
    3.6024  -10.5334    0.7590 H   0  0  0  0  0  0  0  0  0  0  0  0
    2.8701  -12.1737    0.7590 H   0  0  0  0  0  0  0  0  0  0  0  0
    2.7016  -15.4918   -1.4013 H   0  0  0  0  0  0  0  0  0  0  0  0
    2.0281  -14.8538   -2.9395 H   0  0  0  0  0  0  0  0  0  0  0  0
    3.5999  -15.7232   -2.9395 H   0  0  0  0  0  0  0  0  0  0  0  0
    2.9760  -11.9180   -1.9590 H   0  0  0  0  0  0  0  0  0  0  0  0
    3.4872  -13.3285   -4.2710 H   0  0  0  0  0  0  0  0  0  0  0  0
    4.6271  -10.9671   -5.6821 H   0  0  0  0  0  0  0  0  0  0  0  0
    3.0715  -11.8639   -5.6329 H   0  0  0  0  0  0  0  0  0  0  0  0
    3.0715  -10.0703   -5.7313 H   0  0  0  0  0  0  0  0  0  0  0  0
  1  2  1  0
  2  3  2  0
  2  4  1  0
  4  5  1  0
  5  6  1  0
  6  7  1  0
  7  8  1  0
  8  9  2  0
  8 10  1  0
 10 11  2  0
 11 12  1  0
 12 13  2  0
 13 14  1  0
 14 15  2  0
  6 16  1  0
 16 17  1  6
 16 18  1  0
 18 19  1  0
 19 20  1  0
 20 21  2  0
 20 22  1  0
 22 23  2  0
 23 24  1  0
 24 25  2  0
 25 26  1  0
 26 27  2  0
 27 28  1  0
 28 29  2  0
 18 30  1  0
 30 31  1  0
 31 32  1  0
 32 33  1  0
 33 34  1  1
 34 35  1  0
 35 36  1  0
 35 37  1  0
 33 38  1  0
 38 39  1  0
 38 40  1  1
 38 41  1  0
 41 42  1  0
 42 43  1  0
 43 44  1  0
 43 45  2  0
 41  5  1  0
 15 10  1  0
 33 16  1  0
 29 24  1  0
 35 31  1  0
  1 46  1  0
  1 47  1  0
  1 48  1  0
  5 49  1  6
  6 50  1  1
 11 51  1  0
 12 52  1  0
 13 53  1  0
 14 54  1  0
 15 55  1  0
 17 56  1  0
 17 57  1  0
 17 58  1  0
 18 59  1  1
 22 60  1  0
 23 61  1  0
 25 62  1  0
 26 63  1  0
 27 64  1  0
 28 65  1  0
 29 66  1  0
 30 67  1  0
 30 68  1  0
 31 69  1  1
 32 70  1  0
 32 71  1  0
 36 72  1  0
 36 73  1  0
 36 74  1  0
 37 75  1  0
 37 76  1  0
 37 77  1  0
 39 78  1  0
 39 79  1  0
 39 80  1  0
 40 81  1  0
 41 82  1  6
 44 83  1  0
 44 84  1  0
 44 85  1  0
M  END
>  <meeko>  (9) 
{"is_sidechain": [false], "free_energy": -6.555, "intermolecular_energy": -11.079, "internal_energy": -4.802}

$$$$
