LIB_SVAFJSOEFDZBGK__M_PUB_ALL__e8__s20260927
     RDKit          3D

 53 57  0  0  0  0  0  0  0  0999 V2000
    8.2780  -12.1190   -1.1790 O   0  0  0  0  0  0  0  0  0  0  0  0
    8.5670  -12.5390   -0.0680 C   0  0  0  0  0  0  0  0  0  0  0  0
    7.6680  -13.0210    0.8730 N   0  0  0  0  0  0  0  0  0  0  0  0
    6.2730  -13.1820    0.7420 C   0  0  0  0  0  0  0  0  0  0  0  0
    5.3530  -12.1310    0.7470 C   0  0  0  0  0  0  0  0  0  0  0  0
    3.9840  -12.3890    0.6010 C   0  0  0  0  0  0  0  0  0  0  0  0
    3.5280  -13.6990    0.4510 C   0  0  0  0  0  0  0  0  0  0  0  0
    1.9820  -13.9960    0.2840 C   0  0  0  0  0  0  0  0  0  0  0  0
    1.0200  -13.5810    1.2120 N   0  0  0  0  0  0  0  0  0  0  0  0
   -0.2060  -14.0870    0.6300 C   0  0  0  0  0  0  0  0  0  0  0  0
    0.0370  -14.7190   -0.5210 C   0  0  0  0  0  0  0  0  0  0  0  0
   -1.1880  -15.1450   -1.0090 C   0  0  0  0  0  0  0  0  0  0  0  0
   -2.2040  -14.7810   -0.1850 N   0  0  0  0  0  0  0  0  0  0  0  0
   -1.5360  -14.1360    0.8430 N   0  0  0  0  0  0  0  0  0  0  0  0
   -2.2470  -13.5210    1.9400 C   0  0  0  0  0  0  0  0  0  0  0  0
   -2.2040  -12.0140    1.8730 C   0  0  0  0  0  0  0  0  0  0  0  0
   -1.6710  -11.2740    2.9400 C   0  0  0  0  0  0  0  0  0  0  0  0
   -1.6280   -9.8810    2.8850 C   0  0  0  0  0  0  0  0  0  0  0  0
   -2.1200   -9.2120    1.7650 C   0  0  0  0  0  0  0  0  0  0  0  0
   -2.6620   -9.9340    0.7030 C   0  0  0  0  0  0  0  0  0  0  0  0
   -2.7060  -11.3290    0.7570 C   0  0  0  0  0  0  0  0  0  0  0  0
    1.4470  -14.6950   -0.8010 N   0  0  0  0  0  0  0  0  0  0  0  0
    4.4390  -14.7550    0.4440 C   0  0  0  0  0  0  0  0  0  0  0  0
    5.8030  -14.4970    0.5890 C   0  0  0  0  0  0  0  0  0  0  0  0
    9.8640  -12.6020    0.4340 N   0  0  0  0  0  0  0  0  0  0  0  0
   11.0530  -12.1600   -0.1820 C   0  0  0  0  0  0  0  0  0  0  0  0
   11.7960  -11.1890    0.4990 C   0  0  0  0  0  0  0  0  0  0  0  0
   12.9850  -10.7020   -0.0430 C   0  0  0  0  0  0  0  0  0  0  0  0
   13.8900   -9.5140    0.8120 Cl  0  0  0  0  0  0  0  0  0  0  0  0
   13.4480  -11.1680   -1.2710 C   0  0  0  0  0  0  0  0  0  0  0  0
   12.7120  -12.1300   -1.9750 C   0  0  0  0  0  0  0  0  0  0  0  0
   13.2040  -12.6610   -3.2980 C   0  0  0  0  0  0  0  0  0  0  0  0
   12.2610  -12.5880   -4.2820 F   0  0  0  0  0  0  0  0  0  0  0  0
   14.2790  -11.9690   -3.7690 F   0  0  0  0  0  0  0  0  0  0  0  0
   13.5820  -13.9660   -3.2490 F   0  0  0  0  0  0  0  0  0  0  0  0
   11.5180  -12.6220   -1.4160 C   0  0  0  0  0  0  0  0  0  0  0  0
    8.0370  -13.2620    1.7780 H   0  0  0  0  0  0  0  0  0  0  0  0
    5.7052  -11.0958    0.8662 H   0  0  0  0  0  0  0  0  0  0  0  0
    3.2659  -11.5558    0.6046 H   0  0  0  0  0  0  0  0  0  0  0  0
   -1.3206  -15.7069   -1.9453 H   0  0  0  0  0  0  0  0  0  0  0  0
   -3.2970  -13.8473    1.9090 H   0  0  0  0  0  0  0  0  0  0  0  0
   -1.7590  -13.8317    2.8756 H   0  0  0  0  0  0  0  0  0  0  0  0
   -1.2840  -11.7970    3.8269 H   0  0  0  0  0  0  0  0  0  0  0  0
   -1.2059   -9.3102    3.7252 H   0  0  0  0  0  0  0  0  0  0  0  0
   -2.0804   -8.1137    1.7195 H   0  0  0  0  0  0  0  0  0  0  0  0
   -3.0551   -9.4051   -0.1777 H   0  0  0  0  0  0  0  0  0  0  0  0
   -3.1376  -11.8945   -0.0820 H   0  0  0  0  0  0  0  0  0  0  0  0
    4.0833  -15.7890    0.3245 H   0  0  0  0  0  0  0  0  0  0  0  0
    6.5181  -15.3328    0.5834 H   0  0  0  0  0  0  0  0  0  0  0  0
    9.9660  -13.0540    1.3280 H   0  0  0  0  0  0  0  0  0  0  0  0
   11.4400  -10.8077    1.4675 H   0  0  0  0  0  0  0  0  0  0  0  0
   14.3899  -10.7814   -1.6874 H   0  0  0  0  0  0  0  0  0  0  0  0
   10.9405  -13.3838   -1.9601 H   0  0  0  0  0  0  0  0  0  0  0  0
  1  2  2  0
  2  3  1  0
  3  4  1  0
  4  5  2  0
  5  6  1  0
  6  7  2  0
  7  8  1  0
  8  9  2  0
  9 10  1  0
 10 11  2  0
 11 12  1  0
 12 13  2  0
 13 14  1  0
 14 15  1  0
 15 16  1  0
 16 17  2  0
 17 18  1  0
 18 19  2  0
 19 20  1  0
 20 21  2  0
 11 22  1  0
  7 23  1  0
 23 24  2  0
  2 25  1  0
 25 26  1  0
 26 27  2  0
 27 28  1  0
 28 29  1  0
 28 30  2  0
 30 31  1  0
 31 32  1  0
 32 33  1  0
 32 34  1  0
 32 35  1  0
 31 36  2  0
 24  4  1  0
 36 26  1  0
 22  8  1  0
 14 10  1  0
 21 16  1  0
  3 37  1  0
  5 38  1  0
  6 39  1  0
 12 40  1  0
 15 41  1  0
 15 42  1  0
 17 43  1  0
 18 44  1  0
 19 45  1  0
 20 46  1  0
 21 47  1  0
 23 48  1  0
 24 49  1  0
 25 50  1  0
 27 51  1  0
 30 52  1  0
 36 53  1  0
M  CHG  1  22  -1
M  END
>  <meeko>  (1) 
{"is_sidechain": [false], "free_energy": -9.647, "intermolecular_energy": -13.03, "internal_energy": -0.898}

$$$$
LIB_SVAFJSOEFDZBGK__M_PUB_ALL__e8__s20260927
     RDKit          3D

 53 57  0  0  0  0  0  0  0  0999 V2000
    4.0150  -13.5250   -5.7100 O   0  0  0  0  0  0  0  0  0  0  0  0
    4.8830  -12.6810   -5.5390 C   0  0  0  0  0  0  0  0  0  0  0  0
    4.8510  -11.6680   -4.5920 N   0  0  0  0  0  0  0  0  0  0  0  0
    3.8700  -11.4290   -3.6060 C   0  0  0  0  0  0  0  0  0  0  0  0
    2.8380  -10.4950   -3.7310 C   0  0  0  0  0  0  0  0  0  0  0  0
    1.9030  -10.3330   -2.7000 C   0  0  0  0  0  0  0  0  0  0  0  0
    1.9960  -11.1030   -1.5400 C   0  0  0  0  0  0  0  0  0  0  0  0
    0.9410  -10.9250   -0.3740 C   0  0  0  0  0  0  0  0  0  0  0  0
    0.2130  -11.9920    0.1670 N   0  0  0  0  0  0  0  0  0  0  0  0
   -0.5990  -11.3320    1.1680 C   0  0  0  0  0  0  0  0  0  0  0  0
   -0.3490  -10.0200    1.1980 C   0  0  0  0  0  0  0  0  0  0  0  0
   -1.1520   -9.4840    2.1930 C   0  0  0  0  0  0  0  0  0  0  0  0
   -1.8980  -10.4430    2.8000 N   0  0  0  0  0  0  0  0  0  0  0  0
   -1.5320  -11.5850    2.1070 N   0  0  0  0  0  0  0  0  0  0  0  0
   -2.0530  -12.8850    2.4640 C   0  0  0  0  0  0  0  0  0  0  0  0
   -3.5540  -12.9570    2.3190 C   0  0  0  0  0  0  0  0  0  0  0  0
   -4.1660  -12.5810    1.1130 C   0  0  0  0  0  0  0  0  0  0  0  0
   -5.5520  -12.6450    0.9730 C   0  0  0  0  0  0  0  0  0  0  0  0
   -6.3420  -13.0820    2.0350 C   0  0  0  0  0  0  0  0  0  0  0  0
   -5.7470  -13.4480    3.2410 C   0  0  0  0  0  0  0  0  0  0  0  0
   -4.3590  -13.3840    3.3850 C   0  0  0  0  0  0  0  0  0  0  0  0
    0.6460   -9.6920    0.2140 N   0  0  0  0  0  0  0  0  0  0  0  0
    3.0220  -12.0380   -1.4070 C   0  0  0  0  0  0  0  0  0  0  0  0
    3.9530  -12.1990   -2.4350 C   0  0  0  0  0  0  0  0  0  0  0  0
    6.0580  -12.6040   -6.2810 N   0  0  0  0  0  0  0  0  0  0  0  0
    6.4480  -13.4080   -7.3730 C   0  0  0  0  0  0  0  0  0  0  0  0
    6.8410  -14.7200   -7.0870 C   0  0  0  0  0  0  0  0  0  0  0  0
    7.2380  -15.5770   -8.1120 C   0  0  0  0  0  0  0  0  0  0  0  0
    7.7100  -17.1900   -7.7410 Cl  0  0  0  0  0  0  0  0  0  0  0  0
    7.2550  -15.1420   -9.4340 C   0  0  0  0  0  0  0  0  0  0  0  0
    6.8780  -13.8280   -9.7410 C   0  0  0  0  0  0  0  0  0  0  0  0
    6.8720  -13.3410  -11.1690 C   0  0  0  0  0  0  0  0  0  0  0  0
    8.0200  -13.6530  -11.8390 F   0  0  0  0  0  0  0  0  0  0  0  0
    5.8610  -13.8850  -11.9000 F   0  0  0  0  0  0  0  0  0  0  0  0
    6.7400  -11.9920  -11.2790 F   0  0  0  0  0  0  0  0  0  0  0  0
    6.4700  -12.9710   -8.7010 C   0  0  0  0  0  0  0  0  0  0  0  0
    5.5980  -10.9950   -4.6140 H   0  0  0  0  0  0  0  0  0  0  0  0
    2.7594   -9.8844   -4.6426 H   0  0  0  0  0  0  0  0  0  0  0  0
    1.0929   -9.5963   -2.8054 H   0  0  0  0  0  0  0  0  0  0  0  0
   -1.1812   -8.4167    2.4575 H   0  0  0  0  0  0  0  0  0  0  0  0
   -1.5970  -13.6416    1.8085 H   0  0  0  0  0  0  0  0  0  0  0  0
   -1.8064  -13.0694    3.5200 H   0  0  0  0  0  0  0  0  0  0  0  0
   -3.5478  -12.2333    0.2722 H   0  0  0  0  0  0  0  0  0  0  0  0
   -6.0224  -12.3503    0.0233 H   0  0  0  0  0  0  0  0  0  0  0  0
   -7.4347  -13.1380    1.9213 H   0  0  0  0  0  0  0  0  0  0  0  0
   -6.3712  -13.7877    4.0806 H   0  0  0  0  0  0  0  0  0  0  0  0
   -3.8947  -13.6702    4.3402 H   0  0  0  0  0  0  0  0  0  0  0  0
    3.0977  -12.6473   -0.4943 H   0  0  0  0  0  0  0  0  0  0  0  0
    4.7608  -12.9376   -2.3261 H   0  0  0  0  0  0  0  0  0  0  0  0
    6.7250  -11.9150   -5.9740 H   0  0  0  0  0  0  0  0  0  0  0  0
    6.8366  -15.0774   -6.0467 H   0  0  0  0  0  0  0  0  0  0  0  0
    7.5638  -15.8285  -10.2361 H   0  0  0  0  0  0  0  0  0  0  0  0
    6.1637  -11.9412   -8.9370 H   0  0  0  0  0  0  0  0  0  0  0  0
  1  2  2  0
  2  3  1  0
  3  4  1  0
  4  5  2  0
  5  6  1  0
  6  7  2  0
  7  8  1  0
  8  9  2  0
  9 10  1  0
 10 11  2  0
 11 12  1  0
 12 13  2  0
 13 14  1  0
 14 15  1  0
 15 16  1  0
 16 17  2  0
 17 18  1  0
 18 19  2  0
 19 20  1  0
 20 21  2  0
 11 22  1  0
  7 23  1  0
 23 24  2  0
  2 25  1  0
 25 26  1  0
 26 27  2  0
 27 28  1  0
 28 29  1  0
 28 30  2  0
 30 31  1  0
 31 32  1  0
 32 33  1  0
 32 34  1  0
 32 35  1  0
 31 36  2  0
 24  4  1  0
 36 26  1  0
 22  8  1  0
 14 10  1  0
 21 16  1  0
  3 37  1  0
  5 38  1  0
  6 39  1  0
 12 40  1  0
 15 41  1  0
 15 42  1  0
 17 43  1  0
 18 44  1  0
 19 45  1  0
 20 46  1  0
 21 47  1  0
 23 48  1  0
 24 49  1  0
 25 50  1  0
 27 51  1  0
 30 52  1  0
 36 53  1  0
M  CHG  1  22  -1
M  END
>  <meeko>  (2) 
{"is_sidechain": [false], "free_energy": -9.378, "intermolecular_energy": -12.744, "internal_energy": -0.821}

$$$$
LIB_SVAFJSOEFDZBGK__M_PUB_ALL__e8__s20260927
     RDKit          3D

 53 57  0  0  0  0  0  0  0  0999 V2000
    4.1630  -13.6420   -5.8860 O   0  0  0  0  0  0  0  0  0  0  0  0
    5.0440  -12.8200   -5.6790 C   0  0  0  0  0  0  0  0  0  0  0  0
    5.0190  -11.8380   -4.6990 N   0  0  0  0  0  0  0  0  0  0  0  0
    4.0320  -11.6120   -3.7170 C   0  0  0  0  0  0  0  0  0  0  0  0
    2.9890  -10.6900   -3.8430 C   0  0  0  0  0  0  0  0  0  0  0  0
    2.0490  -10.5430   -2.8150 C   0  0  0  0  0  0  0  0  0  0  0  0
    2.1470  -11.3140   -1.6570 C   0  0  0  0  0  0  0  0  0  0  0  0
    1.0840  -11.1520   -0.4940 C   0  0  0  0  0  0  0  0  0  0  0  0
    0.4320  -12.2380    0.1020 N   0  0  0  0  0  0  0  0  0  0  0  0
   -0.4200  -11.5870    1.0750 C   0  0  0  0  0  0  0  0  0  0  0  0
   -0.2600  -10.2620    1.0400 C   0  0  0  0  0  0  0  0  0  0  0  0
   -1.0940   -9.7330    2.0130 C   0  0  0  0  0  0  0  0  0  0  0  0
   -1.7720  -10.7100    2.6690 N   0  0  0  0  0  0  0  0  0  0  0  0
   -1.3320  -11.8570    2.0300 N   0  0  0  0  0  0  0  0  0  0  0  0
   -1.7620  -13.1710    2.4520 C   0  0  0  0  0  0  0  0  0  0  0  0
   -0.6460  -13.9560    3.0960 C   0  0  0  0  0  0  0  0  0  0  0  0
   -0.0250  -15.0040    2.3980 C   0  0  0  0  0  0  0  0  0  0  0  0
    1.0070  -15.7340    2.9880 C   0  0  0  0  0  0  0  0  0  0  0  0
    1.4280  -15.4280    4.2810 C   0  0  0  0  0  0  0  0  0  0  0  0
    0.8130  -14.3960    4.9880 C   0  0  0  0  0  0  0  0  0  0  0  0
   -0.2220  -13.6650    4.4010 C   0  0  0  0  0  0  0  0  0  0  0  0
    0.7090   -9.9150    0.0360 N   0  0  0  0  0  0  0  0  0  0  0  0
    3.1830  -12.2370   -1.5220 C   0  0  0  0  0  0  0  0  0  0  0  0
    4.1190  -12.3850   -2.5470 C   0  0  0  0  0  0  0  0  0  0  0  0
    6.2280  -12.7400   -6.4050 N   0  0  0  0  0  0  0  0  0  0  0  0
    6.6150  -13.5150   -7.5180 C   0  0  0  0  0  0  0  0  0  0  0  0
    6.9880  -14.8410   -7.2700 C   0  0  0  0  0  0  0  0  0  0  0  0
    7.3820  -15.6710   -8.3180 C   0  0  0  0  0  0  0  0  0  0  0  0
    7.8290  -17.3020   -7.9940 Cl  0  0  0  0  0  0  0  0  0  0  0  0
    7.4160  -15.1950   -9.6260 C   0  0  0  0  0  0  0  0  0  0  0  0
    7.0590  -13.8670   -9.8950 C   0  0  0  0  0  0  0  0  0  0  0  0
    7.0720  -13.3360  -11.3070 C   0  0  0  0  0  0  0  0  0  0  0  0
    6.6730  -12.0340  -11.3870 F   0  0  0  0  0  0  0  0  0  0  0  0
    8.3130  -13.3750  -11.8650 F   0  0  0  0  0  0  0  0  0  0  0  0
    6.2530  -14.0220  -12.1490 F   0  0  0  0  0  0  0  0  0  0  0  0
    6.6550  -13.0380   -8.8320 C   0  0  0  0  0  0  0  0  0  0  0  0
    5.7790  -11.1780   -4.6910 H   0  0  0  0  0  0  0  0  0  0  0  0
    2.9061  -10.0775   -4.7529 H   0  0  0  0  0  0  0  0  0  0  0  0
    1.2301   -9.8164   -2.9215 H   0  0  0  0  0  0  0  0  0  0  0  0
   -1.1939   -8.6586    2.2265 H   0  0  0  0  0  0  0  0  0  0  0  0
   -2.5813  -13.0597    3.1775 H   0  0  0  0  0  0  0  0  0  0  0  0
   -2.0907  -13.7220    1.5585 H   0  0  0  0  0  0  0  0  0  0  0  0
   -0.3547  -15.2513    1.3781 H   0  0  0  0  0  0  0  0  0  0  0  0
    1.4890  -16.5519    2.4323 H   0  0  0  0  0  0  0  0  0  0  0  0
    2.2454  -16.0008    4.7434 H   0  0  0  0  0  0  0  0  0  0  0  0
    1.1434  -14.1571    6.0097 H   0  0  0  0  0  0  0  0  0  0  0  0
   -0.7079  -12.8557    4.9657 H   0  0  0  0  0  0  0  0  0  0  0  0
    3.2627  -12.8471   -0.6102 H   0  0  0  0  0  0  0  0  0  0  0  0
    4.9342  -13.1154   -2.4374 H   0  0  0  0  0  0  0  0  0  0  0  0
    6.9040  -12.0740   -6.0690 H   0  0  0  0  0  0  0  0  0  0  0  0
    6.9701  -15.2305   -6.2414 H   0  0  0  0  0  0  0  0  0  0  0  0
    7.7225  -15.8602  -10.4467 H   0  0  0  0  0  0  0  0  0  0  0  0
    6.3657  -11.9969   -9.0382 H   0  0  0  0  0  0  0  0  0  0  0  0
  1  2  2  0
  2  3  1  0
  3  4  1  0
  4  5  2  0
  5  6  1  0
  6  7  2  0
  7  8  1  0
  8  9  2  0
  9 10  1  0
 10 11  2  0
 11 12  1  0
 12 13  2  0
 13 14  1  0
 14 15  1  0
 15 16  1  0
 16 17  2  0
 17 18  1  0
 18 19  2  0
 19 20  1  0
 20 21  2  0
 11 22  1  0
  7 23  1  0
 23 24  2  0
  2 25  1  0
 25 26  1  0
 26 27  2  0
 27 28  1  0
 28 29  1  0
 28 30  2  0
 30 31  1  0
 31 32  1  0
 32 33  1  0
 32 34  1  0
 32 35  1  0
 31 36  2  0
 24  4  1  0
 36 26  1  0
 22  8  1  0
 14 10  1  0
 21 16  1  0
  3 37  1  0
  5 38  1  0
  6 39  1  0
 12 40  1  0
 15 41  1  0
 15 42  1  0
 17 43  1  0
 18 44  1  0
 19 45  1  0
 20 46  1  0
 21 47  1  0
 23 48  1  0
 24 49  1  0
 25 50  1  0
 27 51  1  0
 30 52  1  0
 36 53  1  0
M  CHG  1  22  -1
M  END
>  <meeko>  (3) 
{"is_sidechain": [false], "free_energy": -9.255, "intermolecular_energy": -12.454, "internal_energy": -0.946}

$$$$
LIB_SVAFJSOEFDZBGK__M_PUB_ALL__e8__s20260927
     RDKit          3D

 53 57  0  0  0  0  0  0  0  0999 V2000
    4.5440  -14.4860   -5.4710 O   0  0  0  0  0  0  0  0  0  0  0  0
    5.2160  -13.4750   -5.3320 C   0  0  0  0  0  0  0  0  0  0  0  0
    5.0720  -12.5420   -4.3150 N   0  0  0  0  0  0  0  0  0  0  0  0
    4.1860  -12.5800   -3.2180 C   0  0  0  0  0  0  0  0  0  0  0  0
    2.9330  -11.9620   -3.1940 C   0  0  0  0  0  0  0  0  0  0  0  0
    2.1170  -12.0620   -2.0590 C   0  0  0  0  0  0  0  0  0  0  0  0
    2.5500  -12.7790   -0.9440 C   0  0  0  0  0  0  0  0  0  0  0  0
    1.6310  -12.8970    0.3400 C   0  0  0  0  0  0  0  0  0  0  0  0
    0.6320  -11.9670    0.6520 N   0  0  0  0  0  0  0  0  0  0  0  0
    0.0960  -12.4980    1.8890 C   0  0  0  0  0  0  0  0  0  0  0  0
    0.7230  -13.6230    2.2380 C   0  0  0  0  0  0  0  0  0  0  0  0
    0.1310  -14.0630    3.4110 C   0  0  0  0  0  0  0  0  0  0  0  0
   -0.8710  -13.2330    3.8030 N   0  0  0  0  0  0  0  0  0  0  0  0
   -0.8410  -12.2520    2.8250 N   0  0  0  0  0  0  0  0  0  0  0  0
   -1.7970  -11.1680    2.8120 C   0  0  0  0  0  0  0  0  0  0  0  0
   -2.7270  -11.2430    1.6250 C   0  0  0  0  0  0  0  0  0  0  0  0
   -2.6830  -10.2530    0.6310 C   0  0  0  0  0  0  0  0  0  0  0  0
   -3.5390  -10.3160   -0.4690 C   0  0  0  0  0  0  0  0  0  0  0  0
   -4.4490  -11.3650   -0.5860 C   0  0  0  0  0  0  0  0  0  0  0  0
   -4.5090  -12.3490    0.4000 C   0  0  0  0  0  0  0  0  0  0  0  0
   -3.6540  -12.2880    1.5030 C   0  0  0  0  0  0  0  0  0  0  0  0
    1.7370  -13.9370    1.2670 N   0  0  0  0  0  0  0  0  0  0  0  0
    3.7990  -13.4000   -0.9580 C   0  0  0  0  0  0  0  0  0  0  0  0
    4.6110  -13.3000   -2.0900 C   0  0  0  0  0  0  0  0  0  0  0  0
    6.2490  -13.0960   -6.1850 N   0  0  0  0  0  0  0  0  0  0  0  0
    6.6750  -13.7370   -7.3660 C   0  0  0  0  0  0  0  0  0  0  0  0
    7.3110  -14.9750   -7.2230 C   0  0  0  0  0  0  0  0  0  0  0  0
    7.7600  -15.6720   -8.3430 C   0  0  0  0  0  0  0  0  0  0  0  0
    8.5330  -17.1980   -8.1470 Cl  0  0  0  0  0  0  0  0  0  0  0  0
    7.5890  -15.1470   -9.6220 C   0  0  0  0  0  0  0  0  0  0  0  0
    6.9670  -13.9020   -9.7870 C   0  0  0  0  0  0  0  0  0  0  0  0
    6.7560  -13.3230  -11.1630 C   0  0  0  0  0  0  0  0  0  0  0  0
    5.5890  -13.7360  -11.7380 F   0  0  0  0  0  0  0  0  0  0  0  0
    6.6970  -11.9630  -11.1520 F   0  0  0  0  0  0  0  0  0  0  0  0
    7.7360  -13.6560  -12.0450 F   0  0  0  0  0  0  0  0  0  0  0  0
    6.5090  -13.2090   -8.6500 C   0  0  0  0  0  0  0  0  0  0  0  0
    5.6430  -11.7150   -4.3670 H   0  0  0  0  0  0  0  0  0  0  0  0
    2.5855  -11.3945   -4.0699 H   0  0  0  0  0  0  0  0  0  0  0  0
    1.1316  -11.5733   -2.0476 H   0  0  0  0  0  0  0  0  0  0  0  0
    0.4338  -14.9693    3.9558 H   0  0  0  0  0  0  0  0  0  0  0  0
   -2.3951  -11.2119    3.7341 H   0  0  0  0  0  0  0  0  0  0  0  0
   -1.2367  -10.2239    2.7433 H   0  0  0  0  0  0  0  0  0  0  0  0
   -1.9685   -9.4214    0.7199 H   0  0  0  0  0  0  0  0  0  0  0  0
   -3.4956   -9.5371   -1.2445 H   0  0  0  0  0  0  0  0  0  0  0  0
   -5.1199  -11.4167   -1.4562 H   0  0  0  0  0  0  0  0  0  0  0  0
   -5.2305  -13.1744    0.3092 H   0  0  0  0  0  0  0  0  0  0  0  0
   -3.7082  -13.0643    2.2804 H   0  0  0  0  0  0  0  0  0  0  0  0
    4.1433  -13.9667   -0.0803 H   0  0  0  0  0  0  0  0  0  0  0  0
    5.5952  -13.7912   -2.0979 H   0  0  0  0  0  0  0  0  0  0  0  0
    6.7770  -12.2870   -5.9000 H   0  0  0  0  0  0  0  0  0  0  0  0
    7.4576  -15.4011   -6.2195 H   0  0  0  0  0  0  0  0  0  0  0  0
    7.9412  -15.7082  -10.5001 H   0  0  0  0  0  0  0  0  0  0  0  0
    6.0121  -12.2355   -8.7741 H   0  0  0  0  0  0  0  0  0  0  0  0
  1  2  2  0
  2  3  1  0
  3  4  1  0
  4  5  2  0
  5  6  1  0
  6  7  2  0
  7  8  1  0
  8  9  2  0
  9 10  1  0
 10 11  2  0
 11 12  1  0
 12 13  2  0
 13 14  1  0
 14 15  1  0
 15 16  1  0
 16 17  2  0
 17 18  1  0
 18 19  2  0
 19 20  1  0
 20 21  2  0
 11 22  1  0
  7 23  1  0
 23 24  2  0
  2 25  1  0
 25 26  1  0
 26 27  2  0
 27 28  1  0
 28 29  1  0
 28 30  2  0
 30 31  1  0
 31 32  1  0
 32 33  1  0
 32 34  1  0
 32 35  1  0
 31 36  2  0
 24  4  1  0
 36 26  1  0
 22  8  1  0
 14 10  1  0
 21 16  1  0
  3 37  1  0
  5 38  1  0
  6 39  1  0
 12 40  1  0
 15 41  1  0
 15 42  1  0
 17 43  1  0
 18 44  1  0
 19 45  1  0
 20 46  1  0
 21 47  1  0
 23 48  1  0
 24 49  1  0
 25 50  1  0
 27 51  1  0
 30 52  1  0
 36 53  1  0
M  CHG  1  22  -1
M  END
>  <meeko>  (4) 
{"is_sidechain": [false], "free_energy": -9.121, "intermolecular_energy": -12.275, "internal_energy": -0.943}

$$$$
LIB_SVAFJSOEFDZBGK__M_PUB_ALL__e8__s20260927
     RDKit          3D

 53 57  0  0  0  0  0  0  0  0999 V2000
    2.3620  -12.5830   -0.3360 O   0  0  0  0  0  0  0  0  0  0  0  0
    2.3880  -12.9770    0.8220 C   0  0  0  0  0  0  0  0  0  0  0  0
    3.5300  -13.1620    1.5880 N   0  0  0  0  0  0  0  0  0  0  0  0
    4.8680  -12.8900    1.2350 C   0  0  0  0  0  0  0  0  0  0  0  0
    5.4780  -11.6380    1.3580 C   0  0  0  0  0  0  0  0  0  0  0  0
    6.8180  -11.4660    0.9890 C   0  0  0  0  0  0  0  0  0  0  0  0
    7.5550  -12.5430    0.4950 C   0  0  0  0  0  0  0  0  0  0  0  0
    9.0710  -12.3530    0.0790 C   0  0  0  0  0  0  0  0  0  0  0  0
    9.5300  -12.5220   -1.2320 N   0  0  0  0  0  0  0  0  0  0  0  0
   10.9470  -12.2540   -1.0980 C   0  0  0  0  0  0  0  0  0  0  0  0
   11.2590  -11.9520    0.1650 C   0  0  0  0  0  0  0  0  0  0  0  0
   12.6200  -11.6930    0.1890 C   0  0  0  0  0  0  0  0  0  0  0  0
   13.1710  -11.8160   -1.0460 N   0  0  0  0  0  0  0  0  0  0  0  0
   12.0840  -12.1910   -1.8190 N   0  0  0  0  0  0  0  0  0  0  0  0
   12.2000  -12.3810   -3.2470 C   0  0  0  0  0  0  0  0  0  0  0  0
   12.7370  -13.7480   -3.5970 C   0  0  0  0  0  0  0  0  0  0  0  0
   12.6580  -14.7970   -2.6690 C   0  0  0  0  0  0  0  0  0  0  0  0
   13.1520  -16.0630   -2.9860 C   0  0  0  0  0  0  0  0  0  0  0  0
   13.7320  -16.2930   -4.2320 C   0  0  0  0  0  0  0  0  0  0  0  0
   13.8260  -15.2560   -5.1600 C   0  0  0  0  0  0  0  0  0  0  0  0
   13.3330  -13.9880   -4.8440 C   0  0  0  0  0  0  0  0  0  0  0  0
   10.0770  -12.0010    0.9830 N   0  0  0  0  0  0  0  0  0  0  0  0
    6.9560  -13.7950    0.3690 C   0  0  0  0  0  0  0  0  0  0  0  0
    5.6200  -13.9670    0.7380 C   0  0  0  0  0  0  0  0  0  0  0  0
    1.2570  -13.3070    1.5630 N   0  0  0  0  0  0  0  0  0  0  0  0
   -0.0870  -13.3120    1.1370 C   0  0  0  0  0  0  0  0  0  0  0  0
   -0.6590  -14.5580    0.8550 C   0  0  0  0  0  0  0  0  0  0  0  0
   -1.9840  -14.6470    0.4300 C   0  0  0  0  0  0  0  0  0  0  0  0
   -2.6710  -16.1900    0.0960 Cl  0  0  0  0  0  0  0  0  0  0  0  0
   -2.7570  -13.5000    0.2730 C   0  0  0  0  0  0  0  0  0  0  0  0
   -2.2000  -12.2420    0.5370 C   0  0  0  0  0  0  0  0  0  0  0  0
   -3.0260  -10.9880    0.3900 C   0  0  0  0  0  0  0  0  0  0  0  0
   -3.0240  -10.2180    1.5170 F   0  0  0  0  0  0  0  0  0  0  0  0
   -2.5710  -10.1800   -0.6070 F   0  0  0  0  0  0  0  0  0  0  0  0
   -4.3350  -11.2330    0.1160 F   0  0  0  0  0  0  0  0  0  0  0  0
   -0.8640  -12.1620    0.9740 C   0  0  0  0  0  0  0  0  0  0  0  0
    3.4090  -13.5660    2.5010 H   0  0  0  0  0  0  0  0  0  0  0  0
    4.9030  -10.7844    1.7463 H   0  0  0  0  0  0  0  0  0  0  0  0
    7.2913  -10.4781    1.0890 H   0  0  0  0  0  0  0  0  0  0  0  0
   13.1831  -11.4220    1.0943 H   0  0  0  0  0  0  0  0  0  0  0  0
   11.2056  -12.2635   -3.7023 H   0  0  0  0  0  0  0  0  0  0  0  0
   12.9067  -11.6310   -3.6319 H   0  0  0  0  0  0  0  0  0  0  0  0
   12.2029  -14.6202   -1.6833 H   0  0  0  0  0  0  0  0  0  0  0  0
   13.0836  -16.8796   -2.2522 H   0  0  0  0  0  0  0  0  0  0  0  0
   14.1158  -17.2927   -4.4838 H   0  0  0  0  0  0  0  0  0  0  0  0
   14.2887  -15.4369   -6.1414 H   0  0  0  0  0  0  0  0  0  0  0  0
   13.4126  -13.1723   -5.5777 H   0  0  0  0  0  0  0  0  0  0  0  0
    7.5342  -14.6460   -0.0203 H   0  0  0  0  0  0  0  0  0  0  0  0
    5.1515  -14.9572    0.6382 H   0  0  0  0  0  0  0  0  0  0  0  0
    1.4190  -13.5300    2.5320 H   0  0  0  0  0  0  0  0  0  0  0  0
   -0.0593  -15.4730    0.9694 H   0  0  0  0  0  0  0  0  0  0  0  0
   -3.8030  -13.5813   -0.0577 H   0  0  0  0  0  0  0  0  0  0  0  0
   -0.4243  -11.1773    1.1908 H   0  0  0  0  0  0  0  0  0  0  0  0
  1  2  2  0
  2  3  1  0
  3  4  1  0
  4  5  2  0
  5  6  1  0
  6  7  2  0
  7  8  1  0
  8  9  2  0
  9 10  1  0
 10 11  2  0
 11 12  1  0
 12 13  2  0
 13 14  1  0
 14 15  1  0
 15 16  1  0
 16 17  2  0
 17 18  1  0
 18 19  2  0
 19 20  1  0
 20 21  2  0
 11 22  1  0
  7 23  1  0
 23 24  2  0
  2 25  1  0
 25 26  1  0
 26 27  2  0
 27 28  1  0
 28 29  1  0
 28 30  2  0
 30 31  1  0
 31 32  1  0
 32 33  1  0
 32 34  1  0
 32 35  1  0
 31 36  2  0
 24  4  1  0
 36 26  1  0
 22  8  1  0
 14 10  1  0
 21 16  1  0
  3 37  1  0
  5 38  1  0
  6 39  1  0
 12 40  1  0
 15 41  1  0
 15 42  1  0
 17 43  1  0
 18 44  1  0
 19 45  1  0
 20 46  1  0
 21 47  1  0
 23 48  1  0
 24 49  1  0
 25 50  1  0
 27 51  1  0
 30 52  1  0
 36 53  1  0
M  CHG  1  22  -1
M  END
>  <meeko>  (5) 
{"is_sidechain": [false], "free_energy": -8.786, "intermolecular_energy": -12.011, "internal_energy": -0.754}

$$$$
LIB_SVAFJSOEFDZBGK__M_PUB_ALL__e8__s20260927
     RDKit          3D

 53 57  0  0  0  0  0  0  0  0999 V2000
   -7.8180  -16.4970    4.7530 O   0  0  0  0  0  0  0  0  0  0  0  0
   -7.1990  -17.0910    5.6250 C   0  0  0  0  0  0  0  0  0  0  0  0
   -5.8360  -17.3470    5.6170 N   0  0  0  0  0  0  0  0  0  0  0  0
   -4.8790  -16.9420    4.6620 C   0  0  0  0  0  0  0  0  0  0  0  0
   -4.0940  -17.8200    3.9100 C   0  0  0  0  0  0  0  0  0  0  0  0
   -3.1750  -17.3240    2.9770 C   0  0  0  0  0  0  0  0  0  0  0  0
   -3.0360  -15.9480    2.7910 C   0  0  0  0  0  0  0  0  0  0  0  0
   -2.0010  -15.3830    1.7350 C   0  0  0  0  0  0  0  0  0  0  0  0
   -1.4370  -14.1040    1.8270 N   0  0  0  0  0  0  0  0  0  0  0  0
   -0.5870  -14.0600    0.6560 C   0  0  0  0  0  0  0  0  0  0  0  0
   -0.6540  -15.2050   -0.0280 C   0  0  0  0  0  0  0  0  0  0  0  0
    0.2030  -15.0750   -1.1090 C   0  0  0  0  0  0  0  0  0  0  0  0
    0.8200  -13.8650   -1.1110 N   0  0  0  0  0  0  0  0  0  0  0  0
    0.2760  -13.2530    0.0060 N   0  0  0  0  0  0  0  0  0  0  0  0
    0.6980  -11.9370    0.4300 C   0  0  0  0  0  0  0  0  0  0  0  0
   -0.4720  -11.0260    0.7090 C   0  0  0  0  0  0  0  0  0  0  0  0
   -0.3970  -10.0750    1.7380 C   0  0  0  0  0  0  0  0  0  0  0  0
   -1.4750   -9.2290    2.0010 C   0  0  0  0  0  0  0  0  0  0  0  0
   -2.6400   -9.3270    1.2420 C   0  0  0  0  0  0  0  0  0  0  0  0
   -2.7300  -10.2740    0.2230 C   0  0  0  0  0  0  0  0  0  0  0  0
   -1.6530  -11.1220   -0.0420 C   0  0  0  0  0  0  0  0  0  0  0  0
   -1.5610  -16.1090    0.6250 N   0  0  0  0  0  0  0  0  0  0  0  0
   -3.8160  -15.0640    3.5350 C   0  0  0  0  0  0  0  0  0  0  0  0
   -4.7320  -15.5600    4.4650 C   0  0  0  0  0  0  0  0  0  0  0  0
   -7.7760  -17.6110    6.7800 N   0  0  0  0  0  0  0  0  0  0  0  0
   -9.1390  -17.6140    7.1420 C   0  0  0  0  0  0  0  0  0  0  0  0
   -9.7960  -18.8500    7.1290 C   0  0  0  0  0  0  0  0  0  0  0  0
  -11.1440  -18.9360    7.4770 C   0  0  0  0  0  0  0  0  0  0  0  0
  -11.9320  -20.4660    7.4630 Cl  0  0  0  0  0  0  0  0  0  0  0  0
  -11.8580  -17.7960    7.8350 C   0  0  0  0  0  0  0  0  0  0  0  0
  -11.2230  -16.5470    7.8410 C   0  0  0  0  0  0  0  0  0  0  0  0
  -11.9740  -15.3020    8.2430 C   0  0  0  0  0  0  0  0  0  0  0  0
  -11.2990  -14.5500    9.1600 F   0  0  0  0  0  0  0  0  0  0  0  0
  -12.2080  -14.4730    7.1890 F   0  0  0  0  0  0  0  0  0  0  0  0
  -13.1860  -15.5610    8.8030 F   0  0  0  0  0  0  0  0  0  0  0  0
   -9.8600  -16.4710    7.4980 C   0  0  0  0  0  0  0  0  0  0  0  0
   -5.4710  -17.9150    6.3630 H   0  0  0  0  0  0  0  0  0  0  0  0
   -4.1984  -18.9058    4.0516 H   0  0  0  0  0  0  0  0  0  0  0  0
   -2.5606  -18.0214    2.3887 H   0  0  0  0  0  0  0  0  0  0  0  0
    0.3634  -15.8534   -1.8695 H   0  0  0  0  0  0  0  0  0  0  0  0
    1.2970  -12.0354    1.3473 H   0  0  0  0  0  0  0  0  0  0  0  0
    1.2860  -11.4915   -0.3860 H   0  0  0  0  0  0  0  0  0  0  0  0
    0.5188   -9.9958    2.3421 H   0  0  0  0  0  0  0  0  0  0  0  0
   -1.4054   -8.4844    2.8077 H   0  0  0  0  0  0  0  0  0  0  0  0
   -3.4882   -8.6572    1.4471 H   0  0  0  0  0  0  0  0  0  0  0  0
   -3.6510  -10.3533   -0.3732 H   0  0  0  0  0  0  0  0  0  0  0  0
   -1.7310  -11.8701   -0.8447 H   0  0  0  0  0  0  0  0  0  0  0  0
   -3.7102  -13.9788    3.3899 H   0  0  0  0  0  0  0  0  0  0  0  0
   -5.3457  -14.8593    5.0502 H   0  0  0  0  0  0  0  0  0  0  0  0
   -7.1340  -17.9960    7.4550 H   0  0  0  0  0  0  0  0  0  0  0  0
   -9.2461  -19.7586    6.8427 H   0  0  0  0  0  0  0  0  0  0  0  0
  -12.9194  -17.8755    8.1128 H   0  0  0  0  0  0  0  0  0  0  0  0
   -9.3534  -15.4947    7.5104 H   0  0  0  0  0  0  0  0  0  0  0  0
  1  2  2  0
  2  3  1  0
  3  4  1  0
  4  5  2  0
  5  6  1  0
  6  7  2  0
  7  8  1  0
  8  9  2  0
  9 10  1  0
 10 11  2  0
 11 12  1  0
 12 13  2  0
 13 14  1  0
 14 15  1  0
 15 16  1  0
 16 17  2  0
 17 18  1  0
 18 19  2  0
 19 20  1  0
 20 21  2  0
 11 22  1  0
  7 23  1  0
 23 24  2  0
  2 25  1  0
 25 26  1  0
 26 27  2  0
 27 28  1  0
 28 29  1  0
 28 30  2  0
 30 31  1  0
 31 32  1  0
 32 33  1  0
 32 34  1  0
 32 35  1  0
 31 36  2  0
 24  4  1  0
 36 26  1  0
 22  8  1  0
 14 10  1  0
 21 16  1  0
  3 37  1  0
  5 38  1  0
  6 39  1  0
 12 40  1  0
 15 41  1  0
 15 42  1  0
 17 43  1  0
 18 44  1  0
 19 45  1  0
 20 46  1  0
 21 47  1  0
 23 48  1  0
 24 49  1  0
 25 50  1  0
 27 51  1  0
 30 52  1  0
 36 53  1  0
M  CHG  1  22  -1
M  END
>  <meeko>  (6) 
{"is_sidechain": [false], "free_energy": -8.648, "intermolecular_energy": -12.094, "internal_energy": -0.485}

$$$$
LIB_SVAFJSOEFDZBGK__M_PUB_ALL__e8__s20260927
     RDKit          3D

 53 57  0  0  0  0  0  0  0  0999 V2000
    7.9450  -12.7150   -1.2130 O   0  0  0  0  0  0  0  0  0  0  0  0
    8.3700  -13.7640   -0.7500 C   0  0  0  0  0  0  0  0  0  0  0  0
    7.5950  -14.8160   -0.2850 N   0  0  0  0  0  0  0  0  0  0  0  0
    6.1890  -14.9320   -0.2950 C   0  0  0  0  0  0  0  0  0  0  0  0
    5.4260  -15.1840   -1.4390 C   0  0  0  0  0  0  0  0  0  0  0  0
    4.0320  -15.2920   -1.3490 C   0  0  0  0  0  0  0  0  0  0  0  0
    3.3950  -15.1480   -0.1170 C   0  0  0  0  0  0  0  0  0  0  0  0
    1.8200  -15.2720   -0.0110 C   0  0  0  0  0  0  0  0  0  0  0  0
    1.0380  -14.4170    0.7760 N   0  0  0  0  0  0  0  0  0  0  0  0
   -0.2980  -14.9300    0.5500 C   0  0  0  0  0  0  0  0  0  0  0  0
   -0.2760  -15.9680   -0.2900 C   0  0  0  0  0  0  0  0  0  0  0  0
   -1.5900  -16.3720   -0.4590 C   0  0  0  0  0  0  0  0  0  0  0  0
   -2.4450  -15.5950    0.2560 N   0  0  0  0  0  0  0  0  0  0  0  0
   -1.5840  -14.7160    0.8910 N   0  0  0  0  0  0  0  0  0  0  0  0
   -2.0770  -13.6490    1.7330 C   0  0  0  0  0  0  0  0  0  0  0  0
   -2.6230  -12.4950    0.9280 C   0  0  0  0  0  0  0  0  0  0  0  0
   -1.9620  -11.2570    0.9290 C   0  0  0  0  0  0  0  0  0  0  0  0
   -2.4610  -10.1860    0.1880 C   0  0  0  0  0  0  0  0  0  0  0  0
   -3.6280  -10.3390   -0.5590 C   0  0  0  0  0  0  0  0  0  0  0  0
   -4.3000  -11.5610   -0.5610 C   0  0  0  0  0  0  0  0  0  0  0  0
   -3.8030  -12.6340    0.1810 C   0  0  0  0  0  0  0  0  0  0  0  0
    1.0780  -16.2410   -0.6910 N   0  0  0  0  0  0  0  0  0  0  0  0
    4.1470  -14.8970    1.0300 C   0  0  0  0  0  0  0  0  0  0  0  0
    5.5360  -14.7910    0.9400 C   0  0  0  0  0  0  0  0  0  0  0  0
    9.7210  -14.0710   -0.6160 N   0  0  0  0  0  0  0  0  0  0  0  0
   10.8300  -13.2520   -0.9160 C   0  0  0  0  0  0  0  0  0  0  0  0
   11.5410  -13.5490   -2.0840 C   0  0  0  0  0  0  0  0  0  0  0  0
   12.6480  -12.7840   -2.4500 C   0  0  0  0  0  0  0  0  0  0  0  0
   13.5050  -13.1610   -3.8950 Cl  0  0  0  0  0  0  0  0  0  0  0  0
   13.0660  -11.7170   -1.6590 C   0  0  0  0  0  0  0  0  0  0  0  0
   12.3750  -11.4110   -0.4790 C   0  0  0  0  0  0  0  0  0  0  0  0
   12.8010  -10.2480    0.3830 C   0  0  0  0  0  0  0  0  0  0  0  0
   14.0830  -10.3670    0.8360 F   0  0  0  0  0  0  0  0  0  0  0  0
   12.7570   -9.0630   -0.2840 F   0  0  0  0  0  0  0  0  0  0  0  0
   12.0340  -10.0910    1.4940 F   0  0  0  0  0  0  0  0  0  0  0  0
   11.2540  -12.1830   -0.1220 C   0  0  0  0  0  0  0  0  0  0  0  0
    8.0780  -15.5880    0.1430 H   0  0  0  0  0  0  0  0  0  0  0  0
    5.9223  -15.2980   -2.4141 H   0  0  0  0  0  0  0  0  0  0  0  0
    3.4381  -15.4911   -2.2532 H   0  0  0  0  0  0  0  0  0  0  0  0
   -1.9020  -17.2156   -1.0923 H   0  0  0  0  0  0  0  0  0  0  0  0
   -2.8786  -14.0448    2.3739 H   0  0  0  0  0  0  0  0  0  0  0  0
   -1.2342  -13.2744    2.3324 H   0  0  0  0  0  0  0  0  0  0  0  0
   -1.0425  -11.1303    1.5193 H   0  0  0  0  0  0  0  0  0  0  0  0
   -1.9337   -9.2206    0.1930 H   0  0  0  0  0  0  0  0  0  0  0  0
   -4.0189   -9.4956   -1.1471 H   0  0  0  0  0  0  0  0  0  0  0  0
   -5.2227  -11.6795   -1.1479 H   0  0  0  0  0  0  0  0  0  0  0  0
   -4.3395  -13.5943    0.1802 H   0  0  0  0  0  0  0  0  0  0  0  0
    3.6471  -14.7828    2.0032 H   0  0  0  0  0  0  0  0  0  0  0  0
    6.1260  -14.5947    1.8474 H   0  0  0  0  0  0  0  0  0  0  0  0
    9.9290  -15.0050   -0.3030 H   0  0  0  0  0  0  0  0  0  0  0  0
   11.2248  -14.3910   -2.7173 H   0  0  0  0  0  0  0  0  0  0  0  0
   13.9366  -11.1157   -1.9597 H   0  0  0  0  0  0  0  0  0  0  0  0
   10.7018  -11.9408    0.7980 H   0  0  0  0  0  0  0  0  0  0  0  0
  1  2  2  0
  2  3  1  0
  3  4  1  0
  4  5  2  0
  5  6  1  0
  6  7  2  0
  7  8  1  0
  8  9  2  0
  9 10  1  0
 10 11  2  0
 11 12  1  0
 12 13  2  0
 13 14  1  0
 14 15  1  0
 15 16  1  0
 16 17  2  0
 17 18  1  0
 18 19  2  0
 19 20  1  0
 20 21  2  0
 11 22  1  0
  7 23  1  0
 23 24  2  0
  2 25  1  0
 25 26  1  0
 26 27  2  0
 27 28  1  0
 28 29  1  0
 28 30  2  0
 30 31  1  0
 31 32  1  0
 32 33  1  0
 32 34  1  0
 32 35  1  0
 31 36  2  0
 24  4  1  0
 36 26  1  0
 22  8  1  0
 14 10  1  0
 21 16  1  0
  3 37  1  0
  5 38  1  0
  6 39  1  0
 12 40  1  0
 15 41  1  0
 15 42  1  0
 17 43  1  0
 18 44  1  0
 19 45  1  0
 20 46  1  0
 21 47  1  0
 23 48  1  0
 24 49  1  0
 25 50  1  0
 27 51  1  0
 30 52  1  0
 36 53  1  0
M  CHG  1  22  -1
M  END
>  <meeko>  (7) 
{"is_sidechain": [false], "free_energy": -8.634, "intermolecular_energy": -11.822, "internal_energy": -0.738}

$$$$
LIB_SVAFJSOEFDZBGK__M_PUB_ALL__e8__s20260927
     RDKit          3D

 53 57  0  0  0  0  0  0  0  0999 V2000
    8.1220  -11.9210   -1.2390 O   0  0  0  0  0  0  0  0  0  0  0  0
    8.4180  -12.7700   -0.4100 C   0  0  0  0  0  0  0  0  0  0  0  0
    7.5210  -13.4770    0.3780 N   0  0  0  0  0  0  0  0  0  0  0  0
    6.1110  -13.4190    0.3590 C   0  0  0  0  0  0  0  0  0  0  0  0
    5.2820  -14.4970    0.0380 C   0  0  0  0  0  0  0  0  0  0  0  0
    3.8890  -14.3460    0.0550 C   0  0  0  0  0  0  0  0  0  0  0  0
    3.3200  -13.1180    0.3920 C   0  0  0  0  0  0  0  0  0  0  0  0
    1.7460  -12.9430    0.4150 C   0  0  0  0  0  0  0  0  0  0  0  0
    0.8580  -13.9830    0.1150 N   0  0  0  0  0  0  0  0  0  0  0  0
   -0.4300  -13.3370    0.2630 C   0  0  0  0  0  0  0  0  0  0  0  0
   -0.2860  -12.0590    0.6210 C   0  0  0  0  0  0  0  0  0  0  0  0
   -1.5620  -11.5360    0.7570 C   0  0  0  0  0  0  0  0  0  0  0  0
   -2.5120  -12.4720    0.5000 N   0  0  0  0  0  0  0  0  0  0  0  0
   -1.7520  -13.5830    0.1730 N   0  0  0  0  0  0  0  0  0  0  0  0
   -2.3650  -14.8580   -0.1250 C   0  0  0  0  0  0  0  0  0  0  0  0
   -2.2930  -15.8110    1.0430 C   0  0  0  0  0  0  0  0  0  0  0  0
   -3.0360  -15.5590    2.2070 C   0  0  0  0  0  0  0  0  0  0  0  0
   -2.9750  -16.4350    3.2900 C   0  0  0  0  0  0  0  0  0  0  0  0
   -2.1690  -17.5710    3.2240 C   0  0  0  0  0  0  0  0  0  0  0  0
   -1.4180  -17.8270    2.0770 C   0  0  0  0  0  0  0  0  0  0  0  0
   -1.4780  -16.9500    0.9920 C   0  0  0  0  0  0  0  0  0  0  0  0
    1.1120  -11.7400    0.7350 N   0  0  0  0  0  0  0  0  0  0  0  0
    4.1390  -12.0370    0.7150 C   0  0  0  0  0  0  0  0  0  0  0  0
    5.5270  -12.1880    0.6980 C   0  0  0  0  0  0  0  0  0  0  0  0
    9.7210  -13.1670   -0.1240 N   0  0  0  0  0  0  0  0  0  0  0  0
   10.9200  -12.6540   -0.6610 C   0  0  0  0  0  0  0  0  0  0  0  0
   11.5760  -11.6660    0.0800 C   0  0  0  0  0  0  0  0  0  0  0  0
   12.7680  -11.1110   -0.3830 C   0  0  0  0  0  0  0  0  0  0  0  0
   13.5650   -9.9020    0.5470 Cl  0  0  0  0  0  0  0  0  0  0  0  0
   13.3220  -11.5260   -1.5920 C   0  0  0  0  0  0  0  0  0  0  0  0
   12.6730  -12.5050   -2.3560 C   0  0  0  0  0  0  0  0  0  0  0  0
   13.2650  -12.9810   -3.6600 C   0  0  0  0  0  0  0  0  0  0  0  0
   13.9980  -12.0190   -4.2910 F   0  0  0  0  0  0  0  0  0  0  0  0
   14.1090  -14.0350   -3.4930 F   0  0  0  0  0  0  0  0  0  0  0  0
   12.3290  -13.3790   -4.5630 F   0  0  0  0  0  0  0  0  0  0  0  0
   11.4750  -13.0660   -1.8760 C   0  0  0  0  0  0  0  0  0  0  0  0
    7.9080  -14.0910    1.0750 H   0  0  0  0  0  0  0  0  0  0  0  0
    5.7246  -15.4680   -0.2291 H   0  0  0  0  0  0  0  0  0  0  0  0
    3.2421  -15.1988   -0.1983 H   0  0  0  0  0  0  0  0  0  0  0  0
   -1.7781  -10.4946    1.0376 H   0  0  0  0  0  0  0  0  0  0  0  0
   -3.4215  -14.6918   -0.3822 H   0  0  0  0  0  0  0  0  0  0  0  0
   -1.8154  -15.3095   -0.9641 H   0  0  0  0  0  0  0  0  0  0  0  0
   -3.6716  -14.6631    2.2652 H   0  0  0  0  0  0  0  0  0  0  0  0
   -3.5629  -16.2299    4.1968 H   0  0  0  0  0  0  0  0  0  0  0  0
   -2.1255  -18.2650    4.0763 H   0  0  0  0  0  0  0  0  0  0  0  0
   -0.7780  -18.7203    2.0270 H   0  0  0  0  0  0  0  0  0  0  0  0
   -0.8813  -17.1546    0.0908 H   0  0  0  0  0  0  0  0  0  0  0  0
    3.6929  -11.0677    0.9825 H   0  0  0  0  0  0  0  0  0  0  0  0
    6.1702  -11.3329    0.9531 H   0  0  0  0  0  0  0  0  0  0  0  0
    9.8130  -13.9400    0.5150 H   0  0  0  0  0  0  0  0  0  0  0  0
   11.1487  -11.3246    1.0344 H   0  0  0  0  0  0  0  0  0  0  0  0
   14.2662  -11.0864   -1.9458 H   0  0  0  0  0  0  0  0  0  0  0  0
   10.9666  -13.8420   -2.4670 H   0  0  0  0  0  0  0  0  0  0  0  0
  1  2  2  0
  2  3  1  0
  3  4  1  0
  4  5  2  0
  5  6  1  0
  6  7  2  0
  7  8  1  0
  8  9  2  0
  9 10  1  0
 10 11  2  0
 11 12  1  0
 12 13  2  0
 13 14  1  0
 14 15  1  0
 15 16  1  0
 16 17  2  0
 17 18  1  0
 18 19  2  0
 19 20  1  0
 20 21  2  0
 11 22  1  0
  7 23  1  0
 23 24  2  0
  2 25  1  0
 25 26  1  0
 26 27  2  0
 27 28  1  0
 28 29  1  0
 28 30  2  0
 30 31  1  0
 31 32  1  0
 32 33  1  0
 32 34  1  0
 32 35  1  0
 31 36  2  0
 24  4  1  0
 36 26  1  0
 22  8  1  0
 14 10  1  0
 21 16  1  0
  3 37  1  0
  5 38  1  0
  6 39  1  0
 12 40  1  0
 15 41  1  0
 15 42  1  0
 17 43  1  0
 18 44  1  0
 19 45  1  0
 20 46  1  0
 21 47  1  0
 23 48  1  0
 24 49  1  0
 25 50  1  0
 27 51  1  0
 30 52  1  0
 36 53  1  0
M  CHG  1  22  -1
M  END
>  <meeko>  (8) 
{"is_sidechain": [false], "free_energy": -8.511, "intermolecular_energy": -11.508, "internal_energy": -0.885}

$$$$
LIB_SVAFJSOEFDZBGK__M_PUB_ALL__e8__s20260927
     RDKit          3D

 53 57  0  0  0  0  0  0  0  0999 V2000
    7.8370  -14.3160   -1.7350 O   0  0  0  0  0  0  0  0  0  0  0  0
    8.2040  -13.9480   -0.6280 C   0  0  0  0  0  0  0  0  0  0  0  0
    7.3720  -13.6490    0.4410 N   0  0  0  0  0  0  0  0  0  0  0  0
    5.9660  -13.7540    0.5070 C   0  0  0  0  0  0  0  0  0  0  0  0
    5.0850  -12.6890    0.2990 C   0  0  0  0  0  0  0  0  0  0  0  0
    3.7010  -12.8930    0.3770 C   0  0  0  0  0  0  0  0  0  0  0  0
    3.1920  -14.1600    0.6630 C   0  0  0  0  0  0  0  0  0  0  0  0
    1.6290  -14.3940    0.7500 C   0  0  0  0  0  0  0  0  0  0  0  0
    0.8090  -13.7460    1.6810 N   0  0  0  0  0  0  0  0  0  0  0  0
   -0.4970  -14.2880    1.3700 C   0  0  0  0  0  0  0  0  0  0  0  0
   -0.4260  -15.1520    0.3540 C   0  0  0  0  0  0  0  0  0  0  0  0
   -1.7170  -15.5970    0.1180 C   0  0  0  0  0  0  0  0  0  0  0  0
   -2.6060  -15.0160    0.9650 N   0  0  0  0  0  0  0  0  0  0  0  0
   -1.7890  -14.2170    1.7480 N   0  0  0  0  0  0  0  0  0  0  0  0
   -2.3320  -13.3530    2.7720 C   0  0  0  0  0  0  0  0  0  0  0  0
   -2.2330  -11.8940    2.3970 C   0  0  0  0  0  0  0  0  0  0  0  0
   -1.6230  -10.9800    3.2700 C   0  0  0  0  0  0  0  0  0  0  0  0
   -1.5290   -9.6310    2.9300 C   0  0  0  0  0  0  0  0  0  0  0  0
   -2.0460   -9.1790    1.7170 C   0  0  0  0  0  0  0  0  0  0  0  0
   -2.6630  -10.0750    0.8460 C   0  0  0  0  0  0  0  0  0  0  0  0
   -2.7600  -11.4260    1.1840 C   0  0  0  0  0  0  0  0  0  0  0  0
    0.9350  -15.2660   -0.0940 N   0  0  0  0  0  0  0  0  0  0  0  0
    4.0630  -15.2280    0.8710 C   0  0  0  0  0  0  0  0  0  0  0  0
    5.4430  -15.0250    0.7930 C   0  0  0  0  0  0  0  0  0  0  0  0
    9.5350  -13.7710   -0.2620 N   0  0  0  0  0  0  0  0  0  0  0  0
   10.6820  -13.9130   -1.0700 C   0  0  0  0  0  0  0  0  0  0  0  0
   11.0160  -15.2110   -1.4750 C   0  0  0  0  0  0  0  0  0  0  0  0
   12.1350  -15.4340   -2.2770 C   0  0  0  0  0  0  0  0  0  0  0  0
   12.5260  -17.0350   -2.7710 Cl  0  0  0  0  0  0  0  0  0  0  0  0
   12.9390  -14.3720   -2.6840 C   0  0  0  0  0  0  0  0  0  0  0  0
   12.6290  -13.0670   -2.2790 C   0  0  0  0  0  0  0  0  0  0  0  0
   13.4770  -11.9010   -2.7230 C   0  0  0  0  0  0  0  0  0  0  0  0
   14.6850  -12.2870   -3.2280 F   0  0  0  0  0  0  0  0  0  0  0  0
   12.8840  -11.1720   -3.7070 F   0  0  0  0  0  0  0  0  0  0  0  0
   13.7620  -11.0280   -1.7190 F   0  0  0  0  0  0  0  0  0  0  0  0
   11.4930  -12.8500   -1.4760 C   0  0  0  0  0  0  0  0  0  0  0  0
    7.8060  -13.2830    1.2710 H   0  0  0  0  0  0  0  0  0  0  0  0
    5.4796  -11.6873    0.0733 H   0  0  0  0  0  0  0  0  0  0  0  0
    3.0130  -12.0507    0.2121 H   0  0  0  0  0  0  0  0  0  0  0  0
   -1.9878  -16.3286   -0.6575 H   0  0  0  0  0  0  0  0  0  0  0  0
   -3.3908  -13.6083    2.9263 H   0  0  0  0  0  0  0  0  0  0  0  0
   -1.7458  -13.5067    3.6900 H   0  0  0  0  0  0  0  0  0  0  0  0
   -1.2159  -11.3305    4.2299 H   0  0  0  0  0  0  0  0  0  0  0  0
   -1.0464   -8.9228    3.6196 H   0  0  0  0  0  0  0  0  0  0  0  0
   -1.9670   -8.1155    1.4474 H   0  0  0  0  0  0  0  0  0  0  0  0
   -3.0743   -9.7171   -0.1094 H   0  0  0  0  0  0  0  0  0  0  0  0
   -3.2527  -12.1279    0.4950 H   0  0  0  0  0  0  0  0  0  0  0  0
    3.6648  -16.2284    1.0960 H   0  0  0  0  0  0  0  0  0  0  0  0
    6.1273  -15.8704    0.9575 H   0  0  0  0  0  0  0  0  0  0  0  0
    9.6960  -13.5530    0.7080 H   0  0  0  0  0  0  0  0  0  0  0  0
   10.3921  -16.0600   -1.1587 H   0  0  0  0  0  0  0  0  0  0  0  0
   13.8156  -14.5574   -3.3221 H   0  0  0  0  0  0  0  0  0  0  0  0
   11.2396  -11.8264   -1.1630 H   0  0  0  0  0  0  0  0  0  0  0  0
  1  2  2  0
  2  3  1  0
  3  4  1  0
  4  5  2  0
  5  6  1  0
  6  7  2  0
  7  8  1  0
  8  9  2  0
  9 10  1  0
 10 11  2  0
 11 12  1  0
 12 13  2  0
 13 14  1  0
 14 15  1  0
 15 16  1  0
 16 17  2  0
 17 18  1  0
 18 19  2  0
 19 20  1  0
 20 21  2  0
 11 22  1  0
  7 23  1  0
 23 24  2  0
  2 25  1  0
 25 26  1  0
 26 27  2  0
 27 28  1  0
 28 29  1  0
 28 30  2  0
 30 31  1  0
 31 32  1  0
 32 33  1  0
 32 34  1  0
 32 35  1  0
 31 36  2  0
 24  4  1  0
 36 26  1  0
 22  8  1  0
 14 10  1  0
 21 16  1  0
  3 37  1  0
  5 38  1  0
  6 39  1  0
 12 40  1  0
 15 41  1  0
 15 42  1  0
 17 43  1  0
 18 44  1  0
 19 45  1  0
 20 46  1  0
 21 47  1  0
 23 48  1  0
 24 49  1  0
 25 50  1  0
 27 51  1  0
 30 52  1  0
 36 53  1  0
M  CHG  1  22  -1
M  END
>  <meeko>  (9) 
{"is_sidechain": [false], "free_energy": -8.405, "intermolecular_energy": -11.339, "internal_energy": -0.913}

$$$$
