LIB_VKGKEHUDLZDBMP__M_PUB_ALL__e8__s20260927
     RDKit          3D

 82 87  0  0  0  0  0  0  0  0999 V2000
   13.6010  -13.9440  -13.5640 C   0  0  0  0  0  0  0  0  0  0  0  0
   13.7590  -14.2460  -12.0930 C   0  0  0  0  0  0  0  0  0  0  0  0
   15.0590  -14.3970  -11.5800 C   0  0  0  0  0  0  0  0  0  0  0  0
   15.2600  -14.6730  -10.2310 C   0  0  0  0  0  0  0  0  0  0  0  0
   14.1590  -14.8220   -9.3900 C   0  0  0  0  0  0  0  0  0  0  0  0
   14.3940  -14.9660   -7.9350 C   0  0  0  0  0  0  0  0  0  0  0  0
   15.5530  -15.1840   -7.5820 O   0  0  0  0  0  0  0  0  0  0  0  0
   13.2920  -14.7710   -7.1340 N   0  0  0  0  0  0  0  0  0  0  0  0
   13.2630  -14.7050   -5.7240 C   0  0  0  0  0  0  0  0  0  0  0  0
   13.0590  -15.8950   -5.0200 C   0  0  0  0  0  0  0  0  0  0  0  0
   12.9830  -15.8940   -3.6240 C   0  0  0  0  0  0  0  0  0  0  0  0
   13.1010  -14.6990   -2.9150 C   0  0  0  0  0  0  0  0  0  0  0  0
   13.3030  -13.4960   -3.6000 C   0  0  0  0  0  0  0  0  0  0  0  0
   13.4330  -12.1840   -2.8710 C   0  0  0  0  0  0  0  0  0  0  0  0
   12.7110  -11.1950   -3.4910 F   0  0  0  0  0  0  0  0  0  0  0  0
   14.7100  -11.7250   -2.8330 F   0  0  0  0  0  0  0  0  0  0  0  0
   12.9840  -12.2150   -1.5900 F   0  0  0  0  0  0  0  0  0  0  0  0
   13.4020  -13.5180   -5.0030 C   0  0  0  0  0  0  0  0  0  0  0  0
   12.8560  -14.7010   -9.8910 C   0  0  0  0  0  0  0  0  0  0  0  0
   12.6350  -14.4210  -11.2480 C   0  0  0  0  0  0  0  0  0  0  0  0
   11.3350  -14.2410  -11.7860 N   0  0  0  0  0  0  0  0  0  0  0  0
   10.4150  -13.2940  -11.4780 C   0  0  0  0  0  0  0  0  0  0  0  0
   10.5040  -12.0780  -11.9600 N   0  0  0  0  0  0  0  0  0  0  0  0
    9.3450  -11.4500  -11.6140 C   0  0  0  0  0  0  0  0  0  0  0  0
    8.9150  -10.1580  -11.9540 C   0  0  0  0  0  0  0  0  0  0  0  0
    7.6720   -9.7140  -11.4970 C   0  0  0  0  0  0  0  0  0  0  0  0
    6.8760  -10.5390  -10.7090 C   0  0  0  0  0  0  0  0  0  0  0  0
    7.2940  -11.8270  -10.3530 C   0  0  0  0  0  0  0  0  0  0  0  0
    8.5420  -12.2720  -10.8270 C   0  0  0  0  0  0  0  0  0  0  0  0
    9.3000  -13.4330  -10.6420 N   0  0  0  0  0  0  0  0  0  0  0  0
    8.9630  -14.5060   -9.7490 C   0  0  0  0  0  0  0  0  0  0  0  0
    9.4370  -14.5440   -8.4500 C   0  0  0  0  0  0  0  0  0  0  0  0
    9.0680  -15.6260   -7.6680 C   0  0  0  0  0  0  0  0  0  0  0  0
    9.6260  -15.7900   -6.3980 N   0  0  0  0  0  0  0  0  0  0  0  0
    8.7440  -15.8910   -5.2130 C   0  0  0  0  0  0  0  0  0  0  0  0
    7.6940  -14.7560   -5.0970 C   0  0  0  0  0  0  0  0  0  0  0  0
    8.1930  -13.6720   -4.1540 N   0  0  0  0  0  0  0  0  0  0  0  0
    7.1440  -12.6800   -3.7050 C   0  0  0  0  0  0  0  0  0  0  0  0
    7.8280  -11.4670   -3.0340 C   0  0  0  0  0  0  0  0  0  0  0  0
    8.8020  -11.8790   -1.9360 N   0  0  0  0  0  0  0  0  0  0  0  0
    8.1730  -12.0530   -0.5830 C   0  0  0  0  0  0  0  0  0  0  0  0
    9.7590  -12.9980   -2.3220 C   0  0  0  0  0  0  0  0  0  0  0  0
    9.0340  -14.1820   -3.0020 C   0  0  0  0  0  0  0  0  0  0  0  0
    8.3250  -16.6330   -8.1490 N   0  0  0  0  0  0  0  0  0  0  0  0
    7.8390  -16.4710   -9.3880 C   0  0  0  0  0  0  0  0  0  0  0  0
    8.1510  -15.4770  -10.2150 N   0  0  0  0  0  0  0  0  0  0  0  0
   13.0943  -12.9755  -13.6871 H   0  0  0  0  0  0  0  0  0  0  0  0
   14.5926  -13.9019  -14.0383 H   0  0  0  0  0  0  0  0  0  0  0  0
   13.0010  -14.7346  -14.0383 H   0  0  0  0  0  0  0  0  0  0  0  0
   15.9250  -14.2961  -12.2508 H   0  0  0  0  0  0  0  0  0  0  0  0
   16.2801  -14.7728   -9.8316 H   0  0  0  0  0  0  0  0  0  0  0  0
   12.3890  -14.6680   -7.5910 H   0  0  0  0  0  0  0  0  0  0  0  0
   12.9572  -16.8422   -5.5700 H   0  0  0  0  0  0  0  0  0  0  0  0
   12.8296  -16.8393   -3.0829 H   0  0  0  0  0  0  0  0  0  0  0  0
   13.0352  -14.7023   -1.8170 H   0  0  0  0  0  0  0  0  0  0  0  0
   13.5931  -12.5793   -5.5437 H   0  0  0  0  0  0  0  0  0  0  0  0
   11.9982  -14.8267   -9.2140 H   0  0  0  0  0  0  0  0  0  0  0  0
   10.8960  -15.1430  -11.9790 H   0  0  0  0  0  0  0  0  0  0  0  0
    9.5481   -9.5041  -12.5718 H   0  0  0  0  0  0  0  0  0  0  0  0
    7.3204   -8.7059  -11.7618 H   0  0  0  0  0  0  0  0  0  0  0  0
    5.8997  -10.1725  -10.3590 H   0  0  0  0  0  0  0  0  0  0  0  0
    6.6654  -12.4720   -9.7214 H   0  0  0  0  0  0  0  0  0  0  0  0
   10.0819  -13.7459   -8.0535 H   0  0  0  0  0  0  0  0  0  0  0  0
   10.4170  -15.1590   -6.2420 H   0  0  0  0  0  0  0  0  0  0  0  0
    8.2089  -16.8508   -5.2633 H   0  0  0  0  0  0  0  0  0  0  0  0
    9.3944  -15.8082   -4.3298 H   0  0  0  0  0  0  0  0  0  0  0  0
    7.5192  -14.3199   -6.0916 H   0  0  0  0  0  0  0  0  0  0  0  0
    6.7571  -15.1735   -4.6996 H   0  0  0  0  0  0  0  0  0  0  0  0
    8.8380  -13.1700   -4.7920 H   0  0  0  0  0  0  0  0  0  0  0  0
    6.5668  -12.3383   -4.5768 H   0  0  0  0  0  0  0  0  0  0  0  0
    6.4701  -13.1640   -2.9828 H   0  0  0  0  0  0  0  0  0  0  0  0
    8.3794  -10.9039   -3.8015 H   0  0  0  0  0  0  0  0  0  0  0  0
    7.0411  -10.8544   -2.5698 H   0  0  0  0  0  0  0  0  0  0  0  0
    9.4260  -11.0410   -1.8390 H   0  0  0  0  0  0  0  0  0  0  0  0
    8.9198  -11.8464    0.1978 H   0  0  0  0  0  0  0  0  0  0  0  0
    7.3299  -11.3544   -0.4780 H   0  0  0  0  0  0  0  0  0  0  0  0
    7.8088  -13.0856   -0.4780 H   0  0  0  0  0  0  0  0  0  0  0  0
   10.5103  -12.5965   -3.0180 H   0  0  0  0  0  0  0  0  0  0  0  0
   10.2259  -13.3743   -1.3999 H   0  0  0  0  0  0  0  0  0  0  0  0
    9.7785  -14.8974   -3.3814 H   0  0  0  0  0  0  0  0  0  0  0  0
    8.3832  -14.6804   -2.2685 H   0  0  0  0  0  0  0  0  0  0  0  0
    7.1226  -17.2227   -9.7509 H   0  0  0  0  0  0  0  0  0  0  0  0
  1  2  1  0
  2  3  2  0
  3  4  1  0
  4  5  2  0
  5  6  1  0
  6  7  2  0
  6  8  1  0
  8  9  1  0
  9 10  2  0
 10 11  1  0
 11 12  2  0
 12 13  1  0
 13 14  1  0
 14 15  1  0
 14 16  1  0
 14 17  1  0
 13 18  2  0
  5 19  1  0
 19 20  2  0
 20 21  1  0
 21 22  1  0
 22 23  2  0
 23 24  1  0
 24 25  2  0
 25 26  1  0
 26 27  2  0
 27 28  1  0
 28 29  2  0
 29 30  1  0
 30 31  1  0
 31 32  2  0
 32 33  1  0
 33 34  1  0
 34 35  1  0
 35 36  1  0
 36 37  1  0
 37 38  1  0
 38 39  1  0
 39 40  1  0
 40 41  1  0
 40 42  1  0
 42 43  1  0
 33 44  2  0
 44 45  1  0
 45 46  2  0
 20  2  1  0
 30 22  1  0
 46 31  1  0
 18  9  1  0
 29 24  1  0
 43 37  1  0
  1 47  1  0
  1 48  1  0
  1 49  1  0
  3 50  1  0
  4 51  1  0
  8 52  1  0
 10 53  1  0
 11 54  1  0
 12 55  1  0
 18 56  1  0
 19 57  1  0
 21 58  1  0
 25 59  1  0
 26 60  1  0
 27 61  1  0
 28 62  1  0
 32 63  1  0
 34 64  1  0
 35 65  1  0
 35 66  1  0
 36 67  1  0
 36 68  1  0
 37 69  1  0
 38 70  1  0
 38 71  1  0
 39 72  1  0
 39 73  1  0
 40 74  1  0
 41 75  1  0
 41 76  1  0
 41 77  1  0
 42 78  1  0
 42 79  1  0
 43 80  1  0
 43 81  1  0
 45 82  1  0
M  CHG  2  37   1  40   1
M  END
>  <meeko>  (1) 
{"is_sidechain": [false], "free_energy": -8.918, "intermolecular_energy": -14.131, "internal_energy": -3.196}

$$$$
LIB_VKGKEHUDLZDBMP__M_PUB_ALL__e8__s20260927
     RDKit          3D

 82 87  0  0  0  0  0  0  0  0999 V2000
    4.9550  -12.5540   -5.2790 C   0  0  0  0  0  0  0  0  0  0  0  0
    3.9940  -11.9850   -4.2630 C   0  0  0  0  0  0  0  0  0  0  0  0
    3.3510  -10.7720   -4.5630 C   0  0  0  0  0  0  0  0  0  0  0  0
    2.4530  -10.2050   -3.6630 C   0  0  0  0  0  0  0  0  0  0  0  0
    2.2100  -10.8390   -2.4450 C   0  0  0  0  0  0  0  0  0  0  0  0
    1.1450  -10.3020   -1.5680 C   0  0  0  0  0  0  0  0  0  0  0  0
    0.5390   -9.3120   -1.9780 O   0  0  0  0  0  0  0  0  0  0  0  0
    0.9080  -11.0190   -0.4170 N   0  0  0  0  0  0  0  0  0  0  0  0
   -0.1350  -10.8170    0.5140 C   0  0  0  0  0  0  0  0  0  0  0  0
   -0.1720   -9.5980    1.1960 C   0  0  0  0  0  0  0  0  0  0  0  0
   -1.1560   -9.3500    2.1570 C   0  0  0  0  0  0  0  0  0  0  0  0
   -2.1110  -10.3230    2.4540 C   0  0  0  0  0  0  0  0  0  0  0  0
   -2.0890  -11.5500    1.7840 C   0  0  0  0  0  0  0  0  0  0  0  0
   -3.1010  -12.6270    2.0780 C   0  0  0  0  0  0  0  0  0  0  0  0
   -2.5370  -13.6630    2.7810 F   0  0  0  0  0  0  0  0  0  0  0  0
   -3.6120  -13.1940    0.9540 F   0  0  0  0  0  0  0  0  0  0  0  0
   -4.1540  -12.2100    2.8260 F   0  0  0  0  0  0  0  0  0  0  0  0
   -1.1080  -11.7750    0.8020 C   0  0  0  0  0  0  0  0  0  0  0  0
    2.8640  -12.0350   -2.1200 C   0  0  0  0  0  0  0  0  0  0  0  0
    3.7700  -12.6210   -3.0170 C   0  0  0  0  0  0  0  0  0  0  0  0
    4.4150  -13.8560   -2.7490 N   0  0  0  0  0  0  0  0  0  0  0  0
    4.0890  -14.7990   -1.8300 C   0  0  0  0  0  0  0  0  0  0  0  0
    3.2950  -15.7970   -2.1320 N   0  0  0  0  0  0  0  0  0  0  0  0
    3.3280  -16.6410   -1.0620 C   0  0  0  0  0  0  0  0  0  0  0  0
    2.7080  -17.8920   -0.9160 C   0  0  0  0  0  0  0  0  0  0  0  0
    2.8860  -18.6020    0.2730 C   0  0  0  0  0  0  0  0  0  0  0  0
    3.6610  -18.0730    1.3000 C   0  0  0  0  0  0  0  0  0  0  0  0
    4.2790  -16.8230    1.1740 C   0  0  0  0  0  0  0  0  0  0  0  0
    4.1050  -16.1180   -0.0320 C   0  0  0  0  0  0  0  0  0  0  0  0
    4.5020  -14.8590   -0.4930 N   0  0  0  0  0  0  0  0  0  0  0  0
    5.1760  -13.8650    0.2950 C   0  0  0  0  0  0  0  0  0  0  0  0
    6.5260  -13.6060    0.1370 C   0  0  0  0  0  0  0  0  0  0  0  0
    7.0890  -12.6390    0.9510 C   0  0  0  0  0  0  0  0  0  0  0  0
    8.4700  -12.4330    0.9350 N   0  0  0  0  0  0  0  0  0  0  0  0
    9.2110  -12.5100   -0.3450 C   0  0  0  0  0  0  0  0  0  0  0  0
   10.7530  -12.5580   -0.1920 C   0  0  0  0  0  0  0  0  0  0  0  0
   11.4230  -12.3330   -1.5390 N   0  0  0  0  0  0  0  0  0  0  0  0
   12.8850  -11.9500   -1.4720 C   0  0  0  0  0  0  0  0  0  0  0  0
   13.3520  -11.4390   -2.8530 C   0  0  0  0  0  0  0  0  0  0  0  0
   13.0180  -12.4090   -3.9800 N   0  0  0  0  0  0  0  0  0  0  0  0
   14.0550  -13.4690   -4.2140 C   0  0  0  0  0  0  0  0  0  0  0  0
   11.5890  -12.9360   -3.9620 C   0  0  0  0  0  0  0  0  0  0  0  0
   11.1600  -13.4220   -2.5590 C   0  0  0  0  0  0  0  0  0  0  0  0
    6.3830  -12.0040    1.8990 N   0  0  0  0  0  0  0  0  0  0  0  0
    5.0660  -12.2540    1.9230 C   0  0  0  0  0  0  0  0  0  0  0  0
    4.4420  -13.1750    1.1920 N   0  0  0  0  0  0  0  0  0  0  0  0
    5.7889  -13.0477   -4.7586 H   0  0  0  0  0  0  0  0  0  0  0  0
    4.4305  -13.2872   -5.9093 H   0  0  0  0  0  0  0  0  0  0  0  0
    5.3457  -11.7416   -5.9093 H   0  0  0  0  0  0  0  0  0  0  0  0
    3.5591  -10.2661   -5.5173 H   0  0  0  0  0  0  0  0  0  0  0  0
    1.9392   -9.2644   -3.9106 H   0  0  0  0  0  0  0  0  0  0  0  0
    1.5490  -11.7760   -0.1920 H   0  0  0  0  0  0  0  0  0  0  0  0
    0.5802   -8.8265    0.9745 H   0  0  0  0  0  0  0  0  0  0  0  0
   -1.1777   -8.3834    2.6816 H   0  0  0  0  0  0  0  0  0  0  0  0
   -2.8805  -10.1249    3.2146 H   0  0  0  0  0  0  0  0  0  0  0  0
   -1.1075  -12.7260    0.2493 H   0  0  0  0  0  0  0  0  0  0  0  0
    2.6652  -12.5190   -1.1524 H   0  0  0  0  0  0  0  0  0  0  0  0
    5.4270  -13.7650   -2.8530 H   0  0  0  0  0  0  0  0  0  0  0  0
    2.0909  -18.3069   -1.7266 H   0  0  0  0  0  0  0  0  0  0  0  0
    2.4104  -19.5859    0.3984 H   0  0  0  0  0  0  0  0  0  0  0  0
    3.7908  -18.6478    2.2289 H   0  0  0  0  0  0  0  0  0  0  0  0
    4.8825  -16.4043    1.9929 H   0  0  0  0  0  0  0  0  0  0  0  0
    7.1284  -14.1479   -0.6070 H   0  0  0  0  0  0  0  0  0  0  0  0
    8.9430  -12.9390    1.6880 H   0  0  0  0  0  0  0  0  0  0  0  0
    8.8896  -13.4192   -0.8742 H   0  0  0  0  0  0  0  0  0  0  0  0
    8.9795  -11.5872   -0.8971 H   0  0  0  0  0  0  0  0  0  0  0  0
   11.0730  -11.7726    0.5085 H   0  0  0  0  0  0  0  0  0  0  0  0
   11.0444  -13.5465    0.1926 H   0  0  0  0  0  0  0  0  0  0  0  0
   10.9000  -11.4970   -1.8560 H   0  0  0  0  0  0  0  0  0  0  0  0
   13.0213  -11.1561   -0.7229 H   0  0  0  0  0  0  0  0  0  0  0  0
   13.4801  -12.8306   -1.1886 H   0  0  0  0  0  0  0  0  0  0  0  0
   12.8589  -10.4773   -3.0581 H   0  0  0  0  0  0  0  0  0  0  0  0
   14.4464  -11.3340   -2.8169 H   0  0  0  0  0  0  0  0  0  0  0  0
   13.0490  -11.8050   -4.8370 H   0  0  0  0  0  0  0  0  0  0  0  0
   14.4213  -13.8434   -3.2467 H   0  0  0  0  0  0  0  0  0  0  0  0
   13.6097  -14.2982   -4.7834 H   0  0  0  0  0  0  0  0  0  0  0  0
   14.8938  -13.0420   -4.7834 H   0  0  0  0  0  0  0  0  0  0  0  0
   10.9109  -12.1303   -4.2798 H   0  0  0  0  0  0  0  0  0  0  0  0
   11.5393  -13.7963   -4.6456 H   0  0  0  0  0  0  0  0  0  0  0  0
   10.0868  -13.6632   -2.5679 H   0  0  0  0  0  0  0  0  0  0  0  0
   11.7379  -14.3189   -2.2916 H   0  0  0  0  0  0  0  0  0  0  0  0
    4.4499  -11.6477    2.6033 H   0  0  0  0  0  0  0  0  0  0  0  0
  1  2  1  0
  2  3  2  0
  3  4  1  0
  4  5  2  0
  5  6  1  0
  6  7  2  0
  6  8  1  0
  8  9  1  0
  9 10  2  0
 10 11  1  0
 11 12  2  0
 12 13  1  0
 13 14  1  0
 14 15  1  0
 14 16  1  0
 14 17  1  0
 13 18  2  0
  5 19  1  0
 19 20  2  0
 20 21  1  0
 21 22  1  0
 22 23  2  0
 23 24  1  0
 24 25  2  0
 25 26  1  0
 26 27  2  0
 27 28  1  0
 28 29  2  0
 29 30  1  0
 30 31  1  0
 31 32  2  0
 32 33  1  0
 33 34  1  0
 34 35  1  0
 35 36  1  0
 36 37  1  0
 37 38  1  0
 38 39  1  0
 39 40  1  0
 40 41  1  0
 40 42  1  0
 42 43  1  0
 33 44  2  0
 44 45  1  0
 45 46  2  0
 20  2  1  0
 30 22  1  0
 46 31  1  0
 18  9  1  0
 29 24  1  0
 43 37  1  0
  1 47  1  0
  1 48  1  0
  1 49  1  0
  3 50  1  0
  4 51  1  0
  8 52  1  0
 10 53  1  0
 11 54  1  0
 12 55  1  0
 18 56  1  0
 19 57  1  0
 21 58  1  0
 25 59  1  0
 26 60  1  0
 27 61  1  0
 28 62  1  0
 32 63  1  0
 34 64  1  0
 35 65  1  0
 35 66  1  0
 36 67  1  0
 36 68  1  0
 37 69  1  0
 38 70  1  0
 38 71  1  0
 39 72  1  0
 39 73  1  0
 40 74  1  0
 41 75  1  0
 41 76  1  0
 41 77  1  0
 42 78  1  0
 42 79  1  0
 43 80  1  0
 43 81  1  0
 45 82  1  0
M  CHG  2  37   1  40   1
M  END
>  <meeko>  (2) 
{"is_sidechain": [false], "free_energy": -8.783, "intermolecular_energy": -14.977, "internal_energy": -2.136}

$$$$
LIB_VKGKEHUDLZDBMP__M_PUB_ALL__e8__s20260927
     RDKit          3D

 82 87  0  0  0  0  0  0  0  0999 V2000
    8.2370  -16.9310   -2.9550 C   0  0  0  0  0  0  0  0  0  0  0  0
    7.3130  -16.0420   -2.1560 C   0  0  0  0  0  0  0  0  0  0  0  0
    5.9370  -16.0910   -2.4360 C   0  0  0  0  0  0  0  0  0  0  0  0
    5.0420  -15.2940   -1.7280 C   0  0  0  0  0  0  0  0  0  0  0  0
    5.5230  -14.4270   -0.7480 C   0  0  0  0  0  0  0  0  0  0  0  0
    4.5470  -13.7000    0.0950 C   0  0  0  0  0  0  0  0  0  0  0  0
    5.0090  -12.9960    0.9940 O   0  0  0  0  0  0  0  0  0  0  0  0
    3.2270  -13.8420   -0.2700 N   0  0  0  0  0  0  0  0  0  0  0  0
    2.1160  -13.1530    0.2630 C   0  0  0  0  0  0  0  0  0  0  0  0
    1.3910  -13.7750    1.2830 C   0  0  0  0  0  0  0  0  0  0  0  0
    0.2580  -13.1640    1.8270 C   0  0  0  0  0  0  0  0  0  0  0  0
   -0.1690  -11.9240    1.3510 C   0  0  0  0  0  0  0  0  0  0  0  0
    0.5410  -11.2860    0.3290 C   0  0  0  0  0  0  0  0  0  0  0  0
    0.1110   -9.9480   -0.2140 C   0  0  0  0  0  0  0  0  0  0  0  0
   -1.2400   -9.9200   -0.4590 F   0  0  0  0  0  0  0  0  0  0  0  0
    0.6960   -9.6460   -1.4020 F   0  0  0  0  0  0  0  0  0  0  0  0
    0.3510   -8.9060    0.6230 F   0  0  0  0  0  0  0  0  0  0  0  0
    1.6930  -11.9030   -0.1910 C   0  0  0  0  0  0  0  0  0  0  0  0
    6.8950  -14.3470   -0.4760 C   0  0  0  0  0  0  0  0  0  0  0  0
    7.8110  -15.1440   -1.1800 C   0  0  0  0  0  0  0  0  0  0  0  0
    9.2020  -15.1310   -0.9020 N   0  0  0  0  0  0  0  0  0  0  0  0
   10.0760  -14.0980   -1.0010 C   0  0  0  0  0  0  0  0  0  0  0  0
   10.2770  -13.2790    0.0020 N   0  0  0  0  0  0  0  0  0  0  0  0
   11.3290  -12.4910   -0.3600 C   0  0  0  0  0  0  0  0  0  0  0  0
   11.9840  -11.5050    0.3930 C   0  0  0  0  0  0  0  0  0  0  0  0
   13.0580  -10.8190   -0.1750 C   0  0  0  0  0  0  0  0  0  0  0  0
   13.4690  -11.1050   -1.4740 C   0  0  0  0  0  0  0  0  0  0  0  0
   12.8210  -12.0790   -2.2420 C   0  0  0  0  0  0  0  0  0  0  0  0
   11.7460  -12.7750   -1.6580 C   0  0  0  0  0  0  0  0  0  0  0  0
   10.8460  -13.7430   -2.1150 N   0  0  0  0  0  0  0  0  0  0  0  0
   10.7630  -14.2220   -3.4670 C   0  0  0  0  0  0  0  0  0  0  0  0
    9.6810  -13.9260   -4.2760 C   0  0  0  0  0  0  0  0  0  0  0  0
    9.6850  -14.4440   -5.5600 C   0  0  0  0  0  0  0  0  0  0  0  0
    8.5600  -14.2970   -6.3740 N   0  0  0  0  0  0  0  0  0  0  0  0
    7.2330  -14.7370   -5.8830 C   0  0  0  0  0  0  0  0  0  0  0  0
    6.0490  -13.8570   -6.3590 C   0  0  0  0  0  0  0  0  0  0  0  0
    5.2720  -13.3270   -5.1640 N   0  0  0  0  0  0  0  0  0  0  0  0
    5.8220  -12.0560   -4.5550 C   0  0  0  0  0  0  0  0  0  0  0  0
    5.1590  -11.8080   -3.1810 C   0  0  0  0  0  0  0  0  0  0  0  0
    3.6370  -11.8550   -3.2490 N   0  0  0  0  0  0  0  0  0  0  0  0
    2.9920  -10.5450   -3.6030 C   0  0  0  0  0  0  0  0  0  0  0  0
    3.0710  -13.0480   -4.0080 C   0  0  0  0  0  0  0  0  0  0  0  0
    3.7730  -13.2650   -5.3680 C   0  0  0  0  0  0  0  0  0  0  0  0
   10.6640  -15.2460   -6.0030 N   0  0  0  0  0  0  0  0  0  0  0  0
   11.7130  -15.4080   -5.1840 C   0  0  0  0  0  0  0  0  0  0  0  0
   11.7900  -14.9640   -3.9320 N   0  0  0  0  0  0  0  0  0  0  0  0
    8.8565  -17.5270   -2.2687 H   0  0  0  0  0  0  0  0  0  0  0  0
    7.6409  -17.6038   -3.5890 H   0  0  0  0  0  0  0  0  0  0  0  0
    8.8863  -16.3094   -3.5890 H   0  0  0  0  0  0  0  0  0  0  0  0
    5.5639  -16.7649   -3.2213 H   0  0  0  0  0  0  0  0  0  0  0  0
    3.9640  -15.3478   -1.9400 H   0  0  0  0  0  0  0  0  0  0  0  0
    3.0090  -14.5200   -0.9960 H   0  0  0  0  0  0  0  0  0  0  0  0
    1.7155  -14.7555    1.6615 H   0  0  0  0  0  0  0  0  0  0  0  0
   -0.2993  -13.6627    2.6337 H   0  0  0  0  0  0  0  0  0  0  0  0
   -1.0636  -11.4485    1.7794 H   0  0  0  0  0  0  0  0  0  0  0  0
    2.2728  -11.3894   -0.9721 H   0  0  0  0  0  0  0  0  0  0  0  0
    7.2577  -13.6530    0.2966 H   0  0  0  0  0  0  0  0  0  0  0  0
    9.6330  -16.0160   -1.1730 H   0  0  0  0  0  0  0  0  0  0  0  0
   11.6553  -11.2758    1.4174 H   0  0  0  0  0  0  0  0  0  0  0  0
   13.5832  -10.0475    0.4071 H   0  0  0  0  0  0  0  0  0  0  0  0
   14.3188  -10.5552   -1.9047 H   0  0  0  0  0  0  0  0  0  0  0  0
   13.1423  -12.2943   -3.2718 H   0  0  0  0  0  0  0  0  0  0  0  0
    8.8498  -13.3034   -3.9135 H   0  0  0  0  0  0  0  0  0  0  0  0
    8.7380  -14.5980   -7.3350 H   0  0  0  0  0  0  0  0  0  0  0  0
    7.0601  -15.7651   -6.2339 H   0  0  0  0  0  0  0  0  0  0  0  0
    7.2621  -14.6568   -4.7863 H   0  0  0  0  0  0  0  0  0  0  0  0
    6.4381  -13.0102   -6.9434 H   0  0  0  0  0  0  0  0  0  0  0  0
    5.3772  -14.4668   -6.9809 H   0  0  0  0  0  0  0  0  0  0  0  0
    5.4490  -14.0930   -4.4890 H   0  0  0  0  0  0  0  0  0  0  0  0
    6.9097  -12.1542   -4.4238 H   0  0  0  0  0  0  0  0  0  0  0  0
    5.6057  -11.2087   -5.2224 H   0  0  0  0  0  0  0  0  0  0  0  0
    5.5045  -12.5805   -2.4783 H   0  0  0  0  0  0  0  0  0  0  0  0
    5.4472  -10.7999   -2.8485 H   0  0  0  0  0  0  0  0  0  0  0  0
    3.3550  -12.0360   -2.2550 H   0  0  0  0  0  0  0  0  0  0  0  0
    2.7267  -10.0061   -2.6815 H   0  0  0  0  0  0  0  0  0  0  0  0
    3.6943   -9.9382   -4.1933 H   0  0  0  0  0  0  0  0  0  0  0  0
    2.0828  -10.7316   -4.1933 H   0  0  0  0  0  0  0  0  0  0  0  0
    3.2013  -13.9517   -3.3945 H   0  0  0  0  0  0  0  0  0  0  0  0
    2.0079  -12.8469   -4.2064 H   0  0  0  0  0  0  0  0  0  0  0  0
    3.4251  -14.2091   -5.8126 H   0  0  0  0  0  0  0  0  0  0  0  0
    3.5310  -12.4289   -6.0405 H   0  0  0  0  0  0  0  0  0  0  0  0
   12.5824  -15.9533   -5.5800 H   0  0  0  0  0  0  0  0  0  0  0  0
  1  2  1  0
  2  3  2  0
  3  4  1  0
  4  5  2  0
  5  6  1  0
  6  7  2  0
  6  8  1  0
  8  9  1  0
  9 10  2  0
 10 11  1  0
 11 12  2  0
 12 13  1  0
 13 14  1  0
 14 15  1  0
 14 16  1  0
 14 17  1  0
 13 18  2  0
  5 19  1  0
 19 20  2  0
 20 21  1  0
 21 22  1  0
 22 23  2  0
 23 24  1  0
 24 25  2  0
 25 26  1  0
 26 27  2  0
 27 28  1  0
 28 29  2  0
 29 30  1  0
 30 31  1  0
 31 32  2  0
 32 33  1  0
 33 34  1  0
 34 35  1  0
 35 36  1  0
 36 37  1  0
 37 38  1  0
 38 39  1  0
 39 40  1  0
 40 41  1  0
 40 42  1  0
 42 43  1  0
 33 44  2  0
 44 45  1  0
 45 46  2  0
 20  2  1  0
 30 22  1  0
 46 31  1  0
 18  9  1  0
 29 24  1  0
 43 37  1  0
  1 47  1  0
  1 48  1  0
  1 49  1  0
  3 50  1  0
  4 51  1  0
  8 52  1  0
 10 53  1  0
 11 54  1  0
 12 55  1  0
 18 56  1  0
 19 57  1  0
 21 58  1  0
 25 59  1  0
 26 60  1  0
 27 61  1  0
 28 62  1  0
 32 63  1  0
 34 64  1  0
 35 65  1  0
 35 66  1  0
 36 67  1  0
 36 68  1  0
 37 69  1  0
 38 70  1  0
 38 71  1  0
 39 72  1  0
 39 73  1  0
 40 74  1  0
 41 75  1  0
 41 76  1  0
 41 77  1  0
 42 78  1  0
 42 79  1  0
 43 80  1  0
 43 81  1  0
 45 82  1  0
M  CHG  2  37   1  40   1
M  END
>  <meeko>  (3) 
{"is_sidechain": [false], "free_energy": -8.775, "intermolecular_energy": -13.808, "internal_energy": -3.292}

$$$$
LIB_VKGKEHUDLZDBMP__M_PUB_ALL__e8__s20260927
     RDKit          3D

 82 87  0  0  0  0  0  0  0  0999 V2000
   13.4010  -13.9390  -13.1230 C   0  0  0  0  0  0  0  0  0  0  0  0
   13.5990  -14.2700  -11.6630 C   0  0  0  0  0  0  0  0  0  0  0  0
   14.9140  -14.3590  -11.1740 C   0  0  0  0  0  0  0  0  0  0  0  0
   15.1530  -14.6590   -9.8370 C   0  0  0  0  0  0  0  0  0  0  0  0
   14.0750  -14.8930   -8.9830 C   0  0  0  0  0  0  0  0  0  0  0  0
   14.3420  -15.0620   -7.5360 C   0  0  0  0  0  0  0  0  0  0  0  0
   15.5210  -15.1810   -7.2020 O   0  0  0  0  0  0  0  0  0  0  0  0
   13.2360  -14.9980   -6.7180 N   0  0  0  0  0  0  0  0  0  0  0  0
   13.2200  -14.9810   -5.3070 C   0  0  0  0  0  0  0  0  0  0  0  0
   13.5010  -16.1760   -4.6380 C   0  0  0  0  0  0  0  0  0  0  0  0
   13.4640  -16.2370   -3.2420 C   0  0  0  0  0  0  0  0  0  0  0  0
   13.1380  -15.1040   -2.4970 C   0  0  0  0  0  0  0  0  0  0  0  0
   12.8510  -13.8990   -3.1480 C   0  0  0  0  0  0  0  0  0  0  0  0
   12.4920  -12.6530   -2.3790 C   0  0  0  0  0  0  0  0  0  0  0  0
   12.0650  -12.9570   -1.1100 F   0  0  0  0  0  0  0  0  0  0  0  0
   11.4700  -11.9600   -2.9440 F   0  0  0  0  0  0  0  0  0  0  0  0
   13.5220  -11.7840   -2.2190 F   0  0  0  0  0  0  0  0  0  0  0  0
   12.9170  -13.8480   -4.5520 C   0  0  0  0  0  0  0  0  0  0  0  0
   12.7600  -14.8340   -9.4620 C   0  0  0  0  0  0  0  0  0  0  0  0
   12.5010  -14.5320  -10.8070 C   0  0  0  0  0  0  0  0  0  0  0  0
   11.1840  -14.4130  -11.3210 N   0  0  0  0  0  0  0  0  0  0  0  0
   10.3030  -13.3950  -11.1640 C   0  0  0  0  0  0  0  0  0  0  0  0
   10.5600  -12.1960  -11.6280 N   0  0  0  0  0  0  0  0  0  0  0  0
    9.4130  -11.4770  -11.4700 C   0  0  0  0  0  0  0  0  0  0  0  0
    9.1420  -10.1610  -11.8760 C   0  0  0  0  0  0  0  0  0  0  0  0
    7.8810   -9.6180  -11.6220 C   0  0  0  0  0  0  0  0  0  0  0  0
    6.9090  -10.3700  -10.9690 C   0  0  0  0  0  0  0  0  0  0  0  0
    7.1660  -11.6810  -10.5490 C   0  0  0  0  0  0  0  0  0  0  0  0
    8.4360  -12.2250  -10.8190 C   0  0  0  0  0  0  0  0  0  0  0  0
    9.0630  -13.4380  -10.5150 N   0  0  0  0  0  0  0  0  0  0  0  0
    8.5080  -14.4700   -9.6850 C   0  0  0  0  0  0  0  0  0  0  0  0
    8.0640  -14.2070   -8.4010 C   0  0  0  0  0  0  0  0  0  0  0  0
    7.5560  -15.2700   -7.6730 C   0  0  0  0  0  0  0  0  0  0  0  0
    7.2230  -15.0960   -6.3280 N   0  0  0  0  0  0  0  0  0  0  0  0
    6.0350  -15.7800   -5.7690 C   0  0  0  0  0  0  0  0  0  0  0  0
    5.6250  -15.3000   -4.3520 C   0  0  0  0  0  0  0  0  0  0  0  0
    5.3390  -13.8060   -4.3650 N   0  0  0  0  0  0  0  0  0  0  0  0
    4.1800  -13.3830   -5.2390 C   0  0  0  0  0  0  0  0  0  0  0  0
    4.1990  -11.8490   -5.4220 C   0  0  0  0  0  0  0  0  0  0  0  0
    4.2800  -11.1020   -4.0960 N   0  0  0  0  0  0  0  0  0  0  0  0
    2.9500  -10.8340   -3.4530 C   0  0  0  0  0  0  0  0  0  0  0  0
    5.3380  -11.6280   -3.1340 C   0  0  0  0  0  0  0  0  0  0  0  0
    5.2890  -13.1660   -2.9930 C   0  0  0  0  0  0  0  0  0  0  0  0
    7.5360  -16.5210   -8.1550 N   0  0  0  0  0  0  0  0  0  0  0  0
    7.9040  -16.6680   -9.4360 C   0  0  0  0  0  0  0  0  0  0  0  0
    8.4180  -15.7110  -10.2050 N   0  0  0  0  0  0  0  0  0  0  0  0
   12.8382  -12.9981  -13.2126 H   0  0  0  0  0  0  0  0  0  0  0  0
   14.3811  -13.8278  -13.6100 H   0  0  0  0  0  0  0  0  0  0  0  0
   12.8395  -14.7499  -13.6100 H   0  0  0  0  0  0  0  0  0  0  0  0
   15.7614  -14.1899  -11.8547 H   0  0  0  0  0  0  0  0  0  0  0  0
   16.1836  -14.7113   -9.4561 H   0  0  0  0  0  0  0  0  0  0  0  0
   12.3220  -14.9670   -7.1630 H   0  0  0  0  0  0  0  0  0  0  0  0
   13.7537  -17.0772   -5.2159 H   0  0  0  0  0  0  0  0  0  0  0  0
   13.6930  -17.1827   -2.7289 H   0  0  0  0  0  0  0  0  0  0  0  0
   13.1065  -15.1575   -1.3988 H   0  0  0  0  0  0  0  0  0  0  0  0
   12.7256  -12.8943   -5.0656 H   0  0  0  0  0  0  0  0  0  0  0  0
   11.9218  -15.0265   -8.7762 H   0  0  0  0  0  0  0  0  0  0  0  0
   10.7150  -15.3200  -11.3240 H   0  0  0  0  0  0  0  0  0  0  0  0
    9.9126   -9.5655  -12.3874 H   0  0  0  0  0  0  0  0  0  0  0  0
    7.6545   -8.5896  -11.9400 H   0  0  0  0  0  0  0  0  0  0  0  0
    5.9205   -9.9264  -10.7792 H   0  0  0  0  0  0  0  0  0  0  0  0
    6.3983  -12.2682  -10.0238 H   0  0  0  0  0  0  0  0  0  0  0  0
    8.1126  -13.1938   -7.9755 H   0  0  0  0  0  0  0  0  0  0  0  0
    7.2770  -14.1150   -6.0420 H   0  0  0  0  0  0  0  0  0  0  0  0
    5.1876  -15.6078   -6.4489 H   0  0  0  0  0  0  0  0  0  0  0  0
    6.3010  -16.8432   -5.6748 H   0  0  0  0  0  0  0  0  0  0  0  0
    4.7214  -15.8400   -4.0329 H   0  0  0  0  0  0  0  0  0  0  0  0
    6.4498  -15.5012   -3.6526 H   0  0  0  0  0  0  0  0  0  0  0  0
    6.2060  -13.4670   -4.8190 H   0  0  0  0  0  0  0  0  0  0  0  0
    4.2664  -13.8696   -6.2217 H   0  0  0  0  0  0  0  0  0  0  0  0
    3.2353  -13.6813   -4.7610 H   0  0  0  0  0  0  0  0  0  0  0  0
    5.0725  -11.5778   -6.0332 H   0  0  0  0  0  0  0  0  0  0  0  0
    3.2568  -11.5598   -5.9105 H   0  0  0  0  0  0  0  0  0  0  0  0
    4.6440  -10.1570   -4.3710 H   0  0  0  0  0  0  0  0  0  0  0  0
    3.0606  -10.8563   -2.3588 H   0  0  0  0  0  0  0  0  0  0  0  0
    2.5849   -9.8442   -3.7646 H   0  0  0  0  0  0  0  0  0  0  0  0
    2.2301  -11.6051   -3.7646 H   0  0  0  0  0  0  0  0  0  0  0  0
    6.3312  -11.3384   -3.5076 H   0  0  0  0  0  0  0  0  0  0  0  0
    5.1389  -11.1926   -2.1437 H   0  0  0  0  0  0  0  0  0  0  0  0
    6.1500  -13.5064   -2.3991 H   0  0  0  0  0  0  0  0  0  0  0  0
    4.3551  -13.4562   -2.4893 H   0  0  0  0  0  0  0  0  0  0  0  0
    7.7700  -17.6615   -9.8887 H   0  0  0  0  0  0  0  0  0  0  0  0
  1  2  1  0
  2  3  2  0
  3  4  1  0
  4  5  2  0
  5  6  1  0
  6  7  2  0
  6  8  1  0
  8  9  1  0
  9 10  2  0
 10 11  1  0
 11 12  2  0
 12 13  1  0
 13 14  1  0
 14 15  1  0
 14 16  1  0
 14 17  1  0
 13 18  2  0
  5 19  1  0
 19 20  2  0
 20 21  1  0
 21 22  1  0
 22 23  2  0
 23 24  1  0
 24 25  2  0
 25 26  1  0
 26 27  2  0
 27 28  1  0
 28 29  2  0
 29 30  1  0
 30 31  1  0
 31 32  2  0
 32 33  1  0
 33 34  1  0
 34 35  1  0
 35 36  1  0
 36 37  1  0
 37 38  1  0
 38 39  1  0
 39 40  1  0
 40 41  1  0
 40 42  1  0
 42 43  1  0
 33 44  2  0
 44 45  1  0
 45 46  2  0
 20  2  1  0
 30 22  1  0
 46 31  1  0
 18  9  1  0
 29 24  1  0
 43 37  1  0
  1 47  1  0
  1 48  1  0
  1 49  1  0
  3 50  1  0
  4 51  1  0
  8 52  1  0
 10 53  1  0
 11 54  1  0
 12 55  1  0
 18 56  1  0
 19 57  1  0
 21 58  1  0
 25 59  1  0
 26 60  1  0
 27 61  1  0
 28 62  1  0
 32 63  1  0
 34 64  1  0
 35 65  1  0
 35 66  1  0
 36 67  1  0
 36 68  1  0
 37 69  1  0
 38 70  1  0
 38 71  1  0
 39 72  1  0
 39 73  1  0
 40 74  1  0
 41 75  1  0
 41 76  1  0
 41 77  1  0
 42 78  1  0
 42 79  1  0
 43 80  1  0
 43 81  1  0
 45 82  1  0
M  CHG  2  37   1  40   1
M  END
>  <meeko>  (4) 
{"is_sidechain": [false], "free_energy": -8.676, "intermolecular_energy": -14.559, "internal_energy": -2.385}

$$$$
LIB_VKGKEHUDLZDBMP__M_PUB_ALL__e8__s20260927
     RDKit          3D

 82 87  0  0  0  0  0  0  0  0999 V2000
    4.7930  -11.8370   -5.8870 C   0  0  0  0  0  0  0  0  0  0  0  0
    4.1480  -11.7500   -4.5250 C   0  0  0  0  0  0  0  0  0  0  0  0
    2.9660  -11.0010   -4.3950 C   0  0  0  0  0  0  0  0  0  0  0  0
    2.3290  -10.8910   -3.1630 C   0  0  0  0  0  0  0  0  0  0  0  0
    2.8860  -11.5120   -2.0450 C   0  0  0  0  0  0  0  0  0  0  0  0
    2.1190  -11.5090   -0.7780 C   0  0  0  0  0  0  0  0  0  0  0  0
    2.7250  -11.8570    0.2350 O   0  0  0  0  0  0  0  0  0  0  0  0
    0.8240  -11.0480   -0.8700 N   0  0  0  0  0  0  0  0  0  0  0  0
   -0.0710  -10.8040    0.1940 C   0  0  0  0  0  0  0  0  0  0  0  0
    0.0190   -9.5740    0.8510 C   0  0  0  0  0  0  0  0  0  0  0  0
   -0.8120   -9.2830    1.9370 C   0  0  0  0  0  0  0  0  0  0  0  0
   -1.7390  -10.2250    2.3840 C   0  0  0  0  0  0  0  0  0  0  0  0
   -1.8430  -11.4630    1.7410 C   0  0  0  0  0  0  0  0  0  0  0  0
   -2.8310  -12.5070    2.1950 C   0  0  0  0  0  0  0  0  0  0  0  0
   -3.8540  -11.9440    2.9170 F   0  0  0  0  0  0  0  0  0  0  0  0
   -2.2790  -13.4330    3.0210 F   0  0  0  0  0  0  0  0  0  0  0  0
   -3.4280  -13.1830    1.1810 F   0  0  0  0  0  0  0  0  0  0  0  0
   -1.0170  -11.7300    0.6350 C   0  0  0  0  0  0  0  0  0  0  0  0
    4.0780  -12.2400   -2.1530 C   0  0  0  0  0  0  0  0  0  0  0  0
    4.7320  -12.3630   -3.3880 C   0  0  0  0  0  0  0  0  0  0  0  0
    5.9130  -13.1310   -3.5500 N   0  0  0  0  0  0  0  0  0  0  0  0
    6.1980  -14.3610   -3.0570 C   0  0  0  0  0  0  0  0  0  0  0  0
    5.8120  -15.4490   -3.6780 N   0  0  0  0  0  0  0  0  0  0  0  0
    6.4110  -16.4870   -3.0280 C   0  0  0  0  0  0  0  0  0  0  0  0
    6.3810  -17.8530   -3.3470 C   0  0  0  0  0  0  0  0  0  0  0  0
    7.0830  -18.7530   -2.5440 C   0  0  0  0  0  0  0  0  0  0  0  0
    7.7970  -18.3010   -1.4380 C   0  0  0  0  0  0  0  0  0  0  0  0
    7.8300  -16.9430   -1.1010 C   0  0  0  0  0  0  0  0  0  0  0  0
    7.1290  -16.0400   -1.9220 C   0  0  0  0  0  0  0  0  0  0  0  0
    6.8880  -14.6630   -1.8760 N   0  0  0  0  0  0  0  0  0  0  0  0
    7.2760  -13.7920   -0.8030 C   0  0  0  0  0  0  0  0  0  0  0  0
    8.4990  -13.1440   -0.8000 C   0  0  0  0  0  0  0  0  0  0  0  0
    8.7890  -12.3340    0.2850 C   0  0  0  0  0  0  0  0  0  0  0  0
   10.0590  -11.7670    0.4110 N   0  0  0  0  0  0  0  0  0  0  0  0
   11.2540  -12.5390   -0.0010 C   0  0  0  0  0  0  0  0  0  0  0  0
   12.3520  -11.6970   -0.7000 C   0  0  0  0  0  0  0  0  0  0  0  0
   12.9910  -12.4960   -1.8250 N   0  0  0  0  0  0  0  0  0  0  0  0
   12.1920  -13.6880   -2.2990 C   0  0  0  0  0  0  0  0  0  0  0  0
   13.0760  -14.5860   -3.1930 C   0  0  0  0  0  0  0  0  0  0  0  0
   13.7530  -13.8090   -4.3150 N   0  0  0  0  0  0  0  0  0  0  0  0
   12.9290  -13.6780   -5.5630 C   0  0  0  0  0  0  0  0  0  0  0  0
   14.4230  -12.5140   -3.8770 C   0  0  0  0  0  0  0  0  0  0  0  0
   13.5080  -11.6550   -2.9750 C   0  0  0  0  0  0  0  0  0  0  0  0
    7.9530  -12.2110    1.3270 N   0  0  0  0  0  0  0  0  0  0  0  0
    6.7570  -12.8030    1.2000 C   0  0  0  0  0  0  0  0  0  0  0  0
    6.3980  -13.6100    0.2050 N   0  0  0  0  0  0  0  0  0  0  0  0
    5.8770  -11.9832   -5.7707 H   0  0  0  0  0  0  0  0  0  0  0  0
    4.3659  -12.6857   -6.4414 H   0  0  0  0  0  0  0  0  0  0  0  0
    4.6061  -10.9055   -6.4414 H   0  0  0  0  0  0  0  0  0  0  0  0
    2.5406  -10.4971   -5.2754 H   0  0  0  0  0  0  0  0  0  0  0  0
    1.3939  -10.3191   -3.0713 H   0  0  0  0  0  0  0  0  0  0  0  0
    0.4540  -10.8660   -1.8000 H   0  0  0  0  0  0  0  0  0  0  0  0
    0.7511   -8.8271    0.5103 H   0  0  0  0  0  0  0  0  0  0  0  0
   -0.7347   -8.3081    2.4407 H   0  0  0  0  0  0  0  0  0  0  0  0
   -2.3879   -9.9943    3.2418 H   0  0  0  0  0  0  0  0  0  0  0  0
   -1.1187  -12.6892    0.1062 H   0  0  0  0  0  0  0  0  0  0  0  0
    4.5055  -12.7201   -1.2604 H   0  0  0  0  0  0  0  0  0  0  0  0
    6.7380  -12.5280   -3.5580 H   0  0  0  0  0  0  0  0  0  0  0  0
    5.8119  -18.2097   -4.2182 H   0  0  0  0  0  0  0  0  0  0  0  0
    7.0720  -19.8259   -2.7866 H   0  0  0  0  0  0  0  0  0  0  0  0
    8.3456  -19.0246   -0.8172 H   0  0  0  0  0  0  0  0  0  0  0  0
    8.3875  -16.5917   -0.2202 H   0  0  0  0  0  0  0  0  0  0  0  0
    9.2130  -13.2677   -1.6276 H   0  0  0  0  0  0  0  0  0  0  0  0
   10.1860  -11.3070    1.3160 H   0  0  0  0  0  0  0  0  0  0  0  0
   11.6927  -12.9987    0.8969 H   0  0  0  0  0  0  0  0  0  0  0  0
   10.9100  -13.2795   -0.7381 H   0  0  0  0  0  0  0  0  0  0  0  0
   11.9005  -10.7835   -1.1143 H   0  0  0  0  0  0  0  0  0  0  0  0
   13.1252  -11.4334    0.0367 H   0  0  0  0  0  0  0  0  0  0  0  0
   13.8230  -12.8610   -1.3280 H   0  0  0  0  0  0  0  0  0  0  0  0
   11.8462  -14.2656   -1.4291 H   0  0  0  0  0  0  0  0  0  0  0  0
   11.3251  -13.3380   -2.8786 H   0  0  0  0  0  0  0  0  0  0  0  0
   13.8525  -15.0506   -2.5676 H   0  0  0  0  0  0  0  0  0  0  0  0
   12.4236  -15.3407   -3.6564 H   0  0  0  0  0  0  0  0  0  0  0  0
   14.5580  -14.4250   -4.5860 H   0  0  0  0  0  0  0  0  0  0  0  0
   11.8763  -13.5106   -5.2914 H   0  0  0  0  0  0  0  0  0  0  0  0
   13.2945  -12.8267   -6.1560 H   0  0  0  0  0  0  0  0  0  0  0  0
   13.0125  -14.6007   -6.1560 H   0  0  0  0  0  0  0  0  0  0  0  0
   15.3385  -12.7606   -3.3193 H   0  0  0  0  0  0  0  0  0  0  0  0
   14.6481  -11.9295   -4.7813 H   0  0  0  0  0  0  0  0  0  0  0  0
   14.0807  -10.8042   -2.5774 H   0  0  0  0  0  0  0  0  0  0  0  0
   12.6580  -11.2835   -3.5661 H   0  0  0  0  0  0  0  0  0  0  0  0
    6.0105  -12.6052    1.9834 H   0  0  0  0  0  0  0  0  0  0  0  0
  1  2  1  0
  2  3  2  0
  3  4  1  0
  4  5  2  0
  5  6  1  0
  6  7  2  0
  6  8  1  0
  8  9  1  0
  9 10  2  0
 10 11  1  0
 11 12  2  0
 12 13  1  0
 13 14  1  0
 14 15  1  0
 14 16  1  0
 14 17  1  0
 13 18  2  0
  5 19  1  0
 19 20  2  0
 20 21  1  0
 21 22  1  0
 22 23  2  0
 23 24  1  0
 24 25  2  0
 25 26  1  0
 26 27  2  0
 27 28  1  0
 28 29  2  0
 29 30  1  0
 30 31  1  0
 31 32  2  0
 32 33  1  0
 33 34  1  0
 34 35  1  0
 35 36  1  0
 36 37  1  0
 37 38  1  0
 38 39  1  0
 39 40  1  0
 40 41  1  0
 40 42  1  0
 42 43  1  0
 33 44  2  0
 44 45  1  0
 45 46  2  0
 20  2  1  0
 30 22  1  0
 46 31  1  0
 18  9  1  0
 29 24  1  0
 43 37  1  0
  1 47  1  0
  1 48  1  0
  1 49  1  0
  3 50  1  0
  4 51  1  0
  8 52  1  0
 10 53  1  0
 11 54  1  0
 12 55  1  0
 18 56  1  0
 19 57  1  0
 21 58  1  0
 25 59  1  0
 26 60  1  0
 27 61  1  0
 28 62  1  0
 32 63  1  0
 34 64  1  0
 35 65  1  0
 35 66  1  0
 36 67  1  0
 36 68  1  0
 37 69  1  0
 38 70  1  0
 38 71  1  0
 39 72  1  0
 39 73  1  0
 40 74  1  0
 41 75  1  0
 41 76  1  0
 41 77  1  0
 42 78  1  0
 42 79  1  0
 43 80  1  0
 43 81  1  0
 45 82  1  0
M  CHG  2  37   1  40   1
M  END
>  <meeko>  (5) 
{"is_sidechain": [false], "free_energy": -8.633, "intermolecular_energy": -14.603, "internal_energy": -2.272}

$$$$
LIB_VKGKEHUDLZDBMP__M_PUB_ALL__e8__s20260927
     RDKit          3D

 82 87  0  0  0  0  0  0  0  0999 V2000
    5.3790  -17.7370    0.7150 C   0  0  0  0  0  0  0  0  0  0  0  0
    3.9920  -17.1550    0.8530 C   0  0  0  0  0  0  0  0  0  0  0  0
    3.1660  -17.6430    1.8790 C   0  0  0  0  0  0  0  0  0  0  0  0
    1.8800  -17.1400    2.0530 C   0  0  0  0  0  0  0  0  0  0  0  0
    1.4040  -16.1590    1.1830 C   0  0  0  0  0  0  0  0  0  0  0  0
    0.0940  -15.5320    1.4730 C   0  0  0  0  0  0  0  0  0  0  0  0
   -0.3120  -15.6110    2.6320 O   0  0  0  0  0  0  0  0  0  0  0  0
   -0.4910  -14.8670    0.4180 N   0  0  0  0  0  0  0  0  0  0  0  0
   -1.6530  -14.0670    0.4540 C   0  0  0  0  0  0  0  0  0  0  0  0
   -2.8910  -14.7160    0.4550 C   0  0  0  0  0  0  0  0  0  0  0  0
   -4.0800  -13.9810    0.4520 C   0  0  0  0  0  0  0  0  0  0  0  0
   -4.0460  -12.5870    0.4390 C   0  0  0  0  0  0  0  0  0  0  0  0
   -2.8170  -11.9190    0.4360 C   0  0  0  0  0  0  0  0  0  0  0  0
   -2.7370  -10.4140    0.4200 C   0  0  0  0  0  0  0  0  0  0  0  0
   -1.6030   -9.9810   -0.2220 F   0  0  0  0  0  0  0  0  0  0  0  0
   -2.6710   -9.8750    1.6650 F   0  0  0  0  0  0  0  0  0  0  0  0
   -3.7710   -9.8100   -0.2200 F   0  0  0  0  0  0  0  0  0  0  0  0
   -1.6290  -12.6720    0.4640 C   0  0  0  0  0  0  0  0  0  0  0  0
    2.2060  -15.6820    0.1380 C   0  0  0  0  0  0  0  0  0  0  0  0
    3.5050  -16.1770   -0.0500 C   0  0  0  0  0  0  0  0  0  0  0  0
    4.3680  -15.6860   -1.0640 N   0  0  0  0  0  0  0  0  0  0  0  0
    4.2090  -14.5970   -1.8560 C   0  0  0  0  0  0  0  0  0  0  0  0
    3.7040  -14.7010   -3.0610 N   0  0  0  0  0  0  0  0  0  0  0  0
    3.5120  -13.4250   -3.5010 C   0  0  0  0  0  0  0  0  0  0  0  0
    2.9260  -12.9920   -4.7000 C   0  0  0  0  0  0  0  0  0  0  0  0
    2.8180  -11.6220   -4.9460 C   0  0  0  0  0  0  0  0  0  0  0  0
    3.2920  -10.7000   -4.0170 C   0  0  0  0  0  0  0  0  0  0  0  0
    3.8870  -11.1160   -2.8200 C   0  0  0  0  0  0  0  0  0  0  0  0
    3.9820  -12.4980   -2.5740 C   0  0  0  0  0  0  0  0  0  0  0  0
    4.5450  -13.2720   -1.5540 N   0  0  0  0  0  0  0  0  0  0  0  0
    5.3160  -12.7580   -0.4570 C   0  0  0  0  0  0  0  0  0  0  0  0
    6.5550  -12.1740   -0.6520 C   0  0  0  0  0  0  0  0  0  0  0  0
    7.2300  -11.7200    0.4690 C   0  0  0  0  0  0  0  0  0  0  0  0
    8.5400  -11.2500    0.3500 N   0  0  0  0  0  0  0  0  0  0  0  0
    9.6240  -11.8900    1.1290 C   0  0  0  0  0  0  0  0  0  0  0  0
   11.0550  -11.5310    0.6510 C   0  0  0  0  0  0  0  0  0  0  0  0
   11.2860  -12.0540   -0.7580 N   0  0  0  0  0  0  0  0  0  0  0  0
   12.6760  -11.8250   -1.3070 C   0  0  0  0  0  0  0  0  0  0  0  0
   12.6870  -12.0970   -2.8280 C   0  0  0  0  0  0  0  0  0  0  0  0
   12.0960  -13.4560   -3.1830 N   0  0  0  0  0  0  0  0  0  0  0  0
   13.0830  -14.5880   -3.1500 C   0  0  0  0  0  0  0  0  0  0  0  0
   10.7700  -13.7710   -2.5030 C   0  0  0  0  0  0  0  0  0  0  0  0
   10.8020  -13.4710   -0.9880 C   0  0  0  0  0  0  0  0  0  0  0  0
    6.7420  -11.8780    1.7080 N   0  0  0  0  0  0  0  0  0  0  0  0
    5.4990  -12.3730    1.7960 C   0  0  0  0  0  0  0  0  0  0  0  0
    4.7850  -12.8490    0.7800 N   0  0  0  0  0  0  0  0  0  0  0  0
    5.8031  -17.9149    1.7143 H   0  0  0  0  0  0  0  0  0  0  0  0
    5.3245  -18.6881    0.1651 H   0  0  0  0  0  0  0  0  0  0  0  0
    6.0195  -17.0318    0.1651 H   0  0  0  0  0  0  0  0  0  0  0  0
    3.5390  -18.4299    2.5511 H   0  0  0  0  0  0  0  0  0  0  0  0
    1.2444  -17.5129    2.8697 H   0  0  0  0  0  0  0  0  0  0  0  0
   -0.0550  -14.9590   -0.4960 H   0  0  0  0  0  0  0  0  0  0  0  0
   -2.9299  -15.8153    0.4582 H   0  0  0  0  0  0  0  0  0  0  0  0
   -5.0472  -14.5048    0.4599 H   0  0  0  0  0  0  0  0  0  0  0  0
   -4.9845  -12.0134    0.4311 H   0  0  0  0  0  0  0  0  0  0  0  0
   -0.6611  -12.1502    0.4944 H   0  0  0  0  0  0  0  0  0  0  0  0
    1.8132  -14.9116   -0.5419 H   0  0  0  0  0  0  0  0  0  0  0  0
    4.8090  -16.4570   -1.5670 H   0  0  0  0  0  0  0  0  0  0  0  0
    2.5569  -13.7216   -5.4358 H   0  0  0  0  0  0  0  0  0  0  0  0
    2.3556  -11.2690   -5.8796 H   0  0  0  0  0  0  0  0  0  0  0  0
    3.1973   -9.6245   -4.2274 H   0  0  0  0  0  0  0  0  0  0  0  0
    4.2690  -10.3839   -2.0932 H   0  0  0  0  0  0  0  0  0  0  0  0
    6.9873  -12.0741   -1.6585 H   0  0  0  0  0  0  0  0  0  0  0  0
    8.5860  -10.2290    0.3850 H   0  0  0  0  0  0  0  0  0  0  0  0
    9.5236  -11.5777    2.1789 H   0  0  0  0  0  0  0  0  0  0  0  0
    9.5104  -12.9754    0.9915 H   0  0  0  0  0  0  0  0  0  0  0  0
   11.1762  -10.4377    0.6569 H   0  0  0  0  0  0  0  0  0  0  0  0
   11.7863  -11.9943    1.3296 H   0  0  0  0  0  0  0  0  0  0  0  0
   10.6430  -11.4330   -1.2810 H   0  0  0  0  0  0  0  0  0  0  0  0
   12.9760  -10.7834   -1.1197 H   0  0  0  0  0  0  0  0  0  0  0  0
   13.3809  -12.5077   -0.8099 H   0  0  0  0  0  0  0  0  0  0  0  0
   12.0990  -11.3147   -3.3303 H   0  0  0  0  0  0  0  0  0  0  0  0
   13.7355  -12.0918   -3.1605 H   0  0  0  0  0  0  0  0  0  0  0  0
   11.8370  -13.3520   -4.1950 H   0  0  0  0  0  0  0  0  0  0  0  0
   13.3089  -14.8471   -2.1051 H   0  0  0  0  0  0  0  0  0  0  0  0
   12.6544  -15.4631   -3.6604 H   0  0  0  0  0  0  0  0  0  0  0  0
   14.0084  -14.2826   -3.6604 H   0  0  0  0  0  0  0  0  0  0  0  0
    9.9807  -13.1618   -2.9676 H   0  0  0  0  0  0  0  0  0  0  0  0
   10.5743  -14.8461   -2.6290 H   0  0  0  0  0  0  0  0  0  0  0  0
    9.7902  -13.5839   -0.5715 H   0  0  0  0  0  0  0  0  0  0  0  0
   11.4865  -14.1747   -0.4918 H   0  0  0  0  0  0  0  0  0  0  0  0
    5.0309  -12.3865    2.7913 H   0  0  0  0  0  0  0  0  0  0  0  0
  1  2  1  0
  2  3  2  0
  3  4  1  0
  4  5  2  0
  5  6  1  0
  6  7  2  0
  6  8  1  0
  8  9  1  0
  9 10  2  0
 10 11  1  0
 11 12  2  0
 12 13  1  0
 13 14  1  0
 14 15  1  0
 14 16  1  0
 14 17  1  0
 13 18  2  0
  5 19  1  0
 19 20  2  0
 20 21  1  0
 21 22  1  0
 22 23  2  0
 23 24  1  0
 24 25  2  0
 25 26  1  0
 26 27  2  0
 27 28  1  0
 28 29  2  0
 29 30  1  0
 30 31  1  0
 31 32  2  0
 32 33  1  0
 33 34  1  0
 34 35  1  0
 35 36  1  0
 36 37  1  0
 37 38  1  0
 38 39  1  0
 39 40  1  0
 40 41  1  0
 40 42  1  0
 42 43  1  0
 33 44  2  0
 44 45  1  0
 45 46  2  0
 20  2  1  0
 30 22  1  0
 46 31  1  0
 18  9  1  0
 29 24  1  0
 43 37  1  0
  1 47  1  0
  1 48  1  0
  1 49  1  0
  3 50  1  0
  4 51  1  0
  8 52  1  0
 10 53  1  0
 11 54  1  0
 12 55  1  0
 18 56  1  0
 19 57  1  0
 21 58  1  0
 25 59  1  0
 26 60  1  0
 27 61  1  0
 28 62  1  0
 32 63  1  0
 34 64  1  0
 35 65  1  0
 35 66  1  0
 36 67  1  0
 36 68  1  0
 37 69  1  0
 38 70  1  0
 38 71  1  0
 39 72  1  0
 39 73  1  0
 40 74  1  0
 41 75  1  0
 41 76  1  0
 41 77  1  0
 42 78  1  0
 42 79  1  0
 43 80  1  0
 43 81  1  0
 45 82  1  0
M  CHG  2  37   1  40   1
M  END
>  <meeko>  (6) 
{"is_sidechain": [false], "free_energy": -8.553, "intermolecular_energy": -14.404, "internal_energy": -2.345}

$$$$
LIB_VKGKEHUDLZDBMP__M_PUB_ALL__e8__s20260927
     RDKit          3D

 82 87  0  0  0  0  0  0  0  0999 V2000
    7.1120  -19.4830   -4.3750 C   0  0  0  0  0  0  0  0  0  0  0  0
    7.8340  -18.3040   -3.7680 C   0  0  0  0  0  0  0  0  0  0  0  0
    8.7220  -18.5430   -2.7050 C   0  0  0  0  0  0  0  0  0  0  0  0
    9.4160  -17.4920   -2.1120 C   0  0  0  0  0  0  0  0  0  0  0  0
    9.2070  -16.1900   -2.5660 C   0  0  0  0  0  0  0  0  0  0  0  0
   10.0610  -15.1080   -2.0260 C   0  0  0  0  0  0  0  0  0  0  0  0
   10.1940  -15.0670   -0.8020 O   0  0  0  0  0  0  0  0  0  0  0  0
   10.6670  -14.3060   -2.9660 N   0  0  0  0  0  0  0  0  0  0  0  0
   11.6360  -13.3040   -2.7360 C   0  0  0  0  0  0  0  0  0  0  0  0
   12.5620  -13.0480   -3.7520 C   0  0  0  0  0  0  0  0  0  0  0  0
   13.5690  -12.0960   -3.5740 C   0  0  0  0  0  0  0  0  0  0  0  0
   13.6680  -11.3940   -2.3720 C   0  0  0  0  0  0  0  0  0  0  0  0
   12.7540  -11.6380   -1.3430 C   0  0  0  0  0  0  0  0  0  0  0  0
   12.8290  -10.9010   -0.0300 C   0  0  0  0  0  0  0  0  0  0  0  0
   14.0270  -11.1270    0.6000 F   0  0  0  0  0  0  0  0  0  0  0  0
   11.8790  -11.3000    0.8550 F   0  0  0  0  0  0  0  0  0  0  0  0
   12.7250   -9.5530   -0.1440 F   0  0  0  0  0  0  0  0  0  0  0  0
   11.7300  -12.5800   -1.5470 C   0  0  0  0  0  0  0  0  0  0  0  0
    8.3060  -15.9330   -3.6060 C   0  0  0  0  0  0  0  0  0  0  0  0
    7.5990  -16.9800   -4.2170 C   0  0  0  0  0  0  0  0  0  0  0  0
    6.7150  -16.7690   -5.3060 N   0  0  0  0  0  0  0  0  0  0  0  0
    6.9010  -16.0060   -6.4110 C   0  0  0  0  0  0  0  0  0  0  0  0
    7.5970  -16.4450   -7.4310 N   0  0  0  0  0  0  0  0  0  0  0  0
    7.4310  -15.5260   -8.4240 C   0  0  0  0  0  0  0  0  0  0  0  0
    7.9080  -15.5670   -9.7430 C   0  0  0  0  0  0  0  0  0  0  0  0
    7.6070  -14.5120  -10.6070 C   0  0  0  0  0  0  0  0  0  0  0  0
    6.8500  -13.4320  -10.1620 C   0  0  0  0  0  0  0  0  0  0  0  0
    6.3740  -13.3710   -8.8470 C   0  0  0  0  0  0  0  0  0  0  0  0
    6.6720  -14.4440   -7.9860 C   0  0  0  0  0  0  0  0  0  0  0  0
    6.4290  -14.7060   -6.6340 N   0  0  0  0  0  0  0  0  0  0  0  0
    5.8320  -13.7860   -5.7070 C   0  0  0  0  0  0  0  0  0  0  0  0
    6.6000  -13.0260   -4.8430 C   0  0  0  0  0  0  0  0  0  0  0  0
    5.9330  -12.1760   -3.9770 C   0  0  0  0  0  0  0  0  0  0  0  0
    6.6440  -11.4900   -2.9900 N   0  0  0  0  0  0  0  0  0  0  0  0
    7.7680  -12.1570   -2.2940 C   0  0  0  0  0  0  0  0  0  0  0  0
    7.8390  -11.8720   -0.7710 C   0  0  0  0  0  0  0  0  0  0  0  0
    7.3210  -13.0680    0.0130 N   0  0  0  0  0  0  0  0  0  0  0  0
    6.4940  -12.7260    1.2320 C   0  0  0  0  0  0  0  0  0  0  0  0
    6.3110  -13.9860    2.1070 C   0  0  0  0  0  0  0  0  0  0  0  0
    5.7830  -15.1760    1.3150 N   0  0  0  0  0  0  0  0  0  0  0  0
    4.2860  -15.2390    1.2150 C   0  0  0  0  0  0  0  0  0  0  0  0
    6.5020  -15.4320   -0.0040 C   0  0  0  0  0  0  0  0  0  0  0  0
    6.6750  -14.1420   -0.8370 C   0  0  0  0  0  0  0  0  0  0  0  0
    4.5940  -12.1160   -3.9260 N   0  0  0  0  0  0  0  0  0  0  0  0
    3.9340  -12.8200   -4.8560 C   0  0  0  0  0  0  0  0  0  0  0  0
    4.4870  -13.6730   -5.7150 N   0  0  0  0  0  0  0  0  0  0  0  0
    6.7189  -20.1249   -3.5728 H   0  0  0  0  0  0  0  0  0  0  0  0
    6.2796  -19.1225   -4.9972 H   0  0  0  0  0  0  0  0  0  0  0  0
    7.8115  -20.0606   -4.9972 H   0  0  0  0  0  0  0  0  0  0  0  0
    8.8699  -19.5695   -2.3385 H   0  0  0  0  0  0  0  0  0  0  0  0
   10.1232  -17.6868   -1.2923 H   0  0  0  0  0  0  0  0  0  0  0  0
   10.3940  -14.4300   -3.9380 H   0  0  0  0  0  0  0  0  0  0  0  0
   12.4970  -13.6014   -4.7004 H   0  0  0  0  0  0  0  0  0  0  0  0
   14.2864  -11.8991   -4.3843 H   0  0  0  0  0  0  0  0  0  0  0  0
   14.4652  -10.6487   -2.2343 H   0  0  0  0  0  0  0  0  0  0  0  0
   10.9879  -12.7495   -0.7529 H   0  0  0  0  0  0  0  0  0  0  0  0
    8.1505  -14.8992   -3.9480 H   0  0  0  0  0  0  0  0  0  0  0  0
    5.7470  -16.7370   -4.9830 H   0  0  0  0  0  0  0  0  0  0  0  0
    8.5108  -16.4185  -10.0917 H   0  0  0  0  0  0  0  0  0  0  0  0
    7.9702  -14.5346  -11.6451 H   0  0  0  0  0  0  0  0  0  0  0  0
    6.6214  -12.6106  -10.8571 H   0  0  0  0  0  0  0  0  0  0  0  0
    5.7848  -12.5105   -8.4970 H   0  0  0  0  0  0  0  0  0  0  0  0
    7.6979  -13.0943   -4.8439 H   0  0  0  0  0  0  0  0  0  0  0  0
    6.0240  -10.9960   -2.3430 H   0  0  0  0  0  0  0  0  0  0  0  0
    7.6648  -13.2429   -2.4362 H   0  0  0  0  0  0  0  0  0  0  0  0
    8.6924  -11.7527   -2.7322 H   0  0  0  0  0  0  0  0  0  0  0  0
    8.8833  -11.6760   -0.4865 H   0  0  0  0  0  0  0  0  0  0  0  0
    7.2157  -10.9953   -0.5409 H   0  0  0  0  0  0  0  0  0  0  0  0
    8.2200  -13.4570    0.3500 H   0  0  0  0  0  0  0  0  0  0  0  0
    7.0071  -11.9471    1.8152 H   0  0  0  0  0  0  0  0  0  0  0  0
    5.5079  -12.3583    0.9119 H   0  0  0  0  0  0  0  0  0  0  0  0
    7.2838  -14.2566    2.5434 H   0  0  0  0  0  0  0  0  0  0  0  0
    5.5705  -13.7476    2.8848 H   0  0  0  0  0  0  0  0  0  0  0  0
    6.0500  -16.0000    1.9070 H   0  0  0  0  0  0  0  0  0  0  0  0
    3.8515  -15.2573    2.2254 H   0  0  0  0  0  0  0  0  0  0  0  0
    3.9172  -14.3556    0.6732 H   0  0  0  0  0  0  0  0  0  0  0  0
    3.9927  -16.1503    0.6732 H   0  0  0  0  0  0  0  0  0  0  0  0
    7.4963  -15.8507    0.2105 H   0  0  0  0  0  0  0  0  0  0  0  0
    5.8896  -16.1323   -0.5910 H   0  0  0  0  0  0  0  0  0  0  0  0
    7.3132  -14.3521   -1.7080 H   0  0  0  0  0  0  0  0  0  0  0  0
    5.6888  -13.7931   -1.1771 H   0  0  0  0  0  0  0  0  0  0  0  0
    2.8443  -12.6812   -4.9142 H   0  0  0  0  0  0  0  0  0  0  0  0
  1  2  1  0
  2  3  2  0
  3  4  1  0
  4  5  2  0
  5  6  1  0
  6  7  2  0
  6  8  1  0
  8  9  1  0
  9 10  2  0
 10 11  1  0
 11 12  2  0
 12 13  1  0
 13 14  1  0
 14 15  1  0
 14 16  1  0
 14 17  1  0
 13 18  2  0
  5 19  1  0
 19 20  2  0
 20 21  1  0
 21 22  1  0
 22 23  2  0
 23 24  1  0
 24 25  2  0
 25 26  1  0
 26 27  2  0
 27 28  1  0
 28 29  2  0
 29 30  1  0
 30 31  1  0
 31 32  2  0
 32 33  1  0
 33 34  1  0
 34 35  1  0
 35 36  1  0
 36 37  1  0
 37 38  1  0
 38 39  1  0
 39 40  1  0
 40 41  1  0
 40 42  1  0
 42 43  1  0
 33 44  2  0
 44 45  1  0
 45 46  2  0
 20  2  1  0
 30 22  1  0
 46 31  1  0
 18  9  1  0
 29 24  1  0
 43 37  1  0
  1 47  1  0
  1 48  1  0
  1 49  1  0
  3 50  1  0
  4 51  1  0
  8 52  1  0
 10 53  1  0
 11 54  1  0
 12 55  1  0
 18 56  1  0
 19 57  1  0
 21 58  1  0
 25 59  1  0
 26 60  1  0
 27 61  1  0
 28 62  1  0
 32 63  1  0
 34 64  1  0
 35 65  1  0
 35 66  1  0
 36 67  1  0
 36 68  1  0
 37 69  1  0
 38 70  1  0
 38 71  1  0
 39 72  1  0
 39 73  1  0
 40 74  1  0
 41 75  1  0
 41 76  1  0
 41 77  1  0
 42 78  1  0
 42 79  1  0
 43 80  1  0
 43 81  1  0
 45 82  1  0
M  CHG  2  37   1  40   1
M  END
>  <meeko>  (7) 
{"is_sidechain": [false], "free_energy": -8.495, "intermolecular_energy": -13.612, "internal_energy": -3.046}

$$$$
LIB_VKGKEHUDLZDBMP__M_PUB_ALL__e8__s20260927
     RDKit          3D

 82 87  0  0  0  0  0  0  0  0999 V2000
    7.8350  -17.2840   -1.8380 C   0  0  0  0  0  0  0  0  0  0  0  0
    6.9920  -16.0750   -1.5090 C   0  0  0  0  0  0  0  0  0  0  0  0
    5.6180  -16.1240   -1.7960 C   0  0  0  0  0  0  0  0  0  0  0  0
    4.7950  -15.0380   -1.5110 C   0  0  0  0  0  0  0  0  0  0  0  0
    5.3490  -13.8850   -0.9560 C   0  0  0  0  0  0  0  0  0  0  0  0
    4.4390  -12.8000   -0.5230 C   0  0  0  0  0  0  0  0  0  0  0  0
    4.9490  -11.8660    0.0960 O   0  0  0  0  0  0  0  0  0  0  0  0
    3.1290  -12.9300   -0.9250 N   0  0  0  0  0  0  0  0  0  0  0  0
    2.0940  -11.9810   -0.7780 C   0  0  0  0  0  0  0  0  0  0  0  0
    1.9530  -11.0110   -1.7750 C   0  0  0  0  0  0  0  0  0  0  0  0
    0.9740  -10.0200   -1.6720 C   0  0  0  0  0  0  0  0  0  0  0  0
    0.1270   -9.9810   -0.5640 C   0  0  0  0  0  0  0  0  0  0  0  0
    0.2530  -10.9400    0.4460 C   0  0  0  0  0  0  0  0  0  0  0  0
   -0.6410  -10.9310    1.6590 C   0  0  0  0  0  0  0  0  0  0  0  0
   -0.2240  -11.8480    2.5920 F   0  0  0  0  0  0  0  0  0  0  0  0
   -1.9240  -11.2710    1.3730 F   0  0  0  0  0  0  0  0  0  0  0  0
   -0.6800   -9.7410    2.3100 F   0  0  0  0  0  0  0  0  0  0  0  0
    1.2270  -11.9460    0.3150 C   0  0  0  0  0  0  0  0  0  0  0  0
    6.7220  -13.8110   -0.6890 C   0  0  0  0  0  0  0  0  0  0  0  0
    7.5660  -14.8970   -0.9690 C   0  0  0  0  0  0  0  0  0  0  0  0
    8.9520  -14.8810   -0.6680 N   0  0  0  0  0  0  0  0  0  0  0  0
    9.8000  -13.8230   -0.6380 C   0  0  0  0  0  0  0  0  0  0  0  0
    9.7360  -12.9270    0.3170 N   0  0  0  0  0  0  0  0  0  0  0  0
   10.8260  -12.1250    0.1540 C   0  0  0  0  0  0  0  0  0  0  0  0
   11.2570  -11.0610    0.9610 C   0  0  0  0  0  0  0  0  0  0  0  0
   12.4210  -10.3730    0.6120 C   0  0  0  0  0  0  0  0  0  0  0  0
   13.1380  -10.7340   -0.5250 C   0  0  0  0  0  0  0  0  0  0  0  0
   12.7160  -11.7860   -1.3460 C   0  0  0  0  0  0  0  0  0  0  0  0
   11.5480  -12.4830   -0.9810 C   0  0  0  0  0  0  0  0  0  0  0  0
   10.8070  -13.5170   -1.5610 N   0  0  0  0  0  0  0  0  0  0  0  0
   11.0630  -14.0940   -2.8510 C   0  0  0  0  0  0  0  0  0  0  0  0
   10.4180  -13.6420   -3.9890 C   0  0  0  0  0  0  0  0  0  0  0  0
   10.7200  -14.2690   -5.1850 C   0  0  0  0  0  0  0  0  0  0  0  0
   10.0010  -13.9520   -6.3390 N   0  0  0  0  0  0  0  0  0  0  0  0
    9.2920  -15.0190   -7.0820 C   0  0  0  0  0  0  0  0  0  0  0  0
    7.9040  -15.3920   -6.5000 C   0  0  0  0  0  0  0  0  0  0  0  0
    7.1460  -14.1360   -6.1000 N   0  0  0  0  0  0  0  0  0  0  0  0
    5.9510  -13.8050   -6.9660 C   0  0  0  0  0  0  0  0  0  0  0  0
    5.4760  -12.3650   -6.6680 C   0  0  0  0  0  0  0  0  0  0  0  0
    5.2500  -12.1200   -5.1810 N   0  0  0  0  0  0  0  0  0  0  0  0
    3.8780  -12.4880   -4.6930 C   0  0  0  0  0  0  0  0  0  0  0  0
    6.3780  -12.6020   -4.2780 C   0  0  0  0  0  0  0  0  0  0  0  0
    6.8290  -14.0400   -4.6220 C   0  0  0  0  0  0  0  0  0  0  0  0
   11.5630  -15.3110   -5.2520 N   0  0  0  0  0  0  0  0  0  0  0  0
   12.2070  -15.6240   -4.1190 C   0  0  0  0  0  0  0  0  0  0  0  0
   11.9700  -15.0900   -2.9240 N   0  0  0  0  0  0  0  0  0  0  0  0
    8.1689  -17.7629   -0.9057 H   0  0  0  0  0  0  0  0  0  0  0  0
    7.2383  -17.9986   -2.4240 H   0  0  0  0  0  0  0  0  0  0  0  0
    8.7118  -16.9712   -2.4240 H   0  0  0  0  0  0  0  0  0  0  0  0
    5.1882  -17.0290   -2.2502 H   0  0  0  0  0  0  0  0  0  0  0  0
    3.7166  -15.0890   -1.7219 H   0  0  0  0  0  0  0  0  0  0  0  0
    2.8570  -13.8020   -1.3720 H   0  0  0  0  0  0  0  0  0  0  0  0
    2.6199  -11.0284   -2.6496 H   0  0  0  0  0  0  0  0  0  0  0  0
    0.8704   -9.2674   -2.4675 H   0  0  0  0  0  0  0  0  0  0  0  0
   -0.6397   -9.1962   -0.4849 H   0  0  0  0  0  0  0  0  0  0  0  0
    1.3071  -12.7219    1.0906 H   0  0  0  0  0  0  0  0  0  0  0  0
    7.1433  -12.8921   -0.2553 H   0  0  0  0  0  0  0  0  0  0  0  0
    9.4090  -15.7200   -1.0280 H   0  0  0  0  0  0  0  0  0  0  0  0
   10.6860  -10.7729    1.8560 H   0  0  0  0  0  0  0  0  0  0  0  0
   12.7733   -9.5409    1.2393 H   0  0  0  0  0  0  0  0  0  0  0  0
   14.0537  -10.1820   -0.7833 H   0  0  0  0  0  0  0  0  0  0  0  0
   13.2800  -12.0603   -2.2497 H   0  0  0  0  0  0  0  0  0  0  0  0
    9.6930  -12.8159   -3.9445 H   0  0  0  0  0  0  0  0  0  0  0  0
   10.5240  -13.3290   -6.9590 H   0  0  0  0  0  0  0  0  0  0  0  0
    9.1504  -14.6802   -8.1189 H   0  0  0  0  0  0  0  0  0  0  0  0
    9.9164  -15.9215   -7.0069 H   0  0  0  0  0  0  0  0  0  0  0  0
    7.3263  -15.9381   -7.2603 H   0  0  0  0  0  0  0  0  0  0  0  0
    8.0463  -16.0232   -5.6104 H   0  0  0  0  0  0  0  0  0  0  0  0
    7.8730  -13.4250   -6.2940 H   0  0  0  0  0  0  0  0  0  0  0  0
    6.2340  -13.8849   -8.0260 H   0  0  0  0  0  0  0  0  0  0  0  0
    5.1358  -14.5105   -6.7477 H   0  0  0  0  0  0  0  0  0  0  0  0
    6.2392  -11.6601   -7.0295 H   0  0  0  0  0  0  0  0  0  0  0  0
    4.5139  -12.2181   -7.1805 H   0  0  0  0  0  0  0  0  0  0  0  0
    5.2960  -11.0750   -5.0970 H   0  0  0  0  0  0  0  0  0  0  0  0
    3.8685  -12.4905   -3.5930 H   0  0  0  0  0  0  0  0  0  0  0  0
    3.1477  -11.7540   -5.0643 H   0  0  0  0  0  0  0  0  0  0  0  0
    3.6130  -13.4890   -5.0643 H   0  0  0  0  0  0  0  0  0  0  0  0
    7.2371  -11.9246   -4.3924 H   0  0  0  0  0  0  0  0  0  0  0  0
    6.0042  -12.6043   -3.2435 H   0  0  0  0  0  0  0  0  0  0  0  0
    7.7270  -14.2910   -4.0384 H   0  0  0  0  0  0  0  0  0  0  0  0
    6.0201  -14.7439   -4.3765 H   0  0  0  0  0  0  0  0  0  0  0  0
   12.9976  -16.3862   -4.1827 H   0  0  0  0  0  0  0  0  0  0  0  0
  1  2  1  0
  2  3  2  0
  3  4  1  0
  4  5  2  0
  5  6  1  0
  6  7  2  0
  6  8  1  0
  8  9  1  0
  9 10  2  0
 10 11  1  0
 11 12  2  0
 12 13  1  0
 13 14  1  0
 14 15  1  0
 14 16  1  0
 14 17  1  0
 13 18  2  0
  5 19  1  0
 19 20  2  0
 20 21  1  0
 21 22  1  0
 22 23  2  0
 23 24  1  0
 24 25  2  0
 25 26  1  0
 26 27  2  0
 27 28  1  0
 28 29  2  0
 29 30  1  0
 30 31  1  0
 31 32  2  0
 32 33  1  0
 33 34  1  0
 34 35  1  0
 35 36  1  0
 36 37  1  0
 37 38  1  0
 38 39  1  0
 39 40  1  0
 40 41  1  0
 40 42  1  0
 42 43  1  0
 33 44  2  0
 44 45  1  0
 45 46  2  0
 20  2  1  0
 30 22  1  0
 46 31  1  0
 18  9  1  0
 29 24  1  0
 43 37  1  0
  1 47  1  0
  1 48  1  0
  1 49  1  0
  3 50  1  0
  4 51  1  0
  8 52  1  0
 10 53  1  0
 11 54  1  0
 12 55  1  0
 18 56  1  0
 19 57  1  0
 21 58  1  0
 25 59  1  0
 26 60  1  0
 27 61  1  0
 28 62  1  0
 32 63  1  0
 34 64  1  0
 35 65  1  0
 35 66  1  0
 36 67  1  0
 36 68  1  0
 37 69  1  0
 38 70  1  0
 38 71  1  0
 39 72  1  0
 39 73  1  0
 40 74  1  0
 41 75  1  0
 41 76  1  0
 41 77  1  0
 42 78  1  0
 42 79  1  0
 43 80  1  0
 43 81  1  0
 45 82  1  0
M  CHG  2  37   1  40   1
M  END
>  <meeko>  (8) 
{"is_sidechain": [false], "free_energy": -8.466, "intermolecular_energy": -13.683, "internal_energy": -2.929}

$$$$
LIB_VKGKEHUDLZDBMP__M_PUB_ALL__e8__s20260927
     RDKit          3D

 82 87  0  0  0  0  0  0  0  0999 V2000
   13.7430  -14.9120   -8.5630 C   0  0  0  0  0  0  0  0  0  0  0  0
   12.2870  -14.7410   -8.2010 C   0  0  0  0  0  0  0  0  0  0  0  0
   11.3520  -14.6210   -9.2440 C   0  0  0  0  0  0  0  0  0  0  0  0
    9.9980  -14.4650   -8.9660 C   0  0  0  0  0  0  0  0  0  0  0  0
    9.5720  -14.4050   -7.6390 C   0  0  0  0  0  0  0  0  0  0  0  0
    8.1180  -14.3880   -7.3630 C   0  0  0  0  0  0  0  0  0  0  0  0
    7.3920  -14.9390   -8.1910 O   0  0  0  0  0  0  0  0  0  0  0  0
    7.7480  -13.8130   -6.1680 N   0  0  0  0  0  0  0  0  0  0  0  0
    6.4580  -13.7940   -5.5940 C   0  0  0  0  0  0  0  0  0  0  0  0
    5.9240  -15.0080   -5.1520 C   0  0  0  0  0  0  0  0  0  0  0  0
    4.6380  -15.0650   -4.6080 C   0  0  0  0  0  0  0  0  0  0  0  0
    3.8650  -13.9080   -4.5080 C   0  0  0  0  0  0  0  0  0  0  0  0
    4.3800  -12.6840   -4.9470 C   0  0  0  0  0  0  0  0  0  0  0  0
    3.5760  -11.4120   -4.8580 C   0  0  0  0  0  0  0  0  0  0  0  0
    2.2310  -11.6770   -4.7880 F   0  0  0  0  0  0  0  0  0  0  0  0
    3.7270  -10.6140   -5.9460 F   0  0  0  0  0  0  0  0  0  0  0  0
    3.8560  -10.6550   -3.7670 F   0  0  0  0  0  0  0  0  0  0  0  0
    5.6860  -12.6390   -5.4680 C   0  0  0  0  0  0  0  0  0  0  0  0
   10.4950  -14.4960   -6.5890 C   0  0  0  0  0  0  0  0  0  0  0  0
   11.8640  -14.6550   -6.8510 C   0  0  0  0  0  0  0  0  0  0  0  0
   12.8250  -14.8020   -5.8180 N   0  0  0  0  0  0  0  0  0  0  0  0
   12.8850  -14.1660   -4.6220 C   0  0  0  0  0  0  0  0  0  0  0  0
   13.6490  -13.1140   -4.4490 N   0  0  0  0  0  0  0  0  0  0  0  0
   13.3360  -12.6210   -3.2170 C   0  0  0  0  0  0  0  0  0  0  0  0
   13.8180  -11.4610   -2.5920 C   0  0  0  0  0  0  0  0  0  0  0  0
   13.3500  -11.1320   -1.3180 C   0  0  0  0  0  0  0  0  0  0  0  0
   12.4220  -11.9480   -0.6760 C   0  0  0  0  0  0  0  0  0  0  0  0
   11.9380  -13.1130   -1.2830 C   0  0  0  0  0  0  0  0  0  0  0  0
   12.4060  -13.4320   -2.5720 C   0  0  0  0  0  0  0  0  0  0  0  0
   12.2050  -14.5050   -3.4460 N   0  0  0  0  0  0  0  0  0  0  0  0
   11.4610  -15.6930   -3.1380 C   0  0  0  0  0  0  0  0  0  0  0  0
   10.0810  -15.6790   -3.0380 C   0  0  0  0  0  0  0  0  0  0  0  0
    9.4520  -16.8730   -2.7240 C   0  0  0  0  0  0  0  0  0  0  0  0
    8.0790  -16.8910   -2.4730 N   0  0  0  0  0  0  0  0  0  0  0  0
    7.5510  -16.2990   -1.2230 C   0  0  0  0  0  0  0  0  0  0  0  0
    6.3550  -15.3320   -1.4250 C   0  0  0  0  0  0  0  0  0  0  0  0
    6.8310  -13.8890   -1.3810 N   0  0  0  0  0  0  0  0  0  0  0  0
    5.7330  -12.8500   -1.4200 C   0  0  0  0  0  0  0  0  0  0  0  0
    6.3440  -11.4580   -1.6970 C   0  0  0  0  0  0  0  0  0  0  0  0
    7.4830  -11.1180   -0.7440 N   0  0  0  0  0  0  0  0  0  0  0  0
    7.0460  -10.4790    0.5430 C   0  0  0  0  0  0  0  0  0  0  0  0
    8.5140  -12.2260   -0.5650 C   0  0  0  0  0  0  0  0  0  0  0  0
    7.8580  -13.6010   -0.3050 C   0  0  0  0  0  0  0  0  0  0  0  0
   10.1400  -17.9960   -2.4710 N   0  0  0  0  0  0  0  0  0  0  0  0
   11.4630  -17.9390   -2.6760 C   0  0  0  0  0  0  0  0  0  0  0  0
   12.1530  -16.8380   -2.9610 N   0  0  0  0  0  0  0  0  0  0  0  0
   14.3435  -14.9825   -7.6440 H   0  0  0  0  0  0  0  0  0  0  0  0
   13.8683  -15.8310   -9.1543 H   0  0  0  0  0  0  0  0  0  0  0  0
   14.0778  -14.0470   -9.1543 H   0  0  0  0  0  0  0  0  0  0  0  0
   11.6941  -14.6507  -10.2890 H   0  0  0  0  0  0  0  0  0  0  0  0
    9.2689  -14.3895   -9.7862 H   0  0  0  0  0  0  0  0  0  0  0  0
    8.4700  -13.3380   -5.6300 H   0  0  0  0  0  0  0  0  0  0  0  0
    6.5221  -15.9276   -5.2332 H   0  0  0  0  0  0  0  0  0  0  0  0
    4.2337  -16.0260   -4.2573 H   0  0  0  0  0  0  0  0  0  0  0  0
    2.8512  -13.9583   -4.0842 H   0  0  0  0  0  0  0  0  0  0  0  0
    6.1072  -11.6728   -5.7826 H   0  0  0  0  0  0  0  0  0  0  0  0
   10.1426  -14.4422   -5.5484 H   0  0  0  0  0  0  0  0  0  0  0  0
   13.7560  -14.9570   -6.2100 H   0  0  0  0  0  0  0  0  0  0  0  0
   14.5543  -10.8196   -3.0984 H   0  0  0  0  0  0  0  0  0  0  0  0
   13.7166  -10.2230   -0.8187 H   0  0  0  0  0  0  0  0  0  0  0  0
   12.0627  -11.6722    0.3264 H   0  0  0  0  0  0  0  0  0  0  0  0
   11.2131  -13.7604   -0.7678 H   0  0  0  0  0  0  0  0  0  0  0  0
    9.5056  -14.7558   -3.2014 H   0  0  0  0  0  0  0  0  0  0  0  0
    7.6630  -17.8030   -2.6760 H   0  0  0  0  0  0  0  0  0  0  0  0
    7.2234  -17.1184   -0.5663 H   0  0  0  0  0  0  0  0  0  0  0  0
    8.3671  -15.7016   -0.7904 H   0  0  0  0  0  0  0  0  0  0  0  0
    5.8884  -15.5307   -2.4011 H   0  0  0  0  0  0  0  0  0  0  0  0
    5.6243  -15.4928   -0.6187 H   0  0  0  0  0  0  0  0  0  0  0  0
    7.3310  -13.8420   -2.2870 H   0  0  0  0  0  0  0  0  0  0  0  0
    5.0194  -13.1017   -2.2184 H   0  0  0  0  0  0  0  0  0  0  0  0
    5.2121  -12.8334   -0.4513 H   0  0  0  0  0  0  0  0  0  0  0  0
    6.7296  -11.4411   -2.7271 H   0  0  0  0  0  0  0  0  0  0  0  0
    5.5509  -10.7104   -1.5484 H   0  0  0  0  0  0  0  0  0  0  0  0
    8.0110  -10.3680   -1.2540 H   0  0  0  0  0  0  0  0  0  0  0  0
    7.4410  -11.0566    1.3918 H   0  0  0  0  0  0  0  0  0  0  0  0
    7.4298   -9.4492    0.5899 H   0  0  0  0  0  0  0  0  0  0  0  0
    5.9471  -10.4632    0.5899 H   0  0  0  0  0  0  0  0  0  0  0  0
    9.1243  -12.2921   -1.4778 H   0  0  0  0  0  0  0  0  0  0  0  0
    9.1288  -11.9752    0.3120 H   0  0  0  0  0  0  0  0  0  0  0  0
    8.6311  -14.3834   -0.3188 H   0  0  0  0  0  0  0  0  0  0  0  0
    7.3626  -13.5882    0.6770 H   0  0  0  0  0  0  0  0  0  0  0  0
   12.0255  -18.8814   -2.6025 H   0  0  0  0  0  0  0  0  0  0  0  0
  1  2  1  0
  2  3  2  0
  3  4  1  0
  4  5  2  0
  5  6  1  0
  6  7  2  0
  6  8  1  0
  8  9  1  0
  9 10  2  0
 10 11  1  0
 11 12  2  0
 12 13  1  0
 13 14  1  0
 14 15  1  0
 14 16  1  0
 14 17  1  0
 13 18  2  0
  5 19  1  0
 19 20  2  0
 20 21  1  0
 21 22  1  0
 22 23  2  0
 23 24  1  0
 24 25  2  0
 25 26  1  0
 26 27  2  0
 27 28  1  0
 28 29  2  0
 29 30  1  0
 30 31  1  0
 31 32  2  0
 32 33  1  0
 33 34  1  0
 34 35  1  0
 35 36  1  0
 36 37  1  0
 37 38  1  0
 38 39  1  0
 39 40  1  0
 40 41  1  0
 40 42  1  0
 42 43  1  0
 33 44  2  0
 44 45  1  0
 45 46  2  0
 20  2  1  0
 30 22  1  0
 46 31  1  0
 18  9  1  0
 29 24  1  0
 43 37  1  0
  1 47  1  0
  1 48  1  0
  1 49  1  0
  3 50  1  0
  4 51  1  0
  8 52  1  0
 10 53  1  0
 11 54  1  0
 12 55  1  0
 18 56  1  0
 19 57  1  0
 21 58  1  0
 25 59  1  0
 26 60  1  0
 27 61  1  0
 28 62  1  0
 32 63  1  0
 34 64  1  0
 35 65  1  0
 35 66  1  0
 36 67  1  0
 36 68  1  0
 37 69  1  0
 38 70  1  0
 38 71  1  0
 39 72  1  0
 39 73  1  0
 40 74  1  0
 41 75  1  0
 41 76  1  0
 41 77  1  0
 42 78  1  0
 42 79  1  0
 43 80  1  0
 43 81  1  0
 45 82  1  0
M  CHG  2  37   1  40   1
M  END
>  <meeko>  (9) 
{"is_sidechain": [false], "free_energy": -8.433, "intermolecular_energy": -13.004, "internal_energy": -3.555}

$$$$
