LIB_ZIYCBQPVLHOKPQ__M_PUB_ALL__e8__s20260927
     RDKit          3D

 74 80  0  0  0  0  0  0  0  0999 V2000
    7.3760  -14.1120   -8.2030 C   0  0  0  0  0  0  0  0  0  0  0  0
    6.6900  -14.1320   -6.8640 C   0  0  0  0  0  0  0  0  0  0  0  0
    6.9000  -15.0630   -5.9110 C   0  0  0  0  0  0  0  0  0  0  0  0
    7.7830  -16.2420   -6.0520 C   0  0  0  0  0  0  0  0  0  0  0  0
    7.4200  -17.3600   -6.3690 O   0  0  0  0  0  0  0  0  0  0  0  0
    9.0470  -15.8570   -5.7390 O   0  0  0  0  0  0  0  0  0  0  0  0
    9.2570  -15.2940   -4.4370 C   0  0  0  0  0  0  0  0  0  0  0  0
   10.6620  -14.6130   -4.2140 C   0  0  2  0  0  0  0  0  0  0  0  0
   11.1400  -14.0720   -5.6420 C   0  0  0  0  0  0  0  0  0  0  0  0
   11.8060  -15.1170   -6.5950 C   0  0  0  0  0  0  0  0  0  0  0  0
   12.8420  -15.8080   -5.7870 C   0  0  2  0  0  0  0  0  0  0  0  0
   14.1050  -15.0440   -5.4970 C   0  0  0  0  0  0  0  0  0  0  0  0
   13.0760  -17.1610   -5.4660 O   0  0  0  0  0  0  0  0  0  0  0  0
   11.9560  -16.6560   -4.8120 C   0  0  1  0  0  0  0  0  0  0  0  0
   11.6330  -15.7830   -3.6590 C   0  0  1  0  0  0  0  0  0  0  0  0
   12.8010  -15.3310   -2.9760 O   0  0  0  0  0  0  0  0  0  0  0  0
   12.5910  -14.2690   -2.0440 C   0  0  2  0  0  0  0  0  0  0  0  0
   11.4510  -14.5380   -1.0530 C   0  0  0  0  0  0  0  0  0  0  0  0
   10.1710  -13.9850   -1.7360 C   0  0  1  0  0  0  0  0  0  0  0  0
    9.5790  -12.9420   -0.9380 O   0  0  0  0  0  0  0  0  0  0  0  0
    8.4810  -13.2930   -0.2230 C   0  0  0  0  0  0  0  0  0  0  0  0
    8.0940  -14.4310   -0.0100 O   0  0  0  0  0  0  0  0  0  0  0  0
    7.7960  -12.1020    0.3200 C   0  0  0  0  0  0  0  0  0  0  0  0
    6.9790  -11.2770   -0.3600 C   0  0  0  0  0  0  0  0  0  0  0  0
    6.6020  -11.4020   -1.7520 C   0  0  0  0  0  0  0  0  0  0  0  0
    5.3550  -11.5920   -2.2090 C   0  0  0  0  0  0  0  0  0  0  0  0
    5.0790  -11.6750   -3.6800 C   0  0  1  0  0  0  0  0  0  0  0  0
    5.5600  -12.9220   -4.1860 O   0  0  0  0  0  0  0  0  0  0  0  0
    4.7920  -13.1340   -5.3800 C   0  0  2  0  0  0  0  0  0  0  0  0
    5.6760  -13.0120   -6.6370 C   0  0  0  0  0  0  0  0  0  0  0  0
    3.6760  -12.2330   -5.4240 O   0  0  0  0  0  0  0  0  0  0  0  0
    3.6190  -11.6820   -4.1010 C   0  0  2  0  0  0  0  0  0  0  0  0
    2.9770  -10.3090   -4.1310 C   0  0  0  0  0  0  0  0  0  0  0  0
   10.6400  -13.4190   -3.1380 C   0  0  2  0  0  0  0  0  0  0  0  0
    9.8680  -12.1710   -3.5920 C   0  0  0  0  0  0  0  0  0  0  0  0
   12.0930  -13.0970   -2.8110 C   0  0  2  0  0  0  0  0  0  0  0  0
   12.9780  -12.0270   -3.4120 C   0  0  0  0  0  0  0  0  0  0  0  0
   12.3210  -11.8360   -2.1540 O   0  0  0  0  0  0  0  0  0  0  0  0
    8.4657  -14.0802   -8.0563 H   0  0  0  0  0  0  0  0  0  0  0  0
    7.1081  -15.0183   -8.7658 H   0  0  0  0  0  0  0  0  0  0  0  0
    7.0557  -13.2228   -8.7658 H   0  0  0  0  0  0  0  0  0  0  0  0
    6.3734  -14.9359   -4.9536 H   0  0  0  0  0  0  0  0  0  0  0  0
    8.4804  -14.5339   -4.2665 H   0  0  0  0  0  0  0  0  0  0  0  0
    9.2127  -16.1366   -3.7313 H   0  0  0  0  0  0  0  0  0  0  0  0
   10.2581  -13.6638   -6.1573 H   0  0  0  0  0  0  0  0  0  0  0  0
   11.9250  -13.3324   -5.4259 H   0  0  0  0  0  0  0  0  0  0  0  0
   11.0572  -15.8386   -6.9536 H   0  0  0  0  0  0  0  0  0  0  0  0
   12.2433  -14.6325   -7.4805 H   0  0  0  0  0  0  0  0  0  0  0  0
   14.2418  -14.9613   -4.4087 H   0  0  0  0  0  0  0  0  0  0  0  0
   14.9632  -15.5745   -5.9351 H   0  0  0  0  0  0  0  0  0  0  0  0
   14.0335  -14.0376   -5.9351 H   0  0  0  0  0  0  0  0  0  0  0  0
   11.0632  -17.2507   -4.5686 H   0  0  0  0  0  0  0  0  0  0  0  0
   11.0979  -16.3350   -2.8723 H   0  0  0  0  0  0  0  0  0  0  0  0
   13.5432  -14.1357   -1.5096 H   0  0  0  0  0  0  0  0  0  0  0  0
   11.3512  -15.6172   -0.8651 H   0  0  0  0  0  0  0  0  0  0  0  0
   11.6341  -14.0596   -0.0795 H   0  0  0  0  0  0  0  0  0  0  0  0
    9.4061  -14.7669   -1.8526 H   0  0  0  0  0  0  0  0  0  0  0  0
    7.9704  -11.8675    1.3805 H   0  0  0  0  0  0  0  0  0  0  0  0
    6.5572  -10.4261    0.1950 H   0  0  0  0  0  0  0  0  0  0  0  0
    7.4068  -11.3355   -2.4990 H   0  0  0  0  0  0  0  0  0  0  0  0
    4.5240  -11.6882   -1.4947 H   0  0  0  0  0  0  0  0  0  0  0  0
    5.5652  -10.7673   -4.0668 H   0  0  0  0  0  0  0  0  0  0  0  0
    4.3950  -14.1597   -5.3629 H   0  0  0  0  0  0  0  0  0  0  0  0
    5.0108  -12.9799   -7.5125 H   0  0  0  0  0  0  0  0  0  0  0  0
    6.2744  -12.1013   -6.4869 H   0  0  0  0  0  0  0  0  0  0  0  0
    3.0002  -12.2462   -3.3877 H   0  0  0  0  0  0  0  0  0  0  0  0
    2.8130   -9.9583   -3.1014 H   0  0  0  0  0  0  0  0  0  0  0  0
    3.6397   -9.6058   -4.6567 H   0  0  0  0  0  0  0  0  0  0  0  0
    2.0125  -10.3666   -4.6567 H   0  0  0  0  0  0  0  0  0  0  0  0
    9.5225  -11.6124   -2.7096 H   0  0  0  0  0  0  0  0  0  0  0  0
   10.5282  -11.5309   -4.1958 H   0  0  0  0  0  0  0  0  0  0  0  0
    9.0005  -12.4759   -4.1958 H   0  0  0  0  0  0  0  0  0  0  0  0
   14.0682  -12.1676   -3.4521 H   0  0  0  0  0  0  0  0  0  0  0  0
   13.0186  -11.4854   -4.3686 H   0  0  0  0  0  0  0  0  0  0  0  0
  1  2  1  0
  2  3  2  0
  3  4  1  0
  4  5  2  0
  4  6  1  0
  6  7  1  0
  8  7  1  6
  8  9  1  0
  9 10  1  0
 10 11  1  0
 11 12  1  1
 11 13  1  0
 13 14  1  0
 14 15  1  0
 15 16  1  0
 16 17  1  0
 17 18  1  0
 18 19  1  0
 19 20  1  0
 20 21  1  0
 21 22  2  0
 21 23  1  0
 23 24  2  0
 24 25  1  0
 25 26  2  0
 26 27  1  0
 27 28  1  0
 28 29  1  0
 29 30  1  0
 29 31  1  0
 31 32  1  0
 32 33  1  0
 19 34  1  0
 34 35  1  6
 34 36  1  0
 36 37  1  0
 37 38  1  0
 30  2  1  0
 36 38  1  1
 15  8  1  0
 36 17  1  0
 34  8  1  0
 14 11  1  0
 32 27  1  0
  1 39  1  0
  1 40  1  0
  1 41  1  0
  3 42  1  0
  7 43  1  0
  7 44  1  0
  9 45  1  0
  9 46  1  0
 10 47  1  0
 10 48  1  0
 12 49  1  0
 12 50  1  0
 12 51  1  0
 14 52  1  6
 15 53  1  1
 17 54  1  1
 18 55  1  0
 18 56  1  0
 19 57  1  6
 23 58  1  0
 24 59  1  0
 25 60  1  0
 26 61  1  0
 27 62  1  6
 29 63  1  1
 30 64  1  0
 30 65  1  0
 32 66  1  1
 33 67  1  0
 33 68  1  0
 33 69  1  0
 35 70  1  0
 35 71  1  0
 35 72  1  0
 37 73  1  0
 37 74  1  0
M  END
>  <meeko>  (1) 
{"is_sidechain": [false], "free_energy": -6.824, "intermolecular_energy": -10.814, "internal_energy": -0.928}

$$$$
LIB_ZIYCBQPVLHOKPQ__M_PUB_ALL__e8__s20260927
     RDKit          3D

 74 80  0  0  0  0  0  0  0  0999 V2000
    2.8950  -11.1290   -4.3410 C   0  0  0  0  0  0  0  0  0  0  0  0
    2.9520  -12.6080   -4.6150 C   0  0  0  0  0  0  0  0  0  0  0  0
    3.9400  -13.2210   -5.2990 C   0  0  0  0  0  0  0  0  0  0  0  0
    5.0830  -12.5360   -5.9420 C   0  0  0  0  0  0  0  0  0  0  0  0
    5.0670  -12.0270   -7.0480 O   0  0  0  0  0  0  0  0  0  0  0  0
    6.1410  -12.6060   -5.0960 O   0  0  0  0  0  0  0  0  0  0  0  0
    5.9930  -13.4220   -3.9260 C   0  0  0  0  0  0  0  0  0  0  0  0
    7.2650  -14.2630   -3.5220 C   0  0  2  0  0  0  0  0  0  0  0  0
    8.0770  -14.5410   -4.8730 C   0  0  0  0  0  0  0  0  0  0  0  0
    7.5770  -15.7320   -5.7530 C   0  0  0  0  0  0  0  0  0  0  0  0
    7.4350  -16.8910   -4.8360 C   0  0  2  0  0  0  0  0  0  0  0  0
    8.7020  -17.5630   -4.3820 C   0  0  0  0  0  0  0  0  0  0  0  0
    6.3580  -17.7410   -4.5100 O   0  0  0  0  0  0  0  0  0  0  0  0
    6.1880  -16.4610   -3.9890 C   0  0  1  0  0  0  0  0  0  0  0  0
    6.6950  -15.6320   -2.8720 C   0  0  1  0  0  0  0  0  0  0  0  0
    7.6160  -16.3410   -2.0440 O   0  0  0  0  0  0  0  0  0  0  0  0
    8.3600  -15.5350   -1.1280 C   0  0  2  0  0  0  0  0  0  0  0  0
    7.4850  -14.5940   -0.2880 C   0  0  0  0  0  0  0  0  0  0  0  0
    7.3770  -13.2840   -1.1140 C   0  0  1  0  0  0  0  0  0  0  0  0
    7.9240  -12.1730   -0.3770 O   0  0  0  0  0  0  0  0  0  0  0  0
    7.0430  -11.2040   -0.0250 C   0  0  0  0  0  0  0  0  0  0  0  0
    6.8030  -10.1860   -0.6560 O   0  0  0  0  0  0  0  0  0  0  0  0
    6.3550  -11.5430    1.2370 C   0  0  0  0  0  0  0  0  0  0  0  0
    5.1110  -12.0400    1.3560 C   0  0  0  0  0  0  0  0  0  0  0  0
    4.2060  -12.3470    0.2570 C   0  0  0  0  0  0  0  0  0  0  0  0
    2.9510  -12.8030    0.3870 C   0  0  0  0  0  0  0  0  0  0  0  0
    2.0930  -13.0480   -0.8160 C   0  0  1  0  0  0  0  0  0  0  0  0
    2.9100  -13.4770   -1.9070 O   0  0  0  0  0  0  0  0  0  0  0  0
    2.0050  -14.1840   -2.7670 C   0  0  2  0  0  0  0  0  0  0  0  0
    1.7690  -13.4130   -4.0800 C   0  0  0  0  0  0  0  0  0  0  0  0
    0.7740  -14.4570   -2.0810 O   0  0  0  0  0  0  0  0  0  0  0  0
    1.0660  -14.1630   -0.7080 C   0  0  2  0  0  0  0  0  0  0  0  0
   -0.2000  -13.7700    0.0270 C   0  0  0  0  0  0  0  0  0  0  0  0
    8.2050  -13.5390   -2.4390 C   0  0  2  0  0  0  0  0  0  0  0  0
    8.9320  -12.2930   -2.9640 C   0  0  0  0  0  0  0  0  0  0  0  0
    9.1820  -14.5930   -1.9310 C   0  0  2  0  0  0  0  0  0  0  0  0
   10.5920  -14.8730   -2.4040 C   0  0  0  0  0  0  0  0  0  0  0  0
   10.3350  -14.0900   -1.2330 O   0  0  0  0  0  0  0  0  0  0  0  0
    2.8884  -10.9574   -3.2545 H   0  0  0  0  0  0  0  0  0  0  0  0
    3.7750  -10.6398   -4.7841 H   0  0  0  0  0  0  0  0  0  0  0  0
    1.9800  -10.7090   -4.7841 H   0  0  0  0  0  0  0  0  0  0  0  0
    3.8921  -14.3165   -5.3855 H   0  0  0  0  0  0  0  0  0  0  0  0
    5.7400  -12.7629   -3.0824 H   0  0  0  0  0  0  0  0  0  0  0  0
    5.2085  -14.1551   -4.1651 H   0  0  0  0  0  0  0  0  0  0  0  0
    8.0287  -13.6289   -5.4860 H   0  0  0  0  0  0  0  0  0  0  0  0
    9.0909  -14.8213   -4.5515 H   0  0  0  0  0  0  0  0  0  0  0  0
    6.6076  -15.4871   -6.2115 H   0  0  0  0  0  0  0  0  0  0  0  0
    8.2801  -15.9503   -6.5703 H   0  0  0  0  0  0  0  0  0  0  0  0
    8.7343  -17.5801   -3.2826 H   0  0  0  0  0  0  0  0  0  0  0  0
    8.7282  -18.5936   -4.7657 H   0  0  0  0  0  0  0  0  0  0  0  0
    9.5699  -17.0067   -4.7657 H   0  0  0  0  0  0  0  0  0  0  0  0
    5.2115  -15.9699   -3.8650 H   0  0  0  0  0  0  0  0  0  0  0  0
    5.8920  -15.3730   -2.1662 H   0  0  0  0  0  0  0  0  0  0  0  0
    8.9095  -16.2333   -0.4795 H   0  0  0  0  0  0  0  0  0  0  0  0
    6.4887  -15.0330   -0.1307 H   0  0  0  0  0  0  0  0  0  0  0  0
    7.9162  -14.4150    0.7080 H   0  0  0  0  0  0  0  0  0  0  0  0
    6.3296  -13.0319   -1.3365 H   0  0  0  0  0  0  0  0  0  0  0  0
    6.9136  -11.3727    2.1691 H   0  0  0  0  0  0  0  0  0  0  0  0
    4.7440  -12.2319    2.3751 H   0  0  0  0  0  0  0  0  0  0  0  0
    4.5829  -12.1921   -0.7648 H   0  0  0  0  0  0  0  0  0  0  0  0
    2.5466  -12.9997    1.3909 H   0  0  0  0  0  0  0  0  0  0  0  0
    1.5746  -12.0856   -0.9384 H   0  0  0  0  0  0  0  0  0  0  0  0
    2.4611  -15.1478   -3.0373 H   0  0  0  0  0  0  0  0  0  0  0  0
    1.4850  -14.1440   -4.8513 H   0  0  0  0  0  0  0  0  0  0  0  0
    0.9906  -12.6711   -3.8483 H   0  0  0  0  0  0  0  0  0  0  0  0
    1.4561  -15.0096   -0.1240 H   0  0  0  0  0  0  0  0  0  0  0  0
   -0.0260  -13.8240    1.1118 H   0  0  0  0  0  0  0  0  0  0  0  0
   -0.4801  -12.7426   -0.2487 H   0  0  0  0  0  0  0  0  0  0  0  0
   -1.0127  -14.4581   -0.2487 H   0  0  0  0  0  0  0  0  0  0  0  0
    9.2844  -11.6891   -2.1148 H   0  0  0  0  0  0  0  0  0  0  0  0
    9.7920  -12.6012   -3.5767 H   0  0  0  0  0  0  0  0  0  0  0  0
    8.2405  -11.6959   -3.5767 H   0  0  0  0  0  0  0  0  0  0  0  0
   11.0169  -15.8835   -2.3130 H   0  0  0  0  0  0  0  0  0  0  0  0
   11.1514  -14.7288   -3.3401 H   0  0  0  0  0  0  0  0  0  0  0  0
  1  2  1  0
  2  3  2  0
  3  4  1  0
  4  5  2  0
  4  6  1  0
  6  7  1  0
  8  7  1  6
  8  9  1  0
  9 10  1  0
 10 11  1  0
 11 12  1  1
 11 13  1  0
 13 14  1  0
 14 15  1  0
 15 16  1  0
 16 17  1  0
 17 18  1  0
 18 19  1  0
 19 20  1  0
 20 21  1  0
 21 22  2  0
 21 23  1  0
 23 24  2  0
 24 25  1  0
 25 26  2  0
 26 27  1  0
 27 28  1  0
 28 29  1  0
 29 30  1  0
 29 31  1  0
 31 32  1  0
 32 33  1  0
 19 34  1  0
 34 35  1  6
 34 36  1  0
 36 37  1  0
 37 38  1  0
 30  2  1  0
 36 38  1  1
 15  8  1  0
 36 17  1  0
 34  8  1  0
 14 11  1  0
 32 27  1  0
  1 39  1  0
  1 40  1  0
  1 41  1  0
  3 42  1  0
  7 43  1  0
  7 44  1  0
  9 45  1  0
  9 46  1  0
 10 47  1  0
 10 48  1  0
 12 49  1  0
 12 50  1  0
 12 51  1  0
 14 52  1  6
 15 53  1  1
 17 54  1  1
 18 55  1  0
 18 56  1  0
 19 57  1  6
 23 58  1  0
 24 59  1  0
 25 60  1  0
 26 61  1  0
 27 62  1  6
 29 63  1  6
 30 64  1  0
 30 65  1  0
 32 66  1  1
 33 67  1  0
 33 68  1  0
 33 69  1  0
 35 70  1  0
 35 71  1  0
 35 72  1  0
 37 73  1  0
 37 74  1  0
M  END
>  <meeko>  (2) 
{"is_sidechain": [false], "free_energy": -6.579, "intermolecular_energy": -9.743, "internal_energy": -1.61}

$$$$
LIB_ZIYCBQPVLHOKPQ__M_PUB_ALL__e8__s20260927
     RDKit          3D

 74 80  0  0  0  0  0  0  0  0999 V2000
    9.5350  -17.2090   -9.1510 C   0  0  0  0  0  0  0  0  0  0  0  0
    8.7990  -15.9310   -8.8540 C   0  0  0  0  0  0  0  0  0  0  0  0
    7.7770  -15.8230   -7.9790 C   0  0  0  0  0  0  0  0  0  0  0  0
    7.1780  -16.9460   -7.2260 C   0  0  0  0  0  0  0  0  0  0  0  0
    6.4340  -17.7900   -7.6930 O   0  0  0  0  0  0  0  0  0  0  0  0
    7.5830  -16.8460   -5.9340 O   0  0  0  0  0  0  0  0  0  0  0  0
    8.2450  -15.6350   -5.5470 C   0  0  0  0  0  0  0  0  0  0  0  0
    7.7680  -15.0110   -4.1780 C   0  0  2  0  0  0  0  0  0  0  0  0
    6.4010  -15.7470   -3.7920 C   0  0  0  0  0  0  0  0  0  0  0  0
    5.1030  -15.2120   -4.4800 C   0  0  0  0  0  0  0  0  0  0  0  0
    5.1180  -13.7390   -4.2950 C   0  0  2  0  0  0  0  0  0  0  0  0
    4.7840  -13.2190   -2.9240 C   0  0  0  0  0  0  0  0  0  0  0  0
    5.0670  -12.6510   -5.1910 O   0  0  0  0  0  0  0  0  0  0  0  0
    6.2860  -13.3210   -5.2530 C   0  0  1  0  0  0  0  0  0  0  0  0
    7.5390  -13.4350   -4.4720 C   0  0  1  0  0  0  0  0  0  0  0  0
    7.5400  -12.5960   -3.3180 O   0  0  0  0  0  0  0  0  0  0  0  0
    8.5760  -12.8600   -2.3710 C   0  0  2  0  0  0  0  0  0  0  0  0
    9.9770  -12.9270   -2.9960 C   0  0  0  0  0  0  0  0  0  0  0  0
   10.1780  -14.4130   -3.3990 C   0  0  1  0  0  0  0  0  0  0  0  0
   11.3070  -14.9780   -2.7050 O   0  0  0  0  0  0  0  0  0  0  0  0
   12.2860  -15.4950   -3.4880 C   0  0  0  0  0  0  0  0  0  0  0  0
   12.2670  -16.5830   -4.0400 O   0  0  0  0  0  0  0  0  0  0  0  0
   13.4090  -14.5450   -3.6330 C   0  0  0  0  0  0  0  0  0  0  0  0
   13.6600  -13.7700   -4.7030 C   0  0  0  0  0  0  0  0  0  0  0  0
   12.8770  -13.7070   -5.9440 C   0  0  0  0  0  0  0  0  0  0  0  0
   13.1340  -14.3950   -7.0660 C   0  0  0  0  0  0  0  0  0  0  0  0
   12.2290  -14.2930   -8.2560 C   0  0  1  0  0  0  0  0  0  0  0  0
   10.8670  -14.3340   -7.8250 O   0  0  0  0  0  0  0  0  0  0  0  0
   10.1440  -13.6980   -8.8890 C   0  0  2  0  0  0  0  0  0  0  0  0
    9.2660  -14.7120   -9.6480 C   0  0  0  0  0  0  0  0  0  0  0  0
   11.0480  -13.0130   -9.7680 O   0  0  0  0  0  0  0  0  0  0  0  0
   12.2910  -13.0020   -9.0530 C   0  0  2  0  0  0  0  0  0  0  0  0
   13.4550  -12.9270  -10.0210 C   0  0  0  0  0  0  0  0  0  0  0  0
    8.8410  -15.1560   -2.9910 C   0  0  2  0  0  0  0  0  0  0  0  0
    9.0560  -16.5960   -2.5040 C   0  0  0  0  0  0  0  0  0  0  0  0
    8.3740  -14.2420   -1.8640 C   0  0  2  0  0  0  0  0  0  0  0  0
    7.5480  -14.5960   -0.6470 C   0  0  0  0  0  0  0  0  0  0  0  0
    8.9740  -14.4800   -0.5770 O   0  0  0  0  0  0  0  0  0  0  0  0
    9.8166  -17.6979   -8.2067 H   0  0  0  0  0  0  0  0  0  0  0  0
    8.8850  -17.8800   -9.7317 H   0  0  0  0  0  0  0  0  0  0  0  0
   10.4416  -16.9836   -9.7317 H   0  0  0  0  0  0  0  0  0  0  0  0
    7.3563  -14.8203   -7.8128 H   0  0  0  0  0  0  0  0  0  0  0  0
    9.3213  -15.8473   -5.4666 H   0  0  0  0  0  0  0  0  0  0  0  0
    7.9976  -14.8935   -6.3209 H   0  0  0  0  0  0  0  0  0  0  0  0
    6.5067  -16.8092   -4.0576 H   0  0  0  0  0  0  0  0  0  0  0  0
    6.2609  -15.5568   -2.7177 H   0  0  0  0  0  0  0  0  0  0  0  0
    5.1073  -15.4626   -5.5511 H   0  0  0  0  0  0  0  0  0  0  0  0
    4.2003  -15.6634   -4.0426 H   0  0  0  0  0  0  0  0  0  0  0  0
    5.2135  -13.8877   -2.1635 H   0  0  0  0  0  0  0  0  0  0  0  0
    5.2028  -12.2091   -2.8028 H   0  0  0  0  0  0  0  0  0  0  0  0
    3.6914  -13.1798   -2.8028 H   0  0  0  0  0  0  0  0  0  0  0  0
    6.8857  -13.4275   -6.1690 H   0  0  0  0  0  0  0  0  0  0  0  0
    8.4022  -13.0572   -5.0396 H   0  0  0  0  0  0  0  0  0  0  0  0
    8.5238  -12.0530   -1.6254 H   0  0  0  0  0  0  0  0  0  0  0  0
   10.0349  -12.2769   -3.8814 H   0  0  0  0  0  0  0  0  0  0  0  0
   10.7538  -12.5841   -2.2967 H   0  0  0  0  0  0  0  0  0  0  0  0
   10.3830  -14.5158   -4.4748 H   0  0  0  0  0  0  0  0  0  0  0  0
   14.1054  -14.4643   -2.7854 H   0  0  0  0  0  0  0  0  0  0  0  0
   14.5424  -13.1161   -4.6426 H   0  0  0  0  0  0  0  0  0  0  0  0
   12.0042  -13.0375   -5.9540 H   0  0  0  0  0  0  0  0  0  0  0  0
   14.0214  -15.0432   -7.1135 H   0  0  0  0  0  0  0  0  0  0  0  0
   12.5700  -15.1266   -8.8875 H   0  0  0  0  0  0  0  0  0  0  0  0
    9.4668  -12.9491   -8.4525 H   0  0  0  0  0  0  0  0  0  0  0  0
    8.3709  -14.1804  -10.0032 H   0  0  0  0  0  0  0  0  0  0  0  0
    9.9051  -15.1112  -10.4493 H   0  0  0  0  0  0  0  0  0  0  0  0
   12.4411  -12.1334   -8.3950 H   0  0  0  0  0  0  0  0  0  0  0  0
   14.3975  -12.8663   -9.4571 H   0  0  0  0  0  0  0  0  0  0  0  0
   13.4639  -13.8264  -10.6542 H   0  0  0  0  0  0  0  0  0  0  0  0
   13.3484  -12.0339  -10.6542 H   0  0  0  0  0  0  0  0  0  0  0  0
    9.0588  -16.6145   -1.4042 H   0  0  0  0  0  0  0  0  0  0  0  0
    8.2433  -17.2352   -2.8795 H   0  0  0  0  0  0  0  0  0  0  0  0
   10.0199  -16.9700   -2.8795 H   0  0  0  0  0  0  0  0  0  0  0  0
    6.9064  -13.8385   -0.1732 H   0  0  0  0  0  0  0  0  0  0  0  0
    6.8084  -15.3707   -0.3963 H   0  0  0  0  0  0  0  0  0  0  0  0
  1  2  1  0
  2  3  2  0
  3  4  1  0
  4  5  2  0
  4  6  1  0
  6  7  1  0
  8  7  1  6
  8  9  1  0
  9 10  1  0
 10 11  1  0
 11 12  1  1
 11 13  1  0
 13 14  1  0
 14 15  1  0
 15 16  1  0
 16 17  1  0
 17 18  1  0
 18 19  1  0
 19 20  1  0
 20 21  1  0
 21 22  2  0
 21 23  1  0
 23 24  2  0
 24 25  1  0
 25 26  2  0
 26 27  1  0
 27 28  1  0
 28 29  1  0
 29 30  1  0
 29 31  1  0
 31 32  1  0
 32 33  1  0
 19 34  1  0
 34 35  1  1
 34 36  1  0
 36 37  1  0
 37 38  1  0
 30  2  1  0
 36 38  1  1
 15  8  1  0
 36 17  1  0
 34  8  1  0
 14 11  1  0
 32 27  1  0
  1 39  1  0
  1 40  1  0
  1 41  1  0
  3 42  1  0
  7 43  1  0
  7 44  1  0
  9 45  1  0
  9 46  1  0
 10 47  1  0
 10 48  1  0
 12 49  1  0
 12 50  1  0
 12 51  1  0
 14 52  1  6
 15 53  1  6
 17 54  1  1
 18 55  1  0
 18 56  1  0
 19 57  1  6
 23 58  1  0
 24 59  1  0
 25 60  1  0
 26 61  1  0
 27 62  1  6
 29 63  1  1
 30 64  1  0
 30 65  1  0
 32 66  1  1
 33 67  1  0
 33 68  1  0
 33 69  1  0
 35 70  1  0
 35 71  1  0
 35 72  1  0
 37 73  1  0
 37 74  1  0
M  END
>  <meeko>  (3) 
{"is_sidechain": [false], "free_energy": -6.214, "intermolecular_energy": -8.947, "internal_energy": -1.829}

$$$$
LIB_ZIYCBQPVLHOKPQ__M_PUB_ALL__e8__s20260927
     RDKit          3D

 74 80  0  0  0  0  0  0  0  0999 V2000
   10.2760  -16.6300   -7.0120 C   0  0  0  0  0  0  0  0  0  0  0  0
   10.6970  -15.2720   -7.5050 C   0  0  0  0  0  0  0  0  0  0  0  0
   11.3040  -14.3370   -6.7450 C   0  0  0  0  0  0  0  0  0  0  0  0
   11.5940  -14.4710   -5.3000 C   0  0  0  0  0  0  0  0  0  0  0  0
   12.4010  -15.2410   -4.8110 O   0  0  0  0  0  0  0  0  0  0  0  0
   10.7850  -13.6100   -4.6310 O   0  0  0  0  0  0  0  0  0  0  0  0
    9.6610  -14.1690   -3.9390 C   0  0  0  0  0  0  0  0  0  0  0  0
    9.2800  -13.4590   -2.5830 C   0  0  2  0  0  0  0  0  0  0  0  0
   10.2720  -12.2140   -2.4250 C   0  0  0  0  0  0  0  0  0  0  0  0
   11.6940  -12.5240   -1.8540 C   0  0  0  0  0  0  0  0  0  0  0  0
   11.4770  -13.3370   -0.6300 C   0  0  2  0  0  0  0  0  0  0  0  0
   10.9820  -12.6130    0.5920 C   0  0  0  0  0  0  0  0  0  0  0  0
   11.9250  -14.6100   -0.2230 O   0  0  0  0  0  0  0  0  0  0  0  0
   10.9830  -14.6910   -1.2450 C   0  0  1  0  0  0  0  0  0  0  0  0
    9.5180  -14.5670   -1.4270 C   0  0  1  0  0  0  0  0  0  0  0  0
    8.8360  -14.3200   -0.1980 O   0  0  0  0  0  0  0  0  0  0  0  0
    7.4750  -13.9070   -0.3270 C   0  0  2  0  0  0  0  0  0  0  0  0
    6.6410  -14.8180   -1.2390 C   0  0  0  0  0  0  0  0  0  0  0  0
    6.7950  -14.2260   -2.6660 C   0  0  1  0  0  0  0  0  0  0  0  0
    5.5130  -13.8290   -3.1920 O   0  0  0  0  0  0  0  0  0  0  0  0
    5.1460  -14.4100   -4.3600 C   0  0  0  0  0  0  0  0  0  0  0  0
    5.4130  -15.5470   -4.7150 O   0  0  0  0  0  0  0  0  0  0  0  0
    4.3260  -13.4910   -5.1770 C   0  0  0  0  0  0  0  0  0  0  0  0
    4.6590  -12.9810   -6.3760 C   0  0  0  0  0  0  0  0  0  0  0  0
    5.8880  -13.2450   -7.0830 C   0  0  0  0  0  0  0  0  0  0  0  0
    5.9900  -13.4640   -8.4020 C   0  0  0  0  0  0  0  0  0  0  0  0
    7.3250  -13.6900   -9.0440 C   0  0  1  0  0  0  0  0  0  0  0  0
    7.9760  -14.7970   -8.4170 O   0  0  0  0  0  0  0  0  0  0  0  0
    8.9110  -15.2580   -9.4040 C   0  0  2  0  0  0  0  0  0  0  0  0
   10.3620  -14.9790   -8.9660 C   0  0  0  0  0  0  0  0  0  0  0  0
    8.6180  -14.6730  -10.6820 O   0  0  0  0  0  0  0  0  0  0  0  0
    7.3200  -14.0880  -10.5100 C   0  0  2  0  0  0  0  0  0  0  0  0
    7.1350  -12.9270  -11.4670 C   0  0  0  0  0  0  0  0  0  0  0  0
    7.7500  -12.9730   -2.5130 C   0  0  2  0  0  0  0  0  0  0  0  0
    7.4090  -11.8150   -3.4620 C   0  0  0  0  0  0  0  0  0  0  0  0
    7.4700  -12.6140   -1.0590 C   0  0  2  0  0  0  0  0  0  0  0  0
    7.5330  -11.2540   -0.3970 C   0  0  0  0  0  0  0  0  0  0  0  0
    6.2900  -11.8220   -0.8270 O   0  0  0  0  0  0  0  0  0  0  0  0
   10.2740  -16.6364   -5.9120 H   0  0  0  0  0  0  0  0  0  0  0  0
    9.2652  -16.8572   -7.3818 H   0  0  0  0  0  0  0  0  0  0  0  0
   10.9810  -17.3891   -7.3818 H   0  0  0  0  0  0  0  0  0  0  0  0
   11.6071  -13.4016   -7.2381 H   0  0  0  0  0  0  0  0  0  0  0  0
    8.7892  -14.1139   -4.6075 H   0  0  0  0  0  0  0  0  0  0  0  0
    9.9495  -15.1965   -3.6725 H   0  0  0  0  0  0  0  0  0  0  0  0
   10.4023  -11.7620   -3.4194 H   0  0  0  0  0  0  0  0  0  0  0  0
    9.7972  -11.5554   -1.6828 H   0  0  0  0  0  0  0  0  0  0  0  0
   12.2855  -13.0901   -2.5886 H   0  0  0  0  0  0  0  0  0  0  0  0
   12.2479  -11.6003   -1.6305 H   0  0  0  0  0  0  0  0  0  0  0  0
   11.3369  -13.1320    1.4946 H   0  0  0  0  0  0  0  0  0  0  0  0
   11.3650  -11.5818    0.5875 H   0  0  0  0  0  0  0  0  0  0  0  0
    9.8821  -12.5957    0.5875 H   0  0  0  0  0  0  0  0  0  0  0  0
   10.9807  -15.4697   -2.0219 H   0  0  0  0  0  0  0  0  0  0  0  0
    9.0715  -15.5162   -1.7581 H   0  0  0  0  0  0  0  0  0  0  0  0
    7.0596  -13.8944    0.6915 H   0  0  0  0  0  0  0  0  0  0  0  0
    7.0234  -15.8489   -1.2067 H   0  0  0  0  0  0  0  0  0  0  0  0
    5.5877  -14.8579   -0.9243 H   0  0  0  0  0  0  0  0  0  0  0  0
    7.2101  -14.9648   -3.3673 H   0  0  0  0  0  0  0  0  0  0  0  0
    3.3498  -13.1959   -4.7648 H   0  0  0  0  0  0  0  0  0  0  0  0
    3.9346  -12.3072   -6.8569 H   0  0  0  0  0  0  0  0  0  0  0  0
    6.8161  -13.2686   -6.4930 H   0  0  0  0  0  0  0  0  0  0  0  0
    5.0810  -13.4779   -9.0213 H   0  0  0  0  0  0  0  0  0  0  0  0
    7.8108  -12.7091   -8.9356 H   0  0  0  0  0  0  0  0  0  0  0  0
    8.8077  -16.3488   -9.5018 H   0  0  0  0  0  0  0  0  0  0  0  0
   11.0250  -15.5946   -9.5916 H   0  0  0  0  0  0  0  0  0  0  0  0
   10.5009  -13.8945   -9.0865 H   0  0  0  0  0  0  0  0  0  0  0  0
    6.4752  -14.7540  -10.7397 H   0  0  0  0  0  0  0  0  0  0  0  0
    6.9872  -11.9996  -10.8942 H   0  0  0  0  0  0  0  0  0  0  0  0
    8.0287  -12.8281  -12.1006 H   0  0  0  0  0  0  0  0  0  0  0  0
    6.2548  -13.1108  -12.1006 H   0  0  0  0  0  0  0  0  0  0  0  0
    7.1465  -10.9236   -2.8733 H   0  0  0  0  0  0  0  0  0  0  0  0
    8.2797  -11.5922   -4.0963 H   0  0  0  0  0  0  0  0  0  0  0  0
    6.5565  -12.0996   -4.0963 H   0  0  0  0  0  0  0  0  0  0  0  0
    7.7623  -11.1697    0.6755 H   0  0  0  0  0  0  0  0  0  0  0  0
    8.0738  -10.3138   -0.5804 H   0  0  0  0  0  0  0  0  0  0  0  0
  1  2  1  0
  2  3  2  0
  3  4  1  0
  4  5  2  0
  4  6  1  0
  6  7  1  0
  8  7  1  6
  8  9  1  0
  9 10  1  0
 10 11  1  0
 11 12  1  1
 11 13  1  0
 13 14  1  0
 14 15  1  0
 15 16  1  0
 16 17  1  0
 17 18  1  0
 18 19  1  0
 19 20  1  0
 20 21  1  0
 21 22  2  0
 21 23  1  0
 23 24  2  0
 24 25  1  0
 25 26  2  0
 26 27  1  0
 27 28  1  0
 28 29  1  0
 29 30  1  0
 29 31  1  0
 31 32  1  0
 32 33  1  0
 19 34  1  0
 34 35  1  6
 34 36  1  0
 36 37  1  0
 37 38  1  0
 30  2  1  0
 36 38  1  6
 15  8  1  0
 36 17  1  0
 34  8  1  0
 14 11  1  0
 32 27  1  0
  1 39  1  0
  1 40  1  0
  1 41  1  0
  3 42  1  0
  7 43  1  0
  7 44  1  0
  9 45  1  0
  9 46  1  0
 10 47  1  0
 10 48  1  0
 12 49  1  0
 12 50  1  0
 12 51  1  0
 14 52  1  6
 15 53  1  6
 17 54  1  1
 18 55  1  0
 18 56  1  0
 19 57  1  6
 23 58  1  0
 24 59  1  0
 25 60  1  0
 26 61  1  0
 27 62  1  6
 29 63  1  6
 30 64  1  0
 30 65  1  0
 32 66  1  1
 33 67  1  0
 33 68  1  0
 33 69  1  0
 35 70  1  0
 35 71  1  0
 35 72  1  0
 37 73  1  0
 37 74  1  0
M  END
>  <meeko>  (4) 
{"is_sidechain": [false], "free_energy": -6.213, "intermolecular_energy": -9.66, "internal_energy": -1.113}

$$$$
LIB_ZIYCBQPVLHOKPQ__M_PUB_ALL__e8__s20260927
     RDKit          3D

 74 80  0  0  0  0  0  0  0  0999 V2000
    6.0440  -12.2500    0.3280 C   0  0  0  0  0  0  0  0  0  0  0  0
    6.8140  -12.0060   -0.9420 C   0  0  0  0  0  0  0  0  0  0  0  0
    8.1280  -12.2640   -1.1000 C   0  0  0  0  0  0  0  0  0  0  0  0
    9.0320  -12.7620   -0.0400 C   0  0  0  0  0  0  0  0  0  0  0  0
    9.2690  -12.1920    1.0100 O   0  0  0  0  0  0  0  0  0  0  0  0
    9.5610  -13.9390   -0.4610 O   0  0  0  0  0  0  0  0  0  0  0  0
    9.3200  -14.3160   -1.8230 C   0  0  0  0  0  0  0  0  0  0  0  0
   10.6010  -14.7250   -2.6480 C   0  0  2  0  0  0  0  0  0  0  0  0
   11.8510  -14.5660   -1.6610 C   0  0  0  0  0  0  0  0  0  0  0  0
   12.4280  -13.1230   -1.4960 C   0  0  0  0  0  0  0  0  0  0  0  0
   12.6200  -12.5970   -2.8710 C   0  0  2  0  0  0  0  0  0  0  0  0
   13.7880  -13.1350   -3.6510 C   0  0  0  0  0  0  0  0  0  0  0  0
   12.1440  -11.4530   -3.5450 O   0  0  0  0  0  0  0  0  0  0  0  0
   11.1360  -12.3900   -3.3310 C   0  0  1  0  0  0  0  0  0  0  0  0
   10.6770  -13.6840   -3.8850 C   0  0  1  0  0  0  0  0  0  0  0  0
   11.4680  -14.1120   -4.9930 O   0  0  0  0  0  0  0  0  0  0  0  0
   11.2720  -15.4690   -5.3950 C   0  0  2  0  0  0  0  0  0  0  0  0
    9.7980  -15.8420   -5.6020 C   0  0  0  0  0  0  0  0  0  0  0  0
    9.3000  -16.3410   -4.2190 C   0  0  1  0  0  0  0  0  0  0  0  0
    8.8530  -17.7080   -4.3040 O   0  0  0  0  0  0  0  0  0  0  0  0
    7.5410  -17.8870   -4.5940 C   0  0  0  0  0  0  0  0  0  0  0  0
    6.9880  -17.5890   -5.6410 O   0  0  0  0  0  0  0  0  0  0  0  0
    6.8310  -18.5370   -3.4730 C   0  0  0  0  0  0  0  0  0  0  0  0
    6.0940  -17.9180   -2.5340 C   0  0  0  0  0  0  0  0  0  0  0  0
    5.8560  -16.4960   -2.4340 C   0  0  0  0  0  0  0  0  0  0  0  0
    4.8370  -15.8200   -2.9860 C   0  0  0  0  0  0  0  0  0  0  0  0
    4.6860  -14.3450   -2.7710 C   0  0  1  0  0  0  0  0  0  0  0  0
    5.9570  -13.7080   -2.9160 O   0  0  0  0  0  0  0  0  0  0  0  0
    5.6330  -12.3480   -3.2410 C   0  0  2  0  0  0  0  0  0  0  0  0
    6.0040  -11.3980   -2.0860 C   0  0  0  0  0  0  0  0  0  0  0  0
    4.2470  -12.2370   -3.5990 O   0  0  0  0  0  0  0  0  0  0  0  0
    3.8180  -13.5950   -3.7680 C   0  0  2  0  0  0  0  0  0  0  0  0
    2.3300  -13.7130   -3.5060 C   0  0  0  0  0  0  0  0  0  0  0  0
   10.5400  -16.2170   -3.2430 C   0  0  2  0  0  0  0  0  0  0  0  0
   10.6070  -17.3250   -2.1820 C   0  0  0  0  0  0  0  0  0  0  0  0
   11.6740  -16.3330   -4.2540 C   0  0  2  0  0  0  0  0  0  0  0  0
   13.0680  -16.8830   -4.0450 C   0  0  0  0  0  0  0  0  0  0  0  0
   12.0320  -17.6720   -4.6400 O   0  0  0  0  0  0  0  0  0  0  0  0
    6.6906  -12.0451    1.1940 H   0  0  0  0  0  0  0  0  0  0  0  0
    5.1680  -11.5854    0.3591 H   0  0  0  0  0  0  0  0  0  0  0  0
    5.7106  -13.2978    0.3591 H   0  0  0  0  0  0  0  0  0  0  0  0
    8.5621  -12.0905   -2.0957 H   0  0  0  0  0  0  0  0  0  0  0  0
    8.6297  -15.1724   -1.8211 H   0  0  0  0  0  0  0  0  0  0  0  0
    8.9132  -13.4218   -2.3179 H   0  0  0  0  0  0  0  0  0  0  0  0
   11.5387  -14.9171   -0.6664 H   0  0  0  0  0  0  0  0  0  0  0  0
   12.6607  -15.1535   -2.1185 H   0  0  0  0  0  0  0  0  0  0  0  0
   11.7204  -12.4901   -0.9404 H   0  0  0  0  0  0  0  0  0  0  0  0
   13.3728  -13.1298   -0.9326 H   0  0  0  0  0  0  0  0  0  0  0  0
   14.5613  -13.4912   -2.9544 H   0  0  0  0  0  0  0  0  0  0  0  0
   13.4527  -13.9694   -4.2845 H   0  0  0  0  0  0  0  0  0  0  0  0
   14.2042  -12.3379   -4.2845 H   0  0  0  0  0  0  0  0  0  0  0  0
   10.0822  -12.1318   -3.1495 H   0  0  0  0  0  0  0  0  0  0  0  0
    9.6742  -13.5992   -4.3292 H   0  0  0  0  0  0  0  0  0  0  0  0
   11.8375  -15.5973   -6.3297 H   0  0  0  0  0  0  0  0  0  0  0  0
    9.2204  -14.9632   -5.9247 H   0  0  0  0  0  0  0  0  0  0  0  0
    9.6759  -16.6086   -6.3813 H   0  0  0  0  0  0  0  0  0  0  0  0
    8.4448  -15.7496   -3.8600 H   0  0  0  0  0  0  0  0  0  0  0  0
    6.9132  -19.6315   -3.3996 H   0  0  0  0  0  0  0  0  0  0  0  0
    5.6274  -18.5552   -1.7683 H   0  0  0  0  0  0  0  0  0  0  0  0
    6.5807  -15.9112   -1.8485 H   0  0  0  0  0  0  0  0  0  0  0  0
    4.1024  -16.3560   -3.6049 H   0  0  0  0  0  0  0  0  0  0  0  0
    4.2226  -14.2949   -1.7746 H   0  0  0  0  0  0  0  0  0  0  0  0
    6.2312  -12.0438   -4.1125 H   0  0  0  0  0  0  0  0  0  0  0  0
    6.5913  -10.5697   -2.5090 H   0  0  0  0  0  0  0  0  0  0  0  0
    5.0466  -11.0939   -1.6378 H   0  0  0  0  0  0  0  0  0  0  0  0
    3.9378  -13.9982   -4.7844 H   0  0  0  0  0  0  0  0  0  0  0  0
    2.1487  -13.7274   -2.4211 H   0  0  0  0  0  0  0  0  0  0  0  0
    1.8096  -12.8533   -3.9533 H   0  0  0  0  0  0  0  0  0  0  0  0
    1.9516  -14.6440   -3.9533 H   0  0  0  0  0  0  0  0  0  0  0  0
   10.5797  -16.8743   -1.1789 H   0  0  0  0  0  0  0  0  0  0  0  0
    9.7481  -18.0014   -2.3035 H   0  0  0  0  0  0  0  0  0  0  0  0
   11.5411  -17.8930   -2.3035 H   0  0  0  0  0  0  0  0  0  0  0  0
   13.9059  -16.5165   -4.6562 H   0  0  0  0  0  0  0  0  0  0  0  0
   13.7495  -16.9954   -3.1889 H   0  0  0  0  0  0  0  0  0  0  0  0
  1  2  1  0
  2  3  2  0
  3  4  1  0
  4  5  2  0
  4  6  1  0
  6  7  1  0
  8  7  1  1
  8  9  1  0
  9 10  1  0
 10 11  1  0
 11 12  1  6
 11 13  1  0
 13 14  1  0
 14 15  1  0
 15 16  1  0
 16 17  1  0
 17 18  1  0
 18 19  1  0
 19 20  1  0
 20 21  1  0
 21 22  2  0
 21 23  1  0
 23 24  2  0
 24 25  1  0
 25 26  2  0
 26 27  1  0
 27 28  1  0
 28 29  1  0
 29 30  1  0
 29 31  1  0
 31 32  1  0
 32 33  1  0
 19 34  1  0
 34 35  1  1
 34 36  1  0
 36 37  1  0
 37 38  1  0
 30  2  1  0
 36 38  1  6
 15  8  1  0
 36 17  1  0
 34  8  1  0
 14 11  1  0
 32 27  1  0
  1 39  1  0
  1 40  1  0
  1 41  1  0
  3 42  1  0
  7 43  1  0
  7 44  1  0
  9 45  1  0
  9 46  1  0
 10 47  1  0
 10 48  1  0
 12 49  1  0
 12 50  1  0
 12 51  1  0
 14 52  1  1
 15 53  1  6
 17 54  1  6
 18 55  1  0
 18 56  1  0
 19 57  1  1
 23 58  1  0
 24 59  1  0
 25 60  1  0
 26 61  1  0
 27 62  1  1
 29 63  1  6
 30 64  1  0
 30 65  1  0
 32 66  1  6
 33 67  1  0
 33 68  1  0
 33 69  1  0
 35 70  1  0
 35 71  1  0
 35 72  1  0
 37 73  1  0
 37 74  1  0
M  END
>  <meeko>  (5) 
{"is_sidechain": [false], "free_energy": -6.17, "intermolecular_energy": -9.216, "internal_energy": -1.489}

$$$$
LIB_ZIYCBQPVLHOKPQ__M_PUB_ALL__e8__s20260927
     RDKit          3D

 74 80  0  0  0  0  0  0  0  0999 V2000
   12.7320  -12.3630   -3.6790 C   0  0  0  0  0  0  0  0  0  0  0  0
   12.5880  -13.6920   -2.9880 C   0  0  0  0  0  0  0  0  0  0  0  0
   11.7790  -13.9220   -1.9340 C   0  0  0  0  0  0  0  0  0  0  0  0
   10.9570  -12.8990   -1.2510 C   0  0  0  0  0  0  0  0  0  0  0  0
   11.2810  -12.2910   -0.2470 O   0  0  0  0  0  0  0  0  0  0  0  0
    9.7850  -12.7860   -1.9250 O   0  0  0  0  0  0  0  0  0  0  0  0
    8.7940  -13.7950   -1.6890 C   0  0  0  0  0  0  0  0  0  0  0  0
    7.3220  -13.2630   -1.4880 C   0  0  2  0  0  0  0  0  0  0  0  0
    7.4440  -11.8540   -0.7400 C   0  0  0  0  0  0  0  0  0  0  0  0
    7.6320  -11.9020    0.8110 C   0  0  0  0  0  0  0  0  0  0  0  0
    6.5800  -12.8160    1.3240 C   0  0  2  0  0  0  0  0  0  0  0  0
    5.1730  -12.2860    1.3610 C   0  0  0  0  0  0  0  0  0  0  0  0
    6.6160  -13.9940    2.0980 O   0  0  0  0  0  0  0  0  0  0  0  0
    7.1000  -14.2020    0.8090 C   0  0  1  0  0  0  0  0  0  0  0  0
    6.5800  -14.3690   -0.5670 C   0  0  1  0  0  0  0  0  0  0  0  0
    5.1540  -14.3430   -0.6170 O   0  0  0  0  0  0  0  0  0  0  0  0
    4.5900  -14.2100   -1.9220 C   0  0  2  0  0  0  0  0  0  0  0  0
    5.1520  -15.2130   -2.9390 C   0  0  0  0  0  0  0  0  0  0  0  0
    6.3880  -14.5150   -3.5690 C   0  0  1  0  0  0  0  0  0  0  0  0
    6.2110  -14.3560   -4.9900 O   0  0  0  0  0  0  0  0  0  0  0  0
    6.7840  -15.3070   -5.7690 C   0  0  0  0  0  0  0  0  0  0  0  0
    6.9930  -16.4670   -5.4530 O   0  0  0  0  0  0  0  0  0  0  0  0
    7.1110  -14.7720   -7.1070 C   0  0  0  0  0  0  0  0  0  0  0  0
    8.3380  -14.4640   -7.5620 C   0  0  0  0  0  0  0  0  0  0  0  0
    9.5820  -14.6080   -6.8110 C   0  0  0  0  0  0  0  0  0  0  0  0
   10.7730  -14.9120   -7.3500 C   0  0  0  0  0  0  0  0  0  0  0  0
   12.0040  -14.9930   -6.4990 C   0  0  1  0  0  0  0  0  0  0  0  0
   11.6300  -15.1850   -5.1330 O   0  0  0  0  0  0  0  0  0  0  0  0
   12.7890  -15.7820   -4.5330 C   0  0  2  0  0  0  0  0  0  0  0  0
   13.4650  -14.8120   -3.5460 C   0  0  0  0  0  0  0  0  0  0  0  0
   13.7000  -16.2330   -5.5470 O   0  0  0  0  0  0  0  0  0  0  0  0
   12.9380  -16.1630   -6.7600 C   0  0  2  0  0  0  0  0  0  0  0  0
   13.8580  -15.9680   -7.9480 C   0  0  0  0  0  0  0  0  0  0  0  0
    6.4970  -13.1050   -2.8570 C   0  0  2  0  0  0  0  0  0  0  0  0
    7.0030  -11.9850   -3.7770 C   0  0  0  0  0  0  0  0  0  0  0  0
    5.0370  -12.9020   -2.4680 C   0  0  2  0  0  0  0  0  0  0  0  0
    4.2790  -11.6020   -2.3070 C   0  0  0  0  0  0  0  0  0  0  0  0
    4.1810  -12.3840   -3.5030 O   0  0  0  0  0  0  0  0  0  0  0  0
   12.8184  -11.5657   -2.9261 H   0  0  0  0  0  0  0  0  0  0  0  0
   13.6344  -12.3726   -4.3080 H   0  0  0  0  0  0  0  0  0  0  0  0
   11.8485  -12.1791   -4.3080 H   0  0  0  0  0  0  0  0  0  0  0  0
   11.7260  -14.9521   -1.5517 H   0  0  0  0  0  0  0  0  0  0  0  0
    8.7933  -14.4784   -2.5510 H   0  0  0  0  0  0  0  0  0  0  0  0
    9.0736  -14.2792   -0.7417 H   0  0  0  0  0  0  0  0  0  0  0  0
    8.3088  -11.3236   -1.1653 H   0  0  0  0  0  0  0  0  0  0  0  0
    6.4774  -11.3542   -0.9008 H   0  0  0  0  0  0  0  0  0  0  0  0
    8.6304  -12.2890    1.0630 H   0  0  0  0  0  0  0  0  0  0  0  0
    7.5476  -10.9004    1.2577 H   0  0  0  0  0  0  0  0  0  0  0  0
    4.8539  -12.1658    2.4068 H   0  0  0  0  0  0  0  0  0  0  0  0
    5.1346  -11.3118    0.8516 H   0  0  0  0  0  0  0  0  0  0  0  0
    4.5014  -12.9928    0.8516 H   0  0  0  0  0  0  0  0  0  0  0  0
    7.8985  -14.9155    0.5573 H   0  0  0  0  0  0  0  0  0  0  0  0
    6.8127  -15.3672   -0.9663 H   0  0  0  0  0  0  0  0  0  0  0  0
    3.5049  -14.3464   -1.8035 H   0  0  0  0  0  0  0  0  0  0  0  0
    5.4512  -16.1443   -2.4357 H   0  0  0  0  0  0  0  0  0  0  0  0
    4.4052  -15.4857   -3.6992 H   0  0  0  0  0  0  0  0  0  0  0  0
    7.3032  -15.1088   -3.4280 H   0  0  0  0  0  0  0  0  0  0  0  0
    6.2697  -14.6102   -7.7970 H   0  0  0  0  0  0  0  0  0  0  0  0
    8.4110  -14.0703   -8.5865 H   0  0  0  0  0  0  0  0  0  0  0  0
    9.5399  -14.4560   -5.7224 H   0  0  0  0  0  0  0  0  0  0  0  0
   10.8466  -15.1042   -8.4306 H   0  0  0  0  0  0  0  0  0  0  0  0
   12.5221  -14.0526   -6.7381 H   0  0  0  0  0  0  0  0  0  0  0  0
   12.4699  -16.6603   -3.9527 H   0  0  0  0  0  0  0  0  0  0  0  0
   13.8346  -15.4034   -2.6953 H   0  0  0  0  0  0  0  0  0  0  0  0
   14.2522  -14.3067   -4.1248 H   0  0  0  0  0  0  0  0  0  0  0  0
   12.3759  -17.0748   -7.0105 H   0  0  0  0  0  0  0  0  0  0  0  0
   14.8761  -15.7522   -7.5918 H   0  0  0  0  0  0  0  0  0  0  0  0
   13.8691  -16.8837   -8.5573 H   0  0  0  0  0  0  0  0  0  0  0  0
   13.4967  -15.1265   -8.5573 H   0  0  0  0  0  0  0  0  0  0  0  0
    7.3797  -11.1511   -3.1665 H   0  0  0  0  0  0  0  0  0  0  0  0
    7.8144  -12.3705   -4.4119 H   0  0  0  0  0  0  0  0  0  0  0  0
    6.1774  -11.6309   -4.4119 H   0  0  0  0  0  0  0  0  0  0  0  0
    3.4268  -11.5394   -1.6143 H   0  0  0  0  0  0  0  0  0  0  0  0
    4.5432  -10.5616   -2.0665 H   0  0  0  0  0  0  0  0  0  0  0  0
  1  2  1  0
  2  3  2  0
  3  4  1  0
  4  5  2  0
  4  6  1  0
  6  7  1  0
  8  7  1  6
  8  9  1  0
  9 10  1  0
 10 11  1  0
 11 12  1  6
 11 13  1  0
 13 14  1  0
 14 15  1  0
 15 16  1  0
 16 17  1  0
 17 18  1  0
 18 19  1  0
 19 20  1  0
 20 21  1  0
 21 22  2  0
 21 23  1  0
 23 24  2  0
 24 25  1  0
 25 26  2  0
 26 27  1  0
 27 28  1  0
 28 29  1  0
 29 30  1  0
 29 31  1  0
 31 32  1  0
 32 33  1  0
 19 34  1  0
 34 35  1  6
 34 36  1  0
 36 37  1  0
 37 38  1  0
 30  2  1  0
 36 38  1  6
 15  8  1  0
 36 17  1  0
 34  8  1  0
 14 11  1  0
 32 27  1  0
  1 39  1  0
  1 40  1  0
  1 41  1  0
  3 42  1  0
  7 43  1  0
  7 44  1  0
  9 45  1  0
  9 46  1  0
 10 47  1  0
 10 48  1  0
 12 49  1  0
 12 50  1  0
 12 51  1  0
 14 52  1  1
 15 53  1  6
 17 54  1  1
 18 55  1  0
 18 56  1  0
 19 57  1  6
 23 58  1  0
 24 59  1  0
 25 60  1  0
 26 61  1  0
 27 62  1  1
 29 63  1  1
 30 64  1  0
 30 65  1  0
 32 66  1  6
 33 67  1  0
 33 68  1  0
 33 69  1  0
 35 70  1  0
 35 71  1  0
 35 72  1  0
 37 73  1  0
 37 74  1  0
M  END
>  <meeko>  (6) 
{"is_sidechain": [false], "free_energy": -6.162, "intermolecular_energy": -9.349, "internal_energy": -1.345}

$$$$
LIB_ZIYCBQPVLHOKPQ__M_PUB_ALL__e8__s20260927
     RDKit          3D

 74 80  0  0  0  0  0  0  0  0999 V2000
    7.1780  -16.8640   -6.6030 C   0  0  0  0  0  0  0  0  0  0  0  0
    7.8290  -15.5080   -6.6460 C   0  0  0  0  0  0  0  0  0  0  0  0
    7.3100  -14.3930   -6.0920 C   0  0  0  0  0  0  0  0  0  0  0  0
    5.9970  -14.3100   -5.4150 C   0  0  0  0  0  0  0  0  0  0  0  0
    4.9450  -14.0170   -5.9540 O   0  0  0  0  0  0  0  0  0  0  0  0
    6.1860  -14.5870   -4.1000 O   0  0  0  0  0  0  0  0  0  0  0  0
    6.5930  -13.5040   -3.2540 C   0  0  0  0  0  0  0  0  0  0  0  0
    6.0030  -13.5300   -1.7910 C   0  0  2  0  0  0  0  0  0  0  0  0
    4.7960  -14.5800   -1.8040 C   0  0  0  0  0  0  0  0  0  0  0  0
    3.4240  -14.0580   -2.3410 C   0  0  0  0  0  0  0  0  0  0  0  0
    3.1620  -12.7820   -1.6280 C   0  0  2  0  0  0  0  0  0  0  0  0
    2.7310  -12.8790   -0.1900 C   0  0  0  0  0  0  0  0  0  0  0  0
    2.9120  -11.4640   -2.0630 O   0  0  0  0  0  0  0  0  0  0  0  0
    4.2350  -11.8420   -2.2760 C   0  0  1  0  0  0  0  0  0  0  0  0
    5.4850  -12.0240   -1.5020 C   0  0  1  0  0  0  0  0  0  0  0  0
    5.3240  -11.6900   -0.1240 O   0  0  0  0  0  0  0  0  0  0  0  0
    6.3880  -12.1070    0.7340 C   0  0  2  0  0  0  0  0  0  0  0  0
    7.7780  -11.6940    0.2330 C   0  0  0  0  0  0  0  0  0  0  0  0
    8.2550  -12.8630   -0.6710 C   0  0  1  0  0  0  0  0  0  0  0  0
    9.4670  -13.4440   -0.1530 O   0  0  0  0  0  0  0  0  0  0  0  0
   10.5860  -13.2420   -0.8920 C   0  0  0  0  0  0  0  0  0  0  0  0
   10.7680  -12.3360   -1.6890 O   0  0  0  0  0  0  0  0  0  0  0  0
   11.6140  -14.2590   -0.5910 C   0  0  0  0  0  0  0  0  0  0  0  0
   12.0620  -15.2090   -1.4320 C   0  0  0  0  0  0  0  0  0  0  0  0
   11.6320  -15.4150   -2.8000 C   0  0  0  0  0  0  0  0  0  0  0  0
   12.1370  -14.8040   -3.8830 C   0  0  0  0  0  0  0  0  0  0  0  0
   11.6380  -15.1360   -5.2560 C   0  0  1  0  0  0  0  0  0  0  0  0
   10.3380  -14.5710   -5.4420 O   0  0  0  0  0  0  0  0  0  0  0  0
   10.2060  -14.4590   -6.8670 C   0  0  2  0  0  0  0  0  0  0  0  0
    9.1530  -15.4470   -7.4060 C   0  0  0  0  0  0  0  0  0  0  0  0
   11.4800  -14.6380   -7.5030 O   0  0  0  0  0  0  0  0  0  0  0  0
   12.4230  -14.5660   -6.4250 C   0  0  2  0  0  0  0  0  0  0  0  0
   13.6760  -15.3460   -6.7690 C   0  0  0  0  0  0  0  0  0  0  0  0
    7.0790  -13.9230   -0.6640 C   0  0  2  0  0  0  0  0  0  0  0  0
    7.5580  -15.3800   -0.7260 C   0  0  0  0  0  0  0  0  0  0  0  0
    6.4450  -13.5920    0.6820 C   0  0  2  0  0  0  0  0  0  0  0  0
    5.6940  -14.5120    1.6190 C   0  0  0  0  0  0  0  0  0  0  0  0
    7.0730  -14.1880    1.8320 O   0  0  0  0  0  0  0  0  0  0  0  0
    7.0322  -17.1677   -5.5559 H   0  0  0  0  0  0  0  0  0  0  0  0
    6.2033  -16.8191   -7.1109 H   0  0  0  0  0  0  0  0  0  0  0  0
    7.8226  -17.5965   -7.1109 H   0  0  0  0  0  0  0  0  0  0  0  0
    7.9102  -13.4729   -6.1479 H   0  0  0  0  0  0  0  0  0  0  0  0
    7.6901  -13.5265   -3.1780 H   0  0  0  0  0  0  0  0  0  0  0  0
    6.2012  -12.5893   -3.7228 H   0  0  0  0  0  0  0  0  0  0  0  0
    5.0993  -15.4303   -2.4325 H   0  0  0  0  0  0  0  0  0  0  0  0
    4.6185  -14.8330   -0.7483 H   0  0  0  0  0  0  0  0  0  0  0  0
    3.4794  -13.8848   -3.4259 H   0  0  0  0  0  0  0  0  0  0  0  0
    2.6200  -14.7883   -2.1671 H   0  0  0  0  0  0  0  0  0  0  0  0
    3.5931  -12.6850    0.4651 H   0  0  0  0  0  0  0  0  0  0  0  0
    1.9452  -12.1352    0.0082 H   0  0  0  0  0  0  0  0  0  0  0  0
    2.3396  -13.8877    0.0082 H   0  0  0  0  0  0  0  0  0  0  0  0
    4.8481  -11.4923   -3.1197 H   0  0  0  0  0  0  0  0  0  0  0  0
    6.2658  -11.3205   -1.8266 H   0  0  0  0  0  0  0  0  0  0  0  0
    6.1837  -11.6594    1.7178 H   0  0  0  0  0  0  0  0  0  0  0  0
    7.7168  -10.7604   -0.3455 H   0  0  0  0  0  0  0  0  0  0  0  0
    8.4742  -11.5096    1.0644 H   0  0  0  0  0  0  0  0  0  0  0  0
    8.4798  -12.5180   -1.6910 H   0  0  0  0  0  0  0  0  0  0  0  0
   12.0553  -14.2377    0.4164 H   0  0  0  0  0  0  0  0  0  0  0  0
   12.8287  -15.8954   -1.0433 H   0  0  0  0  0  0  0  0  0  0  0  0
   10.8187  -16.1369   -2.9659 H   0  0  0  0  0  0  0  0  0  0  0  0
   12.9279  -14.0493   -3.7609 H   0  0  0  0  0  0  0  0  0  0  0  0
   11.7038  -16.2339   -5.2746 H   0  0  0  0  0  0  0  0  0  0  0  0
    9.8501  -13.4462   -7.1069 H   0  0  0  0  0  0  0  0  0  0  0  0
    8.9298  -15.1646   -8.4454 H   0  0  0  0  0  0  0  0  0  0  0  0
    9.6022  -16.4446   -7.2923 H   0  0  0  0  0  0  0  0  0  0  0  0
   12.7964  -13.5560   -6.2003 H   0  0  0  0  0  0  0  0  0  0  0  0
   14.1790  -15.6591   -5.8422 H   0  0  0  0  0  0  0  0  0  0  0  0
   13.4046  -16.2350   -7.3572 H   0  0  0  0  0  0  0  0  0  0  0  0
   14.3539  -14.7100   -7.3572 H   0  0  0  0  0  0  0  0  0  0  0  0
    7.6855  -15.7678    0.2954 H   0  0  0  0  0  0  0  0  0  0  0  0
    6.8127  -15.9886   -1.2589 H   0  0  0  0  0  0  0  0  0  0  0  0
    8.5191  -15.4276   -1.2589 H   0  0  0  0  0  0  0  0  0  0  0  0
    4.9201  -14.1093    2.2890 H   0  0  0  0  0  0  0  0  0  0  0  0
    5.1108  -15.4385    1.5122 H   0  0  0  0  0  0  0  0  0  0  0  0
  1  2  1  0
  2  3  2  0
  3  4  1  0
  4  5  2  0
  4  6  1  0
  6  7  1  0
  8  7  1  6
  8  9  1  0
  9 10  1  0
 10 11  1  0
 11 12  1  1
 11 13  1  0
 13 14  1  0
 14 15  1  0
 15 16  1  0
 16 17  1  0
 17 18  1  0
 18 19  1  0
 19 20  1  0
 20 21  1  0
 21 22  2  0
 21 23  1  0
 23 24  2  0
 24 25  1  0
 25 26  2  0
 26 27  1  0
 27 28  1  0
 28 29  1  0
 29 30  1  0
 29 31  1  0
 31 32  1  0
 32 33  1  0
 19 34  1  0
 34 35  1  1
 34 36  1  0
 36 37  1  0
 37 38  1  0
 30  2  1  0
 36 38  1  1
 15  8  1  0
 36 17  1  0
 34  8  1  0
 14 11  1  0
 32 27  1  0
  1 39  1  0
  1 40  1  0
  1 41  1  0
  3 42  1  0
  7 43  1  0
  7 44  1  0
  9 45  1  0
  9 46  1  0
 10 47  1  0
 10 48  1  0
 12 49  1  0
 12 50  1  0
 12 51  1  0
 14 52  1  6
 15 53  1  6
 17 54  1  1
 18 55  1  0
 18 56  1  0
 19 57  1  6
 23 58  1  0
 24 59  1  0
 25 60  1  0
 26 61  1  0
 27 62  1  6
 29 63  1  1
 30 64  1  0
 30 65  1  0
 32 66  1  1
 33 67  1  0
 33 68  1  0
 33 69  1  0
 35 70  1  0
 35 71  1  0
 35 72  1  0
 37 73  1  0
 37 74  1  0
M  END
>  <meeko>  (7) 
{"is_sidechain": [false], "free_energy": -6.157, "intermolecular_energy": -9.485, "internal_energy": -1.199}

$$$$
LIB_ZIYCBQPVLHOKPQ__M_PUB_ALL__e8__s20260927
     RDKit          3D

 74 80  0  0  0  0  0  0  0  0999 V2000
   12.5020  -14.3910   -3.3800 C   0  0  0  0  0  0  0  0  0  0  0  0
   11.6630  -14.3160   -2.1330 C   0  0  0  0  0  0  0  0  0  0  0  0
   10.6890  -13.4070   -1.9210 C   0  0  0  0  0  0  0  0  0  0  0  0
   10.3340  -12.3070   -2.8450 C   0  0  0  0  0  0  0  0  0  0  0  0
   11.1290  -11.6300   -3.4720 O   0  0  0  0  0  0  0  0  0  0  0  0
    8.9830  -12.1770   -2.8410 O   0  0  0  0  0  0  0  0  0  0  0  0
    8.2180  -13.3020   -2.3890 C   0  0  0  0  0  0  0  0  0  0  0  0
    6.7630  -12.9690   -1.8780 C   0  0  2  0  0  0  0  0  0  0  0  0
    6.7860  -11.4440   -1.3940 C   0  0  0  0  0  0  0  0  0  0  0  0
    7.3430  -11.1780    0.0420 C   0  0  0  0  0  0  0  0  0  0  0  0
    6.6390  -12.1300    0.9390 C   0  0  2  0  0  0  0  0  0  0  0  0
    5.2060  -11.8190    1.2750 C   0  0  0  0  0  0  0  0  0  0  0  0
    7.0830  -13.1270    1.8320 O   0  0  0  0  0  0  0  0  0  0  0  0
    7.2780  -13.4930    0.5020 C   0  0  1  0  0  0  0  0  0  0  0  0
    6.4870  -13.9850   -0.6490 C   0  0  1  0  0  0  0  0  0  0  0  0
    5.1120  -14.1830   -0.3200 O   0  0  0  0  0  0  0  0  0  0  0  0
    4.2400  -14.3770   -1.4340 C   0  0  2  0  0  0  0  0  0  0  0  0
    4.7250  -15.4550   -2.4140 C   0  0  0  0  0  0  0  0  0  0  0  0
    5.6180  -14.7070   -3.4410 C   0  0  1  0  0  0  0  0  0  0  0  0
    5.0810  -14.8390   -4.7710 O   0  0  0  0  0  0  0  0  0  0  0  0
    5.8810  -15.4580   -5.6750 C   0  0  0  0  0  0  0  0  0  0  0  0
    6.5630  -14.9100   -6.5260 O   0  0  0  0  0  0  0  0  0  0  0  0
    5.8630  -16.9230   -5.4870 C   0  0  0  0  0  0  0  0  0  0  0  0
    6.8480  -17.6680   -4.9540 C   0  0  0  0  0  0  0  0  0  0  0  0
    8.1100  -17.1920   -4.4530 C   0  0  0  0  0  0  0  0  0  0  0  0
    8.8370  -17.7610   -3.4800 C   0  0  0  0  0  0  0  0  0  0  0  0
   10.1660  -17.1960   -3.0810 C   0  0  1  0  0  0  0  0  0  0  0  0
   10.1130  -16.7670   -1.7190 O   0  0  0  0  0  0  0  0  0  0  0  0
   11.4840  -16.7780   -1.2950 C   0  0  2  0  0  0  0  0  0  0  0  0
   12.0030  -15.3460   -1.0580 C   0  0  0  0  0  0  0  0  0  0  0  0
   12.2950  -17.4890   -2.2420 O   0  0  0  0  0  0  0  0  0  0  0  0
   11.3450  -18.1540   -3.0870 C   0  0  2  0  0  0  0  0  0  0  0  0
   11.9400  -18.3960   -4.4590 C   0  0  0  0  0  0  0  0  0  0  0  0
    5.6210  -13.1900   -2.9870 C   0  0  2  0  0  0  0  0  0  0  0  0
    5.6690  -12.1940   -4.1540 C   0  0  0  0  0  0  0  0  0  0  0  0
    4.2850  -13.1400   -2.2560 C   0  0  2  0  0  0  0  0  0  0  0  0
    3.3520  -11.9610   -2.0800 C   0  0  0  0  0  0  0  0  0  0  0  0
    3.1240  -12.9540   -3.0870 O   0  0  0  0  0  0  0  0  0  0  0  0
   13.5624  -14.4858   -3.1033 H   0  0  0  0  0  0  0  0  0  0  0  0
   12.1985  -15.2656   -3.9741 H   0  0  0  0  0  0  0  0  0  0  0  0
   12.3584  -13.4764   -3.9741 H   0  0  0  0  0  0  0  0  0  0  0  0
   10.1132  -13.4901   -0.9875 H   0  0  0  0  0  0  0  0  0  0  0  0
    8.1300  -14.0109   -3.2255 H   0  0  0  0  0  0  0  0  0  0  0  0
    8.7588  -13.7076   -1.5212 H   0  0  0  0  0  0  0  0  0  0  0  0
    7.4064  -10.8771   -2.1037 H   0  0  0  0  0  0  0  0  0  0  0  0
    5.7315  -11.1326   -1.3603 H   0  0  0  0  0  0  0  0  0  0  0  0
    8.4278  -11.3578    0.0702 H   0  0  0  0  0  0  0  0  0  0  0  0
    7.1762  -10.1357    0.3514 H   0  0  0  0  0  0  0  0  0  0  0  0
    5.0831  -11.7923    2.3678 H   0  0  0  0  0  0  0  0  0  0  0  0
    4.9340  -10.8409    0.8514 H   0  0  0  0  0  0  0  0  0  0  0  0
    4.5531  -12.5963    0.8514 H   0  0  0  0  0  0  0  0  0  0  0  0
    8.1156  -14.1124    0.1488 H   0  0  0  0  0  0  0  0  0  0  0  0
    6.8042  -14.9932   -0.9538 H   0  0  0  0  0  0  0  0  0  0  0  0
    3.2609  -14.6495   -1.0131 H   0  0  0  0  0  0  0  0  0  0  0  0
    5.3081  -16.2226   -1.8841 H   0  0  0  0  0  0  0  0  0  0  0  0
    3.8855  -15.9719   -2.9019 H   0  0  0  0  0  0  0  0  0  0  0  0
    6.6367  -15.1213   -3.4676 H   0  0  0  0  0  0  0  0  0  0  0  0
    4.9578  -17.4555   -5.8141 H   0  0  0  0  0  0  0  0  0  0  0  0
    6.6705  -18.7520   -4.8951 H   0  0  0  0  0  0  0  0  0  0  0  0
    8.5159  -16.2774   -4.9099 H   0  0  0  0  0  0  0  0  0  0  0  0
    8.4520  -18.6551   -2.9677 H   0  0  0  0  0  0  0  0  0  0  0  0
   10.3298  -16.4134   -3.8364 H   0  0  0  0  0  0  0  0  0  0  0  0
   11.5483  -17.3076   -0.3330 H   0  0  0  0  0  0  0  0  0  0  0  0
   11.5805  -14.9896   -0.1070 H   0  0  0  0  0  0  0  0  0  0  0  0
   13.1000  -15.4268   -1.0660 H   0  0  0  0  0  0  0  0  0  0  0  0
   11.0455  -19.1577   -2.7510 H   0  0  0  0  0  0  0  0  0  0  0  0
   12.9541  -18.8084   -4.3513 H   0  0  0  0  0  0  0  0  0  0  0  0
   11.3106  -19.1096   -5.0109 H   0  0  0  0  0  0  0  0  0  0  0  0
   11.9874  -17.4457   -5.0109 H   0  0  0  0  0  0  0  0  0  0  0  0
    5.7184  -11.1685   -3.7590 H   0  0  0  0  0  0  0  0  0  0  0  0
    6.5586  -12.3931   -4.7696 H   0  0  0  0  0  0  0  0  0  0  0  0
    4.7644  -12.3066   -4.7696 H   0  0  0  0  0  0  0  0  0  0  0  0
    2.6935  -11.9017   -1.2009 H   0  0  0  0  0  0  0  0  0  0  0  0
    3.4612  -10.8665   -2.0645 H   0  0  0  0  0  0  0  0  0  0  0  0
  1  2  1  0
  2  3  2  0
  3  4  1  0
  4  5  2  0
  4  6  1  0
  6  7  1  0
  8  7  1  6
  8  9  1  0
  9 10  1  0
 10 11  1  0
 11 12  1  6
 11 13  1  0
 13 14  1  0
 14 15  1  0
 15 16  1  0
 16 17  1  0
 17 18  1  0
 18 19  1  0
 19 20  1  0
 20 21  1  0
 21 22  2  0
 21 23  1  0
 23 24  2  0
 24 25  1  0
 25 26  2  0
 26 27  1  0
 27 28  1  0
 28 29  1  0
 29 30  1  0
 29 31  1  0
 31 32  1  0
 32 33  1  0
 19 34  1  0
 34 35  1  6
 34 36  1  0
 36 37  1  0
 37 38  1  0
 30  2  1  0
 36 38  1  6
 15  8  1  0
 36 17  1  0
 34  8  1  0
 14 11  1  0
 32 27  1  0
  1 39  1  0
  1 40  1  0
  1 41  1  0
  3 42  1  0
  7 43  1  0
  7 44  1  0
  9 45  1  0
  9 46  1  0
 10 47  1  0
 10 48  1  0
 12 49  1  0
 12 50  1  0
 12 51  1  0
 14 52  1  1
 15 53  1  6
 17 54  1  1
 18 55  1  0
 18 56  1  0
 19 57  1  6
 23 58  1  0
 24 59  1  0
 25 60  1  0
 26 61  1  0
 27 62  1  6
 29 63  1  1
 30 64  1  0
 30 65  1  0
 32 66  1  1
 33 67  1  0
 33 68  1  0
 33 69  1  0
 35 70  1  0
 35 71  1  0
 35 72  1  0
 37 73  1  0
 37 74  1  0
M  END
>  <meeko>  (8) 
{"is_sidechain": [false], "free_energy": -6.123, "intermolecular_energy": -9.235, "internal_energy": -1.396}

$$$$
LIB_ZIYCBQPVLHOKPQ__M_PUB_ALL__e8__s20260927
     RDKit          3D

 74 80  0  0  0  0  0  0  0  0999 V2000
    8.3610  -18.1760   -6.8720 C   0  0  0  0  0  0  0  0  0  0  0  0
    7.5640  -16.9190   -6.6530 C   0  0  0  0  0  0  0  0  0  0  0  0
    7.0230  -16.5520   -5.4730 C   0  0  0  0  0  0  0  0  0  0  0  0
    7.0700  -17.3520   -4.2290 C   0  0  0  0  0  0  0  0  0  0  0  0
    6.5980  -18.4670   -4.0900 O   0  0  0  0  0  0  0  0  0  0  0  0
    7.7010  -16.6140   -3.2820 O   0  0  0  0  0  0  0  0  0  0  0  0
    8.8580  -15.8740   -3.6900 C   0  0  0  0  0  0  0  0  0  0  0  0
    9.2340  -14.6450   -2.7750 C   0  0  2  0  0  0  0  0  0  0  0  0
    8.3130  -14.7490   -1.4700 C   0  0  0  0  0  0  0  0  0  0  0  0
    6.8560  -14.1980   -1.6010 C   0  0  0  0  0  0  0  0  0  0  0  0
    6.9800  -12.8440   -2.1970 C   0  0  2  0  0  0  0  0  0  0  0  0
    7.4750  -11.7440   -1.2970 C   0  0  0  0  0  0  0  0  0  0  0  0
    6.4430  -12.2430   -3.3540 O   0  0  0  0  0  0  0  0  0  0  0  0
    7.4140  -13.1920   -3.6620 C   0  0  1  0  0  0  0  0  0  0  0  0
    8.8890  -13.3270   -3.6490 C   0  0  1  0  0  0  0  0  0  0  0  0
    9.5410  -12.1300   -3.2270 O   0  0  0  0  0  0  0  0  0  0  0  0
   10.9280  -12.2670   -2.9160 C   0  0  2  0  0  0  0  0  0  0  0  0
   11.7380  -12.9690   -4.0150 C   0  0  0  0  0  0  0  0  0  0  0  0
   11.6700  -14.4820   -3.6750 C   0  0  1  0  0  0  0  0  0  0  0  0
   12.9910  -15.0100   -3.4440 O   0  0  0  0  0  0  0  0  0  0  0  0
   13.4610  -15.8640   -4.3860 C   0  0  0  0  0  0  0  0  0  0  0  0
   13.2730  -17.0690   -4.4230 O   0  0  0  0  0  0  0  0  0  0  0  0
   14.2280  -15.1420   -5.4230 C   0  0  0  0  0  0  0  0  0  0  0  0
   13.7910  -14.8170   -6.6520 C   0  0  0  0  0  0  0  0  0  0  0  0
   12.4860  -15.1170   -7.1840 C   0  0  0  0  0  0  0  0  0  0  0  0
   11.6620  -14.2540   -7.7970 C   0  0  0  0  0  0  0  0  0  0  0  0
   10.3420  -14.7070   -8.3440 C   0  0  1  0  0  0  0  0  0  0  0  0
    9.3990  -14.8270   -7.2780 O   0  0  0  0  0  0  0  0  0  0  0  0
    8.1230  -14.7120   -7.9240 C   0  0  2  0  0  0  0  0  0  0  0  0
    7.3630  -16.0520   -7.8950 C   0  0  0  0  0  0  0  0  0  0  0  0
    8.2830  -14.2190   -9.2630 O   0  0  0  0  0  0  0  0  0  0  0  0
    9.6420  -13.7630   -9.3080 C   0  0  2  0  0  0  0  0  0  0  0  0
   10.1710  -13.8230  -10.7270 C   0  0  0  0  0  0  0  0  0  0  0  0
   10.7870  -14.5910   -2.3660 C   0  0  2  0  0  0  0  0  0  0  0  0
   11.2290  -15.7100   -1.4110 C   0  0  0  0  0  0  0  0  0  0  0  0
   11.0360  -13.2100   -1.7730 C   0  0  2  0  0  0  0  0  0  0  0  0
   11.0310  -12.7960   -0.3170 C   0  0  0  0  0  0  0  0  0  0  0  0
   12.2520  -13.0650   -1.0160 O   0  0  0  0  0  0  0  0  0  0  0  0
    8.6361  -18.6099   -5.8993 H   0  0  0  0  0  0  0  0  0  0  0  0
    7.7563  -18.8996   -7.4384 H   0  0  0  0  0  0  0  0  0  0  0  0
    9.2734  -17.9377   -7.4384 H   0  0  0  0  0  0  0  0  0  0  0  0
    6.5063  -15.5818   -5.4323 H   0  0  0  0  0  0  0  0  0  0  0  0
    9.7151  -16.5634   -3.7009 H   0  0  0  0  0  0  0  0  0  0  0  0
    8.6156  -15.4534   -4.6771 H   0  0  0  0  0  0  0  0  0  0  0  0
    8.2452  -15.8112   -1.1921 H   0  0  0  0  0  0  0  0  0  0  0  0
    8.7998  -14.1111   -0.7176 H   0  0  0  0  0  0  0  0  0  0  0  0
    6.2587  -14.8499   -2.2554 H   0  0  0  0  0  0  0  0  0  0  0  0
    6.3504  -14.1626   -0.6247 H   0  0  0  0  0  0  0  0  0  0  0  0
    7.3411  -12.0416   -0.2465 H   0  0  0  0  0  0  0  0  0  0  0  0
    8.5419  -11.5618   -1.4933 H   0  0  0  0  0  0  0  0  0  0  0  0
    6.9038  -10.8247   -1.4933 H   0  0  0  0  0  0  0  0  0  0  0  0
    7.3974  -13.8213   -4.5641 H   0  0  0  0  0  0  0  0  0  0  0  0
    9.2888  -13.4691   -4.6639 H   0  0  0  0  0  0  0  0  0  0  0  0
   11.3074  -11.2483   -2.7479 H   0  0  0  0  0  0  0  0  0  0  0  0
   11.2941  -12.7763   -5.0028 H   0  0  0  0  0  0  0  0  0  0  0  0
   12.7753  -12.6049   -4.0543 H   0  0  0  0  0  0  0  0  0  0  0  0
   11.2366  -15.0630   -4.5024 H   0  0  0  0  0  0  0  0  0  0  0  0
   15.2542  -14.8421   -5.1644 H   0  0  0  0  0  0  0  0  0  0  0  0
   14.4893  -14.2759   -7.3074 H   0  0  0  0  0  0  0  0  0  0  0  0
   12.1315  -16.1528   -7.0773 H   0  0  0  0  0  0  0  0  0  0  0  0
   11.9590  -13.1998   -7.8996 H   0  0  0  0  0  0  0  0  0  0  0  0
   10.6075  -15.6350   -8.8715 H   0  0  0  0  0  0  0  0  0  0  0  0
    7.5140  -13.9842   -7.3678 H   0  0  0  0  0  0  0  0  0  0  0  0
    6.2889  -15.8297   -7.9780 H   0  0  0  0  0  0  0  0  0  0  0  0
    7.7720  -16.6386   -8.7308 H   0  0  0  0  0  0  0  0  0  0  0  0
    9.7902  -12.7125   -9.0174 H   0  0  0  0  0  0  0  0  0  0  0  0
   11.2638  -13.9469  -10.7060 H   0  0  0  0  0  0  0  0  0  0  0  0
    9.7154  -14.6752  -11.2525 H   0  0  0  0  0  0  0  0  0  0  0  0
    9.9178  -12.8904  -11.2525 H   0  0  0  0  0  0  0  0  0  0  0  0
   11.0976  -15.3774   -0.3707 H   0  0  0  0  0  0  0  0  0  0  0  0
   10.6176  -16.6069   -1.5892 H   0  0  0  0  0  0  0  0  0  0  0  0
   12.2883  -15.9470   -1.5892 H   0  0  0  0  0  0  0  0  0  0  0  0
   10.7694  -11.7656   -0.0346 H   0  0  0  0  0  0  0  0  0  0  0  0
   10.5541  -13.1630    0.6038 H   0  0  0  0  0  0  0  0  0  0  0  0
  1  2  1  0
  2  3  2  0
  3  4  1  0
  4  5  2  0
  4  6  1  0
  6  7  1  0
  8  7  1  6
  8  9  1  0
  9 10  1  0
 10 11  1  0
 11 12  1  1
 11 13  1  0
 13 14  1  0
 14 15  1  0
 15 16  1  0
 16 17  1  0
 17 18  1  0
 18 19  1  0
 19 20  1  0
 20 21  1  0
 21 22  2  0
 21 23  1  0
 23 24  2  0
 24 25  1  0
 25 26  2  0
 26 27  1  0
 27 28  1  0
 28 29  1  0
 29 30  1  0
 29 31  1  0
 31 32  1  0
 32 33  1  0
 19 34  1  0
 34 35  1  1
 34 36  1  0
 36 37  1  0
 37 38  1  0
 30  2  1  0
 36 38  1  6
 15  8  1  0
 36 17  1  0
 34  8  1  0
 14 11  1  0
 32 27  1  0
  1 39  1  0
  1 40  1  0
  1 41  1  0
  3 42  1  0
  7 43  1  0
  7 44  1  0
  9 45  1  0
  9 46  1  0
 10 47  1  0
 10 48  1  0
 12 49  1  0
 12 50  1  0
 12 51  1  0
 14 52  1  6
 15 53  1  6
 17 54  1  1
 18 55  1  0
 18 56  1  0
 19 57  1  6
 23 58  1  0
 24 59  1  0
 25 60  1  0
 26 61  1  0
 27 62  1  6
 29 63  1  1
 30 64  1  0
 30 65  1  0
 32 66  1  1
 33 67  1  0
 33 68  1  0
 33 69  1  0
 35 70  1  0
 35 71  1  0
 35 72  1  0
 37 73  1  0
 37 74  1  0
M  END
>  <meeko>  (9) 
{"is_sidechain": [false], "free_energy": -5.897, "intermolecular_energy": -8.731, "internal_energy": -1.541}

$$$$
