LIB_OOAWTVSOWWSCRB__M_PUB_ALL__e8__s20260927
     RDKit          3D

 74 79  0  0  0  0  0  0  0  0999 V2000
   13.4010  -11.7860   -2.6920 C   0  0  0  0  0  0  0  0  0  0  0  0
   12.1430  -12.3260   -3.3010 C   0  0  0  0  0  0  0  0  0  0  0  0
   12.0940  -12.9170   -4.3700 O   0  0  0  0  0  0  0  0  0  0  0  0
   11.0850  -12.0560   -2.4890 O   0  0  0  0  0  0  0  0  0  0  0  0
   10.0570  -13.0490   -2.4430 C   0  0  1  0  0  0  0  0  0  0  0  0
   10.6730  -14.3990   -2.0120 C   0  0  0  0  0  0  0  0  0  0  0  0
    9.6330  -15.0870   -1.1100 C   0  0  0  0  0  0  0  0  0  0  0  0
    8.3980  -14.2000   -1.2320 C   0  0  1  0  0  0  0  0  0  0  0  0
    7.3080  -14.3010   -0.1580 C   0  0  2  0  0  0  0  0  0  0  0  0
    6.7880  -15.7380   -0.0220 C   0  0  0  0  0  0  0  0  0  0  0  0
    5.6250  -15.8400    0.9590 C   0  0  0  0  0  0  0  0  0  0  0  0
    4.4920  -14.8720    0.5930 C   0  0  1  0  0  0  0  0  0  0  0  0
    3.3000  -15.0390    1.5490 C   0  0  0  0  0  0  0  0  0  0  0  0
    2.2210  -13.9800    1.3950 C   0  0  0  0  0  0  0  0  0  0  0  0
    0.9700  -14.1840    2.1180 C   0  0  0  0  0  0  0  0  0  0  0  0
    0.8270  -15.3610    2.9230 C   0  0  0  0  0  0  0  0  0  0  0  0
    0.7050  -16.3090    3.5830 N   0  0  0  0  0  0  0  0  0  0  0  0
   -0.0230  -13.2600    2.0990 C   0  0  0  0  0  0  0  0  0  0  0  0
   -1.1540  -13.4210    2.8780 N   0  0  0  0  0  0  0  0  0  0  0  0
    0.1250  -12.1080    1.2900 N   0  0  0  0  0  0  0  0  0  0  0  0
   -0.9440  -11.1440    1.2550 C   0  0  0  0  0  0  0  0  0  0  0  0
   -1.9590  -11.2540    0.2950 C   0  0  0  0  0  0  0  0  0  0  0  0
   -2.9750  -10.2980    0.2400 C   0  0  0  0  0  0  0  0  0  0  0  0
   -2.9810   -9.2310    1.1370 C   0  0  0  0  0  0  0  0  0  0  0  0
   -1.9710   -9.1120    2.0910 C   0  0  0  0  0  0  0  0  0  0  0  0
   -0.9520  -10.0640    2.1500 C   0  0  0  0  0  0  0  0  0  0  0  0
    1.2680  -11.8900    0.4640 C   0  0  0  0  0  0  0  0  0  0  0  0
    1.3580  -10.6590   -0.7200 S   0  0  0  0  0  0  0  0  0  0  0  0
    2.4140  -12.8720    0.6520 C   0  0  0  0  0  0  0  0  0  0  0  0
    3.7480  -12.5710   -0.0160 C   0  0  0  0  0  0  0  0  0  0  0  0
    4.9630  -13.3970    0.5010 C   0  0  1  0  0  0  0  0  0  0  0  0
    5.3890  -12.8390    1.8840 C   0  0  0  0  0  0  0  0  0  0  0  0
    6.1490  -13.3230   -0.5300 C   0  0  1  0  0  0  0  0  0  0  0  0
    6.6630  -11.8880   -0.8130 C   0  0  0  0  0  0  0  0  0  0  0  0
    7.8450  -11.8420   -1.7970 C   0  0  0  0  0  0  0  0  0  0  0  0
    8.9820  -12.7790   -1.3650 C   0  0  2  0  0  0  0  0  0  0  0  0
    9.6390  -12.2290   -0.0740 C   0  0  0  0  0  0  0  0  0  0  0  0
   13.3215  -11.8201   -1.5954 H   0  0  0  0  0  0  0  0  0  0  0  0
   14.2568  -12.3960   -3.0167 H   0  0  0  0  0  0  0  0  0  0  0  0
   13.5483  -10.7454   -3.0167 H   0  0  0  0  0  0  0  0  0  0  0  0
    9.6078  -13.0441   -3.4471 H   0  0  0  0  0  0  0  0  0  0  0  0
   10.8805  -15.0210   -2.8952 H   0  0  0  0  0  0  0  0  0  0  0  0
   11.6240  -14.2499   -1.4797 H   0  0  0  0  0  0  0  0  0  0  0  0
    9.4197  -16.1060   -1.4653 H   0  0  0  0  0  0  0  0  0  0  0  0
    9.9774  -15.1944   -0.0708 H   0  0  0  0  0  0  0  0  0  0  0  0
    7.8051  -14.5404   -2.0937 H   0  0  0  0  0  0  0  0  0  0  0  0
    7.7330  -14.0206    0.8171 H   0  0  0  0  0  0  0  0  0  0  0  0
    6.4505  -16.0874   -1.0089 H   0  0  0  0  0  0  0  0  0  0  0  0
    7.6099  -16.3592    0.3634 H   0  0  0  0  0  0  0  0  0  0  0  0
    5.2348  -16.8684    0.9446 H   0  0  0  0  0  0  0  0  0  0  0  0
    5.9948  -15.5746    1.9604 H   0  0  0  0  0  0  0  0  0  0  0  0
    4.1552  -15.1392   -0.4195 H   0  0  0  0  0  0  0  0  0  0  0  0
    2.8453  -16.0234    1.3639 H   0  0  0  0  0  0  0  0  0  0  0  0
    3.6981  -14.9367    2.5693 H   0  0  0  0  0  0  0  0  0  0  0  0
   -1.5650  -14.3310    3.0540 H   0  0  0  0  0  0  0  0  0  0  0  0
   -1.5050  -12.6330    3.4090 H   0  0  0  0  0  0  0  0  0  0  0  0
   -1.9552  -12.0938   -0.4154 H   0  0  0  0  0  0  0  0  0  0  0  0
   -3.7723  -10.3869   -0.5126 H   0  0  0  0  0  0  0  0  0  0  0  0
   -3.7845   -8.4810    1.0922 H   0  0  0  0  0  0  0  0  0  0  0  0
   -1.9773   -8.2683    2.7967 H   0  0  0  0  0  0  0  0  0  0  0  0
   -0.1533   -9.9671    2.9001 H   0  0  0  0  0  0  0  0  0  0  0  0
    3.6390  -12.7678   -1.0927 H   0  0  0  0  0  0  0  0  0  0  0  0
    3.9742  -11.5217    0.2246 H   0  0  0  0  0  0  0  0  0  0  0  0
    4.9285  -13.4421    2.6804 H   0  0  0  0  0  0  0  0  0  0  0  0
    6.4842  -12.8846    1.9762 H   0  0  0  0  0  0  0  0  0  0  0  0
    5.0564  -11.7946    1.9762 H   0  0  0  0  0  0  0  0  0  0  0  0
    5.7196  -13.6616   -1.4844 H   0  0  0  0  0  0  0  0  0  0  0  0
    5.8356  -11.2988   -1.2351 H   0  0  0  0  0  0  0  0  0  0  0  0
    7.0218  -11.4786    0.1429 H   0  0  0  0  0  0  0  0  0  0  0  0
    7.4914  -12.1466   -2.7931 H   0  0  0  0  0  0  0  0  0  0  0  0
    8.2363  -10.8141   -1.8142 H   0  0  0  0  0  0  0  0  0  0  0  0
    9.1319  -12.6535    0.8050 H   0  0  0  0  0  0  0  0  0  0  0  0
   10.7023  -12.5102   -0.0552 H   0  0  0  0  0  0  0  0  0  0  0  0
    9.5492  -11.1328   -0.0552 H   0  0  0  0  0  0  0  0  0  0  0  0
  1  2  1  0
  2  3  2  0
  2  4  1  0
  4  5  1  0
  5  6  1  0
  6  7  1  0
  7  8  1  0
  8  9  1  0
  9 10  1  0
 10 11  1  0
 11 12  1  0
 12 13  1  0
 13 14  1  0
 14 15  1  0
 15 16  1  0
 16 17  3  0
 15 18  2  0
 18 19  1  0
 18 20  1  0
 20 21  1  0
 21 22  2  0
 22 23  1  0
 23 24  2  0
 24 25  1  0
 25 26  2  0
 20 27  1  0
 27 28  2  0
 27 29  1  0
 29 30  1  0
 30 31  1  0
 31 32  1  1
 31 33  1  0
 33 34  1  0
 34 35  1  0
 35 36  1  0
 36 37  1  1
 36  5  1  0
 36  8  1  0
 33  9  1  0
 31 12  1  0
 29 14  2  0
 26 21  1  0
  1 38  1  0
  1 39  1  0
  1 40  1  0
  5 41  1  6
  6 42  1  0
  6 43  1  0
  7 44  1  0
  7 45  1  0
  8 46  1  6
  9 47  1  1
 10 48  1  0
 10 49  1  0
 11 50  1  0
 11 51  1  0
 12 52  1  6
 13 53  1  0
 13 54  1  0
 19 55  1  0
 19 56  1  0
 22 57  1  0
 23 58  1  0
 24 59  1  0
 25 60  1  0
 26 61  1  0
 30 62  1  0
 30 63  1  0
 32 64  1  0
 32 65  1  0
 32 66  1  0
 33 67  1  6
 34 68  1  0
 34 69  1  0
 35 70  1  0
 35 71  1  0
 37 72  1  0
 37 73  1  0
 37 74  1  0
M  END
>  <meeko>  (1) 
{"is_sidechain": [false], "free_energy": -8.774, "intermolecular_energy": -10.569, "internal_energy": -0.281}

$$$$
LIB_OOAWTVSOWWSCRB__M_PUB_ALL__e8__s20260927
     RDKit          3D

 74 79  0  0  0  0  0  0  0  0999 V2000
    2.5830  -15.7130    1.9480 C   0  0  0  0  0  0  0  0  0  0  0  0
    1.5350  -14.6430    1.8990 C   0  0  0  0  0  0  0  0  0  0  0  0
    0.3870  -14.7840    2.2960 O   0  0  0  0  0  0  0  0  0  0  0  0
    2.0560  -13.5120    1.3510 O   0  0  0  0  0  0  0  0  0  0  0  0
    1.7660  -13.2910   -0.0330 C   0  0  1  0  0  0  0  0  0  0  0  0
    1.0270  -11.9420   -0.1870 C   0  0  0  0  0  0  0  0  0  0  0  0
    1.5420  -11.3080   -1.4910 C   0  0  0  0  0  0  0  0  0  0  0  0
    2.3920  -12.4060   -2.1230 C   0  0  1  0  0  0  0  0  0  0  0  0
    3.4180  -12.0200   -3.1950 C   0  0  2  0  0  0  0  0  0  0  0  0
    2.7560  -11.2720   -4.3600 C   0  0  0  0  0  0  0  0  0  0  0  0
    3.7370  -10.9790   -5.4900 C   0  0  0  0  0  0  0  0  0  0  0  0
    4.4340  -12.2560   -5.9760 C   0  0  1  0  0  0  0  0  0  0  0  0
    5.3650  -11.9550   -7.1610 C   0  0  0  0  0  0  0  0  0  0  0  0
    6.2550  -13.1170   -7.5710 C   0  0  0  0  0  0  0  0  0  0  0  0
    7.0140  -12.9790   -8.8090 C   0  0  0  0  0  0  0  0  0  0  0  0
    6.8790  -11.7680   -9.5650 C   0  0  0  0  0  0  0  0  0  0  0  0
    6.7810  -10.7890  -10.1810 N   0  0  0  0  0  0  0  0  0  0  0  0
    7.8870  -13.9320   -9.2200 C   0  0  0  0  0  0  0  0  0  0  0  0
    8.6780  -13.7330  -10.3370 N   0  0  0  0  0  0  0  0  0  0  0  0
    8.0030  -15.1270   -8.4700 N   0  0  0  0  0  0  0  0  0  0  0  0
    8.9130  -16.1460   -8.9270 C   0  0  0  0  0  0  0  0  0  0  0  0
    8.5030  -17.0740   -9.8930 C   0  0  0  0  0  0  0  0  0  0  0  0
    9.3750  -18.0820  -10.3080 C   0  0  0  0  0  0  0  0  0  0  0  0
   10.6540  -18.1700   -9.7580 C   0  0  0  0  0  0  0  0  0  0  0  0
   11.0660  -17.2530   -8.7920 C   0  0  0  0  0  0  0  0  0  0  0  0
   10.1980  -16.2430   -8.3730 C   0  0  0  0  0  0  0  0  0  0  0  0
    7.2110  -15.3880   -7.3120 C   0  0  0  0  0  0  0  0  0  0  0  0
    7.1270  -16.9160   -6.5490 S   0  0  0  0  0  0  0  0  0  0  0  0
    6.3740  -14.2220   -6.8100 C   0  0  0  0  0  0  0  0  0  0  0  0
    5.6900  -14.3470   -5.4560 C   0  0  0  0  0  0  0  0  0  0  0  0
    5.1660  -13.0170   -4.8390 C   0  0  1  0  0  0  0  0  0  0  0  0
    6.3760  -12.2130   -4.2920 C   0  0  0  0  0  0  0  0  0  0  0  0
    4.1250  -13.3180   -3.6990 C   0  0  1  0  0  0  0  0  0  0  0  0
    4.6830  -14.1710   -2.5300 C   0  0  0  0  0  0  0  0  0  0  0  0
    3.6580  -14.4240   -1.4110 C   0  0  0  0  0  0  0  0  0  0  0  0
    3.0270  -13.1170   -0.9110 C   0  0  2  0  0  0  0  0  0  0  0  0
    4.0960  -12.2830   -0.1610 C   0  0  0  0  0  0  0  0  0  0  0  0
    2.8157  -15.9506    2.9965 H   0  0  0  0  0  0  0  0  0  0  0  0
    2.2096  -16.6154    1.4417 H   0  0  0  0  0  0  0  0  0  0  0  0
    3.4929  -15.3585    1.4417 H   0  0  0  0  0  0  0  0  0  0  0  0
    1.1922  -14.1738   -0.3514 H   0  0  0  0  0  0  0  0  0  0  0  0
   -0.0586  -12.1083   -0.2482 H   0  0  0  0  0  0  0  0  0  0  0  0
    1.2140  -11.2853    0.6755 H   0  0  0  0  0  0  0  0  0  0  0  0
    0.7049  -11.0333   -2.1497 H   0  0  0  0  0  0  0  0  0  0  0  0
    2.1080  -10.3810   -1.3170 H   0  0  0  0  0  0  0  0  0  0  0  0
    1.7420  -13.0392   -2.7447 H   0  0  0  0  0  0  0  0  0  0  0  0
    4.1606  -11.3373   -2.7563 H   0  0  0  0  0  0  0  0  0  0  0  0
    1.9347  -11.8880   -4.7551 H   0  0  0  0  0  0  0  0  0  0  0  0
    2.3868  -10.3095   -3.9762 H   0  0  0  0  0  0  0  0  0  0  0  0
    3.1891  -10.5289   -6.3310 H   0  0  0  0  0  0  0  0  0  0  0  0
    4.5056  -10.2904   -5.1093 H   0  0  0  0  0  0  0  0  0  0  0  0
    3.6453  -12.9369   -6.3285 H   0  0  0  0  0  0  0  0  0  0  0  0
    4.7435  -11.6762   -8.0247 H   0  0  0  0  0  0  0  0  0  0  0  0
    6.0352  -11.1456   -6.8360 H   0  0  0  0  0  0  0  0  0  0  0  0
    9.0040  -14.5010  -10.9120 H   0  0  0  0  0  0  0  0  0  0  0  0
    8.8210  -12.7900  -10.6790 H   0  0  0  0  0  0  0  0  0  0  0  0
    7.4934  -17.0084  -10.3247 H   0  0  0  0  0  0  0  0  0  0  0  0
    9.0533  -18.8077  -11.0695 H   0  0  0  0  0  0  0  0  0  0  0  0
   11.3392  -18.9650  -10.0873 H   0  0  0  0  0  0  0  0  0  0  0  0
   12.0750  -17.3253   -8.3600 H   0  0  0  0  0  0  0  0  0  0  0  0
   10.5221  -15.5225   -7.6076 H   0  0  0  0  0  0  0  0  0  0  0  0
    4.8329  -15.0266   -5.5718 H   0  0  0  0  0  0  0  0  0  0  0  0
    6.4611  -14.7155   -4.7634 H   0  0  0  0  0  0  0  0  0  0  0  0
    6.3574  -12.2253   -3.1922 H   0  0  0  0  0  0  0  0  0  0  0  0
    7.3111  -12.6700   -4.6481 H   0  0  0  0  0  0  0  0  0  0  0  0
    6.3169  -11.1739   -4.6481 H   0  0  0  0  0  0  0  0  0  0  0  0
    3.3609  -13.9528   -4.1714 H   0  0  0  0  0  0  0  0  0  0  0  0
    5.0069  -15.1425   -2.9316 H   0  0  0  0  0  0  0  0  0  0  0  0
    5.5147  -13.6052   -2.0850 H   0  0  0  0  0  0  0  0  0  0  0  0
    2.8628  -15.0784   -1.7976 H   0  0  0  0  0  0  0  0  0  0  0  0
    4.1822  -14.8959   -0.5669 H   0  0  0  0  0  0  0  0  0  0  0  0
    3.9532  -12.3944    0.9240 H   0  0  0  0  0  0  0  0  0  0  0  0
    5.0993  -12.6394   -0.4373 H   0  0  0  0  0  0  0  0  0  0  0  0
    3.9944  -11.2231   -0.4373 H   0  0  0  0  0  0  0  0  0  0  0  0
  1  2  1  0
  2  3  2  0
  2  4  1  0
  4  5  1  0
  5  6  1  0
  6  7  1  0
  7  8  1  0
  8  9  1  0
  9 10  1  0
 10 11  1  0
 11 12  1  0
 12 13  1  0
 13 14  1  0
 14 15  1  0
 15 16  1  0
 16 17  3  0
 15 18  2  0
 18 19  1  0
 18 20  1  0
 20 21  1  0
 21 22  2  0
 22 23  1  0
 23 24  2  0
 24 25  1  0
 25 26  2  0
 20 27  1  0
 27 28  2  0
 27 29  1  0
 29 30  1  0
 30 31  1  0
 31 32  1  1
 31 33  1  0
 33 34  1  0
 34 35  1  0
 35 36  1  0
 36 37  1  1
 36  5  1  0
 36  8  1  0
 33  9  1  0
 31 12  1  0
 29 14  2  0
 26 21  1  0
  1 38  1  0
  1 39  1  0
  1 40  1  0
  5 41  1  6
  6 42  1  0
  6 43  1  0
  7 44  1  0
  7 45  1  0
  8 46  1  6
  9 47  1  1
 10 48  1  0
 10 49  1  0
 11 50  1  0
 11 51  1  0
 12 52  1  6
 13 53  1  0
 13 54  1  0
 19 55  1  0
 19 56  1  0
 22 57  1  0
 23 58  1  0
 24 59  1  0
 25 60  1  0
 26 61  1  0
 30 62  1  0
 30 63  1  0
 32 64  1  0
 32 65  1  0
 32 66  1  0
 33 67  1  6
 34 68  1  0
 34 69  1  0
 35 70  1  0
 35 71  1  0
 37 72  1  0
 37 73  1  0
 37 74  1  0
M  END
>  <meeko>  (2) 
{"is_sidechain": [false], "free_energy": -8.665, "intermolecular_energy": -10.101, "internal_energy": -0.618}

$$$$
LIB_OOAWTVSOWWSCRB__M_PUB_ALL__e8__s20260927
     RDKit          3D

 74 79  0  0  0  0  0  0  0  0999 V2000
   -1.8230  -13.6230    1.4150 C   0  0  0  0  0  0  0  0  0  0  0  0
   -2.2280  -14.1930    0.0890 C   0  0  0  0  0  0  0  0  0  0  0  0
   -3.3810  -14.4440   -0.2290 O   0  0  0  0  0  0  0  0  0  0  0  0
   -1.1260  -14.3840   -0.6860 O   0  0  0  0  0  0  0  0  0  0  0  0
   -0.1000  -15.2110   -0.1300 C   0  0  1  0  0  0  0  0  0  0  0  0
   -0.5090  -16.6940   -0.2750 C   0  0  0  0  0  0  0  0  0  0  0  0
    0.7790  -17.4750   -0.5870 C   0  0  0  0  0  0  0  0  0  0  0  0
    1.8880  -16.4430   -0.4060 C   0  0  1  0  0  0  0  0  0  0  0  0
    3.2560  -16.7100   -1.0450 C   0  0  2  0  0  0  0  0  0  0  0  0
    3.8410  -18.0490   -0.5740 C   0  0  0  0  0  0  0  0  0  0  0  0
    5.2510  -18.2810   -1.1070 C   0  0  0  0  0  0  0  0  0  0  0  0
    6.1840  -17.1150   -0.7580 C   0  0  1  0  0  0  0  0  0  0  0  0
    7.6170  -17.3970   -1.2400 C   0  0  0  0  0  0  0  0  0  0  0  0
    8.5610  -16.2110   -1.1270 C   0  0  0  0  0  0  0  0  0  0  0  0
    9.9790  -16.4550   -1.3680 C   0  0  0  0  0  0  0  0  0  0  0  0
   10.4000  -17.7860   -1.6930 C   0  0  0  0  0  0  0  0  0  0  0  0
   10.7500  -18.8600   -1.9630 N   0  0  0  0  0  0  0  0  0  0  0  0
   10.8870  -15.4480   -1.3600 C   0  0  0  0  0  0  0  0  0  0  0  0
   12.2070  -15.6820   -1.7000 N   0  0  0  0  0  0  0  0  0  0  0  0
   10.4600  -14.1400   -1.0270 N   0  0  0  0  0  0  0  0  0  0  0  0
   11.4350  -13.0800   -0.9940 C   0  0  0  0  0  0  0  0  0  0  0  0
   11.8380  -12.4590   -2.1840 C   0  0  0  0  0  0  0  0  0  0  0  0
   12.8100  -11.4570   -2.1540 C   0  0  0  0  0  0  0  0  0  0  0  0
   13.3820  -11.0740   -0.9410 C   0  0  0  0  0  0  0  0  0  0  0  0
   12.9900  -11.6930    0.2450 C   0  0  0  0  0  0  0  0  0  0  0  0
   12.0200  -12.6960    0.2210 C   0  0  0  0  0  0  0  0  0  0  0  0
    9.1120  -13.8400   -0.6650 C   0  0  0  0  0  0  0  0  0  0  0  0
    8.6240  -12.3430    0.0020 S   0  0  0  0  0  0  0  0  0  0  0  0
    8.1130  -14.9710   -0.8510 C   0  0  0  0  0  0  0  0  0  0  0  0
    6.6290  -14.6610   -0.7120 C   0  0  0  0  0  0  0  0  0  0  0  0
    5.6590  -15.7460   -1.2660 C   0  0  1  0  0  0  0  0  0  0  0  0
    5.6570  -15.6660   -2.8150 C   0  0  0  0  0  0  0  0  0  0  0  0
    4.2120  -15.5290   -0.6860 C   0  0  1  0  0  0  0  0  0  0  0  0
    3.5880  -14.1490   -1.0200 C   0  0  0  0  0  0  0  0  0  0  0  0
    2.1610  -13.9720   -0.4720 C   0  0  0  0  0  0  0  0  0  0  0  0
    1.2430  -15.1290   -0.8920 C   0  0  2  0  0  0  0  0  0  0  0  0
    0.9940  -15.0590   -2.4200 C   0  0  0  0  0  0  0  0  0  0  0  0
   -2.2553  -14.2314    2.2231 H   0  0  0  0  0  0  0  0  0  0  0  0
   -0.7261  -13.6299    1.4975 H   0  0  0  0  0  0  0  0  0  0  0  0
   -2.1904  -12.5895    1.4975 H   0  0  0  0  0  0  0  0  0  0  0  0
    0.0206  -14.8620    0.9062 H   0  0  0  0  0  0  0  0  0  0  0  0
   -0.9564  -17.0579    0.6617 H   0  0  0  0  0  0  0  0  0  0  0  0
   -1.2556  -16.8241   -1.0723 H   0  0  0  0  0  0  0  0  0  0  0  0
    0.9071  -18.3138    0.1130 H   0  0  0  0  0  0  0  0  0  0  0  0
    0.7726  -17.9181   -1.5938 H   0  0  0  0  0  0  0  0  0  0  0  0
    2.2015  -16.4447    0.6484 H   0  0  0  0  0  0  0  0  0  0  0  0
    3.1401  -16.7769   -2.1368 H   0  0  0  0  0  0  0  0  0  0  0  0
    3.8725  -18.0546    0.5255 H   0  0  0  0  0  0  0  0  0  0  0  0
    3.1974  -18.8532   -0.9602 H   0  0  0  0  0  0  0  0  0  0  0  0
    5.6526  -19.2046   -0.6647 H   0  0  0  0  0  0  0  0  0  0  0  0
    5.1962  -18.3625   -2.2026 H   0  0  0  0  0  0  0  0  0  0  0  0
    6.2029  -17.0374    0.3391 H   0  0  0  0  0  0  0  0  0  0  0  0
    8.0266  -18.2216   -0.6382 H   0  0  0  0  0  0  0  0  0  0  0  0
    7.5464  -17.6419   -2.3101 H   0  0  0  0  0  0  0  0  0  0  0  0
   12.7030  -16.5140   -1.4020 H   0  0  0  0  0  0  0  0  0  0  0  0
   12.6550  -15.0840   -2.3840 H   0  0  0  0  0  0  0  0  0  0  0  0
   11.3886  -12.7609   -3.1416 H   0  0  0  0  0  0  0  0  0  0  0  0
   13.1250  -10.9691   -3.0882 H   0  0  0  0  0  0  0  0  0  0  0  0
   14.1445  -10.2814   -0.9201 H   0  0  0  0  0  0  0  0  0  0  0  0
   13.4453  -11.3908    1.1997 H   0  0  0  0  0  0  0  0  0  0  0  0
   11.7138  -13.1862    1.1569 H   0  0  0  0  0  0  0  0  0  0  0  0
    6.4104  -14.5263    0.3576 H   0  0  0  0  0  0  0  0  0  0  0  0
    6.4519  -13.7613   -1.3196 H   0  0  0  0  0  0  0  0  0  0  0  0
    5.6306  -14.6117   -3.1277 H   0  0  0  0  0  0  0  0  0  0  0  0
    6.5673  -16.1423   -3.2079 H   0  0  0  0  0  0  0  0  0  0  0  0
    4.7716  -16.1872   -3.2079 H   0  0  0  0  0  0  0  0  0  0  0  0
    4.3400  -15.5230    0.4065 H   0  0  0  0  0  0  0  0  0  0  0  0
    4.2267  -13.3644   -0.5882 H   0  0  0  0  0  0  0  0  0  0  0  0
    3.5248  -14.0791   -2.1160 H   0  0  0  0  0  0  0  0  0  0  0  0
    2.2036  -13.9316    0.6264 H   0  0  0  0  0  0  0  0  0  0  0  0
    1.7484  -13.0399   -0.8854 H   0  0  0  0  0  0  0  0  0  0  0  0
   -0.0493  -14.7657   -2.6084 H   0  0  0  0  0  0  0  0  0  0  0  0
    1.6703  -14.3162   -2.8681 H   0  0  0  0  0  0  0  0  0  0  0  0
    1.1842  -16.0454   -2.8681 H   0  0  0  0  0  0  0  0  0  0  0  0
  1  2  1  0
  2  3  2  0
  2  4  1  0
  4  5  1  0
  5  6  1  0
  6  7  1  0
  7  8  1  0
  8  9  1  0
  9 10  1  0
 10 11  1  0
 11 12  1  0
 12 13  1  0
 13 14  1  0
 14 15  1  0
 15 16  1  0
 16 17  3  0
 15 18  2  0
 18 19  1  0
 18 20  1  0
 20 21  1  0
 21 22  2  0
 22 23  1  0
 23 24  2  0
 24 25  1  0
 25 26  2  0
 20 27  1  0
 27 28  2  0
 27 29  1  0
 29 30  1  0
 30 31  1  0
 31 32  1  6
 31 33  1  0
 33 34  1  0
 34 35  1  0
 35 36  1  0
 36 37  1  6
 36  5  1  0
 36  8  1  0
 33  9  1  0
 31 12  1  0
 29 14  2  0
 26 21  1  0
  1 38  1  0
  1 39  1  0
  1 40  1  0
  5 41  1  1
  6 42  1  0
  6 43  1  0
  7 44  1  0
  7 45  1  0
  8 46  1  1
  9 47  1  6
 10 48  1  0
 10 49  1  0
 11 50  1  0
 11 51  1  0
 12 52  1  1
 13 53  1  0
 13 54  1  0
 19 55  1  0
 19 56  1  0
 22 57  1  0
 23 58  1  0
 24 59  1  0
 25 60  1  0
 26 61  1  0
 30 62  1  0
 30 63  1  0
 32 64  1  0
 32 65  1  0
 32 66  1  0
 33 67  1  1
 34 68  1  0
 34 69  1  0
 35 70  1  0
 35 71  1  0
 37 72  1  0
 37 73  1  0
 37 74  1  0
M  END
>  <meeko>  (3) 
{"is_sidechain": [false], "free_energy": -8.524, "intermolecular_energy": -10.109, "internal_energy": -0.439}

$$$$
LIB_OOAWTVSOWWSCRB__M_PUB_ALL__e8__s20260927
     RDKit          3D

 74 79  0  0  0  0  0  0  0  0999 V2000
   -0.7570  -19.1130    7.2170 C   0  0  0  0  0  0  0  0  0  0  0  0
   -1.3720  -19.6940    5.9800 C   0  0  0  0  0  0  0  0  0  0  0  0
   -1.1500  -20.8230    5.5650 O   0  0  0  0  0  0  0  0  0  0  0  0
   -2.1990  -18.7810    5.4040 O   0  0  0  0  0  0  0  0  0  0  0  0
   -1.9820  -18.5240    4.0130 C   0  0  1  0  0  0  0  0  0  0  0  0
   -3.3370  -18.2140    3.3370 C   0  0  0  0  0  0  0  0  0  0  0  0
   -3.0650  -17.1190    2.2920 C   0  0  0  0  0  0  0  0  0  0  0  0
   -1.5440  -16.9980    2.2740 C   0  0  1  0  0  0  0  0  0  0  0  0
   -0.9110  -15.7280    1.6930 C   0  0  2  0  0  0  0  0  0  0  0  0
   -1.3740  -15.4810    0.2510 C   0  0  0  0  0  0  0  0  0  0  0  0
   -0.6690  -14.2870   -0.3850 C   0  0  0  0  0  0  0  0  0  0  0  0
    0.8560  -14.4280   -0.3080 C   0  0  1  0  0  0  0  0  0  0  0  0
    1.5500  -13.2530   -1.0160 C   0  0  0  0  0  0  0  0  0  0  0  0
    3.0550  -13.1960   -0.8080 C   0  0  0  0  0  0  0  0  0  0  0  0
    3.8090  -12.2370   -1.6090 C   0  0  0  0  0  0  0  0  0  0  0  0
    3.0970  -11.4110   -2.5390 C   0  0  0  0  0  0  0  0  0  0  0  0
    2.5290  -10.7330   -3.2920 N   0  0  0  0  0  0  0  0  0  0  0  0
    5.1440  -12.0650   -1.4440 C   0  0  0  0  0  0  0  0  0  0  0  0
    5.8200  -11.0750   -2.1340 N   0  0  0  0  0  0  0  0  0  0  0  0
    5.8370  -12.8950   -0.5300 N   0  0  0  0  0  0  0  0  0  0  0  0
    7.2580  -12.7230   -0.3790 C   0  0  0  0  0  0  0  0  0  0  0  0
    8.1410  -13.3580   -1.2630 C   0  0  0  0  0  0  0  0  0  0  0  0
    9.5200  -13.2190   -1.0930 C   0  0  0  0  0  0  0  0  0  0  0  0
   10.0210  -12.4520   -0.0410 C   0  0  0  0  0  0  0  0  0  0  0  0
    9.1480  -11.8220    0.8450 C   0  0  0  0  0  0  0  0  0  0  0  0
    7.7690  -11.9590    0.6800 C   0  0  0  0  0  0  0  0  0  0  0  0
    5.1920  -13.9330    0.2070 C   0  0  0  0  0  0  0  0  0  0  0  0
    6.0360  -15.1200    1.1030 S   0  0  0  0  0  0  0  0  0  0  0  0
    3.6750  -13.9700    0.1030 C   0  0  0  0  0  0  0  0  0  0  0  0
    2.9050  -14.8930    1.0370 C   0  0  0  0  0  0  0  0  0  0  0  0
    1.3740  -14.6220    1.1420 C   0  0  1  0  0  0  0  0  0  0  0  0
    1.1530  -13.3560    2.0090 C   0  0  0  0  0  0  0  0  0  0  0  0
    0.6420  -15.8690    1.7620 C   0  0  1  0  0  0  0  0  0  0  0  0
    1.1320  -16.2590    3.1810 C   0  0  0  0  0  0  0  0  0  0  0  0
    0.3790  -17.4590    3.7810 C   0  0  0  0  0  0  0  0  0  0  0  0
   -1.1420  -17.2550    3.7400 C   0  0  2  0  0  0  0  0  0  0  0  0
   -1.5360  -16.1240    4.7240 C   0  0  0  0  0  0  0  0  0  0  0  0
   -1.2288  -19.5587    8.1051 H   0  0  0  0  0  0  0  0  0  0  0  0
    0.3214  -19.3298    7.2269 H   0  0  0  0  0  0  0  0  0  0  0  0
   -0.9122  -18.0240    7.2269 H   0  0  0  0  0  0  0  0  0  0  0  0
   -1.4667  -19.4183    3.6326 H   0  0  0  0  0  0  0  0  0  0  0  0
   -3.7324  -19.1163    2.8475 H   0  0  0  0  0  0  0  0  0  0  0  0
   -4.0823  -17.8824    4.0749 H   0  0  0  0  0  0  0  0  0  0  0  0
   -3.4455  -17.4177    1.3041 H   0  0  0  0  0  0  0  0  0  0  0  0
   -3.5632  -16.1686    2.5341 H   0  0  0  0  0  0  0  0  0  0  0  0
   -1.1425  -17.7212    1.5489 H   0  0  0  0  0  0  0  0  0  0  0  0
   -1.2326  -14.8589    2.2856 H   0  0  0  0  0  0  0  0  0  0  0  0
   -1.1605  -16.3785   -0.3481 H   0  0  0  0  0  0  0  0  0  0  0  0
   -2.4518  -15.2625    0.2755 H   0  0  0  0  0  0  0  0  0  0  0  0
   -0.9685  -14.2161   -1.4411 H   0  0  0  0  0  0  0  0  0  0  0  0
   -0.9599  -13.3807    0.1664 H   0  0  0  0  0  0  0  0  0  0  0  0
    1.1204  -15.3519   -0.8432 H   0  0  0  0  0  0  0  0  0  0  0  0
    1.3546  -13.3375   -2.0952 H   0  0  0  0  0  0  0  0  0  0  0  0
    1.1369  -12.3330   -0.5767 H   0  0  0  0  0  0  0  0  0  0  0  0
    5.7060  -10.9370   -3.1310 H   0  0  0  0  0  0  0  0  0  0  0  0
    6.3330  -10.3730   -1.6140 H   0  0  0  0  0  0  0  0  0  0  0  0
    7.7476  -13.9660   -2.0910 H   0  0  0  0  0  0  0  0  0  0  0  0
   10.2121  -13.7149   -1.7895 H   0  0  0  0  0  0  0  0  0  0  0  0
   11.1078  -12.3439    0.0899 H   0  0  0  0  0  0  0  0  0  0  0  0
    9.5459  -11.2175    1.6734 H   0  0  0  0  0  0  0  0  0  0  0  0
    7.0810  -11.4662    1.3827 H   0  0  0  0  0  0  0  0  0  0  0  0
    3.0422  -15.9249    0.6815 H   0  0  0  0  0  0  0  0  0  0  0  0
    3.3120  -14.7104    2.0425 H   0  0  0  0  0  0  0  0  0  0  0  0
    1.2005  -13.6279    3.0738 H   0  0  0  0  0  0  0  0  0  0  0  0
    1.9356  -12.6164    1.7842 H   0  0  0  0  0  0  0  0  0  0  0  0
    0.1661  -12.9253    1.7842 H   0  0  0  0  0  0  0  0  0  0  0  0
    0.9289  -16.7166    1.1223 H   0  0  0  0  0  0  0  0  0  0  0  0
    2.2009  -16.5121    3.1231 H   0  0  0  0  0  0  0  0  0  0  0  0
    0.9429  -15.3968    3.8374 H   0  0  0  0  0  0  0  0  0  0  0  0
    0.6329  -18.3622    3.2067 H   0  0  0  0  0  0  0  0  0  0  0  0
    0.6823  -17.5619    4.8333 H   0  0  0  0  0  0  0  0  0  0  0  0
   -1.4126  -16.4782    5.7581 H   0  0  0  0  0  0  0  0  0  0  0  0
   -0.8893  -15.2501    4.5561 H   0  0  0  0  0  0  0  0  0  0  0  0
   -2.5856  -15.8411    4.5561 H   0  0  0  0  0  0  0  0  0  0  0  0
  1  2  1  0
  2  3  2  0
  2  4  1  0
  4  5  1  0
  5  6  1  0
  6  7  1  0
  7  8  1  0
  8  9  1  0
  9 10  1  0
 10 11  1  0
 11 12  1  0
 12 13  1  0
 13 14  1  0
 14 15  1  0
 15 16  1  0
 16 17  3  0
 15 18  2  0
 18 19  1  0
 18 20  1  0
 20 21  1  0
 21 22  2  0
 22 23  1  0
 23 24  2  0
 24 25  1  0
 25 26  2  0
 20 27  1  0
 27 28  2  0
 27 29  1  0
 29 30  1  0
 30 31  1  0
 31 32  1  1
 31 33  1  0
 33 34  1  0
 34 35  1  0
 35 36  1  0
 36 37  1  1
 36  5  1  0
 36  8  1  0
 33  9  1  0
 31 12  1  0
 29 14  2  0
 26 21  1  0
  1 38  1  0
  1 39  1  0
  1 40  1  0
  5 41  1  6
  6 42  1  0
  6 43  1  0
  7 44  1  0
  7 45  1  0
  8 46  1  6
  9 47  1  1
 10 48  1  0
 10 49  1  0
 11 50  1  0
 11 51  1  0
 12 52  1  6
 13 53  1  0
 13 54  1  0
 19 55  1  0
 19 56  1  0
 22 57  1  0
 23 58  1  0
 24 59  1  0
 25 60  1  0
 26 61  1  0
 30 62  1  0
 30 63  1  0
 32 64  1  0
 32 65  1  0
 32 66  1  0
 33 67  1  6
 34 68  1  0
 34 69  1  0
 35 70  1  0
 35 71  1  0
 37 72  1  0
 37 73  1  0
 37 74  1  0
M  END
>  <meeko>  (4) 
{"is_sidechain": [false], "free_energy": -8.437, "intermolecular_energy": -9.838, "internal_energy": -0.606}

$$$$
LIB_OOAWTVSOWWSCRB__M_PUB_ALL__e8__s20260927
     RDKit          3D

 74 79  0  0  0  0  0  0  0  0999 V2000
   -2.4710  -16.3320    0.0220 C   0  0  0  0  0  0  0  0  0  0  0  0
   -1.3840  -15.8880   -0.9100 C   0  0  0  0  0  0  0  0  0  0  0  0
   -1.5630  -15.5830   -2.0800 O   0  0  0  0  0  0  0  0  0  0  0  0
   -0.1910  -15.8820   -0.2570 O   0  0  0  0  0  0  0  0  0  0  0  0
    0.5950  -14.6950   -0.3910 C   0  0  1  0  0  0  0  0  0  0  0  0
    0.1180  -13.6500    0.6430 C   0  0  0  0  0  0  0  0  0  0  0  0
    1.3770  -12.9160    1.1380 C   0  0  0  0  0  0  0  0  0  0  0  0
    2.4840  -13.4280    0.2220 C   0  0  1  0  0  0  0  0  0  0  0  0
    3.9420  -13.2730    0.6690 C   0  0  2  0  0  0  0  0  0  0  0  0
    4.2830  -11.8070    0.9690 C   0  0  0  0  0  0  0  0  0  0  0  0
    5.7580  -11.6150    1.3040 C   0  0  0  0  0  0  0  0  0  0  0  0
    6.6640  -12.1810    0.2050 C   0  0  1  0  0  0  0  0  0  0  0  0
    8.1440  -11.9150    0.5240 C   0  0  0  0  0  0  0  0  0  0  0  0
    9.1220  -12.6230   -0.3990 C   0  0  0  0  0  0  0  0  0  0  0  0
   10.5310  -12.2610   -0.2910 C   0  0  0  0  0  0  0  0  0  0  0  0
   10.9130  -11.2670    0.6680 C   0  0  0  0  0  0  0  0  0  0  0  0
   11.2320  -10.4660    1.4460 N   0  0  0  0  0  0  0  0  0  0  0  0
   11.4860  -12.8880   -1.0220 C   0  0  0  0  0  0  0  0  0  0  0  0
   12.8260  -12.6080   -0.8250 N   0  0  0  0  0  0  0  0  0  0  0  0
   11.0960  -13.8610   -1.9740 N   0  0  0  0  0  0  0  0  0  0  0  0
   12.1130  -14.5040   -2.7650 C   0  0  0  0  0  0  0  0  0  0  0  0
   12.5320  -13.9300   -3.9720 C   0  0  0  0  0  0  0  0  0  0  0  0
   13.4930  -14.5740   -4.7560 C   0  0  0  0  0  0  0  0  0  0  0  0
   14.0340  -15.7900   -4.3390 C   0  0  0  0  0  0  0  0  0  0  0  0
   13.6170  -16.3690   -3.1400 C   0  0  0  0  0  0  0  0  0  0  0  0
   12.6560  -15.7300   -2.3550 C   0  0  0  0  0  0  0  0  0  0  0  0
    9.7290  -14.1890   -2.2210 C   0  0  0  0  0  0  0  0  0  0  0  0
    9.2100  -15.1470   -3.5400 S   0  0  0  0  0  0  0  0  0  0  0  0
    8.7210  -13.5760   -1.2620 C   0  0  0  0  0  0  0  0  0  0  0  0
    7.2790  -14.0610   -1.3150 C   0  0  0  0  0  0  0  0  0  0  0  0
    6.3930  -13.6800   -0.0920 C   0  0  1  0  0  0  0  0  0  0  0  0
    6.7840  -14.5850    1.1050 C   0  0  0  0  0  0  0  0  0  0  0  0
    4.8700  -13.8420   -0.4510 C   0  0  1  0  0  0  0  0  0  0  0  0
    4.4610  -15.2760   -0.8770 C   0  0  0  0  0  0  0  0  0  0  0  0
    2.9620  -15.4190   -1.1900 C   0  0  0  0  0  0  0  0  0  0  0  0
    2.0880  -14.8950   -0.0410 C   0  0  2  0  0  0  0  0  0  0  0  0
    2.2340  -15.8330    1.1840 C   0  0  0  0  0  0  0  0  0  0  0  0
   -2.1400  -16.1968    1.0623 H   0  0  0  0  0  0  0  0  0  0  0  0
   -3.3749  -15.7310   -0.1562 H   0  0  0  0  0  0  0  0  0  0  0  0
   -2.6957  -17.3940   -0.1562 H   0  0  0  0  0  0  0  0  0  0  0  0
    0.4811  -14.3937   -1.4428 H   0  0  0  0  0  0  0  0  0  0  0  0
   -0.5756  -12.9384    0.1713 H   0  0  0  0  0  0  0  0  0  0  0  0
   -0.4148  -14.1308    1.4766 H   0  0  0  0  0  0  0  0  0  0  0  0
    1.2594  -11.8268    1.0388 H   0  0  0  0  0  0  0  0  0  0  0  0
    1.5862  -13.1026    2.2017 H   0  0  0  0  0  0  0  0  0  0  0  0
    2.5229  -12.7898   -0.6731 H   0  0  0  0  0  0  0  0  0  0  0  0
    4.0967  -13.8349    1.6019 H   0  0  0  0  0  0  0  0  0  0  0  0
    4.0383  -11.1986    0.0858 H   0  0  0  0  0  0  0  0  0  0  0  0
    3.6948  -11.4962    1.8450 H   0  0  0  0  0  0  0  0  0  0  0  0
    5.9617  -10.5399    1.4161 H   0  0  0  0  0  0  0  0  0  0  0  0
    5.9719  -12.1547    2.2384 H   0  0  0  0  0  0  0  0  0  0  0  0
    6.4147  -11.6451   -0.7227 H   0  0  0  0  0  0  0  0  0  0  0  0
    8.3228  -10.8322    0.4495 H   0  0  0  0  0  0  0  0  0  0  0  0
    8.3234  -12.3106    1.5346 H   0  0  0  0  0  0  0  0  0  0  0  0
   13.1750  -12.2180    0.0430 H   0  0  0  0  0  0  0  0  0  0  0  0
   13.5040  -12.9310   -1.5050 H   0  0  0  0  0  0  0  0  0  0  0  0
   12.1045  -12.9720   -4.3029 H   0  0  0  0  0  0  0  0  0  0  0  0
   13.8230  -14.1215   -5.7028 H   0  0  0  0  0  0  0  0  0  0  0  0
   14.7916  -16.2940   -4.9571 H   0  0  0  0  0  0  0  0  0  0  0  0
   14.0452  -17.3282   -2.8137 H   0  0  0  0  0  0  0  0  0  0  0  0
   12.3238  -16.1893   -1.4123 H   0  0  0  0  0  0  0  0  0  0  0  0
    6.8124  -13.6360   -2.2159 H   0  0  0  0  0  0  0  0  0  0  0  0
    7.3320  -15.1597   -1.3162 H   0  0  0  0  0  0  0  0  0  0  0  0
    6.5590  -14.0641    2.0473 H   0  0  0  0  0  0  0  0  0  0  0  0
    6.2107  -15.5226    1.0584 H   0  0  0  0  0  0  0  0  0  0  0  0
    7.8597  -14.8102    1.0584 H   0  0  0  0  0  0  0  0  0  0  0  0
    4.7220  -13.2279   -1.3515 H   0  0  0  0  0  0  0  0  0  0  0  0
    5.0321  -15.5481   -1.7769 H   0  0  0  0  0  0  0  0  0  0  0  0
    4.6790  -15.9403   -0.0278 H   0  0  0  0  0  0  0  0  0  0  0  0
    2.7323  -14.8476   -2.1015 H   0  0  0  0  0  0  0  0  0  0  0  0
    2.7415  -16.4878   -1.3279 H   0  0  0  0  0  0  0  0  0  0  0  0
    2.1425  -15.2449    2.1091 H   0  0  0  0  0  0  0  0  0  0  0  0
    1.4441  -16.5981    1.1562 H   0  0  0  0  0  0  0  0  0  0  0  0
    3.2190  -16.3218    1.1562 H   0  0  0  0  0  0  0  0  0  0  0  0
  1  2  1  0
  2  3  2  0
  2  4  1  0
  4  5  1  0
  5  6  1  0
  6  7  1  0
  7  8  1  0
  8  9  1  0
  9 10  1  0
 10 11  1  0
 11 12  1  0
 12 13  1  0
 13 14  1  0
 14 15  1  0
 15 16  1  0
 16 17  3  0
 15 18  2  0
 18 19  1  0
 18 20  1  0
 20 21  1  0
 21 22  2  0
 22 23  1  0
 23 24  2  0
 24 25  1  0
 25 26  2  0
 20 27  1  0
 27 28  2  0
 27 29  1  0
 29 30  1  0
 30 31  1  0
 31 32  1  1
 31 33  1  0
 33 34  1  0
 34 35  1  0
 35 36  1  0
 36 37  1  1
 36  5  1  0
 36  8  1  0
 33  9  1  0
 31 12  1  0
 29 14  2  0
 26 21  1  0
  1 38  1  0
  1 39  1  0
  1 40  1  0
  5 41  1  6
  6 42  1  0
  6 43  1  0
  7 44  1  0
  7 45  1  0
  8 46  1  6
  9 47  1  1
 10 48  1  0
 10 49  1  0
 11 50  1  0
 11 51  1  0
 12 52  1  6
 13 53  1  0
 13 54  1  0
 19 55  1  0
 19 56  1  0
 22 57  1  0
 23 58  1  0
 24 59  1  0
 25 60  1  0
 26 61  1  0
 30 62  1  0
 30 63  1  0
 32 64  1  0
 32 65  1  0
 32 66  1  0
 33 67  1  6
 34 68  1  0
 34 69  1  0
 35 70  1  0
 35 71  1  0
 37 72  1  0
 37 73  1  0
 37 74  1  0
M  END
>  <meeko>  (5) 
{"is_sidechain": [false], "free_energy": -8.427, "intermolecular_energy": -9.95, "internal_energy": -0.482}

$$$$
LIB_OOAWTVSOWWSCRB__M_PUB_ALL__e8__s20260927
     RDKit          3D

 74 79  0  0  0  0  0  0  0  0999 V2000
    0.0840  -18.7430    8.8280 C   0  0  0  0  0  0  0  0  0  0  0  0
    0.4810  -17.6480    7.8840 C   0  0  0  0  0  0  0  0  0  0  0  0
    1.5970  -17.1530    7.8340 O   0  0  0  0  0  0  0  0  0  0  0  0
   -0.5820  -17.3010    7.1090 O   0  0  0  0  0  0  0  0  0  0  0  0
   -0.5600  -17.7770    5.7600 C   0  0  1  0  0  0  0  0  0  0  0  0
   -1.9810  -18.2330    5.3590 C   0  0  0  0  0  0  0  0  0  0  0  0
   -2.1690  -17.8340    3.8850 C   0  0  0  0  0  0  0  0  0  0  0  0
   -0.7860  -17.3560    3.4540 C   0  0  1  0  0  0  0  0  0  0  0  0
   -0.6660  -16.4760    2.2040 C   0  0  2  0  0  0  0  0  0  0  0  0
   -1.2800  -17.1620    0.9760 C   0  0  0  0  0  0  0  0  0  0  0  0
   -1.0700  -16.3550   -0.3000 C   0  0  0  0  0  0  0  0  0  0  0  0
    0.4130  -16.0360   -0.5270 C   0  0  1  0  0  0  0  0  0  0  0  0
    0.6150  -15.2850   -1.8530 C   0  0  0  0  0  0  0  0  0  0  0  0
    2.0200  -14.7430   -2.0590 C   0  0  0  0  0  0  0  0  0  0  0  0
    2.3460  -14.2000   -3.3740 C   0  0  0  0  0  0  0  0  0  0  0  0
    1.3340  -14.2100   -4.3890 C   0  0  0  0  0  0  0  0  0  0  0  0
    0.5200  -14.2080   -5.2170 N   0  0  0  0  0  0  0  0  0  0  0  0
    3.5490  -13.6310   -3.6320 C   0  0  0  0  0  0  0  0  0  0  0  0
    3.7990  -13.0240   -4.8490 N   0  0  0  0  0  0  0  0  0  0  0  0
    4.5430  -13.6380   -2.6240 N   0  0  0  0  0  0  0  0  0  0  0  0
    5.8270  -13.0540   -2.9130 C   0  0  0  0  0  0  0  0  0  0  0  0
    6.8140  -13.8100   -3.5600 C   0  0  0  0  0  0  0  0  0  0  0  0
    8.0710  -13.2540   -3.8070 C   0  0  0  0  0  0  0  0  0  0  0  0
    8.3470  -11.9460   -3.4090 C   0  0  0  0  0  0  0  0  0  0  0  0
    7.3710  -11.1900   -2.7600 C   0  0  0  0  0  0  0  0  0  0  0  0
    6.1140  -11.7420   -2.5090 C   0  0  0  0  0  0  0  0  0  0  0  0
    4.3430  -14.2500   -1.3510 C   0  0  0  0  0  0  0  0  0  0  0  0
    5.5990  -14.5170   -0.2210 S   0  0  0  0  0  0  0  0  0  0  0  0
    2.9270  -14.7240   -1.0630 C   0  0  0  0  0  0  0  0  0  0  0  0
    2.5820  -15.1710    0.3500 C   0  0  0  0  0  0  0  0  0  0  0  0
    1.0620  -15.2900    0.6690 C   0  0  1  0  0  0  0  0  0  0  0  0
    0.4790  -13.8630    0.8450 C   0  0  0  0  0  0  0  0  0  0  0  0
    0.8430  -16.1550    1.9650 C   0  0  1  0  0  0  0  0  0  0  0  0
    1.5300  -15.5910    3.2350 C   0  0  0  0  0  0  0  0  0  0  0  0
    1.2740  -16.4340    4.4970 C   0  0  0  0  0  0  0  0  0  0  0  0
   -0.2240  -16.6810    4.7220 C   0  0  2  0  0  0  0  0  0  0  0  0
   -0.9140  -15.3470    5.1020 C   0  0  0  0  0  0  0  0  0  0  0  0
    0.2095  -18.3969    9.8646 H   0  0  0  0  0  0  0  0  0  0  0  0
   -0.9687  -19.0116    8.6560 H   0  0  0  0  0  0  0  0  0  0  0  0
    0.7200  -19.6239    8.6560 H   0  0  0  0  0  0  0  0  0  0  0  0
    0.2024  -18.5698    5.7470 H   0  0  0  0  0  0  0  0  0  0  0  0
   -2.0764  -19.3229    5.4726 H   0  0  0  0  0  0  0  0  0  0  0  0
   -2.7439  -17.7644    5.9980 H   0  0  0  0  0  0  0  0  0  0  0  0
   -2.4894  -18.6976    3.2837 H   0  0  0  0  0  0  0  0  0  0  0  0
   -2.9443  -17.0655    3.7495 H   0  0  0  0  0  0  0  0  0  0  0  0
   -0.2104  -18.2220    3.0950 H   0  0  0  0  0  0  0  0  0  0  0  0
   -1.2253  -15.5421    2.3621 H   0  0  0  0  0  0  0  0  0  0  0  0
   -0.8123  -18.1498    0.8513 H   0  0  0  0  0  0  0  0  0  0  0  0
   -2.3633  -17.2502    1.1451 H   0  0  0  0  0  0  0  0  0  0  0  0
   -1.4456  -16.9354   -1.1556 H   0  0  0  0  0  0  0  0  0  0  0  0
   -1.6156  -15.4050   -0.2007 H   0  0  0  0  0  0  0  0  0  0  0  0
    0.9406  -16.9986   -0.5980 H   0  0  0  0  0  0  0  0  0  0  0  0
    0.3884  -15.9763   -2.6781 H   0  0  0  0  0  0  0  0  0  0  0  0
   -0.0569  -14.4145   -1.8267 H   0  0  0  0  0  0  0  0  0  0  0  0
    3.5070  -12.0740   -5.0500 H   0  0  0  0  0  0  0  0  0  0  0  0
    4.4130  -13.4810   -5.5120 H   0  0  0  0  0  0  0  0  0  0  0  0
    6.5984  -14.8421   -3.8735 H   0  0  0  0  0  0  0  0  0  0  0  0
    8.8442  -13.8482   -4.3160 H   0  0  0  0  0  0  0  0  0  0  0  0
    9.3370  -11.5095   -3.6075 H   0  0  0  0  0  0  0  0  0  0  0  0
    7.5919  -10.1591   -2.4461 H   0  0  0  0  0  0  0  0  0  0  0  0
    5.3464  -11.1465   -1.9930 H   0  0  0  0  0  0  0  0  0  0  0  0
    3.0398  -16.1577    0.5135 H   0  0  0  0  0  0  0  0  0  0  0  0
    2.9672  -14.3845    1.0156 H   0  0  0  0  0  0  0  0  0  0  0  0
    0.3857  -13.6347    1.9170 H   0  0  0  0  0  0  0  0  0  0  0  0
    1.1504  -13.1316    0.3714 H   0  0  0  0  0  0  0  0  0  0  0  0
   -0.5125  -13.8110    0.3714 H   0  0  0  0  0  0  0  0  0  0  0  0
    1.3590  -17.1057    1.7653 H   0  0  0  0  0  0  0  0  0  0  0  0
    2.6147  -15.5524    3.0561 H   0  0  0  0  0  0  0  0  0  0  0  0
    1.1019  -14.5946    3.4191 H   0  0  0  0  0  0  0  0  0  0  0  0
    1.7823  -17.4033    4.3871 H   0  0  0  0  0  0  0  0  0  0  0  0
    1.6636  -15.8799    5.3637 H   0  0  0  0  0  0  0  0  0  0  0  0
   -0.9604  -15.2572    6.1973 H   0  0  0  0  0  0  0  0  0  0  0  0
   -0.3380  -14.5057    4.6892 H   0  0  0  0  0  0  0  0  0  0  0  0
   -1.9335  -15.3309    4.6892 H   0  0  0  0  0  0  0  0  0  0  0  0
  1  2  1  0
  2  3  2  0
  2  4  1  0
  4  5  1  0
  5  6  1  0
  6  7  1  0
  7  8  1  0
  8  9  1  0
  9 10  1  0
 10 11  1  0
 11 12  1  0
 12 13  1  0
 13 14  1  0
 14 15  1  0
 15 16  1  0
 16 17  3  0
 15 18  2  0
 18 19  1  0
 18 20  1  0
 20 21  1  0
 21 22  2  0
 22 23  1  0
 23 24  2  0
 24 25  1  0
 25 26  2  0
 20 27  1  0
 27 28  2  0
 27 29  1  0
 29 30  1  0
 30 31  1  0
 31 32  1  1
 31 33  1  0
 33 34  1  0
 34 35  1  0
 35 36  1  0
 36 37  1  1
 36  5  1  0
 36  8  1  0
 33  9  1  0
 31 12  1  0
 29 14  2  0
 26 21  1  0
  1 38  1  0
  1 39  1  0
  1 40  1  0
  5 41  1  1
  6 42  1  0
  6 43  1  0
  7 44  1  0
  7 45  1  0
  8 46  1  6
  9 47  1  1
 10 48  1  0
 10 49  1  0
 11 50  1  0
 11 51  1  0
 12 52  1  6
 13 53  1  0
 13 54  1  0
 19 55  1  0
 19 56  1  0
 22 57  1  0
 23 58  1  0
 24 59  1  0
 25 60  1  0
 26 61  1  0
 30 62  1  0
 30 63  1  0
 32 64  1  0
 32 65  1  0
 32 66  1  0
 33 67  1  6
 34 68  1  0
 34 69  1  0
 35 70  1  0
 35 71  1  0
 37 72  1  0
 37 73  1  0
 37 74  1  0
M  END
>  <meeko>  (6) 
{"is_sidechain": [false], "free_energy": -8.151, "intermolecular_energy": -9.57, "internal_energy": -0.53}

$$$$
LIB_OOAWTVSOWWSCRB__M_PUB_ALL__e8__s20260927
     RDKit          3D

 74 79  0  0  0  0  0  0  0  0999 V2000
    0.5700  -14.9650   -2.0190 C   0  0  0  0  0  0  0  0  0  0  0  0
    0.5590  -15.9770   -0.9130 C   0  0  0  0  0  0  0  0  0  0  0  0
   -0.3820  -16.7160   -0.6650 O   0  0  0  0  0  0  0  0  0  0  0  0
    1.7420  -15.9390   -0.2420 O   0  0  0  0  0  0  0  0  0  0  0  0
    2.5390  -14.7670   -0.4360 C   0  0  1  0  0  0  0  0  0  0  0  0
    2.5370  -13.9300    0.8630 C   0  0  0  0  0  0  0  0  0  0  0  0
    3.9500  -13.3360    1.0030 C   0  0  0  0  0  0  0  0  0  0  0  0
    4.6290  -13.6890   -0.3160 C   0  0  1  0  0  0  0  0  0  0  0  0
    6.1610  -13.6580   -0.3890 C   0  0  2  0  0  0  0  0  0  0  0  0
    6.7130  -12.2860    0.0200 C   0  0  0  0  0  0  0  0  0  0  0  0
    8.2250  -12.1970   -0.1540 C   0  0  0  0  0  0  0  0  0  0  0  0
    8.6500  -12.5630   -1.5820 C   0  0  1  0  0  0  0  0  0  0  0  0
   10.1680  -12.4000   -1.7600 C   0  0  0  0  0  0  0  0  0  0  0  0
   10.7060  -12.9400   -3.0750 C   0  0  0  0  0  0  0  0  0  0  0  0
   12.0950  -12.6400   -3.4070 C   0  0  0  0  0  0  0  0  0  0  0  0
   12.8670  -11.8590   -2.4870 C   0  0  0  0  0  0  0  0  0  0  0  0
   13.5020  -11.2310   -1.7440 N   0  0  0  0  0  0  0  0  0  0  0  0
   12.6840  -13.1380   -4.5230 C   0  0  0  0  0  0  0  0  0  0  0  0
   14.0310  -12.9330   -4.7630 N   0  0  0  0  0  0  0  0  0  0  0  0
   11.9080  -13.8980   -5.4300 N   0  0  0  0  0  0  0  0  0  0  0  0
   12.5340  -14.4010   -6.6250 C   0  0  0  0  0  0  0  0  0  0  0  0
   13.1590  -15.6550   -6.6180 C   0  0  0  0  0  0  0  0  0  0  0  0
   13.7960  -16.1260   -7.7680 C   0  0  0  0  0  0  0  0  0  0  0  0
   13.8160  -15.3460   -8.9240 C   0  0  0  0  0  0  0  0  0  0  0  0
   13.2010  -14.0950   -8.9360 C   0  0  0  0  0  0  0  0  0  0  0  0
   12.5630  -13.6200   -7.7890 C   0  0  0  0  0  0  0  0  0  0  0  0
   10.5150  -14.1390   -5.2350 C   0  0  0  0  0  0  0  0  0  0  0  0
    9.4960  -14.8130   -6.4320 S   0  0  0  0  0  0  0  0  0  0  0  0
    9.9510  -13.6990   -3.8930 C   0  0  0  0  0  0  0  0  0  0  0  0
    8.5400  -14.1300   -3.5200 C   0  0  0  0  0  0  0  0  0  0  0  0
    8.1600  -13.9700   -2.0180 C   0  0  1  0  0  0  0  0  0  0  0  0
    8.8520  -15.0980   -1.2090 C   0  0  0  0  0  0  0  0  0  0  0  0
    6.5980  -14.0220   -1.8420 C   0  0  1  0  0  0  0  0  0  0  0  0
    5.9420  -15.3370   -2.3380 C   0  0  0  0  0  0  0  0  0  0  0  0
    4.4180  -15.3800   -2.1260 C   0  0  0  0  0  0  0  0  0  0  0  0
    4.0370  -15.0670   -0.6720 C   0  0  2  0  0  0  0  0  0  0  0  0
    4.5060  -16.2260    0.2430 C   0  0  0  0  0  0  0  0  0  0  0  0
    0.5810  -13.9524   -1.5894 H   0  0  0  0  0  0  0  0  0  0  0  0
    1.4666  -15.1098   -2.6396 H   0  0  0  0  0  0  0  0  0  0  0  0
   -0.3296  -15.0903   -2.6396 H   0  0  0  0  0  0  0  0  0  0  0  0
    2.1022  -14.2652   -1.3120 H   0  0  0  0  0  0  0  0  0  0  0  0
    1.7912  -13.1243    0.7946 H   0  0  0  0  0  0  0  0  0  0  0  0
    2.2779  -14.5492    1.7345 H   0  0  0  0  0  0  0  0  0  0  0  0
    3.9042  -12.2455    1.1400 H   0  0  0  0  0  0  0  0  0  0  0  0
    4.4906  -13.7290    1.8767 H   0  0  0  0  0  0  0  0  0  0  0  0
    4.4188  -12.8916   -1.0440 H   0  0  0  0  0  0  0  0  0  0  0  0
    6.5725  -14.3927    0.3187 H   0  0  0  0  0  0  0  0  0  0  0  0
    6.2388  -11.5135   -0.6033 H   0  0  0  0  0  0  0  0  0  0  0  0
    6.4869  -12.1357    1.0860 H   0  0  0  0  0  0  0  0  0  0  0  0
    8.5497  -11.1686    0.0629 H   0  0  0  0  0  0  0  0  0  0  0  0
    8.6944  -12.9107    0.5390 H   0  0  0  0  0  0  0  0  0  0  0  0
    8.1506  -11.8527   -2.2574 H   0  0  0  0  0  0  0  0  0  0  0  0
   10.4081  -11.3280   -1.7040 H   0  0  0  0  0  0  0  0  0  0  0  0
   10.6434  -12.9874   -0.9606 H   0  0  0  0  0  0  0  0  0  0  0  0
   14.6870  -12.7260   -4.0190 H   0  0  0  0  0  0  0  0  0  0  0  0
   14.4050  -13.1350   -5.6820 H   0  0  0  0  0  0  0  0  0  0  0  0
   13.1479  -16.2692   -5.7055 H   0  0  0  0  0  0  0  0  0  0  0  0
   14.2822  -17.1127   -7.7621 H   0  0  0  0  0  0  0  0  0  0  0  0
   14.3184  -15.7189   -9.8287 H   0  0  0  0  0  0  0  0  0  0  0  0
   13.2185  -13.4822   -9.8494 H   0  0  0  0  0  0  0  0  0  0  0  0
   12.0819  -12.6308   -7.7983 H   0  0  0  0  0  0  0  0  0  0  0  0
    7.8351  -13.5287   -4.1129 H   0  0  0  0  0  0  0  0  0  0  0  0
    8.4910  -15.2089   -3.7285 H   0  0  0  0  0  0  0  0  0  0  0  0
    8.7327  -14.9036   -0.1329 H   0  0  0  0  0  0  0  0  0  0  0  0
    8.3915  -16.0649   -1.4602 H   0  0  0  0  0  0  0  0  0  0  0  0
    9.9226  -15.1255   -1.4602 H   0  0  0  0  0  0  0  0  0  0  0  0
    6.2086  -13.2416   -2.5123 H   0  0  0  0  0  0  0  0  0  0  0  0
    6.1473  -15.4446   -3.4133 H   0  0  0  0  0  0  0  0  0  0  0  0
    6.3745  -16.1577   -1.7469 H   0  0  0  0  0  0  0  0  0  0  0  0
    3.9454  -14.6376   -2.7859 H   0  0  0  0  0  0  0  0  0  0  0  0
    4.0681  -16.3961   -2.3606 H   0  0  0  0  0  0  0  0  0  0  0  0
    4.3872  -15.9325    1.2965 H   0  0  0  0  0  0  0  0  0  0  0  0
    3.8993  -17.1211    0.0411 H   0  0  0  0  0  0  0  0  0  0  0  0
    5.5644  -16.4473    0.0411 H   0  0  0  0  0  0  0  0  0  0  0  0
  1  2  1  0
  2  3  2  0
  2  4  1  0
  4  5  1  0
  5  6  1  0
  6  7  1  0
  7  8  1  0
  8  9  1  0
  9 10  1  0
 10 11  1  0
 11 12  1  0
 12 13  1  0
 13 14  1  0
 14 15  1  0
 15 16  1  0
 16 17  3  0
 15 18  2  0
 18 19  1  0
 18 20  1  0
 20 21  1  0
 21 22  2  0
 22 23  1  0
 23 24  2  0
 24 25  1  0
 25 26  2  0
 20 27  1  0
 27 28  2  0
 27 29  1  0
 29 30  1  0
 30 31  1  0
 31 32  1  1
 31 33  1  0
 33 34  1  0
 34 35  1  0
 35 36  1  0
 36 37  1  1
 36  5  1  0
 36  8  1  0
 33  9  1  0
 31 12  1  0
 29 14  2  0
 26 21  1  0
  1 38  1  0
  1 39  1  0
  1 40  1  0
  5 41  1  6
  6 42  1  0
  6 43  1  0
  7 44  1  0
  7 45  1  0
  8 46  1  6
  9 47  1  1
 10 48  1  0
 10 49  1  0
 11 50  1  0
 11 51  1  0
 12 52  1  6
 13 53  1  0
 13 54  1  0
 19 55  1  0
 19 56  1  0
 22 57  1  0
 23 58  1  0
 24 59  1  0
 25 60  1  0
 26 61  1  0
 30 62  1  0
 30 63  1  0
 32 64  1  0
 32 65  1  0
 32 66  1  0
 33 67  1  6
 34 68  1  0
 34 69  1  0
 35 70  1  0
 35 71  1  0
 37 72  1  0
 37 73  1  0
 37 74  1  0
M  END
>  <meeko>  (7) 
{"is_sidechain": [false], "free_energy": -8.046, "intermolecular_energy": -9.375, "internal_energy": -0.599}

$$$$
LIB_OOAWTVSOWWSCRB__M_PUB_ALL__e8__s20260927
     RDKit          3D

 74 79  0  0  0  0  0  0  0  0999 V2000
   11.6790  -12.2440   -1.3250 C   0  0  0  0  0  0  0  0  0  0  0  0
   10.4100  -12.7140   -0.6810 C   0  0  0  0  0  0  0  0  0  0  0  0
   10.2640  -12.8650    0.5240 O   0  0  0  0  0  0  0  0  0  0  0  0
    9.4660  -12.9430   -1.6330 O   0  0  0  0  0  0  0  0  0  0  0  0
    8.2290  -12.2430   -1.4750 C   0  0  1  0  0  0  0  0  0  0  0  0
    7.9080  -11.4760   -2.7780 C   0  0  0  0  0  0  0  0  0  0  0  0
    6.3840  -11.5620   -2.9730 C   0  0  0  0  0  0  0  0  0  0  0  0
    5.8830  -12.1930   -1.6780 C   0  0  1  0  0  0  0  0  0  0  0  0
    4.4930  -12.8400   -1.6610 C   0  0  2  0  0  0  0  0  0  0  0  0
    3.4080  -11.8460   -2.0980 C   0  0  0  0  0  0  0  0  0  0  0  0
    2.0060  -12.4340   -1.9790 C   0  0  0  0  0  0  0  0  0  0  0  0
    1.7350  -12.9660   -0.5660 C   0  0  1  0  0  0  0  0  0  0  0  0
    0.2950  -13.4890   -0.4450 C   0  0  0  0  0  0  0  0  0  0  0  0
    0.0030  -14.2260    0.8520 C   0  0  0  0  0  0  0  0  0  0  0  0
   -1.3870  -14.5720    1.1310 C   0  0  0  0  0  0  0  0  0  0  0  0
   -2.3910  -14.1990    0.1790 C   0  0  0  0  0  0  0  0  0  0  0  0
   -3.2110  -13.9060   -0.5900 N   0  0  0  0  0  0  0  0  0  0  0  0
   -1.7360  -15.2910    2.2270 C   0  0  0  0  0  0  0  0  0  0  0  0
   -3.0430  -15.7020    2.4160 N   0  0  0  0  0  0  0  0  0  0  0  0
   -0.7370  -15.6430    3.1660 N   0  0  0  0  0  0  0  0  0  0  0  0
   -1.1190  -16.3840    4.3400 C   0  0  0  0  0  0  0  0  0  0  0  0
   -1.1480  -17.7840    4.3100 C   0  0  0  0  0  0  0  0  0  0  0  0
   -1.5540  -18.4990    5.4380 C   0  0  0  0  0  0  0  0  0  0  0  0
   -1.9350  -17.8210    6.5960 C   0  0  0  0  0  0  0  0  0  0  0  0
   -1.9140  -16.4270    6.6300 C   0  0  0  0  0  0  0  0  0  0  0  0
   -1.5100  -15.7080    5.5050 C   0  0  0  0  0  0  0  0  0  0  0  0
    0.6260  -15.2440    3.0240 C   0  0  0  0  0  0  0  0  0  0  0  0
    1.7950  -15.4140    4.2610 S   0  0  0  0  0  0  0  0  0  0  0  0
    0.9860  -14.5850    1.7010 C   0  0  0  0  0  0  0  0  0  0  0  0
    2.4550  -14.3470    1.3820 C   0  0  0  0  0  0  0  0  0  0  0  0
    2.7780  -14.0190   -0.1050 C   0  0  1  0  0  0  0  0  0  0  0  0
    2.6830  -15.3270   -0.9330 C   0  0  0  0  0  0  0  0  0  0  0  0
    4.2100  -13.3760   -0.2230 C   0  0  1  0  0  0  0  0  0  0  0  0
    5.3590  -14.2740    0.3040 C   0  0  0  0  0  0  0  0  0  0  0  0
    6.7530  -13.6400    0.1480 C   0  0  0  0  0  0  0  0  0  0  0  0
    7.0080  -13.1750   -1.2930 C   0  0  2  0  0  0  0  0  0  0  0  0
    7.1300  -14.4110   -2.2190 C   0  0  0  0  0  0  0  0  0  0  0  0
   12.4074  -11.9742   -0.5461 H   0  0  0  0  0  0  0  0  0  0  0  0
   12.0925  -13.0486   -1.9508 H   0  0  0  0  0  0  0  0  0  0  0  0
   11.4686  -11.3642   -1.9508 H   0  0  0  0  0  0  0  0  0  0  0  0
    8.3694  -11.6097   -0.5866 H   0  0  0  0  0  0  0  0  0  0  0  0
    8.2206  -10.4253   -2.6870 H   0  0  0  0  0  0  0  0  0  0  0  0
    8.4433  -11.9088   -3.6359 H   0  0  0  0  0  0  0  0  0  0  0  0
    5.9504  -10.5609   -3.1138 H   0  0  0  0  0  0  0  0  0  0  0  0
    6.1026  -12.1424   -3.8640 H   0  0  0  0  0  0  0  0  0  0  0  0
    5.6950  -11.3922   -0.9476 H   0  0  0  0  0  0  0  0  0  0  0  0
    4.4719  -13.6731   -2.3790 H   0  0  0  0  0  0  0  0  0  0  0  0
    3.4715  -10.9503   -1.4626 H   0  0  0  0  0  0  0  0  0  0  0  0
    3.5821  -11.5998   -3.1559 H   0  0  0  0  0  0  0  0  0  0  0  0
    1.2695  -11.6512   -2.2131 H   0  0  0  0  0  0  0  0  0  0  0  0
    1.9241  -13.2740   -2.6845 H   0  0  0  0  0  0  0  0  0  0  0  0
    1.8467  -12.1164    0.1237 H   0  0  0  0  0  0  0  0  0  0  0  0
   -0.3899  -12.6311   -0.5153 H   0  0  0  0  0  0  0  0  0  0  0  0
    0.1551  -14.2162   -1.2584 H   0  0  0  0  0  0  0  0  0  0  0  0
   -3.3870  -16.5870    2.0630 H   0  0  0  0  0  0  0  0  0  0  0  0
   -3.6390  -15.1790    3.0460 H   0  0  0  0  0  0  0  0  0  0  0  0
   -0.8506  -18.3204    3.3969 H   0  0  0  0  0  0  0  0  0  0  0  0
   -1.5735  -19.5986    5.4137 H   0  0  0  0  0  0  0  0  0  0  0  0
   -2.2526  -18.3870    7.4841 H   0  0  0  0  0  0  0  0  0  0  0  0
   -2.2160  -15.8945    7.5439 H   0  0  0  0  0  0  0  0  0  0  0  0
   -1.4980  -14.6084    5.5316 H   0  0  0  0  0  0  0  0  0  0  0  0
    2.8022  -13.5038    1.9972 H   0  0  0  0  0  0  0  0  0  0  0  0
    2.9665  -15.2967    1.5976 H   0  0  0  0  0  0  0  0  0  0  0  0
    2.6204  -16.1884   -0.2518 H   0  0  0  0  0  0  0  0  0  0  0  0
    1.7848  -15.2951   -1.5672 H   0  0  0  0  0  0  0  0  0  0  0  0
    3.5764  -15.4252   -1.5672 H   0  0  0  0  0  0  0  0  0  0  0  0
    4.1930  -12.5115    0.4570 H   0  0  0  0  0  0  0  0  0  0  0  0
    5.1841  -14.4728    1.3717 H   0  0  0  0  0  0  0  0  0  0  0  0
    5.3526  -15.1949   -0.2976 H   0  0  0  0  0  0  0  0  0  0  0  0
    6.8274  -12.7729    0.8207 H   0  0  0  0  0  0  0  0  0  0  0  0
    7.5058  -14.4011    0.4007 H   0  0  0  0  0  0  0  0  0  0  0  0
    7.2198  -15.3204   -1.6067 H   0  0  0  0  0  0  0  0  0  0  0  0
    6.2346  -14.4833   -2.8539 H   0  0  0  0  0  0  0  0  0  0  0  0
    8.0222  -14.3069   -2.8539 H   0  0  0  0  0  0  0  0  0  0  0  0
  1  2  1  0
  2  3  2  0
  2  4  1  0
  4  5  1  0
  5  6  1  0
  6  7  1  0
  7  8  1  0
  8  9  1  0
  9 10  1  0
 10 11  1  0
 11 12  1  0
 12 13  1  0
 13 14  1  0
 14 15  1  0
 15 16  1  0
 16 17  3  0
 15 18  2  0
 18 19  1  0
 18 20  1  0
 20 21  1  0
 21 22  2  0
 22 23  1  0
 23 24  2  0
 24 25  1  0
 25 26  2  0
 20 27  1  0
 27 28  2  0
 27 29  1  0
 29 30  1  0
 30 31  1  0
 31 32  1  6
 31 33  1  0
 33 34  1  0
 34 35  1  0
 35 36  1  0
 36 37  1  6
 36  5  1  0
 36  8  1  0
 33  9  1  0
 31 12  1  0
 29 14  2  0
 26 21  1  0
  1 38  1  0
  1 39  1  0
  1 40  1  0
  5 41  1  1
  6 42  1  0
  6 43  1  0
  7 44  1  0
  7 45  1  0
  8 46  1  1
  9 47  1  6
 10 48  1  0
 10 49  1  0
 11 50  1  0
 11 51  1  0
 12 52  1  1
 13 53  1  0
 13 54  1  0
 19 55  1  0
 19 56  1  0
 22 57  1  0
 23 58  1  0
 24 59  1  0
 25 60  1  0
 26 61  1  0
 30 62  1  0
 30 63  1  0
 32 64  1  0
 32 65  1  0
 32 66  1  0
 33 67  1  1
 34 68  1  0
 34 69  1  0
 35 70  1  0
 35 71  1  0
 37 72  1  0
 37 73  1  0
 37 74  1  0
M  END
>  <meeko>  (8) 
{"is_sidechain": [false], "free_energy": -7.906, "intermolecular_energy": -9.286, "internal_energy": -0.519}

$$$$
LIB_OOAWTVSOWWSCRB__M_PUB_ALL__e8__s20260927
     RDKit          3D

 74 79  0  0  0  0  0  0  0  0999 V2000
   12.5250  -11.4910   -0.3120 C   0  0  0  0  0  0  0  0  0  0  0  0
   11.6580  -12.6400    0.1060 C   0  0  0  0  0  0  0  0  0  0  0  0
   11.5040  -13.0020    1.2630 O   0  0  0  0  0  0  0  0  0  0  0  0
   11.0830  -13.2050   -0.9900 O   0  0  0  0  0  0  0  0  0  0  0  0
    9.8510  -12.6240   -1.4250 C   0  0  1  0  0  0  0  0  0  0  0  0
    9.9580  -12.2710   -2.9260 C   0  0  0  0  0  0  0  0  0  0  0  0
    8.5810  -12.5670   -3.5450 C   0  0  0  0  0  0  0  0  0  0  0  0
    7.6960  -12.8790   -2.3420 C   0  0  1  0  0  0  0  0  0  0  0  0
    6.3860  -13.6420   -2.5670 C   0  0  2  0  0  0  0  0  0  0  0  0
    5.4860  -12.9210   -3.5800 C   0  0  0  0  0  0  0  0  0  0  0  0
    4.1300  -13.6010   -3.7330 C   0  0  0  0  0  0  0  0  0  0  0  0
    3.4240  -13.7630   -2.3810 C   0  0  1  0  0  0  0  0  0  0  0  0
    2.0300  -14.3840   -2.5610 C   0  0  0  0  0  0  0  0  0  0  0  0
    1.3450  -14.7750   -1.2620 C   0  0  0  0  0  0  0  0  0  0  0  0
   -0.0550  -15.1790   -1.3350 C   0  0  0  0  0  0  0  0  0  0  0  0
   -0.7020  -15.1820   -2.6130 C   0  0  0  0  0  0  0  0  0  0  0  0
   -1.2340  -15.1940   -3.6460 N   0  0  0  0  0  0  0  0  0  0  0  0
   -0.7300  -15.6120   -0.2410 C   0  0  0  0  0  0  0  0  0  0  0  0
   -2.0210  -16.0950   -0.3510 N   0  0  0  0  0  0  0  0  0  0  0  0
   -0.0830  -15.5930    1.0180 N   0  0  0  0  0  0  0  0  0  0  0  0
   -0.8140  -16.0300    2.1800 C   0  0  0  0  0  0  0  0  0  0  0  0
   -0.7130  -17.3580    2.6150 C   0  0  0  0  0  0  0  0  0  0  0  0
   -1.4510  -17.7890    3.7200 C   0  0  0  0  0  0  0  0  0  0  0  0
   -2.2910  -16.9000    4.3890 C   0  0  0  0  0  0  0  0  0  0  0  0
   -2.4010  -15.5780    3.9570 C   0  0  0  0  0  0  0  0  0  0  0  0
   -1.6660  -15.1430    2.8530 C   0  0  0  0  0  0  0  0  0  0  0  0
    1.2470  -15.1050    1.1920 C   0  0  0  0  0  0  0  0  0  0  0  0
    1.9550  -14.8140    2.7220 S   0  0  0  0  0  0  0  0  0  0  0  0
    2.0050  -14.7880   -0.0870 C   0  0  0  0  0  0  0  0  0  0  0  0
    3.4940  -14.4890    0.0040 C   0  0  0  0  0  0  0  0  0  0  0  0
    4.2770  -14.5370   -1.3410 C   0  0  1  0  0  0  0  0  0  0  0  0
    4.4740  -16.0220   -1.7470 C   0  0  0  0  0  0  0  0  0  0  0  0
    5.6600  -13.8020   -1.1940 C   0  0  1  0  0  0  0  0  0  0  0  0
    6.5900  -14.4000   -0.1070 C   0  0  0  0  0  0  0  0  0  0  0  0
    7.9500  -13.6860   -0.0030 C   0  0  0  0  0  0  0  0  0  0  0  0
    8.6510  -13.5980   -1.3660 C   0  0  2  0  0  0  0  0  0  0  0  0
    9.0840  -15.0160   -1.8150 C   0  0  0  0  0  0  0  0  0  0  0  0
   12.9113  -10.9791    0.5817 H   0  0  0  0  0  0  0  0  0  0  0  0
   13.3669  -11.8663   -0.9122 H   0  0  0  0  0  0  0  0  0  0  0  0
   11.9330  -10.7844   -0.9122 H   0  0  0  0  0  0  0  0  0  0  0  0
    9.6863  -11.7658   -0.7569 H   0  0  0  0  0  0  0  0  0  0  0  0
   10.2089  -11.2071   -3.0490 H   0  0  0  0  0  0  0  0  0  0  0  0
   10.7485  -12.8578   -3.4167 H   0  0  0  0  0  0  0  0  0  0  0  0
    8.2021  -11.6916   -4.0928 H   0  0  0  0  0  0  0  0  0  0  0  0
    8.6120  -13.3908   -4.2733 H   0  0  0  0  0  0  0  0  0  0  0  0
    7.2692  -11.9373   -1.9664 H   0  0  0  0  0  0  0  0  0  0  0  0
    6.6113  -14.6335   -2.9867 H   0  0  0  0  0  0  0  0  0  0  0  0
    5.3273  -11.8871   -3.2397 H   0  0  0  0  0  0  0  0  0  0  0  0
    5.9893  -12.9482   -4.5577 H   0  0  0  0  0  0  0  0  0  0  0  0
    3.4976  -12.9914   -4.3952 H   0  0  0  0  0  0  0  0  0  0  0  0
    4.2932  -14.6023   -4.1581 H   0  0  0  0  0  0  0  0  0  0  0  0
    3.2938  -12.7531   -1.9650 H   0  0  0  0  0  0  0  0  0  0  0  0
    1.3922  -13.6534   -3.0800 H   0  0  0  0  0  0  0  0  0  0  0  0
    2.1713  -15.3126   -3.1335 H   0  0  0  0  0  0  0  0  0  0  0  0
   -2.8200  -15.4810   -0.4580 H   0  0  0  0  0  0  0  0  0  0  0  0
   -2.1680  -17.0890   -0.4730 H   0  0  0  0  0  0  0  0  0  0  0  0
   -0.0526  -18.0612    2.0864 H   0  0  0  0  0  0  0  0  0  0  0  0
   -1.3692  -18.8311    4.0626 H   0  0  0  0  0  0  0  0  0  0  0  0
   -2.8689  -17.2420    5.2603 H   0  0  0  0  0  0  0  0  0  0  0  0
   -3.0661  -14.8794    4.4857 H   0  0  0  0  0  0  0  0  0  0  0  0
   -1.7555  -14.1016    2.5101 H   0  0  0  0  0  0  0  0  0  0  0  0
    3.6107  -13.4803    0.4269 H   0  0  0  0  0  0  0  0  0  0  0  0
    3.9220  -15.2873    0.6281 H   0  0  0  0  0  0  0  0  0  0  0  0
    4.5562  -16.6418   -0.8419 H   0  0  0  0  0  0  0  0  0  0  0  0
    3.6124  -16.3565   -2.3434 H   0  0  0  0  0  0  0  0  0  0  0  0
    5.3930  -16.1202   -2.3434 H   0  0  0  0  0  0  0  0  0  0  0  0
    5.4108  -12.7946   -0.8292 H   0  0  0  0  0  0  0  0  0  0  0  0
    6.0819  -14.3251    0.8658 H   0  0  0  0  0  0  0  0  0  0  0  0
    6.7926  -15.4429   -0.3921 H   0  0  0  0  0  0  0  0  0  0  0  0
    7.7897  -12.6680    0.3817 H   0  0  0  0  0  0  0  0  0  0  0  0
    8.5915  -14.2675    0.6755 H   0  0  0  0  0  0  0  0  0  0  0  0
    9.2743  -15.6391   -0.9287 H   0  0  0  0  0  0  0  0  0  0  0  0
    8.2836  -15.4702   -2.4176 H   0  0  0  0  0  0  0  0  0  0  0  0
   10.0016  -14.9456   -2.4176 H   0  0  0  0  0  0  0  0  0  0  0  0
  1  2  1  0
  2  3  2  0
  2  4  1  0
  4  5  1  0
  5  6  1  0
  6  7  1  0
  7  8  1  0
  8  9  1  0
  9 10  1  0
 10 11  1  0
 11 12  1  0
 12 13  1  0
 13 14  1  0
 14 15  1  0
 15 16  1  0
 16 17  3  0
 15 18  2  0
 18 19  1  0
 18 20  1  0
 20 21  1  0
 21 22  2  0
 22 23  1  0
 23 24  2  0
 24 25  1  0
 25 26  2  0
 20 27  1  0
 27 28  2  0
 27 29  1  0
 29 30  1  0
 30 31  1  0
 31 32  1  6
 31 33  1  0
 33 34  1  0
 34 35  1  0
 35 36  1  0
 36 37  1  6
 36  5  1  0
 36  8  1  0
 33  9  1  0
 31 12  1  0
 29 14  2  0
 26 21  1  0
  1 38  1  0
  1 39  1  0
  1 40  1  0
  5 41  1  1
  6 42  1  0
  6 43  1  0
  7 44  1  0
  7 45  1  0
  8 46  1  1
  9 47  1  6
 10 48  1  0
 10 49  1  0
 11 50  1  0
 11 51  1  0
 12 52  1  1
 13 53  1  0
 13 54  1  0
 19 55  1  0
 19 56  1  0
 22 57  1  0
 23 58  1  0
 24 59  1  0
 25 60  1  0
 26 61  1  0
 30 62  1  0
 30 63  1  0
 32 64  1  0
 32 65  1  0
 32 66  1  0
 33 67  1  1
 34 68  1  0
 34 69  1  0
 35 70  1  0
 35 71  1  0
 37 72  1  0
 37 73  1  0
 37 74  1  0
M  END
>  <meeko>  (9) 
{"is_sidechain": [false], "free_energy": -7.893, "intermolecular_energy": -9.239, "internal_energy": -0.55}

$$$$
