LIB_LZHONOBXZLUENO__M_PUB_ALL__e8__s20260927
     RDKit          3D

 62 65  0  0  0  0  0  0  0  0999 V2000
    4.3560  -13.8990   -0.8880 O   0  0  0  0  0  0  0  0  0  0  0  0
    3.1360  -13.8130   -0.9100 C   0  0  0  0  0  0  0  0  0  0  0  0
    2.3490  -13.0870   -1.7820 N   0  0  0  0  0  0  0  0  0  0  0  0
    2.7810  -12.3360   -2.8950 C   0  0  0  0  0  0  0  0  0  0  0  0
    2.5190  -10.9770   -3.0690 C   0  0  0  0  0  0  0  0  0  0  0  0
    2.9850  -10.3030   -4.2010 C   0  0  0  0  0  0  0  0  0  0  0  0
    3.7250  -10.9790   -5.1690 C   0  0  0  0  0  0  0  0  0  0  0  0
    4.0100  -12.3420   -5.0110 C   0  0  0  0  0  0  0  0  0  0  0  0
    4.7920  -13.0960   -6.0560 C   0  0  0  0  0  0  0  0  0  0  0  0
    6.1060  -12.7260   -6.0890 F   0  0  0  0  0  0  0  0  0  0  0  0
    4.3250  -12.9130   -7.3210 F   0  0  0  0  0  0  0  0  0  0  0  0
    4.7900  -14.4380   -5.8380 F   0  0  0  0  0  0  0  0  0  0  0  0
    3.5250  -13.0110   -3.8720 C   0  0  0  0  0  0  0  0  0  0  0  0
    2.3780  -14.5590    0.1240 C   0  0  0  0  0  0  0  0  0  0  0  0
    1.2970  -13.9600    0.7910 C   0  0  0  0  0  0  0  0  0  0  0  0
    0.5470  -14.6640    1.7420 C   0  0  0  0  0  0  0  0  0  0  0  0
   -0.5690  -14.1160    2.3780 N   0  0  0  0  0  0  0  0  0  0  0  0
   -1.6860  -15.0190    2.7120 C   0  0  0  0  0  0  0  0  0  0  0  0
   -3.0060  -14.2370    2.6830 C   0  0  0  0  0  0  0  0  0  0  0  0
   -2.8000  -12.7400    2.3910 C   0  0  0  0  0  0  0  0  0  0  0  0
   -2.3310  -12.5260    0.9610 N   0  0  0  0  0  0  0  0  0  0  0  0
   -1.7310  -11.2070    0.5890 C   0  0  0  0  0  0  0  0  0  0  0  0
   -2.8230  -10.1530    0.4210 C   0  0  0  0  0  0  0  0  0  0  0  0
   -3.8340  -10.5620   -0.6530 C   0  0  0  0  0  0  0  0  0  0  0  0
   -4.4300  -11.9400   -0.3880 C   0  0  0  0  0  0  0  0  0  0  0  0
   -3.3260  -12.8980   -0.0460 C   0  0  0  0  0  0  0  0  0  0  0  0
   -3.1540  -14.0100   -0.5060 O   0  0  0  0  0  0  0  0  0  0  0  0
   -1.7610  -12.2270    3.3990 C   0  0  0  0  0  0  0  0  0  0  0  0
   -0.4130  -12.9390    3.2480 C   0  0  0  0  0  0  0  0  0  0  0  0
    0.9280  -15.9940    1.9960 C   0  0  0  0  0  0  0  0  0  0  0  0
    2.0050  -16.6160    1.3300 C   0  0  0  0  0  0  0  0  0  0  0  0
    2.3310  -18.0620    1.6140 C   0  0  0  0  0  0  0  0  0  0  0  0
    3.6450  -18.2440    1.9210 F   0  0  0  0  0  0  0  0  0  0  0  0
    2.0680  -18.8960    0.5740 F   0  0  0  0  0  0  0  0  0  0  0  0
    1.6300  -18.5390    2.6780 F   0  0  0  0  0  0  0  0  0  0  0  0
    2.7200  -15.8870    0.3770 C   0  0  0  0  0  0  0  0  0  0  0  0
    1.3570  -13.0480   -1.5840 H   0  0  0  0  0  0  0  0  0  0  0  0
    1.9408  -10.4313   -2.3088 H   0  0  0  0  0  0  0  0  0  0  0  0
    2.7664   -9.2325   -4.3286 H   0  0  0  0  0  0  0  0  0  0  0  0
    4.0860  -10.4420   -6.0585 H   0  0  0  0  0  0  0  0  0  0  0  0
    3.7338  -14.0837   -3.7462 H   0  0  0  0  0  0  0  0  0  0  0  0
    1.0338  -12.9168    0.5620 H   0  0  0  0  0  0  0  0  0  0  0  0
   -1.7284  -15.8363    1.9770 H   0  0  0  0  0  0  0  0  0  0  0  0
   -1.5304  -15.4362    3.7179 H   0  0  0  0  0  0  0  0  0  0  0  0
   -3.6510  -14.6632    1.9005 H   0  0  0  0  0  0  0  0  0  0  0  0
   -3.4661  -14.3223    3.6785 H   0  0  0  0  0  0  0  0  0  0  0  0
   -3.7452  -12.1872    2.4961 H   0  0  0  0  0  0  0  0  0  0  0  0
   -1.6090  -13.2600    0.8200 H   0  0  0  0  0  0  0  0  0  0  0  0
   -1.0382  -10.8877    1.3815 H   0  0  0  0  0  0  0  0  0  0  0  0
   -1.1918  -11.3166   -0.3635 H   0  0  0  0  0  0  0  0  0  0  0  0
   -3.3494  -10.0274    1.3787 H   0  0  0  0  0  0  0  0  0  0  0  0
   -2.3492   -9.2105    0.1092 H   0  0  0  0  0  0  0  0  0  0  0  0
   -4.6477   -9.8221   -0.6736 H   0  0  0  0  0  0  0  0  0  0  0  0
   -3.3051  -10.6025   -1.6167 H   0  0  0  0  0  0  0  0  0  0  0  0
   -5.1378  -11.8794    0.4519 H   0  0  0  0  0  0  0  0  0  0  0  0
   -4.9600  -12.2921   -1.2853 H   0  0  0  0  0  0  0  0  0  0  0  0
   -1.6129  -11.1489    3.2385 H   0  0  0  0  0  0  0  0  0  0  0  0
   -2.1408  -12.4307    4.4111 H   0  0  0  0  0  0  0  0  0  0  0  0
    0.3174  -12.2483    2.8014 H   0  0  0  0  0  0  0  0  0  0  0  0
   -0.0584  -13.2619    4.2379 H   0  0  0  0  0  0  0  0  0  0  0  0
    0.3641  -16.5717    2.7432 H   0  0  0  0  0  0  0  0  0  0  0  0
    3.5490  -16.3582   -0.1714 H   0  0  0  0  0  0  0  0  0  0  0  0
  1  2  2  0
  2  3  1  0
  3  4  1  0
  4  5  2  0
  5  6  1  0
  6  7  2  0
  7  8  1  0
  8  9  1  0
  9 10  1  0
  9 11  1  0
  9 12  1  0
  8 13  2  0
  2 14  1  0
 14 15  2  0
 15 16  1  0
 16 17  1  0
 17 18  1  0
 18 19  1  0
 19 20  1  0
 20 21  1  0
 21 22  1  0
 22 23  1  0
 23 24  1  0
 24 25  1  0
 25 26  1  0
 26 27  2  0
 20 28  1  0
 28 29  1  0
 16 30  2  0
 30 31  1  0
 31 32  1  0
 32 33  1  0
 32 34  1  0
 32 35  1  0
 31 36  2  0
 13  4  1  0
 36 14  1  0
 29 17  1  0
 26 21  1  0
  3 37  1  0
  5 38  1  0
  6 39  1  0
  7 40  1  0
 13 41  1  0
 15 42  1  0
 18 43  1  0
 18 44  1  0
 19 45  1  0
 19 46  1  0
 20 47  1  0
 21 48  1  0
 22 49  1  0
 22 50  1  0
 23 51  1  0
 23 52  1  0
 24 53  1  0
 24 54  1  0
 25 55  1  0
 25 56  1  0
 28 57  1  0
 28 58  1  0
 29 59  1  0
 29 60  1  0
 30 61  1  0
 36 62  1  0
M  CHG  1  21   1
M  END
>  <meeko>  (1) 
{"is_sidechain": [false], "free_energy": -8.74, "intermolecular_energy": -11.805, "internal_energy": -1.535}

$$$$
LIB_LZHONOBXZLUENO__M_PUB_ALL__e8__s20260927
     RDKit          3D

 62 65  0  0  0  0  0  0  0  0999 V2000
    1.0980   -9.5400   -2.3110 O   0  0  0  0  0  0  0  0  0  0  0  0
    1.4320  -10.5050   -1.6390 C   0  0  0  0  0  0  0  0  0  0  0  0
    0.8530  -10.9750   -0.4770 N   0  0  0  0  0  0  0  0  0  0  0  0
   -0.3080  -10.4830    0.1550 C   0  0  0  0  0  0  0  0  0  0  0  0
   -0.2940   -9.6180    1.2490 C   0  0  0  0  0  0  0  0  0  0  0  0
   -1.4900   -9.1720    1.8190 C   0  0  0  0  0  0  0  0  0  0  0  0
   -2.7150   -9.5810    1.2950 C   0  0  0  0  0  0  0  0  0  0  0  0
   -2.7550  -10.4400    0.1890 C   0  0  0  0  0  0  0  0  0  0  0  0
   -4.0700  -10.9090   -0.3800 C   0  0  0  0  0  0  0  0  0  0  0  0
   -4.8820   -9.8710   -0.7330 F   0  0  0  0  0  0  0  0  0  0  0  0
   -4.7960  -11.6690    0.4840 F   0  0  0  0  0  0  0  0  0  0  0  0
   -3.9110  -11.6560   -1.5050 F   0  0  0  0  0  0  0  0  0  0  0  0
   -1.5430  -10.8910   -0.3670 C   0  0  0  0  0  0  0  0  0  0  0  0
    2.6110  -11.2810   -2.0940 C   0  0  0  0  0  0  0  0  0  0  0  0
    3.3740  -12.0250   -1.1790 C   0  0  0  0  0  0  0  0  0  0  0  0
    4.4670  -12.7950   -1.5990 C   0  0  0  0  0  0  0  0  0  0  0  0
    5.2090  -13.5910   -0.7230 N   0  0  0  0  0  0  0  0  0  0  0  0
    4.9190  -13.4850    0.7190 C   0  0  0  0  0  0  0  0  0  0  0  0
    6.1930  -13.7800    1.5230 C   0  0  0  0  0  0  0  0  0  0  0  0
    7.3810  -14.1690    0.6250 C   0  0  0  0  0  0  0  0  0  0  0  0
    7.8530  -12.9800   -0.1960 N   0  0  0  0  0  0  0  0  0  0  0  0
    8.7780  -13.2200   -1.3470 C   0  0  0  0  0  0  0  0  0  0  0  0
   10.1970  -13.4750   -0.8440 C   0  0  0  0  0  0  0  0  0  0  0  0
   10.7190  -12.2950   -0.0210 C   0  0  0  0  0  0  0  0  0  0  0  0
    9.7830  -11.9340    1.1250 C   0  0  0  0  0  0  0  0  0  0  0  0
    8.3730  -11.8760    0.6130 C   0  0  0  0  0  0  0  0  0  0  0  0
    7.5580  -10.9970    0.8100 O   0  0  0  0  0  0  0  0  0  0  0  0
    6.9010  -15.3140   -0.2800 C   0  0  0  0  0  0  0  0  0  0  0  0
    5.7360  -14.8870   -1.1780 C   0  0  0  0  0  0  0  0  0  0  0  0
    4.7620  -12.7860   -2.9750 C   0  0  0  0  0  0  0  0  0  0  0  0
    4.0020  -12.0530   -3.9090 C   0  0  0  0  0  0  0  0  0  0  0  0
    4.3420  -12.1250   -5.3790 C   0  0  0  0  0  0  0  0  0  0  0  0
    3.9190  -11.0250   -6.0600 F   0  0  0  0  0  0  0  0  0  0  0  0
    3.7970  -13.1950   -6.0130 F   0  0  0  0  0  0  0  0  0  0  0  0
    5.6850  -12.1980   -5.5830 F   0  0  0  0  0  0  0  0  0  0  0  0
    2.9100  -11.3090   -3.4560 C   0  0  0  0  0  0  0  0  0  0  0  0
    1.3290  -11.7270    0.0040 H   0  0  0  0  0  0  0  0  0  0  0  0
    0.6669   -9.2837    1.6671 H   0  0  0  0  0  0  0  0  0  0  0  0
   -1.4641   -8.4948    2.6855 H   0  0  0  0  0  0  0  0  0  0  0  0
   -3.6521   -9.2287    1.7507 H   0  0  0  0  0  0  0  0  0  0  0  0
   -1.5656  -11.5763   -1.2271 H   0  0  0  0  0  0  0  0  0  0  0  0
    3.1084  -12.0028   -0.1118 H   0  0  0  0  0  0  0  0  0  0  0  0
    4.5686  -12.4678    0.9482 H   0  0  0  0  0  0  0  0  0  0  0  0
    4.1394  -14.2124    0.9895 H   0  0  0  0  0  0  0  0  0  0  0  0
    6.4640  -12.8813    2.0965 H   0  0  0  0  0  0  0  0  0  0  0  0
    5.9806  -14.6333    2.1838 H   0  0  0  0  0  0  0  0  0  0  0  0
    8.2406  -14.4908    1.2313 H   0  0  0  0  0  0  0  0  0  0  0  0
    6.9750  -12.5670   -0.5690 H   0  0  0  0  0  0  0  0  0  0  0  0
    8.4313  -14.0964   -1.9142 H   0  0  0  0  0  0  0  0  0  0  0  0
    8.7826  -12.3298   -1.9932 H   0  0  0  0  0  0  0  0  0  0  0  0
   10.1969  -14.3775   -0.2152 H   0  0  0  0  0  0  0  0  0  0  0  0
   10.8546  -13.6064   -1.7159 H   0  0  0  0  0  0  0  0  0  0  0  0
   11.7022  -12.5605    0.3948 H   0  0  0  0  0  0  0  0  0  0  0  0
   10.7886  -11.4228   -0.6877 H   0  0  0  0  0  0  0  0  0  0  0  0
    9.8565  -12.6969    1.9140 H   0  0  0  0  0  0  0  0  0  0  0  0
   10.0661  -10.9546    1.5381 H   0  0  0  0  0  0  0  0  0  0  0  0
    7.7381  -15.6392   -0.9152 H   0  0  0  0  0  0  0  0  0  0  0  0
    6.5496  -16.1323    0.3656 H   0  0  0  0  0  0  0  0  0  0  0  0
    6.0890  -14.7943   -2.2157 H   0  0  0  0  0  0  0  0  0  0  0  0
    4.9390  -15.6433   -1.1253 H   0  0  0  0  0  0  0  0  0  0  0  0
    5.6189  -13.3738   -3.3358 H   0  0  0  0  0  0  0  0  0  0  0  0
    2.2890  -10.7480   -4.1699 H   0  0  0  0  0  0  0  0  0  0  0  0
  1  2  2  0
  2  3  1  0
  3  4  1  0
  4  5  2  0
  5  6  1  0
  6  7  2  0
  7  8  1  0
  8  9  1  0
  9 10  1  0
  9 11  1  0
  9 12  1  0
  8 13  2  0
  2 14  1  0
 14 15  2  0
 15 16  1  0
 16 17  1  0
 17 18  1  0
 18 19  1  0
 19 20  1  0
 20 21  1  0
 21 22  1  0
 22 23  1  0
 23 24  1  0
 24 25  1  0
 25 26  1  0
 26 27  2  0
 20 28  1  0
 28 29  1  0
 16 30  2  0
 30 31  1  0
 31 32  1  0
 32 33  1  0
 32 34  1  0
 32 35  1  0
 31 36  2  0
 13  4  1  0
 36 14  1  0
 29 17  1  0
 26 21  1  0
  3 37  1  0
  5 38  1  0
  6 39  1  0
  7 40  1  0
 13 41  1  0
 15 42  1  0
 18 43  1  0
 18 44  1  0
 19 45  1  0
 19 46  1  0
 20 47  1  0
 21 48  1  0
 22 49  1  0
 22 50  1  0
 23 51  1  0
 23 52  1  0
 24 53  1  0
 24 54  1  0
 25 55  1  0
 25 56  1  0
 28 57  1  0
 28 58  1  0
 29 59  1  0
 29 60  1  0
 30 61  1  0
 36 62  1  0
M  CHG  1  21   1
M  END
>  <meeko>  (2) 
{"is_sidechain": [false], "free_energy": -8.605, "intermolecular_energy": -11.573, "internal_energy": -1.585}

$$$$
LIB_LZHONOBXZLUENO__M_PUB_ALL__e8__s20260927
     RDKit          3D

 62 65  0  0  0  0  0  0  0  0999 V2000
    3.1550  -11.8370    0.0180 O   0  0  0  0  0  0  0  0  0  0  0  0
    2.0460  -12.1030   -0.4220 C   0  0  0  0  0  0  0  0  0  0  0  0
    1.6180  -12.0660   -1.7350 N   0  0  0  0  0  0  0  0  0  0  0  0
    2.3970  -11.7820   -2.8760 C   0  0  0  0  0  0  0  0  0  0  0  0
    2.4760  -10.5240   -3.4740 C   0  0  0  0  0  0  0  0  0  0  0  0
    3.2750  -10.3230   -4.6040 C   0  0  0  0  0  0  0  0  0  0  0  0
    4.0090  -11.3770   -5.1440 C   0  0  0  0  0  0  0  0  0  0  0  0
    3.9540  -12.6470   -4.5540 C   0  0  0  0  0  0  0  0  0  0  0  0
    4.7260  -13.8040   -5.1360 C   0  0  0  0  0  0  0  0  0  0  0  0
    5.9800  -13.9100   -4.6070 F   0  0  0  0  0  0  0  0  0  0  0  0
    4.8990  -13.7200   -6.4830 F   0  0  0  0  0  0  0  0  0  0  0  0
    4.1220  -15.0000   -4.9020 F   0  0  0  0  0  0  0  0  0  0  0  0
    3.1370  -12.8380   -3.4250 C   0  0  0  0  0  0  0  0  0  0  0  0
    1.0010  -12.5050    0.5510 C   0  0  0  0  0  0  0  0  0  0  0  0
    0.7650  -13.8610    0.8290 C   0  0  0  0  0  0  0  0  0  0  0  0
   -0.1900  -14.2550    1.7750 C   0  0  0  0  0  0  0  0  0  0  0  0
   -0.4060  -15.5920    2.1150 N   0  0  0  0  0  0  0  0  0  0  0  0
   -1.2920  -16.3910    1.2470 C   0  0  0  0  0  0  0  0  0  0  0  0
   -1.9890  -17.4740    2.0800 C   0  0  0  0  0  0  0  0  0  0  0  0
   -1.5280  -17.4770    3.5490 C   0  0  0  0  0  0  0  0  0  0  0  0
   -2.0130  -16.2310    4.2720 N   0  0  0  0  0  0  0  0  0  0  0  0
   -1.5470  -15.9840    5.6730 C   0  0  0  0  0  0  0  0  0  0  0  0
   -2.3020  -16.8820    6.6500 C   0  0  0  0  0  0  0  0  0  0  0  0
   -3.8120  -16.6440    6.5770 C   0  0  0  0  0  0  0  0  0  0  0  0
   -4.3500  -16.7940    5.1590 C   0  0  0  0  0  0  0  0  0  0  0  0
   -3.4620  -16.0410    4.2110 C   0  0  0  0  0  0  0  0  0  0  0  0
   -3.8110  -15.2700    3.3390 O   0  0  0  0  0  0  0  0  0  0  0  0
    0.0060  -17.5520    3.5350 C   0  0  0  0  0  0  0  0  0  0  0  0
    0.6340  -16.3440    2.8350 C   0  0  0  0  0  0  0  0  0  0  0  0
   -0.8990  -13.2310    2.4290 C   0  0  0  0  0  0  0  0  0  0  0  0
   -0.6690  -11.8640    2.1710 C   0  0  0  0  0  0  0  0  0  0  0  0
   -1.4310  -10.8130    2.9440 C   0  0  0  0  0  0  0  0  0  0  0  0
   -1.2050  -10.8950    4.2840 F   0  0  0  0  0  0  0  0  0  0  0  0
   -2.7780  -10.8870    2.7820 F   0  0  0  0  0  0  0  0  0  0  0  0
   -1.0660   -9.5550    2.5790 F   0  0  0  0  0  0  0  0  0  0  0  0
    0.3020  -11.5080    1.2320 C   0  0  0  0  0  0  0  0  0  0  0  0
    0.6320  -12.2160   -1.9030 H   0  0  0  0  0  0  0  0  0  0  0  0
    1.9051   -9.6832   -3.0532 H   0  0  0  0  0  0  0  0  0  0  0  0
    3.3243   -9.3274   -5.0690 H   0  0  0  0  0  0  0  0  0  0  0  0
    4.6327  -11.2120   -6.0349 H   0  0  0  0  0  0  0  0  0  0  0  0
    3.0778  -13.8351   -2.9643 H   0  0  0  0  0  0  0  0  0  0  0  0
    1.3417  -14.6293    0.2931 H   0  0  0  0  0  0  0  0  0  0  0  0
   -2.0490  -15.7345    0.7932 H   0  0  0  0  0  0  0  0  0  0  0  0
   -0.6950  -16.8671    0.4553 H   0  0  0  0  0  0  0  0  0  0  0  0
   -3.0743  -17.2969    2.0514 H   0  0  0  0  0  0  0  0  0  0  0  0
   -1.7264  -18.4499    1.6457 H   0  0  0  0  0  0  0  0  0  0  0  0
   -1.9506  -18.3359    4.0909 H   0  0  0  0  0  0  0  0  0  0  0  0
   -1.6760  -15.4480    3.6780 H   0  0  0  0  0  0  0  0  0  0  0  0
   -0.4704  -16.1993    5.7403 H   0  0  0  0  0  0  0  0  0  0  0  0
   -1.7386  -14.9325    5.9331 H   0  0  0  0  0  0  0  0  0  0  0  0
   -2.0934  -17.9335    6.4035 H   0  0  0  0  0  0  0  0  0  0  0  0
   -1.9637  -16.6447    7.6694 H   0  0  0  0  0  0  0  0  0  0  0  0
   -4.3175  -17.3735    7.2268 H   0  0  0  0  0  0  0  0  0  0  0  0
   -4.0078  -15.6126    6.9054 H   0  0  0  0  0  0  0  0  0  0  0  0
   -4.3649  -17.8584    4.8820 H   0  0  0  0  0  0  0  0  0  0  0  0
   -5.3719  -16.3903    5.1072 H   0  0  0  0  0  0  0  0  0  0  0  0
    0.3690  -17.5892    4.5727 H   0  0  0  0  0  0  0  0  0  0  0  0
    0.2965  -18.4554    2.9786 H   0  0  0  0  0  0  0  0  0  0  0  0
    1.1046  -15.6909    3.5846 H   0  0  0  0  0  0  0  0  0  0  0  0
    1.3934  -16.6919    2.1193 H   0  0  0  0  0  0  0  0  0  0  0  0
   -1.6628  -13.5076    3.1707 H   0  0  0  0  0  0  0  0  0  0  0  0
    0.5143  -10.4476    1.0307 H   0  0  0  0  0  0  0  0  0  0  0  0
  1  2  2  0
  2  3  1  0
  3  4  1  0
  4  5  2  0
  5  6  1  0
  6  7  2  0
  7  8  1  0
  8  9  1  0
  9 10  1  0
  9 11  1  0
  9 12  1  0
  8 13  2  0
  2 14  1  0
 14 15  2  0
 15 16  1  0
 16 17  1  0
 17 18  1  0
 18 19  1  0
 19 20  1  0
 20 21  1  0
 21 22  1  0
 22 23  1  0
 23 24  1  0
 24 25  1  0
 25 26  1  0
 26 27  2  0
 20 28  1  0
 28 29  1  0
 16 30  2  0
 30 31  1  0
 31 32  1  0
 32 33  1  0
 32 34  1  0
 32 35  1  0
 31 36  2  0
 13  4  1  0
 36 14  1  0
 29 17  1  0
 26 21  1  0
  3 37  1  0
  5 38  1  0
  6 39  1  0
  7 40  1  0
 13 41  1  0
 15 42  1  0
 18 43  1  0
 18 44  1  0
 19 45  1  0
 19 46  1  0
 20 47  1  0
 21 48  1  0
 22 49  1  0
 22 50  1  0
 23 51  1  0
 23 52  1  0
 24 53  1  0
 24 54  1  0
 25 55  1  0
 25 56  1  0
 28 57  1  0
 28 58  1  0
 29 59  1  0
 29 60  1  0
 30 61  1  0
 36 62  1  0
M  CHG  1  21   1
M  END
>  <meeko>  (3) 
{"is_sidechain": [false], "free_energy": -8.457, "intermolecular_energy": -11.357, "internal_energy": -1.601}

$$$$
LIB_LZHONOBXZLUENO__M_PUB_ALL__e8__s20260927
     RDKit          3D

 62 65  0  0  0  0  0  0  0  0999 V2000
    5.4230  -11.6410   -7.5580 O   0  0  0  0  0  0  0  0  0  0  0  0
    5.7360  -12.7620   -7.1840 C   0  0  0  0  0  0  0  0  0  0  0  0
    6.4630  -13.7160   -7.8670 N   0  0  0  0  0  0  0  0  0  0  0  0
    7.0740  -13.5780   -9.1310 C   0  0  0  0  0  0  0  0  0  0  0  0
    6.3910  -13.6810  -10.3430 C   0  0  0  0  0  0  0  0  0  0  0  0
    7.0700  -13.5280  -11.5560 C   0  0  0  0  0  0  0  0  0  0  0  0
    8.4370  -13.2630  -11.5690 C   0  0  0  0  0  0  0  0  0  0  0  0
    9.1430  -13.1450  -10.3640 C   0  0  0  0  0  0  0  0  0  0  0  0
   10.6270  -12.8780  -10.3590 C   0  0  0  0  0  0  0  0  0  0  0  0
   10.9290  -11.6160  -10.7800 F   0  0  0  0  0  0  0  0  0  0  0  0
   11.3320  -13.7160  -11.1650 F   0  0  0  0  0  0  0  0  0  0  0  0
   11.1700  -12.9950   -9.1180 F   0  0  0  0  0  0  0  0  0  0  0  0
    8.4500  -13.3120   -9.1510 C   0  0  0  0  0  0  0  0  0  0  0  0
    5.2810  -13.1860   -5.8370 C   0  0  0  0  0  0  0  0  0  0  0  0
    6.2020  -13.3580   -4.7910 C   0  0  0  0  0  0  0  0  0  0  0  0
    5.7830  -13.7190   -3.5040 C   0  0  0  0  0  0  0  0  0  0  0  0
    6.6670  -13.8400   -2.4300 N   0  0  0  0  0  0  0  0  0  0  0  0
    6.7420  -12.7240   -1.4680 C   0  0  0  0  0  0  0  0  0  0  0  0
    8.1520  -12.6540   -0.8680 C   0  0  0  0  0  0  0  0  0  0  0  0
    9.0640  -13.7890   -1.3700 C   0  0  0  0  0  0  0  0  0  0  0  0
    9.3910  -13.6100   -2.8440 N   0  0  0  0  0  0  0  0  0  0  0  0
   10.0530  -14.7340   -3.5760 C   0  0  0  0  0  0  0  0  0  0  0  0
   11.5370  -14.7980   -3.2230 C   0  0  0  0  0  0  0  0  0  0  0  0
   12.2510  -13.4880   -3.5680 C   0  0  0  0  0  0  0  0  0  0  0  0
   11.5800  -12.2810   -2.9240 C   0  0  0  0  0  0  0  0  0  0  0  0
   10.0970  -12.3640   -3.1430 C   0  0  0  0  0  0  0  0  0  0  0  0
    9.3650  -11.4770   -3.5370 O   0  0  0  0  0  0  0  0  0  0  0  0
    8.3150  -15.1060   -1.1220 C   0  0  0  0  0  0  0  0  0  0  0  0
    6.9940  -15.1720   -1.8940 C   0  0  0  0  0  0  0  0  0  0  0  0
    4.4010  -13.9020   -3.3120 C   0  0  0  0  0  0  0  0  0  0  0  0
    3.4610  -13.7260   -4.3470 C   0  0  0  0  0  0  0  0  0  0  0  0
    1.9870  -13.8900   -4.0610 C   0  0  0  0  0  0  0  0  0  0  0  0
    1.4380  -12.7680   -3.5200 F   0  0  0  0  0  0  0  0  0  0  0  0
    1.7080  -14.9020   -3.1980 F   0  0  0  0  0  0  0  0  0  0  0  0
    1.2770  -14.1440   -5.1940 F   0  0  0  0  0  0  0  0  0  0  0  0
    3.9130  -13.3500   -5.6140 C   0  0  0  0  0  0  0  0  0  0  0  0
    6.5360  -14.6320   -7.4420 H   0  0  0  0  0  0  0  0  0  0  0  0
    5.3099  -13.8841  -10.3446 H   0  0  0  0  0  0  0  0  0  0  0  0
    6.5212  -13.6175  -12.5051 H   0  0  0  0  0  0  0  0  0  0  0  0
    8.9641  -13.1460  -12.5274 H   0  0  0  0  0  0  0  0  0  0  0  0
    8.9983  -13.2323   -8.2007 H   0  0  0  0  0  0  0  0  0  0  0  0
    7.2739  -13.2062   -4.9862 H   0  0  0  0  0  0  0  0  0  0  0  0
    6.5171  -11.7795   -1.9851 H   0  0  0  0  0  0  0  0  0  0  0  0
    6.0106  -12.8868   -0.6627 H   0  0  0  0  0  0  0  0  0  0  0  0
    8.6048  -11.6900   -1.1429 H   0  0  0  0  0  0  0  0  0  0  0  0
    8.0565  -12.7598    0.2227 H   0  0  0  0  0  0  0  0  0  0  0  0
   10.0249  -13.7855   -0.8346 H   0  0  0  0  0  0  0  0  0  0  0  0
    8.4670  -13.4360   -3.2870 H   0  0  0  0  0  0  0  0  0  0  0  0
    9.5723  -15.6826   -3.2948 H   0  0  0  0  0  0  0  0  0  0  0  0
    9.9506  -14.5646   -4.6580 H   0  0  0  0  0  0  0  0  0  0  0  0
   11.6403  -14.9885   -2.1446 H   0  0  0  0  0  0  0  0  0  0  0  0
   11.9973  -15.6075   -3.8086 H   0  0  0  0  0  0  0  0  0  0  0  0
   13.2905  -13.5468   -3.2132 H   0  0  0  0  0  0  0  0  0  0  0  0
   12.2078  -13.3566   -4.6593 H   0  0  0  0  0  0  0  0  0  0  0  0
   11.7925  -12.2745   -1.8447 H   0  0  0  0  0  0  0  0  0  0  0  0
   11.9689  -11.3571   -3.3770 H   0  0  0  0  0  0  0  0  0  0  0  0
    8.9540  -15.9428   -1.4404 H   0  0  0  0  0  0  0  0  0  0  0  0
    8.0832  -15.1667   -0.0484 H   0  0  0  0  0  0  0  0  0  0  0  0
    7.0908  -15.8869   -2.7244 H   0  0  0  0  0  0  0  0  0  0  0  0
    6.1916  -15.4999   -1.2168 H   0  0  0  0  0  0  0  0  0  0  0  0
    4.0403  -14.1939   -2.3147 H   0  0  0  0  0  0  0  0  0  0  0  0
    3.1953  -13.1842   -6.4309 H   0  0  0  0  0  0  0  0  0  0  0  0
  1  2  2  0
  2  3  1  0
  3  4  1  0
  4  5  2  0
  5  6  1  0
  6  7  2  0
  7  8  1  0
  8  9  1  0
  9 10  1  0
  9 11  1  0
  9 12  1  0
  8 13  2  0
  2 14  1  0
 14 15  2  0
 15 16  1  0
 16 17  1  0
 17 18  1  0
 18 19  1  0
 19 20  1  0
 20 21  1  0
 21 22  1  0
 22 23  1  0
 23 24  1  0
 24 25  1  0
 25 26  1  0
 26 27  2  0
 20 28  1  0
 28 29  1  0
 16 30  2  0
 30 31  1  0
 31 32  1  0
 32 33  1  0
 32 34  1  0
 32 35  1  0
 31 36  2  0
 13  4  1  0
 36 14  1  0
 29 17  1  0
 26 21  1  0
  3 37  1  0
  5 38  1  0
  6 39  1  0
  7 40  1  0
 13 41  1  0
 15 42  1  0
 18 43  1  0
 18 44  1  0
 19 45  1  0
 19 46  1  0
 20 47  1  0
 21 48  1  0
 22 49  1  0
 22 50  1  0
 23 51  1  0
 23 52  1  0
 24 53  1  0
 24 54  1  0
 25 55  1  0
 25 56  1  0
 28 57  1  0
 28 58  1  0
 29 59  1  0
 29 60  1  0
 30 61  1  0
 36 62  1  0
M  CHG  1  21   1
M  END
>  <meeko>  (4) 
{"is_sidechain": [false], "free_energy": -8.445, "intermolecular_energy": -11.17, "internal_energy": -1.772}

$$$$
LIB_LZHONOBXZLUENO__M_PUB_ALL__e8__s20260927
     RDKit          3D

 62 65  0  0  0  0  0  0  0  0999 V2000
    1.6130  -12.5010    0.8350 O   0  0  0  0  0  0  0  0  0  0  0  0
    1.7140  -11.7440   -0.1210 C   0  0  0  0  0  0  0  0  0  0  0  0
    0.8440  -10.7460   -0.5120 N   0  0  0  0  0  0  0  0  0  0  0  0
   -0.3270  -10.3280    0.1540 C   0  0  0  0  0  0  0  0  0  0  0  0
   -0.3320   -9.5250    1.2940 C   0  0  0  0  0  0  0  0  0  0  0  0
   -1.5380   -9.1510    1.8950 C   0  0  0  0  0  0  0  0  0  0  0  0
   -2.7520   -9.5710    1.3580 C   0  0  0  0  0  0  0  0  0  0  0  0
   -2.7730  -10.3690    0.2060 C   0  0  0  0  0  0  0  0  0  0  0  0
   -4.0770  -10.8490   -0.3790 C   0  0  0  0  0  0  0  0  0  0  0  0
   -4.9050   -9.8180   -0.7180 F   0  0  0  0  0  0  0  0  0  0  0  0
   -4.7950  -11.6370    0.4660 F   0  0  0  0  0  0  0  0  0  0  0  0
   -3.9000  -11.5720   -1.5170 F   0  0  0  0  0  0  0  0  0  0  0  0
   -1.5520  -10.7470   -0.3820 C   0  0  0  0  0  0  0  0  0  0  0  0
    2.9010  -11.9010   -0.9970 C   0  0  0  0  0  0  0  0  0  0  0  0
    4.1090  -12.3990   -0.4820 C   0  0  0  0  0  0  0  0  0  0  0  0
    5.2260  -12.5910   -1.3050 C   0  0  0  0  0  0  0  0  0  0  0  0
    6.4220  -13.1390   -0.8360 N   0  0  0  0  0  0  0  0  0  0  0  0
    7.3200  -12.2680   -0.0540 C   0  0  0  0  0  0  0  0  0  0  0  0
    8.7750  -12.7090   -0.2630 C   0  0  0  0  0  0  0  0  0  0  0  0
    8.8910  -13.9580   -1.1560 C   0  0  0  0  0  0  0  0  0  0  0  0
    8.5000  -13.6370   -2.5900 N   0  0  0  0  0  0  0  0  0  0  0  0
    8.4110  -14.7560   -3.5790 C   0  0  0  0  0  0  0  0  0  0  0  0
    9.8070  -15.1860   -4.0230 C   0  0  0  0  0  0  0  0  0  0  0  0
   10.5760  -14.0230   -4.6530 C   0  0  0  0  0  0  0  0  0  0  0  0
   10.6380  -12.8090   -3.7340 C   0  0  0  0  0  0  0  0  0  0  0  0
    9.2690  -12.5400   -3.1780 C   0  0  0  0  0  0  0  0  0  0  0  0
    8.6960  -11.4700   -3.1310 O   0  0  0  0  0  0  0  0  0  0  0  0
    7.9670  -15.0260   -0.5520 C   0  0  0  0  0  0  0  0  0  0  0  0
    6.5030  -14.5780   -0.5380 C   0  0  0  0  0  0  0  0  0  0  0  0
    5.0800  -12.2610   -2.6650 C   0  0  0  0  0  0  0  0  0  0  0  0
    3.8730  -11.7680   -3.2010 C   0  0  0  0  0  0  0  0  0  0  0  0
    3.7680  -11.4790   -4.6800 C   0  0  0  0  0  0  0  0  0  0  0  0
    2.7650  -12.1830   -5.2730 F   0  0  0  0  0  0  0  0  0  0  0  0
    4.8980  -11.7740   -5.3740 F   0  0  0  0  0  0  0  0  0  0  0  0
    3.4990  -10.1680   -4.9210 F   0  0  0  0  0  0  0  0  0  0  0  0
    2.7750  -11.6040   -2.3540 C   0  0  0  0  0  0  0  0  0  0  0  0
    1.0350  -10.2870   -1.3940 H   0  0  0  0  0  0  0  0  0  0  0  0
    0.6208   -9.1828    1.7242 H   0  0  0  0  0  0  0  0  0  0  0  0
   -1.5275   -8.5215    2.7970 H   0  0  0  0  0  0  0  0  0  0  0  0
   -3.6964   -9.2760    1.8388 H   0  0  0  0  0  0  0  0  0  0  0  0
   -1.5592  -11.3833   -1.2792 H   0  0  0  0  0  0  0  0  0  0  0  0
    4.1793  -12.6430    0.5883 H   0  0  0  0  0  0  0  0  0  0  0  0
    7.2016  -11.2264   -0.3874 H   0  0  0  0  0  0  0  0  0  0  0  0
    7.0648  -12.3441    1.0133 H   0  0  0  0  0  0  0  0  0  0  0  0
    9.3288  -11.8847   -0.7360 H   0  0  0  0  0  0  0  0  0  0  0  0
    9.1916  -12.9635    0.7227 H   0  0  0  0  0  0  0  0  0  0  0  0
    9.9288  -14.3212   -1.1895 H   0  0  0  0  0  0  0  0  0  0  0  0
    7.5580  -13.2070   -2.5030 H   0  0  0  0  0  0  0  0  0  0  0  0
    7.8992  -15.6112   -3.1136 H   0  0  0  0  0  0  0  0  0  0  0  0
    7.8473  -14.4111   -4.4584 H   0  0  0  0  0  0  0  0  0  0  0  0
   10.3643  -15.5510   -3.1476 H   0  0  0  0  0  0  0  0  0  0  0  0
    9.7010  -15.9796   -4.7773 H   0  0  0  0  0  0  0  0  0  0  0  0
   11.6018  -14.3541   -4.8723 H   0  0  0  0  0  0  0  0  0  0  0  0
   10.0466  -13.7256   -5.5702 H   0  0  0  0  0  0  0  0  0  0  0  0
   11.3377  -13.0076   -2.9088 H   0  0  0  0  0  0  0  0  0  0  0  0
   10.9849  -11.9331   -4.3018 H   0  0  0  0  0  0  0  0  0  0  0  0
    8.0508  -15.9464   -1.1486 H   0  0  0  0  0  0  0  0  0  0  0  0
    8.2798  -15.1959    0.4888 H   0  0  0  0  0  0  0  0  0  0  0  0
    5.9410  -15.1410   -1.2977 H   0  0  0  0  0  0  0  0  0  0  0  0
    6.0730  -14.7690    0.4563 H   0  0  0  0  0  0  0  0  0  0  0  0
    5.9414  -12.3929   -3.3362 H   0  0  0  0  0  0  0  0  0  0  0  0
    1.8164  -11.2427   -2.7546 H   0  0  0  0  0  0  0  0  0  0  0  0
  1  2  2  0
  2  3  1  0
  3  4  1  0
  4  5  2  0
  5  6  1  0
  6  7  2  0
  7  8  1  0
  8  9  1  0
  9 10  1  0
  9 11  1  0
  9 12  1  0
  8 13  2  0
  2 14  1  0
 14 15  2  0
 15 16  1  0
 16 17  1  0
 17 18  1  0
 18 19  1  0
 19 20  1  0
 20 21  1  0
 21 22  1  0
 22 23  1  0
 23 24  1  0
 24 25  1  0
 25 26  1  0
 26 27  2  0
 20 28  1  0
 28 29  1  0
 16 30  2  0
 30 31  1  0
 31 32  1  0
 32 33  1  0
 32 34  1  0
 32 35  1  0
 31 36  2  0
 13  4  1  0
 36 14  1  0
 29 17  1  0
 26 21  1  0
  3 37  1  0
  5 38  1  0
  6 39  1  0
  7 40  1  0
 13 41  1  0
 15 42  1  0
 18 43  1  0
 18 44  1  0
 19 45  1  0
 19 46  1  0
 20 47  1  0
 21 48  1  0
 22 49  1  0
 22 50  1  0
 23 51  1  0
 23 52  1  0
 24 53  1  0
 24 54  1  0
 25 55  1  0
 25 56  1  0
 28 57  1  0
 28 58  1  0
 29 59  1  0
 29 60  1  0
 30 61  1  0
 36 62  1  0
M  CHG  1  21   1
M  END
>  <meeko>  (5) 
{"is_sidechain": [false], "free_energy": -8.442, "intermolecular_energy": -11.31, "internal_energy": -1.627}

$$$$
LIB_LZHONOBXZLUENO__M_PUB_ALL__e8__s20260927
     RDKit          3D

 62 65  0  0  0  0  0  0  0  0999 V2000
   -7.2710  -15.5310    4.6850 O   0  0  0  0  0  0  0  0  0  0  0  0
   -6.6990  -16.2490    5.4950 C   0  0  0  0  0  0  0  0  0  0  0  0
   -7.2620  -17.0670    6.4540 N   0  0  0  0  0  0  0  0  0  0  0  0
   -8.6350  -17.3140    6.6630 C   0  0  0  0  0  0  0  0  0  0  0  0
   -9.2810  -18.4940    6.2930 C   0  0  0  0  0  0  0  0  0  0  0  0
  -10.6470  -18.6630    6.5380 C   0  0  0  0  0  0  0  0  0  0  0  0
  -11.3810  -17.6550    7.1610 C   0  0  0  0  0  0  0  0  0  0  0  0
  -10.7520  -16.4660    7.5510 C   0  0  0  0  0  0  0  0  0  0  0  0
  -11.5330  -15.3560    8.2080 C   0  0  0  0  0  0  0  0  0  0  0  0
  -10.7360  -14.5230    8.9380 F   0  0  0  0  0  0  0  0  0  0  0  0
  -12.4890  -15.8010    9.0680 F   0  0  0  0  0  0  0  0  0  0  0  0
  -12.1700  -14.5640    7.3050 F   0  0  0  0  0  0  0  0  0  0  0  0
   -9.3790  -16.3040    7.2880 C   0  0  0  0  0  0  0  0  0  0  0  0
   -5.2160  -16.2510    5.4800 C   0  0  0  0  0  0  0  0  0  0  0  0
   -4.5120  -16.0380    4.2840 C   0  0  0  0  0  0  0  0  0  0  0  0
   -3.1110  -15.9990    4.2610 C   0  0  0  0  0  0  0  0  0  0  0  0
   -2.3840  -15.7310    3.0990 N   0  0  0  0  0  0  0  0  0  0  0  0
   -0.9130  -15.8180    3.1700 C   0  0  0  0  0  0  0  0  0  0  0  0
   -0.2910  -14.8410    2.1640 C   0  0  0  0  0  0  0  0  0  0  0  0
   -1.3490  -14.1050    1.3230 C   0  0  0  0  0  0  0  0  0  0  0  0
   -2.1450  -13.1350    2.1810 N   0  0  0  0  0  0  0  0  0  0  0  0
   -3.4050  -12.5490    1.6260 C   0  0  0  0  0  0  0  0  0  0  0  0
   -3.0810  -11.4440    0.6220 C   0  0  0  0  0  0  0  0  0  0  0  0
   -2.2530  -10.3290    1.2660 C   0  0  0  0  0  0  0  0  0  0  0  0
   -0.9890  -10.8620    1.9300 C   0  0  0  0  0  0  0  0  0  0  0  0
   -1.3360  -12.0630    2.7620 C   0  0  0  0  0  0  0  0  0  0  0  0
   -0.9960  -12.2820    3.9080 O   0  0  0  0  0  0  0  0  0  0  0  0
   -2.2590  -15.1800    0.7100 C   0  0  0  0  0  0  0  0  0  0  0  0
   -2.9800  -16.0030    1.7810 C   0  0  0  0  0  0  0  0  0  0  0  0
   -2.4490  -16.1820    5.4890 C   0  0  0  0  0  0  0  0  0  0  0  0
   -3.1390  -16.3880    6.7010 C   0  0  0  0  0  0  0  0  0  0  0  0
   -2.3680  -16.5300    7.9910 C   0  0  0  0  0  0  0  0  0  0  0  0
   -2.5900  -15.4900    8.8420 F   0  0  0  0  0  0  0  0  0  0  0  0
   -1.0220  -16.5950    7.8180 F   0  0  0  0  0  0  0  0  0  0  0  0
   -2.7240  -17.6520    8.6730 F   0  0  0  0  0  0  0  0  0  0  0  0
   -4.5350  -16.4060    6.6880 C   0  0  0  0  0  0  0  0  0  0  0  0
   -6.6320  -17.5090    7.1100 H   0  0  0  0  0  0  0  0  0  0  0  0
   -8.7109  -19.2979    5.8045 H   0  0  0  0  0  0  0  0  0  0  0  0
  -11.1453  -19.5965    6.2375 H   0  0  0  0  0  0  0  0  0  0  0  0
  -12.4563  -17.7937    7.3467 H   0  0  0  0  0  0  0  0  0  0  0  0
   -8.8806  -15.3674    7.5783 H   0  0  0  0  0  0  0  0  0  0  0  0
   -5.0708  -15.8990    3.3468 H   0  0  0  0  0  0  0  0  0  0  0  0
   -0.5795  -15.5593    4.1858 H   0  0  0  0  0  0  0  0  0  0  0  0
   -0.5954  -16.8430    2.9282 H   0  0  0  0  0  0  0  0  0  0  0  0
    0.3010  -14.0961    2.7160 H   0  0  0  0  0  0  0  0  0  0  0  0
    0.3351  -15.4262    1.4744 H   0  0  0  0  0  0  0  0  0  0  0  0
   -0.8732  -13.5056    0.5328 H   0  0  0  0  0  0  0  0  0  0  0  0
   -2.3920  -13.6880    3.0250 H   0  0  0  0  0  0  0  0  0  0  0  0
   -3.9810  -13.3391    1.1221 H   0  0  0  0  0  0  0  0  0  0  0  0
   -3.9930  -12.1205    2.4510 H   0  0  0  0  0  0  0  0  0  0  0  0
   -2.5110  -11.8758   -0.2138 H   0  0  0  0  0  0  0  0  0  0  0  0
   -4.0276  -11.0109    0.2666 H   0  0  0  0  0  0  0  0  0  0  0  0
   -1.9668   -9.6057    0.4882 H   0  0  0  0  0  0  0  0  0  0  0  0
   -2.8700   -9.8561    2.0442 H   0  0  0  0  0  0  0  0  0  0  0  0
   -0.2603  -11.1481    1.1572 H   0  0  0  0  0  0  0  0  0  0  0  0
   -0.5521  -10.0824    2.5713 H   0  0  0  0  0  0  0  0  0  0  0  0
   -3.0105  -14.6885    0.0747 H   0  0  0  0  0  0  0  0  0  0  0  0
   -1.6278  -15.8646    0.1245 H   0  0  0  0  0  0  0  0  0  0  0  0
   -4.0452  -15.7289    1.7976 H   0  0  0  0  0  0  0  0  0  0  0  0
   -2.8781  -17.0733    1.5485 H   0  0  0  0  0  0  0  0  0  0  0  0
   -1.3493  -16.1636    5.5040 H   0  0  0  0  0  0  0  0  0  0  0  0
   -5.0950  -16.5416    7.6250 H   0  0  0  0  0  0  0  0  0  0  0  0
  1  2  2  0
  2  3  1  0
  3  4  1  0
  4  5  2  0
  5  6  1  0
  6  7  2  0
  7  8  1  0
  8  9  1  0
  9 10  1  0
  9 11  1  0
  9 12  1  0
  8 13  2  0
  2 14  1  0
 14 15  2  0
 15 16  1  0
 16 17  1  0
 17 18  1  0
 18 19  1  0
 19 20  1  0
 20 21  1  0
 21 22  1  0
 22 23  1  0
 23 24  1  0
 24 25  1  0
 25 26  1  0
 26 27  2  0
 20 28  1  0
 28 29  1  0
 16 30  2  0
 30 31  1  0
 31 32  1  0
 32 33  1  0
 32 34  1  0
 32 35  1  0
 31 36  2  0
 13  4  1  0
 36 14  1  0
 29 17  1  0
 26 21  1  0
  3 37  1  0
  5 38  1  0
  6 39  1  0
  7 40  1  0
 13 41  1  0
 15 42  1  0
 18 43  1  0
 18 44  1  0
 19 45  1  0
 19 46  1  0
 20 47  1  0
 21 48  1  0
 22 49  1  0
 22 50  1  0
 23 51  1  0
 23 52  1  0
 24 53  1  0
 24 54  1  0
 25 55  1  0
 25 56  1  0
 28 57  1  0
 28 58  1  0
 29 59  1  0
 29 60  1  0
 30 61  1  0
 36 62  1  0
M  CHG  1  21   1
M  END
>  <meeko>  (6) 
{"is_sidechain": [false], "free_energy": -8.406, "intermolecular_energy": -11.349, "internal_energy": -1.54}

$$$$
LIB_LZHONOBXZLUENO__M_PUB_ALL__e8__s20260927
     RDKit          3D

 62 65  0  0  0  0  0  0  0  0999 V2000
    7.9270  -11.0520   -2.8060 O   0  0  0  0  0  0  0  0  0  0  0  0
    7.4950  -11.8740   -2.0100 C   0  0  0  0  0  0  0  0  0  0  0  0
    8.1940  -12.5770   -1.0480 N   0  0  0  0  0  0  0  0  0  0  0  0
    9.5600  -12.4450   -0.7220 C   0  0  0  0  0  0  0  0  0  0  0  0
   10.0370  -12.2310    0.5710 C   0  0  0  0  0  0  0  0  0  0  0  0
   11.4090  -12.1130    0.8120 C   0  0  0  0  0  0  0  0  0  0  0  0
   12.3200  -12.2150   -0.2370 C   0  0  0  0  0  0  0  0  0  0  0  0
   11.8650  -12.4410   -1.5430 C   0  0  0  0  0  0  0  0  0  0  0  0
   12.8340  -12.5340   -2.6950 C   0  0  0  0  0  0  0  0  0  0  0  0
   13.2890  -13.8060   -2.8880 F   0  0  0  0  0  0  0  0  0  0  0  0
   13.9450  -11.7650   -2.5340 F   0  0  0  0  0  0  0  0  0  0  0  0
   12.2750  -12.1560   -3.8750 F   0  0  0  0  0  0  0  0  0  0  0  0
   10.4810  -12.5450   -1.7740 C   0  0  0  0  0  0  0  0  0  0  0  0
    6.0470  -12.1880   -2.0670 C   0  0  0  0  0  0  0  0  0  0  0  0
    5.4680  -13.0710   -1.1400 C   0  0  0  0  0  0  0  0  0  0  0  0
    4.0950  -13.3470   -1.1570 C   0  0  0  0  0  0  0  0  0  0  0  0
    3.4810  -14.1730   -0.2130 N   0  0  0  0  0  0  0  0  0  0  0  0
    3.4970  -15.6280   -0.4550 C   0  0  0  0  0  0  0  0  0  0  0  0
    2.2500  -16.2680    0.1690 C   0  0  0  0  0  0  0  0  0  0  0  0
    1.3780  -15.2480    0.9240 C   0  0  0  0  0  0  0  0  0  0  0  0
    0.7240  -14.2740   -0.0430 N   0  0  0  0  0  0  0  0  0  0  0  0
    0.0010  -13.0860    0.5100 C   0  0  0  0  0  0  0  0  0  0  0  0
   -1.3610  -13.5020    1.0620 C   0  0  0  0  0  0  0  0  0  0  0  0
   -2.2260  -14.1540   -0.0190 C   0  0  0  0  0  0  0  0  0  0  0  0
   -1.5200  -15.3260   -0.6920 C   0  0  0  0  0  0  0  0  0  0  0  0
   -0.1200  -14.9200   -1.0490 C   0  0  0  0  0  0  0  0  0  0  0  0
    0.4410  -15.0870   -2.1140 O   0  0  0  0  0  0  0  0  0  0  0  0
    2.2990  -14.5170    1.9120 C   0  0  0  0  0  0  0  0  0  0  0  0
    3.4220  -13.7580    1.1980 C   0  0  0  0  0  0  0  0  0  0  0  0
    3.3270  -12.7000   -2.1430 C   0  0  0  0  0  0  0  0  0  0  0  0
    3.8880  -11.8040   -3.0760 C   0  0  0  0  0  0  0  0  0  0  0  0
    2.9990  -11.1070   -4.0780 C   0  0  0  0  0  0  0  0  0  0  0  0
    3.6780  -10.7360   -5.1980 F   0  0  0  0  0  0  0  0  0  0  0  0
    2.4170   -9.9770   -3.5970 F   0  0  0  0  0  0  0  0  0  0  0  0
    1.9880  -11.9110   -4.5020 F   0  0  0  0  0  0  0  0  0  0  0  0
    5.2590  -11.5420   -3.0190 C   0  0  0  0  0  0  0  0  0  0  0  0
    7.6910  -13.2980   -0.5470 H   0  0  0  0  0  0  0  0  0  0  0  0
    9.3277  -12.1544    1.4082 H   0  0  0  0  0  0  0  0  0  0  0  0
   11.7713  -11.9386    1.8359 H   0  0  0  0  0  0  0  0  0  0  0  0
   13.3978  -12.1180   -0.0399 H   0  0  0  0  0  0  0  0  0  0  0  0
   10.1151  -12.7077   -2.7985 H   0  0  0  0  0  0  0  0  0  0  0  0
    6.1058  -13.5552   -0.3858 H   0  0  0  0  0  0  0  0  0  0  0  0
    3.5031  -15.8188   -1.5383 H   0  0  0  0  0  0  0  0  0  0  0  0
    4.3981  -16.0640    0.0011 H   0  0  0  0  0  0  0  0  0  0  0  0
    1.6482  -16.7218   -0.6321 H   0  0  0  0  0  0  0  0  0  0  0  0
    2.5892  -17.0204    0.8962 H   0  0  0  0  0  0  0  0  0  0  0  0
    0.5608  -15.7524    1.4605 H   0  0  0  0  0  0  0  0  0  0  0  0
    1.5130  -13.9290   -0.6250 H   0  0  0  0  0  0  0  0  0  0  0  0
    0.5996  -12.6414    1.3187 H   0  0  0  0  0  0  0  0  0  0  0  0
   -0.1492  -12.3524   -0.2958 H   0  0  0  0  0  0  0  0  0  0  0  0
   -1.2108  -14.2201    1.8816 H   0  0  0  0  0  0  0  0  0  0  0  0
   -1.8784  -12.6007    1.4226 H   0  0  0  0  0  0  0  0  0  0  0  0
   -3.1555  -14.5182    0.4429 H   0  0  0  0  0  0  0  0  0  0  0  0
   -2.4321  -13.3963   -0.7893 H   0  0  0  0  0  0  0  0  0  0  0  0
   -1.4901  -16.1825   -0.0025 H   0  0  0  0  0  0  0  0  0  0  0  0
   -2.0655  -15.6119   -1.6034 H   0  0  0  0  0  0  0  0  0  0  0  0
    1.6994  -13.8002    2.4923 H   0  0  0  0  0  0  0  0  0  0  0  0
    2.7616  -15.2710    2.5658 H   0  0  0  0  0  0  0  0  0  0  0  0
    3.2257  -12.6771    1.2535 H   0  0  0  0  0  0  0  0  0  0  0  0
    4.3820  -13.9842    1.6851 H   0  0  0  0  0  0  0  0  0  0  0  0
    2.2465  -12.9012   -2.1875 H   0  0  0  0  0  0  0  0  0  0  0  0
    5.7149  -10.8293   -3.7220 H   0  0  0  0  0  0  0  0  0  0  0  0
  1  2  2  0
  2  3  1  0
  3  4  1  0
  4  5  2  0
  5  6  1  0
  6  7  2  0
  7  8  1  0
  8  9  1  0
  9 10  1  0
  9 11  1  0
  9 12  1  0
  8 13  2  0
  2 14  1  0
 14 15  2  0
 15 16  1  0
 16 17  1  0
 17 18  1  0
 18 19  1  0
 19 20  1  0
 20 21  1  0
 21 22  1  0
 22 23  1  0
 23 24  1  0
 24 25  1  0
 25 26  1  0
 26 27  2  0
 20 28  1  0
 28 29  1  0
 16 30  2  0
 30 31  1  0
 31 32  1  0
 32 33  1  0
 32 34  1  0
 32 35  1  0
 31 36  2  0
 13  4  1  0
 36 14  1  0
 29 17  1  0
 26 21  1  0
  3 37  1  0
  5 38  1  0
  6 39  1  0
  7 40  1  0
 13 41  1  0
 15 42  1  0
 18 43  1  0
 18 44  1  0
 19 45  1  0
 19 46  1  0
 20 47  1  0
 21 48  1  0
 22 49  1  0
 22 50  1  0
 23 51  1  0
 23 52  1  0
 24 53  1  0
 24 54  1  0
 25 55  1  0
 25 56  1  0
 28 57  1  0
 28 58  1  0
 29 59  1  0
 29 60  1  0
 30 61  1  0
 36 62  1  0
M  CHG  1  21   1
M  END
>  <meeko>  (7) 
{"is_sidechain": [false], "free_energy": -8.384, "intermolecular_energy": -11.418, "internal_energy": -1.442}

$$$$
LIB_LZHONOBXZLUENO__M_PUB_ALL__e8__s20260927
     RDKit          3D

 62 65  0  0  0  0  0  0  0  0999 V2000
    3.7490  -11.9990    1.1210 O   0  0  0  0  0  0  0  0  0  0  0  0
    3.1050  -12.3660    0.1480 C   0  0  0  0  0  0  0  0  0  0  0  0
    1.7680  -12.7060    0.0900 N   0  0  0  0  0  0  0  0  0  0  0  0
    0.8250  -12.6330    1.1370 C   0  0  0  0  0  0  0  0  0  0  0  0
    0.5230  -13.6930    1.9910 C   0  0  0  0  0  0  0  0  0  0  0  0
   -0.4240  -13.5390    3.0080 C   0  0  0  0  0  0  0  0  0  0  0  0
   -1.0750  -12.3200    3.1850 C   0  0  0  0  0  0  0  0  0  0  0  0
   -0.7810  -11.2370    2.3460 C   0  0  0  0  0  0  0  0  0  0  0  0
   -1.4890   -9.9160    2.5100 C   0  0  0  0  0  0  0  0  0  0  0  0
   -1.6380   -9.5660    3.8200 F   0  0  0  0  0  0  0  0  0  0  0  0
   -2.7410   -9.9010    1.9780 F   0  0  0  0  0  0  0  0  0  0  0  0
   -0.8140   -8.8900    1.9260 F   0  0  0  0  0  0  0  0  0  0  0  0
    0.1660  -11.4100    1.3200 C   0  0  0  0  0  0  0  0  0  0  0  0
    3.8240  -12.4850   -1.1440 C   0  0  0  0  0  0  0  0  0  0  0  0
    4.9630  -13.2990   -1.2560 C   0  0  0  0  0  0  0  0  0  0  0  0
    5.6300  -13.4530   -2.4790 C   0  0  0  0  0  0  0  0  0  0  0  0
    6.7290  -14.3010   -2.6360 N   0  0  0  0  0  0  0  0  0  0  0  0
    6.9070  -15.3890   -1.6560 C   0  0  0  0  0  0  0  0  0  0  0  0
    8.4010  -15.7030   -1.5010 C   0  0  0  0  0  0  0  0  0  0  0  0
    9.2810  -14.8640   -2.4450 C   0  0  0  0  0  0  0  0  0  0  0  0
    9.2720  -13.4000   -2.0360 N   0  0  0  0  0  0  0  0  0  0  0  0
    9.8670  -12.3890   -2.9650 C   0  0  0  0  0  0  0  0  0  0  0  0
   11.3920  -12.4320   -2.8920 C   0  0  0  0  0  0  0  0  0  0  0  0
   11.8910  -12.1590   -1.4710 C   0  0  0  0  0  0  0  0  0  0  0  0
   11.2620  -13.0990   -0.4500 C   0  0  0  0  0  0  0  0  0  0  0  0
    9.7800  -13.1630   -0.6840 C   0  0  0  0  0  0  0  0  0  0  0  0
    8.9030  -13.0600    0.1500 O   0  0  0  0  0  0  0  0  0  0  0  0
    8.7200  -15.0500   -3.8620 C   0  0  0  0  0  0  0  0  0  0  0  0
    7.2760  -14.5510   -3.9790 C   0  0  0  0  0  0  0  0  0  0  0  0
    5.1070  -12.7550   -3.5830 C   0  0  0  0  0  0  0  0  0  0  0  0
    3.9600  -11.9410   -3.4910 C   0  0  0  0  0  0  0  0  0  0  0  0
    3.4210  -11.2570   -4.7250 C   0  0  0  0  0  0  0  0  0  0  0  0
    2.1810  -11.7060   -5.0630 F   0  0  0  0  0  0  0  0  0  0  0  0
    4.1990  -11.4280   -5.8260 F   0  0  0  0  0  0  0  0  0  0  0  0
    3.2960   -9.9140   -4.5460 F   0  0  0  0  0  0  0  0  0  0  0  0
    3.3120  -11.8230   -2.2590 C   0  0  0  0  0  0  0  0  0  0  0  0
    1.4270  -13.0920   -0.7810 H   0  0  0  0  0  0  0  0  0  0  0  0
    1.0342  -14.6586    1.8635 H   0  0  0  0  0  0  0  0  0  0  0  0
   -0.6563  -14.3847    3.6719 H   0  0  0  0  0  0  0  0  0  0  0  0
   -1.8214  -12.2075    3.9851 H   0  0  0  0  0  0  0  0  0  0  0  0
    0.3935  -10.5690    0.6485 H   0  0  0  0  0  0  0  0  0  0  0  0
    5.3389  -13.8259   -0.3666 H   0  0  0  0  0  0  0  0  0  0  0  0
    6.4957  -15.0775   -0.6845 H   0  0  0  0  0  0  0  0  0  0  0  0
    6.3795  -16.2877   -2.0082 H   0  0  0  0  0  0  0  0  0  0  0  0
    8.6993  -15.4949   -0.4629 H   0  0  0  0  0  0  0  0  0  0  0  0
    8.5485  -16.7619   -1.7598 H   0  0  0  0  0  0  0  0  0  0  0  0
   10.3293  -15.1941   -2.3999 H   0  0  0  0  0  0  0  0  0  0  0  0
    8.2640  -13.1770   -1.9200 H   0  0  0  0  0  0  0  0  0  0  0  0
    9.5470  -12.6096   -3.9940 H   0  0  0  0  0  0  0  0  0  0  0  0
    9.5236  -11.3867   -2.6692 H   0  0  0  0  0  0  0  0  0  0  0  0
   11.7375  -13.4275   -3.2076 H   0  0  0  0  0  0  0  0  0  0  0  0
   11.7925  -11.6514   -3.5555 H   0  0  0  0  0  0  0  0  0  0  0  0
   12.9829  -12.2899   -1.4476 H   0  0  0  0  0  0  0  0  0  0  0  0
   11.6055  -11.1307   -1.2044 H   0  0  0  0  0  0  0  0  0  0  0  0
   11.6954  -14.1041   -0.5595 H   0  0  0  0  0  0  0  0  0  0  0  0
   11.4597  -12.7264    0.5659 H   0  0  0  0  0  0  0  0  0  0  0  0
    9.3481  -14.4881   -4.5690 H   0  0  0  0  0  0  0  0  0  0  0  0
    8.7268  -16.1259   -4.0911 H   0  0  0  0  0  0  0  0  0  0  0  0
    7.2573  -13.6179   -4.5613 H   0  0  0  0  0  0  0  0  0  0  0  0
    6.6662  -15.3137   -4.4853 H   0  0  0  0  0  0  0  0  0  0  0  0
    5.6127  -12.8481   -4.5554 H   0  0  0  0  0  0  0  0  0  0  0  0
    2.4025  -11.2109   -2.1692 H   0  0  0  0  0  0  0  0  0  0  0  0
  1  2  2  0
  2  3  1  0
  3  4  1  0
  4  5  2  0
  5  6  1  0
  6  7  2  0
  7  8  1  0
  8  9  1  0
  9 10  1  0
  9 11  1  0
  9 12  1  0
  8 13  2  0
  2 14  1  0
 14 15  2  0
 15 16  1  0
 16 17  1  0
 17 18  1  0
 18 19  1  0
 19 20  1  0
 20 21  1  0
 21 22  1  0
 22 23  1  0
 23 24  1  0
 24 25  1  0
 25 26  1  0
 26 27  2  0
 20 28  1  0
 28 29  1  0
 16 30  2  0
 30 31  1  0
 31 32  1  0
 32 33  1  0
 32 34  1  0
 32 35  1  0
 31 36  2  0
 13  4  1  0
 36 14  1  0
 29 17  1  0
 26 21  1  0
  3 37  1  0
  5 38  1  0
  6 39  1  0
  7 40  1  0
 13 41  1  0
 15 42  1  0
 18 43  1  0
 18 44  1  0
 19 45  1  0
 19 46  1  0
 20 47  1  0
 21 48  1  0
 22 49  1  0
 22 50  1  0
 23 51  1  0
 23 52  1  0
 24 53  1  0
 24 54  1  0
 25 55  1  0
 25 56  1  0
 28 57  1  0
 28 58  1  0
 29 59  1  0
 29 60  1  0
 30 61  1  0
 36 62  1  0
M  CHG  1  21   1
M  END
>  <meeko>  (8) 
{"is_sidechain": [false], "free_energy": -8.341, "intermolecular_energy": -11.235, "internal_energy": -1.567}

$$$$
LIB_LZHONOBXZLUENO__M_PUB_ALL__e8__s20260927
     RDKit          3D

 62 65  0  0  0  0  0  0  0  0999 V2000
    4.4940  -13.2080   -0.1710 O   0  0  0  0  0  0  0  0  0  0  0  0
    3.5110  -13.8310   -0.5480 C   0  0  0  0  0  0  0  0  0  0  0  0
    2.6880  -13.5560   -1.6220 N   0  0  0  0  0  0  0  0  0  0  0  0
    2.8470  -12.5270   -2.5740 C   0  0  0  0  0  0  0  0  0  0  0  0
    2.3160  -11.2450   -2.4340 C   0  0  0  0  0  0  0  0  0  0  0  0
    2.5210  -10.2790   -3.4240 C   0  0  0  0  0  0  0  0  0  0  0  0
    3.2640  -10.5830   -4.5620 C   0  0  0  0  0  0  0  0  0  0  0  0
    3.8170  -11.8610   -4.7200 C   0  0  0  0  0  0  0  0  0  0  0  0
    4.6080  -12.2150   -5.9530 C   0  0  0  0  0  0  0  0  0  0  0  0
    5.9520  -12.2400   -5.7180 F   0  0  0  0  0  0  0  0  0  0  0  0
    4.4290  -11.3440   -6.9830 F   0  0  0  0  0  0  0  0  0  0  0  0
    4.2930  -13.4470   -6.4360 F   0  0  0  0  0  0  0  0  0  0  0  0
    3.5930  -12.8270   -3.7220 C   0  0  0  0  0  0  0  0  0  0  0  0
    3.1180  -15.0280    0.2350 C   0  0  0  0  0  0  0  0  0  0  0  0
    1.8300  -15.1320    0.7850 C   0  0  0  0  0  0  0  0  0  0  0  0
    1.4310  -16.2740    1.4930 C   0  0  0  0  0  0  0  0  0  0  0  0
    0.1400  -16.4320    2.0010 N   0  0  0  0  0  0  0  0  0  0  0  0
   -0.7180  -17.4680    1.3960 C   0  0  0  0  0  0  0  0  0  0  0  0
   -2.1890  -17.0430    1.4980 C   0  0  0  0  0  0  0  0  0  0  0  0
   -2.3680  -15.7130    2.2530 C   0  0  0  0  0  0  0  0  0  0  0  0
   -1.8090  -14.5520    1.4460 N   0  0  0  0  0  0  0  0  0  0  0  0
   -1.5560  -13.2500    2.1380 C   0  0  0  0  0  0  0  0  0  0  0  0
   -2.8680  -12.5020    2.3630 C   0  0  0  0  0  0  0  0  0  0  0  0
   -3.5910  -12.2330    1.0410 C   0  0  0  0  0  0  0  0  0  0  0  0
   -3.8110  -13.5070    0.2350 C   0  0  0  0  0  0  0  0  0  0  0  0
   -2.5340  -14.2970    0.2010 C   0  0  0  0  0  0  0  0  0  0  0  0
   -2.0090  -14.7970   -0.7740 O   0  0  0  0  0  0  0  0  0  0  0  0
   -1.6380  -15.8600    3.5960 C   0  0  0  0  0  0  0  0  0  0  0  0
   -0.1380  -16.1120    3.4110 C   0  0  0  0  0  0  0  0  0  0  0  0
    2.3790  -17.3050    1.6250 C   0  0  0  0  0  0  0  0  0  0  0  0
    3.6730  -17.2230    1.0710 C   0  0  0  0  0  0  0  0  0  0  0  0
    4.6260  -18.3860    1.2080 C   0  0  0  0  0  0  0  0  0  0  0  0
    4.4740  -19.0400    2.3920 F   0  0  0  0  0  0  0  0  0  0  0  0
    5.9350  -18.0300    1.1380 F   0  0  0  0  0  0  0  0  0  0  0  0
    4.4270  -19.3190    0.2380 F   0  0  0  0  0  0  0  0  0  0  0  0
    4.0300  -16.0760    0.3590 C   0  0  0  0  0  0  0  0  0  0  0  0
    1.8540  -14.1210   -1.7210 H   0  0  0  0  0  0  0  0  0  0  0  0
    1.7311  -10.9917   -1.5375 H   0  0  0  0  0  0  0  0  0  0  0  0
    2.0929   -9.2730   -3.3032 H   0  0  0  0  0  0  0  0  0  0  0  0
    3.4171   -9.8187   -5.3382 H   0  0  0  0  0  0  0  0  0  0  0  0
    4.0113  -13.8369   -3.8450 H   0  0  0  0  0  0  0  0  0  0  0  0
    1.1205  -14.3011    0.6577 H   0  0  0  0  0  0  0  0  0  0  0  0
   -0.4465  -17.5959    0.3377 H   0  0  0  0  0  0  0  0  0  0  0  0
   -0.5747  -18.4186    1.9306 H   0  0  0  0  0  0  0  0  0  0  0  0
   -2.5944  -16.9290    0.4818 H   0  0  0  0  0  0  0  0  0  0  0  0
   -2.7234  -17.8218    2.0619 H   0  0  0  0  0  0  0  0  0  0  0  0
   -3.4339  -15.4954    2.4158 H   0  0  0  0  0  0  0  0  0  0  0  0
   -0.9010  -14.9080    1.0880 H   0  0  0  0  0  0  0  0  0  0  0  0
   -1.0778  -13.4431    3.1096 H   0  0  0  0  0  0  0  0  0  0  0  0
   -0.8978  -12.6336    1.5081 H   0  0  0  0  0  0  0  0  0  0  0  0
   -3.5191  -13.1080    3.0102 H   0  0  0  0  0  0  0  0  0  0  0  0
   -2.6389  -11.5354    2.8354 H   0  0  0  0  0  0  0  0  0  0  0  0
   -4.5687  -11.7781    1.2583 H   0  0  0  0  0  0  0  0  0  0  0  0
   -2.9600  -11.5597    0.4423 H   0  0  0  0  0  0  0  0  0  0  0  0
   -4.6029  -14.1080    0.7058 H   0  0  0  0  0  0  0  0  0  0  0  0
   -4.1125  -13.2478   -0.7906 H   0  0  0  0  0  0  0  0  0  0  0  0
   -1.7736  -14.9356    4.1767 H   0  0  0  0  0  0  0  0  0  0  0  0
   -2.0653  -16.7269    4.1212 H   0  0  0  0  0  0  0  0  0  0  0  0
    0.4227  -15.2105    3.6990 H   0  0  0  0  0  0  0  0  0  0  0  0
    0.1709  -16.9565    4.0445 H   0  0  0  0  0  0  0  0  0  0  0  0
    2.0996  -18.2111    2.1826 H   0  0  0  0  0  0  0  0  0  0  0  0
    5.0258  -15.9993   -0.1019 H   0  0  0  0  0  0  0  0  0  0  0  0
  1  2  2  0
  2  3  1  0
  3  4  1  0
  4  5  2  0
  5  6  1  0
  6  7  2  0
  7  8  1  0
  8  9  1  0
  9 10  1  0
  9 11  1  0
  9 12  1  0
  8 13  2  0
  2 14  1  0
 14 15  2  0
 15 16  1  0
 16 17  1  0
 17 18  1  0
 18 19  1  0
 19 20  1  0
 20 21  1  0
 21 22  1  0
 22 23  1  0
 23 24  1  0
 24 25  1  0
 25 26  1  0
 26 27  2  0
 20 28  1  0
 28 29  1  0
 16 30  2  0
 30 31  1  0
 31 32  1  0
 32 33  1  0
 32 34  1  0
 32 35  1  0
 31 36  2  0
 13  4  1  0
 36 14  1  0
 29 17  1  0
 26 21  1  0
  3 37  1  0
  5 38  1  0
  6 39  1  0
  7 40  1  0
 13 41  1  0
 15 42  1  0
 18 43  1  0
 18 44  1  0
 19 45  1  0
 19 46  1  0
 20 47  1  0
 21 48  1  0
 22 49  1  0
 22 50  1  0
 23 51  1  0
 23 52  1  0
 24 53  1  0
 24 54  1  0
 25 55  1  0
 25 56  1  0
 28 57  1  0
 28 58  1  0
 29 59  1  0
 29 60  1  0
 30 61  1  0
 36 62  1  0
M  CHG  1  21   1
M  END
>  <meeko>  (9) 
{"is_sidechain": [false], "free_energy": -8.307, "intermolecular_energy": -11.081, "internal_energy": -1.675}

$$$$
