LIB_TZXMBOAOKBVBBT__M_PUB_ALL__e8__s20260927
     RDKit          3D

 69 74  0  0  0  0  0  0  0  0999 V2000
    0.5940   -9.6070   -1.0350 C   0  0  0  0  0  0  0  0  0  0  0  0
    0.3100   -9.5660    0.3590 O   0  0  0  0  0  0  0  0  0  0  0  0
   -0.3310  -10.6480    0.8900 C   0  0  0  0  0  0  0  0  0  0  0  0
   -1.2780  -10.3530    1.8630 C   0  0  0  0  0  0  0  0  0  0  0  0
   -1.9950  -11.3800    2.4800 C   0  0  0  0  0  0  0  0  0  0  0  0
   -1.7980  -12.7120    2.1490 C   0  0  0  0  0  0  0  0  0  0  0  0
   -2.5170  -13.6350    2.8030 N   0  0  0  0  0  0  0  0  0  0  0  0
   -2.3490  -14.9330    2.5200 C   0  0  0  0  0  0  0  0  0  0  0  0
   -3.1100  -15.8540    3.2240 C   0  0  0  0  0  0  0  0  0  0  0  0
   -3.0030  -17.2200    2.9790 C   0  0  0  0  0  0  0  0  0  0  0  0
   -3.9670  -18.3300    3.8730 Cl  0  0  0  0  0  0  0  0  0  0  0  0
   -2.1290  -17.6920    2.0110 C   0  0  0  0  0  0  0  0  0  0  0  0
   -1.3550  -16.7820    1.2940 C   0  0  0  0  0  0  0  0  0  0  0  0
   -1.4460  -15.3890    1.5430 C   0  0  0  0  0  0  0  0  0  0  0  0
   -0.6890  -14.4110    0.8460 C   0  0  0  0  0  0  0  0  0  0  0  0
    0.2380  -14.8290   -0.1450 N   0  0  0  0  0  0  0  0  0  0  0  0
    1.5970  -14.5060   -0.2870 C   0  0  0  0  0  0  0  0  0  0  0  0
    2.0660  -14.0410   -1.5180 C   0  0  0  0  0  0  0  0  0  0  0  0
    3.4240  -13.7510   -1.7150 C   0  0  0  0  0  0  0  0  0  0  0  0
    4.3570  -13.9210   -0.6910 C   0  0  0  0  0  0  0  0  0  0  0  0
    5.7240  -13.6560   -0.8230 N   0  0  0  0  0  0  0  0  0  0  0  0
    6.6090  -12.7750   -0.2020 C   0  0  0  0  0  0  0  0  0  0  0  0
    6.1870  -11.6690    0.3940 N   0  0  0  0  0  0  0  0  0  0  0  0
    7.1190  -10.9120    0.9460 C   0  0  0  0  0  0  0  0  0  0  0  0
    6.6750   -9.7780    1.5680 N   0  0  0  0  0  0  0  0  0  0  0  0
    7.2010   -8.4600    1.2720 C   0  0  0  0  0  0  0  0  0  0  0  0
    7.1000   -7.5340    2.4880 C   0  0  0  0  0  0  0  0  0  0  0  0
    8.1830   -6.6020    2.4880 O   0  0  0  0  0  0  0  0  0  0  0  0
    8.4100  -11.1970    0.9320 N   0  0  0  0  0  0  0  0  0  0  0  0
    8.7580  -12.3170    0.3170 C   0  0  0  0  0  0  0  0  0  0  0  0
   10.0860  -12.7320    0.2420 N   0  0  0  0  0  0  0  0  0  0  0  0
   11.1920  -12.3330   -0.5190 C   0  0  0  0  0  0  0  0  0  0  0  0
   11.3940  -12.6960   -1.8540 C   0  0  0  0  0  0  0  0  0  0  0  0
   12.5150  -12.2540   -2.5650 C   0  0  0  0  0  0  0  0  0  0  0  0
   13.4570  -11.4350   -1.9490 C   0  0  0  0  0  0  0  0  0  0  0  0
   13.2770  -11.0590   -0.6230 C   0  0  0  0  0  0  0  0  0  0  0  0
   12.1550  -11.5050    0.0820 C   0  0  0  0  0  0  0  0  0  0  0  0
    7.8850  -13.1350   -0.2610 N   0  0  0  0  0  0  0  0  0  0  0  0
    3.8830  -14.3990    0.5390 C   0  0  0  0  0  0  0  0  0  0  0  0
    2.5270  -14.6900    0.7370 C   0  0  0  0  0  0  0  0  0  0  0  0
   -0.8540  -13.0340    1.1580 C   0  0  0  0  0  0  0  0  0  0  0  0
   -0.1150  -11.9820    0.5510 C   0  0  0  0  0  0  0  0  0  0  0  0
    1.6725   -9.7627   -1.1850 H   0  0  0  0  0  0  0  0  0  0  0  0
    0.0361  -10.4339   -1.4987 H   0  0  0  0  0  0  0  0  0  0  0  0
    0.2928   -8.6561   -1.4987 H   0  0  0  0  0  0  0  0  0  0  0  0
   -1.4635   -9.3069    2.1482 H   0  0  0  0  0  0  0  0  0  0  0  0
   -2.7374  -11.1251    3.2507 H   0  0  0  0  0  0  0  0  0  0  0  0
   -3.8126  -15.4978    3.9918 H   0  0  0  0  0  0  0  0  0  0  0  0
   -2.0480  -18.7708    1.8119 H   0  0  0  0  0  0  0  0  0  0  0  0
   -0.6624  -17.1499    0.5226 H   0  0  0  0  0  0  0  0  0  0  0  0
   -0.1820  -15.3280   -0.9210 H   0  0  0  0  0  0  0  0  0  0  0  0
    1.3576  -13.8998   -2.3476 H   0  0  0  0  0  0  0  0  0  0  0  0
    3.7602  -13.3825   -2.6954 H   0  0  0  0  0  0  0  0  0  0  0  0
    6.2280  -14.2080   -1.5030 H   0  0  0  0  0  0  0  0  0  0  0  0
    5.8910   -9.8980    2.1900 H   0  0  0  0  0  0  0  0  0  0  0  0
    8.2573   -8.5532    0.9795 H   0  0  0  0  0  0  0  0  0  0  0  0
    6.6074   -8.0251    0.4544 H   0  0  0  0  0  0  0  0  0  0  0  0
    6.1477   -6.9849    2.4488 H   0  0  0  0  0  0  0  0  0  0  0  0
    7.1463   -8.1390    3.4055 H   0  0  0  0  0  0  0  0  0  0  0  0
    8.0550   -6.0670    1.6820 H   0  0  0  0  0  0  0  0  0  0  0  0
   10.2360  -13.4920    0.8890 H   0  0  0  0  0  0  0  0  0  0  0  0
   10.6575  -13.3415   -2.3549 H   0  0  0  0  0  0  0  0  0  0  0  0
   12.6524  -12.5547   -3.6142 H   0  0  0  0  0  0  0  0  0  0  0  0
   14.3383  -11.0875   -2.5081 H   0  0  0  0  0  0  0  0  0  0  0  0
   14.0163  -10.4114   -0.1290 H   0  0  0  0  0  0  0  0  0  0  0  0
   12.0232  -11.2008    1.1309 H   0  0  0  0  0  0  0  0  0  0  0  0
    4.5916  -14.5488    1.3669 H   0  0  0  0  0  0  0  0  0  0  0  0
    2.1906  -15.0689    1.7134 H   0  0  0  0  0  0  0  0  0  0  0  0
    0.6458  -12.2272   -0.2047 H   0  0  0  0  0  0  0  0  0  0  0  0
  1  2  1  0
  2  3  1  0
  3  4  2  0
  4  5  1  0
  5  6  2  0
  6  7  1  0
  7  8  2  0
  8  9  1  0
  9 10  2  0
 10 11  1  0
 10 12  1  0
 12 13  2  0
 13 14  1  0
 14 15  2  0
 15 16  1  0
 16 17  1  0
 17 18  2  0
 18 19  1  0
 19 20  2  0
 20 21  1  0
 21 22  1  0
 22 23  2  0
 23 24  1  0
 24 25  1  0
 25 26  1  0
 26 27  1  0
 27 28  1  0
 24 29  2  0
 29 30  1  0
 30 31  1  0
 31 32  1  0
 32 33  2  0
 33 34  1  0
 34 35  2  0
 35 36  1  0
 36 37  2  0
 30 38  2  0
 20 39  1  0
 39 40  2  0
 15 41  1  0
 41 42  2  0
 42  3  1  0
 41  6  1  0
 14  8  1  0
 40 17  1  0
 38 22  1  0
 37 32  1  0
  1 43  1  0
  1 44  1  0
  1 45  1  0
  4 46  1  0
  5 47  1  0
  9 48  1  0
 12 49  1  0
 13 50  1  0
 16 51  1  0
 18 52  1  0
 19 53  1  0
 21 54  1  0
 25 55  1  0
 26 56  1  0
 26 57  1  0
 27 58  1  0
 27 59  1  0
 28 60  1  0
 31 61  1  0
 33 62  1  0
 34 63  1  0
 35 64  1  0
 36 65  1  0
 37 66  1  0
 39 67  1  0
 40 68  1  0
 42 69  1  0
M  END
>  <meeko>  (1) 
{"is_sidechain": [false], "free_energy": -8.974, "intermolecular_energy": -14.482, "internal_energy": -1.324}

$$$$
LIB_TZXMBOAOKBVBBT__M_PUB_ALL__e8__s20260927
     RDKit          3D

 69 74  0  0  0  0  0  0  0  0999 V2000
  -13.8080   -7.8970   -1.2830 C   0  0  0  0  0  0  0  0  0  0  0  0
  -14.7720   -6.8750   -1.5010 O   0  0  0  0  0  0  0  0  0  0  0  0
  -14.8100   -6.3180   -2.7480 C   0  0  0  0  0  0  0  0  0  0  0  0
  -14.6590   -4.9380   -2.7810 C   0  0  0  0  0  0  0  0  0  0  0  0
  -14.6840   -4.2580   -4.0010 C   0  0  0  0  0  0  0  0  0  0  0  0
  -14.8540   -4.9220   -5.2070 C   0  0  0  0  0  0  0  0  0  0  0  0
  -14.8830   -4.1900   -6.3280 N   0  0  0  0  0  0  0  0  0  0  0  0
  -15.0550   -4.7920   -7.5120 C   0  0  0  0  0  0  0  0  0  0  0  0
  -15.0840   -3.9960   -8.6470 C   0  0  0  0  0  0  0  0  0  0  0  0
  -15.2450   -4.5470   -9.9150 C   0  0  0  0  0  0  0  0  0  0  0  0
  -15.2740   -3.5240  -11.2980 Cl  0  0  0  0  0  0  0  0  0  0  0  0
  -15.3760   -5.9190  -10.0710 C   0  0  0  0  0  0  0  0  0  0  0  0
  -15.3510   -6.7360   -8.9420 C   0  0  0  0  0  0  0  0  0  0  0  0
  -15.1990   -6.1850   -7.6450 C   0  0  0  0  0  0  0  0  0  0  0  0
  -15.1620   -6.9610   -6.4560 C   0  0  0  0  0  0  0  0  0  0  0  0
  -15.3090   -8.3700   -6.5450 N   0  0  0  0  0  0  0  0  0  0  0  0
  -14.5270   -9.3050   -7.2410 C   0  0  0  0  0  0  0  0  0  0  0  0
  -15.1550  -10.3130   -7.9770 C   0  0  0  0  0  0  0  0  0  0  0  0
  -14.4100  -11.2930   -8.6500 C   0  0  0  0  0  0  0  0  0  0  0  0
  -13.0150  -11.3020   -8.6030 C   0  0  0  0  0  0  0  0  0  0  0  0
  -12.2150  -12.2520   -9.2460 N   0  0  0  0  0  0  0  0  0  0  0  0
  -11.6400  -13.4620   -8.8580 C   0  0  0  0  0  0  0  0  0  0  0  0
  -10.3270  -13.6280   -8.8120 N   0  0  0  0  0  0  0  0  0  0  0  0
   -9.9010  -14.8190   -8.4320 C   0  0  0  0  0  0  0  0  0  0  0  0
   -8.5440  -14.9780   -8.3780 N   0  0  0  0  0  0  0  0  0  0  0  0
   -7.8940  -16.2630   -8.5480 C   0  0  0  0  0  0  0  0  0  0  0  0
   -7.5510  -16.8960   -7.1960 C   0  0  0  0  0  0  0  0  0  0  0  0
   -7.5750  -15.9040   -6.1680 O   0  0  0  0  0  0  0  0  0  0  0  0
  -10.6990  -15.8220   -8.1040 N   0  0  0  0  0  0  0  0  0  0  0  0
  -12.0000  -15.5850   -8.1750 C   0  0  0  0  0  0  0  0  0  0  0  0
  -12.9420  -16.5570   -7.8470 N   0  0  0  0  0  0  0  0  0  0  0  0
  -13.8200  -16.7410   -6.7710 C   0  0  0  0  0  0  0  0  0  0  0  0
  -15.2120  -16.8000   -6.8990 C   0  0  0  0  0  0  0  0  0  0  0  0
  -16.0350  -17.0000   -5.7850 C   0  0  0  0  0  0  0  0  0  0  0  0
  -15.4760  -17.1480   -4.5180 C   0  0  0  0  0  0  0  0  0  0  0  0
  -14.0960  -17.0940   -4.3670 C   0  0  0  0  0  0  0  0  0  0  0  0
  -13.2790  -16.8940   -5.4840 C   0  0  0  0  0  0  0  0  0  0  0  0
  -12.5110  -14.4150   -8.5450 N   0  0  0  0  0  0  0  0  0  0  0  0
  -12.3900  -10.2950   -7.8550 C   0  0  0  0  0  0  0  0  0  0  0  0
  -13.1320   -9.3150   -7.1810 C   0  0  0  0  0  0  0  0  0  0  0  0
  -14.9970   -6.3210   -5.1980 C   0  0  0  0  0  0  0  0  0  0  0  0
  -14.9890   -7.0010   -3.9490 C   0  0  0  0  0  0  0  0  0  0  0  0
  -13.6685   -8.0449   -0.2020 H   0  0  0  0  0  0  0  0  0  0  0  0
  -14.1582   -8.8347   -1.7392 H   0  0  0  0  0  0  0  0  0  0  0  0
  -12.8515   -7.6021   -1.7392 H   0  0  0  0  0  0  0  0  0  0  0  0
  -14.5193   -4.3789   -1.8441 H   0  0  0  0  0  0  0  0  0  0  0  0
  -14.5655   -3.1644   -4.0055 H   0  0  0  0  0  0  0  0  0  0  0  0
  -14.9775   -2.9061   -8.5431 H   0  0  0  0  0  0  0  0  0  0  0  0
  -15.4980   -6.3567  -11.0728 H   0  0  0  0  0  0  0  0  0  0  0  0
  -15.4508   -7.8252   -9.0594 H   0  0  0  0  0  0  0  0  0  0  0  0
  -16.1730   -8.7230   -6.1500 H   0  0  0  0  0  0  0  0  0  0  0  0
  -16.2534  -10.3387   -8.0297 H   0  0  0  0  0  0  0  0  0  0  0  0
  -14.9353  -12.0692   -9.2258 H   0  0  0  0  0  0  0  0  0  0  0  0
  -11.9810  -12.0680  -10.2110 H   0  0  0  0  0  0  0  0  0  0  0  0
   -8.0060  -14.1290   -8.2980 H   0  0  0  0  0  0  0  0  0  0  0  0
   -8.5685  -16.9358   -9.0979 H   0  0  0  0  0  0  0  0  0  0  0  0
   -6.9589  -16.1081   -9.1062 H   0  0  0  0  0  0  0  0  0  0  0  0
   -8.2882  -17.6786   -6.9634 H   0  0  0  0  0  0  0  0  0  0  0  0
   -6.5434  -17.3341   -7.2494 H   0  0  0  0  0  0  0  0  0  0  0  0
   -8.4210  -16.0440   -5.7020 H   0  0  0  0  0  0  0  0  0  0  0  0
  -12.9560  -17.2660   -8.5650 H   0  0  0  0  0  0  0  0  0  0  0  0
  -15.6679  -16.6871   -7.8937 H   0  0  0  0  0  0  0  0  0  0  0  0
  -17.1271  -17.0405   -5.9105 H   0  0  0  0  0  0  0  0  0  0  0  0
  -16.1229  -17.3066   -3.6426 H   0  0  0  0  0  0  0  0  0  0  0  0
  -13.6465  -17.2085   -3.3696 H   0  0  0  0  0  0  0  0  0  0  0  0
  -12.1877  -16.8556   -5.3517 H   0  0  0  0  0  0  0  0  0  0  0  0
  -11.2918  -10.2731   -7.7954 H   0  0  0  0  0  0  0  0  0  0  0  0
  -12.6083   -8.5437   -6.5971 H   0  0  0  0  0  0  0  0  0  0  0  0
  -15.1274   -8.0921   -3.9308 H   0  0  0  0  0  0  0  0  0  0  0  0
  1  2  1  0
  2  3  1  0
  3  4  2  0
  4  5  1  0
  5  6  2  0
  6  7  1  0
  7  8  2  0
  8  9  1  0
  9 10  2  0
 10 11  1  0
 10 12  1  0
 12 13  2  0
 13 14  1  0
 14 15  2  0
 15 16  1  0
 16 17  1  0
 17 18  2  0
 18 19  1  0
 19 20  2  0
 20 21  1  0
 21 22  1  0
 22 23  2  0
 23 24  1  0
 24 25  1  0
 25 26  1  0
 26 27  1  0
 27 28  1  0
 24 29  2  0
 29 30  1  0
 30 31  1  0
 31 32  1  0
 32 33  2  0
 33 34  1  0
 34 35  2  0
 35 36  1  0
 36 37  2  0
 30 38  2  0
 20 39  1  0
 39 40  2  0
 15 41  1  0
 41 42  2  0
 42  3  1  0
 41  6  1  0
 14  8  1  0
 40 17  1  0
 38 22  1  0
 37 32  1  0
  1 43  1  0
  1 44  1  0
  1 45  1  0
  4 46  1  0
  5 47  1  0
  9 48  1  0
 12 49  1  0
 13 50  1  0
 16 51  1  0
 18 52  1  0
 19 53  1  0
 21 54  1  0
 25 55  1  0
 26 56  1  0
 26 57  1  0
 27 58  1  0
 27 59  1  0
 28 60  1  0
 31 61  1  0
 33 62  1  0
 34 63  1  0
 35 64  1  0
 36 65  1  0
 37 66  1  0
 39 67  1  0
 40 68  1  0
 42 69  1  0
M  END
>  <meeko>  (2) 
{"is_sidechain": [false], "free_energy": -8.953, "intermolecular_energy": -14.386, "internal_energy": -1.387}

$$$$
LIB_TZXMBOAOKBVBBT__M_PUB_ALL__e8__s20260927
     RDKit          3D

 69 74  0  0  0  0  0  0  0  0999 V2000
   -1.5790  -19.1840    5.2740 C   0  0  0  0  0  0  0  0  0  0  0  0
   -1.9670  -18.9240    3.9310 O   0  0  0  0  0  0  0  0  0  0  0  0
   -2.2010  -17.6200    3.5970 C   0  0  0  0  0  0  0  0  0  0  0  0
   -3.3360  -17.0600    4.1690 C   0  0  0  0  0  0  0  0  0  0  0  0
   -3.6780  -15.7340    3.8970 C   0  0  0  0  0  0  0  0  0  0  0  0
   -2.9090  -14.9340    3.0650 C   0  0  0  0  0  0  0  0  0  0  0  0
   -3.3190  -13.6780    2.8450 N   0  0  0  0  0  0  0  0  0  0  0  0
   -2.6090  -12.8780    2.0400 C   0  0  0  0  0  0  0  0  0  0  0  0
   -3.0730  -11.5860    1.8370 C   0  0  0  0  0  0  0  0  0  0  0  0
   -2.3850  -10.6890    1.0240 C   0  0  0  0  0  0  0  0  0  0  0  0
   -2.9930   -9.0960    0.7990 Cl  0  0  0  0  0  0  0  0  0  0  0  0
   -1.2070  -11.0710    0.4000 C   0  0  0  0  0  0  0  0  0  0  0  0
   -0.7260  -12.3650    0.5910 C   0  0  0  0  0  0  0  0  0  0  0  0
   -1.4240  -13.2910    1.4060 C   0  0  0  0  0  0  0  0  0  0  0  0
   -0.9860  -14.6210    1.6440 C   0  0  0  0  0  0  0  0  0  0  0  0
    0.2030  -15.0800    1.0190 N   0  0  0  0  0  0  0  0  0  0  0  0
    1.5400  -14.7640    1.3080 C   0  0  0  0  0  0  0  0  0  0  0  0
    1.9800  -14.7880    2.6330 C   0  0  0  0  0  0  0  0  0  0  0  0
    3.2960  -14.4350    2.9680 C   0  0  0  0  0  0  0  0  0  0  0  0
    4.2120  -14.0400    1.9910 C   0  0  0  0  0  0  0  0  0  0  0  0
    5.5340  -13.6710    2.2580 N   0  0  0  0  0  0  0  0  0  0  0  0
    6.4200  -12.7530    1.6960 C   0  0  0  0  0  0  0  0  0  0  0  0
    6.1250  -11.4640    1.6050 N   0  0  0  0  0  0  0  0  0  0  0  0
    7.0440  -10.6930    1.0520 C   0  0  0  0  0  0  0  0  0  0  0  0
    6.7350   -9.3630    0.9720 N   0  0  0  0  0  0  0  0  0  0  0  0
    6.8730   -8.4530    2.0920 C   0  0  0  0  0  0  0  0  0  0  0  0
    7.0150   -7.0040    1.6180 C   0  0  0  0  0  0  0  0  0  0  0  0
    8.2260   -6.8450    0.8760 O   0  0  0  0  0  0  0  0  0  0  0  0
    8.2050  -11.1310    0.5980 N   0  0  0  0  0  0  0  0  0  0  0  0
    8.4310  -12.4300    0.7200 C   0  0  0  0  0  0  0  0  0  0  0  0
    9.6210  -13.0130    0.2890 N   0  0  0  0  0  0  0  0  0  0  0  0
   10.7590  -12.5340   -0.3710 C   0  0  0  0  0  0  0  0  0  0  0  0
   10.9840  -12.6750   -1.7440 C   0  0  0  0  0  0  0  0  0  0  0  0
   12.1380  -12.1620   -2.3480 C   0  0  0  0  0  0  0  0  0  0  0  0
   13.0890  -11.4920   -1.5830 C   0  0  0  0  0  0  0  0  0  0  0  0
   12.8870  -11.3380   -0.2170 C   0  0  0  0  0  0  0  0  0  0  0  0
   11.7330  -11.8540    0.3800 C   0  0  0  0  0  0  0  0  0  0  0  0
    7.5630  -13.2750    1.2660 N   0  0  0  0  0  0  0  0  0  0  0  0
    3.7610  -14.0070    0.6630 C   0  0  0  0  0  0  0  0  0  0  0  0
    2.4470  -14.3590    0.3270 C   0  0  0  0  0  0  0  0  0  0  0  0
   -1.7480  -15.4760    2.4850 C   0  0  0  0  0  0  0  0  0  0  0  0
   -1.4200  -16.8340    2.7520 C   0  0  0  0  0  0  0  0  0  0  0  0
   -2.2927  -18.7058    5.9610 H   0  0  0  0  0  0  0  0  0  0  0  0
   -1.5721  -20.2698    5.4500 H   0  0  0  0  0  0  0  0  0  0  0  0
   -0.5721  -18.7776    5.4500 H   0  0  0  0  0  0  0  0  0  0  0  0
   -3.9673  -17.6630    4.8383 H   0  0  0  0  0  0  0  0  0  0  0  0
   -4.5839  -15.3114    4.3560 H   0  0  0  0  0  0  0  0  0  0  0  0
   -4.0030  -11.2640    2.3282 H   0  0  0  0  0  0  0  0  0  0  0  0
   -0.6591  -10.3616   -0.2377 H   0  0  0  0  0  0  0  0  0  0  0  0
    0.2099  -12.6725    0.1016 H   0  0  0  0  0  0  0  0  0  0  0  0
    0.0470  -15.6100    0.1690 H   0  0  0  0  0  0  0  0  0  0  0  0
    1.2824  -15.0891    3.4284 H   0  0  0  0  0  0  0  0  0  0  0  0
    3.6123  -14.4701    4.0210 H   0  0  0  0  0  0  0  0  0  0  0  0
    5.9880  -14.1420    3.0270 H   0  0  0  0  0  0  0  0  0  0  0  0
    6.4830   -9.0260    0.0560 H   0  0  0  0  0  0  0  0  0  0  0  0
    5.9821   -8.5349    2.7320 H   0  0  0  0  0  0  0  0  0  0  0  0
    7.7804   -8.7257    2.6509 H   0  0  0  0  0  0  0  0  0  0  0  0
    6.1593   -6.7457    0.9769 H   0  0  0  0  0  0  0  0  0  0  0  0
    7.0408   -6.3400    2.4946 H   0  0  0  0  0  0  0  0  0  0  0  0
    8.8970   -7.3450    1.3790 H   0  0  0  0  0  0  0  0  0  0  0  0
    9.6140  -13.9960    0.5170 H   0  0  0  0  0  0  0  0  0  0  0  0
   10.2397  -13.1992   -2.3614 H   0  0  0  0  0  0  0  0  0  0  0  0
   12.2938  -12.2885   -3.4295 H   0  0  0  0  0  0  0  0  0  0  0  0
   13.9950  -11.0869   -2.0573 H   0  0  0  0  0  0  0  0  0  0  0  0
   13.6343  -10.8106    0.3941 H   0  0  0  0  0  0  0  0  0  0  0  0
   11.5840  -11.7248    1.4622 H   0  0  0  0  0  0  0  0  0  0  0  0
    4.4547  -13.6977   -0.1327 H   0  0  0  0  0  0  0  0  0  0  0  0
    2.1257  -14.3156   -0.7241 H   0  0  0  0  0  0  0  0  0  0  0  0
   -0.5290  -17.2741    2.2804 H   0  0  0  0  0  0  0  0  0  0  0  0
  1  2  1  0
  2  3  1  0
  3  4  2  0
  4  5  1  0
  5  6  2  0
  6  7  1  0
  7  8  2  0
  8  9  1  0
  9 10  2  0
 10 11  1  0
 10 12  1  0
 12 13  2  0
 13 14  1  0
 14 15  2  0
 15 16  1  0
 16 17  1  0
 17 18  2  0
 18 19  1  0
 19 20  2  0
 20 21  1  0
 21 22  1  0
 22 23  2  0
 23 24  1  0
 24 25  1  0
 25 26  1  0
 26 27  1  0
 27 28  1  0
 24 29  2  0
 29 30  1  0
 30 31  1  0
 31 32  1  0
 32 33  2  0
 33 34  1  0
 34 35  2  0
 35 36  1  0
 36 37  2  0
 30 38  2  0
 20 39  1  0
 39 40  2  0
 15 41  1  0
 41 42  2  0
 42  3  1  0
 41  6  1  0
 14  8  1  0
 40 17  1  0
 38 22  1  0
 37 32  1  0
  1 43  1  0
  1 44  1  0
  1 45  1  0
  4 46  1  0
  5 47  1  0
  9 48  1  0
 12 49  1  0
 13 50  1  0
 16 51  1  0
 18 52  1  0
 19 53  1  0
 21 54  1  0
 25 55  1  0
 26 56  1  0
 26 57  1  0
 27 58  1  0
 27 59  1  0
 28 60  1  0
 31 61  1  0
 33 62  1  0
 34 63  1  0
 35 64  1  0
 36 65  1  0
 37 66  1  0
 39 67  1  0
 40 68  1  0
 42 69  1  0
M  END
>  <meeko>  (3) 
{"is_sidechain": [false], "free_energy": -8.918, "intermolecular_energy": -14.231, "internal_energy": -1.485}

$$$$
LIB_TZXMBOAOKBVBBT__M_PUB_ALL__e8__s20260927
     RDKit          3D

 69 74  0  0  0  0  0  0  0  0999 V2000
    6.8740  -16.6560   -4.5110 C   0  0  0  0  0  0  0  0  0  0  0  0
    7.8730  -16.0460   -5.3190 O   0  0  0  0  0  0  0  0  0  0  0  0
    8.7660  -15.2290   -4.6860 C   0  0  0  0  0  0  0  0  0  0  0  0
    9.7040  -14.6270   -5.5140 C   0  0  0  0  0  0  0  0  0  0  0  0
   10.6700  -13.7740   -4.9780 C   0  0  0  0  0  0  0  0  0  0  0  0
   10.7280  -13.4930   -3.6200 C   0  0  0  0  0  0  0  0  0  0  0  0
   11.6980  -12.6770   -3.1880 N   0  0  0  0  0  0  0  0  0  0  0  0
   11.7930  -12.3890   -1.8840 C   0  0  0  0  0  0  0  0  0  0  0  0
   12.8150  -11.5430   -1.4800 C   0  0  0  0  0  0  0  0  0  0  0  0
   12.9740  -11.1850   -0.1440 C   0  0  0  0  0  0  0  0  0  0  0  0
   14.2530  -10.1320    0.3160 Cl  0  0  0  0  0  0  0  0  0  0  0  0
   12.1000  -11.6680    0.8190 C   0  0  0  0  0  0  0  0  0  0  0  0
   11.0670  -12.5200    0.4320 C   0  0  0  0  0  0  0  0  0  0  0  0
   10.9030  -12.9010   -0.9230 C   0  0  0  0  0  0  0  0  0  0  0  0
    9.8720  -13.7620   -1.3830 C   0  0  0  0  0  0  0  0  0  0  0  0
    8.9550  -14.3050   -0.4450 N   0  0  0  0  0  0  0  0  0  0  0  0
    7.6780  -13.8490   -0.0800 C   0  0  0  0  0  0  0  0  0  0  0  0
    6.5980  -14.7350   -0.1130 C   0  0  0  0  0  0  0  0  0  0  0  0
    5.2990  -14.3070    0.2000 C   0  0  0  0  0  0  0  0  0  0  0  0
    5.0360  -12.9820    0.5480 C   0  0  0  0  0  0  0  0  0  0  0  0
    3.7650  -12.4910    0.8650 N   0  0  0  0  0  0  0  0  0  0  0  0
    2.7830  -11.8020    0.1540 C   0  0  0  0  0  0  0  0  0  0  0  0
    1.8710  -11.0600    0.7650 N   0  0  0  0  0  0  0  0  0  0  0  0
    0.9910  -10.4570   -0.0150 C   0  0  0  0  0  0  0  0  0  0  0  0
    0.0590   -9.6870    0.6240 N   0  0  0  0  0  0  0  0  0  0  0  0
   -1.3040  -10.1240    0.8480 C   0  0  0  0  0  0  0  0  0  0  0  0
   -2.0390   -9.1860    1.8110 C   0  0  0  0  0  0  0  0  0  0  0  0
   -1.1540   -8.7510    2.8450 O   0  0  0  0  0  0  0  0  0  0  0  0
    0.9800  -10.5550   -1.3330 N   0  0  0  0  0  0  0  0  0  0  0  0
    1.9200  -11.3140   -1.8740 C   0  0  0  0  0  0  0  0  0  0  0  0
    2.0190  -11.4890   -3.2530 N   0  0  0  0  0  0  0  0  0  0  0  0
    2.9520  -12.1090   -4.0930 C   0  0  0  0  0  0  0  0  0  0  0  0
    3.8910  -11.4170   -4.8660 C   0  0  0  0  0  0  0  0  0  0  0  0
    4.8060  -12.0960   -5.6770 C   0  0  0  0  0  0  0  0  0  0  0  0
    4.8000  -13.4870   -5.7270 C   0  0  0  0  0  0  0  0  0  0  0  0
    3.8780  -14.1970   -4.9680 C   0  0  0  0  0  0  0  0  0  0  0  0
    2.9650  -13.5130   -4.1590 C   0  0  0  0  0  0  0  0  0  0  0  0
    2.8430  -11.9530   -1.1630 N   0  0  0  0  0  0  0  0  0  0  0  0
    6.1220  -12.0950    0.5690 C   0  0  0  0  0  0  0  0  0  0  0  0
    7.4200  -12.5190    0.2560 C   0  0  0  0  0  0  0  0  0  0  0  0
    9.7800  -14.0810   -2.7640 C   0  0  0  0  0  0  0  0  0  0  0  0
    8.8130  -14.9650   -3.3190 C   0  0  0  0  0  0  0  0  0  0  0  0
    7.1193  -16.5062   -3.4492 H   0  0  0  0  0  0  0  0  0  0  0  0
    5.8970  -16.2002   -4.7294 H   0  0  0  0  0  0  0  0  0  0  0  0
    6.8331  -17.7333   -4.7294 H   0  0  0  0  0  0  0  0  0  0  0  0
    9.6857  -14.8230   -6.5962 H   0  0  0  0  0  0  0  0  0  0  0  0
   11.4066  -13.3111   -5.6512 H   0  0  0  0  0  0  0  0  0  0  0  0
   13.5145  -11.1466   -2.2307 H   0  0  0  0  0  0  0  0  0  0  0  0
   12.2207  -11.3823    1.8744 H   0  0  0  0  0  0  0  0  0  0  0  0
   10.3681  -12.9027    1.1903 H   0  0  0  0  0  0  0  0  0  0  0  0
    9.3370  -15.0510    0.1250 H   0  0  0  0  0  0  0  0  0  0  0  0
    6.7691  -15.7859   -0.3891 H   0  0  0  0  0  0  0  0  0  0  0  0
    4.4713  -15.0309    0.1704 H   0  0  0  0  0  0  0  0  0  0  0  0
    3.4400  -12.6550    1.8080 H   0  0  0  0  0  0  0  0  0  0  0  0
    0.3980   -8.8200    1.0110 H   0  0  0  0  0  0  0  0  0  0  0  0
   -1.8377  -10.1399   -0.1137 H   0  0  0  0  0  0  0  0  0  0  0  0
   -1.2771  -11.1286    1.2952 H   0  0  0  0  0  0  0  0  0  0  0  0
   -2.4077   -8.3109    1.2558 H   0  0  0  0  0  0  0  0  0  0  0  0
   -2.8839   -9.7255    2.2640 H   0  0  0  0  0  0  0  0  0  0  0  0
   -1.6190   -8.9570    3.6780 H   0  0  0  0  0  0  0  0  0  0  0  0
    1.2300  -11.0500   -3.7040 H   0  0  0  0  0  0  0  0  0  0  0  0
    3.9098  -10.3176   -4.8352 H   0  0  0  0  0  0  0  0  0  0  0  0
    5.5327  -11.5290   -6.2773 H   0  0  0  0  0  0  0  0  0  0  0  0
    5.5209  -14.0209   -6.3636 H   0  0  0  0  0  0  0  0  0  0  0  0
    3.8661  -15.2964   -5.0033 H   0  0  0  0  0  0  0  0  0  0  0  0
    2.2412  -14.0863   -3.5612 H   0  0  0  0  0  0  0  0  0  0  0  0
    5.9507  -11.0421    0.8374 H   0  0  0  0  0  0  0  0  0  0  0  0
    8.2471  -11.7940    0.2753 H   0  0  0  0  0  0  0  0  0  0  0  0
    8.0853  -15.4515   -2.6528 H   0  0  0  0  0  0  0  0  0  0  0  0
  1  2  1  0
  2  3  1  0
  3  4  2  0
  4  5  1  0
  5  6  2  0
  6  7  1  0
  7  8  2  0
  8  9  1  0
  9 10  2  0
 10 11  1  0
 10 12  1  0
 12 13  2  0
 13 14  1  0
 14 15  2  0
 15 16  1  0
 16 17  1  0
 17 18  2  0
 18 19  1  0
 19 20  2  0
 20 21  1  0
 21 22  1  0
 22 23  2  0
 23 24  1  0
 24 25  1  0
 25 26  1  0
 26 27  1  0
 27 28  1  0
 24 29  2  0
 29 30  1  0
 30 31  1  0
 31 32  1  0
 32 33  2  0
 33 34  1  0
 34 35  2  0
 35 36  1  0
 36 37  2  0
 30 38  2  0
 20 39  1  0
 39 40  2  0
 15 41  1  0
 41 42  2  0
 42  3  1  0
 41  6  1  0
 14  8  1  0
 40 17  1  0
 38 22  1  0
 37 32  1  0
  1 43  1  0
  1 44  1  0
  1 45  1  0
  4 46  1  0
  5 47  1  0
  9 48  1  0
 12 49  1  0
 13 50  1  0
 16 51  1  0
 18 52  1  0
 19 53  1  0
 21 54  1  0
 25 55  1  0
 26 56  1  0
 26 57  1  0
 27 58  1  0
 27 59  1  0
 28 60  1  0
 31 61  1  0
 33 62  1  0
 34 63  1  0
 35 64  1  0
 36 65  1  0
 37 66  1  0
 39 67  1  0
 40 68  1  0
 42 69  1  0
M  END
>  <meeko>  (4) 
{"is_sidechain": [false], "free_energy": -8.649, "intermolecular_energy": -13.297, "internal_energy": -1.985}

$$$$
LIB_TZXMBOAOKBVBBT__M_PUB_ALL__e8__s20260927
     RDKit          3D

 69 74  0  0  0  0  0  0  0  0999 V2000
   -0.7060  -16.9990    5.7570 C   0  0  0  0  0  0  0  0  0  0  0  0
    0.5420  -16.9700    5.0730 O   0  0  0  0  0  0  0  0  0  0  0  0
    0.5080  -16.6820    3.7390 C   0  0  0  0  0  0  0  0  0  0  0  0
   -0.3490  -17.4740    2.9860 C   0  0  0  0  0  0  0  0  0  0  0  0
   -0.4640  -17.2720    1.6090 C   0  0  0  0  0  0  0  0  0  0  0  0
    0.2570  -16.2870    0.9500 C   0  0  0  0  0  0  0  0  0  0  0  0
    0.0990  -16.1740   -0.3760 N   0  0  0  0  0  0  0  0  0  0  0  0
    0.7840  -15.2420   -1.0500 C   0  0  0  0  0  0  0  0  0  0  0  0
    0.5930  -15.1630   -2.4220 C   0  0  0  0  0  0  0  0  0  0  0  0
    1.2580  -14.2130   -3.1920 C   0  0  0  0  0  0  0  0  0  0  0  0
    0.9930  -14.1470   -4.8900 Cl  0  0  0  0  0  0  0  0  0  0  0  0
    2.1290  -13.3130   -2.5960 C   0  0  0  0  0  0  0  0  0  0  0  0
    2.3340  -13.3770   -1.2180 C   0  0  0  0  0  0  0  0  0  0  0  0
    1.6720  -14.3480   -0.4260 C   0  0  0  0  0  0  0  0  0  0  0  0
    1.8350  -14.4650    0.9800 C   0  0  0  0  0  0  0  0  0  0  0  0
    2.7260  -13.5850    1.6480 N   0  0  0  0  0  0  0  0  0  0  0  0
    4.0920  -13.3570    1.4190 C   0  0  0  0  0  0  0  0  0  0  0  0
    4.9690  -14.4430    1.3630 C   0  0  0  0  0  0  0  0  0  0  0  0
    6.3480  -14.2540    1.1810 C   0  0  0  0  0  0  0  0  0  0  0  0
    6.8940  -12.9760    1.0570 C   0  0  0  0  0  0  0  0  0  0  0  0
    8.2570  -12.7190    0.8800 N   0  0  0  0  0  0  0  0  0  0  0  0
    9.0880  -12.5990   -0.2340 C   0  0  0  0  0  0  0  0  0  0  0  0
   10.4050  -12.5190   -0.1150 N   0  0  0  0  0  0  0  0  0  0  0  0
   11.0860  -12.4060   -1.2420 C   0  0  0  0  0  0  0  0  0  0  0  0
   12.4460  -12.3340   -1.1110 N   0  0  0  0  0  0  0  0  0  0  0  0
   13.0960  -11.7590    0.0500 C   0  0  0  0  0  0  0  0  0  0  0  0
   12.9730  -10.2330    0.0590 C   0  0  0  0  0  0  0  0  0  0  0  0
   11.8260   -9.8360    0.8130 O   0  0  0  0  0  0  0  0  0  0  0  0
   10.5340  -12.3720   -2.4420 N   0  0  0  0  0  0  0  0  0  0  0  0
    9.2130  -12.4550   -2.4840 C   0  0  0  0  0  0  0  0  0  0  0  0
    8.5130  -12.4400   -3.6880 N   0  0  0  0  0  0  0  0  0  0  0  0
    7.3370  -13.0500   -4.1420 C   0  0  0  0  0  0  0  0  0  0  0  0
    7.2210  -14.4180   -4.4130 C   0  0  0  0  0  0  0  0  0  0  0  0
    6.0130  -14.9700   -4.8530 C   0  0  0  0  0  0  0  0  0  0  0  0
    4.8940  -14.1600   -5.0260 C   0  0  0  0  0  0  0  0  0  0  0  0
    4.9850  -12.7990   -4.7610 C   0  0  0  0  0  0  0  0  0  0  0  0
    6.1950  -12.2530   -4.3230 C   0  0  0  0  0  0  0  0  0  0  0  0
    8.4530  -12.5730   -1.4000 N   0  0  0  0  0  0  0  0  0  0  0  0
    6.0100  -11.8890    1.1250 C   0  0  0  0  0  0  0  0  0  0  0  0
    4.6340  -12.0750    1.3070 C   0  0  0  0  0  0  0  0  0  0  0  0
    1.1210  -15.4640    1.6940 C   0  0  0  0  0  0  0  0  0  0  0  0
    1.2450  -15.6920    3.0920 C   0  0  0  0  0  0  0  0  0  0  0  0
   -0.5293  -16.9949    6.8427 H   0  0  0  0  0  0  0  0  0  0  0  0
   -1.2974  -16.1144    5.4784 H   0  0  0  0  0  0  0  0  0  0  0  0
   -1.2557  -17.9102    5.4784 H   0  0  0  0  0  0  0  0  0  0  0  0
   -0.9390  -18.2628    3.4757 H   0  0  0  0  0  0  0  0  0  0  0  0
   -1.1459  -17.9124    1.0303 H   0  0  0  0  0  0  0  0  0  0  0  0
   -0.0980  -15.8653   -2.9112 H   0  0  0  0  0  0  0  0  0  0  0  0
    2.6514  -12.5584   -3.2024 H   0  0  0  0  0  0  0  0  0  0  0  0
    3.0199  -12.6630   -0.7386 H   0  0  0  0  0  0  0  0  0  0  0  0
    2.3410  -13.1630    2.4860 H   0  0  0  0  0  0  0  0  0  0  0  0
    4.5720  -15.4640    1.4633 H   0  0  0  0  0  0  0  0  0  0  0  0
    7.0111  -15.1305    1.1352 H   0  0  0  0  0  0  0  0  0  0  0  0
    8.8020  -12.5720    1.7180 H   0  0  0  0  0  0  0  0  0  0  0  0
   12.9800  -12.7850   -1.8370 H   0  0  0  0  0  0  0  0  0  0  0  0
   12.6261  -12.1615    0.9595 H   0  0  0  0  0  0  0  0  0  0  0  0
   14.1639  -12.0206    0.0145 H   0  0  0  0  0  0  0  0  0  0  0  0
   13.8753   -9.7982    0.5137 H   0  0  0  0  0  0  0  0  0  0  0  0
   12.8647   -9.8750   -0.9755 H   0  0  0  0  0  0  0  0  0  0  0  0
   11.7030   -8.8900    0.6070 H   0  0  0  0  0  0  0  0  0  0  0  0
    9.0000  -11.8550   -4.3520 H   0  0  0  0  0  0  0  0  0  0  0  0
    8.0956  -15.0713   -4.2776 H   0  0  0  0  0  0  0  0  0  0  0  0
    5.9472  -16.0478   -5.0630 H   0  0  0  0  0  0  0  0  0  0  0  0
    3.9439  -14.5946   -5.3703 H   0  0  0  0  0  0  0  0  0  0  0  0
    4.1057  -12.1519   -4.8958 H   0  0  0  0  0  0  0  0  0  0  0  0
    6.2540  -11.1744   -4.1154 H   0  0  0  0  0  0  0  0  0  0  0  0
    6.4067  -10.8671    1.0333 H   0  0  0  0  0  0  0  0  0  0  0  0
    3.9709  -11.1991    1.3625 H   0  0  0  0  0  0  0  0  0  0  0  0
    1.9398  -15.0717    3.6772 H   0  0  0  0  0  0  0  0  0  0  0  0
  1  2  1  0
  2  3  1  0
  3  4  2  0
  4  5  1  0
  5  6  2  0
  6  7  1  0
  7  8  2  0
  8  9  1  0
  9 10  2  0
 10 11  1  0
 10 12  1  0
 12 13  2  0
 13 14  1  0
 14 15  2  0
 15 16  1  0
 16 17  1  0
 17 18  2  0
 18 19  1  0
 19 20  2  0
 20 21  1  0
 21 22  1  0
 22 23  2  0
 23 24  1  0
 24 25  1  0
 25 26  1  0
 26 27  1  0
 27 28  1  0
 24 29  2  0
 29 30  1  0
 30 31  1  0
 31 32  1  0
 32 33  2  0
 33 34  1  0
 34 35  2  0
 35 36  1  0
 36 37  2  0
 30 38  2  0
 20 39  1  0
 39 40  2  0
 15 41  1  0
 41 42  2  0
 42  3  1  0
 41  6  1  0
 14  8  1  0
 40 17  1  0
 38 22  1  0
 37 32  1  0
  1 43  1  0
  1 44  1  0
  1 45  1  0
  4 46  1  0
  5 47  1  0
  9 48  1  0
 12 49  1  0
 13 50  1  0
 16 51  1  0
 18 52  1  0
 19 53  1  0
 21 54  1  0
 25 55  1  0
 26 56  1  0
 26 57  1  0
 27 58  1  0
 27 59  1  0
 28 60  1  0
 31 61  1  0
 33 62  1  0
 34 63  1  0
 35 64  1  0
 36 65  1  0
 37 66  1  0
 39 67  1  0
 40 68  1  0
 42 69  1  0
M  END
>  <meeko>  (5) 
{"is_sidechain": [false], "free_energy": -8.63, "intermolecular_energy": -13.004, "internal_energy": -2.246}

$$$$
LIB_TZXMBOAOKBVBBT__M_PUB_ALL__e8__s20260927
     RDKit          3D

 69 74  0  0  0  0  0  0  0  0999 V2000
    7.3490  -10.5050  -10.7130 C   0  0  0  0  0  0  0  0  0  0  0  0
    6.8690  -11.7330  -11.2480 O   0  0  0  0  0  0  0  0  0  0  0  0
    6.9740  -12.8360  -10.4500 C   0  0  0  0  0  0  0  0  0  0  0  0
    7.3270  -14.0070  -11.1070 C   0  0  0  0  0  0  0  0  0  0  0  0
    7.4600  -15.2000  -10.3930 C   0  0  0  0  0  0  0  0  0  0  0  0
    7.2540  -15.2620   -9.0230 C   0  0  0  0  0  0  0  0  0  0  0  0
    7.3870  -16.4510   -8.4200 N   0  0  0  0  0  0  0  0  0  0  0  0
    7.1860  -16.5540   -7.1000 C   0  0  0  0  0  0  0  0  0  0  0  0
    7.3290  -17.8040   -6.5180 C   0  0  0  0  0  0  0  0  0  0  0  0
    7.1510  -17.9920   -5.1500 C   0  0  0  0  0  0  0  0  0  0  0  0
    7.3390  -19.5590   -4.4680 Cl  0  0  0  0  0  0  0  0  0  0  0  0
    6.8290  -16.9190   -4.3330 C   0  0  0  0  0  0  0  0  0  0  0  0
    6.6790  -15.6540   -4.9000 C   0  0  0  0  0  0  0  0  0  0  0  0
    6.8470  -15.4530   -6.2930 C   0  0  0  0  0  0  0  0  0  0  0  0
    6.7120  -14.1920   -6.9310 C   0  0  0  0  0  0  0  0  0  0  0  0
    6.3650  -13.0570   -6.1530 N   0  0  0  0  0  0  0  0  0  0  0  0
    5.3020  -12.8840   -5.2530 C   0  0  0  0  0  0  0  0  0  0  0  0
    5.5500  -12.3230   -3.9980 C   0  0  0  0  0  0  0  0  0  0  0  0
    4.5230  -12.1740   -3.0530 C   0  0  0  0  0  0  0  0  0  0  0  0
    3.2190  -12.5880   -3.3290 C   0  0  0  0  0  0  0  0  0  0  0  0
    2.1530  -12.4740   -2.4310 N   0  0  0  0  0  0  0  0  0  0  0  0
    1.9960  -12.7310   -1.0700 C   0  0  0  0  0  0  0  0  0  0  0  0
    2.9450  -13.3190   -0.3570 N   0  0  0  0  0  0  0  0  0  0  0  0
    2.6800  -13.5110    0.9230 C   0  0  0  0  0  0  0  0  0  0  0  0
    3.6690  -14.1100    1.6530 N   0  0  0  0  0  0  0  0  0  0  0  0
    5.0710  -14.0370    1.2890 C   0  0  0  0  0  0  0  0  0  0  0  0
    5.9290  -13.5710    2.4690 C   0  0  0  0  0  0  0  0  0  0  0  0
    5.1200  -12.8750    3.4200 O   0  0  0  0  0  0  0  0  0  0  0  0
    1.5490  -13.1550    1.5070 N   0  0  0  0  0  0  0  0  0  0  0  0
    0.6450  -12.5750    0.7330 C   0  0  0  0  0  0  0  0  0  0  0  0
   -0.5830  -12.1450    1.2320 N   0  0  0  0  0  0  0  0  0  0  0  0
   -1.8090  -11.8040    0.6480 C   0  0  0  0  0  0  0  0  0  0  0  0
   -2.1620  -10.5030    0.2750 C   0  0  0  0  0  0  0  0  0  0  0  0
   -3.4000  -10.2280   -0.3170 C   0  0  0  0  0  0  0  0  0  0  0  0
   -4.3080  -11.2570   -0.5510 C   0  0  0  0  0  0  0  0  0  0  0  0
   -3.9780  -12.5580   -0.1910 C   0  0  0  0  0  0  0  0  0  0  0  0
   -2.7400  -12.8260    0.4010 C   0  0  0  0  0  0  0  0  0  0  0  0
    0.8320  -12.3420   -0.5620 N   0  0  0  0  0  0  0  0  0  0  0  0
    2.9780  -13.1600   -4.5870 C   0  0  0  0  0  0  0  0  0  0  0  0
    4.0020  -13.3100   -5.5310 C   0  0  0  0  0  0  0  0  0  0  0  0
    6.9080  -14.0850   -8.3340 C   0  0  0  0  0  0  0  0  0  0  0  0
    6.7550  -12.8810   -9.0740 C   0  0  0  0  0  0  0  0  0  0  0  0
    7.3307  -10.5517   -9.6141 H   0  0  0  0  0  0  0  0  0  0  0  0
    8.3802  -10.3339  -11.0556 H   0  0  0  0  0  0  0  0  0  0  0  0
    6.7072   -9.6800  -11.0556 H   0  0  0  0  0  0  0  0  0  0  0  0
    7.5024  -13.9952  -12.1929 H   0  0  0  0  0  0  0  0  0  0  0  0
    7.7363  -16.1175  -10.9333 H   0  0  0  0  0  0  0  0  0  0  0  0
    7.5886  -18.6657   -7.1505 H   0  0  0  0  0  0  0  0  0  0  0  0
    6.6936  -17.0639   -3.2510 H   0  0  0  0  0  0  0  0  0  0  0  0
    6.4263  -14.7986   -4.2562 H   0  0  0  0  0  0  0  0  0  0  0  0
    6.8910  -12.2210   -6.3830 H   0  0  0  0  0  0  0  0  0  0  0  0
    6.5683  -11.9921   -3.7459 H   0  0  0  0  0  0  0  0  0  0  0  0
    4.7502  -11.7223   -2.0761 H   0  0  0  0  0  0  0  0  0  0  0  0
    1.2820  -12.1240   -2.8060 H   0  0  0  0  0  0  0  0  0  0  0  0
    3.3780  -14.5400    2.5170 H   0  0  0  0  0  0  0  0  0  0  0  0
    5.4108  -15.0335    0.9704 H   0  0  0  0  0  0  0  0  0  0  0  0
    5.1800  -13.3089    0.4717 H   0  0  0  0  0  0  0  0  0  0  0  0
    6.3881  -14.4457    2.9529 H   0  0  0  0  0  0  0  0  0  0  0  0
    6.7128  -12.8937    2.0989 H   0  0  0  0  0  0  0  0  0  0  0  0
    5.3020  -13.3130    4.2740 H   0  0  0  0  0  0  0  0  0  0  0  0
   -0.5280  -12.0700    2.2380 H   0  0  0  0  0  0  0  0  0  0  0  0
   -1.4531   -9.6803    0.4503 H   0  0  0  0  0  0  0  0  0  0  0  0
   -3.6563   -9.1959   -0.5982 H   0  0  0  0  0  0  0  0  0  0  0  0
   -5.2804  -11.0416   -1.0179 H   0  0  0  0  0  0  0  0  0  0  0  0
   -4.6903  -13.3765   -0.3717 H   0  0  0  0  0  0  0  0  0  0  0  0
   -2.4897  -13.8603    0.6795 H   0  0  0  0  0  0  0  0  0  0  0  0
    1.9619  -13.4984   -4.8379 H   0  0  0  0  0  0  0  0  0  0  0  0
    3.7786  -13.7699   -6.5050 H   0  0  0  0  0  0  0  0  0  0  0  0
    6.4565  -11.9622   -8.5480 H   0  0  0  0  0  0  0  0  0  0  0  0
  1  2  1  0
  2  3  1  0
  3  4  2  0
  4  5  1  0
  5  6  2  0
  6  7  1  0
  7  8  2  0
  8  9  1  0
  9 10  2  0
 10 11  1  0
 10 12  1  0
 12 13  2  0
 13 14  1  0
 14 15  2  0
 15 16  1  0
 16 17  1  0
 17 18  2  0
 18 19  1  0
 19 20  2  0
 20 21  1  0
 21 22  1  0
 22 23  2  0
 23 24  1  0
 24 25  1  0
 25 26  1  0
 26 27  1  0
 27 28  1  0
 24 29  2  0
 29 30  1  0
 30 31  1  0
 31 32  1  0
 32 33  2  0
 33 34  1  0
 34 35  2  0
 35 36  1  0
 36 37  2  0
 30 38  2  0
 20 39  1  0
 39 40  2  0
 15 41  1  0
 41 42  2  0
 42  3  1  0
 41  6  1  0
 14  8  1  0
 40 17  1  0
 38 22  1  0
 37 32  1  0
  1 43  1  0
  1 44  1  0
  1 45  1  0
  4 46  1  0
  5 47  1  0
  9 48  1  0
 12 49  1  0
 13 50  1  0
 16 51  1  0
 18 52  1  0
 19 53  1  0
 21 54  1  0
 25 55  1  0
 26 56  1  0
 26 57  1  0
 27 58  1  0
 27 59  1  0
 28 60  1  0
 31 61  1  0
 33 62  1  0
 34 63  1  0
 35 64  1  0
 36 65  1  0
 37 66  1  0
 39 67  1  0
 40 68  1  0
 42 69  1  0
M  END
>  <meeko>  (6) 
{"is_sidechain": [false], "free_energy": -8.622, "intermolecular_energy": -14.084, "internal_energy": -1.153}

$$$$
LIB_TZXMBOAOKBVBBT__M_PUB_ALL__e8__s20260927
     RDKit          3D

 69 74  0  0  0  0  0  0  0  0999 V2000
    1.7120  -18.8510    4.8580 C   0  0  0  0  0  0  0  0  0  0  0  0
    1.8810  -17.7030    5.6810 O   0  0  0  0  0  0  0  0  0  0  0  0
    1.2940  -16.5460    5.2540 C   0  0  0  0  0  0  0  0  0  0  0  0
    0.5850  -15.8520    6.2260 C   0  0  0  0  0  0  0  0  0  0  0  0
   -0.0610  -14.6570    5.9050 C   0  0  0  0  0  0  0  0  0  0  0  0
   -0.0170  -14.1200    4.6270 C   0  0  0  0  0  0  0  0  0  0  0  0
   -0.6790  -12.9780    4.4020 N   0  0  0  0  0  0  0  0  0  0  0  0
   -0.6700  -12.4330    3.1790 C   0  0  0  0  0  0  0  0  0  0  0  0
   -1.3720  -11.2520    2.9890 C   0  0  0  0  0  0  0  0  0  0  0  0
   -1.4010  -10.6170    1.7500 C   0  0  0  0  0  0  0  0  0  0  0  0
   -2.2820   -9.1530    1.5580 Cl  0  0  0  0  0  0  0  0  0  0  0  0
   -0.7140  -11.1540    0.6720 C   0  0  0  0  0  0  0  0  0  0  0  0
   -0.0030  -12.3410    0.8420 C   0  0  0  0  0  0  0  0  0  0  0  0
    0.0230  -13.0030    2.0950 C   0  0  0  0  0  0  0  0  0  0  0  0
    0.7290  -14.2110    2.3360 C   0  0  0  0  0  0  0  0  0  0  0  0
    1.4370  -14.8230    1.2680 N   0  0  0  0  0  0  0  0  0  0  0  0
    2.8130  -14.8060    0.9860 C   0  0  0  0  0  0  0  0  0  0  0  0
    3.3650  -15.8250    0.2050 C   0  0  0  0  0  0  0  0  0  0  0  0
    4.7410  -15.8690   -0.0620 C   0  0  0  0  0  0  0  0  0  0  0  0
    5.6100  -14.9030    0.4480 C   0  0  0  0  0  0  0  0  0  0  0  0
    6.9910  -14.8930    0.2240 N   0  0  0  0  0  0  0  0  0  0  0  0
    7.8400  -14.1410   -0.5870 C   0  0  0  0  0  0  0  0  0  0  0  0
    9.1360  -14.0400   -0.3350 N   0  0  0  0  0  0  0  0  0  0  0  0
    9.8380  -13.2980   -1.1740 C   0  0  0  0  0  0  0  0  0  0  0  0
   11.1770  -13.2070   -0.9120 N   0  0  0  0  0  0  0  0  0  0  0  0
   11.7970  -12.0040   -0.3920 C   0  0  0  0  0  0  0  0  0  0  0  0
   11.1850  -11.5980    0.9520 C   0  0  0  0  0  0  0  0  0  0  0  0
   11.2040  -12.7050    1.8550 O   0  0  0  0  0  0  0  0  0  0  0  0
    9.3230  -12.6730   -2.2190 N   0  0  0  0  0  0  0  0  0  0  0  0
    8.0210  -12.8180   -2.4080 C   0  0  0  0  0  0  0  0  0  0  0  0
    7.3620  -12.2170   -3.4790 N   0  0  0  0  0  0  0  0  0  0  0  0
    6.0160  -12.0250   -3.8130 C   0  0  0  0  0  0  0  0  0  0  0  0
    5.0860  -11.3940   -2.9810 C   0  0  0  0  0  0  0  0  0  0  0  0
    3.7560  -11.2210   -3.3780 C   0  0  0  0  0  0  0  0  0  0  0  0
    3.3320  -11.6760   -4.6240 C   0  0  0  0  0  0  0  0  0  0  0  0
    4.2380  -12.3050   -5.4690 C   0  0  0  0  0  0  0  0  0  0  0  0
    5.5660  -12.4750   -5.0660 C   0  0  0  0  0  0  0  0  0  0  0  0
    7.2430  -13.5470   -1.6140 N   0  0  0  0  0  0  0  0  0  0  0  0
    5.0520  -13.8890    1.2400 C   0  0  0  0  0  0  0  0  0  0  0  0
    3.6780  -13.8440    1.5090 C   0  0  0  0  0  0  0  0  0  0  0  0
    0.7060  -14.7990    3.6290 C   0  0  0  0  0  0  0  0  0  0  0  0
    1.3430  -16.0260    3.9620 C   0  0  0  0  0  0  0  0  0  0  0  0
    1.5811  -19.7405    5.4918 H   0  0  0  0  0  0  0  0  0  0  0  0
    0.8236  -18.7193    4.2229 H   0  0  0  0  0  0  0  0  0  0  0  0
    2.6007  -18.9809    4.2229 H   0  0  0  0  0  0  0  0  0  0  0  0
    0.5324  -16.2453    7.2519 H   0  0  0  0  0  0  0  0  0  0  0  0
   -0.6213  -14.1257    6.6885 H   0  0  0  0  0  0  0  0  0  0  0  0
   -1.9173  -10.8076    3.8347 H   0  0  0  0  0  0  0  0  0  0  0  0
   -0.7298  -10.6496   -0.3054 H   0  0  0  0  0  0  0  0  0  0  0  0
    0.5461  -12.7703   -0.0090 H   0  0  0  0  0  0  0  0  0  0  0  0
    0.8430  -15.2170    0.5480 H   0  0  0  0  0  0  0  0  0  0  0  0
    2.7090  -16.6058   -0.2073 H   0  0  0  0  0  0  0  0  0  0  0  0
    5.1435  -16.6808   -0.6857 H   0  0  0  0  0  0  0  0  0  0  0  0
    7.5390  -15.5570    0.7540 H   0  0  0  0  0  0  0  0  0  0  0  0
   11.7040  -14.0590   -1.0210 H   0  0  0  0  0  0  0  0  0  0  0  0
   12.8732  -12.1861   -0.2551 H   0  0  0  0  0  0  0  0  0  0  0  0
   11.6282  -11.1884   -1.1105 H   0  0  0  0  0  0  0  0  0  0  0  0
   11.7667  -10.7687    1.3809 H   0  0  0  0  0  0  0  0  0  0  0  0
   10.1436  -11.2817    0.7923 H   0  0  0  0  0  0  0  0  0  0  0  0
   10.2790  -12.8030    2.1530 H   0  0  0  0  0  0  0  0  0  0  0  0
    8.0430  -11.8650   -4.1360 H   0  0  0  0  0  0  0  0  0  0  0  0
    5.4066  -11.0265   -1.9950 H   0  0  0  0  0  0  0  0  0  0  0  0
    3.0428  -10.7240   -2.7039 H   0  0  0  0  0  0  0  0  0  0  0  0
    2.2866  -11.5383   -4.9372 H   0  0  0  0  0  0  0  0  0  0  0  0
    3.9108  -12.6689   -6.4541 H   0  0  0  0  0  0  0  0  0  0  0  0
    6.2745  -12.9721   -5.7449 H   0  0  0  0  0  0  0  0  0  0  0  0
    5.7078  -13.1118    1.6593 H   0  0  0  0  0  0  0  0  0  0  0  0
    3.2753  -13.0391    2.1414 H   0  0  0  0  0  0  0  0  0  0  0  0
    1.8873  -16.5777    3.1814 H   0  0  0  0  0  0  0  0  0  0  0  0
  1  2  1  0
  2  3  1  0
  3  4  2  0
  4  5  1  0
  5  6  2  0
  6  7  1  0
  7  8  2  0
  8  9  1  0
  9 10  2  0
 10 11  1  0
 10 12  1  0
 12 13  2  0
 13 14  1  0
 14 15  2  0
 15 16  1  0
 16 17  1  0
 17 18  2  0
 18 19  1  0
 19 20  2  0
 20 21  1  0
 21 22  1  0
 22 23  2  0
 23 24  1  0
 24 25  1  0
 25 26  1  0
 26 27  1  0
 27 28  1  0
 24 29  2  0
 29 30  1  0
 30 31  1  0
 31 32  1  0
 32 33  2  0
 33 34  1  0
 34 35  2  0
 35 36  1  0
 36 37  2  0
 30 38  2  0
 20 39  1  0
 39 40  2  0
 15 41  1  0
 41 42  2  0
 42  3  1  0
 41  6  1  0
 14  8  1  0
 40 17  1  0
 38 22  1  0
 37 32  1  0
  1 43  1  0
  1 44  1  0
  1 45  1  0
  4 46  1  0
  5 47  1  0
  9 48  1  0
 12 49  1  0
 13 50  1  0
 16 51  1  0
 18 52  1  0
 19 53  1  0
 21 54  1  0
 25 55  1  0
 26 56  1  0
 26 57  1  0
 27 58  1  0
 27 59  1  0
 28 60  1  0
 31 61  1  0
 33 62  1  0
 34 63  1  0
 35 64  1  0
 36 65  1  0
 37 66  1  0
 39 67  1  0
 40 68  1  0
 42 69  1  0
M  END
>  <meeko>  (7) 
{"is_sidechain": [false], "free_energy": -8.588, "intermolecular_energy": -13.408, "internal_energy": -1.775}

$$$$
LIB_TZXMBOAOKBVBBT__M_PUB_ALL__e8__s20260927
     RDKit          3D

 69 74  0  0  0  0  0  0  0  0999 V2000
   -9.3030  -16.8070    5.8520 C   0  0  0  0  0  0  0  0  0  0  0  0
   -9.4970  -17.1200    7.2260 O   0  0  0  0  0  0  0  0  0  0  0  0
   -9.9880  -18.3610    7.5130 C   0  0  0  0  0  0  0  0  0  0  0  0
  -10.8350  -18.8970    6.5520 C   0  0  0  0  0  0  0  0  0  0  0  0
  -11.4010  -20.1600    6.7390 C   0  0  0  0  0  0  0  0  0  0  0  0
  -11.1400  -20.9190    7.8700 C   0  0  0  0  0  0  0  0  0  0  0  0
  -11.7380  -22.1130    7.9760 N   0  0  0  0  0  0  0  0  0  0  0  0
  -11.5200  -22.8730    9.0570 C   0  0  0  0  0  0  0  0  0  0  0  0
  -12.1630  -24.0990    9.1280 C   0  0  0  0  0  0  0  0  0  0  0  0
  -11.9780  -24.9530   10.2130 C   0  0  0  0  0  0  0  0  0  0  0  0
  -12.7930  -26.4670   10.2620 Cl  0  0  0  0  0  0  0  0  0  0  0  0
  -11.1330  -24.5910   11.2520 C   0  0  0  0  0  0  0  0  0  0  0  0
  -10.4790  -23.3620   11.1990 C   0  0  0  0  0  0  0  0  0  0  0  0
  -10.6690  -22.4800   10.1060 C   0  0  0  0  0  0  0  0  0  0  0  0
  -10.0310  -21.2170    9.9900 C   0  0  0  0  0  0  0  0  0  0  0  0
   -9.1670  -20.7800   11.0280 N   0  0  0  0  0  0  0  0  0  0  0  0
   -7.7670  -20.6870   11.0430 C   0  0  0  0  0  0  0  0  0  0  0  0
   -7.0150  -21.5210   10.2110 C   0  0  0  0  0  0  0  0  0  0  0  0
   -5.6120  -21.4910   10.2290 C   0  0  0  0  0  0  0  0  0  0  0  0
   -4.9170  -20.6330   11.0830 C   0  0  0  0  0  0  0  0  0  0  0  0
   -3.5220  -20.5590   11.1540 N   0  0  0  0  0  0  0  0  0  0  0  0
   -2.5790  -19.6000   10.7830 C   0  0  0  0  0  0  0  0  0  0  0  0
   -1.3500  -19.6030   11.2790 N   0  0  0  0  0  0  0  0  0  0  0  0
   -0.5470  -18.6440   10.8540 C   0  0  0  0  0  0  0  0  0  0  0  0
    0.7220  -18.6600   11.3630 N   0  0  0  0  0  0  0  0  0  0  0  0
    1.7180  -17.6620   11.0260 C   0  0  0  0  0  0  0  0  0  0  0  0
    2.5640  -18.1030    9.8280 C   0  0  0  0  0  0  0  0  0  0  0  0
    2.6630  -17.0390    8.8790 O   0  0  0  0  0  0  0  0  0  0  0  0
   -0.9000  -17.7120    9.9850 N   0  0  0  0  0  0  0  0  0  0  0  0
   -2.1440  -17.7700    9.5340 C   0  0  0  0  0  0  0  0  0  0  0  0
   -2.6330  -16.8510    8.6080 N   0  0  0  0  0  0  0  0  0  0  0  0
   -3.7840  -16.0570    8.5360 C   0  0  0  0  0  0  0  0  0  0  0  0
   -4.1090  -15.0650    9.4670 C   0  0  0  0  0  0  0  0  0  0  0  0
   -5.2700  -14.2950    9.3320 C   0  0  0  0  0  0  0  0  0  0  0  0
   -6.1270  -14.5030    8.2560 C   0  0  0  0  0  0  0  0  0  0  0  0
   -5.8240  -15.4820    7.3160 C   0  0  0  0  0  0  0  0  0  0  0  0
   -4.6640  -16.2490    7.4570 C   0  0  0  0  0  0  0  0  0  0  0  0
   -3.0140  -18.7030    9.9070 N   0  0  0  0  0  0  0  0  0  0  0  0
   -5.6760  -19.8060   11.9230 C   0  0  0  0  0  0  0  0  0  0  0  0
   -7.0770  -19.8350   11.9070 C   0  0  0  0  0  0  0  0  0  0  0  0
  -10.2740  -20.4030    8.8510 C   0  0  0  0  0  0  0  0  0  0  0  0
   -9.7210  -19.1080    8.6590 C   0  0  0  0  0  0  0  0  0  0  0  0
   -8.7253  -15.8749    5.7663 H   0  0  0  0  0  0  0  0  0  0  0  0
   -8.7535  -17.6252    5.3636 H   0  0  0  0  0  0  0  0  0  0  0  0
  -10.2803  -16.6789    5.3636 H   0  0  0  0  0  0  0  0  0  0  0  0
  -11.0610  -18.3248    5.6402 H   0  0  0  0  0  0  0  0  0  0  0  0
  -12.0728  -20.5642    5.9674 H   0  0  0  0  0  0  0  0  0  0  0  0
  -12.8332  -24.4039    8.3107 H   0  0  0  0  0  0  0  0  0  0  0  0
  -10.9812  -25.2660   12.1072 H   0  0  0  0  0  0  0  0  0  0  0  0
   -9.8047  -23.0717   12.0182 H   0  0  0  0  0  0  0  0  0  0  0  0
   -9.6290  -20.6370   11.9190 H   0  0  0  0  0  0  0  0  0  0  0  0
   -7.5319  -22.2132    9.5300 H   0  0  0  0  0  0  0  0  0  0  0  0
   -5.0494  -22.1562    9.5574 H   0  0  0  0  0  0  0  0  0  0  0  0
   -3.0470  -21.3500   11.5660 H   0  0  0  0  0  0  0  0  0  0  0  0
    0.9050  -19.3630   12.0610 H   0  0  0  0  0  0  0  0  0  0  0  0
    1.2101  -16.7183   10.7781 H   0  0  0  0  0  0  0  0  0  0  0  0
    2.3839  -17.5297   11.8915 H   0  0  0  0  0  0  0  0  0  0  0  0
    3.5715  -18.3762   10.1748 H   0  0  0  0  0  0  0  0  0  0  0  0
    2.0856  -18.9698    9.3487 H   0  0  0  0  0  0  0  0  0  0  0  0
    1.9720  -16.4010    9.1410 H   0  0  0  0  0  0  0  0  0  0  0  0
   -1.9890  -16.7810    7.8330 H   0  0  0  0  0  0  0  0  0  0  0  0
   -3.4395  -14.8866   10.3214 H   0  0  0  0  0  0  0  0  0  0  0  0
   -5.5056  -13.5228   10.0792 H   0  0  0  0  0  0  0  0  0  0  0  0
   -7.0387  -13.8968    8.1494 H   0  0  0  0  0  0  0  0  0  0  0  0
   -6.4965  -15.6526    6.4624 H   0  0  0  0  0  0  0  0  0  0  0  0
   -4.4347  -17.0201    6.7068 H   0  0  0  0  0  0  0  0  0  0  0  0
   -5.1602  -19.1190   12.6100 H   0  0  0  0  0  0  0  0  0  0  0  0
   -7.6408  -19.1772   12.5848 H   0  0  0  0  0  0  0  0  0  0  0  0
   -9.0657  -18.6845    9.4344 H   0  0  0  0  0  0  0  0  0  0  0  0
  1  2  1  0
  2  3  1  0
  3  4  2  0
  4  5  1  0
  5  6  2  0
  6  7  1  0
  7  8  2  0
  8  9  1  0
  9 10  2  0
 10 11  1  0
 10 12  1  0
 12 13  2  0
 13 14  1  0
 14 15  2  0
 15 16  1  0
 16 17  1  0
 17 18  2  0
 18 19  1  0
 19 20  2  0
 20 21  1  0
 21 22  1  0
 22 23  2  0
 23 24  1  0
 24 25  1  0
 25 26  1  0
 26 27  1  0
 27 28  1  0
 24 29  2  0
 29 30  1  0
 30 31  1  0
 31 32  1  0
 32 33  2  0
 33 34  1  0
 34 35  2  0
 35 36  1  0
 36 37  2  0
 30 38  2  0
 20 39  1  0
 39 40  2  0
 15 41  1  0
 41 42  2  0
 42  3  1  0
 41  6  1  0
 14  8  1  0
 40 17  1  0
 38 22  1  0
 37 32  1  0
  1 43  1  0
  1 44  1  0
  1 45  1  0
  4 46  1  0
  5 47  1  0
  9 48  1  0
 12 49  1  0
 13 50  1  0
 16 51  1  0
 18 52  1  0
 19 53  1  0
 21 54  1  0
 25 55  1  0
 26 56  1  0
 26 57  1  0
 27 58  1  0
 27 59  1  0
 28 60  1  0
 31 61  1  0
 33 62  1  0
 34 63  1  0
 35 64  1  0
 36 65  1  0
 37 66  1  0
 39 67  1  0
 40 68  1  0
 42 69  1  0
M  END
>  <meeko>  (8) 
{"is_sidechain": [false], "free_energy": -8.444, "intermolecular_energy": -13.023, "internal_energy": -1.927}

$$$$
LIB_TZXMBOAOKBVBBT__M_PUB_ALL__e8__s20260927
     RDKit          3D

 69 74  0  0  0  0  0  0  0  0999 V2000
  -13.8810   -7.7270   -1.3080 C   0  0  0  0  0  0  0  0  0  0  0  0
  -15.0770   -7.0900   -1.7400 O   0  0  0  0  0  0  0  0  0  0  0  0
  -15.0200   -6.4030   -2.9190 C   0  0  0  0  0  0  0  0  0  0  0  0
  -14.7150   -5.0540   -2.8010 C   0  0  0  0  0  0  0  0  0  0  0  0
  -14.6320   -4.2490   -3.9390 C   0  0  0  0  0  0  0  0  0  0  0  0
  -14.8430   -4.7580   -5.2120 C   0  0  0  0  0  0  0  0  0  0  0  0
  -14.7610   -3.9120   -6.2480 N   0  0  0  0  0  0  0  0  0  0  0  0
  -14.9670   -4.3620   -7.4920 C   0  0  0  0  0  0  0  0  0  0  0  0
  -14.8770   -3.4520   -8.5350 C   0  0  0  0  0  0  0  0  0  0  0  0
  -15.0650   -3.8430   -9.8570 C   0  0  0  0  0  0  0  0  0  0  0  0
  -14.9430   -2.6830  -11.1210 Cl  0  0  0  0  0  0  0  0  0  0  0  0
  -15.3430   -5.1670  -10.1630 C   0  0  0  0  0  0  0  0  0  0  0  0
  -15.4390   -6.0970   -9.1290 C   0  0  0  0  0  0  0  0  0  0  0  0
  -15.2610   -5.7080   -7.7780 C   0  0  0  0  0  0  0  0  0  0  0  0
  -15.3430   -6.6050   -6.6800 C   0  0  0  0  0  0  0  0  0  0  0  0
  -15.6420   -7.9710   -6.9230 N   0  0  0  0  0  0  0  0  0  0  0  0
  -14.7710   -9.0590   -7.0850 C   0  0  0  0  0  0  0  0  0  0  0  0
  -13.4220   -8.9140   -6.7500 C   0  0  0  0  0  0  0  0  0  0  0  0
  -12.5100   -9.9630   -6.9390 C   0  0  0  0  0  0  0  0  0  0  0  0
  -12.9140  -11.1870   -7.4740 C   0  0  0  0  0  0  0  0  0  0  0  0
  -12.0560  -12.2700   -7.6930 N   0  0  0  0  0  0  0  0  0  0  0  0
  -12.1460  -13.4490   -8.4320 C   0  0  0  0  0  0  0  0  0  0  0  0
  -11.8390  -13.4900   -9.7200 N   0  0  0  0  0  0  0  0  0  0  0  0
  -11.9660  -14.6640  -10.3140 C   0  0  0  0  0  0  0  0  0  0  0  0
  -11.6380  -14.6990  -11.6410 N   0  0  0  0  0  0  0  0  0  0  0  0
  -12.5550  -15.1540  -12.6670 C   0  0  0  0  0  0  0  0  0  0  0  0
  -12.1730  -16.5460  -13.1780 C   0  0  0  0  0  0  0  0  0  0  0  0
  -12.4620  -17.5310  -12.1830 O   0  0  0  0  0  0  0  0  0  0  0  0
  -12.3710  -15.7630   -9.7030 N   0  0  0  0  0  0  0  0  0  0  0  0
  -12.6630  -15.6470   -8.4160 C   0  0  0  0  0  0  0  0  0  0  0  0
  -13.0910  -16.7350   -7.6580 N   0  0  0  0  0  0  0  0  0  0  0  0
  -13.9380  -16.8820   -6.5530 C   0  0  0  0  0  0  0  0  0  0  0  0
  -13.4880  -17.0430   -5.2390 C   0  0  0  0  0  0  0  0  0  0  0  0
  -14.3860  -17.1720   -4.1740 C   0  0  0  0  0  0  0  0  0  0  0  0
  -15.7580  -17.1390   -4.4070 C   0  0  0  0  0  0  0  0  0  0  0  0
  -16.2300  -16.9780   -5.7040 C   0  0  0  0  0  0  0  0  0  0  0  0
  -15.3270  -16.8500   -6.7640 C   0  0  0  0  0  0  0  0  0  0  0  0
  -12.5600  -14.5060   -7.7430 N   0  0  0  0  0  0  0  0  0  0  0  0
  -14.2670  -11.3240   -7.8190 C   0  0  0  0  0  0  0  0  0  0  0  0
  -15.1790  -10.2770   -7.6310 C   0  0  0  0  0  0  0  0  0  0  0  0
  -15.1400   -6.1250   -5.3580 C   0  0  0  0  0  0  0  0  0  0  0  0
  -15.2420   -6.9300   -4.1900 C   0  0  0  0  0  0  0  0  0  0  0  0
  -13.8507   -7.7431   -0.2085 H   0  0  0  0  0  0  0  0  0  0  0  0
  -13.8559   -8.7580   -1.6907 H   0  0  0  0  0  0  0  0  0  0  0  0
  -13.0114   -7.1725   -1.6907 H   0  0  0  0  0  0  0  0  0  0  0  0
  -14.5380   -4.6173   -1.8070 H   0  0  0  0  0  0  0  0  0  0  0  0
  -14.3927   -3.1817   -3.8227 H   0  0  0  0  0  0  0  0  0  0  0  0
  -14.6522   -2.3985   -8.3122 H   0  0  0  0  0  0  0  0  0  0  0  0
  -15.4859   -5.4791  -11.2081 H   0  0  0  0  0  0  0  0  0  0  0  0
  -15.6563   -7.1491   -9.3654 H   0  0  0  0  0  0  0  0  0  0  0  0
  -16.6180   -8.1500   -7.1330 H   0  0  0  0  0  0  0  0  0  0  0  0
  -13.0690   -7.9603   -6.3306 H   0  0  0  0  0  0  0  0  0  0  0  0
  -11.4559   -9.8180   -6.6601 H   0  0  0  0  0  0  0  0  0  0  0  0
  -11.1530  -12.2290   -7.2420 H   0  0  0  0  0  0  0  0  0  0  0  0
  -10.7410  -14.3060  -11.8810 H   0  0  0  0  0  0  0  0  0  0  0  0
  -13.5712  -15.1928  -12.2476 H   0  0  0  0  0  0  0  0  0  0  0  0
  -12.5085  -14.4499  -13.5108 H   0  0  0  0  0  0  0  0  0  0  0  0
  -12.7477  -16.7695  -14.0889 H   0  0  0  0  0  0  0  0  0  0  0  0
  -11.0960  -16.5646  -13.4009 H   0  0  0  0  0  0  0  0  0  0  0  0
  -12.6180  -17.0240  -11.3640 H   0  0  0  0  0  0  0  0  0  0  0  0
  -12.6680  -17.5800   -8.0150 H   0  0  0  0  0  0  0  0  0  0  0  0
  -12.4067  -17.0687   -5.0387 H   0  0  0  0  0  0  0  0  0  0  0  0
  -14.0067  -17.2999   -3.1494 H   0  0  0  0  0  0  0  0  0  0  0  0
  -16.4641  -17.2397   -3.5696 H   0  0  0  0  0  0  0  0  0  0  0  0
  -17.3127  -16.9513   -5.8966 H   0  0  0  0  0  0  0  0  0  0  0  0
  -15.7126  -16.7214   -7.7861 H   0  0  0  0  0  0  0  0  0  0  0  0
  -14.6196  -12.2742   -8.2465 H   0  0  0  0  0  0  0  0  0  0  0  0
  -16.2317  -10.4170   -7.9178 H   0  0  0  0  0  0  0  0  0  0  0  0
  -15.5023   -7.9939   -4.2922 H   0  0  0  0  0  0  0  0  0  0  0  0
  1  2  1  0
  2  3  1  0
  3  4  2  0
  4  5  1  0
  5  6  2  0
  6  7  1  0
  7  8  2  0
  8  9  1  0
  9 10  2  0
 10 11  1  0
 10 12  1  0
 12 13  2  0
 13 14  1  0
 14 15  2  0
 15 16  1  0
 16 17  1  0
 17 18  2  0
 18 19  1  0
 19 20  2  0
 20 21  1  0
 21 22  1  0
 22 23  2  0
 23 24  1  0
 24 25  1  0
 25 26  1  0
 26 27  1  0
 27 28  1  0
 24 29  2  0
 29 30  1  0
 30 31  1  0
 31 32  1  0
 32 33  2  0
 33 34  1  0
 34 35  2  0
 35 36  1  0
 36 37  2  0
 30 38  2  0
 20 39  1  0
 39 40  2  0
 15 41  1  0
 41 42  2  0
 42  3  1  0
 41  6  1  0
 14  8  1  0
 40 17  1  0
 38 22  1  0
 37 32  1  0
  1 43  1  0
  1 44  1  0
  1 45  1  0
  4 46  1  0
  5 47  1  0
  9 48  1  0
 12 49  1  0
 13 50  1  0
 16 51  1  0
 18 52  1  0
 19 53  1  0
 21 54  1  0
 25 55  1  0
 26 56  1  0
 26 57  1  0
 27 58  1  0
 27 59  1  0
 28 60  1  0
 31 61  1  0
 33 62  1  0
 34 63  1  0
 35 64  1  0
 36 65  1  0
 37 66  1  0
 39 67  1  0
 40 68  1  0
 42 69  1  0
M  END
>  <meeko>  (9) 
{"is_sidechain": [false], "free_energy": -8.363, "intermolecular_energy": -13.032, "internal_energy": -1.789}

$$$$
