LIB_QTVNFRLKAGKBPS__M_PUB_ALL__e8__s20260927
     RDKit          3D

 86 91  0  0  0  0  0  0  0  0999 V2000
   11.5500  -13.6740   -4.1110 C   0  0  0  0  0  0  0  0  0  0  0  0
   12.6980  -14.0970   -3.2110 C   0  0  0  0  0  0  0  0  0  0  0  0
   13.0830  -12.9640   -2.2940 N   0  0  0  0  0  0  0  0  0  0  0  0
   11.9010  -12.4580   -1.4650 C   0  0  0  0  0  0  0  0  0  0  0  0
   11.6520  -13.3940   -0.2770 C   0  0  0  0  0  0  0  0  0  0  0  0
   10.2560  -13.3390    0.0550 O   0  0  0  0  0  0  0  0  0  0  0  0
    9.4560  -13.9850   -0.9590 C   0  0  0  0  0  0  0  0  0  0  0  0
    8.2250  -13.1320   -1.2880 C   0  0  0  0  0  0  0  0  0  0  0  0
    7.1380  -13.9650   -1.7750 N   0  0  0  0  0  0  0  0  0  0  0  0
    6.0080  -14.4060   -1.1120 C   0  0  0  0  0  0  0  0  0  0  0  0
    5.1300  -15.0680   -1.8970 C   0  0  0  0  0  0  0  0  0  0  0  0
    5.7470  -15.0230   -3.2380 C   0  0  0  0  0  0  0  0  0  0  0  0
    5.3230  -15.5180   -4.4590 C   0  0  0  0  0  0  0  0  0  0  0  0
    6.1460  -15.3160   -5.5690 C   0  0  0  0  0  0  0  0  0  0  0  0
    7.3670  -14.6320   -5.4430 C   0  0  0  0  0  0  0  0  0  0  0  0
    7.7900  -14.1360   -4.2060 C   0  0  0  0  0  0  0  0  0  0  0  0
    6.9760  -14.3360   -3.1080 C   0  0  0  0  0  0  0  0  0  0  0  0
    3.8740  -15.6320   -1.5010 C   0  0  0  0  0  0  0  0  0  0  0  0
    2.6860  -15.0400   -1.2950 C   0  0  0  0  0  0  0  0  0  0  0  0
    1.7150  -16.1270   -1.0030 C   0  0  0  0  0  0  0  0  0  0  0  0
    0.5090  -15.9940   -0.9010 O   0  0  0  0  0  0  0  0  0  0  0  0
    2.3980  -17.2850   -0.9570 N   0  0  0  0  0  0  0  0  0  0  0  0
    3.6840  -17.0890   -1.3050 C   0  0  0  0  0  0  0  0  0  0  0  0
    4.5170  -17.9540   -1.4940 O   0  0  0  0  0  0  0  0  0  0  0  0
    2.3050  -13.6550   -1.3560 C   0  0  0  0  0  0  0  0  0  0  0  0
    1.7310  -12.9570   -0.3510 C   0  0  0  0  0  0  0  0  0  0  0  0
    1.4440  -11.6370   -0.6550 N   0  0  0  0  0  0  0  0  0  0  0  0
    1.9520  -11.4210   -1.9310 C   0  0  0  0  0  0  0  0  0  0  0  0
    2.0010  -10.2680   -2.6920 C   0  0  0  0  0  0  0  0  0  0  0  0
    2.5830  -10.3390   -3.9620 C   0  0  0  0  0  0  0  0  0  0  0  0
    3.1140  -11.5460   -4.4450 C   0  0  0  0  0  0  0  0  0  0  0  0
    3.0760  -12.7070   -3.6680 C   0  0  0  0  0  0  0  0  0  0  0  0
    2.4800  -12.6420   -2.4210 C   0  0  0  0  0  0  0  0  0  0  0  0
    0.8710  -10.6350    0.2320 C   0  0  0  0  0  0  0  0  0  0  0  0
   -0.4560  -11.1660    0.8190 C   0  0  0  0  0  0  0  0  0  0  0  0
   -1.5640  -10.1110    0.6830 N   0  0  0  0  0  0  0  0  0  0  0  0
   -1.7310   -9.2430    1.9110 C   0  0  0  0  0  0  0  0  0  0  0  0
   -1.5470  -10.0230    3.2020 C   0  0  0  0  0  0  0  0  0  0  0  0
   -2.8670  -10.6210    0.0950 C   0  0  0  0  0  0  0  0  0  0  0  0
   -3.1100  -12.1000    0.4510 C   0  0  0  0  0  0  0  0  0  0  0  0
   -3.9820  -12.2710    1.5760 O   0  0  0  0  0  0  0  0  0  0  0  0
   -5.2000  -12.9640    1.2700 C   0  0  0  0  0  0  0  0  0  0  0  0
   13.8340  -11.8390   -2.9800 C   0  0  0  0  0  0  0  0  0  0  0  0
   10.6962  -13.3594   -3.4929 H   0  0  0  0  0  0  0  0  0  0  0  0
   11.8717  -12.8354   -4.7460 H   0  0  0  0  0  0  0  0  0  0  0  0
   11.2506  -14.5209   -4.7460 H   0  0  0  0  0  0  0  0  0  0  0  0
   12.3875  -14.9632   -2.6083 H   0  0  0  0  0  0  0  0  0  0  0  0
   13.5637  -14.3653   -3.8343 H   0  0  0  0  0  0  0  0  0  0  0  0
   13.7490  -13.3250   -1.5800 H   0  0  0  0  0  0  0  0  0  0  0  0
   12.1244  -11.4477   -1.0916 H   0  0  0  0  0  0  0  0  0  0  0  0
   11.0018  -12.4326   -2.0981 H   0  0  0  0  0  0  0  0  0  0  0  0
   11.9293  -14.4230   -0.5496 H   0  0  0  0  0  0  0  0  0  0  0  0
   12.2594  -13.0819    0.5854 H   0  0  0  0  0  0  0  0  0  0  0  0
   10.0601  -14.1166   -1.8688 H   0  0  0  0  0  0  0  0  0  0  0  0
    9.1234  -14.9638   -0.5831 H   0  0  0  0  0  0  0  0  0  0  0  0
    7.8973  -12.6054   -0.3795 H   0  0  0  0  0  0  0  0  0  0  0  0
    8.4950  -12.4090   -2.0718 H   0  0  0  0  0  0  0  0  0  0  0  0
    5.8385  -14.2330   -0.0390 H   0  0  0  0  0  0  0  0  0  0  0  0
    4.3670  -16.0541   -4.5522 H   0  0  0  0  0  0  0  0  0  0  0  0
    5.8349  -15.6966   -6.5531 H   0  0  0  0  0  0  0  0  0  0  0  0
    7.9995  -14.4846   -6.3308 H   0  0  0  0  0  0  0  0  0  0  0  0
    8.7460  -13.6005   -4.1097 H   0  0  0  0  0  0  0  0  0  0  0  0
    1.9890  -18.1890   -0.7820 H   0  0  0  0  0  0  0  0  0  0  0  0
    1.5095  -13.4021    0.6302 H   0  0  0  0  0  0  0  0  0  0  0  0
    1.5935   -9.3206   -2.3093 H   0  0  0  0  0  0  0  0  0  0  0  0
    2.6253   -9.4374   -4.5907 H   0  0  0  0  0  0  0  0  0  0  0  0
    3.5655  -11.5780   -5.4475 H   0  0  0  0  0  0  0  0  0  0  0  0
    3.5087  -13.6481   -4.0382 H   0  0  0  0  0  0  0  0  0  0  0  0
    1.5753  -10.4236    1.0501 H   0  0  0  0  0  0  0  0  0  0  0  0
    0.6784   -9.7114   -0.3336 H   0  0  0  0  0  0  0  0  0  0  0  0
   -0.7536  -12.0756    0.2767 H   0  0  0  0  0  0  0  0  0  0  0  0
   -0.3084  -11.3919    1.8854 H   0  0  0  0  0  0  0  0  0  0  0  0
   -1.1830   -9.4660   -0.0310 H   0  0  0  0  0  0  0  0  0  0  0  0
   -0.9847   -8.4356    1.8768 H   0  0  0  0  0  0  0  0  0  0  0  0
   -2.7565   -8.8452    1.9032 H   0  0  0  0  0  0  0  0  0  0  0  0
   -1.7049   -9.3536    4.0605 H   0  0  0  0  0  0  0  0  0  0  0  0
   -2.2756  -10.8462    3.2400 H   0  0  0  0  0  0  0  0  0  0  0  0
   -0.5273  -10.4338    3.2400 H   0  0  0  0  0  0  0  0  0  0  0  0
   -3.6974  -10.0176    0.4906 H   0  0  0  0  0  0  0  0  0  0  0  0
   -2.8064  -10.5364   -1.0001 H   0  0  0  0  0  0  0  0  0  0  0  0
   -3.5591  -12.6005   -0.4195 H   0  0  0  0  0  0  0  0  0  0  0  0
   -2.1371  -12.5370    0.7203 H   0  0  0  0  0  0  0  0  0  0  0  0
   -5.6296  -13.7441    1.9156 H   0  0  0  0  0  0  0  0  0  0  0  0
   -6.2130  -12.8449    0.8581 H   0  0  0  0  0  0  0  0  0  0  0  0
   14.1964  -11.9398   -4.0137 H   0  0  0  0  0  0  0  0  0  0  0  0
   14.6860  -11.1731   -2.7783 H   0  0  0  0  0  0  0  0  0  0  0  0
  1  2  1  0
  2  3  1  0
  3  4  1  0
  4  5  1  0
  5  6  1  0
  6  7  1  0
  7  8  1  0
  8  9  1  0
  9 10  1  0
 10 11  2  0
 11 12  1  0
 12 13  2  0
 13 14  1  0
 14 15  2  0
 15 16  1  0
 16 17  2  0
 11 18  1  0
 18 19  2  0
 19 20  1  0
 20 21  2  0
 20 22  1  0
 22 23  1  0
 23 24  2  0
 19 25  1  0
 25 26  2  0
 26 27  1  0
 27 28  1  0
 28 29  2  0
 29 30  1  0
 30 31  2  0
 31 32  1  0
 32 33  2  0
 27 34  1  0
 34 35  1  0
 35 36  1  0
 36 37  1  0
 37 38  1  0
 36 39  1  0
 39 40  1  0
 40 41  1  0
 41 42  1  0
 42 43  1  0
 43  3  1  0
 17  9  1  0
 23 18  1  0
 33 25  1  0
 17 12  1  0
 33 28  1  0
  1 44  1  0
  1 45  1  0
  1 46  1  0
  2 47  1  0
  2 48  1  0
  3 49  1  0
  4 50  1  0
  4 51  1  0
  5 52  1  0
  5 53  1  0
  7 54  1  0
  7 55  1  0
  8 56  1  0
  8 57  1  0
 10 58  1  0
 13 59  1  0
 14 60  1  0
 15 61  1  0
 16 62  1  0
 22 63  1  0
 26 64  1  0
 29 65  1  0
 30 66  1  0
 31 67  1  0
 32 68  1  0
 34 69  1  0
 34 70  1  0
 35 71  1  0
 35 72  1  0
 36 73  1  0
 37 74  1  0
 37 75  1  0
 38 76  1  0
 38 77  1  0
 38 78  1  0
 39 79  1  0
 39 80  1  0
 40 81  1  0
 40 82  1  0
 42 83  1  0
 42 84  1  0
 43 85  1  0
 43 86  1  0
M  CHG  2   3   1  36   1
M  END
>  <meeko>  (1) 
{"is_sidechain": [false], "free_energy": -6.573, "intermolecular_energy": -13.49, "internal_energy": -2.682}

$$$$
LIB_QTVNFRLKAGKBPS__M_PUB_ALL__e8__s20260927
     RDKit          3D

 86 91  0  0  0  0  0  0  0  0999 V2000
   13.4640  -11.8210   -2.8050 C   0  0  0  0  0  0  0  0  0  0  0  0
   12.4770  -12.5320   -1.8980 C   0  0  0  0  0  0  0  0  0  0  0  0
   12.7580  -12.1930   -0.4560 N   0  0  0  0  0  0  0  0  0  0  0  0
   11.6680  -12.7060    0.4860 C   0  0  0  0  0  0  0  0  0  0  0  0
   10.2970  -12.6040   -0.1910 C   0  0  0  0  0  0  0  0  0  0  0  0
    9.3250  -12.2600    0.8090 O   0  0  0  0  0  0  0  0  0  0  0  0
    8.0880  -11.8290    0.2020 C   0  0  0  0  0  0  0  0  0  0  0  0
    6.8920  -12.3430    1.0140 C   0  0  0  0  0  0  0  0  0  0  0  0
    6.0040  -13.1320    0.1760 N   0  0  0  0  0  0  0  0  0  0  0  0
    5.3130  -12.7600   -0.9610 C   0  0  0  0  0  0  0  0  0  0  0  0
    4.6690  -13.7770   -1.5740 C   0  0  0  0  0  0  0  0  0  0  0  0
    5.0100  -14.9590   -0.7550 C   0  0  0  0  0  0  0  0  0  0  0  0
    4.6610  -16.2920   -0.8810 C   0  0  0  0  0  0  0  0  0  0  0  0
    5.1470  -17.1900    0.0720 C   0  0  0  0  0  0  0  0  0  0  0  0
    5.9630  -16.7450    1.1260 C   0  0  0  0  0  0  0  0  0  0  0  0
    6.3110  -15.3960    1.2480 C   0  0  0  0  0  0  0  0  0  0  0  0
    5.8300  -14.5080    0.3050 C   0  0  0  0  0  0  0  0  0  0  0  0
    3.8820  -13.7060   -2.7690 C   0  0  0  0  0  0  0  0  0  0  0  0
    2.5480  -13.7170   -2.9300 C   0  0  0  0  0  0  0  0  0  0  0  0
    2.2930  -13.5130   -4.3790 C   0  0  0  0  0  0  0  0  0  0  0  0
    1.2040  -13.3240   -4.8890 O   0  0  0  0  0  0  0  0  0  0  0  0
    3.4840  -13.4900   -5.0050 N   0  0  0  0  0  0  0  0  0  0  0  0
    4.4890  -13.5360   -4.1110 C   0  0  0  0  0  0  0  0  0  0  0  0
    5.6720  -13.3930   -4.3520 O   0  0  0  0  0  0  0  0  0  0  0  0
    1.4890  -13.8500   -1.9660 C   0  0  0  0  0  0  0  0  0  0  0  0
    0.7150  -14.9460   -1.8030 C   0  0  0  0  0  0  0  0  0  0  0  0
   -0.2490  -14.8300   -0.8160 N   0  0  0  0  0  0  0  0  0  0  0  0
   -0.0360  -13.5930   -0.2180 C   0  0  0  0  0  0  0  0  0  0  0  0
   -0.6640  -12.9990    0.8610 C   0  0  0  0  0  0  0  0  0  0  0  0
   -0.2340  -11.7280    1.2570 C   0  0  0  0  0  0  0  0  0  0  0  0
    0.8140  -11.0800    0.5850 C   0  0  0  0  0  0  0  0  0  0  0  0
    1.4570  -11.6880   -0.4960 C   0  0  0  0  0  0  0  0  0  0  0  0
    1.0170  -12.9350   -0.9020 C   0  0  0  0  0  0  0  0  0  0  0  0
   -1.1930  -15.8510   -0.3850 C   0  0  0  0  0  0  0  0  0  0  0  0
   -0.4290  -16.9890    0.3290 C   0  0  0  0  0  0  0  0  0  0  0  0
    0.1370  -16.4990    1.6700 N   0  0  0  0  0  0  0  0  0  0  0  0
    1.6370  -16.6560    1.7900 C   0  0  0  0  0  0  0  0  0  0  0  0
    2.3610  -15.3220    1.8160 C   0  0  0  0  0  0  0  0  0  0  0  0
   -0.6400  -16.9430    2.8960 C   0  0  0  0  0  0  0  0  0  0  0  0
   -1.8310  -17.8430    2.5170 C   0  0  0  0  0  0  0  0  0  0  0  0
   -3.0920  -17.3230    2.9590 O   0  0  0  0  0  0  0  0  0  0  0  0
   -3.8230  -18.2160    3.8110 C   0  0  0  0  0  0  0  0  0  0  0  0
   13.0910  -10.7320   -0.2160 C   0  0  0  0  0  0  0  0  0  0  0  0
   14.2055  -11.2868   -2.1928 H   0  0  0  0  0  0  0  0  0  0  0  0
   13.9760  -12.5591   -3.4399 H   0  0  0  0  0  0  0  0  0  0  0  0
   12.9260  -11.1016   -3.4399 H   0  0  0  0  0  0  0  0  0  0  0  0
   11.4551  -12.2149   -2.1534 H   0  0  0  0  0  0  0  0  0  0  0  0
   12.5789  -13.6183   -2.0379 H   0  0  0  0  0  0  0  0  0  0  0  0
   13.6100  -12.7070   -0.1520 H   0  0  0  0  0  0  0  0  0  0  0  0
   11.8713  -13.7568    0.7398 H   0  0  0  0  0  0  0  0  0  0  0  0
   11.6648  -12.0944    1.4003 H   0  0  0  0  0  0  0  0  0  0  0  0
   10.3228  -11.8258   -0.9680 H   0  0  0  0  0  0  0  0  0  0  0  0
   10.0341  -13.5631   -0.6612 H   0  0  0  0  0  0  0  0  0  0  0  0
    8.0615  -10.7297    0.1723 H   0  0  0  0  0  0  0  0  0  0  0  0
    8.0291  -12.2338   -0.8191 H   0  0  0  0  0  0  0  0  0  0  0  0
    7.2589  -12.9687    1.8410 H   0  0  0  0  0  0  0  0  0  0  0  0
    6.3341  -11.4804    1.4072 H   0  0  0  0  0  0  0  0  0  0  0  0
    5.2893  -11.7257   -1.3346 H   0  0  0  0  0  0  0  0  0  0  0  0
    4.0201  -16.6342   -1.7069 H   0  0  0  0  0  0  0  0  0  0  0  0
    4.8884  -18.2565   -0.0033 H   0  0  0  0  0  0  0  0  0  0  0  0
    6.3338  -17.4690    1.8666 H   0  0  0  0  0  0  0  0  0  0  0  0
    6.9511  -15.0508    2.0733 H   0  0  0  0  0  0  0  0  0  0  0  0
    3.6110  -13.3600   -5.9960 H   0  0  0  0  0  0  0  0  0  0  0  0
    0.8409  -15.8572   -2.4062 H   0  0  0  0  0  0  0  0  0  0  0  0
   -1.4790  -13.5114    1.3932 H   0  0  0  0  0  0  0  0  0  0  0  0
   -0.7239  -11.2298    2.1066 H   0  0  0  0  0  0  0  0  0  0  0  0
    1.1333  -10.0801    0.9139 H   0  0  0  0  0  0  0  0  0  0  0  0
    2.2910  -11.1884   -1.0106 H   0  0  0  0  0  0  0  0  0  0  0  0
   -1.9222  -15.4071    0.3087 H   0  0  0  0  0  0  0  0  0  0  0  0
   -1.7207  -16.2563   -1.2609 H   0  0  0  0  0  0  0  0  0  0  0  0
   -1.1168  -17.8278    0.5114 H   0  0  0  0  0  0  0  0  0  0  0  0
    0.4044  -17.3139   -0.3112 H   0  0  0  0  0  0  0  0  0  0  0  0
   -0.0050  -15.4750    1.6200 H   0  0  0  0  0  0  0  0  0  0  0  0
    1.8617  -17.1975    2.7208 H   0  0  0  0  0  0  0  0  0  0  0  0
    1.9869  -17.2090    0.9058 H   0  0  0  0  0  0  0  0  0  0  0  0
    2.5274  -15.0154    2.8592 H   0  0  0  0  0  0  0  0  0  0  0  0
    3.3295  -15.4204    1.3038 H   0  0  0  0  0  0  0  0  0  0  0  0
    1.7507  -14.5636    1.3038 H   0  0  0  0  0  0  0  0  0  0  0  0
    0.0331  -17.5031    3.5617 H   0  0  0  0  0  0  0  0  0  0  0  0
   -1.0323  -16.0464    3.3981 H   0  0  0  0  0  0  0  0  0  0  0  0
   -1.8586  -17.9445    1.4220 H   0  0  0  0  0  0  0  0  0  0  0  0
   -1.6823  -18.8115    3.0168 H   0  0  0  0  0  0  0  0  0  0  0  0
   -4.4530  -17.8780    4.6470 H   0  0  0  0  0  0  0  0  0  0  0  0
   -4.4068  -19.1477    3.8438 H   0  0  0  0  0  0  0  0  0  0  0  0
   13.2074  -10.0399   -1.0631 H   0  0  0  0  0  0  0  0  0  0  0  0
   13.8633  -10.1730    0.3327 H   0  0  0  0  0  0  0  0  0  0  0  0
  1  2  1  0
  2  3  1  0
  3  4  1  0
  4  5  1  0
  5  6  1  0
  6  7  1  0
  7  8  1  0
  8  9  1  0
  9 10  1  0
 10 11  2  0
 11 12  1  0
 12 13  2  0
 13 14  1  0
 14 15  2  0
 15 16  1  0
 16 17  2  0
 11 18  1  0
 18 19  2  0
 19 20  1  0
 20 21  2  0
 20 22  1  0
 22 23  1  0
 23 24  2  0
 19 25  1  0
 25 26  2  0
 26 27  1  0
 27 28  1  0
 28 29  2  0
 29 30  1  0
 30 31  2  0
 31 32  1  0
 32 33  2  0
 27 34  1  0
 34 35  1  0
 35 36  1  0
 36 37  1  0
 37 38  1  0
 36 39  1  0
 39 40  1  0
 40 41  1  0
 41 42  1  0
 42 43  1  0
 43  3  1  0
 17  9  1  0
 23 18  1  0
 33 25  1  0
 17 12  1  0
 33 28  1  0
  1 44  1  0
  1 45  1  0
  1 46  1  0
  2 47  1  0
  2 48  1  0
  3 49  1  0
  4 50  1  0
  4 51  1  0
  5 52  1  0
  5 53  1  0
  7 54  1  0
  7 55  1  0
  8 56  1  0
  8 57  1  0
 10 58  1  0
 13 59  1  0
 14 60  1  0
 15 61  1  0
 16 62  1  0
 22 63  1  0
 26 64  1  0
 29 65  1  0
 30 66  1  0
 31 67  1  0
 32 68  1  0
 34 69  1  0
 34 70  1  0
 35 71  1  0
 35 72  1  0
 36 73  1  0
 37 74  1  0
 37 75  1  0
 38 76  1  0
 38 77  1  0
 38 78  1  0
 39 79  1  0
 39 80  1  0
 40 81  1  0
 40 82  1  0
 42 83  1  0
 42 84  1  0
 43 85  1  0
 43 86  1  0
M  CHG  2   3   1  36   1
M  END
>  <meeko>  (2) 
{"is_sidechain": [false], "free_energy": -6.498, "intermolecular_energy": -12.583, "internal_energy": -3.435}

$$$$
LIB_QTVNFRLKAGKBPS__M_PUB_ALL__e8__s20260927
     RDKit          3D

 86 91  0  0  0  0  0  0  0  0999 V2000
   13.0860  -11.0900   -0.6610 C   0  0  0  0  0  0  0  0  0  0  0  0
   12.3340  -12.1250   -1.4800 C   0  0  0  0  0  0  0  0  0  0  0  0
   12.6860  -11.9880   -2.9400 N   0  0  0  0  0  0  0  0  0  0  0  0
   12.0430  -13.0790   -3.7980 C   0  0  0  0  0  0  0  0  0  0  0  0
   11.5050  -14.2020   -2.9040 C   0  0  0  0  0  0  0  0  0  0  0  0
   10.1850  -14.5430   -3.3550 O   0  0  0  0  0  0  0  0  0  0  0  0
    9.1780  -13.8900   -2.5520 C   0  0  0  0  0  0  0  0  0  0  0  0
    8.7670  -14.7920   -1.3800 C   0  0  0  0  0  0  0  0  0  0  0  0
    7.3900  -14.5340   -0.9930 N   0  0  0  0  0  0  0  0  0  0  0  0
    6.2570  -15.2860   -1.2360 C   0  0  0  0  0  0  0  0  0  0  0  0
    5.1450  -14.8220   -0.6260 C   0  0  0  0  0  0  0  0  0  0  0  0
    5.6190  -13.6460    0.1330 C   0  0  0  0  0  0  0  0  0  0  0  0
    4.9520  -12.7610    0.9620 C   0  0  0  0  0  0  0  0  0  0  0  0
    5.6890  -11.7270    1.5440 C   0  0  0  0  0  0  0  0  0  0  0  0
    7.0650  -11.5940    1.2890 C   0  0  0  0  0  0  0  0  0  0  0  0
    7.7310  -12.4910    0.4490 C   0  0  0  0  0  0  0  0  0  0  0  0
    7.0030  -13.5140   -0.1260 C   0  0  0  0  0  0  0  0  0  0  0  0
    3.8290  -15.3870   -0.6810 C   0  0  0  0  0  0  0  0  0  0  0  0
    2.6570  -14.8210   -1.0120 C   0  0  0  0  0  0  0  0  0  0  0  0
    1.6410  -15.9060   -0.9950 C   0  0  0  0  0  0  0  0  0  0  0  0
    0.4900  -15.8070   -1.3780 O   0  0  0  0  0  0  0  0  0  0  0  0
    2.2470  -17.0270   -0.5630 N   0  0  0  0  0  0  0  0  0  0  0  0
    3.5690  -16.8210   -0.4120 C   0  0  0  0  0  0  0  0  0  0  0  0
    4.4050  -17.6700   -0.1700 O   0  0  0  0  0  0  0  0  0  0  0  0
    2.3380  -13.4650   -1.3690 C   0  0  0  0  0  0  0  0  0  0  0  0
    1.5970  -12.6150   -0.6230 C   0  0  0  0  0  0  0  0  0  0  0  0
    1.4160  -11.3620   -1.1850 N   0  0  0  0  0  0  0  0  0  0  0  0
    2.1740  -11.3540   -2.3510 C   0  0  0  0  0  0  0  0  0  0  0  0
    2.4090  -10.3390   -3.2600 C   0  0  0  0  0  0  0  0  0  0  0  0
    3.2290  -10.6140   -4.3590 C   0  0  0  0  0  0  0  0  0  0  0  0
    3.8080  -11.8820   -4.5270 C   0  0  0  0  0  0  0  0  0  0  0  0
    3.5810  -12.9020   -3.6000 C   0  0  0  0  0  0  0  0  0  0  0  0
    2.7510  -12.6370   -2.5240 C   0  0  0  0  0  0  0  0  0  0  0  0
    0.7090  -10.2310   -0.6020 C   0  0  0  0  0  0  0  0  0  0  0  0
    0.1920  -10.6160    0.8030 C   0  0  0  0  0  0  0  0  0  0  0  0
   -1.3250  -10.8570    0.7690 N   0  0  0  0  0  0  0  0  0  0  0  0
   -2.1330   -9.7250    1.3650 C   0  0  0  0  0  0  0  0  0  0  0  0
   -1.5400   -9.2100    2.6650 C   0  0  0  0  0  0  0  0  0  0  0  0
   -1.7640  -12.2410    1.2110 C   0  0  0  0  0  0  0  0  0  0  0  0
   -2.6330  -12.9280    0.1410 C   0  0  0  0  0  0  0  0  0  0  0  0
   -3.9600  -12.3900    0.0640 O   0  0  0  0  0  0  0  0  0  0  0  0
   -4.9070  -13.0480    0.9160 C   0  0  0  0  0  0  0  0  0  0  0  0
   14.1720  -11.8410   -3.2080 C   0  0  0  0  0  0  0  0  0  0  0  0
   12.9388  -11.2925    0.4101 H   0  0  0  0  0  0  0  0  0  0  0  0
   14.1585  -11.1419   -0.9000 H   0  0  0  0  0  0  0  0  0  0  0  0
   12.7052  -10.0861   -0.9000 H   0  0  0  0  0  0  0  0  0  0  0  0
   12.6079  -13.1322   -1.1329 H   0  0  0  0  0  0  0  0  0  0  0  0
   11.2528  -11.9663   -1.3545 H   0  0  0  0  0  0  0  0  0  0  0  0
   12.2670  -11.1080   -3.3030 H   0  0  0  0  0  0  0  0  0  0  0  0
   11.2140  -12.6457   -4.3767 H   0  0  0  0  0  0  0  0  0  0  0  0
   12.7993  -13.4930   -4.4811 H   0  0  0  0  0  0  0  0  0  0  0  0
   12.1616  -15.0816   -2.9758 H   0  0  0  0  0  0  0  0  0  0  0  0
   11.4738  -13.8703   -1.8557 H   0  0  0  0  0  0  0  0  0  0  0  0
    9.5827  -12.9457   -2.1591 H   0  0  0  0  0  0  0  0  0  0  0  0
    8.2953  -13.6893   -3.1770 H   0  0  0  0  0  0  0  0  0  0  0  0
    8.8661  -15.8450   -1.6824 H   0  0  0  0  0  0  0  0  0  0  0  0
    9.4219  -14.5786   -0.5223 H   0  0  0  0  0  0  0  0  0  0  0  0
    6.2602  -16.1843   -1.8709 H   0  0  0  0  0  0  0  0  0  0  0  0
    3.8747  -12.8686    1.1566 H   0  0  0  0  0  0  0  0  0  0  0  0
    5.1872  -11.0089    2.2092 H   0  0  0  0  0  0  0  0  0  0  0  0
    7.6259  -10.7718    1.7574 H   0  0  0  0  0  0  0  0  0  0  0  0
    8.8078  -12.3847    0.2510 H   0  0  0  0  0  0  0  0  0  0  0  0
    1.7960  -17.9220   -0.4580 H   0  0  0  0  0  0  0  0  0  0  0  0
    1.1720  -12.8960    0.3519 H   0  0  0  0  0  0  0  0  0  0  0  0
    1.9633   -9.3428   -3.1226 H   0  0  0  0  0  0  0  0  0  0  0  0
    3.4230   -9.8262   -5.1018 H   0  0  0  0  0  0  0  0  0  0  0  0
    4.4488  -12.0747   -5.4001 H   0  0  0  0  0  0  0  0  0  0  0  0
    4.0494  -13.8898   -3.7217 H   0  0  0  0  0  0  0  0  0  0  0  0
    1.3935   -9.3739   -0.5188 H   0  0  0  0  0  0  0  0  0  0  0  0
   -0.1417   -9.9595   -1.2443 H   0  0  0  0  0  0  0  0  0  0  0  0
    0.6974  -11.5346    1.1358 H   0  0  0  0  0  0  0  0  0  0  0  0
    0.4065   -9.7923    1.4998 H   0  0  0  0  0  0  0  0  0  0  0  0
   -1.5430  -10.8170   -0.2410 H   0  0  0  0  0  0  0  0  0  0  0  0
   -2.1686   -8.8975    0.6411 H   0  0  0  0  0  0  0  0  0  0  0  0
   -3.1387  -10.1119    1.5860 H   0  0  0  0  0  0  0  0  0  0  0  0
   -2.0670   -9.6677    3.5151 H   0  0  0  0  0  0  0  0  0  0  0  0
   -0.4728   -9.4728    2.7107 H   0  0  0  0  0  0  0  0  0  0  0  0
   -1.6507   -8.1165    2.7107 H   0  0  0  0  0  0  0  0  0  0  0  0
   -0.8714  -12.8568    1.3955 H   0  0  0  0  0  0  0  0  0  0  0  0
   -2.3644  -12.1358    2.1267 H   0  0  0  0  0  0  0  0  0  0  0  0
   -2.1471  -12.8029   -0.8379 H   0  0  0  0  0  0  0  0  0  0  0  0
   -2.7243  -13.9873    0.4230 H   0  0  0  0  0  0  0  0  0  0  0  0
   -5.3654  -12.5660    1.7921 H   0  0  0  0  0  0  0  0  0  0  0  0
   -5.7717  -13.7279    0.9221 H   0  0  0  0  0  0  0  0  0  0  0  0
   14.6191  -11.1663   -3.9529 H   0  0  0  0  0  0  0  0  0  0  0  0
   14.3850  -12.6056   -2.4464 H   0  0  0  0  0  0  0  0  0  0  0  0
  1  2  1  0
  2  3  1  0
  3  4  1  0
  4  5  1  0
  5  6  1  0
  6  7  1  0
  7  8  1  0
  8  9  1  0
  9 10  1  0
 10 11  2  0
 11 12  1  0
 12 13  2  0
 13 14  1  0
 14 15  2  0
 15 16  1  0
 16 17  2  0
 11 18  1  0
 18 19  2  0
 19 20  1  0
 20 21  2  0
 20 22  1  0
 22 23  1  0
 23 24  2  0
 19 25  1  0
 25 26  2  0
 26 27  1  0
 27 28  1  0
 28 29  2  0
 29 30  1  0
 30 31  2  0
 31 32  1  0
 32 33  2  0
 27 34  1  0
 34 35  1  0
 35 36  1  0
 36 37  1  0
 37 38  1  0
 36 39  1  0
 39 40  1  0
 40 41  1  0
 41 42  1  0
 42 43  1  0
 43  3  1  0
 17  9  1  0
 23 18  1  0
 33 25  1  0
 17 12  1  0
 33 28  1  0
  1 44  1  0
  1 45  1  0
  1 46  1  0
  2 47  1  0
  2 48  1  0
  3 49  1  0
  4 50  1  0
  4 51  1  0
  5 52  1  0
  5 53  1  0
  7 54  1  0
  7 55  1  0
  8 56  1  0
  8 57  1  0
 10 58  1  0
 13 59  1  0
 14 60  1  0
 15 61  1  0
 16 62  1  0
 22 63  1  0
 26 64  1  0
 29 65  1  0
 30 66  1  0
 31 67  1  0
 32 68  1  0
 34 69  1  0
 34 70  1  0
 35 71  1  0
 35 72  1  0
 36 73  1  0
 37 74  1  0
 37 75  1  0
 38 76  1  0
 38 77  1  0
 38 78  1  0
 39 79  1  0
 39 80  1  0
 40 81  1  0
 40 82  1  0
 42 83  1  0
 42 84  1  0
 43 85  1  0
 43 86  1  0
M  CHG  2   3   1  36   1
M  END
>  <meeko>  (3) 
{"is_sidechain": [false], "free_energy": -6.493, "intermolecular_energy": -13.551, "internal_energy": -2.457}

$$$$
LIB_QTVNFRLKAGKBPS__M_PUB_ALL__e8__s20260927
     RDKit          3D

 86 91  0  0  0  0  0  0  0  0999 V2000
   -4.1300  -10.7950   -0.5910 C   0  0  0  0  0  0  0  0  0  0  0  0
   -3.2940  -11.3070    0.5680 C   0  0  0  0  0  0  0  0  0  0  0  0
   -3.6560  -12.7370    0.8780 N   0  0  0  0  0  0  0  0  0  0  0  0
   -3.1740  -13.7070   -0.2020 C   0  0  0  0  0  0  0  0  0  0  0  0
   -2.4690  -14.9050    0.4430 C   0  0  0  0  0  0  0  0  0  0  0  0
   -2.4560  -15.9840   -0.5040 O   0  0  0  0  0  0  0  0  0  0  0  0
   -1.2130  -16.7150   -0.4410 C   0  0  0  0  0  0  0  0  0  0  0  0
   -0.1000  -15.8210    0.1240 C   0  0  0  0  0  0  0  0  0  0  0  0
    1.0160  -15.7450   -0.8040 N   0  0  0  0  0  0  0  0  0  0  0  0
    1.3600  -14.7310   -1.6780 C   0  0  0  0  0  0  0  0  0  0  0  0
    2.5360  -14.9250   -2.3140 C   0  0  0  0  0  0  0  0  0  0  0  0
    3.0330  -16.2020   -1.7620 C   0  0  0  0  0  0  0  0  0  0  0  0
    4.1900  -16.9200   -2.0110 C   0  0  0  0  0  0  0  0  0  0  0  0
    4.3780  -18.1190   -1.3210 C   0  0  0  0  0  0  0  0  0  0  0  0
    3.4170  -18.5790   -0.4040 C   0  0  0  0  0  0  0  0  0  0  0  0
    2.2500  -17.8490   -0.1580 C   0  0  0  0  0  0  0  0  0  0  0  0
    2.0640  -16.6620   -0.8400 C   0  0  0  0  0  0  0  0  0  0  0  0
    3.1580  -14.0520   -3.2650 C   0  0  0  0  0  0  0  0  0  0  0  0
    4.3610  -13.4560   -3.2350 C   0  0  0  0  0  0  0  0  0  0  0  0
    4.5180  -12.7510   -4.5340 C   0  0  0  0  0  0  0  0  0  0  0  0
    5.5360  -12.2150   -4.9330 O   0  0  0  0  0  0  0  0  0  0  0  0
    3.3660  -12.8880   -5.2160 N   0  0  0  0  0  0  0  0  0  0  0  0
    2.5210  -13.7040   -4.5570 C   0  0  0  0  0  0  0  0  0  0  0  0
    1.4640  -14.1330   -4.9770 O   0  0  0  0  0  0  0  0  0  0  0  0
    5.3860  -13.4610   -2.2270 C   0  0  0  0  0  0  0  0  0  0  0  0
    6.6420  -13.9320   -2.3930 C   0  0  0  0  0  0  0  0  0  0  0  0
    7.4460  -13.8410   -1.2690 N   0  0  0  0  0  0  0  0  0  0  0  0
    6.6900  -13.1730   -0.3130 C   0  0  0  0  0  0  0  0  0  0  0  0
    7.0230  -12.7560    0.9630 C   0  0  0  0  0  0  0  0  0  0  0  0
    6.0500  -12.0910    1.7160 C   0  0  0  0  0  0  0  0  0  0  0  0
    4.7740  -11.8420    1.1860 C   0  0  0  0  0  0  0  0  0  0  0  0
    4.4430  -12.2520   -0.1080 C   0  0  0  0  0  0  0  0  0  0  0  0
    5.3980  -12.9300   -0.8450 C   0  0  0  0  0  0  0  0  0  0  0  0
    8.8460  -14.2220   -1.1570 C   0  0  0  0  0  0  0  0  0  0  0  0
    9.7370  -13.0660   -1.6660 C   0  0  0  0  0  0  0  0  0  0  0  0
   11.0940  -13.0750   -0.9460 N   0  0  0  0  0  0  0  0  0  0  0  0
   11.2310  -11.9920    0.1030 C   0  0  0  0  0  0  0  0  0  0  0  0
   12.6190  -11.3770    0.1220 C   0  0  0  0  0  0  0  0  0  0  0  0
   12.3010  -13.2260   -1.8530 C   0  0  0  0  0  0  0  0  0  0  0  0
   12.0350  -12.6420   -3.2530 C   0  0  0  0  0  0  0  0  0  0  0  0
   12.8100  -11.4670   -3.5290 O   0  0  0  0  0  0  0  0  0  0  0  0
   14.2030  -11.6010   -3.2170 C   0  0  0  0  0  0  0  0  0  0  0  0
   -5.1170  -12.9440    1.2310 C   0  0  0  0  0  0  0  0  0  0  0  0
   -5.0072  -10.2578   -0.2012 H   0  0  0  0  0  0  0  0  0  0  0  0
   -3.5252  -10.1122   -1.2058 H   0  0  0  0  0  0  0  0  0  0  0  0
   -4.4634  -11.6440   -1.2058 H   0  0  0  0  0  0  0  0  0  0  0  0
   -2.2286  -11.2516    0.3001 H   0  0  0  0  0  0  0  0  0  0  0  0
   -3.4906  -10.6863    1.4546 H   0  0  0  0  0  0  0  0  0  0  0  0
   -3.1370  -13.0360    1.7290 H   0  0  0  0  0  0  0  0  0  0  0  0
   -4.0375  -14.0627   -0.7832 H   0  0  0  0  0  0  0  0  0  0  0  0
   -2.4663  -13.1863   -0.8638 H   0  0  0  0  0  0  0  0  0  0  0  0
   -1.4374  -14.6307    0.7085 H   0  0  0  0  0  0  0  0  0  0  0  0
   -2.9994  -15.2096    1.3573 H   0  0  0  0  0  0  0  0  0  0  0  0
   -1.3401  -17.5923    0.2103 H   0  0  0  0  0  0  0  0  0  0  0  0
   -0.9344  -17.0372   -1.4552 H   0  0  0  0  0  0  0  0  0  0  0  0
   -0.4992  -14.8100    0.2929 H   0  0  0  0  0  0  0  0  0  0  0  0
    0.2553  -16.2531    1.0711 H   0  0  0  0  0  0  0  0  0  0  0  0
    0.7311  -13.8435   -1.8415 H   0  0  0  0  0  0  0  0  0  0  0  0
    4.9385  -16.5569   -2.7306 H   0  0  0  0  0  0  0  0  0  0  0  0
    5.2886  -18.7105   -1.4969 H   0  0  0  0  0  0  0  0  0  0  0  0
    3.5855  -19.5270    0.1278 H   0  0  0  0  0  0  0  0  0  0  0  0
    1.4993  -18.2106    0.5601 H   0  0  0  0  0  0  0  0  0  0  0  0
    3.1930  -12.5140   -6.1350 H   0  0  0  0  0  0  0  0  0  0  0  0
    6.9972  -14.3539   -3.3448 H   0  0  0  0  0  0  0  0  0  0  0  0
    8.0260  -12.9423    1.3744 H   0  0  0  0  0  0  0  0  0  0  0  0
    6.2877  -11.7586    2.7373 H   0  0  0  0  0  0  0  0  0  0  0  0
    4.0251  -11.3173    1.7975 H   0  0  0  0  0  0  0  0  0  0  0  0
    3.4492  -12.0413   -0.5299 H   0  0  0  0  0  0  0  0  0  0  0  0
    9.0854  -14.4333   -0.1044 H   0  0  0  0  0  0  0  0  0  0  0  0
    9.0308  -15.1214   -1.7628 H   0  0  0  0  0  0  0  0  0  0  0  0
    9.9003  -13.1840   -2.7474 H   0  0  0  0  0  0  0  0  0  0  0  0
    9.2318  -12.1107   -1.4606 H   0  0  0  0  0  0  0  0  0  0  0  0
   11.0590  -13.9520   -0.3980 H   0  0  0  0  0  0  0  0  0  0  0  0
   10.4968  -11.2006   -0.1083 H   0  0  0  0  0  0  0  0  0  0  0  0
   11.0549  -12.4530    1.0861 H   0  0  0  0  0  0  0  0  0  0  0  0
   12.9423  -11.2337    1.1636 H   0  0  0  0  0  0  0  0  0  0  0  0
   13.3240  -12.0470   -0.3919 H   0  0  0  0  0  0  0  0  0  0  0  0
   12.5963  -10.4047   -0.3919 H   0  0  0  0  0  0  0  0  0  0  0  0
   13.1544  -12.6982   -1.4023 H   0  0  0  0  0  0  0  0  0  0  0  0
   12.5164  -14.2991   -1.9632 H   0  0  0  0  0  0  0  0  0  0  0  0
   12.2801  -13.4075   -4.0040 H   0  0  0  0  0  0  0  0  0  0  0  0
   10.9746  -12.3520   -3.2914 H   0  0  0  0  0  0  0  0  0  0  0  0
   14.8258  -12.4531   -3.5268 H   0  0  0  0  0  0  0  0  0  0  0  0
   15.1549  -11.0836   -3.0267 H   0  0  0  0  0  0  0  0  0  0  0  0
   -5.9220  -13.1456    0.5090 H   0  0  0  0  0  0  0  0  0  0  0  0
   -4.8842  -12.7764    2.2929 H   0  0  0  0  0  0  0  0  0  0  0  0
  1  2  1  0
  2  3  1  0
  3  4  1  0
  4  5  1  0
  5  6  1  0
  6  7  1  0
  7  8  1  0
  8  9  1  0
  9 10  1  0
 10 11  2  0
 11 12  1  0
 12 13  2  0
 13 14  1  0
 14 15  2  0
 15 16  1  0
 16 17  2  0
 11 18  1  0
 18 19  2  0
 19 20  1  0
 20 21  2  0
 20 22  1  0
 22 23  1  0
 23 24  2  0
 19 25  1  0
 25 26  2  0
 26 27  1  0
 27 28  1  0
 28 29  2  0
 29 30  1  0
 30 31  2  0
 31 32  1  0
 32 33  2  0
 27 34  1  0
 34 35  1  0
 35 36  1  0
 36 37  1  0
 37 38  1  0
 36 39  1  0
 39 40  1  0
 40 41  1  0
 41 42  1  0
 42 43  1  0
 43  3  1  0
 17  9  1  0
 23 18  1  0
 33 25  1  0
 17 12  1  0
 33 28  1  0
  1 44  1  0
  1 45  1  0
  1 46  1  0
  2 47  1  0
  2 48  1  0
  3 49  1  0
  4 50  1  0
  4 51  1  0
  5 52  1  0
  5 53  1  0
  7 54  1  0
  7 55  1  0
  8 56  1  0
  8 57  1  0
 10 58  1  0
 13 59  1  0
 14 60  1  0
 15 61  1  0
 16 62  1  0
 22 63  1  0
 26 64  1  0
 29 65  1  0
 30 66  1  0
 31 67  1  0
 32 68  1  0
 34 69  1  0
 34 70  1  0
 35 71  1  0
 35 72  1  0
 36 73  1  0
 37 74  1  0
 37 75  1  0
 38 76  1  0
 38 77  1  0
 38 78  1  0
 39 79  1  0
 39 80  1  0
 40 81  1  0
 40 82  1  0
 42 83  1  0
 42 84  1  0
 43 85  1  0
 43 86  1  0
M  CHG  2   3   1  36   1
M  END
>  <meeko>  (4) 
{"is_sidechain": [false], "free_energy": -6.427, "intermolecular_energy": -13.576, "internal_energy": -2.295}

$$$$
LIB_QTVNFRLKAGKBPS__M_PUB_ALL__e8__s20260927
     RDKit          3D

 86 91  0  0  0  0  0  0  0  0999 V2000
   13.4550  -11.7390   -2.7320 C   0  0  0  0  0  0  0  0  0  0  0  0
   12.2910  -12.3970   -2.0140 C   0  0  0  0  0  0  0  0  0  0  0  0
   12.3270  -12.0570   -0.5450 N   0  0  0  0  0  0  0  0  0  0  0  0
   10.9290  -11.9930    0.0710 C   0  0  0  0  0  0  0  0  0  0  0  0
    9.9050  -12.6210   -0.8800 C   0  0  0  0  0  0  0  0  0  0  0  0
    9.2900  -13.7330   -0.2110 O   0  0  0  0  0  0  0  0  0  0  0  0
    8.0100  -14.0490   -0.7980 C   0  0  0  0  0  0  0  0  0  0  0  0
    6.8880  -13.3160   -0.0510 C   0  0  0  0  0  0  0  0  0  0  0  0
    5.5890  -13.8470   -0.4290 N   0  0  0  0  0  0  0  0  0  0  0  0
    4.9550  -14.9990   -0.0010 C   0  0  0  0  0  0  0  0  0  0  0  0
    3.6920  -15.1370   -0.4580 C   0  0  0  0  0  0  0  0  0  0  0  0
    3.4640  -13.9120   -1.2510 C   0  0  0  0  0  0  0  0  0  0  0  0
    2.3590  -13.4710   -1.9580 C   0  0  0  0  0  0  0  0  0  0  0  0
    2.4540  -12.2460   -2.6240 C   0  0  0  0  0  0  0  0  0  0  0  0
    3.6380  -11.4920   -2.5740 C   0  0  0  0  0  0  0  0  0  0  0  0
    4.7510  -11.9450   -1.8590 C   0  0  0  0  0  0  0  0  0  0  0  0
    4.6580  -13.1560   -1.2010 C   0  0  0  0  0  0  0  0  0  0  0  0
    2.7870  -16.2130   -0.1820 C   0  0  0  0  0  0  0  0  0  0  0  0
    1.7090  -16.2540    0.6190 C   0  0  0  0  0  0  0  0  0  0  0  0
    1.0940  -17.5940    0.4360 C   0  0  0  0  0  0  0  0  0  0  0  0
    0.0210  -17.9510    0.8880 O   0  0  0  0  0  0  0  0  0  0  0  0
    1.8920  -18.3020   -0.3830 N   0  0  0  0  0  0  0  0  0  0  0  0
    2.8940  -17.5320   -0.8490 C   0  0  0  0  0  0  0  0  0  0  0  0
    3.6950  -17.8390   -1.7110 O   0  0  0  0  0  0  0  0  0  0  0  0
    1.1470  -15.2540    1.4860 C   0  0  0  0  0  0  0  0  0  0  0  0
    0.5940  -14.0890    1.0800 C   0  0  0  0  0  0  0  0  0  0  0  0
    0.1300  -13.2820    2.1050 N   0  0  0  0  0  0  0  0  0  0  0  0
    0.3090  -14.0110    3.2750 C   0  0  0  0  0  0  0  0  0  0  0  0
   -0.0410  -13.7130    4.5790 C   0  0  0  0  0  0  0  0  0  0  0  0
    0.2600  -14.6490    5.5740 C   0  0  0  0  0  0  0  0  0  0  0  0
    0.8890  -15.8630    5.2550 C   0  0  0  0  0  0  0  0  0  0  0  0
    1.2290  -16.1690    3.9350 C   0  0  0  0  0  0  0  0  0  0  0  0
    0.9510  -15.2330    2.9530 C   0  0  0  0  0  0  0  0  0  0  0  0
   -0.5470  -12.0000    1.9760 C   0  0  0  0  0  0  0  0  0  0  0  0
   -1.6320  -12.0990    0.8800 C   0  0  0  0  0  0  0  0  0  0  0  0
   -2.7240  -13.0980    1.2930 N   0  0  0  0  0  0  0  0  0  0  0  0
   -3.0960  -14.0770    0.2000 C   0  0  0  0  0  0  0  0  0  0  0  0
   -2.6730  -15.4980    0.5250 C   0  0  0  0  0  0  0  0  0  0  0  0
   -3.9090  -12.4900    2.0210 C   0  0  0  0  0  0  0  0  0  0  0  0
   -5.2460  -12.9640    1.4220 C   0  0  0  0  0  0  0  0  0  0  0  0
   -6.3190  -12.9660    2.3730 O   0  0  0  0  0  0  0  0  0  0  0  0
   -6.0420  -13.7150    3.5640 C   0  0  0  0  0  0  0  0  0  0  0  0
   13.1630  -10.8360   -0.2120 C   0  0  0  0  0  0  0  0  0  0  0  0
   14.1633  -11.3386   -1.9918 H   0  0  0  0  0  0  0  0  0  0  0  0
   13.9646  -12.4826   -3.3623 H   0  0  0  0  0  0  0  0  0  0  0  0
   13.0807  -10.9189   -3.3623 H   0  0  0  0  0  0  0  0  0  0  0  0
   11.3462  -12.0371   -2.4474 H   0  0  0  0  0  0  0  0  0  0  0  0
   12.3663  -13.4880   -2.1323 H   0  0  0  0  0  0  0  0  0  0  0  0
   12.7880  -12.8370   -0.0330 H   0  0  0  0  0  0  0  0  0  0  0  0
   10.9257  -12.5429    1.0237 H   0  0  0  0  0  0  0  0  0  0  0  0
   10.6603  -10.9406    0.2452 H   0  0  0  0  0  0  0  0  0  0  0  0
    9.1394  -11.8772   -1.1458 H   0  0  0  0  0  0  0  0  0  0  0  0
   10.4018  -12.9607   -1.8008 H   0  0  0  0  0  0  0  0  0  0  0  0
    8.0075  -13.7378   -1.8531 H   0  0  0  0  0  0  0  0  0  0  0  0
    7.8402  -15.1334   -0.7254 H   0  0  0  0  0  0  0  0  0  0  0  0
    7.0302  -13.4457    1.0320 H   0  0  0  0  0  0  0  0  0  0  0  0
    6.9250  -12.2488   -0.3149 H   0  0  0  0  0  0  0  0  0  0  0  0
    5.4377  -15.7386    0.6547 H   0  0  0  0  0  0  0  0  0  0  0  0
    1.4347  -14.0662   -1.9946 H   0  0  0  0  0  0  0  0  0  0  0  0
    1.5921  -11.8682   -3.1936 H   0  0  0  0  0  0  0  0  0  0  0  0
    3.6905  -10.5304   -3.1055 H   0  0  0  0  0  0  0  0  0  0  0  0
    5.6769  -11.3522   -1.8215 H   0  0  0  0  0  0  0  0  0  0  0  0
    1.7150  -19.2470   -0.6840 H   0  0  0  0  0  0  0  0  0  0  0  0
    0.5187  -13.8049    0.0200 H   0  0  0  0  0  0  0  0  0  0  0  0
   -0.5424  -12.7659    4.8272 H   0  0  0  0  0  0  0  0  0  0  0  0
    0.0004  -14.4310    6.6205 H   0  0  0  0  0  0  0  0  0  0  0  0
    1.1171  -16.5827    6.0550 H   0  0  0  0  0  0  0  0  0  0  0  0
    1.7049  -17.1280    3.6824 H   0  0  0  0  0  0  0  0  0  0  0  0
   -1.0171  -11.7354    2.9346 H   0  0  0  0  0  0  0  0  0  0  0  0
    0.1836  -11.2254    1.7000 H   0  0  0  0  0  0  0  0  0  0  0  0
   -2.0858  -11.1084    0.7293 H   0  0  0  0  0  0  0  0  0  0  0  0
   -1.1649  -12.4478   -0.0528 H   0  0  0  0  0  0  0  0  0  0  0  0
   -2.2470  -13.6830    2.0010 H   0  0  0  0  0  0  0  0  0  0  0  0
   -4.1873  -14.0560    0.0639 H   0  0  0  0  0  0  0  0  0  0  0  0
   -2.5687  -13.7721   -0.7160 H   0  0  0  0  0  0  0  0  0  0  0  0
   -2.6342  -15.6284    1.6165 H   0  0  0  0  0  0  0  0  0  0  0  0
   -3.4000  -16.2039    0.0970 H   0  0  0  0  0  0  0  0  0  0  0  0
   -1.6783  -15.6915    0.0970 H   0  0  0  0  0  0  0  0  0  0  0  0
   -3.8674  -12.7855    3.0798 H   0  0  0  0  0  0  0  0  0  0  0  0
   -3.8533  -11.3964    1.9159 H   0  0  0  0  0  0  0  0  0  0  0  0
   -5.5150  -12.2940    0.5921 H   0  0  0  0  0  0  0  0  0  0  0  0
   -5.1048  -14.0014    1.0845 H   0  0  0  0  0  0  0  0  0  0  0  0
   -6.4023  -13.2500    4.4935 H   0  0  0  0  0  0  0  0  0  0  0  0
   -6.4570  -14.7206    3.7267 H   0  0  0  0  0  0  0  0  0  0  0  0
   13.4912  -10.1387   -0.9969 H   0  0  0  0  0  0  0  0  0  0  0  0
   14.0813  -10.5984    0.3450 H   0  0  0  0  0  0  0  0  0  0  0  0
  1  2  1  0
  2  3  1  0
  3  4  1  0
  4  5  1  0
  5  6  1  0
  6  7  1  0
  7  8  1  0
  8  9  1  0
  9 10  1  0
 10 11  2  0
 11 12  1  0
 12 13  2  0
 13 14  1  0
 14 15  2  0
 15 16  1  0
 16 17  2  0
 11 18  1  0
 18 19  2  0
 19 20  1  0
 20 21  2  0
 20 22  1  0
 22 23  1  0
 23 24  2  0
 19 25  1  0
 25 26  2  0
 26 27  1  0
 27 28  1  0
 28 29  2  0
 29 30  1  0
 30 31  2  0
 31 32  1  0
 32 33  2  0
 27 34  1  0
 34 35  1  0
 35 36  1  0
 36 37  1  0
 37 38  1  0
 36 39  1  0
 39 40  1  0
 40 41  1  0
 41 42  1  0
 42 43  1  0
 43  3  1  0
 17  9  1  0
 23 18  1  0
 33 25  1  0
 17 12  1  0
 33 28  1  0
  1 44  1  0
  1 45  1  0
  1 46  1  0
  2 47  1  0
  2 48  1  0
  3 49  1  0
  4 50  1  0
  4 51  1  0
  5 52  1  0
  5 53  1  0
  7 54  1  0
  7 55  1  0
  8 56  1  0
  8 57  1  0
 10 58  1  0
 13 59  1  0
 14 60  1  0
 15 61  1  0
 16 62  1  0
 22 63  1  0
 26 64  1  0
 29 65  1  0
 30 66  1  0
 31 67  1  0
 32 68  1  0
 34 69  1  0
 34 70  1  0
 35 71  1  0
 35 72  1  0
 36 73  1  0
 37 74  1  0
 37 75  1  0
 38 76  1  0
 38 77  1  0
 38 78  1  0
 39 79  1  0
 39 80  1  0
 40 81  1  0
 40 82  1  0
 42 83  1  0
 42 84  1  0
 43 85  1  0
 43 86  1  0
M  CHG  2   3   1  36   1
M  END
>  <meeko>  (5) 
{"is_sidechain": [false], "free_energy": -6.401, "intermolecular_energy": -13.263, "internal_energy": -2.555}

$$$$
LIB_QTVNFRLKAGKBPS__M_PUB_ALL__e8__s20260927
     RDKit          3D

 86 91  0  0  0  0  0  0  0  0999 V2000
   13.8330  -13.6980   -4.3630 C   0  0  0  0  0  0  0  0  0  0  0  0
   12.8450  -13.7640   -3.2110 C   0  0  0  0  0  0  0  0  0  0  0  0
   13.1050  -12.6420   -2.2390 N   0  0  0  0  0  0  0  0  0  0  0  0
   11.8400  -12.2140   -1.4930 C   0  0  0  0  0  0  0  0  0  0  0  0
   11.7990  -12.8680   -0.1080 C   0  0  0  0  0  0  0  0  0  0  0  0
   10.4740  -13.3770    0.1110 O   0  0  0  0  0  0  0  0  0  0  0  0
    9.7930  -13.6050   -1.1410 C   0  0  0  0  0  0  0  0  0  0  0  0
    8.6660  -14.6290   -0.9540 C   0  0  0  0  0  0  0  0  0  0  0  0
    7.3730  -14.0230   -1.2250 N   0  0  0  0  0  0  0  0  0  0  0  0
    6.5610  -14.1510   -2.3370 C   0  0  0  0  0  0  0  0  0  0  0  0
    5.3590  -13.5470   -2.2160 C   0  0  0  0  0  0  0  0  0  0  0  0
    5.3770  -12.9880   -0.8490 C   0  0  0  0  0  0  0  0  0  0  0  0
    4.4300  -12.2700   -0.1410 C   0  0  0  0  0  0  0  0  0  0  0  0
    4.7490  -11.8690    1.1590 C   0  0  0  0  0  0  0  0  0  0  0  0
    5.9970  -12.1860    1.7220 C   0  0  0  0  0  0  0  0  0  0  0  0
    6.9500  -12.9110    1.0000 C   0  0  0  0  0  0  0  0  0  0  0  0
    6.6340  -13.3080   -0.2850 C   0  0  0  0  0  0  0  0  0  0  0  0
    4.3080  -13.5140   -3.1900 C   0  0  0  0  0  0  0  0  0  0  0  0
    3.1220  -14.1450   -3.2050 C   0  0  0  0  0  0  0  0  0  0  0  0
    2.3970  -13.6570   -4.4080 C   0  0  0  0  0  0  0  0  0  0  0  0
    1.2350  -13.8950   -4.6810 O   0  0  0  0  0  0  0  0  0  0  0  0
    3.2280  -12.8440   -5.0840 N   0  0  0  0  0  0  0  0  0  0  0  0
    4.3690  -12.6530   -4.3940 C   0  0  0  0  0  0  0  0  0  0  0  0
    5.2530  -11.8660   -4.6720 O   0  0  0  0  0  0  0  0  0  0  0  0
    2.5490  -15.0870   -2.2820 C   0  0  0  0  0  0  0  0  0  0  0  0
    1.2960  -15.0240   -1.7800 C   0  0  0  0  0  0  0  0  0  0  0  0
    0.9760  -16.0420   -0.8970 N   0  0  0  0  0  0  0  0  0  0  0  0
    2.0740  -16.8950   -0.8850 C   0  0  0  0  0  0  0  0  0  0  0  0
    2.2660  -18.0990   -0.2330 C   0  0  0  0  0  0  0  0  0  0  0  0
    3.4880  -18.7560   -0.4060 C   0  0  0  0  0  0  0  0  0  0  0  0
    4.4870  -18.2140   -1.2300 C   0  0  0  0  0  0  0  0  0  0  0  0
    4.2860  -17.0040   -1.9000 C   0  0  0  0  0  0  0  0  0  0  0  0
    3.0850  -16.3430   -1.7110 C   0  0  0  0  0  0  0  0  0  0  0  0
   -0.3020  -16.2630   -0.2360 C   0  0  0  0  0  0  0  0  0  0  0  0
   -0.6070  -15.0750    0.7040 C   0  0  0  0  0  0  0  0  0  0  0  0
   -0.1850  -15.4070    2.1430 N   0  0  0  0  0  0  0  0  0  0  0  0
    0.8930  -14.4940    2.6860 C   0  0  0  0  0  0  0  0  0  0  0  0
    2.2670  -14.8230    2.1280 C   0  0  0  0  0  0  0  0  0  0  0  0
    0.0440  -16.8810    2.4210 C   0  0  0  0  0  0  0  0  0  0  0  0
   -1.0560  -17.4650    3.3280 C   0  0  0  0  0  0  0  0  0  0  0  0
   -1.9170  -18.3860    2.6450 O   0  0  0  0  0  0  0  0  0  0  0  0
   -3.2540  -18.4280    3.1630 C   0  0  0  0  0  0  0  0  0  0  0  0
   13.8520  -11.4640   -2.8360 C   0  0  0  0  0  0  0  0  0  0  0  0
   14.8562  -13.6296   -3.9650 H   0  0  0  0  0  0  0  0  0  0  0  0
   13.7390  -14.6044   -4.9791 H   0  0  0  0  0  0  0  0  0  0  0  0
   13.6192  -12.8121   -4.9791 H   0  0  0  0  0  0  0  0  0  0  0  0
   11.8216  -13.6746   -3.6042 H   0  0  0  0  0  0  0  0  0  0  0  0
   12.9639  -14.7256   -2.6902 H   0  0  0  0  0  0  0  0  0  0  0  0
   13.7310  -12.9920   -1.4840 H   0  0  0  0  0  0  0  0  0  0  0  0
   11.8374  -11.1199   -1.3790 H   0  0  0  0  0  0  0  0  0  0  0  0
   10.9578  -12.5324   -2.0678 H   0  0  0  0  0  0  0  0  0  0  0  0
   12.5261  -13.6923   -0.0642 H   0  0  0  0  0  0  0  0  0  0  0  0
   12.0548  -12.1306    0.6672 H   0  0  0  0  0  0  0  0  0  0  0  0
    9.3662  -12.6569   -1.5001 H   0  0  0  0  0  0  0  0  0  0  0  0
   10.5135  -13.9952   -1.8749 H   0  0  0  0  0  0  0  0  0  0  0  0
    8.8232  -15.4697   -1.6457 H   0  0  0  0  0  0  0  0  0  0  0  0
    8.6795  -14.9845    0.0869 H   0  0  0  0  0  0  0  0  0  0  0  0
    6.8673  -14.6972   -3.2413 H   0  0  0  0  0  0  0  0  0  0  0  0
    3.4558  -12.0223   -0.5877 H   0  0  0  0  0  0  0  0  0  0  0  0
    4.0154  -11.2991    1.7480 H   0  0  0  0  0  0  0  0  0  0  0  0
    6.2277  -11.8587    2.7465 H   0  0  0  0  0  0  0  0  0  0  0  0
    7.9257  -13.1588    1.4435 H   0  0  0  0  0  0  0  0  0  0  0  0
    2.9950  -12.3650   -5.9400 H   0  0  0  0  0  0  0  0  0  0  0  0
    0.5869  -14.2279   -2.0509 H   0  0  0  0  0  0  0  0  0  0  0  0
    1.4789  -18.5283    0.4044 H   0  0  0  0  0  0  0  0  0  0  0  0
    3.6690  -19.7102    0.1104 H   0  0  0  0  0  0  0  0  0  0  0  0
    5.4407  -18.7488   -1.3500 H   0  0  0  0  0  0  0  0  0  0  0  0
    5.0617  -16.5882   -2.5599 H   0  0  0  0  0  0  0  0  0  0  0  0
   -1.0966  -16.3458   -0.9922 H   0  0  0  0  0  0  0  0  0  0  0  0
   -0.2560  -17.1926    0.3504 H   0  0  0  0  0  0  0  0  0  0  0  0
   -0.0534  -14.1891    0.3594 H   0  0  0  0  0  0  0  0  0  0  0  0
   -1.6887  -14.8758    0.6869 H   0  0  0  0  0  0  0  0  0  0  0  0
   -1.0250  -15.1580    2.6940 H   0  0  0  0  0  0  0  0  0  0  0  0
    0.6434  -13.4561    2.4206 H   0  0  0  0  0  0  0  0  0  0  0  0
    0.9321  -14.6334    3.7764 H   0  0  0  0  0  0  0  0  0  0  0  0
    2.9691  -14.9911    2.9579 H   0  0  0  0  0  0  0  0  0  0  0  0
    2.2043  -15.7315    1.5110 H   0  0  0  0  0  0  0  0  0  0  0  0
    2.6226  -13.9846    1.5110 H   0  0  0  0  0  0  0  0  0  0  0  0
    0.0473  -17.4279    1.4666 H   0  0  0  0  0  0  0  0  0  0  0  0
    1.0089  -16.9876    2.9384 H   0  0  0  0  0  0  0  0  0  0  0  0
   -0.5760  -17.9905    4.1667 H   0  0  0  0  0  0  0  0  0  0  0  0
   -1.6789  -16.6256    3.6707 H   0  0  0  0  0  0  0  0  0  0  0  0
   -4.1634  -18.4715    2.5457 H   0  0  0  0  0  0  0  0  0  0  0  0
   -3.9255  -18.6652    4.0013 H   0  0  0  0  0  0  0  0  0  0  0  0
   14.1468  -11.4039   -3.8941 H   0  0  0  0  0  0  0  0  0  0  0  0
   14.6277  -10.7057   -2.6539 H   0  0  0  0  0  0  0  0  0  0  0  0
  1  2  1  0
  2  3  1  0
  3  4  1  0
  4  5  1  0
  5  6  1  0
  6  7  1  0
  7  8  1  0
  8  9  1  0
  9 10  1  0
 10 11  2  0
 11 12  1  0
 12 13  2  0
 13 14  1  0
 14 15  2  0
 15 16  1  0
 16 17  2  0
 11 18  1  0
 18 19  2  0
 19 20  1  0
 20 21  2  0
 20 22  1  0
 22 23  1  0
 23 24  2  0
 19 25  1  0
 25 26  2  0
 26 27  1  0
 27 28  1  0
 28 29  2  0
 29 30  1  0
 30 31  2  0
 31 32  1  0
 32 33  2  0
 27 34  1  0
 34 35  1  0
 35 36  1  0
 36 37  1  0
 37 38  1  0
 36 39  1  0
 39 40  1  0
 40 41  1  0
 41 42  1  0
 42 43  1  0
 43  3  1  0
 17  9  1  0
 23 18  1  0
 33 25  1  0
 17 12  1  0
 33 28  1  0
  1 44  1  0
  1 45  1  0
  1 46  1  0
  2 47  1  0
  2 48  1  0
  3 49  1  0
  4 50  1  0
  4 51  1  0
  5 52  1  0
  5 53  1  0
  7 54  1  0
  7 55  1  0
  8 56  1  0
  8 57  1  0
 10 58  1  0
 13 59  1  0
 14 60  1  0
 15 61  1  0
 16 62  1  0
 22 63  1  0
 26 64  1  0
 29 65  1  0
 30 66  1  0
 31 67  1  0
 32 68  1  0
 34 69  1  0
 34 70  1  0
 35 71  1  0
 35 72  1  0
 36 73  1  0
 37 74  1  0
 37 75  1  0
 38 76  1  0
 38 77  1  0
 38 78  1  0
 39 79  1  0
 39 80  1  0
 40 81  1  0
 40 82  1  0
 42 83  1  0
 42 84  1  0
 43 85  1  0
 43 86  1  0
M  CHG  2   3   1  36   1
M  END
>  <meeko>  (6) 
{"is_sidechain": [false], "free_energy": -6.366, "intermolecular_energy": -12.848, "internal_energy": -2.898}

$$$$
LIB_QTVNFRLKAGKBPS__M_PUB_ALL__e8__s20260927
     RDKit          3D

 86 91  0  0  0  0  0  0  0  0999 V2000
   -2.2990   -9.4040    1.2900 C   0  0  0  0  0  0  0  0  0  0  0  0
   -1.2700   -9.4900    2.4020 C   0  0  0  0  0  0  0  0  0  0  0  0
   -0.6360  -10.8580    2.4190 N   0  0  0  0  0  0  0  0  0  0  0  0
   -0.6450  -11.5200    1.0400 C   0  0  0  0  0  0  0  0  0  0  0  0
    0.3490  -12.6870    1.0090 C   0  0  0  0  0  0  0  0  0  0  0  0
   -0.0190  -13.5630   -0.0680 O   0  0  0  0  0  0  0  0  0  0  0  0
    0.7380  -14.7920   -0.0170 C   0  0  0  0  0  0  0  0  0  0  0  0
    1.6040  -14.9340   -1.2750 C   0  0  0  0  0  0  0  0  0  0  0  0
    2.6990  -13.9780   -1.2550 N   0  0  0  0  0  0  0  0  0  0  0  0
    3.7360  -13.8530   -0.3510 C   0  0  0  0  0  0  0  0  0  0  0  0
    4.6610  -12.9300   -0.6930 C   0  0  0  0  0  0  0  0  0  0  0  0
    4.1850  -12.4160   -1.9940 C   0  0  0  0  0  0  0  0  0  0  0  0
    4.7100  -11.4640   -2.8500 C   0  0  0  0  0  0  0  0  0  0  0  0
    4.0130  -11.1880   -4.0290 C   0  0  0  0  0  0  0  0  0  0  0  0
    2.8150  -11.8580   -4.3290 C   0  0  0  0  0  0  0  0  0  0  0  0
    2.2900  -12.8180   -3.4580 C   0  0  0  0  0  0  0  0  0  0  0  0
    2.9790  -13.0920   -2.2920 C   0  0  0  0  0  0  0  0  0  0  0  0
    5.8460  -12.5840    0.0330 C   0  0  0  0  0  0  0  0  0  0  0  0
    7.1320  -12.8810   -0.2160 C   0  0  0  0  0  0  0  0  0  0  0  0
    7.9390  -12.1720    0.8120 C   0  0  0  0  0  0  0  0  0  0  0  0
    9.1530  -12.0860    0.8270 O   0  0  0  0  0  0  0  0  0  0  0  0
    7.0840  -11.5780    1.6640 N   0  0  0  0  0  0  0  0  0  0  0  0
    5.8150  -11.7210    1.2380 C   0  0  0  0  0  0  0  0  0  0  0  0
    4.8330  -11.1830    1.7120 O   0  0  0  0  0  0  0  0  0  0  0  0
    7.7270  -13.6750   -1.2570 C   0  0  0  0  0  0  0  0  0  0  0  0
    8.4630  -13.1940   -2.2820 C   0  0  0  0  0  0  0  0  0  0  0  0
    8.9200  -14.1560   -3.1670 N   0  0  0  0  0  0  0  0  0  0  0  0
    8.5300  -15.3800   -2.6340 C   0  0  0  0  0  0  0  0  0  0  0  0
    8.7800  -16.6680   -3.0700 C   0  0  0  0  0  0  0  0  0  0  0  0
    8.2600  -17.7300   -2.3230 C   0  0  0  0  0  0  0  0  0  0  0  0
    7.5170  -17.4940   -1.1560 C   0  0  0  0  0  0  0  0  0  0  0  0
    7.2770  -16.1930   -0.7090 C   0  0  0  0  0  0  0  0  0  0  0  0
    7.7720  -15.1410   -1.4600 C   0  0  0  0  0  0  0  0  0  0  0  0
    9.7660  -13.9480   -4.3330 C   0  0  0  0  0  0  0  0  0  0  0  0
   11.0210  -13.1450   -3.9210 C   0  0  0  0  0  0  0  0  0  0  0  0
   11.9380  -13.9990   -3.0330 N   0  0  0  0  0  0  0  0  0  0  0  0
   12.0710  -13.4770   -1.6190 C   0  0  0  0  0  0  0  0  0  0  0  0
   11.5530  -14.4630   -0.5860 C   0  0  0  0  0  0  0  0  0  0  0  0
   13.2500  -14.4110   -3.6750 C   0  0  0  0  0  0  0  0  0  0  0  0
   13.1080  -15.7270   -4.4610 C   0  0  0  0  0  0  0  0  0  0  0  0
   14.1930  -15.9610   -5.3680 O   0  0  0  0  0  0  0  0  0  0  0  0
   14.1030  -15.2150   -6.5890 C   0  0  0  0  0  0  0  0  0  0  0  0
   -1.1670  -11.7750    3.5040 C   0  0  0  0  0  0  0  0  0  0  0  0
   -3.3050   -9.3199    1.7270 H   0  0  0  0  0  0  0  0  0  0  0  0
   -2.0942   -8.5198    0.6685 H   0  0  0  0  0  0  0  0  0  0  0  0
   -2.2438  -10.3099    0.6685 H   0  0  0  0  0  0  0  0  0  0  0  0
   -0.4916   -8.7306    2.2365 H   0  0  0  0  0  0  0  0  0  0  0  0
   -1.7679   -9.3127    3.3667 H   0  0  0  0  0  0  0  0  0  0  0  0
    0.3760  -10.7550    2.6370 H   0  0  0  0  0  0  0  0  0  0  0  0
   -1.6555  -11.8971    0.8241 H   0  0  0  0  0  0  0  0  0  0  0  0
   -0.3525  -10.7779    0.2826 H   0  0  0  0  0  0  0  0  0  0  0  0
    1.3673  -12.3043    0.8460 H   0  0  0  0  0  0  0  0  0  0  0  0
    0.3259  -13.2306    1.9650 H   0  0  0  0  0  0  0  0  0  0  0  0
    1.3867  -14.7825    0.8713 H   0  0  0  0  0  0  0  0  0  0  0  0
    0.0405  -15.6409    0.0360 H   0  0  0  0  0  0  0  0  0  0  0  0
    2.0152  -15.9534   -1.3172 H   0  0  0  0  0  0  0  0  0  0  0  0
    0.9791  -14.7379   -2.1588 H   0  0  0  0  0  0  0  0  0  0  0  0
    3.8027  -14.4534    0.5682 H   0  0  0  0  0  0  0  0  0  0  0  0
    5.6472  -10.9406   -2.6097 H   0  0  0  0  0  0  0  0  0  0  0  0
    4.4066  -10.4376   -4.7304 H   0  0  0  0  0  0  0  0  0  0  0  0
    2.2823  -11.6241   -5.2625 H   0  0  0  0  0  0  0  0  0  0  0  0
    1.3522  -13.3418   -3.6952 H   0  0  0  0  0  0  0  0  0  0  0  0
    7.3570  -11.0220    2.4590 H   0  0  0  0  0  0  0  0  0  0  0  0
    8.6821  -12.1230   -2.4042 H   0  0  0  0  0  0  0  0  0  0  0  0
    9.3714  -16.8524   -3.9790 H   0  0  0  0  0  0  0  0  0  0  0  0
    8.4357  -18.7640   -2.6546 H   0  0  0  0  0  0  0  0  0  0  0  0
    7.1181  -18.3457   -0.5855 H   0  0  0  0  0  0  0  0  0  0  0  0
    6.7097  -16.0091    0.2153 H   0  0  0  0  0  0  0  0  0  0  0  0
   10.0718  -14.9219   -4.7428 H   0  0  0  0  0  0  0  0  0  0  0  0
    9.2067  -13.3885   -5.0973 H   0  0  0  0  0  0  0  0  0  0  0  0
   11.5707  -12.8434   -4.8248 H   0  0  0  0  0  0  0  0  0  0  0  0
   10.7049  -12.2561   -3.3553 H   0  0  0  0  0  0  0  0  0  0  0  0
   11.4040  -14.8790   -2.9270 H   0  0  0  0  0  0  0  0  0  0  0  0
   13.1332  -13.2770   -1.4148 H   0  0  0  0  0  0  0  0  0  0  0  0
   11.4661  -12.5616   -1.5414 H   0  0  0  0  0  0  0  0  0  0  0  0
   11.7560  -14.0767    0.4237 H   0  0  0  0  0  0  0  0  0  0  0  0
   10.4689  -14.5954   -0.7169 H   0  0  0  0  0  0  0  0  0  0  0  0
   12.0591  -15.4309   -0.7169 H   0  0  0  0  0  0  0  0  0  0  0  0
   13.5751  -13.6173   -4.3637 H   0  0  0  0  0  0  0  0  0  0  0  0
   13.9902  -14.5657   -2.8761 H   0  0  0  0  0  0  0  0  0  0  0  0
   13.0655  -16.5600   -3.7439 H   0  0  0  0  0  0  0  0  0  0  0  0
   12.1893  -15.6525   -5.0614 H   0  0  0  0  0  0  0  0  0  0  0  0
   14.8152  -14.3908   -6.7424 H   0  0  0  0  0  0  0  0  0  0  0  0
   14.1941  -15.5584   -7.6301 H   0  0  0  0  0  0  0  0  0  0  0  0
   -2.0870  -12.3571    3.3466 H   0  0  0  0  0  0  0  0  0  0  0  0
   -1.4212  -11.6918    4.5710 H   0  0  0  0  0  0  0  0  0  0  0  0
  1  2  1  0
  2  3  1  0
  3  4  1  0
  4  5  1  0
  5  6  1  0
  6  7  1  0
  7  8  1  0
  8  9  1  0
  9 10  1  0
 10 11  2  0
 11 12  1  0
 12 13  2  0
 13 14  1  0
 14 15  2  0
 15 16  1  0
 16 17  2  0
 11 18  1  0
 18 19  2  0
 19 20  1  0
 20 21  2  0
 20 22  1  0
 22 23  1  0
 23 24  2  0
 19 25  1  0
 25 26  2  0
 26 27  1  0
 27 28  1  0
 28 29  2  0
 29 30  1  0
 30 31  2  0
 31 32  1  0
 32 33  2  0
 27 34  1  0
 34 35  1  0
 35 36  1  0
 36 37  1  0
 37 38  1  0
 36 39  1  0
 39 40  1  0
 40 41  1  0
 41 42  1  0
 42 43  1  0
 43  3  1  0
 17  9  1  0
 23 18  1  0
 33 25  1  0
 17 12  1  0
 33 28  1  0
  1 44  1  0
  1 45  1  0
  1 46  1  0
  2 47  1  0
  2 48  1  0
  3 49  1  0
  4 50  1  0
  4 51  1  0
  5 52  1  0
  5 53  1  0
  7 54  1  0
  7 55  1  0
  8 56  1  0
  8 57  1  0
 10 58  1  0
 13 59  1  0
 14 60  1  0
 15 61  1  0
 16 62  1  0
 22 63  1  0
 26 64  1  0
 29 65  1  0
 30 66  1  0
 31 67  1  0
 32 68  1  0
 34 69  1  0
 34 70  1  0
 35 71  1  0
 35 72  1  0
 36 73  1  0
 37 74  1  0
 37 75  1  0
 38 76  1  0
 38 77  1  0
 38 78  1  0
 39 79  1  0
 39 80  1  0
 40 81  1  0
 40 82  1  0
 42 83  1  0
 42 84  1  0
 43 85  1  0
 43 86  1  0
M  CHG  2   3   1  36   1
M  END
>  <meeko>  (7) 
{"is_sidechain": [false], "free_energy": -6.278, "intermolecular_energy": -12.503, "internal_energy": -3.062}

$$$$
LIB_QTVNFRLKAGKBPS__M_PUB_ALL__e8__s20260927
     RDKit          3D

 86 91  0  0  0  0  0  0  0  0999 V2000
   12.3210  -11.2200    0.1470 C   0  0  0  0  0  0  0  0  0  0  0  0
   13.4590  -11.0870   -0.8480 C   0  0  0  0  0  0  0  0  0  0  0  0
   12.9870  -11.4600   -2.2310 N   0  0  0  0  0  0  0  0  0  0  0  0
   11.8310  -12.4610   -2.2000 C   0  0  0  0  0  0  0  0  0  0  0  0
   12.0110  -13.5070   -3.3060 C   0  0  0  0  0  0  0  0  0  0  0  0
   11.5390  -14.7700   -2.8140 O   0  0  0  0  0  0  0  0  0  0  0  0
   10.7660  -15.4620   -3.8180 C   0  0  0  0  0  0  0  0  0  0  0  0
    9.4240  -14.7520   -4.0380 C   0  0  0  0  0  0  0  0  0  0  0  0
    8.6870  -14.6510   -2.7890 N   0  0  0  0  0  0  0  0  0  0  0  0
    8.3570  -13.5270   -2.0560 C   0  0  0  0  0  0  0  0  0  0  0  0
    7.5530  -13.7730   -0.9990 C   0  0  0  0  0  0  0  0  0  0  0  0
    7.3020  -15.2270   -1.0730 C   0  0  0  0  0  0  0  0  0  0  0  0
    6.5460  -16.0680   -0.2760 C   0  0  0  0  0  0  0  0  0  0  0  0
    6.5080  -17.4250   -0.6070 C   0  0  0  0  0  0  0  0  0  0  0  0
    7.2190  -17.9140   -1.7150 C   0  0  0  0  0  0  0  0  0  0  0  0
    7.9820  -17.0580   -2.5160 C   0  0  0  0  0  0  0  0  0  0  0  0
    8.0200  -15.7160   -2.1890 C   0  0  0  0  0  0  0  0  0  0  0  0
    7.0380  -12.8170   -0.0650 C   0  0  0  0  0  0  0  0  0  0  0  0
    5.7780  -12.3960    0.1390 C   0  0  0  0  0  0  0  0  0  0  0  0
    5.8200  -11.4750    1.3040 C   0  0  0  0  0  0  0  0  0  0  0  0
    4.8530  -11.0050    1.8740 O   0  0  0  0  0  0  0  0  0  0  0  0
    7.1090  -11.3270    1.6620 N   0  0  0  0  0  0  0  0  0  0  0  0
    7.8980  -12.1420    0.9360 C   0  0  0  0  0  0  0  0  0  0  0  0
    9.0840  -12.3410    1.1170 O   0  0  0  0  0  0  0  0  0  0  0  0
    4.5570  -12.7310   -0.5410 C   0  0  0  0  0  0  0  0  0  0  0  0
    3.5480  -13.4640   -0.0190 C   0  0  0  0  0  0  0  0  0  0  0  0
    2.4770  -13.6640   -0.8740 N   0  0  0  0  0  0  0  0  0  0  0  0
    2.7610  -12.9290   -2.0190 C   0  0  0  0  0  0  0  0  0  0  0  0
    2.0080  -12.7200   -3.1600 C   0  0  0  0  0  0  0  0  0  0  0  0
    2.5490  -11.9190   -4.1710 C   0  0  0  0  0  0  0  0  0  0  0  0
    3.8170  -11.3340   -4.0260 C   0  0  0  0  0  0  0  0  0  0  0  0
    4.5710  -11.5360   -2.8670 C   0  0  0  0  0  0  0  0  0  0  0  0
    4.0450  -12.3460   -1.8760 C   0  0  0  0  0  0  0  0  0  0  0  0
    1.2370  -14.3680   -0.5800 C   0  0  0  0  0  0  0  0  0  0  0  0
    1.4710  -15.3580    0.5830 C   0  0  0  0  0  0  0  0  0  0  0  0
    0.1700  -15.5820    1.3690 N   0  0  0  0  0  0  0  0  0  0  0  0
    0.2220  -15.0610    2.7890 C   0  0  0  0  0  0  0  0  0  0  0  0
    1.6440  -14.8320    3.2710 C   0  0  0  0  0  0  0  0  0  0  0  0
   -0.4340  -16.9670    1.2310 C   0  0  0  0  0  0  0  0  0  0  0  0
   -0.9960  -17.4770    2.5700 C   0  0  0  0  0  0  0  0  0  0  0  0
   -1.9440  -18.5410    2.4140 O   0  0  0  0  0  0  0  0  0  0  0  0
   -3.0440  -18.4830    3.3330 C   0  0  0  0  0  0  0  0  0  0  0  0
   14.0970  -11.8860   -3.1710 C   0  0  0  0  0  0  0  0  0  0  0  0
   12.7214  -11.1732    1.1705 H   0  0  0  0  0  0  0  0  0  0  0  0
   11.6041  -10.3995   -0.0041 H   0  0  0  0  0  0  0  0  0  0  0  0
   11.8126  -12.1837   -0.0041 H   0  0  0  0  0  0  0  0  0  0  0  0
   13.8167  -10.0468   -0.8542 H   0  0  0  0  0  0  0  0  0  0  0  0
   14.2752  -11.7627   -0.5526 H   0  0  0  0  0  0  0  0  0  0  0  0
   12.5720  -10.6170   -2.6800 H   0  0  0  0  0  0  0  0  0  0  0  0
   11.8119  -12.9647   -1.2223 H   0  0  0  0  0  0  0  0  0  0  0  0
   10.8849  -11.9239   -2.3625 H   0  0  0  0  0  0  0  0  0  0  0  0
   11.4310  -13.2134   -4.1934 H   0  0  0  0  0  0  0  0  0  0  0  0
   13.0719  -13.5825   -3.5867 H   0  0  0  0  0  0  0  0  0  0  0  0
   11.3284  -15.4764   -4.7632 H   0  0  0  0  0  0  0  0  0  0  0  0
   10.5757  -16.4906   -3.4778 H   0  0  0  0  0  0  0  0  0  0  0  0
    9.6099  -13.7414   -4.4306 H   0  0  0  0  0  0  0  0  0  0  0  0
    8.8278  -15.3355   -4.7550 H   0  0  0  0  0  0  0  0  0  0  0  0
    8.7177  -12.5196   -2.3112 H   0  0  0  0  0  0  0  0  0  0  0  0
    5.9919  -15.6803    0.5916 H   0  0  0  0  0  0  0  0  0  0  0  0
    5.9145  -18.1181    0.0072 H   0  0  0  0  0  0  0  0  0  0  0  0
    7.1752  -18.9863   -1.9566 H   0  0  0  0  0  0  0  0  0  0  0  0
    8.5374  -17.4432   -3.3838 H   0  0  0  0  0  0  0  0  0  0  0  0
    7.4320  -10.7590    2.4300 H   0  0  0  0  0  0  0  0  0  0  0  0
    3.5755  -13.8692    1.0033 H   0  0  0  0  0  0  0  0  0  0  0  0
    1.0109  -13.1714   -3.2695 H   0  0  0  0  0  0  0  0  0  0  0  0
    1.9733  -11.7451   -5.0920 H   0  0  0  0  0  0  0  0  0  0  0  0
    4.2221  -10.7086   -4.8352 H   0  0  0  0  0  0  0  0  0  0  0  0
    5.5569  -11.0635   -2.7456 H   0  0  0  0  0  0  0  0  0  0  0  0
    0.4621  -13.6419   -0.2933 H   0  0  0  0  0  0  0  0  0  0  0  0
    0.9086  -14.9211   -1.4723 H   0  0  0  0  0  0  0  0  0  0  0  0
    1.8180  -16.3192    0.1759 H   0  0  0  0  0  0  0  0  0  0  0  0
    2.2284  -14.9377    1.2610 H   0  0  0  0  0  0  0  0  0  0  0  0
   -0.4980  -14.9500    0.8940 H   0  0  0  0  0  0  0  0  0  0  0  0
   -0.3244  -14.1075    2.8355 H   0  0  0  0  0  0  0  0  0  0  0  0
   -0.2346  -15.8200    3.4412 H   0  0  0  0  0  0  0  0  0  0  0  0
    1.6624  -14.8290    4.3708 H   0  0  0  0  0  0  0  0  0  0  0  0
    2.2926  -15.6373    2.8956 H   0  0  0  0  0  0  0  0  0  0  0  0
    2.0070  -13.8638    2.8956 H   0  0  0  0  0  0  0  0  0  0  0  0
   -1.2491  -16.9289    0.4933 H   0  0  0  0  0  0  0  0  0  0  0  0
    0.3588  -17.6568    0.9060 H   0  0  0  0  0  0  0  0  0  0  0  0
   -0.1595  -17.8409    3.1847 H   0  0  0  0  0  0  0  0  0  0  0  0
   -1.5222  -16.6364    3.0460 H   0  0  0  0  0  0  0  0  0  0  0  0
   -4.0110  -18.0107    3.1055 H   0  0  0  0  0  0  0  0  0  0  0  0
   -3.5764  -18.9878    4.1526 H   0  0  0  0  0  0  0  0  0  0  0  0
   15.0603  -12.2798   -2.8146 H   0  0  0  0  0  0  0  0  0  0  0  0
   14.6256  -11.5877   -4.0884 H   0  0  0  0  0  0  0  0  0  0  0  0
  1  2  1  0
  2  3  1  0
  3  4  1  0
  4  5  1  0
  5  6  1  0
  6  7  1  0
  7  8  1  0
  8  9  1  0
  9 10  1  0
 10 11  2  0
 11 12  1  0
 12 13  2  0
 13 14  1  0
 14 15  2  0
 15 16  1  0
 16 17  2  0
 11 18  1  0
 18 19  2  0
 19 20  1  0
 20 21  2  0
 20 22  1  0
 22 23  1  0
 23 24  2  0
 19 25  1  0
 25 26  2  0
 26 27  1  0
 27 28  1  0
 28 29  2  0
 29 30  1  0
 30 31  2  0
 31 32  1  0
 32 33  2  0
 27 34  1  0
 34 35  1  0
 35 36  1  0
 36 37  1  0
 37 38  1  0
 36 39  1  0
 39 40  1  0
 40 41  1  0
 41 42  1  0
 42 43  1  0
 43  3  1  0
 17  9  1  0
 23 18  1  0
 33 25  1  0
 17 12  1  0
 33 28  1  0
  1 44  1  0
  1 45  1  0
  1 46  1  0
  2 47  1  0
  2 48  1  0
  3 49  1  0
  4 50  1  0
  4 51  1  0
  5 52  1  0
  5 53  1  0
  7 54  1  0
  7 55  1  0
  8 56  1  0
  8 57  1  0
 10 58  1  0
 13 59  1  0
 14 60  1  0
 15 61  1  0
 16 62  1  0
 22 63  1  0
 26 64  1  0
 29 65  1  0
 30 66  1  0
 31 67  1  0
 32 68  1  0
 34 69  1  0
 34 70  1  0
 35 71  1  0
 35 72  1  0
 36 73  1  0
 37 74  1  0
 37 75  1  0
 38 76  1  0
 38 77  1  0
 38 78  1  0
 39 79  1  0
 39 80  1  0
 40 81  1  0
 40 82  1  0
 42 83  1  0
 42 84  1  0
 43 85  1  0
 43 86  1  0
M  CHG  2   3   1  36   1
M  END
>  <meeko>  (8) 
{"is_sidechain": [false], "free_energy": -6.163, "intermolecular_energy": -12.73, "internal_energy": -2.6}

$$$$
LIB_QTVNFRLKAGKBPS__M_PUB_ALL__e8__s20260927
     RDKit          3D

 86 91  0  0  0  0  0  0  0  0999 V2000
   12.6820  -11.8340   -1.0970 C   0  0  0  0  0  0  0  0  0  0  0  0
   11.9940  -12.4530   -2.3000 C   0  0  0  0  0  0  0  0  0  0  0  0
   12.9130  -12.4260   -3.4950 N   0  0  0  0  0  0  0  0  0  0  0  0
   12.9940  -13.7820   -4.1980 C   0  0  0  0  0  0  0  0  0  0  0  0
   11.7520  -14.6190   -3.8710 C   0  0  0  0  0  0  0  0  0  0  0  0
   10.8900  -14.6130   -5.0180 O   0  0  0  0  0  0  0  0  0  0  0  0
    9.5110  -14.4320   -4.6290 C   0  0  0  0  0  0  0  0  0  0  0  0
    9.0420  -15.6140   -3.7710 C   0  0  0  0  0  0  0  0  0  0  0  0
    8.4650  -15.1440   -2.5230 N   0  0  0  0  0  0  0  0  0  0  0  0
    8.4560  -13.8710   -1.9870 C   0  0  0  0  0  0  0  0  0  0  0  0
    7.7210  -13.7500   -0.8600 C   0  0  0  0  0  0  0  0  0  0  0  0
    7.1570  -15.1010   -0.6570 C   0  0  0  0  0  0  0  0  0  0  0  0
    6.3160  -15.6050    0.3200 C   0  0  0  0  0  0  0  0  0  0  0  0
    5.9550  -16.9520    0.2420 C   0  0  0  0  0  0  0  0  0  0  0  0
    6.4370  -17.7650   -0.7980 C   0  0  0  0  0  0  0  0  0  0  0  0
    7.2870  -17.2490   -1.7810 C   0  0  0  0  0  0  0  0  0  0  0  0
    7.6440  -15.9170   -1.7040 C   0  0  0  0  0  0  0  0  0  0  0  0
    7.5150  -12.5620   -0.0860 C   0  0  0  0  0  0  0  0  0  0  0  0
    6.3890  -11.8710    0.1550 C   0  0  0  0  0  0  0  0  0  0  0  0
    6.7510  -10.7870    1.1060 C   0  0  0  0  0  0  0  0  0  0  0  0
    5.9670  -10.0420    1.6650 O   0  0  0  0  0  0  0  0  0  0  0  0
    8.0810  -10.8380    1.2970 N   0  0  0  0  0  0  0  0  0  0  0  0
    8.6080  -11.9080    0.6710 C   0  0  0  0  0  0  0  0  0  0  0  0
    9.7540  -12.3040    0.7670 O   0  0  0  0  0  0  0  0  0  0  0  0
    5.0460  -12.0700   -0.3190 C   0  0  0  0  0  0  0  0  0  0  0  0
    3.9840  -12.3880    0.4540 C   0  0  0  0  0  0  0  0  0  0  0  0
    2.7930  -12.5400   -0.2360 N   0  0  0  0  0  0  0  0  0  0  0  0
    3.0720  -12.2070   -1.5570 C   0  0  0  0  0  0  0  0  0  0  0  0
    2.2370  -12.1210   -2.6550 C   0  0  0  0  0  0  0  0  0  0  0  0
    2.7960  -11.7520   -3.8830 C   0  0  0  0  0  0  0  0  0  0  0  0
    4.1660  -11.4650   -3.9930 C   0  0  0  0  0  0  0  0  0  0  0  0
    5.0060  -11.5380   -2.8790 C   0  0  0  0  0  0  0  0  0  0  0  0
    4.4570  -11.9250   -1.6700 C   0  0  0  0  0  0  0  0  0  0  0  0
    1.4830  -12.8350    0.3260 C   0  0  0  0  0  0  0  0  0  0  0  0
    0.8350  -11.5280    0.8350 C   0  0  0  0  0  0  0  0  0  0  0  0
   -0.6950  -11.6060    0.7210 N   0  0  0  0  0  0  0  0  0  0  0  0
   -1.3600  -10.2590    0.5370 C   0  0  0  0  0  0  0  0  0  0  0  0
   -1.3450   -9.4260    1.8060 C   0  0  0  0  0  0  0  0  0  0  0  0
   -1.3700  -12.5040    1.7410 C   0  0  0  0  0  0  0  0  0  0  0  0
   -2.5340  -13.2960    1.1180 C   0  0  0  0  0  0  0  0  0  0  0  0
   -3.8200  -12.8690    1.5890 O   0  0  0  0  0  0  0  0  0  0  0  0
   -4.7590  -12.5850    0.5430 C   0  0  0  0  0  0  0  0  0  0  0  0
   14.2830  -11.8390   -3.2110 C   0  0  0  0  0  0  0  0  0  0  0  0
   12.2371  -12.2343   -0.1740 H   0  0  0  0  0  0  0  0  0  0  0  0
   13.7545  -12.0773   -1.1226 H   0  0  0  0  0  0  0  0  0  0  0  0
   12.5530  -10.7419   -1.1226 H   0  0  0  0  0  0  0  0  0  0  0  0
   11.7273  -13.4951   -2.0700 H   0  0  0  0  0  0  0  0  0  0  0  0
   11.0865  -11.8760   -2.5314 H   0  0  0  0  0  0  0  0  0  0  0  0
   12.5040  -11.7970   -4.2160 H   0  0  0  0  0  0  0  0  0  0  0  0
   13.0515  -13.6254   -5.2853 H   0  0  0  0  0  0  0  0  0  0  0  0
   13.8904  -14.3158   -3.8492 H   0  0  0  0  0  0  0  0  0  0  0  0
   12.0505  -15.6512   -3.6354 H   0  0  0  0  0  0  0  0  0  0  0  0
   11.2282  -14.1961   -3.0010 H   0  0  0  0  0  0  0  0  0  0  0  0
    9.4163  -13.5021   -4.0490 H   0  0  0  0  0  0  0  0  0  0  0  0
    8.8877  -14.3761   -5.5336 H   0  0  0  0  0  0  0  0  0  0  0  0
    8.2842  -16.1857   -4.3268 H   0  0  0  0  0  0  0  0  0  0  0  0
    9.9086  -16.2518   -3.5426 H   0  0  0  0  0  0  0  0  0  0  0  0
    9.0003  -13.0286   -2.4388 H   0  0  0  0  0  0  0  0  0  0  0  0
    5.9434  -14.9644    1.1329 H   0  0  0  0  0  0  0  0  0  0  0  0
    5.2863  -17.3810    1.0027 H   0  0  0  0  0  0  0  0  0  0  0  0
    6.1410  -18.8236   -0.8394 H   0  0  0  0  0  0  0  0  0  0  0  0
    7.6617  -17.8874   -2.5946 H   0  0  0  0  0  0  0  0  0  0  0  0
    8.6010  -10.2210    1.9000 H   0  0  0  0  0  0  0  0  0  0  0  0
    4.0596  -12.5158    1.5439 H   0  0  0  0  0  0  0  0  0  0  0  0
    1.1621  -12.3369   -2.5656 H   0  0  0  0  0  0  0  0  0  0  0  0
    2.1541  -11.6858   -4.7738 H   0  0  0  0  0  0  0  0  0  0  0  0
    4.5836  -11.1788   -4.9696 H   0  0  0  0  0  0  0  0  0  0  0  0
    6.0755  -11.2942   -2.9613 H   0  0  0  0  0  0  0  0  0  0  0  0
    0.8440  -13.2835   -0.4490 H   0  0  0  0  0  0  0  0  0  0  0  0
    1.5934  -13.5399    1.1632 H   0  0  0  0  0  0  0  0  0  0  0  0
    1.1121  -11.3729    1.8882 H   0  0  0  0  0  0  0  0  0  0  0  0
    1.1952  -10.6897    0.2206 H   0  0  0  0  0  0  0  0  0  0  0  0
   -0.8350  -12.0810   -0.1880 H   0  0  0  0  0  0  0  0  0  0  0  0
   -0.8287   -9.7081   -0.2531 H   0  0  0  0  0  0  0  0  0  0  0  0
   -2.4111  -10.4389    0.2672 H   0  0  0  0  0  0  0  0  0  0  0  0
   -1.3570  -10.0916    2.6817 H   0  0  0  0  0  0  0  0  0  0  0  0
   -0.4356   -8.8076    1.8279 H   0  0  0  0  0  0  0  0  0  0  0  0
   -2.2316   -8.7752    1.8279 H   0  0  0  0  0  0  0  0  0  0  0  0
   -0.6286  -13.2127    2.1385 H   0  0  0  0  0  0  0  0  0  0  0  0
   -1.7763  -11.8692    2.5422 H   0  0  0  0  0  0  0  0  0  0  0  0
   -2.5005  -13.1672    0.0261 H   0  0  0  0  0  0  0  0  0  0  0  0
   -2.4095  -14.3486    1.4122 H   0  0  0  0  0  0  0  0  0  0  0  0
   -5.3705  -13.3954    0.1195 H   0  0  0  0  0  0  0  0  0  0  0  0
   -5.6003  -11.8862    0.4252 H   0  0  0  0  0  0  0  0  0  0  0  0
   14.7563  -11.0606   -3.8276 H   0  0  0  0  0  0  0  0  0  0  0  0
   15.2942  -12.0355   -2.8252 H   0  0  0  0  0  0  0  0  0  0  0  0
  1  2  1  0
  2  3  1  0
  3  4  1  0
  4  5  1  0
  5  6  1  0
  6  7  1  0
  7  8  1  0
  8  9  1  0
  9 10  1  0
 10 11  2  0
 11 12  1  0
 12 13  2  0
 13 14  1  0
 14 15  2  0
 15 16  1  0
 16 17  2  0
 11 18  1  0
 18 19  2  0
 19 20  1  0
 20 21  2  0
 20 22  1  0
 22 23  1  0
 23 24  2  0
 19 25  1  0
 25 26  2  0
 26 27  1  0
 27 28  1  0
 28 29  2  0
 29 30  1  0
 30 31  2  0
 31 32  1  0
 32 33  2  0
 27 34  1  0
 34 35  1  0
 35 36  1  0
 36 37  1  0
 37 38  1  0
 36 39  1  0
 39 40  1  0
 40 41  1  0
 41 42  1  0
 42 43  1  0
 43  3  1  0
 17  9  1  0
 23 18  1  0
 33 25  1  0
 17 12  1  0
 33 28  1  0
  1 44  1  0
  1 45  1  0
  1 46  1  0
  2 47  1  0
  2 48  1  0
  3 49  1  0
  4 50  1  0
  4 51  1  0
  5 52  1  0
  5 53  1  0
  7 54  1  0
  7 55  1  0
  8 56  1  0
  8 57  1  0
 10 58  1  0
 13 59  1  0
 14 60  1  0
 15 61  1  0
 16 62  1  0
 22 63  1  0
 26 64  1  0
 29 65  1  0
 30 66  1  0
 31 67  1  0
 32 68  1  0
 34 69  1  0
 34 70  1  0
 35 71  1  0
 35 72  1  0
 36 73  1  0
 37 74  1  0
 37 75  1  0
 38 76  1  0
 38 77  1  0
 38 78  1  0
 39 79  1  0
 39 80  1  0
 40 81  1  0
 40 82  1  0
 42 83  1  0
 42 84  1  0
 43 85  1  0
 43 86  1  0
M  CHG  2   3   1  36   1
M  END
>  <meeko>  (9) 
{"is_sidechain": [false], "free_energy": -6.159, "intermolecular_energy": -12.652, "internal_energy": -2.67}

$$$$
