LIB_PHXJVRSECIGDHY__M_PUB_ALL__e8__s20260927
     RDKit          3D

 68 72  0  0  0  0  0  0  0  0999 V2000
   11.3480  -17.8210   12.4910 C   0  0  0  0  0  0  0  0  0  0  0  0
   11.7380  -16.3660   12.5440 C   0  0  0  0  0  0  0  0  0  0  0  0
   10.7390  -15.3820   12.4880 C   0  0  0  0  0  0  0  0  0  0  0  0
   11.0730  -14.0260   12.5400 C   0  0  0  0  0  0  0  0  0  0  0  0
   12.4120  -13.6360   12.6410 C   0  0  0  0  0  0  0  0  0  0  0  0
   12.7300  -12.1810   12.6900 C   0  0  0  0  0  0  0  0  0  0  0  0
   11.9780  -11.4250   13.2940 O   0  0  0  0  0  0  0  0  0  0  0  0
   13.8500  -11.7930   11.9670 N   0  0  0  0  0  0  0  0  0  0  0  0
   14.4240  -10.5070   11.9460 C   0  0  0  0  0  0  0  0  0  0  0  0
   13.7760   -9.3840   11.4360 C   0  0  0  0  0  0  0  0  0  0  0  0
   14.3970   -8.1320   11.4380 C   0  0  0  0  0  0  0  0  0  0  0  0
   15.6950   -7.9740   11.9420 C   0  0  0  0  0  0  0  0  0  0  0  0
   16.3370   -6.6070   11.8770 C   0  0  0  0  0  0  0  0  0  0  0  0
   15.6520   -5.5660   12.7660 N   0  0  0  0  0  0  0  0  0  0  0  0
   15.6510   -5.9570   14.2440 C   0  0  0  0  0  0  0  0  0  0  0  0
   14.9410   -4.8850   15.1080 C   0  0  0  0  0  0  0  0  0  0  0  0
   15.5240   -3.4960   14.8680 N   0  0  0  0  0  0  0  0  0  0  0  0
   14.8160   -2.4510   15.7110 C   0  0  0  0  0  0  0  0  0  0  0  0
   15.5240   -3.1090   13.3920 C   0  0  0  0  0  0  0  0  0  0  0  0
   16.2410   -4.1770   12.5300 C   0  0  0  0  0  0  0  0  0  0  0  0
   16.3590   -9.1070   12.4790 C   0  0  0  0  0  0  0  0  0  0  0  0
   17.7630   -9.0050   13.0260 C   0  0  0  0  0  0  0  0  0  0  0  0
   18.1620  -10.2400   13.4860 F   0  0  0  0  0  0  0  0  0  0  0  0
   17.9300   -8.1470   14.0560 F   0  0  0  0  0  0  0  0  0  0  0  0
   18.6700   -8.6880   12.0690 F   0  0  0  0  0  0  0  0  0  0  0  0
   15.7050  -10.3570   12.4850 C   0  0  0  0  0  0  0  0  0  0  0  0
   13.4130  -14.6100   12.7230 C   0  0  0  0  0  0  0  0  0  0  0  0
   13.0810  -15.9690   12.6680 C   0  0  0  0  0  0  0  0  0  0  0  0
   14.1380  -16.9320   12.7510 C   0  0  0  0  0  0  0  0  0  0  0  0
   15.0140  -17.7500   12.8160 C   0  0  0  0  0  0  0  0  0  0  0  0
   16.0540  -18.7160   12.8720 C   0  0  0  0  0  0  0  0  0  0  0  0
   16.4770  -19.4590   13.9510 C   0  0  0  0  0  0  0  0  0  0  0  0
   17.5160  -20.2880   13.6110 N   0  0  0  0  0  0  0  0  0  0  0  0
   17.7250  -20.0640   12.3290 C   0  0  0  0  0  0  0  0  0  0  0  0
   18.6580  -20.6270   11.4300 C   0  0  0  0  0  0  0  0  0  0  0  0
   18.6680  -20.2200   10.1540 C   0  0  0  0  0  0  0  0  0  0  0  0
   17.6800  -19.1840    9.7660 C   0  0  0  0  0  0  0  0  0  0  0  0
   16.8020  -18.6310   10.5420 N   0  0  0  0  0  0  0  0  0  0  0  0
   16.8570  -19.1050   11.8260 N   0  0  0  0  0  0  0  0  0  0  0  0
   11.2437  -18.2102   13.5146 H   0  0  0  0  0  0  0  0  0  0  0  0
   10.3903  -17.9248   11.9599 H   0  0  0  0  0  0  0  0  0  0  0  0
   12.1254  -18.3899   11.9599 H   0  0  0  0  0  0  0  0  0  0  0  0
    9.6838  -15.6807   12.4024 H   0  0  0  0  0  0  0  0  0  0  0  0
   10.2808  -13.2638   12.5014 H   0  0  0  0  0  0  0  0  0  0  0  0
   14.2520  -12.4900   11.3500 H   0  0  0  0  0  0  0  0  0  0  0  0
   12.7604   -9.4843   11.0256 H   0  0  0  0  0  0  0  0  0  0  0  0
   13.8598   -7.2591   11.0387 H   0  0  0  0  0  0  0  0  0  0  0  0
   17.3859   -6.6998   12.1950 H   0  0  0  0  0  0  0  0  0  0  0  0
   16.2444   -6.2559   10.8387 H   0  0  0  0  0  0  0  0  0  0  0  0
   14.6700   -5.5430   12.4400 H   0  0  0  0  0  0  0  0  0  0  0  0
   15.1263   -6.9167   14.3606 H   0  0  0  0  0  0  0  0  0  0  0  0
   16.6943   -6.0410   14.5822 H   0  0  0  0  0  0  0  0  0  0  0  0
   13.8710   -4.8722   14.8533 H   0  0  0  0  0  0  0  0  0  0  0  0
   15.0890   -5.1426   16.1671 H   0  0  0  0  0  0  0  0  0  0  0  0
   16.5000   -3.4880   15.2100 H   0  0  0  0  0  0  0  0  0  0  0  0
   14.9680   -2.6754   16.7771 H   0  0  0  0  0  0  0  0  0  0  0  0
   15.2270   -1.4564   15.4834 H   0  0  0  0  0  0  0  0  0  0  0  0
   13.7399   -2.4639   15.4834 H   0  0  0  0  0  0  0  0  0  0  0  0
   14.4840   -3.0098   13.0476 H   0  0  0  0  0  0  0  0  0  0  0  0
   16.0628   -2.1562   13.2830 H   0  0  0  0  0  0  0  0  0  0  0  0
   16.1277   -3.9153   11.4676 H   0  0  0  0  0  0  0  0  0  0  0  0
   17.3035   -4.1971   12.8142 H   0  0  0  0  0  0  0  0  0  0  0  0
   16.2125  -11.2297   12.9219 H   0  0  0  0  0  0  0  0  0  0  0  0
   14.4649  -14.3069   12.8311 H   0  0  0  0  0  0  0  0  0  0  0  0
   16.0379  -19.3960   14.9576 H   0  0  0  0  0  0  0  0  0  0  0  0
   19.3693  -21.3921   11.7745 H   0  0  0  0  0  0  0  0  0  0  0  0
   19.3787  -20.6363    9.4249 H   0  0  0  0  0  0  0  0  0  0  0  0
   17.6940  -18.8528    8.7171 H   0  0  0  0  0  0  0  0  0  0  0  0
  1  2  1  0
  2  3  2  0
  3  4  1  0
  4  5  2  0
  5  6  1  0
  6  7  2  0
  6  8  1  0
  8  9  1  0
  9 10  2  0
 10 11  1  0
 11 12  2  0
 12 13  1  0
 13 14  1  0
 14 15  1  0
 15 16  1  0
 16 17  1  0
 17 18  1  0
 17 19  1  0
 19 20  1  0
 12 21  1  0
 21 22  1  0
 22 23  1  0
 22 24  1  0
 22 25  1  0
 21 26  2  0
  5 27  1  0
 27 28  2  0
 28 29  1  0
 29 30  3  0
 30 31  1  0
 31 32  2  0
 32 33  1  0
 33 34  2  0
 34 35  1  0
 35 36  2  0
 36 37  1  0
 37 38  2  0
 38 39  1  0
 28  2  1  0
 39 31  1  0
 26  9  1  0
 39 34  1  0
 20 14  1  0
  1 40  1  0
  1 41  1  0
  1 42  1  0
  3 43  1  0
  4 44  1  0
  8 45  1  0
 10 46  1  0
 11 47  1  0
 13 48  1  0
 13 49  1  0
 14 50  1  0
 15 51  1  0
 15 52  1  0
 16 53  1  0
 16 54  1  0
 17 55  1  0
 18 56  1  0
 18 57  1  0
 18 58  1  0
 19 59  1  0
 19 60  1  0
 20 61  1  0
 20 62  1  0
 26 63  1  0
 27 64  1  0
 32 65  1  0
 35 66  1  0
 36 67  1  0
 37 68  1  0
M  CHG  2  14   1  17   1
M  END
>  <meeko>  (1) 
{"is_sidechain": [false], "free_energy": -8.887, "intermolecular_energy": -12.004, "internal_energy": -0.939}

$$$$
LIB_PHXJVRSECIGDHY__M_PUB_ALL__e8__s20260927
     RDKit          3D

 68 72  0  0  0  0  0  0  0  0999 V2000
    3.9680  -17.6290   -1.3140 C   0  0  0  0  0  0  0  0  0  0  0  0
    4.5550  -16.7730   -2.4070 C   0  0  0  0  0  0  0  0  0  0  0  0
    5.6620  -17.2400   -3.1310 C   0  0  0  0  0  0  0  0  0  0  0  0
    6.2230  -16.4680   -4.1510 C   0  0  0  0  0  0  0  0  0  0  0  0
    5.6870  -15.2130   -4.4570 C   0  0  0  0  0  0  0  0  0  0  0  0
    6.3140  -14.4160   -5.5490 C   0  0  0  0  0  0  0  0  0  0  0  0
    6.2140  -13.1950   -5.5300 O   0  0  0  0  0  0  0  0  0  0  0  0
    6.9140  -15.1580   -6.5570 N   0  0  0  0  0  0  0  0  0  0  0  0
    7.6690  -14.6480   -7.6310 C   0  0  0  0  0  0  0  0  0  0  0  0
    9.0590  -14.5440   -7.6120 C   0  0  0  0  0  0  0  0  0  0  0  0
    9.7560  -14.0260   -8.7060 C   0  0  0  0  0  0  0  0  0  0  0  0
    9.0750  -13.5840   -9.8500 C   0  0  0  0  0  0  0  0  0  0  0  0
    9.8760  -12.9880  -10.9860 C   0  0  0  0  0  0  0  0  0  0  0  0
   10.2000  -11.5050  -10.7940 N   0  0  0  0  0  0  0  0  0  0  0  0
   11.7020  -11.2260  -10.7570 C   0  0  0  0  0  0  0  0  0  0  0  0
   11.9890   -9.7170  -10.5510 C   0  0  0  0  0  0  0  0  0  0  0  0
   11.2570   -8.8630  -11.5820 N   0  0  0  0  0  0  0  0  0  0  0  0
   11.5360   -7.3860  -11.3680 C   0  0  0  0  0  0  0  0  0  0  0  0
    9.7580   -9.1440  -11.6170 C   0  0  0  0  0  0  0  0  0  0  0  0
    9.4730  -10.6510  -11.8300 C   0  0  0  0  0  0  0  0  0  0  0  0
    7.6620  -13.7000   -9.8860 C   0  0  0  0  0  0  0  0  0  0  0  0
    6.8690  -13.2320  -11.0840 C   0  0  0  0  0  0  0  0  0  0  0  0
    5.6180  -13.8060  -11.0540 F   0  0  0  0  0  0  0  0  0  0  0  0
    7.3950  -13.5350  -12.2900 F   0  0  0  0  0  0  0  0  0  0  0  0
    6.6320  -11.8960  -11.0570 F   0  0  0  0  0  0  0  0  0  0  0  0
    6.9800  -14.2450   -8.7780 C   0  0  0  0  0  0  0  0  0  0  0  0
    4.5670  -14.7480   -3.7580 C   0  0  0  0  0  0  0  0  0  0  0  0
    4.0060  -15.5200   -2.7330 C   0  0  0  0  0  0  0  0  0  0  0  0
    2.8640  -15.0040   -2.0400 C   0  0  0  0  0  0  0  0  0  0  0  0
    1.9080  -14.5820   -1.4490 C   0  0  0  0  0  0  0  0  0  0  0  0
    0.7880  -14.0660   -0.7450 C   0  0  0  0  0  0  0  0  0  0  0  0
   -0.4280  -14.6680   -0.5080 C   0  0  0  0  0  0  0  0  0  0  0  0
   -1.2610  -13.8470    0.2100 N   0  0  0  0  0  0  0  0  0  0  0  0
   -0.5600  -12.7510    0.4220 C   0  0  0  0  0  0  0  0  0  0  0  0
   -0.8860  -11.5600    1.1080 C   0  0  0  0  0  0  0  0  0  0  0  0
    0.0190  -10.5760    1.1800 C   0  0  0  0  0  0  0  0  0  0  0  0
    1.3260  -10.8080    0.5200 C   0  0  0  0  0  0  0  0  0  0  0  0
    1.6840  -11.8750   -0.1230 N   0  0  0  0  0  0  0  0  0  0  0  0
    0.7040  -12.8310   -0.1460 N   0  0  0  0  0  0  0  0  0  0  0  0
    4.2505  -17.2170   -0.3340 H   0  0  0  0  0  0  0  0  0  0  0  0
    2.8718  -17.6394   -1.4052 H   0  0  0  0  0  0  0  0  0  0  0  0
    4.3533  -18.6553   -1.4052 H   0  0  0  0  0  0  0  0  0  0  0  0
    6.0925  -18.2239   -2.8931 H   0  0  0  0  0  0  0  0  0  0  0  0
    7.0879  -16.8478   -4.7146 H   0  0  0  0  0  0  0  0  0  0  0  0
    6.7390  -16.1570   -6.5470 H   0  0  0  0  0  0  0  0  0  0  0  0
    9.6151  -14.8747   -6.7224 H   0  0  0  0  0  0  0  0  0  0  0  0
   10.8537  -13.9638   -8.6700 H   0  0  0  0  0  0  0  0  0  0  0  0
   10.8221  -13.5424  -11.0729 H   0  0  0  0  0  0  0  0  0  0  0  0
    9.2593  -13.0690  -11.8932 H   0  0  0  0  0  0  0  0  0  0  0  0
    9.8060  -11.2640   -9.8670 H   0  0  0  0  0  0  0  0  0  0  0  0
   12.1515  -11.7927   -9.9283 H   0  0  0  0  0  0  0  0  0  0  0  0
   12.1364  -11.5340  -11.7195 H   0  0  0  0  0  0  0  0  0  0  0  0
   11.6573   -9.4242   -9.5439 H   0  0  0  0  0  0  0  0  0  0  0  0
   13.0699   -9.5517  -10.6706 H   0  0  0  0  0  0  0  0  0  0  0  0
   11.6520   -9.0680  -12.5150 H   0  0  0  0  0  0  0  0  0  0  0  0
   11.5762   -7.1729  -10.2896 H   0  0  0  0  0  0  0  0  0  0  0  0
   12.4995   -7.1242  -11.8297 H   0  0  0  0  0  0  0  0  0  0  0  0
   10.7344   -6.7908  -11.8297 H   0  0  0  0  0  0  0  0  0  0  0  0
    9.3115   -8.8262  -10.6633 H   0  0  0  0  0  0  0  0  0  0  0  0
    9.3196   -8.5856  -12.4572 H   0  0  0  0  0  0  0  0  0  0  0  0
    8.3906  -10.8267  -11.7433 H   0  0  0  0  0  0  0  0  0  0  0  0
    9.8346  -10.9348  -12.8293 H   0  0  0  0  0  0  0  0  0  0  0  0
    5.8862  -14.3547   -8.8176 H   0  0  0  0  0  0  0  0  0  0  0  0
    4.1262  -13.7734   -4.0145 H   0  0  0  0  0  0  0  0  0  0  0  0
   -0.6971  -15.6781   -0.8506 H   0  0  0  0  0  0  0  0  0  0  0  0
   -1.8734  -11.4422    1.5783 H   0  0  0  0  0  0  0  0  0  0  0  0
   -0.1981   -9.6350    1.7067 H   0  0  0  0  0  0  0  0  0  0  0  0
    2.0643   -9.9950    0.5820 H   0  0  0  0  0  0  0  0  0  0  0  0
  1  2  1  0
  2  3  2  0
  3  4  1  0
  4  5  2  0
  5  6  1  0
  6  7  2  0
  6  8  1  0
  8  9  1  0
  9 10  2  0
 10 11  1  0
 11 12  2  0
 12 13  1  0
 13 14  1  0
 14 15  1  0
 15 16  1  0
 16 17  1  0
 17 18  1  0
 17 19  1  0
 19 20  1  0
 12 21  1  0
 21 22  1  0
 22 23  1  0
 22 24  1  0
 22 25  1  0
 21 26  2  0
  5 27  1  0
 27 28  2  0
 28 29  1  0
 29 30  3  0
 30 31  1  0
 31 32  2  0
 32 33  1  0
 33 34  2  0
 34 35  1  0
 35 36  2  0
 36 37  1  0
 37 38  2  0
 38 39  1  0
 28  2  1  0
 39 31  1  0
 26  9  1  0
 39 34  1  0
 20 14  1  0
  1 40  1  0
  1 41  1  0
  1 42  1  0
  3 43  1  0
  4 44  1  0
  8 45  1  0
 10 46  1  0
 11 47  1  0
 13 48  1  0
 13 49  1  0
 14 50  1  0
 15 51  1  0
 15 52  1  0
 16 53  1  0
 16 54  1  0
 17 55  1  0
 18 56  1  0
 18 57  1  0
 18 58  1  0
 19 59  1  0
 19 60  1  0
 20 61  1  0
 20 62  1  0
 26 63  1  0
 27 64  1  0
 32 65  1  0
 35 66  1  0
 36 67  1  0
 37 68  1  0
M  CHG  2  14   1  17   1
M  END
>  <meeko>  (2) 
{"is_sidechain": [false], "free_energy": -8.826, "intermolecular_energy": -11.889, "internal_energy": -0.972}

$$$$
LIB_PHXJVRSECIGDHY__M_PUB_ALL__e8__s20260927
     RDKit          3D

 68 72  0  0  0  0  0  0  0  0999 V2000
    1.2650  -10.9570   -1.4240 C   0  0  0  0  0  0  0  0  0  0  0  0
    2.0950  -11.2930   -2.6360 C   0  0  0  0  0  0  0  0  0  0  0  0
    2.6660  -10.2560   -3.3910 C   0  0  0  0  0  0  0  0  0  0  0  0
    3.4430  -10.5400   -4.5160 C   0  0  0  0  0  0  0  0  0  0  0  0
    3.6540  -11.8660   -4.9070 C   0  0  0  0  0  0  0  0  0  0  0  0
    4.4860  -12.1310   -6.1150 C   0  0  0  0  0  0  0  0  0  0  0  0
    4.4530  -11.3370   -7.0480 O   0  0  0  0  0  0  0  0  0  0  0  0
    5.1940  -13.3240   -6.1000 N   0  0  0  0  0  0  0  0  0  0  0  0
    6.1330  -13.7490   -7.0590 C   0  0  0  0  0  0  0  0  0  0  0  0
    6.8850  -14.9150   -6.9340 C   0  0  0  0  0  0  0  0  0  0  0  0
    7.8070  -15.2850   -7.9170 C   0  0  0  0  0  0  0  0  0  0  0  0
    8.0100  -14.4860   -9.0500 C   0  0  0  0  0  0  0  0  0  0  0  0
    9.0540  -14.9090  -10.0590 C   0  0  0  0  0  0  0  0  0  0  0  0
   10.4530  -15.0740   -9.4600 N   0  0  0  0  0  0  0  0  0  0  0  0
   11.3820  -15.9070  -10.3420 C   0  0  0  0  0  0  0  0  0  0  0  0
   12.7830  -16.0590   -9.6970 C   0  0  0  0  0  0  0  0  0  0  0  0
   13.3790  -14.7040   -9.3310 N   0  0  0  0  0  0  0  0  0  0  0  0
   14.7470  -14.8620   -8.6910 C   0  0  0  0  0  0  0  0  0  0  0  0
   12.4500  -13.8740   -8.4500 C   0  0  0  0  0  0  0  0  0  0  0  0
   11.0530  -13.7170   -9.0990 C   0  0  0  0  0  0  0  0  0  0  0  0
    7.2390  -13.3040   -9.1960 C   0  0  0  0  0  0  0  0  0  0  0  0
    7.4200  -12.3930  -10.3880 C   0  0  0  0  0  0  0  0  0  0  0  0
    6.9070  -13.0050  -11.5090 F   0  0  0  0  0  0  0  0  0  0  0  0
    8.6950  -12.0650  -10.6860 F   0  0  0  0  0  0  0  0  0  0  0  0
    6.7100  -11.2430  -10.2720 F   0  0  0  0  0  0  0  0  0  0  0  0
    6.3000  -12.9600   -8.2010 C   0  0  0  0  0  0  0  0  0  0  0  0
    3.1110  -12.9080   -4.1470 C   0  0  0  0  0  0  0  0  0  0  0  0
    2.3300  -12.6240   -3.0200 C   0  0  0  0  0  0  0  0  0  0  0  0
    1.7890  -13.7210   -2.2740 C   0  0  0  0  0  0  0  0  0  0  0  0
    1.3270  -14.6310   -1.6410 C   0  0  0  0  0  0  0  0  0  0  0  0
    0.7640  -15.6950   -0.8880 C   0  0  0  0  0  0  0  0  0  0  0  0
    1.3020  -16.9330   -0.6180 C   0  0  0  0  0  0  0  0  0  0  0  0
    0.4500  -17.6930    0.1450 N   0  0  0  0  0  0  0  0  0  0  0  0
   -0.6000  -16.9240    0.3520 C   0  0  0  0  0  0  0  0  0  0  0  0
   -1.7930  -17.1590    1.0710 C   0  0  0  0  0  0  0  0  0  0  0  0
   -2.7230  -16.1970    1.1290 C   0  0  0  0  0  0  0  0  0  0  0  0
   -2.4320  -14.9290    0.4190 C   0  0  0  0  0  0  0  0  0  0  0  0
   -1.3610  -14.6540   -0.2570 N   0  0  0  0  0  0  0  0  0  0  0  0
   -0.4610  -15.6870   -0.2630 N   0  0  0  0  0  0  0  0  0  0  0  0
    1.8362  -11.1882   -0.5128 H   0  0  0  0  0  0  0  0  0  0  0  0
    1.0135   -9.8862   -1.4372 H   0  0  0  0  0  0  0  0  0  0  0  0
    0.3394  -11.5513   -1.4372 H   0  0  0  0  0  0  0  0  0  0  0  0
    2.4997   -9.2101   -3.0935 H   0  0  0  0  0  0  0  0  0  0  0  0
    3.8900   -9.7190   -5.0958 H   0  0  0  0  0  0  0  0  0  0  0  0
    4.9640  -13.9750   -5.3570 H   0  0  0  0  0  0  0  0  0  0  0  0
    6.7511  -15.5539   -6.0486 H   0  0  0  0  0  0  0  0  0  0  0  0
    8.3810  -16.2160   -7.7996 H   0  0  0  0  0  0  0  0  0  0  0  0
    8.7466  -15.8710  -10.4951 H   0  0  0  0  0  0  0  0  0  0  0  0
    9.1175  -14.1098  -10.8121 H   0  0  0  0  0  0  0  0  0  0  0  0
   10.3040  -15.5890   -8.5740 H   0  0  0  0  0  0  0  0  0  0  0  0
   10.9422  -16.9053  -10.4834 H   0  0  0  0  0  0  0  0  0  0  0  0
   11.4979  -15.3929  -11.3076 H   0  0  0  0  0  0  0  0  0  0  0  0
   12.6928  -16.6679   -8.7854 H   0  0  0  0  0  0  0  0  0  0  0  0
   13.4485  -16.5433  -10.4267 H   0  0  0  0  0  0  0  0  0  0  0  0
   13.5610  -14.1800  -10.2030 H   0  0  0  0  0  0  0  0  0  0  0  0
   14.6431  -14.8500   -7.5960 H   0  0  0  0  0  0  0  0  0  0  0  0
   15.1914  -15.8174   -9.0067 H   0  0  0  0  0  0  0  0  0  0  0  0
   15.3975  -14.0330   -9.0067 H   0  0  0  0  0  0  0  0  0  0  0  0
   12.3389  -14.3730   -7.4760 H   0  0  0  0  0  0  0  0  0  0  0  0
   12.8902  -12.8736   -8.3260 H   0  0  0  0  0  0  0  0  0  0  0  0
   10.3841  -13.2066   -8.3905 H   0  0  0  0  0  0  0  0  0  0  0  0
   11.1633  -13.1295  -10.0224 H   0  0  0  0  0  0  0  0  0  0  0  0
    5.6881  -12.0545   -8.3259 H   0  0  0  0  0  0  0  0  0  0  0  0
    3.2982  -13.9528   -4.4356 H   0  0  0  0  0  0  0  0  0  0  0  0
    2.2885  -17.2704   -0.9687 H   0  0  0  0  0  0  0  0  0  0  0  0
   -1.9564  -18.1216    1.5777 H   0  0  0  0  0  0  0  0  0  0  0  0
   -3.6636  -16.3419    1.6806 H   0  0  0  0  0  0  0  0  0  0  0  0
   -3.2008  -14.1440    0.4709 H   0  0  0  0  0  0  0  0  0  0  0  0
  1  2  1  0
  2  3  2  0
  3  4  1  0
  4  5  2  0
  5  6  1  0
  6  7  2  0
  6  8  1  0
  8  9  1  0
  9 10  2  0
 10 11  1  0
 11 12  2  0
 12 13  1  0
 13 14  1  0
 14 15  1  0
 15 16  1  0
 16 17  1  0
 17 18  1  0
 17 19  1  0
 19 20  1  0
 12 21  1  0
 21 22  1  0
 22 23  1  0
 22 24  1  0
 22 25  1  0
 21 26  2  0
  5 27  1  0
 27 28  2  0
 28 29  1  0
 29 30  3  0
 30 31  1  0
 31 32  2  0
 32 33  1  0
 33 34  2  0
 34 35  1  0
 35 36  2  0
 36 37  1  0
 37 38  2  0
 38 39  1  0
 28  2  1  0
 39 31  1  0
 26  9  1  0
 39 34  1  0
 20 14  1  0
  1 40  1  0
  1 41  1  0
  1 42  1  0
  3 43  1  0
  4 44  1  0
  8 45  1  0
 10 46  1  0
 11 47  1  0
 13 48  1  0
 13 49  1  0
 14 50  1  0
 15 51  1  0
 15 52  1  0
 16 53  1  0
 16 54  1  0
 17 55  1  0
 18 56  1  0
 18 57  1  0
 18 58  1  0
 19 59  1  0
 19 60  1  0
 20 61  1  0
 20 62  1  0
 26 63  1  0
 27 64  1  0
 32 65  1  0
 35 66  1  0
 36 67  1  0
 37 68  1  0
M  CHG  2  14   1  17   1
M  END
>  <meeko>  (3) 
{"is_sidechain": [false], "free_energy": -8.822, "intermolecular_energy": -12.536, "internal_energy": -0.32}

$$$$
LIB_PHXJVRSECIGDHY__M_PUB_ALL__e8__s20260927
     RDKit          3D

 68 72  0  0  0  0  0  0  0  0999 V2000
   11.7060  -13.1980  -12.6050 C   0  0  0  0  0  0  0  0  0  0  0  0
   10.5200  -13.3570  -11.6900 C   0  0  0  0  0  0  0  0  0  0  0  0
    9.2470  -12.9690  -12.1350 C   0  0  0  0  0  0  0  0  0  0  0  0
    8.1300  -13.1080  -11.3090 C   0  0  0  0  0  0  0  0  0  0  0  0
    8.2710  -13.6330  -10.0200 C   0  0  0  0  0  0  0  0  0  0  0  0
    7.0580  -13.7640   -9.1650 C   0  0  0  0  0  0  0  0  0  0  0  0
    5.9800  -14.0110   -9.6920 O   0  0  0  0  0  0  0  0  0  0  0  0
    7.2550  -13.5210   -7.8130 N   0  0  0  0  0  0  0  0  0  0  0  0
    6.3040  -13.6910   -6.7880 C   0  0  0  0  0  0  0  0  0  0  0  0
    6.1340  -14.8840   -6.0880 C   0  0  0  0  0  0  0  0  0  0  0  0
    5.1710  -14.9970   -5.0830 C   0  0  0  0  0  0  0  0  0  0  0  0
    4.3390  -13.9160   -4.7580 C   0  0  0  0  0  0  0  0  0  0  0  0
    3.2820  -14.1080   -3.6940 C   0  0  0  0  0  0  0  0  0  0  0  0
    3.8530  -14.2350   -2.2800 N   0  0  0  0  0  0  0  0  0  0  0  0
    4.2180  -12.8840   -1.6640 C   0  0  0  0  0  0  0  0  0  0  0  0
    4.8010  -13.0540   -0.2390 C   0  0  0  0  0  0  0  0  0  0  0  0
    3.8730  -13.8750    0.6510 N   0  0  0  0  0  0  0  0  0  0  0  0
    4.4560  -14.0460    2.0420 C   0  0  0  0  0  0  0  0  0  0  0  0
    3.5110  -15.2230    0.0340 C   0  0  0  0  0  0  0  0  0  0  0  0
    2.9210  -15.0500   -1.3880 C   0  0  0  0  0  0  0  0  0  0  0  0
    4.5140  -12.6920   -5.4520 C   0  0  0  0  0  0  0  0  0  0  0  0
    3.6420  -11.4940   -5.1580 C   0  0  0  0  0  0  0  0  0  0  0  0
    4.1190  -10.8480   -4.0400 F   0  0  0  0  0  0  0  0  0  0  0  0
    2.3410  -11.7610   -4.9130 F   0  0  0  0  0  0  0  0  0  0  0  0
    3.6970  -10.5600   -6.1410 F   0  0  0  0  0  0  0  0  0  0  0  0
    5.5060  -12.5950   -6.4500 C   0  0  0  0  0  0  0  0  0  0  0  0
    9.5320  -14.0460   -9.5750 C   0  0  0  0  0  0  0  0  0  0  0  0
   10.6530  -13.9040  -10.4020 C   0  0  0  0  0  0  0  0  0  0  0  0
   11.9250  -14.3360   -9.9040 C   0  0  0  0  0  0  0  0  0  0  0  0
   12.9980  -14.6910   -9.4980 C   0  0  0  0  0  0  0  0  0  0  0  0
   14.2730  -15.1150   -9.0380 C   0  0  0  0  0  0  0  0  0  0  0  0
   14.7280  -15.2120   -7.7420 C   0  0  0  0  0  0  0  0  0  0  0  0
   16.0250  -15.6600   -7.7000 N   0  0  0  0  0  0  0  0  0  0  0  0
   16.3620  -15.8470   -8.9600 C   0  0  0  0  0  0  0  0  0  0  0  0
   17.5660  -16.3050   -9.5390 C   0  0  0  0  0  0  0  0  0  0  0  0
   17.6570  -16.4060  -10.8710 C   0  0  0  0  0  0  0  0  0  0  0  0
   16.4640  -16.0210  -11.6620 C   0  0  0  0  0  0  0  0  0  0  0  0
   15.3340  -15.5940  -11.1920 N   0  0  0  0  0  0  0  0  0  0  0  0
   15.3240  -15.5240   -9.8240 N   0  0  0  0  0  0  0  0  0  0  0  0
   12.6191  -13.0756  -12.0039 H   0  0  0  0  0  0  0  0  0  0  0  0
   11.8018  -14.0913  -13.2396 H   0  0  0  0  0  0  0  0  0  0  0  0
   11.5632  -12.3110  -13.2396 H   0  0  0  0  0  0  0  0  0  0  0  0
    9.1279  -12.5509  -13.1454 H   0  0  0  0  0  0  0  0  0  0  0  0
    7.1372  -12.8041  -11.6724 H   0  0  0  0  0  0  0  0  0  0  0  0
    8.1510  -13.1260   -7.5520 H   0  0  0  0  0  0  0  0  0  0  0  0
    6.7679  -15.7496   -6.3307 H   0  0  0  0  0  0  0  0  0  0  0  0
    5.0636  -15.9470   -4.5389 H   0  0  0  0  0  0  0  0  0  0  0  0
    2.6027  -13.2432   -3.7185 H   0  0  0  0  0  0  0  0  0  0  0  0
    2.7649  -15.0523   -3.9194 H   0  0  0  0  0  0  0  0  0  0  0  0
    4.7260  -14.7810   -2.3930 H   0  0  0  0  0  0  0  0  0  0  0  0
    4.9668  -12.3904   -2.3009 H   0  0  0  0  0  0  0  0  0  0  0  0
    3.3041  -12.2758   -1.5948 H   0  0  0  0  0  0  0  0  0  0  0  0
    5.7729  -13.5645   -0.3091 H   0  0  0  0  0  0  0  0  0  0  0  0
    4.9142  -12.0556    0.2087 H   0  0  0  0  0  0  0  0  0  0  0  0
    3.0030  -13.3360    0.7990 H   0  0  0  0  0  0  0  0  0  0  0  0
    3.6849  -13.8198    2.7931 H   0  0  0  0  0  0  0  0  0  0  0  0
    4.8000  -15.0829    2.1705 H   0  0  0  0  0  0  0  0  0  0  0  0
    5.3056  -13.3592    2.1705 H   0  0  0  0  0  0  0  0  0  0  0  0
    4.4168  -15.8442   -0.0268 H   0  0  0  0  0  0  0  0  0  0  0  0
    2.7521  -15.7033    0.6691 H   0  0  0  0  0  0  0  0  0  0  0  0
    2.7725  -16.0429   -1.8375 H   0  0  0  0  0  0  0  0  0  0  0  0
    1.9643  -14.5137   -1.3039 H   0  0  0  0  0  0  0  0  0  0  0  0
    5.6542  -11.6383   -6.9722 H   0  0  0  0  0  0  0  0  0  0  0  0
    9.6429  -14.4837   -8.5720 H   0  0  0  0  0  0  0  0  0  0  0  0
   14.1289  -14.9624   -6.8539 H   0  0  0  0  0  0  0  0  0  0  0  0
   18.4207  -16.5761   -8.9018 H   0  0  0  0  0  0  0  0  0  0  0  0
   18.5779  -16.7597  -11.3576 H   0  0  0  0  0  0  0  0  0  0  0  0
   16.5457  -16.1060  -12.7557 H   0  0  0  0  0  0  0  0  0  0  0  0
  1  2  1  0
  2  3  2  0
  3  4  1  0
  4  5  2  0
  5  6  1  0
  6  7  2  0
  6  8  1  0
  8  9  1  0
  9 10  2  0
 10 11  1  0
 11 12  2  0
 12 13  1  0
 13 14  1  0
 14 15  1  0
 15 16  1  0
 16 17  1  0
 17 18  1  0
 17 19  1  0
 19 20  1  0
 12 21  1  0
 21 22  1  0
 22 23  1  0
 22 24  1  0
 22 25  1  0
 21 26  2  0
  5 27  1  0
 27 28  2  0
 28 29  1  0
 29 30  3  0
 30 31  1  0
 31 32  2  0
 32 33  1  0
 33 34  2  0
 34 35  1  0
 35 36  2  0
 36 37  1  0
 37 38  2  0
 38 39  1  0
 28  2  1  0
 39 31  1  0
 26  9  1  0
 39 34  1  0
 20 14  1  0
  1 40  1  0
  1 41  1  0
  1 42  1  0
  3 43  1  0
  4 44  1  0
  8 45  1  0
 10 46  1  0
 11 47  1  0
 13 48  1  0
 13 49  1  0
 14 50  1  0
 15 51  1  0
 15 52  1  0
 16 53  1  0
 16 54  1  0
 17 55  1  0
 18 56  1  0
 18 57  1  0
 18 58  1  0
 19 59  1  0
 19 60  1  0
 20 61  1  0
 20 62  1  0
 26 63  1  0
 27 64  1  0
 32 65  1  0
 35 66  1  0
 36 67  1  0
 37 68  1  0
M  CHG  2  14   1  17   1
M  END
>  <meeko>  (4) 
{"is_sidechain": [false], "free_energy": -8.652, "intermolecular_energy": -11.765, "internal_energy": -0.861}

$$$$
LIB_PHXJVRSECIGDHY__M_PUB_ALL__e8__s20260927
     RDKit          3D

 68 72  0  0  0  0  0  0  0  0999 V2000
    3.9150  -10.7120   -6.4600 C   0  0  0  0  0  0  0  0  0  0  0  0
    3.6850  -11.1420   -5.0340 C   0  0  0  0  0  0  0  0  0  0  0  0
    2.9170  -10.3310   -4.1830 C   0  0  0  0  0  0  0  0  0  0  0  0
    2.6850  -10.7080   -2.8580 C   0  0  0  0  0  0  0  0  0  0  0  0
    3.2250  -11.8990   -2.3620 C   0  0  0  0  0  0  0  0  0  0  0  0
    2.9600  -12.2670   -0.9430 C   0  0  0  0  0  0  0  0  0  0  0  0
    3.8750  -12.2100   -0.1300 O   0  0  0  0  0  0  0  0  0  0  0  0
    1.6750  -12.7180   -0.6760 N   0  0  0  0  0  0  0  0  0  0  0  0
    1.1420  -13.0150    0.5930 C   0  0  0  0  0  0  0  0  0  0  0  0
    1.5410  -14.1090    1.3570 C   0  0  0  0  0  0  0  0  0  0  0  0
    0.9740  -14.3560    2.6100 C   0  0  0  0  0  0  0  0  0  0  0  0
   -0.0220  -13.5160    3.1280 C   0  0  0  0  0  0  0  0  0  0  0  0
   -0.6340  -13.8570    4.4680 C   0  0  0  0  0  0  0  0  0  0  0  0
   -0.4320  -15.3170    4.8790 N   0  0  0  0  0  0  0  0  0  0  0  0
    0.3820  -15.4650    6.1640 C   0  0  0  0  0  0  0  0  0  0  0  0
    0.5740  -16.9550    6.5410 C   0  0  0  0  0  0  0  0  0  0  0  0
   -0.7600  -17.6920    6.6030 N   0  0  0  0  0  0  0  0  0  0  0  0
   -0.5630  -19.1540    6.9630 C   0  0  0  0  0  0  0  0  0  0  0  0
   -1.5710  -17.5440    5.3190 C   0  0  0  0  0  0  0  0  0  0  0  0
   -1.7680  -16.0530    4.9470 C   0  0  0  0  0  0  0  0  0  0  0  0
   -0.4240  -12.3900    2.3660 C   0  0  0  0  0  0  0  0  0  0  0  0
   -1.5000  -11.4520    2.8630 C   0  0  0  0  0  0  0  0  0  0  0  0
   -1.1410  -10.9620    4.0980 F   0  0  0  0  0  0  0  0  0  0  0  0
   -2.7260  -11.9960    3.0150 F   0  0  0  0  0  0  0  0  0  0  0  0
   -1.6270  -10.3500    2.0820 F   0  0  0  0  0  0  0  0  0  0  0  0
    0.1760  -12.1480    1.1130 C   0  0  0  0  0  0  0  0  0  0  0  0
    3.9710  -12.7270   -3.2090 C   0  0  0  0  0  0  0  0  0  0  0  0
    4.2060  -12.3490   -4.5370 C   0  0  0  0  0  0  0  0  0  0  0  0
    4.9790  -13.2250   -5.3660 C   0  0  0  0  0  0  0  0  0  0  0  0
    5.6280  -13.9470   -6.0720 C   0  0  0  0  0  0  0  0  0  0  0  0
    6.3930  -14.7880   -6.9220 C   0  0  0  0  0  0  0  0  0  0  0  0
    6.9380  -16.0220   -6.6440 C   0  0  0  0  0  0  0  0  0  0  0  0
    7.6160  -16.5250   -7.7270 N   0  0  0  0  0  0  0  0  0  0  0  0
    7.4810  -15.6120   -8.6680 C   0  0  0  0  0  0  0  0  0  0  0  0
    7.9550  -15.5750   -9.9980 C   0  0  0  0  0  0  0  0  0  0  0  0
    7.6790  -14.5120  -10.7630 C   0  0  0  0  0  0  0  0  0  0  0  0
    6.8800  -13.4240  -10.1490 C   0  0  0  0  0  0  0  0  0  0  0  0
    6.4180  -13.3990   -8.9380 N   0  0  0  0  0  0  0  0  0  0  0  0
    6.7420  -14.5230   -8.2260 N   0  0  0  0  0  0  0  0  0  0  0  0
    4.4338   -9.7421   -6.4714 H   0  0  0  0  0  0  0  0  0  0  0  0
    4.5315  -11.4636   -6.9747 H   0  0  0  0  0  0  0  0  0  0  0  0
    2.9476  -10.6164   -6.9747 H   0  0  0  0  0  0  0  0  0  0  0  0
    2.4939   -9.3896   -4.5634 H   0  0  0  0  0  0  0  0  0  0  0  0
    2.0764  -10.0668   -2.2034 H   0  0  0  0  0  0  0  0  0  0  0  0
    1.0880  -12.9090   -1.4810 H   0  0  0  0  0  0  0  0  0  0  0  0
    2.3138  -14.7885    0.9683 H   0  0  0  0  0  0  0  0  0  0  0  0
    1.3137  -15.2213    3.1981 H   0  0  0  0  0  0  0  0  0  0  0  0
   -0.1759  -13.2135    5.2336 H   0  0  0  0  0  0  0  0  0  0  0  0
   -1.7181  -13.6936    4.3789 H   0  0  0  0  0  0  0  0  0  0  0  0
    0.1120  -15.7390    4.1050 H   0  0  0  0  0  0  0  0  0  0  0  0
    1.3693  -15.0024    6.0179 H   0  0  0  0  0  0  0  0  0  0  0  0
   -0.1640  -14.9684    6.9796 H   0  0  0  0  0  0  0  0  0  0  0  0
    1.2131  -17.4354    5.7855 H   0  0  0  0  0  0  0  0  0  0  0  0
    1.0410  -17.0020    7.5358 H   0  0  0  0  0  0  0  0  0  0  0  0
   -1.3110  -17.3050    7.3870 H   0  0  0  0  0  0  0  0  0  0  0  0
   -0.5483  -19.2634    8.0575 H   0  0  0  0  0  0  0  0  0  0  0  0
   -1.3891  -19.7488    6.5462 H   0  0  0  0  0  0  0  0  0  0  0  0
    0.3911  -19.5089    6.5462 H   0  0  0  0  0  0  0  0  0  0  0  0
   -1.0404  -18.0508    4.4995 H   0  0  0  0  0  0  0  0  0  0  0  0
   -2.5610  -17.9958    5.4794 H   0  0  0  0  0  0  0  0  0  0  0  0
   -2.2618  -15.9907    3.9660 H   0  0  0  0  0  0  0  0  0  0  0  0
   -2.3858  -15.5799    5.7245 H   0  0  0  0  0  0  0  0  0  0  0  0
   -0.1213  -11.2611    0.5342 H   0  0  0  0  0  0  0  0  0  0  0  0
    4.3741  -13.6778   -2.8303 H   0  0  0  0  0  0  0  0  0  0  0  0
    6.8423  -16.5387   -5.6776 H   0  0  0  0  0  0  0  0  0  0  0  0
    8.5450  -16.4114  -10.4010 H   0  0  0  0  0  0  0  0  0  0  0  0
    8.0301  -14.4481  -11.8035 H   0  0  0  0  0  0  0  0  0  0  0  0
    6.6576  -12.5531  -10.7831 H   0  0  0  0  0  0  0  0  0  0  0  0
  1  2  1  0
  2  3  2  0
  3  4  1  0
  4  5  2  0
  5  6  1  0
  6  7  2  0
  6  8  1  0
  8  9  1  0
  9 10  2  0
 10 11  1  0
 11 12  2  0
 12 13  1  0
 13 14  1  0
 14 15  1  0
 15 16  1  0
 16 17  1  0
 17 18  1  0
 17 19  1  0
 19 20  1  0
 12 21  1  0
 21 22  1  0
 22 23  1  0
 22 24  1  0
 22 25  1  0
 21 26  2  0
  5 27  1  0
 27 28  2  0
 28 29  1  0
 29 30  3  0
 30 31  1  0
 31 32  2  0
 32 33  1  0
 33 34  2  0
 34 35  1  0
 35 36  2  0
 36 37  1  0
 37 38  2  0
 38 39  1  0
 28  2  1  0
 39 31  1  0
 26  9  1  0
 39 34  1  0
 20 14  1  0
  1 40  1  0
  1 41  1  0
  1 42  1  0
  3 43  1  0
  4 44  1  0
  8 45  1  0
 10 46  1  0
 11 47  1  0
 13 48  1  0
 13 49  1  0
 14 50  1  0
 15 51  1  0
 15 52  1  0
 16 53  1  0
 16 54  1  0
 17 55  1  0
 18 56  1  0
 18 57  1  0
 18 58  1  0
 19 59  1  0
 19 60  1  0
 20 61  1  0
 20 62  1  0
 26 63  1  0
 27 64  1  0
 32 65  1  0
 35 66  1  0
 36 67  1  0
 37 68  1  0
M  CHG  2  14   1  17   1
M  END
>  <meeko>  (5) 
{"is_sidechain": [false], "free_energy": -8.586, "intermolecular_energy": -11.743, "internal_energy": -0.794}

$$$$
LIB_PHXJVRSECIGDHY__M_PUB_ALL__e8__s20260927
     RDKit          3D

 68 72  0  0  0  0  0  0  0  0999 V2000
    1.0630  -10.3940   -1.6890 C   0  0  0  0  0  0  0  0  0  0  0  0
    2.2230  -10.9160   -2.4970 C   0  0  0  0  0  0  0  0  0  0  0  0
    2.5730  -10.2760   -3.6950 C   0  0  0  0  0  0  0  0  0  0  0  0
    3.6460  -10.7370   -4.4620 C   0  0  0  0  0  0  0  0  0  0  0  0
    4.3800  -11.8510   -4.0430 C   0  0  0  0  0  0  0  0  0  0  0  0
    5.5160  -12.3170   -4.8880 C   0  0  0  0  0  0  0  0  0  0  0  0
    6.6550  -12.2620   -4.4400 O   0  0  0  0  0  0  0  0  0  0  0  0
    5.1750  -12.7210   -6.1710 N   0  0  0  0  0  0  0  0  0  0  0  0
    6.0380  -13.3070   -7.1170 C   0  0  0  0  0  0  0  0  0  0  0  0
    6.6510  -14.5460   -6.9350 C   0  0  0  0  0  0  0  0  0  0  0  0
    7.5020  -15.0770   -7.9070 C   0  0  0  0  0  0  0  0  0  0  0  0
    7.7740  -14.3730   -9.0880 C   0  0  0  0  0  0  0  0  0  0  0  0
    8.7390  -14.9730  -10.0850 C   0  0  0  0  0  0  0  0  0  0  0  0
   10.2030  -14.6240   -9.8060 N   0  0  0  0  0  0  0  0  0  0  0  0
   10.9750  -15.7740   -9.1600 C   0  0  0  0  0  0  0  0  0  0  0  0
   12.4470  -15.3790   -8.8840 C   0  0  0  0  0  0  0  0  0  0  0  0
   13.1280  -14.8470  -10.1410 N   0  0  0  0  0  0  0  0  0  0  0  0
   14.5670  -14.4520   -9.8600 C   0  0  0  0  0  0  0  0  0  0  0  0
   12.3560  -13.6980  -10.7840 C   0  0  0  0  0  0  0  0  0  0  0  0
   10.8860  -14.0980  -11.0660 C   0  0  0  0  0  0  0  0  0  0  0  0
    7.1430  -13.1190   -9.2920 C   0  0  0  0  0  0  0  0  0  0  0  0
    7.4030  -12.3050  -10.5380 C   0  0  0  0  0  0  0  0  0  0  0  0
    6.6290  -11.1680  -10.5080 F   0  0  0  0  0  0  0  0  0  0  0  0
    7.1260  -12.9200  -11.7080 F   0  0  0  0  0  0  0  0  0  0  0  0
    8.6790  -11.8470  -10.6010 F   0  0  0  0  0  0  0  0  0  0  0  0
    6.2720  -12.6100   -8.3060 C   0  0  0  0  0  0  0  0  0  0  0  0
    4.0550  -12.4820   -2.8370 C   0  0  0  0  0  0  0  0  0  0  0  0
    2.9780  -12.0220   -2.0690 C   0  0  0  0  0  0  0  0  0  0  0  0
    2.6770  -12.7000   -0.8440 C   0  0  0  0  0  0  0  0  0  0  0  0
    2.4110  -13.2620    0.1840 C   0  0  0  0  0  0  0  0  0  0  0  0
    2.0780  -13.9190    1.3980 C   0  0  0  0  0  0  0  0  0  0  0  0
    2.8990  -14.6360    2.2380 C   0  0  0  0  0  0  0  0  0  0  0  0
    2.2060  -15.1250    3.3180 N   0  0  0  0  0  0  0  0  0  0  0  0
    0.9690  -14.7020    3.1480 C   0  0  0  0  0  0  0  0  0  0  0  0
   -0.1890  -14.8840    3.9370 C   0  0  0  0  0  0  0  0  0  0  0  0
   -1.3470  -14.3430    3.5360 C   0  0  0  0  0  0  0  0  0  0  0  0
   -1.3340  -13.5790    2.2660 C   0  0  0  0  0  0  0  0  0  0  0  0
   -0.3080  -13.3780    1.5000 N   0  0  0  0  0  0  0  0  0  0  0  0
    0.8340  -13.9590    1.9830 N   0  0  0  0  0  0  0  0  0  0  0  0
    1.2878  -10.4952   -0.6170 H   0  0  0  0  0  0  0  0  0  0  0  0
    0.8958   -9.3339   -1.9301 H   0  0  0  0  0  0  0  0  0  0  0  0
    0.1586  -10.9719   -1.9301 H   0  0  0  0  0  0  0  0  0  0  0  0
    1.9970   -9.4024   -4.0341 H   0  0  0  0  0  0  0  0  0  0  0  0
    3.9138  -10.2228   -5.3969 H   0  0  0  0  0  0  0  0  0  0  0  0
    4.2290  -12.5170   -6.4710 H   0  0  0  0  0  0  0  0  0  0  0  0
    6.4616  -15.1138   -6.0121 H   0  0  0  0  0  0  0  0  0  0  0  0
    7.9651  -16.0613   -7.7433 H   0  0  0  0  0  0  0  0  0  0  0  0
    8.6311  -16.0674  -10.0584 H   0  0  0  0  0  0  0  0  0  0  0  0
    8.4888  -14.5522  -11.0700 H   0  0  0  0  0  0  0  0  0  0  0  0
   10.1650  -13.8420   -9.1280 H   0  0  0  0  0  0  0  0  0  0  0  0
   10.4912  -16.0406   -8.2088 H   0  0  0  0  0  0  0  0  0  0  0  0
   10.9689  -16.6285   -9.8527 H   0  0  0  0  0  0  0  0  0  0  0  0
   12.4685  -14.5991   -8.1085 H   0  0  0  0  0  0  0  0  0  0  0  0
   12.9888  -16.2767   -8.5515 H   0  0  0  0  0  0  0  0  0  0  0  0
   13.2000  -15.6190  -10.8250 H   0  0  0  0  0  0  0  0  0  0  0  0
   14.7294  -14.4074   -8.7730 H   0  0  0  0  0  0  0  0  0  0  0  0
   15.2448  -15.1973  -10.3017 H   0  0  0  0  0  0  0  0  0  0  0  0
   14.7693  -13.4651  -10.3017 H   0  0  0  0  0  0  0  0  0  0  0  0
   12.3683  -12.8331  -10.1045 H   0  0  0  0  0  0  0  0  0  0  0  0
   12.8380  -13.4473  -11.7405 H   0  0  0  0  0  0  0  0  0  0  0  0
   10.3380  -13.2161  -11.4291 H   0  0  0  0  0  0  0  0  0  0  0  0
   10.8824  -14.8968  -11.8222 H   0  0  0  0  0  0  0  0  0  0  0  0
    5.7678  -11.6472   -8.4758 H   0  0  0  0  0  0  0  0  0  0  0  0
    4.6473  -13.3420   -2.4911 H   0  0  0  0  0  0  0  0  0  0  0  0
    3.9735  -14.7969    2.0662 H   0  0  0  0  0  0  0  0  0  0  0  0
   -0.1401  -15.4637    4.8705 H   0  0  0  0  0  0  0  0  0  0  0  0
   -2.2688  -14.4608    4.1245 H   0  0  0  0  0  0  0  0  0  0  0  0
   -2.2888  -13.1395    1.9417 H   0  0  0  0  0  0  0  0  0  0  0  0
  1  2  1  0
  2  3  2  0
  3  4  1  0
  4  5  2  0
  5  6  1  0
  6  7  2  0
  6  8  1  0
  8  9  1  0
  9 10  2  0
 10 11  1  0
 11 12  2  0
 12 13  1  0
 13 14  1  0
 14 15  1  0
 15 16  1  0
 16 17  1  0
 17 18  1  0
 17 19  1  0
 19 20  1  0
 12 21  1  0
 21 22  1  0
 22 23  1  0
 22 24  1  0
 22 25  1  0
 21 26  2  0
  5 27  1  0
 27 28  2  0
 28 29  1  0
 29 30  3  0
 30 31  1  0
 31 32  2  0
 32 33  1  0
 33 34  2  0
 34 35  1  0
 35 36  2  0
 36 37  1  0
 37 38  2  0
 38 39  1  0
 28  2  1  0
 39 31  1  0
 26  9  1  0
 39 34  1  0
 20 14  1  0
  1 40  1  0
  1 41  1  0
  1 42  1  0
  3 43  1  0
  4 44  1  0
  8 45  1  0
 10 46  1  0
 11 47  1  0
 13 48  1  0
 13 49  1  0
 14 50  1  0
 15 51  1  0
 15 52  1  0
 16 53  1  0
 16 54  1  0
 17 55  1  0
 18 56  1  0
 18 57  1  0
 18 58  1  0
 19 59  1  0
 19 60  1  0
 20 61  1  0
 20 62  1  0
 26 63  1  0
 27 64  1  0
 32 65  1  0
 35 66  1  0
 36 67  1  0
 37 68  1  0
M  CHG  2  14   1  17   1
M  END
>  <meeko>  (6) 
{"is_sidechain": [false], "free_energy": -8.54, "intermolecular_energy": -11.489, "internal_energy": -0.986}

$$$$
LIB_PHXJVRSECIGDHY__M_PUB_ALL__e8__s20260927
     RDKit          3D

 68 72  0  0  0  0  0  0  0  0999 V2000
   -1.6810  -17.2390    8.0440 C   0  0  0  0  0  0  0  0  0  0  0  0
   -1.4370  -16.7270    6.6480 C   0  0  0  0  0  0  0  0  0  0  0  0
   -0.1230  -16.6450    6.1620 C   0  0  0  0  0  0  0  0  0  0  0  0
    0.1300  -16.1770    4.8700 C   0  0  0  0  0  0  0  0  0  0  0  0
   -0.9290  -15.7780    4.0480 C   0  0  0  0  0  0  0  0  0  0  0  0
   -0.6200  -15.2820    2.6770 C   0  0  0  0  0  0  0  0  0  0  0  0
   -1.1880  -15.7880    1.7170 O   0  0  0  0  0  0  0  0  0  0  0  0
    0.3640  -14.3050    2.6060 N   0  0  0  0  0  0  0  0  0  0  0  0
    0.7530  -13.5960    1.4540 C   0  0  0  0  0  0  0  0  0  0  0  0
    1.6200  -14.1100    0.4920 C   0  0  0  0  0  0  0  0  0  0  0  0
    1.9750  -13.3590   -0.6320 C   0  0  0  0  0  0  0  0  0  0  0  0
    1.4780  -12.0610   -0.8160 C   0  0  0  0  0  0  0  0  0  0  0  0
    1.9310  -11.2750   -2.0250 C   0  0  0  0  0  0  0  0  0  0  0  0
    2.8970  -12.0460   -2.9280 N   0  0  0  0  0  0  0  0  0  0  0  0
    2.2240  -12.5910   -4.1880 C   0  0  0  0  0  0  0  0  0  0  0  0
    3.2300  -13.3720   -5.0700 C   0  0  0  0  0  0  0  0  0  0  0  0
    4.4680  -12.5370   -5.3800 N   0  0  0  0  0  0  0  0  0  0  0  0
    5.4530  -13.3140   -6.2360 C   0  0  0  0  0  0  0  0  0  0  0  0
    5.1380  -11.9950   -4.1210 C   0  0  0  0  0  0  0  0  0  0  0  0
    4.1330  -11.2080   -3.2440 C   0  0  0  0  0  0  0  0  0  0  0  0
    0.5810  -11.5340    0.1490 C   0  0  0  0  0  0  0  0  0  0  0  0
    0.0200  -10.1380    0.0140 C   0  0  0  0  0  0  0  0  0  0  0  0
    0.7250   -9.2830    0.8310 F   0  0  0  0  0  0  0  0  0  0  0  0
   -1.2800   -9.9940    0.3510 F   0  0  0  0  0  0  0  0  0  0  0  0
    0.1850   -9.6310   -1.2330 F   0  0  0  0  0  0  0  0  0  0  0  0
    0.2210  -12.3170    1.2650 C   0  0  0  0  0  0  0  0  0  0  0  0
   -2.2440  -15.8800    4.5140 C   0  0  0  0  0  0  0  0  0  0  0  0
   -2.4990  -16.3460    5.8090 C   0  0  0  0  0  0  0  0  0  0  0  0
   -3.8610  -16.4290    6.2470 C   0  0  0  0  0  0  0  0  0  0  0  0
   -4.9970  -16.5010    6.6280 C   0  0  0  0  0  0  0  0  0  0  0  0
   -6.3470  -16.5830    7.0590 C   0  0  0  0  0  0  0  0  0  0  0  0
   -6.8310  -16.7620    8.3360 C   0  0  0  0  0  0  0  0  0  0  0  0
   -8.2030  -16.7920    8.3520 N   0  0  0  0  0  0  0  0  0  0  0  0
   -8.5620  -16.6220    7.0950 C   0  0  0  0  0  0  0  0  0  0  0  0
   -9.8400  -16.5570    6.4970 C   0  0  0  0  0  0  0  0  0  0  0  0
   -9.9370  -16.3760    5.1740 C   0  0  0  0  0  0  0  0  0  0  0  0
   -8.6700  -16.2570    4.4120 C   0  0  0  0  0  0  0  0  0  0  0  0
   -7.4710  -16.3100    4.9010 N   0  0  0  0  0  0  0  0  0  0  0  0
   -7.4620  -16.4920    6.2590 N   0  0  0  0  0  0  0  0  0  0  0  0
   -1.3270  -16.4962    8.7741 H   0  0  0  0  0  0  0  0  0  0  0  0
   -2.7578  -17.4109    8.1885 H   0  0  0  0  0  0  0  0  0  0  0  0
   -1.1363  -18.1837    8.1885 H   0  0  0  0  0  0  0  0  0  0  0  0
    0.7156  -16.9520    6.8042 H   0  0  0  0  0  0  0  0  0  0  0  0
    1.1640  -16.1222    4.4986 H   0  0  0  0  0  0  0  0  0  0  0  0
    0.8900  -14.1340    3.4560 H   0  0  0  0  0  0  0  0  0  0  0  0
    2.0313  -15.1223    0.6191 H   0  0  0  0  0  0  0  0  0  0  0  0
    2.6532  -13.7920   -1.3821 H   0  0  0  0  0  0  0  0  0  0  0  0
    1.0439  -11.0032   -2.6159 H   0  0  0  0  0  0  0  0  0  0  0  0
    2.4711  -10.3920   -1.6529 H   0  0  0  0  0  0  0  0  0  0  0  0
    3.2090  -12.8520   -2.3580 H   0  0  0  0  0  0  0  0  0  0  0  0
    1.4061  -13.2653   -3.8943 H   0  0  0  0  0  0  0  0  0  0  0  0
    1.8377  -11.7416   -4.7706 H   0  0  0  0  0  0  0  0  0  0  0  0
    3.5382  -14.2843   -4.5383 H   0  0  0  0  0  0  0  0  0  0  0  0
    2.7349  -13.6207   -6.0203 H   0  0  0  0  0  0  0  0  0  0  0  0
    4.1840  -11.7390   -5.9720 H   0  0  0  0  0  0  0  0  0  0  0  0
    6.1497  -13.8636   -5.5860 H   0  0  0  0  0  0  0  0  0  0  0  0
    4.9051  -14.0257   -6.8710 H   0  0  0  0  0  0  0  0  0  0  0  0
    6.0176  -12.6154   -6.8710 H   0  0  0  0  0  0  0  0  0  0  0  0
    5.5399  -12.8368   -3.5381 H   0  0  0  0  0  0  0  0  0  0  0  0
    5.9449  -11.3113   -4.4236 H   0  0  0  0  0  0  0  0  0  0  0  0
    4.6247  -10.9254   -2.3015 H   0  0  0  0  0  0  0  0  0  0  0  0
    3.8133  -10.3142   -3.7998 H   0  0  0  0  0  0  0  0  0  0  0  0
   -0.4913  -11.9143    2.0002 H   0  0  0  0  0  0  0  0  0  0  0  0
   -3.0808  -15.5929    3.8603 H   0  0  0  0  0  0  0  0  0  0  0  0
   -6.1982  -16.8675    9.2296 H   0  0  0  0  0  0  0  0  0  0  0  0
  -10.7467  -16.6541    7.1122 H   0  0  0  0  0  0  0  0  0  0  0  0
  -10.9148  -16.3180    4.6734 H   0  0  0  0  0  0  0  0  0  0  0  0
   -8.7566  -16.1093    3.3254 H   0  0  0  0  0  0  0  0  0  0  0  0
  1  2  1  0
  2  3  2  0
  3  4  1  0
  4  5  2  0
  5  6  1  0
  6  7  2  0
  6  8  1  0
  8  9  1  0
  9 10  2  0
 10 11  1  0
 11 12  2  0
 12 13  1  0
 13 14  1  0
 14 15  1  0
 15 16  1  0
 16 17  1  0
 17 18  1  0
 17 19  1  0
 19 20  1  0
 12 21  1  0
 21 22  1  0
 22 23  1  0
 22 24  1  0
 22 25  1  0
 21 26  2  0
  5 27  1  0
 27 28  2  0
 28 29  1  0
 29 30  3  0
 30 31  1  0
 31 32  2  0
 32 33  1  0
 33 34  2  0
 34 35  1  0
 35 36  2  0
 36 37  1  0
 37 38  2  0
 38 39  1  0
 28  2  1  0
 39 31  1  0
 26  9  1  0
 39 34  1  0
 20 14  1  0
  1 40  1  0
  1 41  1  0
  1 42  1  0
  3 43  1  0
  4 44  1  0
  8 45  1  0
 10 46  1  0
 11 47  1  0
 13 48  1  0
 13 49  1  0
 14 50  1  0
 15 51  1  0
 15 52  1  0
 16 53  1  0
 16 54  1  0
 17 55  1  0
 18 56  1  0
 18 57  1  0
 18 58  1  0
 19 59  1  0
 19 60  1  0
 20 61  1  0
 20 62  1  0
 26 63  1  0
 27 64  1  0
 32 65  1  0
 35 66  1  0
 36 67  1  0
 37 68  1  0
M  CHG  2  14   1  17   1
M  END
>  <meeko>  (7) 
{"is_sidechain": [false], "free_energy": -8.522, "intermolecular_energy": -12.046, "internal_energy": -0.405}

$$$$
LIB_PHXJVRSECIGDHY__M_PUB_ALL__e8__s20260927
     RDKit          3D

 68 72  0  0  0  0  0  0  0  0999 V2000
   14.0920  -12.7200   -3.7140 C   0  0  0  0  0  0  0  0  0  0  0  0
   12.5920  -12.8620   -3.6650 C   0  0  0  0  0  0  0  0  0  0  0  0
   11.8870  -12.3600   -2.5600 C   0  0  0  0  0  0  0  0  0  0  0  0
   10.4970  -12.4750   -2.4910 C   0  0  0  0  0  0  0  0  0  0  0  0
    9.7920  -13.1020   -3.5240 C   0  0  0  0  0  0  0  0  0  0  0  0
    8.3100  -13.2100   -3.4140 C   0  0  0  0  0  0  0  0  0  0  0  0
    7.7330  -14.1200   -3.9960 O   0  0  0  0  0  0  0  0  0  0  0  0
    7.6920  -12.1970   -2.6930 N   0  0  0  0  0  0  0  0  0  0  0  0
    6.3280  -12.1310   -2.3490 C   0  0  0  0  0  0  0  0  0  0  0  0
    5.8260  -12.5530   -1.1190 C   0  0  0  0  0  0  0  0  0  0  0  0
    4.4600  -12.4680   -0.8330 C   0  0  0  0  0  0  0  0  0  0  0  0
    3.5560  -11.9680   -1.7810 C   0  0  0  0  0  0  0  0  0  0  0  0
    2.0840  -11.9420   -1.4360 C   0  0  0  0  0  0  0  0  0  0  0  0
    1.5730  -13.2560   -0.8400 N   0  0  0  0  0  0  0  0  0  0  0  0
    0.3970  -13.0560    0.1150 C   0  0  0  0  0  0  0  0  0  0  0  0
   -0.0850  -14.4050    0.7050 C   0  0  0  0  0  0  0  0  0  0  0  0
   -0.3870  -15.4190   -0.3950 N   0  0  0  0  0  0  0  0  0  0  0  0
   -0.8490  -16.7420    0.1910 C   0  0  0  0  0  0  0  0  0  0  0  0
    0.7890  -15.6170   -1.3470 C   0  0  0  0  0  0  0  0  0  0  0  0
    1.2650  -14.2680   -1.9400 C   0  0  0  0  0  0  0  0  0  0  0  0
    4.0590  -11.5200   -3.0290 C   0  0  0  0  0  0  0  0  0  0  0  0
    3.1360  -10.9820   -4.0970 C   0  0  0  0  0  0  0  0  0  0  0  0
    3.8580  -10.7410   -5.2430 F   0  0  0  0  0  0  0  0  0  0  0  0
    2.5060   -9.8250   -3.7980 F   0  0  0  0  0  0  0  0  0  0  0  0
    2.1940  -11.8840   -4.4700 F   0  0  0  0  0  0  0  0  0  0  0  0
    5.4430  -11.5970   -3.2890 C   0  0  0  0  0  0  0  0  0  0  0  0
   10.4830  -13.5830   -4.6420 C   0  0  0  0  0  0  0  0  0  0  0  0
   11.8770  -13.4710   -4.7110 C   0  0  0  0  0  0  0  0  0  0  0  0
   12.5440  -13.9820   -5.8710 C   0  0  0  0  0  0  0  0  0  0  0  0
   13.1160  -14.4090   -6.8360 C   0  0  0  0  0  0  0  0  0  0  0  0
   13.7890  -14.8960   -7.9870 C   0  0  0  0  0  0  0  0  0  0  0  0
   14.3800  -16.1250   -8.1800 C   0  0  0  0  0  0  0  0  0  0  0  0
   14.9350  -16.2230   -9.4310 N   0  0  0  0  0  0  0  0  0  0  0  0
   14.6790  -15.0660  -10.0090 C   0  0  0  0  0  0  0  0  0  0  0  0
   14.9950  -14.5850  -11.2990 C   0  0  0  0  0  0  0  0  0  0  0  0
   14.6160  -13.3490  -11.6480 C   0  0  0  0  0  0  0  0  0  0  0  0
   13.8780  -12.5550  -10.6360 C   0  0  0  0  0  0  0  0  0  0  0  0
   13.5600  -12.9390   -9.4400 N   0  0  0  0  0  0  0  0  0  0  0  0
   13.9800  -14.2130   -9.1650 N   0  0  0  0  0  0  0  0  0  0  0  0
   14.4904  -12.6823   -2.6894 H   0  0  0  0  0  0  0  0  0  0  0  0
   14.5247  -13.5812   -4.2442 H   0  0  0  0  0  0  0  0  0  0  0  0
   14.3554  -11.7929   -4.2442 H   0  0  0  0  0  0  0  0  0  0  0  0
   12.4346  -11.8714   -1.7406 H   0  0  0  0  0  0  0  0  0  0  0  0
    9.9553  -12.0718   -1.6227 H   0  0  0  0  0  0  0  0  0  0  0  0
    8.2710  -11.4020   -2.4470 H   0  0  0  0  0  0  0  0  0  0  0  0
    6.5142  -12.9586   -0.3627 H   0  0  0  0  0  0  0  0  0  0  0  0
    4.0896  -12.7978    0.1489 H   0  0  0  0  0  0  0  0  0  0  0  0
    1.9119  -11.1381   -0.7052 H   0  0  0  0  0  0  0  0  0  0  0  0
    1.5347  -11.7774   -2.3747 H   0  0  0  0  0  0  0  0  0  0  0  0
    2.3700  -13.6290   -0.2940 H   0  0  0  0  0  0  0  0  0  0  0  0
    0.7116  -12.3971    0.9377 H   0  0  0  0  0  0  0  0  0  0  0  0
   -0.4344  -12.6064   -0.4476 H   0  0  0  0  0  0  0  0  0  0  0  0
    0.7009  -14.8104    1.3593 H   0  0  0  0  0  0  0  0  0  0  0  0
   -1.0103  -14.2237    1.2715 H   0  0  0  0  0  0  0  0  0  0  0  0
   -1.1980  -15.0800   -0.9390 H   0  0  0  0  0  0  0  0  0  0  0  0
   -0.8286  -16.6836    1.2893 H   0  0  0  0  0  0  0  0  0  0  0  0
   -1.8744  -16.9541   -0.1459 H   0  0  0  0  0  0  0  0  0  0  0  0
   -0.1785  -17.5463   -0.1459 H   0  0  0  0  0  0  0  0  0  0  0  0
    1.6213  -16.0805   -0.7970 H   0  0  0  0  0  0  0  0  0  0  0  0
    0.4615  -16.2640   -2.1741 H   0  0  0  0  0  0  0  0  0  0  0  0
    2.1747  -14.4390   -2.5343 H   0  0  0  0  0  0  0  0  0  0  0  0
    0.4593  -13.8620   -2.5693 H   0  0  0  0  0  0  0  0  0  0  0  0
    5.8330  -11.2298   -4.2498 H   0  0  0  0  0  0  0  0  0  0  0  0
    9.9291  -14.0506   -5.4693 H   0  0  0  0  0  0  0  0  0  0  0  0
   14.4040  -16.9263   -7.4268 H   0  0  0  0  0  0  0  0  0  0  0  0
   15.5464  -15.2188  -12.0091 H   0  0  0  0  0  0  0  0  0  0  0  0
   14.8426  -12.9398  -12.6436 H   0  0  0  0  0  0  0  0  0  0  0  0
   13.5703  -11.5405  -10.9295 H   0  0  0  0  0  0  0  0  0  0  0  0
  1  2  1  0
  2  3  2  0
  3  4  1  0
  4  5  2  0
  5  6  1  0
  6  7  2  0
  6  8  1  0
  8  9  1  0
  9 10  2  0
 10 11  1  0
 11 12  2  0
 12 13  1  0
 13 14  1  0
 14 15  1  0
 15 16  1  0
 16 17  1  0
 17 18  1  0
 17 19  1  0
 19 20  1  0
 12 21  1  0
 21 22  1  0
 22 23  1  0
 22 24  1  0
 22 25  1  0
 21 26  2  0
  5 27  1  0
 27 28  2  0
 28 29  1  0
 29 30  3  0
 30 31  1  0
 31 32  2  0
 32 33  1  0
 33 34  2  0
 34 35  1  0
 35 36  2  0
 36 37  1  0
 37 38  2  0
 38 39  1  0
 28  2  1  0
 39 31  1  0
 26  9  1  0
 39 34  1  0
 20 14  1  0
  1 40  1  0
  1 41  1  0
  1 42  1  0
  3 43  1  0
  4 44  1  0
  8 45  1  0
 10 46  1  0
 11 47  1  0
 13 48  1  0
 13 49  1  0
 14 50  1  0
 15 51  1  0
 15 52  1  0
 16 53  1  0
 16 54  1  0
 17 55  1  0
 18 56  1  0
 18 57  1  0
 18 58  1  0
 19 59  1  0
 19 60  1  0
 20 61  1  0
 20 62  1  0
 26 63  1  0
 27 64  1  0
 32 65  1  0
 35 66  1  0
 36 67  1  0
 37 68  1  0
M  CHG  2  14   1  17   1
M  END
>  <meeko>  (8) 
{"is_sidechain": [false], "free_energy": -8.502, "intermolecular_energy": -11.403, "internal_energy": -1.02}

$$$$
LIB_PHXJVRSECIGDHY__M_PUB_ALL__e8__s20260927
     RDKit          3D

 68 72  0  0  0  0  0  0  0  0999 V2000
    4.4550  -14.0430    1.6370 C   0  0  0  0  0  0  0  0  0  0  0  0
    4.9070  -13.7620    0.2270 C   0  0  0  0  0  0  0  0  0  0  0  0
    6.0220  -14.4410   -0.2880 C   0  0  0  0  0  0  0  0  0  0  0  0
    6.4600  -14.2020   -1.5930 C   0  0  0  0  0  0  0  0  0  0  0  0
    5.7920  -13.2750   -2.3990 C   0  0  0  0  0  0  0  0  0  0  0  0
    6.2890  -13.0440   -3.7850 C   0  0  0  0  0  0  0  0  0  0  0  0
    7.1350  -12.1790   -3.9790 O   0  0  0  0  0  0  0  0  0  0  0  0
    5.6820  -13.8100   -4.7700 N   0  0  0  0  0  0  0  0  0  0  0  0
    6.0480  -13.8650   -6.1280 C   0  0  0  0  0  0  0  0  0  0  0  0
    5.8140  -12.8280   -7.0290 C   0  0  0  0  0  0  0  0  0  0  0  0
    6.1970  -12.9390   -8.3690 C   0  0  0  0  0  0  0  0  0  0  0  0
    6.8160  -14.1030   -8.8460 C   0  0  0  0  0  0  0  0  0  0  0  0
    7.1670  -14.1880  -10.3140 C   0  0  0  0  0  0  0  0  0  0  0  0
    8.4930  -13.5110  -10.6670 N   0  0  0  0  0  0  0  0  0  0  0  0
    8.3120  -12.0830  -11.1830 C   0  0  0  0  0  0  0  0  0  0  0  0
    9.6740  -11.4360  -11.5380 C   0  0  0  0  0  0  0  0  0  0  0  0
   10.6530  -11.5200  -10.3710 N   0  0  0  0  0  0  0  0  0  0  0  0
   11.9890  -10.8930  -10.7300 C   0  0  0  0  0  0  0  0  0  0  0  0
   10.8330  -12.9450   -9.8580 C   0  0  0  0  0  0  0  0  0  0  0  0
    9.4710  -13.5880   -9.4970 C   0  0  0  0  0  0  0  0  0  0  0  0
    7.0750  -15.1580   -7.9340 C   0  0  0  0  0  0  0  0  0  0  0  0
    7.7280  -16.4420   -8.3880 C   0  0  0  0  0  0  0  0  0  0  0  0
    7.1950  -17.4980   -7.6830 F   0  0  0  0  0  0  0  0  0  0  0  0
    9.0660  -16.5120   -8.2160 F   0  0  0  0  0  0  0  0  0  0  0  0
    7.4600  -16.7290   -9.6870 F   0  0  0  0  0  0  0  0  0  0  0  0
    6.6980  -15.0160   -6.5830 C   0  0  0  0  0  0  0  0  0  0  0  0
    4.6640  -12.6110   -1.9030 C   0  0  0  0  0  0  0  0  0  0  0  0
    4.2260  -12.8480   -0.5950 C   0  0  0  0  0  0  0  0  0  0  0  0
    3.0700  -12.1430   -0.1270 C   0  0  0  0  0  0  0  0  0  0  0  0
    2.1040  -11.5570    0.2800 C   0  0  0  0  0  0  0  0  0  0  0  0
    0.9540  -10.8810    0.7670 C   0  0  0  0  0  0  0  0  0  0  0  0
    0.6360   -9.5450    0.6640 C   0  0  0  0  0  0  0  0  0  0  0  0
   -0.5660   -9.2700    1.2670 N   0  0  0  0  0  0  0  0  0  0  0  0
   -0.9900  -10.4290    1.7290 C   0  0  0  0  0  0  0  0  0  0  0  0
   -2.1650  -10.7720    2.4330 C   0  0  0  0  0  0  0  0  0  0  0  0
   -2.3620  -12.0450    2.7990 C   0  0  0  0  0  0  0  0  0  0  0  0
   -1.3110  -13.0250    2.4350 C   0  0  0  0  0  0  0  0  0  0  0  0
   -0.2130  -12.7730    1.7930 N   0  0  0  0  0  0  0  0  0  0  0  0
   -0.0920  -11.4510    1.4530 N   0  0  0  0  0  0  0  0  0  0  0  0
    5.1690  -13.5991    2.3463 H   0  0  0  0  0  0  0  0  0  0  0  0
    3.4588  -13.6047    1.7969 H   0  0  0  0  0  0  0  0  0  0  0  0
    4.4072  -15.1303    1.7969 H   0  0  0  0  0  0  0  0  0  0  0  0
    6.5560  -15.1680    0.3415 H   0  0  0  0  0  0  0  0  0  0  0  0
    7.3321  -14.7442   -1.9872 H   0  0  0  0  0  0  0  0  0  0  0  0
    4.8580  -14.3320   -4.4910 H   0  0  0  0  0  0  0  0  0  0  0  0
    5.3207  -11.9086   -6.6808 H   0  0  0  0  0  0  0  0  0  0  0  0
    6.0102  -12.1021   -9.0580 H   0  0  0  0  0  0  0  0  0  0  0  0
    7.2329  -15.2495  -10.5949 H   0  0  0  0  0  0  0  0  0  0  0  0
    6.3770  -13.6575  -10.8658 H   0  0  0  0  0  0  0  0  0  0  0  0
    8.8880  -14.0820  -11.4350 H   0  0  0  0  0  0  0  0  0  0  0  0
    7.6801  -12.1046  -12.0831 H   0  0  0  0  0  0  0  0  0  0  0  0
    7.8395  -11.4846  -10.3901 H   0  0  0  0  0  0  0  0  0  0  0  0
   10.1041  -11.9604  -12.4040 H   0  0  0  0  0  0  0  0  0  0  0  0
    9.5024  -10.3744  -11.7693 H   0  0  0  0  0  0  0  0  0  0  0  0
   10.2920  -10.9350   -9.5990 H   0  0  0  0  0  0  0  0  0  0  0  0
   12.5334  -10.6375   -9.8090 H   0  0  0  0  0  0  0  0  0  0  0  0
   12.5822  -11.6068  -11.3205 H   0  0  0  0  0  0  0  0  0  0  0  0
   11.8190   -9.9806  -11.3205 H   0  0  0  0  0  0  0  0  0  0  0  0
   11.3187  -13.5485  -10.6389 H   0  0  0  0  0  0  0  0  0  0  0  0
   11.4535  -12.9120   -8.9503 H   0  0  0  0  0  0  0  0  0  0  0  0
    9.6319  -14.6438   -9.2335 H   0  0  0  0  0  0  0  0  0  0  0  0
    9.0408  -13.0360   -8.6483 H   0  0  0  0  0  0  0  0  0  0  0  0
    6.9196  -15.8266   -5.8731 H   0  0  0  0  0  0  0  0  0  0  0  0
    4.1202  -11.9008   -2.5432 H   0  0  0  0  0  0  0  0  0  0  0  0
    1.2647   -8.7944    0.1627 H   0  0  0  0  0  0  0  0  0  0  0  0
   -2.9108  -10.0015    2.6782 H   0  0  0  0  0  0  0  0  0  0  0  0
   -3.2657  -12.3506    3.3467 H   0  0  0  0  0  0  0  0  0  0  0  0
   -1.4791  -14.0686    2.7395 H   0  0  0  0  0  0  0  0  0  0  0  0
  1  2  1  0
  2  3  2  0
  3  4  1  0
  4  5  2  0
  5  6  1  0
  6  7  2  0
  6  8  1  0
  8  9  1  0
  9 10  2  0
 10 11  1  0
 11 12  2  0
 12 13  1  0
 13 14  1  0
 14 15  1  0
 15 16  1  0
 16 17  1  0
 17 18  1  0
 17 19  1  0
 19 20  1  0
 12 21  1  0
 21 22  1  0
 22 23  1  0
 22 24  1  0
 22 25  1  0
 21 26  2  0
  5 27  1  0
 27 28  2  0
 28 29  1  0
 29 30  3  0
 30 31  1  0
 31 32  2  0
 32 33  1  0
 33 34  2  0
 34 35  1  0
 35 36  2  0
 36 37  1  0
 37 38  2  0
 38 39  1  0
 28  2  1  0
 39 31  1  0
 26  9  1  0
 39 34  1  0
 20 14  1  0
  1 40  1  0
  1 41  1  0
  1 42  1  0
  3 43  1  0
  4 44  1  0
  8 45  1  0
 10 46  1  0
 11 47  1  0
 13 48  1  0
 13 49  1  0
 14 50  1  0
 15 51  1  0
 15 52  1  0
 16 53  1  0
 16 54  1  0
 17 55  1  0
 18 56  1  0
 18 57  1  0
 18 58  1  0
 19 59  1  0
 19 60  1  0
 20 61  1  0
 20 62  1  0
 26 63  1  0
 27 64  1  0
 32 65  1  0
 35 66  1  0
 36 67  1  0
 37 68  1  0
M  CHG  2  14   1  17   1
M  END
>  <meeko>  (9) 
{"is_sidechain": [false], "free_energy": -8.441, "intermolecular_energy": -12.046, "internal_energy": -0.295}

$$$$
