LIB_PUSXXXWMEJEPSR__M_PUB_ALL__e8__s20260927
     RDKit          3D

 63 66  0  0  0  0  0  0  0  0999 V2000
    1.5480  -13.4330    1.2230 O   0  0  0  0  0  0  0  0  0  0  0  0
    1.3040  -12.6780    0.2890 C   0  0  0  0  0  0  0  0  0  0  0  0
    0.1720  -11.8990    0.1290 N   0  0  0  0  0  0  0  0  0  0  0  0
   -0.9750  -11.8840    0.9510 C   0  0  0  0  0  0  0  0  0  0  0  0
   -0.8300  -11.3600    2.2420 C   0  0  0  0  0  0  0  0  0  0  0  0
   -1.9160  -11.3090    3.1190 C   0  0  0  0  0  0  0  0  0  0  0  0
   -3.1620  -11.7800    2.7140 C   0  0  0  0  0  0  0  0  0  0  0  0
   -3.3330  -12.3020    1.4250 C   0  0  0  0  0  0  0  0  0  0  0  0
   -4.6710  -12.8280    0.9660 C   0  0  0  0  0  0  0  0  0  0  0  0
   -5.5430  -13.0010    1.9980 F   0  0  0  0  0  0  0  0  0  0  0  0
   -5.3020  -12.0070    0.0800 F   0  0  0  0  0  0  0  0  0  0  0  0
   -4.5770  -14.0380    0.3470 F   0  0  0  0  0  0  0  0  0  0  0  0
   -2.2290  -12.3500    0.5520 C   0  0  0  0  0  0  0  0  0  0  0  0
    2.3420  -12.5330   -0.7730 C   0  0  0  0  0  0  0  0  0  0  0  0
    3.6880  -12.4950   -0.3710 C   0  0  0  0  0  0  0  0  0  0  0  0
    4.7450  -12.3800   -1.2880 C   0  0  0  0  0  0  0  0  0  0  0  0
    6.0740  -12.3630   -0.8740 N   0  0  0  0  0  0  0  0  0  0  0  0
    6.8150  -13.6160   -0.7460 C   0  0  0  0  0  0  0  0  0  0  0  0
    8.3070  -13.3560   -0.9210 C   0  0  0  0  0  0  0  0  0  0  0  0
    8.7870  -12.3830    0.1530 C   0  0  0  0  0  0  0  0  0  0  0  0
   10.1960  -11.8410   -0.1390 N   0  0  0  0  0  0  0  0  0  0  0  0
   10.9000  -11.3400    1.1090 C   0  0  0  0  0  0  0  0  0  0  0  0
   12.1490  -10.5660    0.7070 C   0  0  0  0  0  0  0  0  0  0  0  0
   13.0790  -11.4050   -0.1620 C   0  0  0  0  0  0  0  0  0  0  0  0
   12.3430  -11.9780   -1.3680 C   0  0  0  0  0  0  0  0  0  0  0  0
   11.0970  -12.7510   -0.9520 C   0  0  0  0  0  0  0  0  0  0  0  0
    7.8120  -11.2380    0.4470 C   0  0  0  0  0  0  0  0  0  0  0  0
    6.7430  -11.0860   -0.6310 C   0  0  0  0  0  0  0  0  0  0  0  0
    4.3900  -12.2950   -2.6430 C   0  0  0  0  0  0  0  0  0  0  0  0
    3.0500  -12.3390   -3.0790 C   0  0  0  0  0  0  0  0  0  0  0  0
    2.7320  -12.2950   -4.5540 C   0  0  0  0  0  0  0  0  0  0  0  0
    3.6660  -12.9300   -5.3140 F   0  0  0  0  0  0  0  0  0  0  0  0
    1.5420  -12.8840   -4.8540 F   0  0  0  0  0  0  0  0  0  0  0  0
    2.6560  -11.0230   -5.0270 F   0  0  0  0  0  0  0  0  0  0  0  0
    2.0260  -12.4740   -2.1310 C   0  0  0  0  0  0  0  0  0  0  0  0
    0.1630  -11.2330   -0.6320 H   0  0  0  0  0  0  0  0  0  0  0  0
    0.1507  -10.9842    2.5690 H   0  0  0  0  0  0  0  0  0  0  0  0
   -1.7867  -10.8964    4.1304 H   0  0  0  0  0  0  0  0  0  0  0  0
   -4.0146  -11.7422    3.4080 H   0  0  0  0  0  0  0  0  0  0  0  0
   -2.3568  -12.7612   -0.4602 H   0  0  0  0  0  0  0  0  0  0  0  0
    3.9222  -12.5577    0.7019 H   0  0  0  0  0  0  0  0  0  0  0  0
    6.6341  -14.0468    0.2498 H   0  0  0  0  0  0  0  0  0  0  0  0
    6.4761  -14.3183   -1.5218 H   0  0  0  0  0  0  0  0  0  0  0  0
    8.8571  -14.3040   -0.8283 H   0  0  0  0  0  0  0  0  0  0  0  0
    8.4877  -12.9209   -1.9150 H   0  0  0  0  0  0  0  0  0  0  0  0
    8.8319  -12.9878    1.0707 H   0  0  0  0  0  0  0  0  0  0  0  0
   10.0410  -11.0030   -0.7170 H   0  0  0  0  0  0  0  0  0  0  0  0
   10.2240  -10.6797    1.6720 H   0  0  0  0  0  0  0  0  0  0  0  0
   11.1840  -12.1952    1.7399 H   0  0  0  0  0  0  0  0  0  0  0  0
   11.8472   -9.6704    0.1442 H   0  0  0  0  0  0  0  0  0  0  0  0
   12.6917  -10.2922    1.6238 H   0  0  0  0  0  0  0  0  0  0  0  0
   13.9071  -10.7728   -0.5148 H   0  0  0  0  0  0  0  0  0  0  0  0
   13.4586  -12.2417    0.4429 H   0  0  0  0  0  0  0  0  0  0  0  0
   12.0454  -11.1514   -2.0300 H   0  0  0  0  0  0  0  0  0  0  0  0
   13.0209  -12.6726   -1.8857 H   0  0  0  0  0  0  0  0  0  0  0  0
   10.5605  -13.0949   -1.8486 H   0  0  0  0  0  0  0  0  0  0  0  0
   11.3868  -13.6224   -0.3464 H   0  0  0  0  0  0  0  0  0  0  0  0
    7.3166  -11.4355    1.4090 H   0  0  0  0  0  0  0  0  0  0  0  0
    8.3930  -10.3044    0.4739 H   0  0  0  0  0  0  0  0  0  0  0  0
    5.9997  -10.3451   -0.3015 H   0  0  0  0  0  0  0  0  0  0  0  0
    7.2232  -10.7535   -1.5631 H   0  0  0  0  0  0  0  0  0  0  0  0
    5.1874  -12.1901   -3.3934 H   0  0  0  0  0  0  0  0  0  0  0  0
    0.9769  -12.5332   -2.4565 H   0  0  0  0  0  0  0  0  0  0  0  0
  1  2  2  0
  2  3  1  0
  3  4  1  0
  4  5  2  0
  5  6  1  0
  6  7  2  0
  7  8  1  0
  8  9  1  0
  9 10  1  0
  9 11  1  0
  9 12  1  0
  8 13  2  0
  2 14  1  0
 14 15  2  0
 15 16  1  0
 16 17  1  0
 17 18  1  0
 18 19  1  0
 19 20  1  0
 20 21  1  0
 21 22  1  0
 22 23  1  0
 23 24  1  0
 24 25  1  0
 25 26  1  0
 20 27  1  0
 27 28  1  0
 16 29  2  0
 29 30  1  0
 30 31  1  0
 31 32  1  0
 31 33  1  0
 31 34  1  0
 30 35  2  0
 13  4  1  0
 35 14  1  0
 28 17  1  0
 26 21  1  0
  3 36  1  0
  5 37  1  0
  6 38  1  0
  7 39  1  0
 13 40  1  0
 15 41  1  0
 18 42  1  0
 18 43  1  0
 19 44  1  0
 19 45  1  0
 20 46  1  0
 21 47  1  0
 22 48  1  0
 22 49  1  0
 23 50  1  0
 23 51  1  0
 24 52  1  0
 24 53  1  0
 25 54  1  0
 25 55  1  0
 26 56  1  0
 26 57  1  0
 27 58  1  0
 27 59  1  0
 28 60  1  0
 28 61  1  0
 29 62  1  0
 35 63  1  0
M  CHG  1  21   1
M  END
>  <meeko>  (1) 
{"is_sidechain": [false], "free_energy": -9.167, "intermolecular_energy": -12.382, "internal_energy": -1.139}

$$$$
LIB_PUSXXXWMEJEPSR__M_PUB_ALL__e8__s20260927
     RDKit          3D

 63 66  0  0  0  0  0  0  0  0999 V2000
   -8.2000  -17.7450    4.5160 O   0  0  0  0  0  0  0  0  0  0  0  0
   -8.1830  -17.0270    5.5100 C   0  0  0  0  0  0  0  0  0  0  0  0
   -7.2730  -16.0250    5.7910 N   0  0  0  0  0  0  0  0  0  0  0  0
   -6.1220  -15.6850    5.0470 C   0  0  0  0  0  0  0  0  0  0  0  0
   -4.9890  -16.4900    5.2200 C   0  0  0  0  0  0  0  0  0  0  0  0
   -3.8090  -16.2220    4.5210 C   0  0  0  0  0  0  0  0  0  0  0  0
   -3.7500  -15.1450    3.6400 C   0  0  0  0  0  0  0  0  0  0  0  0
   -4.8740  -14.3300    3.4460 C   0  0  0  0  0  0  0  0  0  0  0  0
   -4.8320  -13.1510    2.5040 C   0  0  0  0  0  0  0  0  0  0  0  0
   -6.0370  -12.5260    2.4020 F   0  0  0  0  0  0  0  0  0  0  0  0
   -3.9440  -12.1890    2.8800 F   0  0  0  0  0  0  0  0  0  0  0  0
   -4.4820  -13.5040    1.2360 F   0  0  0  0  0  0  0  0  0  0  0  0
   -6.0560  -14.6100    4.1580 C   0  0  0  0  0  0  0  0  0  0  0  0
   -9.2770  -17.2050    6.5100 C   0  0  0  0  0  0  0  0  0  0  0  0
   -9.4460  -18.4820    7.0730 C   0  0  0  0  0  0  0  0  0  0  0  0
  -10.4310  -18.7550    8.0350 C   0  0  0  0  0  0  0  0  0  0  0  0
  -10.5740  -20.0210    8.5960 N   0  0  0  0  0  0  0  0  0  0  0  0
  -10.0600  -20.2860    9.9390 C   0  0  0  0  0  0  0  0  0  0  0  0
  -10.8430  -21.4270   10.5770 C   0  0  0  0  0  0  0  0  0  0  0  0
  -10.6940  -22.6890    9.7300 C   0  0  0  0  0  0  0  0  0  0  0  0
  -11.6890  -23.7870   10.1390 N   0  0  0  0  0  0  0  0  0  0  0  0
  -12.0760  -24.6870    8.9790 C   0  0  0  0  0  0  0  0  0  0  0  0
  -13.2630  -25.5510    9.3850 C   0  0  0  0  0  0  0  0  0  0  0  0
  -12.9710  -26.3570   10.6460 C   0  0  0  0  0  0  0  0  0  0  0  0
  -12.4980  -25.4560   11.7820 C   0  0  0  0  0  0  0  0  0  0  0  0
  -11.3110  -24.5990   11.3630 C   0  0  0  0  0  0  0  0  0  0  0  0
  -10.7430  -22.4420    8.2180 C   0  0  0  0  0  0  0  0  0  0  0  0
  -11.2940  -21.0640    7.8670 C   0  0  0  0  0  0  0  0  0  0  0  0
  -11.2550  -17.6830    8.4070 C   0  0  0  0  0  0  0  0  0  0  0  0
  -11.1050  -16.3890    7.8670 C   0  0  0  0  0  0  0  0  0  0  0  0
  -11.9900  -15.2630    8.3450 C   0  0  0  0  0  0  0  0  0  0  0  0
  -11.4100  -14.5150    9.3240 F   0  0  0  0  0  0  0  0  0  0  0  0
  -12.3140  -14.3910    7.3510 F   0  0  0  0  0  0  0  0  0  0  0  0
  -13.1670  -15.7120    8.8540 F   0  0  0  0  0  0  0  0  0  0  0  0
  -10.0970  -16.1550    6.9240 C   0  0  0  0  0  0  0  0  0  0  0  0
   -7.4570  -15.4340    6.5920 H   0  0  0  0  0  0  0  0  0  0  0  0
   -5.0284  -17.3427    5.9138 H   0  0  0  0  0  0  0  0  0  0  0  0
   -2.9263  -16.8620    4.6667 H   0  0  0  0  0  0  0  0  0  0  0  0
   -2.8185  -14.9332    3.0946 H   0  0  0  0  0  0  0  0  0  0  0  0
   -6.9405  -13.9726    4.0119 H   0  0  0  0  0  0  0  0  0  0  0  0
   -8.7823  -19.2967    6.7479 H   0  0  0  0  0  0  0  0  0  0  0  0
   -8.9975  -20.5636    9.8749 H   0  0  0  0  0  0  0  0  0  0  0  0
  -10.1709  -19.3813   10.5548 H   0  0  0  0  0  0  0  0  0  0  0  0
  -10.4540  -21.6171   11.5882 H   0  0  0  0  0  0  0  0  0  0  0  0
  -11.9062  -21.1512   10.6365 H   0  0  0  0  0  0  0  0  0  0  0  0
   -9.6767  -23.0468    9.9470 H   0  0  0  0  0  0  0  0  0  0  0  0
  -12.5510  -23.2810   10.3880 H   0  0  0  0  0  0  0  0  0  0  0  0
  -12.3509  -24.0697    8.1111 H   0  0  0  0  0  0  0  0  0  0  0  0
  -11.2252  -25.3317    8.7136 H   0  0  0  0  0  0  0  0  0  0  0  0
  -14.1301  -24.9002    9.5711 H   0  0  0  0  0  0  0  0  0  0  0  0
  -13.4676  -26.2575    8.5671 H   0  0  0  0  0  0  0  0  0  0  0  0
  -13.8882  -26.8771   10.9593 H   0  0  0  0  0  0  0  0  0  0  0  0
  -12.1724  -27.0789   10.4197 H   0  0  0  0  0  0  0  0  0  0  0  0
  -13.3256  -24.7966   12.0824 H   0  0  0  0  0  0  0  0  0  0  0  0
  -12.1810  -26.0961   12.6186 H   0  0  0  0  0  0  0  0  0  0  0  0
  -11.0389  -23.9205   12.1849 H   0  0  0  0  0  0  0  0  0  0  0  0
  -10.4534  -25.2460   11.1266 H   0  0  0  0  0  0  0  0  0  0  0  0
   -9.7235  -22.5273    7.8138 H   0  0  0  0  0  0  0  0  0  0  0  0
  -11.4172  -23.1923    7.7793 H   0  0  0  0  0  0  0  0  0  0  0  0
  -11.1804  -20.8938    6.7862 H   0  0  0  0  0  0  0  0  0  0  0  0
  -12.3566  -21.0246    8.1488 H   0  0  0  0  0  0  0  0  0  0  0  0
  -12.0486  -17.8582    9.1483 H   0  0  0  0  0  0  0  0  0  0  0  0
   -9.9520  -15.1460    6.5106 H   0  0  0  0  0  0  0  0  0  0  0  0
  1  2  2  0
  2  3  1  0
  3  4  1  0
  4  5  2  0
  5  6  1  0
  6  7  2  0
  7  8  1  0
  8  9  1  0
  9 10  1  0
  9 11  1  0
  9 12  1  0
  8 13  2  0
  2 14  1  0
 14 15  2  0
 15 16  1  0
 16 17  1  0
 17 18  1  0
 18 19  1  0
 19 20  1  0
 20 21  1  0
 21 22  1  0
 22 23  1  0
 23 24  1  0
 24 25  1  0
 25 26  1  0
 20 27  1  0
 27 28  1  0
 16 29  2  0
 29 30  1  0
 30 31  1  0
 31 32  1  0
 31 33  1  0
 31 34  1  0
 30 35  2  0
 13  4  1  0
 35 14  1  0
 28 17  1  0
 26 21  1  0
  3 36  1  0
  5 37  1  0
  6 38  1  0
  7 39  1  0
 13 40  1  0
 15 41  1  0
 18 42  1  0
 18 43  1  0
 19 44  1  0
 19 45  1  0
 20 46  1  0
 21 47  1  0
 22 48  1  0
 22 49  1  0
 23 50  1  0
 23 51  1  0
 24 52  1  0
 24 53  1  0
 25 54  1  0
 25 55  1  0
 26 56  1  0
 26 57  1  0
 27 58  1  0
 27 59  1  0
 28 60  1  0
 28 61  1  0
 29 62  1  0
 35 63  1  0
M  CHG  1  21   1
M  END
>  <meeko>  (2) 
{"is_sidechain": [false], "free_energy": -8.867, "intermolecular_energy": -11.878, "internal_energy": -1.238}

$$$$
LIB_PUSXXXWMEJEPSR__M_PUB_ALL__e8__s20260927
     RDKit          3D

 63 66  0  0  0  0  0  0  0  0999 V2000
    7.9780  -11.8310   -1.2440 O   0  0  0  0  0  0  0  0  0  0  0  0
    8.2820  -12.8800   -0.6850 C   0  0  0  0  0  0  0  0  0  0  0  0
    9.5410  -13.2510   -0.2510 N   0  0  0  0  0  0  0  0  0  0  0  0
   10.7510  -12.5500   -0.4460 C   0  0  0  0  0  0  0  0  0  0  0  0
   11.1630  -11.6910    0.5810 C   0  0  0  0  0  0  0  0  0  0  0  0
   12.3490  -10.9610    0.4670 C   0  0  0  0  0  0  0  0  0  0  0  0
   13.1360  -11.0830   -0.6750 C   0  0  0  0  0  0  0  0  0  0  0  0
   12.7480  -11.9420   -1.7110 C   0  0  0  0  0  0  0  0  0  0  0  0
   13.5790  -12.0840   -2.9630 C   0  0  0  0  0  0  0  0  0  0  0  0
   14.7980  -11.4870   -2.8460 F   0  0  0  0  0  0  0  0  0  0  0  0
   13.8310  -13.3800   -3.3010 F   0  0  0  0  0  0  0  0  0  0  0  0
   12.9880  -11.5240   -4.0540 F   0  0  0  0  0  0  0  0  0  0  0  0
   11.5490  -12.6710   -1.5850 C   0  0  0  0  0  0  0  0  0  0  0  0
    7.1850  -13.8490   -0.3920 C   0  0  0  0  0  0  0  0  0  0  0  0
    5.9140  -13.3290   -0.0960 C   0  0  0  0  0  0  0  0  0  0  0  0
    4.8090  -14.1500    0.1760 C   0  0  0  0  0  0  0  0  0  0  0  0
    3.5520  -13.6190    0.4500 N   0  0  0  0  0  0  0  0  0  0  0  0
    2.4750  -14.4930    0.9110 C   0  0  0  0  0  0  0  0  0  0  0  0
    1.4690  -13.6890    1.7280 C   0  0  0  0  0  0  0  0  0  0  0  0
    0.8730  -12.5820    0.8620 C   0  0  0  0  0  0  0  0  0  0  0  0
    0.0880  -11.5520    1.6900 N   0  0  0  0  0  0  0  0  0  0  0  0
   -0.4070  -10.3850    0.8550 C   0  0  0  0  0  0  0  0  0  0  0  0
   -0.9140   -9.2840    1.7780 C   0  0  0  0  0  0  0  0  0  0  0  0
   -1.9950   -9.7930    2.7250 C   0  0  0  0  0  0  0  0  0  0  0  0
   -1.5220  -11.0200    3.4970 C   0  0  0  0  0  0  0  0  0  0  0  0
   -1.0190  -12.1140    2.5620 C   0  0  0  0  0  0  0  0  0  0  0  0
    1.8850  -11.8870   -0.0560 C   0  0  0  0  0  0  0  0  0  0  0  0
    3.3300  -12.1780    0.3360 C   0  0  0  0  0  0  0  0  0  0  0  0
    5.0370  -15.5340    0.1470 C   0  0  0  0  0  0  0  0  0  0  0  0
    6.2980  -16.0870   -0.1550 C   0  0  0  0  0  0  0  0  0  0  0  0
    6.4710  -17.5860   -0.2220 C   0  0  0  0  0  0  0  0  0  0  0  0
    6.2150  -18.2000    0.9660 F   0  0  0  0  0  0  0  0  0  0  0  0
    5.6430  -18.1700   -1.1320 F   0  0  0  0  0  0  0  0  0  0  0  0
    7.7340  -17.9440   -0.5730 F   0  0  0  0  0  0  0  0  0  0  0  0
    7.3700  -15.2310   -0.4400 C   0  0  0  0  0  0  0  0  0  0  0  0
    9.6170  -14.0940    0.3020 H   0  0  0  0  0  0  0  0  0  0  0  0
   10.5466  -11.5901    1.4864 H   0  0  0  0  0  0  0  0  0  0  0  0
   12.6611  -10.2893    1.2803 H   0  0  0  0  0  0  0  0  0  0  0  0
   14.0661  -10.5025   -0.7640 H   0  0  0  0  0  0  0  0  0  0  0  0
   11.2371  -13.3454   -2.3961 H   0  0  0  0  0  0  0  0  0  0  0  0
    5.7800  -12.2374   -0.0767 H   0  0  0  0  0  0  0  0  0  0  0  0
    1.9676  -14.9366    0.0416 H   0  0  0  0  0  0  0  0  0  0  0  0
    2.8988  -15.2897    1.5401 H   0  0  0  0  0  0  0  0  0  0  0  0
    0.6651  -14.3543    2.0760 H   0  0  0  0  0  0  0  0  0  0  0  0
    1.9774  -13.2409    2.5944 H   0  0  0  0  0  0  0  0  0  0  0  0
    0.1669  -13.1030    0.1987 H   0  0  0  0  0  0  0  0  0  0  0  0
    0.7820  -11.1490    2.3350 H   0  0  0  0  0  0  0  0  0  0  0  0
    0.4183   -9.9974    0.2396 H   0  0  0  0  0  0  0  0  0  0  0  0
   -1.2239  -10.7214    0.1997 H   0  0  0  0  0  0  0  0  0  0  0  0
   -0.0712   -8.9013    2.3723 H   0  0  0  0  0  0  0  0  0  0  0  0
   -1.3511   -8.4897    1.1551 H   0  0  0  0  0  0  0  0  0  0  0  0
   -2.2497   -8.9963    3.4394 H   0  0  0  0  0  0  0  0  0  0  0  0
   -2.8745  -10.0760    2.1281 H   0  0  0  0  0  0  0  0  0  0  0  0
   -0.7051  -10.7239    4.1715 H   0  0  0  0  0  0  0  0  0  0  0  0
   -2.3759  -11.4190    4.0642 H   0  0  0  0  0  0  0  0  0  0  0  0
   -0.6299  -12.9549    3.1548 H   0  0  0  0  0  0  0  0  0  0  0  0
   -1.8454  -12.4689    1.9287 H   0  0  0  0  0  0  0  0  0  0  0  0
    1.7227  -12.2354   -1.0867 H   0  0  0  0  0  0  0  0  0  0  0  0
    1.7273  -10.8022    0.0356 H   0  0  0  0  0  0  0  0  0  0  0  0
    4.0025  -11.7682   -0.4320 H   0  0  0  0  0  0  0  0  0  0  0  0
    3.5345  -11.7094    1.3100 H   0  0  0  0  0  0  0  0  0  0  0  0
    4.2004  -16.2131    0.3682 H   0  0  0  0  0  0  0  0  0  0  0  0
    8.3543  -15.6472   -0.7007 H   0  0  0  0  0  0  0  0  0  0  0  0
  1  2  2  0
  2  3  1  0
  3  4  1  0
  4  5  2  0
  5  6  1  0
  6  7  2  0
  7  8  1  0
  8  9  1  0
  9 10  1  0
  9 11  1  0
  9 12  1  0
  8 13  2  0
  2 14  1  0
 14 15  2  0
 15 16  1  0
 16 17  1  0
 17 18  1  0
 18 19  1  0
 19 20  1  0
 20 21  1  0
 21 22  1  0
 22 23  1  0
 23 24  1  0
 24 25  1  0
 25 26  1  0
 20 27  1  0
 27 28  1  0
 16 29  2  0
 29 30  1  0
 30 31  1  0
 31 32  1  0
 31 33  1  0
 31 34  1  0
 30 35  2  0
 13  4  1  0
 35 14  1  0
 28 17  1  0
 26 21  1  0
  3 36  1  0
  5 37  1  0
  6 38  1  0
  7 39  1  0
 13 40  1  0
 15 41  1  0
 18 42  1  0
 18 43  1  0
 19 44  1  0
 19 45  1  0
 20 46  1  0
 21 47  1  0
 22 48  1  0
 22 49  1  0
 23 50  1  0
 23 51  1  0
 24 52  1  0
 24 53  1  0
 25 54  1  0
 25 55  1  0
 26 56  1  0
 26 57  1  0
 27 58  1  0
 27 59  1  0
 28 60  1  0
 28 61  1  0
 29 62  1  0
 35 63  1  0
M  CHG  1  21   1
M  END
>  <meeko>  (3) 
{"is_sidechain": [false], "free_energy": -8.836, "intermolecular_energy": -11.801, "internal_energy": -1.272}

$$$$
LIB_PUSXXXWMEJEPSR__M_PUB_ALL__e8__s20260927
     RDKit          3D

 63 66  0  0  0  0  0  0  0  0999 V2000
    0.9480  -13.9390   -0.1490 O   0  0  0  0  0  0  0  0  0  0  0  0
    2.1510  -13.9100    0.0870 C   0  0  0  0  0  0  0  0  0  0  0  0
    2.8120  -14.5840    1.0970 N   0  0  0  0  0  0  0  0  0  0  0  0
    2.2350  -15.3640    2.1220 C   0  0  0  0  0  0  0  0  0  0  0  0
    2.3420  -16.7560    2.0030 C   0  0  0  0  0  0  0  0  0  0  0  0
    1.7980  -17.6000    2.9740 C   0  0  0  0  0  0  0  0  0  0  0  0
    1.1400  -17.0610    4.0770 C   0  0  0  0  0  0  0  0  0  0  0  0
    1.0270  -15.6720    4.2210 C   0  0  0  0  0  0  0  0  0  0  0  0
    0.3110  -15.0640    5.4020 C   0  0  0  0  0  0  0  0  0  0  0  0
    0.0900  -13.7290    5.2440 F   0  0  0  0  0  0  0  0  0  0  0  0
   -0.9120  -15.6170    5.6390 F   0  0  0  0  0  0  0  0  0  0  0  0
    1.0080  -15.1950    6.5640 F   0  0  0  0  0  0  0  0  0  0  0  0
    1.5780  -14.8320    3.2340 C   0  0  0  0  0  0  0  0  0  0  0  0
    3.0150  -13.1060   -0.8260 C   0  0  0  0  0  0  0  0  0  0  0  0
    4.3980  -13.0980   -0.5800 C   0  0  0  0  0  0  0  0  0  0  0  0
    5.3030  -12.3910   -1.3870 C   0  0  0  0  0  0  0  0  0  0  0  0
    6.6730  -12.4080   -1.1400 N   0  0  0  0  0  0  0  0  0  0  0  0
    7.5250  -13.3820   -1.8200 C   0  0  0  0  0  0  0  0  0  0  0  0
    8.9480  -12.8440   -1.9200 C   0  0  0  0  0  0  0  0  0  0  0  0
    9.5010  -12.5930   -0.5190 C   0  0  0  0  0  0  0  0  0  0  0  0
   10.8010  -11.7740   -0.5440 N   0  0  0  0  0  0  0  0  0  0  0  0
   11.2040  -11.2740    0.8310 C   0  0  0  0  0  0  0  0  0  0  0  0
   12.3200  -10.2460    0.6870 C   0  0  0  0  0  0  0  0  0  0  0  0
   13.5140  -10.8110   -0.0740 C   0  0  0  0  0  0  0  0  0  0  0  0
   13.0880  -11.3920   -1.4180 C   0  0  0  0  0  0  0  0  0  0  0  0
   11.9730  -12.4180   -1.2600 C   0  0  0  0  0  0  0  0  0  0  0  0
    8.4900  -11.9820    0.4570 C   0  0  0  0  0  0  0  0  0  0  0  0
    7.2640  -11.4110   -0.2490 C   0  0  0  0  0  0  0  0  0  0  0  0
    4.7540  -11.6760   -2.4620 C   0  0  0  0  0  0  0  0  0  0  0  0
    3.3720  -11.6710   -2.7410 C   0  0  0  0  0  0  0  0  0  0  0  0
    2.8450  -10.9240   -3.9430 C   0  0  0  0  0  0  0  0  0  0  0  0
    2.2380   -9.7520   -3.6110 F   0  0  0  0  0  0  0  0  0  0  0  0
    3.8250  -10.5990   -4.8310 F   0  0  0  0  0  0  0  0  0  0  0  0
    1.9280  -11.6460   -4.6370 F   0  0  0  0  0  0  0  0  0  0  0  0
    2.5060  -12.4060   -1.9210 C   0  0  0  0  0  0  0  0  0  0  0  0
    3.8240  -14.5590    1.0950 H   0  0  0  0  0  0  0  0  0  0  0  0
    2.8604  -17.1892    1.1349 H   0  0  0  0  0  0  0  0  0  0  0  0
    1.8893  -18.6910    2.8675 H   0  0  0  0  0  0  0  0  0  0  0  0
    0.7077  -17.7280    4.8374 H   0  0  0  0  0  0  0  0  0  0  0  0
    1.4897  -13.7407    3.3403 H   0  0  0  0  0  0  0  0  0  0  0  0
    4.7864  -13.6673    0.2774 H   0  0  0  0  0  0  0  0  0  0  0  0
    7.5298  -14.3232   -1.2506 H   0  0  0  0  0  0  0  0  0  0  0  0
    7.1334  -13.5625   -2.8320 H   0  0  0  0  0  0  0  0  0  0  0  0
    9.5818  -13.5794   -2.4373 H   0  0  0  0  0  0  0  0  0  0  0  0
    8.9426  -11.9001   -2.4848 H   0  0  0  0  0  0  0  0  0  0  0  0
    9.7311  -13.5962   -0.1309 H   0  0  0  0  0  0  0  0  0  0  0  0
   10.5690  -10.9280   -1.0830 H   0  0  0  0  0  0  0  0  0  0  0  0
   10.3365  -10.8081    1.3212 H   0  0  0  0  0  0  0  0  0  0  0  0
   11.5578  -12.1185    1.4407 H   0  0  0  0  0  0  0  0  0  0  0  0
   11.9317   -9.3725    0.1428 H   0  0  0  0  0  0  0  0  0  0  0  0
   12.6585   -9.9647    1.6951 H   0  0  0  0  0  0  0  0  0  0  0  0
   14.2431  -10.0056   -0.2464 H   0  0  0  0  0  0  0  0  0  0  0  0
   13.9602  -11.6167    0.5275 H   0  0  0  0  0  0  0  0  0  0  0  0
   12.7320  -10.5750   -2.0629 H   0  0  0  0  0  0  0  0  0  0  0  0
   13.9575  -11.8964   -1.8648 H   0  0  0  0  0  0  0  0  0  0  0  0
   11.6512  -12.7674   -2.2521 H   0  0  0  0  0  0  0  0  0  0  0  0
   12.3388  -13.2743   -0.6744 H   0  0  0  0  0  0  0  0  0  0  0  0
    8.1608  -12.7631    1.1581 H   0  0  0  0  0  0  0  0  0  0  0  0
    8.9901  -11.1528    0.9789 H   0  0  0  0  0  0  0  0  0  0  0  0
    6.5196  -11.1123    0.5038 H   0  0  0  0  0  0  0  0  0  0  0  0
    7.5719  -10.5398   -0.8459 H   0  0  0  0  0  0  0  0  0  0  0  0
    5.4272  -11.0975   -3.1117 H   0  0  0  0  0  0  0  0  0  0  0  0
    1.4282  -12.4314   -2.1394 H   0  0  0  0  0  0  0  0  0  0  0  0
  1  2  2  0
  2  3  1  0
  3  4  1  0
  4  5  2  0
  5  6  1  0
  6  7  2  0
  7  8  1  0
  8  9  1  0
  9 10  1  0
  9 11  1  0
  9 12  1  0
  8 13  2  0
  2 14  1  0
 14 15  2  0
 15 16  1  0
 16 17  1  0
 17 18  1  0
 18 19  1  0
 19 20  1  0
 20 21  1  0
 21 22  1  0
 22 23  1  0
 23 24  1  0
 24 25  1  0
 25 26  1  0
 20 27  1  0
 27 28  1  0
 16 29  2  0
 29 30  1  0
 30 31  1  0
 31 32  1  0
 31 33  1  0
 31 34  1  0
 30 35  2  0
 13  4  1  0
 35 14  1  0
 28 17  1  0
 26 21  1  0
  3 36  1  0
  5 37  1  0
  6 38  1  0
  7 39  1  0
 13 40  1  0
 15 41  1  0
 18 42  1  0
 18 43  1  0
 19 44  1  0
 19 45  1  0
 20 46  1  0
 21 47  1  0
 22 48  1  0
 22 49  1  0
 23 50  1  0
 23 51  1  0
 24 52  1  0
 24 53  1  0
 25 54  1  0
 25 55  1  0
 26 56  1  0
 26 57  1  0
 27 58  1  0
 27 59  1  0
 28 60  1  0
 28 61  1  0
 29 62  1  0
 35 63  1  0
M  CHG  1  21   1
M  END
>  <meeko>  (4) 
{"is_sidechain": [false], "free_energy": -8.817, "intermolecular_energy": -11.767, "internal_energy": -1.282}

$$$$
LIB_PUSXXXWMEJEPSR__M_PUB_ALL__e8__s20260927
     RDKit          3D

 63 66  0  0  0  0  0  0  0  0999 V2000
    2.2900  -13.8450    1.1240 O   0  0  0  0  0  0  0  0  0  0  0  0
    1.8880  -13.5680   -0.0010 C   0  0  0  0  0  0  0  0  0  0  0  0
    0.6270  -13.8100   -0.5120 N   0  0  0  0  0  0  0  0  0  0  0  0
   -0.4260  -14.5110    0.1140 C   0  0  0  0  0  0  0  0  0  0  0  0
   -0.4200  -15.9070    0.0020 C   0  0  0  0  0  0  0  0  0  0  0  0
   -1.4270  -16.6760    0.5920 C   0  0  0  0  0  0  0  0  0  0  0  0
   -2.4510  -16.0560    1.3030 C   0  0  0  0  0  0  0  0  0  0  0  0
   -2.4740  -14.6610    1.4350 C   0  0  0  0  0  0  0  0  0  0  0  0
   -3.5780  -13.9650    2.1920 C   0  0  0  0  0  0  0  0  0  0  0  0
   -4.1030  -14.7450    3.1780 F   0  0  0  0  0  0  0  0  0  0  0  0
   -3.1760  -12.8150    2.8030 F   0  0  0  0  0  0  0  0  0  0  0  0
   -4.6240  -13.6140    1.3940 F   0  0  0  0  0  0  0  0  0  0  0  0
   -1.4540  -13.8980    0.8330 C   0  0  0  0  0  0  0  0  0  0  0  0
    2.8280  -12.8520   -0.9130 C   0  0  0  0  0  0  0  0  0  0  0  0
    4.1950  -12.8660   -0.5860 C   0  0  0  0  0  0  0  0  0  0  0  0
    5.1660  -12.2400   -1.3830 C   0  0  0  0  0  0  0  0  0  0  0  0
    6.5180  -12.2790   -1.0540 N   0  0  0  0  0  0  0  0  0  0  0  0
    7.3260  -13.4410   -1.4210 C   0  0  0  0  0  0  0  0  0  0  0  0
    8.7880  -13.0320   -1.5610 C   0  0  0  0  0  0  0  0  0  0  0  0
    9.2940  -12.4750   -0.2330 C   0  0  0  0  0  0  0  0  0  0  0  0
   10.6510  -11.7680   -0.3760 N   0  0  0  0  0  0  0  0  0  0  0  0
   11.1560  -11.1990    0.9380 C   0  0  0  0  0  0  0  0  0  0  0  0
   12.3400  -10.2790    0.6670 C   0  0  0  0  0  0  0  0  0  0  0  0
   13.4500  -10.9950   -0.0960 C   0  0  0  0  0  0  0  0  0  0  0  0
   12.9170  -11.6400   -1.3710 C   0  0  0  0  0  0  0  0  0  0  0  0
   11.7350  -12.5580   -1.0860 C   0  0  0  0  0  0  0  0  0  0  0  0
    8.2880  -11.5810    0.5000 C   0  0  0  0  0  0  0  0  0  0  0  0
    7.1410  -11.1290   -0.3990 C   0  0  0  0  0  0  0  0  0  0  0  0
    4.7020  -11.5850   -2.5330 C   0  0  0  0  0  0  0  0  0  0  0  0
    3.3400  -11.5600   -2.8940 C   0  0  0  0  0  0  0  0  0  0  0  0
    2.9070  -10.8820   -4.1710 C   0  0  0  0  0  0  0  0  0  0  0  0
    3.9110  -10.7890   -5.0860 F   0  0  0  0  0  0  0  0  0  0  0  0
    1.8900  -11.5370   -4.7960 F   0  0  0  0  0  0  0  0  0  0  0  0
    2.4660   -9.6140   -3.9580 F   0  0  0  0  0  0  0  0  0  0  0  0
    2.4050  -12.2140   -2.0790 C   0  0  0  0  0  0  0  0  0  0  0  0
    0.4020  -13.4160   -1.4160 H   0  0  0  0  0  0  0  0  0  0  0  0
    0.3866  -16.4040   -0.5568 H   0  0  0  0  0  0  0  0  0  0  0  0
   -1.4105  -17.7716    0.4946 H   0  0  0  0  0  0  0  0  0  0  0  0
   -3.2447  -16.6632    1.7627 H   0  0  0  0  0  0  0  0  0  0  0  0
   -1.4677  -12.8025    0.9309 H   0  0  0  0  0  0  0  0  0  0  0  0
    4.5156  -13.3868    0.3283 H   0  0  0  0  0  0  0  0  0  0  0  0
    7.2354  -14.2099   -0.6396 H   0  0  0  0  0  0  0  0  0  0  0  0
    6.9685  -13.8427   -2.3806 H   0  0  0  0  0  0  0  0  0  0  0  0
    9.3883  -13.9098   -1.8422 H   0  0  0  0  0  0  0  0  0  0  0  0
    8.8780  -12.2595   -2.3389 H   0  0  0  0  0  0  0  0  0  0  0  0
    9.4313  -13.3630    0.4015 H   0  0  0  0  0  0  0  0  0  0  0  0
   10.4600  -10.9500   -0.9700 H   0  0  0  0  0  0  0  0  0  0  0  0
   10.3513  -10.6284    1.4247 H   0  0  0  0  0  0  0  0  0  0  0  0
   11.4714  -12.0205    1.5981 H   0  0  0  0  0  0  0  0  0  0  0  0
   11.9951   -9.4206    0.0718 H   0  0  0  0  0  0  0  0  0  0  0  0
   12.7468   -9.9508    1.6349 H   0  0  0  0  0  0  0  0  0  0  0  0
   14.2301  -10.2664   -0.3618 H   0  0  0  0  0  0  0  0  0  0  0  0
   13.8607  -11.7861    0.5485 H   0  0  0  0  0  0  0  0  0  0  0  0
   12.5947  -10.8482   -2.0633 H   0  0  0  0  0  0  0  0  0  0  0  0
   13.7228  -12.2451   -1.8121 H   0  0  0  0  0  0  0  0  0  0  0  0
   11.3407  -12.9552   -2.0330 H   0  0  0  0  0  0  0  0  0  0  0  0
   12.0607  -13.3940   -0.4496 H   0  0  0  0  0  0  0  0  0  0  0  0
    7.8703  -12.1428    1.3485 H   0  0  0  0  0  0  0  0  0  0  0  0
    8.8241  -10.6805    0.8342 H   0  0  0  0  0  0  0  0  0  0  0  0
    6.3878  -10.6077    0.2101 H   0  0  0  0  0  0  0  0  0  0  0  0
    7.5393  -10.4536   -1.1705 H   0  0  0  0  0  0  0  0  0  0  0  0
    5.4294  -11.0708   -3.1783 H   0  0  0  0  0  0  0  0  0  0  0  0
    1.3411  -12.2239   -2.3584 H   0  0  0  0  0  0  0  0  0  0  0  0
  1  2  2  0
  2  3  1  0
  3  4  1  0
  4  5  2  0
  5  6  1  0
  6  7  2  0
  7  8  1  0
  8  9  1  0
  9 10  1  0
  9 11  1  0
  9 12  1  0
  8 13  2  0
  2 14  1  0
 14 15  2  0
 15 16  1  0
 16 17  1  0
 17 18  1  0
 18 19  1  0
 19 20  1  0
 20 21  1  0
 21 22  1  0
 22 23  1  0
 23 24  1  0
 24 25  1  0
 25 26  1  0
 20 27  1  0
 27 28  1  0
 16 29  2  0
 29 30  1  0
 30 31  1  0
 31 32  1  0
 31 33  1  0
 31 34  1  0
 30 35  2  0
 13  4  1  0
 35 14  1  0
 28 17  1  0
 26 21  1  0
  3 36  1  0
  5 37  1  0
  6 38  1  0
  7 39  1  0
 13 40  1  0
 15 41  1  0
 18 42  1  0
 18 43  1  0
 19 44  1  0
 19 45  1  0
 20 46  1  0
 21 47  1  0
 22 48  1  0
 22 49  1  0
 23 50  1  0
 23 51  1  0
 24 52  1  0
 24 53  1  0
 25 54  1  0
 25 55  1  0
 26 56  1  0
 26 57  1  0
 27 58  1  0
 27 59  1  0
 28 60  1  0
 28 61  1  0
 29 62  1  0
 35 63  1  0
M  CHG  1  21   1
M  END
>  <meeko>  (5) 
{"is_sidechain": [false], "free_energy": -8.788, "intermolecular_energy": -11.763, "internal_energy": -1.246}

$$$$
LIB_PUSXXXWMEJEPSR__M_PUB_ALL__e8__s20260927
     RDKit          3D

 63 66  0  0  0  0  0  0  0  0999 V2000
    7.6560  -14.4220   -1.7220 O   0  0  0  0  0  0  0  0  0  0  0  0
    8.0920  -13.2880   -1.8860 C   0  0  0  0  0  0  0  0  0  0  0  0
    7.3590  -12.1170   -1.9190 N   0  0  0  0  0  0  0  0  0  0  0  0
    5.9540  -11.9890   -1.8690 C   0  0  0  0  0  0  0  0  0  0  0  0
    5.3170  -12.3910   -0.6880 C   0  0  0  0  0  0  0  0  0  0  0  0
    3.9300  -12.2980   -0.5570 C   0  0  0  0  0  0  0  0  0  0  0  0
    3.1620  -11.7990   -1.6060 C   0  0  0  0  0  0  0  0  0  0  0  0
    3.7780  -11.3830   -2.7950 C   0  0  0  0  0  0  0  0  0  0  0  0
    2.9670  -10.8480   -3.9500 C   0  0  0  0  0  0  0  0  0  0  0  0
    2.2300   -9.7560   -3.6040 F   0  0  0  0  0  0  0  0  0  0  0  0
    3.7280  -10.4610   -5.0120 F   0  0  0  0  0  0  0  0  0  0  0  0
    2.0830  -11.7600   -4.4390 F   0  0  0  0  0  0  0  0  0  0  0  0
    5.1770  -11.4850   -2.9140 C   0  0  0  0  0  0  0  0  0  0  0  0
    9.5700  -13.1290   -2.0200 C   0  0  0  0  0  0  0  0  0  0  0  0
   10.1740  -13.5910   -3.2020 C   0  0  0  0  0  0  0  0  0  0  0  0
   11.5520  -13.4750   -3.4390 C   0  0  0  0  0  0  0  0  0  0  0  0
   12.1310  -13.9220   -4.6230 N   0  0  0  0  0  0  0  0  0  0  0  0
   11.2950  -14.5150   -5.6660 C   0  0  0  0  0  0  0  0  0  0  0  0
   11.9600  -14.3350   -7.0270 C   0  0  0  0  0  0  0  0  0  0  0  0
   13.3210  -15.0270   -7.0280 C   0  0  0  0  0  0  0  0  0  0  0  0
   14.1730  -14.6360   -8.2460 N   0  0  0  0  0  0  0  0  0  0  0  0
   14.9790  -15.7990   -8.7950 C   0  0  0  0  0  0  0  0  0  0  0  0
   16.0000  -15.2770   -9.7980 C   0  0  0  0  0  0  0  0  0  0  0  0
   15.3360  -14.4810  -10.9160 C   0  0  0  0  0  0  0  0  0  0  0  0
   14.4570  -13.3680  -10.3570 C   0  0  0  0  0  0  0  0  0  0  0  0
   13.4410  -13.9030   -9.3560 C   0  0  0  0  0  0  0  0  0  0  0  0
   14.1160  -14.8560   -5.7290 C   0  0  0  0  0  0  0  0  0  0  0  0
   13.5650  -13.7410   -4.8460 C   0  0  0  0  0  0  0  0  0  0  0  0
   12.3120  -12.8740   -2.4240 C   0  0  0  0  0  0  0  0  0  0  0  0
   11.7360  -12.3920   -1.2310 C   0  0  0  0  0  0  0  0  0  0  0  0
   12.5970  -11.7080   -0.1970 C   0  0  0  0  0  0  0  0  0  0  0  0
   13.6540  -11.0480   -0.7440 F   0  0  0  0  0  0  0  0  0  0  0  0
   11.9120  -10.7830    0.5290 F   0  0  0  0  0  0  0  0  0  0  0  0
   13.1170  -12.5850    0.7010 F   0  0  0  0  0  0  0  0  0  0  0  0
   10.3520  -12.5110   -1.0430 C   0  0  0  0  0  0  0  0  0  0  0  0
    7.8690  -11.2440   -1.9410 H   0  0  0  0  0  0  0  0  0  0  0  0
    5.9165  -12.7846    0.1461 H   0  0  0  0  0  0  0  0  0  0  0  0
    3.4435  -12.6192    0.3758 H   0  0  0  0  0  0  0  0  0  0  0  0
    2.0691  -11.7310   -1.5016 H   0  0  0  0  0  0  0  0  0  0  0  0
    5.6659  -11.1625   -3.8451 H   0  0  0  0  0  0  0  0  0  0  0  0
    9.5426  -14.0612   -3.9702 H   0  0  0  0  0  0  0  0  0  0  0  0
   11.1641  -15.5881   -5.4628 H   0  0  0  0  0  0  0  0  0  0  0  0
   10.3146  -14.0163   -5.6724 H   0  0  0  0  0  0  0  0  0  0  0  0
   11.3234  -14.7783   -7.8069 H   0  0  0  0  0  0  0  0  0  0  0  0
   12.0957  -13.2621   -7.2280 H   0  0  0  0  0  0  0  0  0  0  0  0
   13.0833  -16.0985   -7.1010 H   0  0  0  0  0  0  0  0  0  0  0  0
   14.8690  -13.9730   -7.8790 H   0  0  0  0  0  0  0  0  0  0  0  0
   15.5008  -16.3060   -7.9700 H   0  0  0  0  0  0  0  0  0  0  0  0
   14.3048  -16.5111   -9.2932 H   0  0  0  0  0  0  0  0  0  0  0  0
   16.7149  -14.6263   -9.2731 H   0  0  0  0  0  0  0  0  0  0  0  0
   16.5107  -16.1408  -10.2486 H   0  0  0  0  0  0  0  0  0  0  0  0
   16.1161  -14.0365  -11.5515 H   0  0  0  0  0  0  0  0  0  0  0  0
   14.7016  -15.1646  -11.4993 H   0  0  0  0  0  0  0  0  0  0  0  0
   15.0962  -12.6268   -9.8549 H   0  0  0  0  0  0  0  0  0  0  0  0
   13.9074  -12.9116  -11.1935 H   0  0  0  0  0  0  0  0  0  0  0  0
   12.8688  -13.0660   -8.9293 H   0  0  0  0  0  0  0  0  0  0  0  0
   12.7509  -14.5936   -9.8628 H   0  0  0  0  0  0  0  0  0  0  0  0
   14.0798  -15.8009   -5.1669 H   0  0  0  0  0  0  0  0  0  0  0  0
   15.1466  -14.5856   -6.0025 H   0  0  0  0  0  0  0  0  0  0  0  0
   14.0862  -13.7560   -3.8774 H   0  0  0  0  0  0  0  0  0  0  0  0
   13.7265  -12.7768   -5.3502 H   0  0  0  0  0  0  0  0  0  0  0  0
   13.3985  -12.7752   -2.5646 H   0  0  0  0  0  0  0  0  0  0  0  0
    9.8837  -12.1185   -0.1283 H   0  0  0  0  0  0  0  0  0  0  0  0
  1  2  2  0
  2  3  1  0
  3  4  1  0
  4  5  2  0
  5  6  1  0
  6  7  2  0
  7  8  1  0
  8  9  1  0
  9 10  1  0
  9 11  1  0
  9 12  1  0
  8 13  2  0
  2 14  1  0
 14 15  2  0
 15 16  1  0
 16 17  1  0
 17 18  1  0
 18 19  1  0
 19 20  1  0
 20 21  1  0
 21 22  1  0
 22 23  1  0
 23 24  1  0
 24 25  1  0
 25 26  1  0
 20 27  1  0
 27 28  1  0
 16 29  2  0
 29 30  1  0
 30 31  1  0
 31 32  1  0
 31 33  1  0
 31 34  1  0
 30 35  2  0
 13  4  1  0
 35 14  1  0
 28 17  1  0
 26 21  1  0
  3 36  1  0
  5 37  1  0
  6 38  1  0
  7 39  1  0
 13 40  1  0
 15 41  1  0
 18 42  1  0
 18 43  1  0
 19 44  1  0
 19 45  1  0
 20 46  1  0
 21 47  1  0
 22 48  1  0
 22 49  1  0
 23 50  1  0
 23 51  1  0
 24 52  1  0
 24 53  1  0
 25 54  1  0
 25 55  1  0
 26 56  1  0
 26 57  1  0
 27 58  1  0
 27 59  1  0
 28 60  1  0
 28 61  1  0
 29 62  1  0
 35 63  1  0
M  CHG  1  21   1
M  END
>  <meeko>  (6) 
{"is_sidechain": [false], "free_energy": -8.771, "intermolecular_energy": -11.865, "internal_energy": -1.121}

$$$$
LIB_PUSXXXWMEJEPSR__M_PUB_ALL__e8__s20260927
     RDKit          3D

 63 66  0  0  0  0  0  0  0  0999 V2000
   -3.3580  -14.8110    0.8290 O   0  0  0  0  0  0  0  0  0  0  0  0
   -2.8090  -14.2180    1.7520 C   0  0  0  0  0  0  0  0  0  0  0  0
   -2.9600  -14.4700    3.1020 N   0  0  0  0  0  0  0  0  0  0  0  0
   -3.8470  -15.3890    3.7040 C   0  0  0  0  0  0  0  0  0  0  0  0
   -3.4620  -16.7360    3.7140 C   0  0  0  0  0  0  0  0  0  0  0  0
   -4.2820  -17.7090    4.2890 C   0  0  0  0  0  0  0  0  0  0  0  0
   -5.4980  -17.3460    4.8640 C   0  0  0  0  0  0  0  0  0  0  0  0
   -5.9000  -16.0040    4.8730 C   0  0  0  0  0  0  0  0  0  0  0  0
   -7.2160  -15.5860    5.4820 C   0  0  0  0  0  0  0  0  0  0  0  0
   -8.1950  -15.4330    4.5470 F   0  0  0  0  0  0  0  0  0  0  0  0
   -7.7040  -16.4810    6.3870 F   0  0  0  0  0  0  0  0  0  0  0  0
   -7.1370  -14.3970    6.1420 F   0  0  0  0  0  0  0  0  0  0  0  0
   -5.0650  -15.0330    4.2880 C   0  0  0  0  0  0  0  0  0  0  0  0
   -1.8370  -13.1420    1.4000 C   0  0  0  0  0  0  0  0  0  0  0  0
   -0.7920  -13.4660    0.5180 C   0  0  0  0  0  0  0  0  0  0  0  0
    0.1660  -12.5260    0.1070 C   0  0  0  0  0  0  0  0  0  0  0  0
    1.1840  -12.8590   -0.7810 N   0  0  0  0  0  0  0  0  0  0  0  0
    1.2020  -14.1800   -1.4080 C   0  0  0  0  0  0  0  0  0  0  0  0
    1.9450  -14.1120   -2.7380 C   0  0  0  0  0  0  0  0  0  0  0  0
    3.3820  -13.6550   -2.5000 C   0  0  0  0  0  0  0  0  0  0  0  0
    4.0970  -13.2730   -3.8060 N   0  0  0  0  0  0  0  0  0  0  0  0
    4.5510  -14.4840   -4.6010 C   0  0  0  0  0  0  0  0  0  0  0  0
    5.4890  -14.0340   -5.7140 C   0  0  0  0  0  0  0  0  0  0  0  0
    4.8390  -12.9880   -6.6120 C   0  0  0  0  0  0  0  0  0  0  0  0
    4.3050  -11.8140   -5.7980 C   0  0  0  0  0  0  0  0  0  0  0  0
    3.3680  -12.2770   -4.6900 C   0  0  0  0  0  0  0  0  0  0  0  0
    3.5250  -12.5430   -1.4540 C   0  0  0  0  0  0  0  0  0  0  0  0
    2.1970  -11.8650   -1.1340 C   0  0  0  0  0  0  0  0  0  0  0  0
    0.0350  -11.2310    0.6310 C   0  0  0  0  0  0  0  0  0  0  0  0
   -1.0060  -10.8720    1.5110 C   0  0  0  0  0  0  0  0  0  0  0  0
   -1.1250   -9.4490    2.0020 C   0  0  0  0  0  0  0  0  0  0  0  0
   -0.0360   -8.6920    1.6950 F   0  0  0  0  0  0  0  0  0  0  0  0
   -2.1970   -8.7980    1.4720 F   0  0  0  0  0  0  0  0  0  0  0  0
   -1.2690   -9.3810    3.3520 F   0  0  0  0  0  0  0  0  0  0  0  0
   -1.9530  -11.8370    1.8810 C   0  0  0  0  0  0  0  0  0  0  0  0
   -2.3500  -13.9800    3.7430 H   0  0  0  0  0  0  0  0  0  0  0  0
   -2.5026  -17.0305    3.2637 H   0  0  0  0  0  0  0  0  0  0  0  0
   -3.9676  -18.7631    4.2880 H   0  0  0  0  0  0  0  0  0  0  0  0
   -6.1442  -18.1152    5.3121 H   0  0  0  0  0  0  0  0  0  0  0  0
   -5.3765  -13.9780    4.2909 H   0  0  0  0  0  0  0  0  0  0  0  0
   -0.7222  -14.4949    0.1353 H   0  0  0  0  0  0  0  0  0  0  0  0
    1.7101  -14.8931   -0.7422 H   0  0  0  0  0  0  0  0  0  0  0  0
    0.1682  -14.5107   -1.5867 H   0  0  0  0  0  0  0  0  0  0  0  0
    1.9503  -15.1077   -3.2055 H   0  0  0  0  0  0  0  0  0  0  0  0
    1.4395  -13.3956   -3.4022 H   0  0  0  0  0  0  0  0  0  0  0  0
    3.8833  -14.5379   -2.0767 H   0  0  0  0  0  0  0  0  0  0  0  0
    4.9630  -12.8060   -3.5050 H   0  0  0  0  0  0  0  0  0  0  0  0
    5.0791  -15.1831   -3.9359 H   0  0  0  0  0  0  0  0  0  0  0  0
    3.6756  -14.9867   -5.0381 H   0  0  0  0  0  0  0  0  0  0  0  0
    6.3954  -13.6032   -5.2636 H   0  0  0  0  0  0  0  0  0  0  0  0
    5.7335  -14.9110   -6.3313 H   0  0  0  0  0  0  0  0  0  0  0  0
    5.5863  -12.6167   -7.3287 H   0  0  0  0  0  0  0  0  0  0  0  0
    3.9952  -13.4581   -7.1383 H   0  0  0  0  0  0  0  0  0  0  0  0
    5.1530  -11.2778   -5.3470 H   0  0  0  0  0  0  0  0  0  0  0  0
    3.7383  -11.1572   -6.4743 H   0  0  0  0  0  0  0  0  0  0  0  0
    3.0535  -11.4116   -4.0881 H   0  0  0  0  0  0  0  0  0  0  0  0
    2.4801  -12.7537   -5.1309 H   0  0  0  0  0  0  0  0  0  0  0  0
    3.9298  -12.9794   -0.5289 H   0  0  0  0  0  0  0  0  0  0  0  0
    4.1978  -11.7786   -1.8700 H   0  0  0  0  0  0  0  0  0  0  0  0
    2.3374  -11.1758   -0.2883 H   0  0  0  0  0  0  0  0  0  0  0  0
    1.8575  -11.3125   -2.0225 H   0  0  0  0  0  0  0  0  0  0  0  0
    0.7726  -10.4670    0.3442 H   0  0  0  0  0  0  0  0  0  0  0  0
   -2.7847  -11.5666    2.5482 H   0  0  0  0  0  0  0  0  0  0  0  0
  1  2  2  0
  2  3  1  0
  3  4  1  0
  4  5  2  0
  5  6  1  0
  6  7  2  0
  7  8  1  0
  8  9  1  0
  9 10  1  0
  9 11  1  0
  9 12  1  0
  8 13  2  0
  2 14  1  0
 14 15  2  0
 15 16  1  0
 16 17  1  0
 17 18  1  0
 18 19  1  0
 19 20  1  0
 20 21  1  0
 21 22  1  0
 22 23  1  0
 23 24  1  0
 24 25  1  0
 25 26  1  0
 20 27  1  0
 27 28  1  0
 16 29  2  0
 29 30  1  0
 30 31  1  0
 31 32  1  0
 31 33  1  0
 31 34  1  0
 30 35  2  0
 13  4  1  0
 35 14  1  0
 28 17  1  0
 26 21  1  0
  3 36  1  0
  5 37  1  0
  6 38  1  0
  7 39  1  0
 13 40  1  0
 15 41  1  0
 18 42  1  0
 18 43  1  0
 19 44  1  0
 19 45  1  0
 20 46  1  0
 21 47  1  0
 22 48  1  0
 22 49  1  0
 23 50  1  0
 23 51  1  0
 24 52  1  0
 24 53  1  0
 25 54  1  0
 25 55  1  0
 26 56  1  0
 26 57  1  0
 27 58  1  0
 27 59  1  0
 28 60  1  0
 28 61  1  0
 29 62  1  0
 35 63  1  0
M  CHG  1  21   1
M  END
>  <meeko>  (7) 
{"is_sidechain": [false], "free_energy": -8.532, "intermolecular_energy": -11.401, "internal_energy": -1.262}

$$$$
LIB_PUSXXXWMEJEPSR__M_PUB_ALL__e8__s20260927
     RDKit          3D

 63 66  0  0  0  0  0  0  0  0999 V2000
    3.9230  -12.1030    0.9210 O   0  0  0  0  0  0  0  0  0  0  0  0
    3.3300  -12.0890   -0.1520 C   0  0  0  0  0  0  0  0  0  0  0  0
    1.9640  -11.9830   -0.3410 N   0  0  0  0  0  0  0  0  0  0  0  0
    0.9640  -11.9680    0.6560 C   0  0  0  0  0  0  0  0  0  0  0  0
    0.7530  -13.1570    1.3660 C   0  0  0  0  0  0  0  0  0  0  0  0
   -0.2180  -13.2270    2.3690 C   0  0  0  0  0  0  0  0  0  0  0  0
   -0.9870  -12.1070    2.6730 C   0  0  0  0  0  0  0  0  0  0  0  0
   -0.7890  -10.9050    1.9810 C   0  0  0  0  0  0  0  0  0  0  0  0
   -1.6160   -9.6810    2.2860 C   0  0  0  0  0  0  0  0  0  0  0  0
   -2.6710   -9.9580    3.1030 F   0  0  0  0  0  0  0  0  0  0  0  0
   -0.9140   -8.6930    2.9090 F   0  0  0  0  0  0  0  0  0  0  0  0
   -2.1450   -9.1110    1.1680 F   0  0  0  0  0  0  0  0  0  0  0  0
    0.1920  -10.8490    0.9720 C   0  0  0  0  0  0  0  0  0  0  0  0
    4.1510  -12.1430   -1.3970 C   0  0  0  0  0  0  0  0  0  0  0  0
    5.5360  -12.3400   -1.2590 C   0  0  0  0  0  0  0  0  0  0  0  0
    6.3980  -12.4250   -2.3630 C   0  0  0  0  0  0  0  0  0  0  0  0
    7.7650  -12.6390   -2.2090 N   0  0  0  0  0  0  0  0  0  0  0  0
    8.3270  -12.8370   -0.8740 C   0  0  0  0  0  0  0  0  0  0  0  0
    9.6110  -13.6540   -0.9690 C   0  0  0  0  0  0  0  0  0  0  0  0
   10.6290  -12.9110   -1.8310 C   0  0  0  0  0  0  0  0  0  0  0  0
   11.8220  -13.7980   -2.2200 N   0  0  0  0  0  0  0  0  0  0  0  0
   11.6570  -15.2350   -1.7600 C   0  0  0  0  0  0  0  0  0  0  0  0
   12.9810  -15.9710   -1.9210 C   0  0  0  0  0  0  0  0  0  0  0  0
   13.4970  -15.8990   -3.3540 C   0  0  0  0  0  0  0  0  0  0  0  0
   13.5770  -14.4560   -3.8410 C   0  0  0  0  0  0  0  0  0  0  0  0
   12.2470  -13.7320   -3.6750 C   0  0  0  0  0  0  0  0  0  0  0  0
   10.0300  -12.2290   -3.0660 C   0  0  0  0  0  0  0  0  0  0  0  0
    8.6250  -12.7280   -3.3880 C   0  0  0  0  0  0  0  0  0  0  0  0
    5.8070  -12.2940   -3.6280 C   0  0  0  0  0  0  0  0  0  0  0  0
    4.4210  -12.1040   -3.8010 C   0  0  0  0  0  0  0  0  0  0  0  0
    3.8350  -12.0200   -5.1900 C   0  0  0  0  0  0  0  0  0  0  0  0
    4.6780  -12.4960   -6.1480 F   0  0  0  0  0  0  0  0  0  0  0  0
    2.6820  -12.7340   -5.3180 F   0  0  0  0  0  0  0  0  0  0  0  0
    3.5330  -10.7440   -5.5460 F   0  0  0  0  0  0  0  0  0  0  0  0
    3.5930  -12.0440   -2.6720 C   0  0  0  0  0  0  0  0  0  0  0  0
    1.6280  -11.8620   -1.2870 H   0  0  0  0  0  0  0  0  0  0  0  0
    1.3581  -14.0452    1.1316 H   0  0  0  0  0  0  0  0  0  0  0  0
   -0.3746  -14.1671    2.9182 H   0  0  0  0  0  0  0  0  0  0  0  0
   -1.7534  -12.1661    3.4599 H   0  0  0  0  0  0  0  0  0  0  0  0
    0.3523   -9.9086    0.4244 H   0  0  0  0  0  0  0  0  0  0  0  0
    5.9598  -12.4309   -0.2480 H   0  0  0  0  0  0  0  0  0  0  0  0
    8.5494  -11.8587   -0.4228 H   0  0  0  0  0  0  0  0  0  0  0  0
    7.5990  -13.3765   -0.2503 H   0  0  0  0  0  0  0  0  0  0  0  0
   10.0249  -13.8037    0.0391 H   0  0  0  0  0  0  0  0  0  0  0  0
    9.3896  -14.6302   -1.4252 H   0  0  0  0  0  0  0  0  0  0  0  0
   10.9970  -12.1011   -1.1840 H   0  0  0  0  0  0  0  0  0  0  0  0
   12.6130  -13.4280   -1.6750 H   0  0  0  0  0  0  0  0  0  0  0  0
   11.3548  -15.2498   -0.7024 H   0  0  0  0  0  0  0  0  0  0  0  0
   10.8846  -15.7296   -2.3672 H   0  0  0  0  0  0  0  0  0  0  0  0
   13.7253  -15.5159   -1.2510 H   0  0  0  0  0  0  0  0  0  0  0  0
   12.8174  -17.0291   -1.6687 H   0  0  0  0  0  0  0  0  0  0  0  0
   14.5003  -16.3480   -3.3968 H   0  0  0  0  0  0  0  0  0  0  0  0
   12.7981  -16.4468   -4.0032 H   0  0  0  0  0  0  0  0  0  0  0  0
   14.3466  -13.9259   -3.2607 H   0  0  0  0  0  0  0  0  0  0  0  0
   13.8300  -14.4684   -4.9114 H   0  0  0  0  0  0  0  0  0  0  0  0
   12.3600  -12.6806   -3.9781 H   0  0  0  0  0  0  0  0  0  0  0  0
   11.4837  -14.2115   -4.3054 H   0  0  0  0  0  0  0  0  0  0  0  0
    9.9857  -11.1452   -2.8832 H   0  0  0  0  0  0  0  0  0  0  0  0
   10.6740  -12.4696   -3.9247 H   0  0  0  0  0  0  0  0  0  0  0  0
    8.1986  -12.1126   -4.1939 H   0  0  0  0  0  0  0  0  0  0  0  0
    8.6858  -13.7798   -3.7042 H   0  0  0  0  0  0  0  0  0  0  0  0
    6.4497  -12.3413   -4.5195 H   0  0  0  0  0  0  0  0  0  0  0  0
    2.5066  -11.9192   -2.7906 H   0  0  0  0  0  0  0  0  0  0  0  0
  1  2  2  0
  2  3  1  0
  3  4  1  0
  4  5  2  0
  5  6  1  0
  6  7  2  0
  7  8  1  0
  8  9  1  0
  9 10  1  0
  9 11  1  0
  9 12  1  0
  8 13  2  0
  2 14  1  0
 14 15  2  0
 15 16  1  0
 16 17  1  0
 17 18  1  0
 18 19  1  0
 19 20  1  0
 20 21  1  0
 21 22  1  0
 22 23  1  0
 23 24  1  0
 24 25  1  0
 25 26  1  0
 20 27  1  0
 27 28  1  0
 16 29  2  0
 29 30  1  0
 30 31  1  0
 31 32  1  0
 31 33  1  0
 31 34  1  0
 30 35  2  0
 13  4  1  0
 35 14  1  0
 28 17  1  0
 26 21  1  0
  3 36  1  0
  5 37  1  0
  6 38  1  0
  7 39  1  0
 13 40  1  0
 15 41  1  0
 18 42  1  0
 18 43  1  0
 19 44  1  0
 19 45  1  0
 20 46  1  0
 21 47  1  0
 22 48  1  0
 22 49  1  0
 23 50  1  0
 23 51  1  0
 24 52  1  0
 24 53  1  0
 25 54  1  0
 25 55  1  0
 26 56  1  0
 26 57  1  0
 27 58  1  0
 27 59  1  0
 28 60  1  0
 28 61  1  0
 29 62  1  0
 35 63  1  0
M  CHG  1  21   1
M  END
>  <meeko>  (8) 
{"is_sidechain": [false], "free_energy": -8.417, "intermolecular_energy": -11.206, "internal_energy": -1.303}

$$$$
LIB_PUSXXXWMEJEPSR__M_PUB_ALL__e8__s20260927
     RDKit          3D

 63 66  0  0  0  0  0  0  0  0999 V2000
    6.6560  -13.9440   -1.3180 O   0  0  0  0  0  0  0  0  0  0  0  0
    7.2520  -13.0720   -1.9420 C   0  0  0  0  0  0  0  0  0  0  0  0
    6.6860  -12.0740   -2.7120 N   0  0  0  0  0  0  0  0  0  0  0  0
    5.3190  -11.9060   -3.0210 C   0  0  0  0  0  0  0  0  0  0  0  0
    4.9770  -11.8170   -4.3760 C   0  0  0  0  0  0  0  0  0  0  0  0
    3.6460  -11.6500   -4.7680 C   0  0  0  0  0  0  0  0  0  0  0  0
    2.6410  -11.5720   -3.8060 C   0  0  0  0  0  0  0  0  0  0  0  0
    2.9590  -11.6660   -2.4450 C   0  0  0  0  0  0  0  0  0  0  0  0
    1.8900  -11.5750   -1.3840 C   0  0  0  0  0  0  0  0  0  0  0  0
    1.0830  -10.4910   -1.5520 F   0  0  0  0  0  0  0  0  0  0  0  0
    1.0600  -12.6560   -1.3570 F   0  0  0  0  0  0  0  0  0  0  0  0
    2.4030  -11.4710   -0.1270 F   0  0  0  0  0  0  0  0  0  0  0  0
    4.3050  -11.8320   -2.0640 C   0  0  0  0  0  0  0  0  0  0  0  0
    8.7400  -13.0410   -1.8340 C   0  0  0  0  0  0  0  0  0  0  0  0
    9.4860  -13.4470   -2.9530 C   0  0  0  0  0  0  0  0  0  0  0  0
   10.8890  -13.4400   -2.9660 C   0  0  0  0  0  0  0  0  0  0  0  0
   11.6130  -13.8290   -4.0900 N   0  0  0  0  0  0  0  0  0  0  0  0
   11.1000  -14.8890   -4.9560 C   0  0  0  0  0  0  0  0  0  0  0  0
   11.6490  -14.7140   -6.3680 C   0  0  0  0  0  0  0  0  0  0  0  0
   13.1740  -14.7900   -6.3380 C   0  0  0  0  0  0  0  0  0  0  0  0
   13.8070  -14.3250   -7.6600 N   0  0  0  0  0  0  0  0  0  0  0  0
   14.6580  -15.3990   -8.3110 C   0  0  0  0  0  0  0  0  0  0  0  0
   15.4710  -14.7820   -9.4420 C   0  0  0  0  0  0  0  0  0  0  0  0
   14.5800  -14.0800  -10.4610 C   0  0  0  0  0  0  0  0  0  0  0  0
   13.6640  -13.0640   -9.7880 C   0  0  0  0  0  0  0  0  0  0  0  0
   12.8560  -13.6940   -8.6600 C   0  0  0  0  0  0  0  0  0  0  0  0
   13.8170  -14.0770   -5.1440 C   0  0  0  0  0  0  0  0  0  0  0  0
   12.8520  -13.1330   -4.4350 C   0  0  0  0  0  0  0  0  0  0  0  0
   11.5220  -13.0080   -1.7910 C   0  0  0  0  0  0  0  0  0  0  0  0
   10.8030  -12.5850   -0.6540 C   0  0  0  0  0  0  0  0  0  0  0  0
   11.5400  -12.0830    0.5640 C   0  0  0  0  0  0  0  0  0  0  0  0
   12.0610  -10.8380    0.3890 F   0  0  0  0  0  0  0  0  0  0  0  0
   10.7420  -12.0040    1.6650 F   0  0  0  0  0  0  0  0  0  0  0  0
   12.5790  -12.8880    0.9060 F   0  0  0  0  0  0  0  0  0  0  0  0
    9.4020  -12.5910   -0.6910 C   0  0  0  0  0  0  0  0  0  0  0  0
    7.2990  -11.3520   -3.0690 H   0  0  0  0  0  0  0  0  0  0  0  0
    5.7652  -11.8793   -5.1408 H   0  0  0  0  0  0  0  0  0  0  0  0
    3.3918  -11.5801   -5.8359 H   0  0  0  0  0  0  0  0  0  0  0  0
    1.5945  -11.4362   -4.1163 H   0  0  0  0  0  0  0  0  0  0  0  0
    4.5610  -11.9044   -0.9967 H   0  0  0  0  0  0  0  0  0  0  0  0
    8.9500  -13.7830   -3.8529 H   0  0  0  0  0  0  0  0  0  0  0  0
   11.4132  -15.8667   -4.5611 H   0  0  0  0  0  0  0  0  0  0  0  0
   10.0017  -14.8350   -4.9842 H   0  0  0  0  0  0  0  0  0  0  0  0
   11.2554  -15.5116   -7.0152 H   0  0  0  0  0  0  0  0  0  0  0  0
   11.3398  -13.7343   -6.7613 H   0  0  0  0  0  0  0  0  0  0  0  0
   13.3929  -15.8600   -6.2070 H   0  0  0  0  0  0  0  0  0  0  0  0
   14.4670  -13.5830   -7.3880 H   0  0  0  0  0  0  0  0  0  0  0  0
   15.3387  -15.8317   -7.5631 H   0  0  0  0  0  0  0  0  0  0  0  0
   14.0080  -16.1897   -8.7139 H   0  0  0  0  0  0  0  0  0  0  0  0
   16.1727  -14.0489   -9.0175 H   0  0  0  0  0  0  0  0  0  0  0  0
   16.0091  -15.5910   -9.9576 H   0  0  0  0  0  0  0  0  0  0  0  0
   15.2144  -13.5603  -11.1941 H   0  0  0  0  0  0  0  0  0  0  0  0
   13.9545  -14.8375  -10.9559 H   0  0  0  0  0  0  0  0  0  0  0  0
   14.2774  -12.2495   -9.3753 H   0  0  0  0  0  0  0  0  0  0  0  0
   12.9602  -12.6838  -10.5431 H   0  0  0  0  0  0  0  0  0  0  0  0
   12.2561  -12.9196   -8.1597 H   0  0  0  0  0  0  0  0  0  0  0  0
   12.1852  -14.4635   -9.0698 H   0  0  0  0  0  0  0  0  0  0  0  0
   14.1607  -14.8348   -4.4246 H   0  0  0  0  0  0  0  0  0  0  0  0
   14.6524  -13.4728   -5.5274 H   0  0  0  0  0  0  0  0  0  0  0  0
   13.3239  -12.7572   -3.5152 H   0  0  0  0  0  0  0  0  0  0  0  0
   12.6138  -12.2968   -5.1089 H   0  0  0  0  0  0  0  0  0  0  0  0
   12.6214  -12.9989   -1.7552 H   0  0  0  0  0  0  0  0  0  0  0  0
    8.8258  -12.2419    0.1786 H   0  0  0  0  0  0  0  0  0  0  0  0
  1  2  2  0
  2  3  1  0
  3  4  1  0
  4  5  2  0
  5  6  1  0
  6  7  2  0
  7  8  1  0
  8  9  1  0
  9 10  1  0
  9 11  1  0
  9 12  1  0
  8 13  2  0
  2 14  1  0
 14 15  2  0
 15 16  1  0
 16 17  1  0
 17 18  1  0
 18 19  1  0
 19 20  1  0
 20 21  1  0
 21 22  1  0
 22 23  1  0
 23 24  1  0
 24 25  1  0
 25 26  1  0
 20 27  1  0
 27 28  1  0
 16 29  2  0
 29 30  1  0
 30 31  1  0
 31 32  1  0
 31 33  1  0
 31 34  1  0
 30 35  2  0
 13  4  1  0
 35 14  1  0
 28 17  1  0
 26 21  1  0
  3 36  1  0
  5 37  1  0
  6 38  1  0
  7 39  1  0
 13 40  1  0
 15 41  1  0
 18 42  1  0
 18 43  1  0
 19 44  1  0
 19 45  1  0
 20 46  1  0
 21 47  1  0
 22 48  1  0
 22 49  1  0
 23 50  1  0
 23 51  1  0
 24 52  1  0
 24 53  1  0
 25 54  1  0
 25 55  1  0
 26 56  1  0
 26 57  1  0
 27 58  1  0
 27 59  1  0
 28 60  1  0
 28 61  1  0
 29 62  1  0
 35 63  1  0
M  CHG  1  21   1
M  END
>  <meeko>  (9) 
{"is_sidechain": [false], "free_energy": -8.319, "intermolecular_energy": -11.247, "internal_energy": -1.129}

$$$$
