LIB_FIENVLBRUWEWDS__M_PUB_ALL__e8__s20260927
     RDKit          3D

 71 76  0  0  0  0  0  0  0  0999 V2000
    6.9810  -13.8860   -7.6620 C   0  0  0  0  0  0  0  0  0  0  0  0
    6.3410  -13.0980   -6.5600 N   0  0  0  0  0  0  0  0  0  0  0  0
    4.9230  -12.6600   -6.9160 C   0  0  0  0  0  0  0  0  0  0  0  0
    4.3300  -11.7810   -5.7980 C   0  0  0  0  0  0  0  0  0  0  0  0
    4.4310  -12.4490   -4.4920 N   0  0  0  0  0  0  0  0  0  0  0  0
    3.5720  -12.0740   -3.4610 C   0  0  0  0  0  0  0  0  0  0  0  0
    3.4530  -12.8620   -2.3070 C   0  0  0  0  0  0  0  0  0  0  0  0
    2.5920  -12.5130   -1.2570 C   0  0  0  0  0  0  0  0  0  0  0  0
    1.8080  -11.3610   -1.3290 C   0  0  0  0  0  0  0  0  0  0  0  0
    0.9180  -10.9740   -0.2460 C   0  0  0  0  0  0  0  0  0  0  0  0
    0.8640   -9.7680    0.4850 C   0  0  0  0  0  0  0  0  0  0  0  0
   -0.0920   -9.7510    1.4110 N   0  0  0  0  0  0  0  0  0  0  0  0
   -0.6960  -10.9720    1.2930 N   0  0  0  0  0  0  0  0  0  0  0  0
   -1.7890  -11.4540    2.0650 C   0  0  0  0  0  0  0  0  0  0  0  0
   -2.2740  -10.6090    3.0440 N   0  0  0  0  0  0  0  0  0  0  0  0
   -2.2600  -12.6930    1.8000 C   0  0  0  0  0  0  0  0  0  0  0  0
   -3.3770  -13.3280    2.5100 C   0  0  0  0  0  0  0  0  0  0  0  0
   -4.6320  -12.7130    2.5430 C   0  0  0  0  0  0  0  0  0  0  0  0
   -5.6980  -13.3040    3.2310 C   0  0  0  0  0  0  0  0  0  0  0  0
   -5.5280  -14.5180    3.8980 C   0  0  0  0  0  0  0  0  0  0  0  0
   -6.5530  -15.1780    4.6080 N   0  0  0  0  0  0  0  0  0  0  0  0
   -7.0020  -14.8930    5.8860 C   0  0  0  0  0  0  0  0  0  0  0  0
   -6.5300  -14.0740    6.6650 O   0  0  0  0  0  0  0  0  0  0  0  0
   -8.1530  -15.7200    6.3470 C   0  0  0  0  0  0  0  0  0  0  0  0
   -8.4920  -15.8220    7.7010 C   0  0  0  0  0  0  0  0  0  0  0  0
   -9.5780  -16.6140    8.0920 C   0  0  0  0  0  0  0  0  0  0  0  0
  -10.3270  -17.3230    7.1390 C   0  0  0  0  0  0  0  0  0  0  0  0
  -11.5120  -18.1600    7.5640 C   0  0  0  0  0  0  0  0  0  0  0  0
  -11.2360  -18.9730    8.6190 F   0  0  0  0  0  0  0  0  0  0  0  0
  -11.9770  -18.9730    6.5760 F   0  0  0  0  0  0  0  0  0  0  0  0
  -12.5680  -17.3920    7.9480 F   0  0  0  0  0  0  0  0  0  0  0  0
   -9.9740  -17.2210    5.7840 C   0  0  0  0  0  0  0  0  0  0  0  0
   -8.8880  -16.4320    5.3930 C   0  0  0  0  0  0  0  0  0  0  0  0
   -4.2730  -15.1370    3.8600 C   0  0  0  0  0  0  0  0  0  0  0  0
   -3.2050  -14.5470    3.1750 C   0  0  0  0  0  0  0  0  0  0  0  0
   -1.5540  -13.4280    0.7030 C   0  0  0  0  0  0  0  0  0  0  0  0
   -0.5520  -13.0060   -0.0060 N   0  0  0  0  0  0  0  0  0  0  0  0
   -0.1000  -11.7470    0.2880 C   0  0  0  0  0  0  0  0  0  0  0  0
    1.9100  -10.5660   -2.4750 C   0  0  0  0  0  0  0  0  0  0  0  0
    2.7740  -10.9230   -3.5230 C   0  0  0  0  0  0  0  0  0  0  0  0
    5.7490  -12.9880   -4.1100 C   0  0  0  0  0  0  0  0  0  0  0  0
    6.3400  -13.8570   -5.2370 C   0  0  0  0  0  0  0  0  0  0  0  0
    7.6185  -14.6709   -7.2290 H   0  0  0  0  0  0  0  0  0  0  0  0
    6.2000  -14.3490   -8.2830 H   0  0  0  0  0  0  0  0  0  0  0  0
    7.5943  -13.2166   -8.2830 H   0  0  0  0  0  0  0  0  0  0  0  0
    6.8970  -12.2450   -6.4190 H   0  0  0  0  0  0  0  0  0  0  0  0
    4.9469  -12.0851   -7.8535 H   0  0  0  0  0  0  0  0  0  0  0  0
    4.2946  -13.5550   -7.0343 H   0  0  0  0  0  0  0  0  0  0  0  0
    4.8804  -10.8294   -5.7587 H   0  0  0  0  0  0  0  0  0  0  0  0
    3.2672  -11.6031   -6.0190 H   0  0  0  0  0  0  0  0  0  0  0  0
    4.0525  -13.7805   -2.2233 H   0  0  0  0  0  0  0  0  0  0  0  0
    2.5338  -13.1551   -0.3657 H   0  0  0  0  0  0  0  0  0  0  0  0
    1.5461   -8.9236    0.3067 H   0  0  0  0  0  0  0  0  0  0  0  0
   -3.0920  -10.9200    3.5660 H   0  0  0  0  0  0  0  0  0  0  0  0
   -1.9200   -9.6670    3.1500 H   0  0  0  0  0  0  0  0  0  0  0  0
   -4.7832  -11.7554    2.0233 H   0  0  0  0  0  0  0  0  0  0  0  0
   -6.6791  -12.8069    3.2461 H   0  0  0  0  0  0  0  0  0  0  0  0
   -6.9680  -15.9740    4.1430 H   0  0  0  0  0  0  0  0  0  0  0  0
   -7.9054  -15.2801    8.4575 H   0  0  0  0  0  0  0  0  0  0  0  0
   -9.8473  -16.6816    9.1564 H   0  0  0  0  0  0  0  0  0  0  0  0
  -10.5555  -17.7652    5.0252 H   0  0  0  0  0  0  0  0  0  0  0  0
   -8.6102  -16.3708    4.3304 H   0  0  0  0  0  0  0  0  0  0  0  0
   -4.1248  -16.0980    4.3744 H   0  0  0  0  0  0  0  0  0  0  0  0
   -2.2241  -15.0446    3.1592 H   0  0  0  0  0  0  0  0  0  0  0  0
   -1.9257  -14.4373    0.4724 H   0  0  0  0  0  0  0  0  0  0  0  0
    1.3063   -9.6501   -2.5565 H   0  0  0  0  0  0  0  0  0  0  0  0
    2.8260  -10.2827   -4.4159 H   0  0  0  0  0  0  0  0  0  0  0  0
    6.4334  -12.1517   -3.9045 H   0  0  0  0  0  0  0  0  0  0  0  0
    5.6244  -13.6143   -3.2143 H   0  0  0  0  0  0  0  0  0  0  0  0
    7.3732  -14.1311   -4.9774 H   0  0  0  0  0  0  0  0  0  0  0  0
    5.7216  -14.7599   -5.3482 H   0  0  0  0  0  0  0  0  0  0  0  0
  1  2  1  0
  2  3  1  0
  3  4  1  0
  4  5  1  0
  5  6  1  0
  6  7  2  0
  7  8  1  0
  8  9  2  0
  9 10  1  0
 10 11  1  0
 11 12  2  0
 12 13  1  0
 13 14  1  0
 14 15  1  0
 14 16  2  0
 16 17  1  0
 17 18  2  0
 18 19  1  0
 19 20  2  0
 20 21  1  0
 21 22  1  0
 22 23  2  0
 22 24  1  0
 24 25  2  0
 25 26  1  0
 26 27  2  0
 27 28  1  0
 28 29  1  0
 28 30  1  0
 28 31  1  0
 27 32  1  0
 32 33  2  0
 20 34  1  0
 34 35  2  0
 16 36  1  0
 36 37  2  0
 37 38  1  0
  9 39  1  0
 39 40  2  0
  5 41  1  0
 41 42  1  0
 42  2  1  0
 40  6  1  0
 38 10  2  0
 38 13  1  0
 35 17  1  0
 33 24  1  0
  1 43  1  0
  1 44  1  0
  1 45  1  0
  2 46  1  0
  3 47  1  0
  3 48  1  0
  4 49  1  0
  4 50  1  0
  7 51  1  0
  8 52  1  0
 11 53  1  0
 15 54  1  0
 15 55  1  0
 18 56  1  0
 19 57  1  0
 21 58  1  0
 25 59  1  0
 26 60  1  0
 32 61  1  0
 33 62  1  0
 34 63  1  0
 35 64  1  0
 36 65  1  0
 39 66  1  0
 40 67  1  0
 41 68  1  0
 41 69  1  0
 42 70  1  0
 42 71  1  0
M  CHG  1   2   1
M  END
>  <meeko>  (1) 
{"is_sidechain": [false], "free_energy": -9.831, "intermolecular_energy": -13.567, "internal_energy": -0.892}

$$$$
LIB_FIENVLBRUWEWDS__M_PUB_ALL__e8__s20260927
     RDKit          3D

 71 76  0  0  0  0  0  0  0  0999 V2000
   -1.2420  -20.4190   10.2360 C   0  0  0  0  0  0  0  0  0  0  0  0
   -1.5320  -19.4530    9.1290 N   0  0  0  0  0  0  0  0  0  0  0  0
   -1.3930  -18.0020    9.5810 C   0  0  0  0  0  0  0  0  0  0  0  0
   -1.7820  -17.0380    8.4420 C   0  0  0  0  0  0  0  0  0  0  0  0
   -1.0370  -17.3470    7.2120 N   0  0  0  0  0  0  0  0  0  0  0  0
   -0.8750  -16.3600    6.2420 C   0  0  0  0  0  0  0  0  0  0  0  0
   -1.6780  -16.3490    5.0930 C   0  0  0  0  0  0  0  0  0  0  0  0
   -1.5320  -15.3720    4.0970 C   0  0  0  0  0  0  0  0  0  0  0  0
   -0.5670  -14.3710    4.2140 C   0  0  0  0  0  0  0  0  0  0  0  0
   -0.4080  -13.3420    3.2000 C   0  0  0  0  0  0  0  0  0  0  0  0
   -0.9450  -12.0380    3.1520 C   0  0  0  0  0  0  0  0  0  0  0  0
   -0.5850  -11.3540    2.0690 N   0  0  0  0  0  0  0  0  0  0  0  0
    0.2190  -12.2190    1.3770 N   0  0  0  0  0  0  0  0  0  0  0  0
    0.8660  -11.9650    0.1360 C   0  0  0  0  0  0  0  0  0  0  0  0
    0.6430  -10.7270   -0.4340 N   0  0  0  0  0  0  0  0  0  0  0  0
    1.6310  -12.9450   -0.3950 C   0  0  0  0  0  0  0  0  0  0  0  0
    2.3580  -12.8340   -1.6660 C   0  0  0  0  0  0  0  0  0  0  0  0
    1.7770  -13.2930   -2.8520 C   0  0  0  0  0  0  0  0  0  0  0  0
    2.4700  -13.2060   -4.0650 C   0  0  0  0  0  0  0  0  0  0  0  0
    3.7540  -12.6610   -4.1140 C   0  0  0  0  0  0  0  0  0  0  0  0
    4.5130  -12.5340   -5.2960 N   0  0  0  0  0  0  0  0  0  0  0  0
    5.2370  -13.5260   -5.9350 C   0  0  0  0  0  0  0  0  0  0  0  0
    5.4220  -14.6700   -5.5400 O   0  0  0  0  0  0  0  0  0  0  0  0
    5.8830  -13.1090   -7.2120 C   0  0  0  0  0  0  0  0  0  0  0  0
    5.7380  -11.8130   -7.7230 C   0  0  0  0  0  0  0  0  0  0  0  0
    6.3570  -11.4640   -8.9280 C   0  0  0  0  0  0  0  0  0  0  0  0
    7.1140  -12.4060   -9.6440 C   0  0  0  0  0  0  0  0  0  0  0  0
    7.7990  -12.0180  -10.9340 C   0  0  0  0  0  0  0  0  0  0  0  0
    7.6040  -12.9230  -11.9310 F   0  0  0  0  0  0  0  0  0  0  0  0
    9.1480  -11.8870  -10.8060 F   0  0  0  0  0  0  0  0  0  0  0  0
    7.3480  -10.8270  -11.4140 F   0  0  0  0  0  0  0  0  0  0  0  0
    7.2470  -13.7050   -9.1270 C   0  0  0  0  0  0  0  0  0  0  0  0
    6.6270  -14.0550   -7.9240 C   0  0  0  0  0  0  0  0  0  0  0  0
    4.3330  -12.1960   -2.9270 C   0  0  0  0  0  0  0  0  0  0  0  0
    3.6440  -12.2840   -1.7120 C   0  0  0  0  0  0  0  0  0  0  0  0
    1.7020  -14.2100    0.4020 C   0  0  0  0  0  0  0  0  0  0  0  0
    1.1120  -14.4600    1.5320 N   0  0  0  0  0  0  0  0  0  0  0  0
    0.3460  -13.4470    2.0420 C   0  0  0  0  0  0  0  0  0  0  0  0
    0.2460  -14.3710    5.3510 C   0  0  0  0  0  0  0  0  0  0  0  0
    0.0950  -15.3530    6.3430 C   0  0  0  0  0  0  0  0  0  0  0  0
   -1.0400  -18.7490    6.7560 C   0  0  0  0  0  0  0  0  0  0  0  0
   -0.6600  -19.7060    7.9020 C   0  0  0  0  0  0  0  0  0  0  0  0
   -1.3914  -19.9213   11.2055 H   0  0  0  0  0  0  0  0  0  0  0  0
   -1.9210  -21.2809   10.1578 H   0  0  0  0  0  0  0  0  0  0  0  0
   -0.2006  -20.7644   10.1578 H   0  0  0  0  0  0  0  0  0  0  0  0
   -2.5090  -19.5890    8.8390 H   0  0  0  0  0  0  0  0  0  0  0  0
   -2.0531  -17.8274   10.4434 H   0  0  0  0  0  0  0  0  0  0  0  0
   -0.3451  -17.8166    9.8595 H   0  0  0  0  0  0  0  0  0  0  0  0
   -2.8597  -17.1326    8.2431 H   0  0  0  0  0  0  0  0  0  0  0  0
   -1.5358  -16.0118    8.7522 H   0  0  0  0  0  0  0  0  0  0  0  0
   -2.4442  -17.1285    4.9689 H   0  0  0  0  0  0  0  0  0  0  0  0
   -2.1862  -15.3953    3.2130 H   0  0  0  0  0  0  0  0  0  0  0  0
   -1.5987  -11.6263    3.9350 H   0  0  0  0  0  0  0  0  0  0  0  0
    0.0780  -10.0650    0.0950 H   0  0  0  0  0  0  0  0  0  0  0  0
    0.9130  -10.5300   -1.3890 H   0  0  0  0  0  0  0  0  0  0  0  0
    0.7662  -13.7264   -2.8316 H   0  0  0  0  0  0  0  0  0  0  0  0
    1.9979  -13.5709   -4.9891 H   0  0  0  0  0  0  0  0  0  0  0  0
    4.5650  -11.6040   -5.6880 H   0  0  0  0  0  0  0  0  0  0  0  0
    5.1378  -11.0701   -7.1772 H   0  0  0  0  0  0  0  0  0  0  0  0
    6.2498  -10.4414   -9.3188 H   0  0  0  0  0  0  0  0  0  0  0  0
    7.8429  -14.4518   -9.6722 H   0  0  0  0  0  0  0  0  0  0  0  0
    6.7249  -15.0795   -7.5356 H   0  0  0  0  0  0  0  0  0  0  0  0
    5.3411  -11.7564   -2.9497 H   0  0  0  0  0  0  0  0  0  0  0  0
    4.1160  -11.9188   -0.7880 H   0  0  0  0  0  0  0  0  0  0  0  0
    2.3222  -15.0170   -0.0152 H   0  0  0  0  0  0  0  0  0  0  0  0
    1.0135  -13.5921    5.4700 H   0  0  0  0  0  0  0  0  0  0  0  0
    0.7552  -15.3316    7.2226 H   0  0  0  0  0  0  0  0  0  0  0  0
   -2.0456  -19.0061    6.3918 H   0  0  0  0  0  0  0  0  0  0  0  0
   -0.2980  -18.8561    5.9510 H   0  0  0  0  0  0  0  0  0  0  0  0
   -0.8009  -20.7442    7.5669 H   0  0  0  0  0  0  0  0  0  0  0  0
    0.3915  -19.5316    8.1739 H   0  0  0  0  0  0  0  0  0  0  0  0
  1  2  1  0
  2  3  1  0
  3  4  1  0
  4  5  1  0
  5  6  1  0
  6  7  2  0
  7  8  1  0
  8  9  2  0
  9 10  1  0
 10 11  1  0
 11 12  2  0
 12 13  1  0
 13 14  1  0
 14 15  1  0
 14 16  2  0
 16 17  1  0
 17 18  2  0
 18 19  1  0
 19 20  2  0
 20 21  1  0
 21 22  1  0
 22 23  2  0
 22 24  1  0
 24 25  2  0
 25 26  1  0
 26 27  2  0
 27 28  1  0
 28 29  1  0
 28 30  1  0
 28 31  1  0
 27 32  1  0
 32 33  2  0
 20 34  1  0
 34 35  2  0
 16 36  1  0
 36 37  2  0
 37 38  1  0
  9 39  1  0
 39 40  2  0
  5 41  1  0
 41 42  1  0
 42  2  1  0
 40  6  1  0
 38 10  2  0
 38 13  1  0
 35 17  1  0
 33 24  1  0
  1 43  1  0
  1 44  1  0
  1 45  1  0
  2 46  1  0
  3 47  1  0
  3 48  1  0
  4 49  1  0
  4 50  1  0
  7 51  1  0
  8 52  1  0
 11 53  1  0
 15 54  1  0
 15 55  1  0
 18 56  1  0
 19 57  1  0
 21 58  1  0
 25 59  1  0
 26 60  1  0
 32 61  1  0
 33 62  1  0
 34 63  1  0
 35 64  1  0
 36 65  1  0
 39 66  1  0
 40 67  1  0
 41 68  1  0
 41 69  1  0
 42 70  1  0
 42 71  1  0
M  CHG  1   2   1
M  END
>  <meeko>  (2) 
{"is_sidechain": [false], "free_energy": -9.202, "intermolecular_energy": -12.428, "internal_energy": -1.164}

$$$$
LIB_FIENVLBRUWEWDS__M_PUB_ALL__e8__s20260927
     RDKit          3D

 71 76  0  0  0  0  0  0  0  0999 V2000
   12.8080  -11.1180   -0.1330 C   0  0  0  0  0  0  0  0  0  0  0  0
   11.3640  -11.4380   -0.3670 N   0  0  0  0  0  0  0  0  0  0  0  0
   11.1790  -12.5230   -1.4250 C   0  0  0  0  0  0  0  0  0  0  0  0
    9.6820  -12.7640   -1.7000 C   0  0  0  0  0  0  0  0  0  0  0  0
    8.9520  -13.0280   -0.4510 N   0  0  0  0  0  0  0  0  0  0  0  0
    7.7400  -13.7150   -0.4970 C   0  0  0  0  0  0  0  0  0  0  0  0
    6.5520  -13.0460   -0.8230 C   0  0  0  0  0  0  0  0  0  0  0  0
    5.3170  -13.7090   -0.8700 C   0  0  0  0  0  0  0  0  0  0  0  0
    5.2280  -15.0720   -0.5840 C   0  0  0  0  0  0  0  0  0  0  0  0
    3.9600  -15.7820   -0.6400 C   0  0  0  0  0  0  0  0  0  0  0  0
    3.5350  -16.7930   -1.5280 C   0  0  0  0  0  0  0  0  0  0  0  0
    2.3020  -17.2310   -1.2840 N   0  0  0  0  0  0  0  0  0  0  0  0
    1.8940  -16.5000   -0.2020 N   0  0  0  0  0  0  0  0  0  0  0  0
    0.6360  -16.5910    0.4550 C   0  0  0  0  0  0  0  0  0  0  0  0
   -0.2690  -17.4950   -0.0660 N   0  0  0  0  0  0  0  0  0  0  0  0
    0.4130  -15.7870    1.5190 C   0  0  0  0  0  0  0  0  0  0  0  0
   -0.8320  -15.7640    2.2970 C   0  0  0  0  0  0  0  0  0  0  0  0
   -1.8400  -14.8480    1.9840 C   0  0  0  0  0  0  0  0  0  0  0  0
   -3.0240  -14.8090    2.7310 C   0  0  0  0  0  0  0  0  0  0  0  0
   -3.2190  -15.6810    3.8020 C   0  0  0  0  0  0  0  0  0  0  0  0
   -4.3830  -15.7060    4.5980 N   0  0  0  0  0  0  0  0  0  0  0  0
   -5.5160  -14.9250    4.4470 C   0  0  0  0  0  0  0  0  0  0  0  0
   -5.6750  -14.0090    3.6490 O   0  0  0  0  0  0  0  0  0  0  0  0
   -6.6200  -15.2280    5.4010 C   0  0  0  0  0  0  0  0  0  0  0  0
   -6.5580  -14.8450    6.7460 C   0  0  0  0  0  0  0  0  0  0  0  0
   -7.6150  -15.1540    7.6090 C   0  0  0  0  0  0  0  0  0  0  0  0
   -8.7370  -15.8600    7.1450 C   0  0  0  0  0  0  0  0  0  0  0  0
   -9.8860  -16.1710    8.0770 C   0  0  0  0  0  0  0  0  0  0  0  0
  -10.8170  -16.9890    7.5150 F   0  0  0  0  0  0  0  0  0  0  0  0
  -10.5600  -15.0620    8.4870 F   0  0  0  0  0  0  0  0  0  0  0  0
   -9.4690  -16.8000    9.2110 F   0  0  0  0  0  0  0  0  0  0  0  0
   -8.7860  -16.2460    5.7970 C   0  0  0  0  0  0  0  0  0  0  0  0
   -7.7290  -15.9400    4.9330 C   0  0  0  0  0  0  0  0  0  0  0  0
   -2.2110  -16.6020    4.1120 C   0  0  0  0  0  0  0  0  0  0  0  0
   -1.0260  -16.6430    3.3690 C   0  0  0  0  0  0  0  0  0  0  0  0
    1.5420  -14.8740    1.8830 C   0  0  0  0  0  0  0  0  0  0  0  0
    2.6930  -14.7740    1.2900 N   0  0  0  0  0  0  0  0  0  0  0  0
    2.8860  -15.6020    0.2170 C   0  0  0  0  0  0  0  0  0  0  0  0
    6.4020  -15.7540   -0.2520 C   0  0  0  0  0  0  0  0  0  0  0  0
    7.6340  -15.0820   -0.2050 C   0  0  0  0  0  0  0  0  0  0  0  0
    9.1480  -12.0780    0.6580 C   0  0  0  0  0  0  0  0  0  0  0  0
   10.6470  -11.8350    0.9210 C   0  0  0  0  0  0  0  0  0  0  0  0
   13.0034  -11.0747    0.9486 H   0  0  0  0  0  0  0  0  0  0  0  0
   13.4350  -11.8990   -0.5879 H   0  0  0  0  0  0  0  0  0  0  0  0
   13.0464  -10.1452   -0.5879 H   0  0  0  0  0  0  0  0  0  0  0  0
   10.9050  -10.5890   -0.7190 H   0  0  0  0  0  0  0  0  0  0  0  0
   11.6712  -12.2070   -2.3566 H   0  0  0  0  0  0  0  0  0  0  0  0
   11.6263  -13.4577   -1.0559 H   0  0  0  0  0  0  0  0  0  0  0  0
    9.2570  -11.8719   -2.1833 H   0  0  0  0  0  0  0  0  0  0  0  0
    9.5832  -13.6417   -2.3556 H   0  0  0  0  0  0  0  0  0  0  0  0
    6.5895  -11.9700   -1.0484 H   0  0  0  0  0  0  0  0  0  0  0  0
    4.4085  -13.1484   -1.1352 H   0  0  0  0  0  0  0  0  0  0  0  0
    4.1624  -17.1818   -2.3436 H   0  0  0  0  0  0  0  0  0  0  0  0
    0.0380  -18.0580   -0.8570 H   0  0  0  0  0  0  0  0  0  0  0  0
   -1.2360  -17.5060    0.2340 H   0  0  0  0  0  0  0  0  0  0  0  0
   -1.7023  -14.1517    1.1437 H   0  0  0  0  0  0  0  0  0  0  0  0
   -3.8083  -14.0831    2.4704 H   0  0  0  0  0  0  0  0  0  0  0  0
   -4.3620  -16.3340    5.3900 H   0  0  0  0  0  0  0  0  0  0  0  0
   -5.6793  -14.3018    7.1239 H   0  0  0  0  0  0  0  0  0  0  0  0
   -7.5668  -14.8406    8.6623 H   0  0  0  0  0  0  0  0  0  0  0  0
   -9.6614  -16.7929    5.4169 H   0  0  0  0  0  0  0  0  0  0  0  0
   -7.7704  -16.2607    3.8816 H   0  0  0  0  0  0  0  0  0  0  0  0
   -2.3523  -17.3013    4.9492 H   0  0  0  0  0  0  0  0  0  0  0  0
   -0.2425  -17.3701    3.6288 H   0  0  0  0  0  0  0  0  0  0  0  0
    1.3786  -14.2149    2.7484 H   0  0  0  0  0  0  0  0  0  0  0  0
    6.3603  -16.8295   -0.0249 H   0  0  0  0  0  0  0  0  0  0  0  0
    8.5399  -15.6430    0.0682 H   0  0  0  0  0  0  0  0  0  0  0  0
    8.6686  -11.1219    0.4012 H   0  0  0  0  0  0  0  0  0  0  0  0
    8.6980  -12.5039    1.5669 H   0  0  0  0  0  0  0  0  0  0  0  0
   10.7576  -11.0272    1.6594 H   0  0  0  0  0  0  0  0  0  0  0  0
   11.0942  -12.7649    1.3022 H   0  0  0  0  0  0  0  0  0  0  0  0
  1  2  1  0
  2  3  1  0
  3  4  1  0
  4  5  1  0
  5  6  1  0
  6  7  2  0
  7  8  1  0
  8  9  2  0
  9 10  1  0
 10 11  1  0
 11 12  2  0
 12 13  1  0
 13 14  1  0
 14 15  1  0
 14 16  2  0
 16 17  1  0
 17 18  2  0
 18 19  1  0
 19 20  2  0
 20 21  1  0
 21 22  1  0
 22 23  2  0
 22 24  1  0
 24 25  2  0
 25 26  1  0
 26 27  2  0
 27 28  1  0
 28 29  1  0
 28 30  1  0
 28 31  1  0
 27 32  1  0
 32 33  2  0
 20 34  1  0
 34 35  2  0
 16 36  1  0
 36 37  2  0
 37 38  1  0
  9 39  1  0
 39 40  2  0
  5 41  1  0
 41 42  1  0
 42  2  1  0
 40  6  1  0
 38 10  2  0
 38 13  1  0
 35 17  1  0
 33 24  1  0
  1 43  1  0
  1 44  1  0
  1 45  1  0
  2 46  1  0
  3 47  1  0
  3 48  1  0
  4 49  1  0
  4 50  1  0
  7 51  1  0
  8 52  1  0
 11 53  1  0
 15 54  1  0
 15 55  1  0
 18 56  1  0
 19 57  1  0
 21 58  1  0
 25 59  1  0
 26 60  1  0
 32 61  1  0
 33 62  1  0
 34 63  1  0
 35 64  1  0
 36 65  1  0
 39 66  1  0
 40 67  1  0
 41 68  1  0
 41 69  1  0
 42 70  1  0
 42 71  1  0
M  CHG  1   2   1
M  END
>  <meeko>  (3) 
{"is_sidechain": [false], "free_energy": -9.177, "intermolecular_energy": -12.905, "internal_energy": -0.651}

$$$$
LIB_FIENVLBRUWEWDS__M_PUB_ALL__e8__s20260927
     RDKit          3D

 71 76  0  0  0  0  0  0  0  0999 V2000
   15.8680  -17.4500  -13.2170 C   0  0  0  0  0  0  0  0  0  0  0  0
   15.8090  -16.9890  -11.7930 N   0  0  0  0  0  0  0  0  0  0  0  0
   15.6990  -15.4710  -11.6850 C   0  0  0  0  0  0  0  0  0  0  0  0
   15.7270  -15.0280  -10.2090 C   0  0  0  0  0  0  0  0  0  0  0  0
   14.7170  -15.7500   -9.4220 N   0  0  0  0  0  0  0  0  0  0  0  0
   14.2540  -15.2000   -8.2280 C   0  0  0  0  0  0  0  0  0  0  0  0
   14.9340  -15.4290   -7.0240 C   0  0  0  0  0  0  0  0  0  0  0  0
   14.4880  -14.8940   -5.8070 C   0  0  0  0  0  0  0  0  0  0  0  0
   13.3350  -14.1110   -5.7520 C   0  0  0  0  0  0  0  0  0  0  0  0
   12.8620  -13.5360   -4.5030 C   0  0  0  0  0  0  0  0  0  0  0  0
   13.5960  -12.9590   -3.4460 C   0  0  0  0  0  0  0  0  0  0  0  0
   12.8340  -12.5190   -2.4470 N   0  0  0  0  0  0  0  0  0  0  0  0
   11.5580  -12.8030   -2.8490 N   0  0  0  0  0  0  0  0  0  0  0  0
   10.3630  -12.5280   -2.1280 C   0  0  0  0  0  0  0  0  0  0  0  0
   10.5110  -11.9330   -0.8900 N   0  0  0  0  0  0  0  0  0  0  0  0
    9.1840  -12.8780   -2.6910 C   0  0  0  0  0  0  0  0  0  0  0  0
    7.8710  -12.6630   -2.0720 C   0  0  0  0  0  0  0  0  0  0  0  0
    7.1690  -11.4760   -2.3020 C   0  0  0  0  0  0  0  0  0  0  0  0
    5.9220  -11.2580   -1.7030 C   0  0  0  0  0  0  0  0  0  0  0  0
    5.3580  -12.2190   -0.8630 C   0  0  0  0  0  0  0  0  0  0  0  0
    4.1070  -12.0750   -0.2270 N   0  0  0  0  0  0  0  0  0  0  0  0
    2.8560  -12.2190   -0.8010 C   0  0  0  0  0  0  0  0  0  0  0  0
    2.6090  -12.4100   -1.9860 O   0  0  0  0  0  0  0  0  0  0  0  0
    1.7120  -12.0760    0.1420 C   0  0  0  0  0  0  0  0  0  0  0  0
    1.1970  -13.1690    0.8500 C   0  0  0  0  0  0  0  0  0  0  0  0
    0.1180  -12.9920    1.7220 C   0  0  0  0  0  0  0  0  0  0  0  0
   -0.4700  -11.7270    1.8870 C   0  0  0  0  0  0  0  0  0  0  0  0
   -1.6220  -11.5370    2.8470 C   0  0  0  0  0  0  0  0  0  0  0  0
   -2.3180  -12.6840    3.0730 F   0  0  0  0  0  0  0  0  0  0  0  0
   -2.5350  -10.6240    2.4150 F   0  0  0  0  0  0  0  0  0  0  0  0
   -1.2040  -11.1040    4.0680 F   0  0  0  0  0  0  0  0  0  0  0  0
    0.0470  -10.6390    1.1670 C   0  0  0  0  0  0  0  0  0  0  0  0
    1.1250  -10.8150    0.2940 C   0  0  0  0  0  0  0  0  0  0  0  0
    6.0590  -13.4100   -0.6370 C   0  0  0  0  0  0  0  0  0  0  0  0
    7.3060  -13.6310   -1.2330 C   0  0  0  0  0  0  0  0  0  0  0  0
    9.2820  -13.5320   -4.0340 C   0  0  0  0  0  0  0  0  0  0  0  0
   10.3640  -13.7950   -4.7020 N   0  0  0  0  0  0  0  0  0  0  0  0
   11.5400  -13.4280   -4.1040 C   0  0  0  0  0  0  0  0  0  0  0  0
   12.6410  -13.8760   -6.9420 C   0  0  0  0  0  0  0  0  0  0  0  0
   13.0930  -14.4170   -8.1570 C   0  0  0  0  0  0  0  0  0  0  0  0
   14.6910  -17.2190   -9.5430 C   0  0  0  0  0  0  0  0  0  0  0  0
   14.6730  -17.6540  -11.0210 C   0  0  0  0  0  0  0  0  0  0  0  0
   16.0076  -18.5408  -13.2438 H   0  0  0  0  0  0  0  0  0  0  0  0
   14.9290  -17.1879  -13.7265 H   0  0  0  0  0  0  0  0  0  0  0  0
   16.7107  -16.9599  -13.7265 H   0  0  0  0  0  0  0  0  0  0  0  0
   16.6870  -17.2640  -11.3350 H   0  0  0  0  0  0  0  0  0  0  0  0
   16.5435  -15.0087  -12.2171 H   0  0  0  0  0  0  0  0  0  0  0  0
   14.7462  -15.1520  -12.1327 H   0  0  0  0  0  0  0  0  0  0  0  0
   16.7233  -15.2338   -9.7907 H   0  0  0  0  0  0  0  0  0  0  0  0
   15.5036  -13.9519  -10.1622 H   0  0  0  0  0  0  0  0  0  0  0  0
   15.8443  -16.0465   -7.0341 H   0  0  0  0  0  0  0  0  0  0  0  0
   15.0539  -15.0941   -4.8852 H   0  0  0  0  0  0  0  0  0  0  0  0
   14.6932  -12.8801   -3.4469 H   0  0  0  0  0  0  0  0  0  0  0  0
   10.5680  -10.9160   -0.8660 H   0  0  0  0  0  0  0  0  0  0  0  0
   10.6890  -12.4810   -0.0590 H   0  0  0  0  0  0  0  0  0  0  0  0
    7.6000  -10.7064   -2.9593 H   0  0  0  0  0  0  0  0  0  0  0  0
    5.3816  -10.3197   -1.8967 H   0  0  0  0  0  0  0  0  0  0  0  0
    4.1370  -11.7900    0.7430 H   0  0  0  0  0  0  0  0  0  0  0  0
    1.6412  -14.1669    0.7203 H   0  0  0  0  0  0  0  0  0  0  0  0
   -0.2742  -13.8522    2.2844 H   0  0  0  0  0  0  0  0  0  0  0  0
   -0.3988   -9.6410    1.2902 H   0  0  0  0  0  0  0  0  0  0  0  0
    1.5134   -9.9581   -0.2760 H   0  0  0  0  0  0  0  0  0  0  0  0
    5.6246  -14.1808    0.0165 H   0  0  0  0  0  0  0  0  0  0  0  0
    7.8451  -14.5704   -1.0411 H   0  0  0  0  0  0  0  0  0  0  0  0
    8.3323  -13.8219   -4.5074 H   0  0  0  0  0  0  0  0  0  0  0  0
   11.7298  -13.2600   -6.9271 H   0  0  0  0  0  0  0  0  0  0  0  0
   12.5215  -14.2214   -9.0763 H   0  0  0  0  0  0  0  0  0  0  0  0
   15.5856  -17.6353   -9.0569 H   0  0  0  0  0  0  0  0  0  0  0  0
   13.7775  -17.5933   -9.0577 H   0  0  0  0  0  0  0  0  0  0  0  0
   14.7892  -18.7464  -11.0773 H   0  0  0  0  0  0  0  0  0  0  0  0
   13.7154  -17.3484  -11.4679 H   0  0  0  0  0  0  0  0  0  0  0  0
  1  2  1  0
  2  3  1  0
  3  4  1  0
  4  5  1  0
  5  6  1  0
  6  7  2  0
  7  8  1  0
  8  9  2  0
  9 10  1  0
 10 11  1  0
 11 12  2  0
 12 13  1  0
 13 14  1  0
 14 15  1  0
 14 16  2  0
 16 17  1  0
 17 18  2  0
 18 19  1  0
 19 20  2  0
 20 21  1  0
 21 22  1  0
 22 23  2  0
 22 24  1  0
 24 25  2  0
 25 26  1  0
 26 27  2  0
 27 28  1  0
 28 29  1  0
 28 30  1  0
 28 31  1  0
 27 32  1  0
 32 33  2  0
 20 34  1  0
 34 35  2  0
 16 36  1  0
 36 37  2  0
 37 38  1  0
  9 39  1  0
 39 40  2  0
  5 41  1  0
 41 42  1  0
 42  2  1  0
 40  6  1  0
 38 10  2  0
 38 13  1  0
 35 17  1  0
 33 24  1  0
  1 43  1  0
  1 44  1  0
  1 45  1  0
  2 46  1  0
  3 47  1  0
  3 48  1  0
  4 49  1  0
  4 50  1  0
  7 51  1  0
  8 52  1  0
 11 53  1  0
 15 54  1  0
 15 55  1  0
 18 56  1  0
 19 57  1  0
 21 58  1  0
 25 59  1  0
 26 60  1  0
 32 61  1  0
 33 62  1  0
 34 63  1  0
 35 64  1  0
 36 65  1  0
 39 66  1  0
 40 67  1  0
 41 68  1  0
 41 69  1  0
 42 70  1  0
 42 71  1  0
M  CHG  1   2   1
M  END
>  <meeko>  (4) 
{"is_sidechain": [false], "free_energy": -8.805, "intermolecular_energy": -12.165, "internal_energy": -0.879}

$$$$
LIB_FIENVLBRUWEWDS__M_PUB_ALL__e8__s20260927
     RDKit          3D

 71 76  0  0  0  0  0  0  0  0999 V2000
   14.5200  -21.8470  -10.7650 C   0  0  0  0  0  0  0  0  0  0  0  0
   13.6840  -20.6180  -10.9440 N   0  0  0  0  0  0  0  0  0  0  0  0
   12.1900  -20.9280  -10.9020 C   0  0  0  0  0  0  0  0  0  0  0  0
   11.3630  -19.6560  -11.1750 C   0  0  0  0  0  0  0  0  0  0  0  0
   11.7640  -18.5630  -10.2770 N   0  0  0  0  0  0  0  0  0  0  0  0
   10.8750  -17.5210  -10.0250 C   0  0  0  0  0  0  0  0  0  0  0  0
    9.4920  -17.7500  -10.0090 C   0  0  0  0  0  0  0  0  0  0  0  0
    8.5730  -16.7200   -9.7650 C   0  0  0  0  0  0  0  0  0  0  0  0
    9.0080  -15.4140   -9.5350 C   0  0  0  0  0  0  0  0  0  0  0  0
    8.0730  -14.3330   -9.2670 C   0  0  0  0  0  0  0  0  0  0  0  0
    7.7430  -13.2140  -10.0590 C   0  0  0  0  0  0  0  0  0  0  0  0
    6.8300  -12.4200   -9.5050 N   0  0  0  0  0  0  0  0  0  0  0  0
    6.5360  -13.0270   -8.3140 N   0  0  0  0  0  0  0  0  0  0  0  0
    5.6080  -12.5710   -7.3380 C   0  0  0  0  0  0  0  0  0  0  0  0
    4.9530  -11.3870   -7.6150 N   0  0  0  0  0  0  0  0  0  0  0  0
    5.4450  -13.3110   -6.2190 C   0  0  0  0  0  0  0  0  0  0  0  0
    4.5290  -12.9720   -5.1230 C   0  0  0  0  0  0  0  0  0  0  0  0
    3.2530  -13.5400   -5.0700 C   0  0  0  0  0  0  0  0  0  0  0  0
    2.3680  -13.2100   -4.0370 C   0  0  0  0  0  0  0  0  0  0  0  0
    2.7410  -12.3050   -3.0420 C   0  0  0  0  0  0  0  0  0  0  0  0
    1.9090  -11.9250   -1.9680 N   0  0  0  0  0  0  0  0  0  0  0  0
    1.9390  -12.4160   -0.6740 C   0  0  0  0  0  0  0  0  0  0  0  0
    2.6340  -13.3310   -0.2510 O   0  0  0  0  0  0  0  0  0  0  0  0
    0.9790  -11.7680    0.2650 C   0  0  0  0  0  0  0  0  0  0  0  0
    0.3420  -12.4900    1.2820 C   0  0  0  0  0  0  0  0  0  0  0  0
   -0.5560  -11.8450    2.1390 C   0  0  0  0  0  0  0  0  0  0  0  0
   -0.8400  -10.4790    1.9830 C   0  0  0  0  0  0  0  0  0  0  0  0
   -1.7950   -9.7820    2.9250 C   0  0  0  0  0  0  0  0  0  0  0  0
   -1.8690   -8.4410    2.7080 F   0  0  0  0  0  0  0  0  0  0  0  0
   -1.4580   -9.9310    4.2360 F   0  0  0  0  0  0  0  0  0  0  0  0
   -3.0660  -10.2530    2.8070 F   0  0  0  0  0  0  0  0  0  0  0  0
   -0.2030   -9.7660    0.9550 C   0  0  0  0  0  0  0  0  0  0  0  0
    0.6940  -10.4100    0.0970 C   0  0  0  0  0  0  0  0  0  0  0  0
    4.0210  -11.7400   -3.0930 C   0  0  0  0  0  0  0  0  0  0  0  0
    4.9080  -12.0670   -4.1250 C   0  0  0  0  0  0  0  0  0  0  0  0
    6.2860  -14.5470   -6.1370 C   0  0  0  0  0  0  0  0  0  0  0  0
    7.1420  -14.9740   -7.0150 N   0  0  0  0  0  0  0  0  0  0  0  0
    7.2820  -14.2010   -8.1370 C   0  0  0  0  0  0  0  0  0  0  0  0
   10.3840  -15.1660   -9.5530 C   0  0  0  0  0  0  0  0  0  0  0  0
   11.2980  -16.2030   -9.7990 C   0  0  0  0  0  0  0  0  0  0  0  0
   13.2040  -18.2600  -10.1860 C   0  0  0  0  0  0  0  0  0  0  0  0
   14.0250  -19.5370   -9.9220 C   0  0  0  0  0  0  0  0  0  0  0  0
   14.6550  -22.0455   -9.6915 H   0  0  0  0  0  0  0  0  0  0  0  0
   14.0170  -22.7044  -11.2360 H   0  0  0  0  0  0  0  0  0  0  0  0
   15.5022  -21.6941  -11.2360 H   0  0  0  0  0  0  0  0  0  0  0  0
   13.8880  -20.2300  -11.8730 H   0  0  0  0  0  0  0  0  0  0  0  0
   11.9559  -21.6824  -11.6675 H   0  0  0  0  0  0  0  0  0  0  0  0
   11.9351  -21.3083   -9.9018 H   0  0  0  0  0  0  0  0  0  0  0  0
   11.5208  -19.3413  -12.2172 H   0  0  0  0  0  0  0  0  0  0  0  0
   10.3016  -19.8836  -10.9972 H   0  0  0  0  0  0  0  0  0  0  0  0
    9.1171  -18.7676  -10.1933 H   0  0  0  0  0  0  0  0  0  0  0  0
    7.4961  -16.9438   -9.7547 H   0  0  0  0  0  0  0  0  0  0  0  0
    8.1970  -13.0162  -11.0412 H   0  0  0  0  0  0  0  0  0  0  0  0
    4.3430  -11.3720   -8.4310 H   0  0  0  0  0  0  0  0  0  0  0  0
    5.1680  -10.5350   -7.1130 H   0  0  0  0  0  0  0  0  0  0  0  0
    2.9413  -14.2531   -5.8474 H   0  0  0  0  0  0  0  0  0  0  0  0
    1.3685  -13.6685   -4.0091 H   0  0  0  0  0  0  0  0  0  0  0  0
    1.1850  -11.2550   -2.1880 H   0  0  0  0  0  0  0  0  0  0  0  0
    0.5476  -13.5634    1.4068 H   0  0  0  0  0  0  0  0  0  0  0  0
   -1.0447  -12.4141    2.9436 H   0  0  0  0  0  0  0  0  0  0  0  0
   -0.4108   -8.6938    0.8236 H   0  0  0  0  0  0  0  0  0  0  0  0
    1.1775   -9.8453   -0.7138 H   0  0  0  0  0  0  0  0  0  0  0  0
    4.3333  -11.0305   -2.3125 H   0  0  0  0  0  0  0  0  0  0  0  0
    5.9083  -11.6103   -4.1519 H   0  0  0  0  0  0  0  0  0  0  0  0
    6.1653  -15.1615   -5.2326 H   0  0  0  0  0  0  0  0  0  0  0  0
   10.7548  -14.1463   -9.3723 H   0  0  0  0  0  0  0  0  0  0  0  0
   12.3742  -15.9758   -9.8149 H   0  0  0  0  0  0  0  0  0  0  0  0
   13.5365  -17.8086  -11.1324 H   0  0  0  0  0  0  0  0  0  0  0  0
   13.3620  -17.5643   -9.3487 H   0  0  0  0  0  0  0  0  0  0  0  0
   15.0965  -19.2985   -9.9925 H   0  0  0  0  0  0  0  0  0  0  0  0
   13.7829  -19.9117   -8.9165 H   0  0  0  0  0  0  0  0  0  0  0  0
  1  2  1  0
  2  3  1  0
  3  4  1  0
  4  5  1  0
  5  6  1  0
  6  7  2  0
  7  8  1  0
  8  9  2  0
  9 10  1  0
 10 11  1  0
 11 12  2  0
 12 13  1  0
 13 14  1  0
 14 15  1  0
 14 16  2  0
 16 17  1  0
 17 18  2  0
 18 19  1  0
 19 20  2  0
 20 21  1  0
 21 22  1  0
 22 23  2  0
 22 24  1  0
 24 25  2  0
 25 26  1  0
 26 27  2  0
 27 28  1  0
 28 29  1  0
 28 30  1  0
 28 31  1  0
 27 32  1  0
 32 33  2  0
 20 34  1  0
 34 35  2  0
 16 36  1  0
 36 37  2  0
 37 38  1  0
  9 39  1  0
 39 40  2  0
  5 41  1  0
 41 42  1  0
 42  2  1  0
 40  6  1  0
 38 10  2  0
 38 13  1  0
 35 17  1  0
 33 24  1  0
  1 43  1  0
  1 44  1  0
  1 45  1  0
  2 46  1  0
  3 47  1  0
  3 48  1  0
  4 49  1  0
  4 50  1  0
  7 51  1  0
  8 52  1  0
 11 53  1  0
 15 54  1  0
 15 55  1  0
 18 56  1  0
 19 57  1  0
 21 58  1  0
 25 59  1  0
 26 60  1  0
 32 61  1  0
 33 62  1  0
 34 63  1  0
 35 64  1  0
 36 65  1  0
 39 66  1  0
 40 67  1  0
 41 68  1  0
 41 69  1  0
 42 70  1  0
 42 71  1  0
M  CHG  1   2   1
M  END
>  <meeko>  (5) 
{"is_sidechain": [false], "free_energy": -8.704, "intermolecular_energy": -11.754, "internal_energy": -1.15}

$$$$
LIB_FIENVLBRUWEWDS__M_PUB_ALL__e8__s20260927
     RDKit          3D

 71 76  0  0  0  0  0  0  0  0999 V2000
   15.2850  -15.0610   -9.6790 C   0  0  0  0  0  0  0  0  0  0  0  0
   14.3410  -15.1630   -8.5210 N   0  0  0  0  0  0  0  0  0  0  0  0
   15.0740  -15.1890   -7.1820 C   0  0  0  0  0  0  0  0  0  0  0  0
   14.0780  -15.3800   -6.0210 C   0  0  0  0  0  0  0  0  0  0  0  0
   12.9970  -14.3850   -6.0840 N   0  0  0  0  0  0  0  0  0  0  0  0
   12.2840  -14.0740   -4.9280 C   0  0  0  0  0  0  0  0  0  0  0  0
   12.3130  -12.7760   -4.3980 C   0  0  0  0  0  0  0  0  0  0  0  0
   11.6120  -12.4350   -3.2330 C   0  0  0  0  0  0  0  0  0  0  0  0
   10.8570  -13.3900   -2.5490 C   0  0  0  0  0  0  0  0  0  0  0  0
   10.1110  -13.0550   -1.3470 C   0  0  0  0  0  0  0  0  0  0  0  0
   10.5710  -12.5230   -0.1240 C   0  0  0  0  0  0  0  0  0  0  0  0
    9.6030  -12.3290    0.7690 N   0  0  0  0  0  0  0  0  0  0  0  0
    8.4660  -12.7360    0.1260 N   0  0  0  0  0  0  0  0  0  0  0  0
    7.1460  -12.7290    0.6550 C   0  0  0  0  0  0  0  0  0  0  0  0
    7.0030  -12.2860    1.9550 N   0  0  0  0  0  0  0  0  0  0  0  0
    6.1400  -13.1650   -0.1370 C   0  0  0  0  0  0  0  0  0  0  0  0
    4.7300  -13.2210    0.2650 C   0  0  0  0  0  0  0  0  0  0  0  0
    4.2270  -14.3520    0.9160 C   0  0  0  0  0  0  0  0  0  0  0  0
    2.8790  -14.4190    1.2900 C   0  0  0  0  0  0  0  0  0  0  0  0
    2.0120  -13.3590    1.0180 C   0  0  0  0  0  0  0  0  0  0  0  0
    0.6450  -13.3500    1.3660 N   0  0  0  0  0  0  0  0  0  0  0  0
   -0.4000  -13.9260    0.6650 C   0  0  0  0  0  0  0  0  0  0  0  0
   -0.3380  -14.4700   -0.4310 O   0  0  0  0  0  0  0  0  0  0  0  0
   -1.7340  -13.8120    1.3200 C   0  0  0  0  0  0  0  0  0  0  0  0
   -2.2000  -14.7810    2.2170 C   0  0  0  0  0  0  0  0  0  0  0  0
   -3.4610  -14.6390    2.8060 C   0  0  0  0  0  0  0  0  0  0  0  0
   -4.2770  -13.5390    2.4960 C   0  0  0  0  0  0  0  0  0  0  0  0
   -5.6300  -13.3790    3.1520 C   0  0  0  0  0  0  0  0  0  0  0  0
   -5.7180  -12.2580    3.9170 F   0  0  0  0  0  0  0  0  0  0  0  0
   -5.9550  -14.4180    3.9700 F   0  0  0  0  0  0  0  0  0  0  0  0
   -6.6340  -13.2900    2.2370 F   0  0  0  0  0  0  0  0  0  0  0  0
   -3.8050  -12.5780    1.5880 C   0  0  0  0  0  0  0  0  0  0  0  0
   -2.5450  -12.7190    0.9980 C   0  0  0  0  0  0  0  0  0  0  0  0
    2.5180  -12.2250    0.3710 C   0  0  0  0  0  0  0  0  0  0  0  0
    3.8630  -12.1560   -0.0050 C   0  0  0  0  0  0  0  0  0  0  0  0
    6.5480  -13.6180   -1.5050 C   0  0  0  0  0  0  0  0  0  0  0  0
    7.7490  -13.6360   -2.0000 N   0  0  0  0  0  0  0  0  0  0  0  0
    8.7430  -13.1880   -1.1720 C   0  0  0  0  0  0  0  0  0  0  0  0
   10.8210  -14.6900   -3.0610 C   0  0  0  0  0  0  0  0  0  0  0  0
   11.5280  -15.0240   -4.2270 C   0  0  0  0  0  0  0  0  0  0  0  0
   12.2990  -14.2280   -7.3720 C   0  0  0  0  0  0  0  0  0  0  0  0
   13.3010  -14.0460   -8.5280 C   0  0  0  0  0  0  0  0  0  0  0  0
   16.3135  -14.9499   -9.3050 H   0  0  0  0  0  0  0  0  0  0  0  0
   15.2140  -15.9720  -10.2913 H   0  0  0  0  0  0  0  0  0  0  0  0
   15.0210  -14.1862  -10.2913 H   0  0  0  0  0  0  0  0  0  0  0  0
   13.8320  -16.0510   -8.6060 H   0  0  0  0  0  0  0  0  0  0  0  0
   15.7945  -16.0202   -7.1805 H   0  0  0  0  0  0  0  0  0  0  0  0
   15.5974  -14.2311   -7.0459 H   0  0  0  0  0  0  0  0  0  0  0  0
   13.6427  -16.3883   -6.0829 H   0  0  0  0  0  0  0  0  0  0  0  0
   14.6181  -15.2506   -5.0715 H   0  0  0  0  0  0  0  0  0  0  0  0
   12.9032  -12.0027   -4.9116 H   0  0  0  0  0  0  0  0  0  0  0  0
   11.6572  -11.4036   -2.8534 H   0  0  0  0  0  0  0  0  0  0  0  0
   11.6281  -12.2908    0.0728 H   0  0  0  0  0  0  0  0  0  0  0  0
    7.6370  -12.6740    2.6520 H   0  0  0  0  0  0  0  0  0  0  0  0
    6.2230  -11.7050    2.2310 H   0  0  0  0  0  0  0  0  0  0  0  0
    4.8963  -15.1967    1.1363 H   0  0  0  0  0  0  0  0  0  0  0  0
    2.4998  -15.3152    1.8029 H   0  0  0  0  0  0  0  0  0  0  0  0
    0.4060  -12.8250    2.1960 H   0  0  0  0  0  0  0  0  0  0  0  0
   -1.5749  -15.6534    2.4584 H   0  0  0  0  0  0  0  0  0  0  0  0
   -3.8170  -15.3969    3.5194 H   0  0  0  0  0  0  0  0  0  0  0  0
   -4.4305  -11.7081    1.3389 H   0  0  0  0  0  0  0  0  0  0  0  0
   -2.1903  -11.9671    0.2777 H   0  0  0  0  0  0  0  0  0  0  0  0
    1.8495  -11.3783    0.1560 H   0  0  0  0  0  0  0  0  0  0  0  0
    4.2421  -11.2589   -0.5163 H   0  0  0  0  0  0  0  0  0  0  0  0
    5.7420  -13.9748   -2.1631 H   0  0  0  0  0  0  0  0  0  0  0  0
   10.2313  -15.4612   -2.5438 H   0  0  0  0  0  0  0  0  0  0  0  0
   11.4877  -16.0579   -4.6003 H   0  0  0  0  0  0  0  0  0  0  0  0
   11.6902  -15.1242   -7.5622 H   0  0  0  0  0  0  0  0  0  0  0  0
   11.6626  -13.3324   -7.3173 H   0  0  0  0  0  0  0  0  0  0  0  0
   12.7570  -14.0651   -9.4839 H   0  0  0  0  0  0  0  0  0  0  0  0
   13.8160  -13.0823   -8.4013 H   0  0  0  0  0  0  0  0  0  0  0  0
  1  2  1  0
  2  3  1  0
  3  4  1  0
  4  5  1  0
  5  6  1  0
  6  7  2  0
  7  8  1  0
  8  9  2  0
  9 10  1  0
 10 11  1  0
 11 12  2  0
 12 13  1  0
 13 14  1  0
 14 15  1  0
 14 16  2  0
 16 17  1  0
 17 18  2  0
 18 19  1  0
 19 20  2  0
 20 21  1  0
 21 22  1  0
 22 23  2  0
 22 24  1  0
 24 25  2  0
 25 26  1  0
 26 27  2  0
 27 28  1  0
 28 29  1  0
 28 30  1  0
 28 31  1  0
 27 32  1  0
 32 33  2  0
 20 34  1  0
 34 35  2  0
 16 36  1  0
 36 37  2  0
 37 38  1  0
  9 39  1  0
 39 40  2  0
  5 41  1  0
 41 42  1  0
 42  2  1  0
 40  6  1  0
 38 10  2  0
 38 13  1  0
 35 17  1  0
 33 24  1  0
  1 43  1  0
  1 44  1  0
  1 45  1  0
  2 46  1  0
  3 47  1  0
  3 48  1  0
  4 49  1  0
  4 50  1  0
  7 51  1  0
  8 52  1  0
 11 53  1  0
 15 54  1  0
 15 55  1  0
 18 56  1  0
 19 57  1  0
 21 58  1  0
 25 59  1  0
 26 60  1  0
 32 61  1  0
 33 62  1  0
 34 63  1  0
 35 64  1  0
 36 65  1  0
 39 66  1  0
 40 67  1  0
 41 68  1  0
 41 69  1  0
 42 70  1  0
 42 71  1  0
M  CHG  1   2   1
M  END
>  <meeko>  (6) 
{"is_sidechain": [false], "free_energy": -8.66, "intermolecular_energy": -11.806, "internal_energy": -1.037}

$$$$
LIB_FIENVLBRUWEWDS__M_PUB_ALL__e8__s20260927
     RDKit          3D

 71 76  0  0  0  0  0  0  0  0999 V2000
   11.1340  -12.0080    0.1790 C   0  0  0  0  0  0  0  0  0  0  0  0
    9.8290  -12.7110    0.3940 N   0  0  0  0  0  0  0  0  0  0  0  0
    8.7340  -11.7580    0.8640 C   0  0  0  0  0  0  0  0  0  0  0  0
    7.4320  -12.5280    1.1580 C   0  0  0  0  0  0  0  0  0  0  0  0
    7.0390  -13.3580    0.0090 N   0  0  0  0  0  0  0  0  0  0  0  0
    5.7100  -13.7510   -0.1310 C   0  0  0  0  0  0  0  0  0  0  0  0
    4.7050  -12.8000   -0.3600 C   0  0  0  0  0  0  0  0  0  0  0  0
    3.3580  -13.1640   -0.4980 C   0  0  0  0  0  0  0  0  0  0  0  0
    2.9670  -14.5010   -0.4050 C   0  0  0  0  0  0  0  0  0  0  0  0
    1.5770  -14.9020   -0.5580 C   0  0  0  0  0  0  0  0  0  0  0  0
    0.8580  -15.2170   -1.7300 C   0  0  0  0  0  0  0  0  0  0  0  0
   -0.4090  -15.5550   -1.5020 N   0  0  0  0  0  0  0  0  0  0  0  0
   -0.5390  -15.4710   -0.1420 N   0  0  0  0  0  0  0  0  0  0  0  0
   -1.7140  -15.7370    0.6140 C   0  0  0  0  0  0  0  0  0  0  0  0
   -2.8390  -16.0980   -0.1010 N   0  0  0  0  0  0  0  0  0  0  0  0
   -1.6500  -15.6060    1.9580 C   0  0  0  0  0  0  0  0  0  0  0  0
   -2.7750  -15.8430    2.8700 C   0  0  0  0  0  0  0  0  0  0  0  0
   -2.9810  -17.1110    3.4210 C   0  0  0  0  0  0  0  0  0  0  0  0
   -4.0600  -17.3480    4.2810 C   0  0  0  0  0  0  0  0  0  0  0  0
   -4.9520  -16.3240    4.6020 C   0  0  0  0  0  0  0  0  0  0  0  0
   -6.0590  -16.4830    5.4620 N   0  0  0  0  0  0  0  0  0  0  0  0
   -6.0320  -16.6710    6.8330 C   0  0  0  0  0  0  0  0  0  0  0  0
   -5.0390  -16.8220    7.5340 O   0  0  0  0  0  0  0  0  0  0  0  0
   -7.3710  -16.7360    7.4850 C   0  0  0  0  0  0  0  0  0  0  0  0
   -8.4790  -16.0550    6.9650 C   0  0  0  0  0  0  0  0  0  0  0  0
   -9.7160  -16.1380    7.6110 C   0  0  0  0  0  0  0  0  0  0  0  0
   -9.8610  -16.8890    8.7900 C   0  0  0  0  0  0  0  0  0  0  0  0
  -11.2060  -16.9930    9.4720 C   0  0  0  0  0  0  0  0  0  0  0  0
  -11.7330  -15.7810    9.7930 F   0  0  0  0  0  0  0  0  0  0  0  0
  -11.1640  -17.7030   10.6330 F   0  0  0  0  0  0  0  0  0  0  0  0
  -12.1310  -17.6090    8.6860 F   0  0  0  0  0  0  0  0  0  0  0  0
   -8.7420  -17.5610    9.3070 C   0  0  0  0  0  0  0  0  0  0  0  0
   -7.5040  -17.4770    8.6640 C   0  0  0  0  0  0  0  0  0  0  0  0
   -4.7420  -15.0530    4.0540 C   0  0  0  0  0  0  0  0  0  0  0  0
   -3.6650  -14.8130    3.1940 C   0  0  0  0  0  0  0  0  0  0  0  0
   -0.3210  -15.1820    2.5000 C   0  0  0  0  0  0  0  0  0  0  0  0
    0.7590  -14.9290    1.8240 N   0  0  0  0  0  0  0  0  0  0  0  0
    0.6600  -15.0710    0.4660 C   0  0  0  0  0  0  0  0  0  0  0  0
    3.9550  -15.4610   -0.1720 C   0  0  0  0  0  0  0  0  0  0  0  0
    5.3020  -15.0880   -0.0330 C   0  0  0  0  0  0  0  0  0  0  0  0
    8.0690  -14.2410   -0.5680 C   0  0  0  0  0  0  0  0  0  0  0  0
    9.3710  -13.4660   -0.8500 C   0  0  0  0  0  0  0  0  0  0  0  0
   11.5845  -11.7653    1.1527 H   0  0  0  0  0  0  0  0  0  0  0  0
   11.8139  -12.6619   -0.3868 H   0  0  0  0  0  0  0  0  0  0  0  0
   10.9620  -11.0805   -0.3868 H   0  0  0  0  0  0  0  0  0  0  0  0
    9.9650  -13.4080    1.1370 H   0  0  0  0  0  0  0  0  0  0  0  0
    9.0672  -11.2487    1.7803 H   0  0  0  0  0  0  0  0  0  0  0  0
    8.5389  -11.0234    0.0689 H   0  0  0  0  0  0  0  0  0  0  0  0
    7.5872  -13.1759    2.0333 H   0  0  0  0  0  0  0  0  0  0  0  0
    6.6312  -11.7999    1.3543 H   0  0  0  0  0  0  0  0  0  0  0  0
    4.9815  -11.7379   -0.4335 H   0  0  0  0  0  0  0  0  0  0  0  0
    2.6009  -12.3875   -0.6816 H   0  0  0  0  0  0  0  0  0  0  0  0
    1.3019  -15.1862   -2.7360 H   0  0  0  0  0  0  0  0  0  0  0  0
   -3.7010  -15.5940    0.1020 H   0  0  0  0  0  0  0  0  0  0  0  0
   -2.8450  -16.9120   -0.7020 H   0  0  0  0  0  0  0  0  0  0  0  0
   -2.2889  -17.9303    3.1766 H   0  0  0  0  0  0  0  0  0  0  0  0
   -4.2061  -18.3512    4.7079 H   0  0  0  0  0  0  0  0  0  0  0  0
   -6.9650  -16.5070    5.0140 H   0  0  0  0  0  0  0  0  0  0  0  0
   -8.3759  -15.4551    6.0487 H   0  0  0  0  0  0  0  0  0  0  0  0
  -10.5852  -15.6098    7.1920 H   0  0  0  0  0  0  0  0  0  0  0  0
   -8.8404  -18.1583   10.2254 H   0  0  0  0  0  0  0  0  0  0  0  0
   -6.6308  -17.9956    9.0866 H   0  0  0  0  0  0  0  0  0  0  0  0
   -5.4321  -14.2332    4.3026 H   0  0  0  0  0  0  0  0  0  0  0  0
   -3.5170  -13.8088    2.7701 H   0  0  0  0  0  0  0  0  0  0  0  0
   -0.2509  -15.0724    3.5923 H   0  0  0  0  0  0  0  0  0  0  0  0
    3.6745  -16.5220   -0.0965 H   0  0  0  0  0  0  0  0  0  0  0  0
    6.0562  -15.8656    0.1577 H   0  0  0  0  0  0  0  0  0  0  0  0
    8.2820  -15.0551    0.1405 H   0  0  0  0  0  0  0  0  0  0  0  0
    7.6901  -14.6444   -1.5187 H   0  0  0  0  0  0  0  0  0  0  0  0
   10.1557  -14.1757   -1.1511 H   0  0  0  0  0  0  0  0  0  0  0  0
    9.1835  -12.7404   -1.6552 H   0  0  0  0  0  0  0  0  0  0  0  0
  1  2  1  0
  2  3  1  0
  3  4  1  0
  4  5  1  0
  5  6  1  0
  6  7  2  0
  7  8  1  0
  8  9  2  0
  9 10  1  0
 10 11  1  0
 11 12  2  0
 12 13  1  0
 13 14  1  0
 14 15  1  0
 14 16  2  0
 16 17  1  0
 17 18  2  0
 18 19  1  0
 19 20  2  0
 20 21  1  0
 21 22  1  0
 22 23  2  0
 22 24  1  0
 24 25  2  0
 25 26  1  0
 26 27  2  0
 27 28  1  0
 28 29  1  0
 28 30  1  0
 28 31  1  0
 27 32  1  0
 32 33  2  0
 20 34  1  0
 34 35  2  0
 16 36  1  0
 36 37  2  0
 37 38  1  0
  9 39  1  0
 39 40  2  0
  5 41  1  0
 41 42  1  0
 42  2  1  0
 40  6  1  0
 38 10  2  0
 38 13  1  0
 35 17  1  0
 33 24  1  0
  1 43  1  0
  1 44  1  0
  1 45  1  0
  2 46  1  0
  3 47  1  0
  3 48  1  0
  4 49  1  0
  4 50  1  0
  7 51  1  0
  8 52  1  0
 11 53  1  0
 15 54  1  0
 15 55  1  0
 18 56  1  0
 19 57  1  0
 21 58  1  0
 25 59  1  0
 26 60  1  0
 32 61  1  0
 33 62  1  0
 34 63  1  0
 35 64  1  0
 36 65  1  0
 39 66  1  0
 40 67  1  0
 41 68  1  0
 41 69  1  0
 42 70  1  0
 42 71  1  0
M  CHG  1   2   1
M  END
>  <meeko>  (7) 
{"is_sidechain": [false], "free_energy": -8.573, "intermolecular_energy": -11.586, "internal_energy": -1.137}

$$$$
LIB_FIENVLBRUWEWDS__M_PUB_ALL__e8__s20260927
     RDKit          3D

 71 76  0  0  0  0  0  0  0  0999 V2000
  -11.1450  -16.3620    7.9270 C   0  0  0  0  0  0  0  0  0  0  0  0
   -9.8540  -16.1550    7.1970 N   0  0  0  0  0  0  0  0  0  0  0  0
   -8.6830  -15.9310    8.1500 C   0  0  0  0  0  0  0  0  0  0  0  0
   -7.3910  -15.6370    7.3630 C   0  0  0  0  0  0  0  0  0  0  0  0
   -7.1390  -16.6760    6.3530 N   0  0  0  0  0  0  0  0  0  0  0  0
   -5.8450  -16.8680    5.8750 C   0  0  0  0  0  0  0  0  0  0  0  0
   -5.6210  -17.5640    4.6790 C   0  0  0  0  0  0  0  0  0  0  0  0
   -4.3300  -17.7800    4.1770 C   0  0  0  0  0  0  0  0  0  0  0  0
   -3.2100  -17.3090    4.8630 C   0  0  0  0  0  0  0  0  0  0  0  0
   -1.8620  -17.5100    4.3540 C   0  0  0  0  0  0  0  0  0  0  0  0
   -0.7910  -18.2400    4.9100 C   0  0  0  0  0  0  0  0  0  0  0  0
    0.3100  -18.2190    4.1640 N   0  0  0  0  0  0  0  0  0  0  0  0
   -0.0330  -17.4620    3.0780 N   0  0  0  0  0  0  0  0  0  0  0  0
    0.8030  -17.1360    1.9750 C   0  0  0  0  0  0  0  0  0  0  0  0
    2.0960  -17.6170    2.0160 N   0  0  0  0  0  0  0  0  0  0  0  0
    0.2830  -16.3760    0.9840 C   0  0  0  0  0  0  0  0  0  0  0  0
    1.0190  -15.9550   -0.2140 C   0  0  0  0  0  0  0  0  0  0  0  0
    0.4260  -15.0900   -1.1380 C   0  0  0  0  0  0  0  0  0  0  0  0
    1.1160  -14.6970   -2.2910 C   0  0  0  0  0  0  0  0  0  0  0  0
    2.4070  -15.1620   -2.5410 C   0  0  0  0  0  0  0  0  0  0  0  0
    3.1680  -14.8080   -3.6750 N   0  0  0  0  0  0  0  0  0  0  0  0
    3.8360  -13.6160   -3.8950 C   0  0  0  0  0  0  0  0  0  0  0  0
    3.8130  -12.6190   -3.1830 O   0  0  0  0  0  0  0  0  0  0  0  0
    4.6170  -13.5580   -5.1630 C   0  0  0  0  0  0  0  0  0  0  0  0
    4.4220  -12.5400   -6.1050 C   0  0  0  0  0  0  0  0  0  0  0  0
    5.1740  -12.5260   -7.2840 C   0  0  0  0  0  0  0  0  0  0  0  0
    6.1170  -13.5340   -7.5450 C   0  0  0  0  0  0  0  0  0  0  0  0
    6.9420  -13.5010   -8.8110 C   0  0  0  0  0  0  0  0  0  0  0  0
    6.8220  -12.3290   -9.4920 F   0  0  0  0  0  0  0  0  0  0  0  0
    6.6070  -14.4820   -9.6940 F   0  0  0  0  0  0  0  0  0  0  0  0
    8.2700  -13.6570   -8.5600 F   0  0  0  0  0  0  0  0  0  0  0  0
    6.2990  -14.5540   -6.5990 C   0  0  0  0  0  0  0  0  0  0  0  0
    5.5470  -14.5700   -5.4200 C   0  0  0  0  0  0  0  0  0  0  0  0
    3.0030  -16.0230   -1.6120 C   0  0  0  0  0  0  0  0  0  0  0  0
    2.3160  -16.4200   -0.4600 C   0  0  0  0  0  0  0  0  0  0  0  0
   -1.1410  -15.9550    1.1760 C   0  0  0  0  0  0  0  0  0  0  0  0
   -1.9150  -16.2380    2.1790 N   0  0  0  0  0  0  0  0  0  0  0  0
   -1.3580  -17.0100    3.1640 C   0  0  0  0  0  0  0  0  0  0  0  0
   -3.4140  -16.6170    6.0600 C   0  0  0  0  0  0  0  0  0  0  0  0
   -4.7100  -16.4070    6.5570 C   0  0  0  0  0  0  0  0  0  0  0  0
   -8.2510  -17.0220    5.4510 C   0  0  0  0  0  0  0  0  0  0  0  0
   -9.5420  -17.3060    6.2430 C   0  0  0  0  0  0  0  0  0  0  0  0
  -10.9619  -16.3326    9.0113 H   0  0  0  0  0  0  0  0  0  0  0  0
  -11.8529  -15.5659    7.6530 H   0  0  0  0  0  0  0  0  0  0  0  0
  -11.5685  -17.3395    7.6530 H   0  0  0  0  0  0  0  0  0  0  0  0
   -9.9470  -15.3060    6.6250 H   0  0  0  0  0  0  0  0  0  0  0  0
   -8.9089  -15.0772    8.8058 H   0  0  0  0  0  0  0  0  0  0  0  0
   -8.5339  -16.8418    8.7485 H   0  0  0  0  0  0  0  0  0  0  0  0
   -7.4900  -14.6636    6.8603 H   0  0  0  0  0  0  0  0  0  0  0  0
   -6.5472  -15.6233    8.0686 H   0  0  0  0  0  0  0  0  0  0  0  0
   -6.4837  -17.9522    4.1178 H   0  0  0  0  0  0  0  0  0  0  0  0
   -4.1985  -18.3269    3.2317 H   0  0  0  0  0  0  0  0  0  0  0  0
   -0.8596  -18.7753    5.8685 H   0  0  0  0  0  0  0  0  0  0  0  0
    2.2170  -18.6290    2.0150 H   0  0  0  0  0  0  0  0  0  0  0  0
    2.8840  -17.0020    2.1750 H   0  0  0  0  0  0  0  0  0  0  0  0
   -0.5921  -14.7146   -0.9576 H   0  0  0  0  0  0  0  0  0  0  0  0
    0.6351  -14.0145   -3.0071 H   0  0  0  0  0  0  0  0  0  0  0  0
    3.1830  -15.4870   -4.4240 H   0  0  0  0  0  0  0  0  0  0  0  0
    3.6778  -11.7520   -5.9176 H   0  0  0  0  0  0  0  0  0  0  0  0
    5.0255  -11.7172   -8.0146 H   0  0  0  0  0  0  0  0  0  0  0  0
    7.0384  -15.3467   -6.7860 H   0  0  0  0  0  0  0  0  0  0  0  0
    5.6877  -15.3822   -4.6917 H   0  0  0  0  0  0  0  0  0  0  0  0
    4.0239  -16.3918   -1.7901 H   0  0  0  0  0  0  0  0  0  0  0  0
    2.7978  -17.1015    0.2566 H   0  0  0  0  0  0  0  0  0  0  0  0
   -1.5800  -15.3374    0.3786 H   0  0  0  0  0  0  0  0  0  0  0  0
   -2.5486  -16.2322    6.6195 H   0  0  0  0  0  0  0  0  0  0  0  0
   -4.8384  -15.8666    7.5064 H   0  0  0  0  0  0  0  0  0  0  0  0
   -8.4294  -16.1827    4.7627 H   0  0  0  0  0  0  0  0  0  0  0  0
   -7.9777  -17.9295    4.8926 H   0  0  0  0  0  0  0  0  0  0  0  0
  -10.3782  -17.4282    5.5388 H   0  0  0  0  0  0  0  0  0  0  0  0
   -9.4012  -18.2248    6.8313 H   0  0  0  0  0  0  0  0  0  0  0  0
  1  2  1  0
  2  3  1  0
  3  4  1  0
  4  5  1  0
  5  6  1  0
  6  7  2  0
  7  8  1  0
  8  9  2  0
  9 10  1  0
 10 11  1  0
 11 12  2  0
 12 13  1  0
 13 14  1  0
 14 15  1  0
 14 16  2  0
 16 17  1  0
 17 18  2  0
 18 19  1  0
 19 20  2  0
 20 21  1  0
 21 22  1  0
 22 23  2  0
 22 24  1  0
 24 25  2  0
 25 26  1  0
 26 27  2  0
 27 28  1  0
 28 29  1  0
 28 30  1  0
 28 31  1  0
 27 32  1  0
 32 33  2  0
 20 34  1  0
 34 35  2  0
 16 36  1  0
 36 37  2  0
 37 38  1  0
  9 39  1  0
 39 40  2  0
  5 41  1  0
 41 42  1  0
 42  2  1  0
 40  6  1  0
 38 10  2  0
 38 13  1  0
 35 17  1  0
 33 24  1  0
  1 43  1  0
  1 44  1  0
  1 45  1  0
  2 46  1  0
  3 47  1  0
  3 48  1  0
  4 49  1  0
  4 50  1  0
  7 51  1  0
  8 52  1  0
 11 53  1  0
 15 54  1  0
 15 55  1  0
 18 56  1  0
 19 57  1  0
 21 58  1  0
 25 59  1  0
 26 60  1  0
 32 61  1  0
 33 62  1  0
 34 63  1  0
 35 64  1  0
 36 65  1  0
 39 66  1  0
 40 67  1  0
 41 68  1  0
 41 69  1  0
 42 70  1  0
 42 71  1  0
M  CHG  1   2   1
M  END
>  <meeko>  (8) 
{"is_sidechain": [false], "free_energy": -8.446, "intermolecular_energy": -12.174, "internal_energy": -0.374}

$$$$
LIB_FIENVLBRUWEWDS__M_PUB_ALL__e8__s20260927
     RDKit          3D

 71 76  0  0  0  0  0  0  0  0999 V2000
    7.4990  -13.7220   -9.6240 C   0  0  0  0  0  0  0  0  0  0  0  0
    7.3330  -13.4600   -8.1580 N   0  0  0  0  0  0  0  0  0  0  0  0
    5.9410  -12.9310   -7.8240 C   0  0  0  0  0  0  0  0  0  0  0  0
    5.8350  -12.5930   -6.3240 C   0  0  0  0  0  0  0  0  0  0  0  0
    6.2470  -13.7350   -5.4940 N   0  0  0  0  0  0  0  0  0  0  0  0
    5.8000  -13.8240   -4.1780 C   0  0  0  0  0  0  0  0  0  0  0  0
    5.0600  -12.7810   -3.6030 C   0  0  0  0  0  0  0  0  0  0  0  0
    4.6030  -12.8400   -2.2780 C   0  0  0  0  0  0  0  0  0  0  0  0
    4.8780  -13.9480   -1.4760 C   0  0  0  0  0  0  0  0  0  0  0  0
    4.4020  -14.0350   -0.1050 C   0  0  0  0  0  0  0  0  0  0  0  0
    5.1050  -13.8450    1.1030 C   0  0  0  0  0  0  0  0  0  0  0  0
    4.3480  -13.9950    2.1880 N   0  0  0  0  0  0  0  0  0  0  0  0
    3.1060  -14.2870    1.6930 N   0  0  0  0  0  0  0  0  0  0  0  0
    1.9300  -14.5380    2.4520 C   0  0  0  0  0  0  0  0  0  0  0  0
    2.0630  -14.5020    3.8270 N   0  0  0  0  0  0  0  0  0  0  0  0
    0.7850  -14.8040    1.7840 C   0  0  0  0  0  0  0  0  0  0  0  0
   -0.5050  -15.0850    2.4260 C   0  0  0  0  0  0  0  0  0  0  0  0
   -0.8870  -16.4030    2.6930 C   0  0  0  0  0  0  0  0  0  0  0  0
   -2.1220  -16.6800    3.2910 C   0  0  0  0  0  0  0  0  0  0  0  0
   -2.9970  -15.6460    3.6280 C   0  0  0  0  0  0  0  0  0  0  0  0
   -4.2550  -15.8440    4.2360 N   0  0  0  0  0  0  0  0  0  0  0  0
   -4.5150  -16.5070    5.4220 C   0  0  0  0  0  0  0  0  0  0  0  0
   -3.7100  -17.1190    6.1140 O   0  0  0  0  0  0  0  0  0  0  0  0
   -5.9430  -16.4930    5.8500 C   0  0  0  0  0  0  0  0  0  0  0  0
   -6.3300  -16.8780    7.1400 C   0  0  0  0  0  0  0  0  0  0  0  0
   -7.6820  -16.8550    7.4990 C   0  0  0  0  0  0  0  0  0  0  0  0
   -8.6630  -16.4640    6.5730 C   0  0  0  0  0  0  0  0  0  0  0  0
  -10.1200  -16.4200    6.9740 C   0  0  0  0  0  0  0  0  0  0  0  0
  -10.3220  -15.8090    8.1720 F   0  0  0  0  0  0  0  0  0  0  0  0
  -10.6830  -17.6550    7.0830 F   0  0  0  0  0  0  0  0  0  0  0  0
  -10.8780  -15.7380    6.0720 F   0  0  0  0  0  0  0  0  0  0  0  0
   -8.2650  -16.0880    5.2810 C   0  0  0  0  0  0  0  0  0  0  0  0
   -6.9150  -16.1120    4.9200 C   0  0  0  0  0  0  0  0  0  0  0  0
   -2.6120  -14.3260    3.3650 C   0  0  0  0  0  0  0  0  0  0  0  0
   -1.3790  -14.0460    2.7670 C   0  0  0  0  0  0  0  0  0  0  0  0
    0.8970  -14.8080    0.2920 C   0  0  0  0  0  0  0  0  0  0  0  0
    1.9640  -14.5880   -0.4160 N   0  0  0  0  0  0  0  0  0  0  0  0
    3.1050  -14.3210    0.2910 C   0  0  0  0  0  0  0  0  0  0  0  0
    5.6180  -14.9950   -2.0320 C   0  0  0  0  0  0  0  0  0  0  0  0
    6.0740  -14.9280   -3.3590 C   0  0  0  0  0  0  0  0  0  0  0  0
    7.5390  -14.3680   -5.8130 C   0  0  0  0  0  0  0  0  0  0  0  0
    7.6420  -14.6940   -7.3160 C   0  0  0  0  0  0  0  0  0  0  0  0
    8.0827  -14.6432   -9.7681 H   0  0  0  0  0  0  0  0  0  0  0  0
    6.5094  -13.8383  -10.0901 H   0  0  0  0  0  0  0  0  0  0  0  0
    8.0268  -12.8769  -10.0901 H   0  0  0  0  0  0  0  0  0  0  0  0
    8.0070  -12.7340   -7.8890 H   0  0  0  0  0  0  0  0  0  0  0  0
    5.7482  -12.0227   -8.4138 H   0  0  0  0  0  0  0  0  0  0  0  0
    5.1993  -13.7063   -8.0662 H   0  0  0  0  0  0  0  0  0  0  0  0
    6.4858  -11.7343   -6.1023 H   0  0  0  0  0  0  0  0  0  0  0  0
    4.7866  -12.3531   -6.0929 H   0  0  0  0  0  0  0  0  0  0  0  0
    4.8313  -11.8913   -4.2080 H   0  0  0  0  0  0  0  0  0  0  0  0
    4.0207  -12.0025   -1.8663 H   0  0  0  0  0  0  0  0  0  0  0  0
    6.1758  -13.5967    1.1447 H   0  0  0  0  0  0  0  0  0  0  0  0
    2.9280  -14.1160    4.2010 H   0  0  0  0  0  0  0  0  0  0  0  0
    1.3940  -14.9570    4.4340 H   0  0  0  0  0  0  0  0  0  0  0  0
   -0.2108  -17.2301    2.4307 H   0  0  0  0  0  0  0  0  0  0  0  0
   -2.4057  -17.7226    3.4973 H   0  0  0  0  0  0  0  0  0  0  0  0
   -5.0520  -15.5000    3.7180 H   0  0  0  0  0  0  0  0  0  0  0  0
   -5.5718  -17.1980    7.8699 H   0  0  0  0  0  0  0  0  0  0  0  0
   -7.9798  -17.1462    8.5171 H   0  0  0  0  0  0  0  0  0  0  0  0
   -9.0210  -15.7721    4.5470 H   0  0  0  0  0  0  0  0  0  0  0  0
   -6.6159  -15.8299    3.8997 H   0  0  0  0  0  0  0  0  0  0  0  0
   -3.2870  -13.4994    3.6317 H   0  0  0  0  0  0  0  0  0  0  0  0
   -1.0944  -13.0031    2.5634 H   0  0  0  0  0  0  0  0  0  0  0  0
   -0.0260  -15.0207   -0.2673 H   0  0  0  0  0  0  0  0  0  0  0  0
    5.8462  -15.8823   -1.4232 H   0  0  0  0  0  0  0  0  0  0  0  0
    6.6616  -15.7640   -3.7661 H   0  0  0  0  0  0  0  0  0  0  0  0
    8.3530  -13.6812   -5.5379 H   0  0  0  0  0  0  0  0  0  0  0  0
    7.6169  -15.3074   -5.2459 H   0  0  0  0  0  0  0  0  0  0  0  0
    8.6619  -15.0389   -7.5416 H   0  0  0  0  0  0  0  0  0  0  0  0
    6.9110  -15.4795   -7.5583 H   0  0  0  0  0  0  0  0  0  0  0  0
  1  2  1  0
  2  3  1  0
  3  4  1  0
  4  5  1  0
  5  6  1  0
  6  7  2  0
  7  8  1  0
  8  9  2  0
  9 10  1  0
 10 11  1  0
 11 12  2  0
 12 13  1  0
 13 14  1  0
 14 15  1  0
 14 16  2  0
 16 17  1  0
 17 18  2  0
 18 19  1  0
 19 20  2  0
 20 21  1  0
 21 22  1  0
 22 23  2  0
 22 24  1  0
 24 25  2  0
 25 26  1  0
 26 27  2  0
 27 28  1  0
 28 29  1  0
 28 30  1  0
 28 31  1  0
 27 32  1  0
 32 33  2  0
 20 34  1  0
 34 35  2  0
 16 36  1  0
 36 37  2  0
 37 38  1  0
  9 39  1  0
 39 40  2  0
  5 41  1  0
 41 42  1  0
 42  2  1  0
 40  6  1  0
 38 10  2  0
 38 13  1  0
 35 17  1  0
 33 24  1  0
  1 43  1  0
  1 44  1  0
  1 45  1  0
  2 46  1  0
  3 47  1  0
  3 48  1  0
  4 49  1  0
  4 50  1  0
  7 51  1  0
  8 52  1  0
 11 53  1  0
 15 54  1  0
 15 55  1  0
 18 56  1  0
 19 57  1  0
 21 58  1  0
 25 59  1  0
 26 60  1  0
 32 61  1  0
 33 62  1  0
 34 63  1  0
 35 64  1  0
 36 65  1  0
 39 66  1  0
 40 67  1  0
 41 68  1  0
 41 69  1  0
 42 70  1  0
 42 71  1  0
M  CHG  1   2   1
M  END
>  <meeko>  (9) 
{"is_sidechain": [false], "free_energy": -8.168, "intermolecular_energy": -11.082, "internal_energy": -1.081}

$$$$
