LIB_AIHATKMPAGBKRW__M_PUB_ALL__e8__s20260927
     RDKit          3D

 68 73  0  0  0  0  0  0  0  0999 V2000
    6.0950  -12.6810   -8.1170 C   0  0  0  0  0  0  0  0  0  0  0  0
    5.6200  -13.4580   -7.0260 O   0  0  0  0  0  0  0  0  0  0  0  0
    5.9710  -12.8830   -5.7630 C   0  0  1  0  0  0  0  0  0  0  0  0
    4.8960  -12.0900   -5.2490 O   0  0  0  0  0  0  0  0  0  0  0  0
    3.7010  -12.8560   -5.0280 C   0  0  2  0  0  0  0  0  0  0  0  0
    2.6240  -11.8820   -4.5190 C   0  0  0  0  0  0  0  0  0  0  0  0
    3.1410  -11.1180   -3.4300 O   0  0  0  0  0  0  0  0  0  0  0  0
    2.3940  -11.0810   -2.2850 C   0  0  0  0  0  0  0  0  0  0  0  0
    2.5410  -11.9190   -1.1810 C   0  0  0  0  0  0  0  0  0  0  0  0
    1.6990  -11.7730   -0.0710 C   0  0  0  0  0  0  0  0  0  0  0  0
    0.6980  -10.7900   -0.0370 C   0  0  0  0  0  0  0  0  0  0  0  0
   -0.1820  -10.6400    1.1330 C   0  0  0  0  0  0  0  0  0  0  0  0
   -0.4700  -11.7330    1.9680 C   0  0  0  0  0  0  0  0  0  0  0  0
   -1.3050  -11.5930    3.0790 C   0  0  0  0  0  0  0  0  0  0  0  0
   -1.8670  -10.3540    3.3760 C   0  0  0  0  0  0  0  0  0  0  0  0
   -1.5940   -9.2570    2.5630 C   0  0  0  0  0  0  0  0  0  0  0  0
   -0.7600   -9.4000    1.4520 C   0  0  0  0  0  0  0  0  0  0  0  0
    0.5650   -9.9540   -1.1560 C   0  0  0  0  0  0  0  0  0  0  0  0
    1.4030  -10.1000   -2.2650 C   0  0  0  0  0  0  0  0  0  0  0  0
    3.9460  -14.0020   -4.0320 C   0  0  1  0  0  0  0  0  0  0  0  0
    2.8210  -14.8830   -3.9030 O   0  0  0  0  0  0  0  0  0  0  0  0
    5.1500  -14.8570   -4.4530 C   0  0  2  0  0  0  0  0  0  0  0  0
    5.4380  -15.7700   -3.3770 O   0  0  0  0  0  0  0  0  0  0  0  0
    6.3670  -13.9760   -4.7480 C   0  0  1  0  0  0  0  0  0  0  0  0
    7.4260  -14.7810   -5.3080 O   0  0  0  0  0  0  0  0  0  0  0  0
    8.6800  -14.3770   -4.9380 C   0  0  0  0  0  0  0  0  0  0  0  0
    9.7520  -14.3690   -5.8490 C   0  0  0  0  0  0  0  0  0  0  0  0
   11.0090  -13.9200   -5.4510 C   0  0  0  0  0  0  0  0  0  0  0  0
   11.1280  -13.4750   -4.1460 C   0  0  0  0  0  0  0  0  0  0  0  0
   10.0690  -13.4370   -3.2190 C   0  0  0  0  0  0  0  0  0  0  0  0
    8.8250  -13.8910   -3.6330 C   0  0  0  0  0  0  0  0  0  0  0  0
   10.4630  -12.8980   -1.9150 C   0  0  0  0  0  0  0  0  0  0  0  0
    9.6850  -12.7110   -0.7810 C   0  0  0  0  0  0  0  0  0  0  0  0
   10.2770  -12.1720    0.3720 C   0  0  0  0  0  0  0  0  0  0  0  0
   11.6390  -11.8200    0.3950 C   0  0  0  0  0  0  0  0  0  0  0  0
   12.4350  -12.0000   -0.7320 C   0  0  0  0  0  0  0  0  0  0  0  0
   11.8210  -12.5330   -1.8520 C   0  0  0  0  0  0  0  0  0  0  0  0
   12.5970  -12.8570   -3.3970 S   0  0  0  0  0  0  0  0  0  0  0  0
   12.9390  -11.5960   -4.0170 O   0  0  0  0  0  0  0  0  0  0  0  0
   13.5220  -13.9570   -3.2260 O   0  0  0  0  0  0  0  0  0  0  0  0
    6.6328  -11.8012   -7.7339 H   0  0  0  0  0  0  0  0  0  0  0  0
    6.7762  -13.2886   -8.7308 H   0  0  0  0  0  0  0  0  0  0  0  0
    5.2436  -12.3517   -8.7308 H   0  0  0  0  0  0  0  0  0  0  0  0
    6.8412  -12.2290   -5.9212 H   0  0  0  0  0  0  0  0  0  0  0  0
    3.3709  -13.3332   -5.9625 H   0  0  0  0  0  0  0  0  0  0  0  0
    2.3298  -11.2042   -5.3338 H   0  0  0  0  0  0  0  0  0  0  0  0
    1.7479  -12.4537   -4.1789 H   0  0  0  0  0  0  0  0  0  0  0  0
    3.3194  -12.6962   -1.1813 H   0  0  0  0  0  0  0  0  0  0  0  0
    1.8251  -12.4430    0.7922 H   0  0  0  0  0  0  0  0  0  0  0  0
   -0.0303  -12.7158    1.7428 H   0  0  0  0  0  0  0  0  0  0  0  0
   -1.5186  -12.4615    3.7193 H   0  0  0  0  0  0  0  0  0  0  0  0
   -2.5248  -10.2422    4.2505 H   0  0  0  0  0  0  0  0  0  0  0  0
   -2.0356   -8.2769    2.7960 H   0  0  0  0  0  0  0  0  0  0  0  0
   -0.5522   -8.5269    0.8160 H   0  0  0  0  0  0  0  0  0  0  0  0
   -0.2095   -9.1729   -1.1605 H   0  0  0  0  0  0  0  0  0  0  0  0
    1.2795   -9.4338   -3.1316 H   0  0  0  0  0  0  0  0  0  0  0  0
    4.1309  -13.5080   -3.0667 H   0  0  0  0  0  0  0  0  0  0  0  0
    2.6620  -15.0130   -2.9460 H   0  0  0  0  0  0  0  0  0  0  0  0
    4.9158  -15.4109   -5.3741 H   0  0  0  0  0  0  0  0  0  0  0  0
    4.5780  -16.1940   -3.1760 H   0  0  0  0  0  0  0  0  0  0  0  0
    6.7149  -13.5107   -3.8139 H   0  0  0  0  0  0  0  0  0  0  0  0
    9.5968  -14.7189   -6.8802 H   0  0  0  0  0  0  0  0  0  0  0  0
   11.8659  -13.9192   -6.1408 H   0  0  0  0  0  0  0  0  0  0  0  0
    7.9658  -13.8694   -2.9465 H   0  0  0  0  0  0  0  0  0  0  0  0
    8.6188  -12.9815   -0.7857 H   0  0  0  0  0  0  0  0  0  0  0  0
    9.6651  -12.0221    1.2737 H   0  0  0  0  0  0  0  0  0  0  0  0
   12.0782  -11.3990    1.3115 H   0  0  0  0  0  0  0  0  0  0  0  0
   13.5017  -11.7314   -0.7327 H   0  0  0  0  0  0  0  0  0  0  0  0
  1  2  1  0
  2  3  1  0
  3  4  1  0
  4  5  1  0
  5  6  1  0
  6  7  1  0
  7  8  1  0
  8  9  2  0
  9 10  1  0
 10 11  2  0
 11 12  1  0
 12 13  2  0
 13 14  1  0
 14 15  2  0
 15 16  1  0
 16 17  2  0
 11 18  1  0
 18 19  2  0
  5 20  1  0
 20 21  1  0
 20 22  1  0
 22 23  1  0
 22 24  1  0
 24 25  1  0
 25 26  1  0
 26 27  2  0
 27 28  1  0
 28 29  2  0
 29 30  1  0
 30 31  2  0
 30 32  1  0
 32 33  2  0
 33 34  1  0
 34 35  2  0
 35 36  1  0
 36 37  2  0
 37 38  1  0
 38 39  2  0
 38 40  2  0
 24  3  1  0
 31 26  1  0
 37 32  1  0
 19  8  1  0
 38 29  1  0
 17 12  1  0
  1 41  1  0
  1 42  1  0
  1 43  1  0
  3 44  1  6
  5 45  1  6
  6 46  1  0
  6 47  1  0
  9 48  1  0
 10 49  1  0
 13 50  1  0
 14 51  1  0
 15 52  1  0
 16 53  1  0
 17 54  1  0
 18 55  1  0
 19 56  1  0
 20 57  1  1
 21 58  1  0
 22 59  1  6
 23 60  1  0
 24 61  1  1
 27 62  1  0
 28 63  1  0
 31 64  1  0
 33 65  1  0
 34 66  1  0
 35 67  1  0
 36 68  1  0
M  END
>  <meeko>  (1) 
{"is_sidechain": [false], "free_energy": -9.137, "intermolecular_energy": -13.41, "internal_energy": -1.513}

$$$$
LIB_AIHATKMPAGBKRW__M_PUB_ALL__e8__s20260927
     RDKit          3D

 68 73  0  0  0  0  0  0  0  0999 V2000
   11.8470  -17.7160   -4.2950 C   0  0  0  0  0  0  0  0  0  0  0  0
   12.4080  -16.4110   -4.3410 O   0  0  0  0  0  0  0  0  0  0  0  0
   11.4240  -15.4120   -4.6280 C   0  0  1  0  0  0  0  0  0  0  0  0
   10.7900  -14.9620   -3.4260 O   0  0  0  0  0  0  0  0  0  0  0  0
   11.7160  -14.3670   -2.5030 C   0  0  2  0  0  0  0  0  0  0  0  0
   10.9160  -13.9680   -1.2500 C   0  0  0  0  0  0  0  0  0  0  0  0
   10.4600  -12.6220   -1.3780 O   0  0  0  0  0  0  0  0  0  0  0  0
    9.1530  -12.4390   -1.7370 C   0  0  0  0  0  0  0  0  0  0  0  0
    8.0380  -12.6900   -0.9400 C   0  0  0  0  0  0  0  0  0  0  0  0
    6.7500  -12.4620   -1.4410 C   0  0  0  0  0  0  0  0  0  0  0  0
    6.5470  -11.9780   -2.7420 C   0  0  0  0  0  0  0  0  0  0  0  0
    5.1900  -11.7390   -3.2620 C   0  0  0  0  0  0  0  0  0  0  0  0
    4.9170  -11.8130   -4.6380 C   0  0  0  0  0  0  0  0  0  0  0  0
    3.6310  -11.5860   -5.1320 C   0  0  0  0  0  0  0  0  0  0  0  0
    2.5910  -11.2810   -4.2560 C   0  0  0  0  0  0  0  0  0  0  0  0
    2.8390  -11.2030   -2.8880 C   0  0  0  0  0  0  0  0  0  0  0  0
    4.1270  -11.4300   -2.3960 C   0  0  0  0  0  0  0  0  0  0  0  0
    7.6790  -11.7300   -3.5310 C   0  0  0  0  0  0  0  0  0  0  0  0
    8.9660  -11.9590   -3.0340 C   0  0  0  0  0  0  0  0  0  0  0  0
   12.4310  -13.1560   -3.1280 C   0  0  1  0  0  0  0  0  0  0  0  0
   13.4730  -12.6290   -2.2960 O   0  0  0  0  0  0  0  0  0  0  0  0
   13.0640  -13.5220   -4.4780 C   0  0  2  0  0  0  0  0  0  0  0  0
   13.5300  -12.3030   -5.0890 O   0  0  0  0  0  0  0  0  0  0  0  0
   12.0490  -14.2220   -5.3850 C   0  0  1  0  0  0  0  0  0  0  0  0
   12.7100  -14.7090   -6.5720 O   0  0  0  0  0  0  0  0  0  0  0  0
   12.2790  -14.1180   -7.7270 C   0  0  0  0  0  0  0  0  0  0  0  0
   13.1730  -13.5020   -8.6210 C   0  0  0  0  0  0  0  0  0  0  0  0
   12.7060  -12.9380   -9.8060 C   0  0  0  0  0  0  0  0  0  0  0  0
   11.3480  -13.0380  -10.0520 C   0  0  0  0  0  0  0  0  0  0  0  0
   10.4300  -13.6770   -9.1960 C   0  0  0  0  0  0  0  0  0  0  0  0
   10.9130  -14.2310   -8.0190 C   0  0  0  0  0  0  0  0  0  0  0  0
    9.0570  -13.6600   -9.7080 C   0  0  0  0  0  0  0  0  0  0  0  0
    7.9110  -14.1960   -9.1370 C   0  0  0  0  0  0  0  0  0  0  0  0
    6.6870  -14.0630   -9.8110 C   0  0  0  0  0  0  0  0  0  0  0  0
    6.6050  -13.3990  -11.0490 C   0  0  0  0  0  0  0  0  0  0  0  0
    7.7440  -12.8560  -11.6370 C   0  0  0  0  0  0  0  0  0  0  0  0
    8.9340  -13.0050  -10.9470 C   0  0  0  0  0  0  0  0  0  0  0  0
   10.5080  -12.4160  -11.4690 S   0  0  0  0  0  0  0  0  0  0  0  0
   10.9260  -13.1750  -12.6260 O   0  0  0  0  0  0  0  0  0  0  0  0
   10.5050  -10.9700  -11.4010 O   0  0  0  0  0  0  0  0  0  0  0  0
   11.7155  -18.0218   -3.2466 H   0  0  0  0  0  0  0  0  0  0  0  0
   10.8705  -17.7134   -4.8014 H   0  0  0  0  0  0  0  0  0  0  0  0
   12.5208  -18.4228   -4.8014 H   0  0  0  0  0  0  0  0  0  0  0  0
   10.6597  -15.8682   -5.2743 H   0  0  0  0  0  0  0  0  0  0  0  0
   12.5082  -15.0824   -2.2374 H   0  0  0  0  0  0  0  0  0  0  0  0
   10.0507  -14.6382   -1.1401 H   0  0  0  0  0  0  0  0  0  0  0  0
   11.5625  -14.0505   -0.3639 H   0  0  0  0  0  0  0  0  0  0  0  0
    8.1695  -13.0679    0.0846 H   0  0  0  0  0  0  0  0  0  0  0  0
    5.8793  -12.6668   -0.8008 H   0  0  0  0  0  0  0  0  0  0  0  0
    5.7304  -12.0539   -5.3383 H   0  0  0  0  0  0  0  0  0  0  0  0
    3.4386  -11.6479   -6.2133 H   0  0  0  0  0  0  0  0  0  0  0  0
    1.5773  -11.1024   -4.6440 H   0  0  0  0  0  0  0  0  0  0  0  0
    2.0202  -10.9625   -2.1940 H   0  0  0  0  0  0  0  0  0  0  0  0
    4.3119  -11.3658   -1.3136 H   0  0  0  0  0  0  0  0  0  0  0  0
    7.5531  -11.3499   -4.5555 H   0  0  0  0  0  0  0  0  0  0  0  0
    9.8396  -11.7588   -3.6718 H   0  0  0  0  0  0  0  0  0  0  0  0
   11.6485  -12.3929   -3.2523 H   0  0  0  0  0  0  0  0  0  0  0  0
   13.1290  -12.6030   -1.3800 H   0  0  0  0  0  0  0  0  0  0  0  0
   13.9007  -14.2196   -4.3253 H   0  0  0  0  0  0  0  0  0  0  0  0
   14.5000  -12.3120   -4.9510 H   0  0  0  0  0  0  0  0  0  0  0  0
   11.2634  -13.5072   -5.6712 H   0  0  0  0  0  0  0  0  0  0  0  0
   14.2464  -13.4654   -8.3833 H   0  0  0  0  0  0  0  0  0  0  0  0
   13.3843  -12.4371  -10.5124 H   0  0  0  0  0  0  0  0  0  0  0  0
   10.2346  -14.7505   -7.3263 H   0  0  0  0  0  0  0  0  0  0  0  0
    7.9613  -14.7177   -8.1699 H   0  0  0  0  0  0  0  0  0  0  0  0
    5.7753  -14.4855   -9.3634 H   0  0  0  0  0  0  0  0  0  0  0  0
    5.6331  -13.3083  -11.5562 H   0  0  0  0  0  0  0  0  0  0  0  0
    7.7000  -12.3335  -12.6040 H   0  0  0  0  0  0  0  0  0  0  0  0
  1  2  1  0
  2  3  1  0
  3  4  1  0
  4  5  1  0
  5  6  1  0
  6  7  1  0
  7  8  1  0
  8  9  2  0
  9 10  1  0
 10 11  2  0
 11 12  1  0
 12 13  2  0
 13 14  1  0
 14 15  2  0
 15 16  1  0
 16 17  2  0
 11 18  1  0
 18 19  2  0
  5 20  1  0
 20 21  1  0
 20 22  1  0
 22 23  1  0
 22 24  1  0
 24 25  1  0
 25 26  1  0
 26 27  2  0
 27 28  1  0
 28 29  2  0
 29 30  1  0
 30 31  2  0
 30 32  1  0
 32 33  2  0
 33 34  1  0
 34 35  2  0
 35 36  1  0
 36 37  2  0
 37 38  1  0
 38 39  2  0
 38 40  2  0
 24  3  1  0
 31 26  1  0
 37 32  1  0
 19  8  1  0
 38 29  1  0
 17 12  1  0
  1 41  1  0
  1 42  1  0
  1 43  1  0
  3 44  1  6
  5 45  1  1
  6 46  1  0
  6 47  1  0
  9 48  1  0
 10 49  1  0
 13 50  1  0
 14 51  1  0
 15 52  1  0
 16 53  1  0
 17 54  1  0
 18 55  1  0
 19 56  1  0
 20 57  1  6
 21 58  1  0
 22 59  1  1
 23 60  1  0
 24 61  1  6
 27 62  1  0
 28 63  1  0
 31 64  1  0
 33 65  1  0
 34 66  1  0
 35 67  1  0
 36 68  1  0
M  END
>  <meeko>  (2) 
{"is_sidechain": [false], "free_energy": -9.075, "intermolecular_energy": -13.011, "internal_energy": -1.822}

$$$$
LIB_AIHATKMPAGBKRW__M_PUB_ALL__e8__s20260927
     RDKit          3D

 68 73  0  0  0  0  0  0  0  0999 V2000
    1.1100  -14.8610    5.0820 C   0  0  0  0  0  0  0  0  0  0  0  0
    0.5700  -15.6290    4.0160 O   0  0  0  0  0  0  0  0  0  0  0  0
   -0.8080  -15.3260    3.7790 C   0  0  1  0  0  0  0  0  0  0  0  0
   -0.9670  -14.5950    2.5590 O   0  0  0  0  0  0  0  0  0  0  0  0
   -0.5090  -15.3280    1.4110 C   0  0  2  0  0  0  0  0  0  0  0  0
   -0.6970  -14.4180    0.1850 C   0  0  0  0  0  0  0  0  0  0  0  0
    0.1670  -13.2860    0.2870 O   0  0  0  0  0  0  0  0  0  0  0  0
    0.9410  -12.9930   -0.8020 C   0  0  0  0  0  0  0  0  0  0  0  0
    1.6030  -11.7900   -1.0400 C   0  0  0  0  0  0  0  0  0  0  0  0
    2.3610  -11.6240   -2.2060 C   0  0  0  0  0  0  0  0  0  0  0  0
    2.4760  -12.6510   -3.1560 C   0  0  0  0  0  0  0  0  0  0  0  0
    3.2760  -12.4700   -4.3790 C   0  0  0  0  0  0  0  0  0  0  0  0
    4.0090  -13.5350   -4.9290 C   0  0  0  0  0  0  0  0  0  0  0  0
    4.7680  -13.3650   -6.0890 C   0  0  0  0  0  0  0  0  0  0  0  0
    4.8070  -12.1240   -6.7210 C   0  0  0  0  0  0  0  0  0  0  0  0
    4.0870  -11.0550   -6.1930 C   0  0  0  0  0  0  0  0  0  0  0  0
    3.3290  -11.2280   -5.0320 C   0  0  0  0  0  0  0  0  0  0  0  0
    1.8040  -13.8550   -2.9010 C   0  0  0  0  0  0  0  0  0  0  0  0
    1.0450  -14.0220   -1.7380 C   0  0  0  0  0  0  0  0  0  0  0  0
   -1.2700  -16.6560    1.2540 C   0  0  1  0  0  0  0  0  0  0  0  0
   -0.7390  -17.4870    0.2140 O   0  0  0  0  0  0  0  0  0  0  0  0
   -1.2370  -17.4720    2.5540 C   0  0  2  0  0  0  0  0  0  0  0  0
   -2.1330  -18.5890    2.3940 O   0  0  0  0  0  0  0  0  0  0  0  0
   -1.6600  -16.6130    3.7490 C   0  0  1  0  0  0  0  0  0  0  0  0
   -1.4540  -17.3470    4.9740 O   0  0  0  0  0  0  0  0  0  0  0  0
   -2.2650  -16.9470    6.0000 C   0  0  0  0  0  0  0  0  0  0  0  0
   -1.7420  -16.5360    7.2390 C   0  0  0  0  0  0  0  0  0  0  0  0
   -2.5930  -16.1030    8.2530 C   0  0  0  0  0  0  0  0  0  0  0  0
   -3.9460  -16.0820    7.9650 C   0  0  0  0  0  0  0  0  0  0  0  0
   -4.5010  -16.4540    6.7260 C   0  0  0  0  0  0  0  0  0  0  0  0
   -3.6380  -16.8850    5.7290 C   0  0  0  0  0  0  0  0  0  0  0  0
   -5.9590  -16.3150    6.6820 C   0  0  0  0  0  0  0  0  0  0  0  0
   -6.8260  -16.5810    5.6300 C   0  0  0  0  0  0  0  0  0  0  0  0
   -8.2020  -16.3730    5.8110 C   0  0  0  0  0  0  0  0  0  0  0  0
   -8.7130  -15.9010    7.0340 C   0  0  0  0  0  0  0  0  0  0  0  0
   -7.8590  -15.6280    8.0990 C   0  0  0  0  0  0  0  0  0  0  0  0
   -6.5090  -15.8440    7.8880 C   0  0  0  0  0  0  0  0  0  0  0  0
   -5.2270  -15.5770    9.0630 S   0  0  0  0  0  0  0  0  0  0  0  0
   -5.1030  -14.1560    9.2990 O   0  0  0  0  0  0  0  0  0  0  0  0
   -5.3490  -16.5680   10.1110 O   0  0  0  0  0  0  0  0  0  0  0  0
    0.8017  -15.2994    6.0426 H   0  0  0  0  0  0  0  0  0  0  0  0
    2.2079  -14.8610    5.0144 H   0  0  0  0  0  0  0  0  0  0  0  0
    0.7385  -13.8278    5.0144 H   0  0  0  0  0  0  0  0  0  0  0  0
   -1.1610  -14.6972    4.6096 H   0  0  0  0  0  0  0  0  0  0  0  0
    0.5512  -15.5983    1.5245 H   0  0  0  0  0  0  0  0  0  0  0  0
   -0.4551  -14.9811   -0.7285 H   0  0  0  0  0  0  0  0  0  0  0  0
   -1.7415  -14.0756    0.1431 H   0  0  0  0  0  0  0  0  0  0  0  0
    1.5301  -10.9695   -0.3110 H   0  0  0  0  0  0  0  0  0  0  0  0
    2.8772  -10.6685   -2.3810 H   0  0  0  0  0  0  0  0  0  0  0  0
    3.9847  -14.5190   -4.4379 H   0  0  0  0  0  0  0  0  0  0  0  0
    5.3352  -14.2113   -6.5038 H   0  0  0  0  0  0  0  0  0  0  0  0
    5.4048  -11.9888   -7.6345 H   0  0  0  0  0  0  0  0  0  0  0  0
    4.1151  -10.0742   -6.6902 H   0  0  0  0  0  0  0  0  0  0  0  0
    2.7645  -10.3772   -4.6228 H   0  0  0  0  0  0  0  0  0  0  0  0
    1.8747  -14.6796   -3.6256 H   0  0  0  0  0  0  0  0  0  0  0  0
    0.5247  -14.9746   -1.5597 H   0  0  0  0  0  0  0  0  0  0  0  0
   -2.2995  -16.3678    0.9949 H   0  0  0  0  0  0  0  0  0  0  0  0
   -1.2840  -17.3380   -0.5850 H   0  0  0  0  0  0  0  0  0  0  0  0
   -0.2140  -17.8249    2.7514 H   0  0  0  0  0  0  0  0  0  0  0  0
   -2.6340  -18.6270    3.2350 H   0  0  0  0  0  0  0  0  0  0  0  0
   -2.7248  -16.3542    3.6524 H   0  0  0  0  0  0  0  0  0  0  0  0
   -0.6553  -16.5566    7.4082 H   0  0  0  0  0  0  0  0  0  0  0  0
   -2.2079  -15.7927    9.2355 H   0  0  0  0  0  0  0  0  0  0  0  0
   -4.0258  -17.1736    4.7409 H   0  0  0  0  0  0  0  0  0  0  0  0
   -6.4395  -16.9496    4.6684 H   0  0  0  0  0  0  0  0  0  0  0  0
   -8.8936  -16.5828    4.9817 H   0  0  0  0  0  0  0  0  0  0  0  0
   -9.7959  -15.7465    7.1496 H   0  0  0  0  0  0  0  0  0  0  0  0
   -8.2396  -15.2581    9.0625 H   0  0  0  0  0  0  0  0  0  0  0  0
  1  2  1  0
  2  3  1  0
  3  4  1  0
  4  5  1  0
  5  6  1  0
  6  7  1  0
  7  8  1  0
  8  9  2  0
  9 10  1  0
 10 11  2  0
 11 12  1  0
 12 13  2  0
 13 14  1  0
 14 15  2  0
 15 16  1  0
 16 17  2  0
 11 18  1  0
 18 19  2  0
  5 20  1  0
 20 21  1  0
 20 22  1  0
 22 23  1  0
 22 24  1  0
 24 25  1  0
 25 26  1  0
 26 27  2  0
 27 28  1  0
 28 29  2  0
 29 30  1  0
 30 31  2  0
 30 32  1  0
 32 33  2  0
 33 34  1  0
 34 35  2  0
 35 36  1  0
 36 37  2  0
 37 38  1  0
 38 39  2  0
 38 40  2  0
 24  3  1  0
 31 26  1  0
 37 32  1  0
 19  8  1  0
 38 29  1  0
 17 12  1  0
  1 41  1  0
  1 42  1  0
  1 43  1  0
  3 44  1  1
  5 45  1  1
  6 46  1  0
  6 47  1  0
  9 48  1  0
 10 49  1  0
 13 50  1  0
 14 51  1  0
 15 52  1  0
 16 53  1  0
 17 54  1  0
 18 55  1  0
 19 56  1  0
 20 57  1  6
 21 58  1  0
 22 59  1  1
 23 60  1  0
 24 61  1  6
 27 62  1  0
 28 63  1  0
 31 64  1  0
 33 65  1  0
 34 66  1  0
 35 67  1  0
 36 68  1  0
M  END
>  <meeko>  (3) 
{"is_sidechain": [false], "free_energy": -8.921, "intermolecular_energy": -13.197, "internal_energy": -1.41}

$$$$
LIB_AIHATKMPAGBKRW__M_PUB_ALL__e8__s20260927
     RDKit          3D

 68 73  0  0  0  0  0  0  0  0999 V2000
   11.0840  -18.9850   12.5170 C   0  0  0  0  0  0  0  0  0  0  0  0
   11.4800  -18.0350   13.4980 O   0  0  0  0  0  0  0  0  0  0  0  0
   12.3630  -17.0450   12.9620 C   0  0  1  0  0  0  0  0  0  0  0  0
   11.7460  -15.7540   12.9700 O   0  0  0  0  0  0  0  0  0  0  0  0
   11.3990  -15.3160   14.2930 C   0  0  2  0  0  0  0  0  0  0  0  0
   10.7130  -13.9450   14.1540 C   0  0  0  0  0  0  0  0  0  0  0  0
   10.9260  -13.4310   12.8400 O   0  0  0  0  0  0  0  0  0  0  0  0
   12.0150  -12.6250   12.6560 C   0  0  0  0  0  0  0  0  0  0  0  0
   13.1250  -12.9120   11.8630 C   0  0  0  0  0  0  0  0  0  0  0  0
   14.1770  -11.9920   11.7690 C   0  0  0  0  0  0  0  0  0  0  0  0
   14.1450  -10.7700   12.4590 C   0  0  0  0  0  0  0  0  0  0  0  0
   15.2540   -9.8070   12.3530 C   0  0  0  0  0  0  0  0  0  0  0  0
   16.5760  -10.1930   12.6300 C   0  0  0  0  0  0  0  0  0  0  0  0
   17.6290   -9.2810   12.5310 C   0  0  0  0  0  0  0  0  0  0  0  0
   17.3780   -7.9640   12.1510 C   0  0  0  0  0  0  0  0  0  0  0  0
   16.0740   -7.5610   11.8710 C   0  0  0  0  0  0  0  0  0  0  0  0
   15.0230   -8.4750   11.9720 C   0  0  0  0  0  0  0  0  0  0  0  0
   13.0200  -10.4970   13.2500 C   0  0  0  0  0  0  0  0  0  0  0  0
   11.9690  -11.4140   13.3470 C   0  0  0  0  0  0  0  0  0  0  0  0
   12.6390  -15.2390   15.2010 C   0  0  1  0  0  0  0  0  0  0  0  0
   12.3160  -14.9560   16.5690 O   0  0  0  0  0  0  0  0  0  0  0  0
   13.4250  -16.5580   15.1800 C   0  0  2  0  0  0  0  0  0  0  0  0
   14.6650  -16.3410   15.8810 O   0  0  0  0  0  0  0  0  0  0  0  0
   13.6940  -17.0100   13.7430 C   0  0  1  0  0  0  0  0  0  0  0  0
   14.2750  -18.3310   13.7480 O   0  0  0  0  0  0  0  0  0  0  0  0
   15.3900  -18.4470   12.9640 C   0  0  0  0  0  0  0  0  0  0  0  0
   16.6630  -18.0710   13.4300 C   0  0  0  0  0  0  0  0  0  0  0  0
   17.7840  -18.2330   12.6190 C   0  0  0  0  0  0  0  0  0  0  0  0
   17.5760  -18.7910   11.3700 C   0  0  0  0  0  0  0  0  0  0  0  0
   16.3210  -19.2100   10.8860 C   0  0  0  0  0  0  0  0  0  0  0  0
   15.2160  -19.0380   11.7060 C   0  0  0  0  0  0  0  0  0  0  0  0
   16.3870  -19.7880    9.5410 C   0  0  0  0  0  0  0  0  0  0  0  0
   15.3570  -20.3060    8.7670 C   0  0  0  0  0  0  0  0  0  0  0  0
   15.6510  -20.8150    7.4930 C   0  0  0  0  0  0  0  0  0  0  0  0
   16.9660  -20.8110    6.9920 C   0  0  0  0  0  0  0  0  0  0  0  0
   18.0110  -20.2980    7.7540 C   0  0  0  0  0  0  0  0  0  0  0  0
   17.6880  -19.8030    9.0050 C   0  0  0  0  0  0  0  0  0  0  0  0
   18.8160  -19.1050   10.1600 S   0  0  0  0  0  0  0  0  0  0  0  0
   19.6860  -20.1510   10.6490 O   0  0  0  0  0  0  0  0  0  0  0  0
   19.2810  -17.8370    9.6410 O   0  0  0  0  0  0  0  0  0  0  0  0
   10.7066  -19.8904   13.0147 H   0  0  0  0  0  0  0  0  0  0  0  0
   10.2905  -18.5542   11.8887 H   0  0  0  0  0  0  0  0  0  0  0  0
   11.9485  -19.2453   11.8887 H   0  0  0  0  0  0  0  0  0  0  0  0
   12.5819  -17.3191   11.9194 H   0  0  0  0  0  0  0  0  0  0  0  0
   10.7176  -16.0358   14.7702 H   0  0  0  0  0  0  0  0  0  0  0  0
    9.6333  -14.0568   14.3322 H   0  0  0  0  0  0  0  0  0  0  0  0
   11.1392  -13.2483   14.8909 H   0  0  0  0  0  0  0  0  0  0  0  0
   13.1748  -13.8619   11.3105 H   0  0  0  0  0  0  0  0  0  0  0  0
   15.0473  -12.2324   11.1407 H   0  0  0  0  0  0  0  0  0  0  0  0
   16.7852  -11.2305   12.9298 H   0  0  0  0  0  0  0  0  0  0  0  0
   18.6573   -9.6025   12.7531 H   0  0  0  0  0  0  0  0  0  0  0  0
   18.2067   -7.2449   12.0724 H   0  0  0  0  0  0  0  0  0  0  0  0
   15.8722   -6.5223   11.5702 H   0  0  0  0  0  0  0  0  0  0  0  0
   13.9971   -8.1463   11.7495 H   0  0  0  0  0  0  0  0  0  0  0  0
   12.9634   -9.5474   13.8024 H   0  0  0  0  0  0  0  0  0  0  0  0
   11.0969  -11.1781   13.9746 H   0  0  0  0  0  0  0  0  0  0  0  0
   13.2415  -14.4133   14.7945 H   0  0  0  0  0  0  0  0  0  0  0  0
   12.3980  -15.7950   17.0670 H   0  0  0  0  0  0  0  0  0  0  0  0
   12.8415  -17.3525   15.6682 H   0  0  0  0  0  0  0  0  0  0  0  0
   15.3550  -16.4080   15.1900 H   0  0  0  0  0  0  0  0  0  0  0  0
   14.3904  -16.3057   13.2645 H   0  0  0  0  0  0  0  0  0  0  0  0
   16.7737  -17.6473   14.4391 H   0  0  0  0  0  0  0  0  0  0  0  0
   18.7869  -17.9316   12.9556 H   0  0  0  0  0  0  0  0  0  0  0  0
   14.2183  -19.3607   11.3737 H   0  0  0  0  0  0  0  0  0  0  0  0
   14.3249  -20.3171    9.1474 H   0  0  0  0  0  0  0  0  0  0  0  0
   14.8388  -21.2246    6.8745 H   0  0  0  0  0  0  0  0  0  0  0  0
   17.1694  -21.2167    5.9900 H   0  0  0  0  0  0  0  0  0  0  0  0
   19.0452  -20.2865    7.3795 H   0  0  0  0  0  0  0  0  0  0  0  0
  1  2  1  0
  2  3  1  0
  3  4  1  0
  4  5  1  0
  5  6  1  0
  6  7  1  0
  7  8  1  0
  8  9  2  0
  9 10  1  0
 10 11  2  0
 11 12  1  0
 12 13  2  0
 13 14  1  0
 14 15  2  0
 15 16  1  0
 16 17  2  0
 11 18  1  0
 18 19  2  0
  5 20  1  0
 20 21  1  0
 20 22  1  0
 22 23  1  0
 22 24  1  0
 24 25  1  0
 25 26  1  0
 26 27  2  0
 27 28  1  0
 28 29  2  0
 29 30  1  0
 30 31  2  0
 30 32  1  0
 32 33  2  0
 33 34  1  0
 34 35  2  0
 35 36  1  0
 36 37  2  0
 37 38  1  0
 38 39  2  0
 38 40  2  0
 24  3  1  0
 31 26  1  0
 37 32  1  0
 19  8  1  0
 38 29  1  0
 17 12  1  0
  1 41  1  0
  1 42  1  0
  1 43  1  0
  3 44  1  6
  5 45  1  1
  6 46  1  0
  6 47  1  0
  9 48  1  0
 10 49  1  0
 13 50  1  0
 14 51  1  0
 15 52  1  0
 16 53  1  0
 17 54  1  0
 18 55  1  0
 19 56  1  0
 20 57  1  6
 21 58  1  0
 22 59  1  1
 23 60  1  0
 24 61  1  6
 27 62  1  0
 28 63  1  0
 31 64  1  0
 33 65  1  0
 34 66  1  0
 35 67  1  0
 36 68  1  0
M  END
>  <meeko>  (4) 
{"is_sidechain": [false], "free_energy": -8.853, "intermolecular_energy": -13.134, "internal_energy": -1.373}

$$$$
LIB_AIHATKMPAGBKRW__M_PUB_ALL__e8__s20260927
     RDKit          3D

 68 73  0  0  0  0  0  0  0  0999 V2000
    6.3540  -14.6020    1.1240 C   0  0  0  0  0  0  0  0  0  0  0  0
    6.1320  -13.5880    0.1540 O   0  0  0  0  0  0  0  0  0  0  0  0
    6.5370  -13.9980   -1.1560 C   0  0  1  0  0  0  0  0  0  0  0  0
    5.3980  -14.2550   -1.9840 O   0  0  0  0  0  0  0  0  0  0  0  0
    4.5700  -13.0940   -2.1600 C   0  0  2  0  0  0  0  0  0  0  0  0
    3.3720  -13.5170   -3.0280 C   0  0  0  0  0  0  0  0  0  0  0  0
    3.7860  -14.5000   -3.9750 O   0  0  0  0  0  0  0  0  0  0  0  0
    4.4270  -14.0530   -5.0970 C   0  0  0  0  0  0  0  0  0  0  0  0
    4.0660  -12.9480   -5.8650 C   0  0  0  0  0  0  0  0  0  0  0  0
    4.8130  -12.6050   -6.9990 C   0  0  0  0  0  0  0  0  0  0  0  0
    5.9350  -13.3530   -7.3890 C   0  0  0  0  0  0  0  0  0  0  0  0
    6.7180  -12.9860   -8.5810 C   0  0  0  0  0  0  0  0  0  0  0  0
    7.6990  -13.8490   -9.0970 C   0  0  0  0  0  0  0  0  0  0  0  0
    8.4420  -13.5020  -10.2270 C   0  0  0  0  0  0  0  0  0  0  0  0
    8.2160  -12.2840  -10.8640 C   0  0  0  0  0  0  0  0  0  0  0  0
    7.2470  -11.4140  -10.3690 C   0  0  0  0  0  0  0  0  0  0  0  0
    6.5060  -11.7630   -9.2380 C   0  0  0  0  0  0  0  0  0  0  0  0
    6.2860  -14.4620   -6.6040 C   0  0  0  0  0  0  0  0  0  0  0  0
    5.5400  -14.8070   -5.4730 C   0  0  0  0  0  0  0  0  0  0  0  0
    5.3560  -11.9370   -2.8020 C   0  0  1  0  0  0  0  0  0  0  0  0
    4.6110  -10.7130   -2.8520 O   0  0  0  0  0  0  0  0  0  0  0  0
    6.6530  -11.6520   -2.0320 C   0  0  2  0  0  0  0  0  0  0  0  0
    7.4230  -10.7090   -2.8030 O   0  0  0  0  0  0  0  0  0  0  0  0
    7.4500  -12.9400   -1.8100 C   0  0  1  0  0  0  0  0  0  0  0  0
    8.5690  -12.6760   -0.9380 O   0  0  0  0  0  0  0  0  0  0  0  0
    9.7860  -12.9290   -1.5090 C   0  0  0  0  0  0  0  0  0  0  0  0
   10.9730  -12.9190   -0.7550 C   0  0  0  0  0  0  0  0  0  0  0  0
   12.1930  -13.2150   -1.3600 C   0  0  0  0  0  0  0  0  0  0  0  0
   12.1610  -13.5310   -2.7070 C   0  0  0  0  0  0  0  0  0  0  0  0
   10.9880  -13.5840   -3.4840 C   0  0  0  0  0  0  0  0  0  0  0  0
    9.7830  -13.2840   -2.8650 C   0  0  0  0  0  0  0  0  0  0  0  0
   11.2350  -13.9680   -4.8760 C   0  0  0  0  0  0  0  0  0  0  0  0
   10.3210  -14.1260   -5.9090 C   0  0  0  0  0  0  0  0  0  0  0  0
   10.7850  -14.5050   -7.1780 C   0  0  0  0  0  0  0  0  0  0  0  0
   12.1530  -14.7270   -7.4170 C   0  0  0  0  0  0  0  0  0  0  0  0
   13.0840  -14.5750   -6.3940 C   0  0  0  0  0  0  0  0  0  0  0  0
   12.5940  -14.2010   -5.1550 C   0  0  0  0  0  0  0  0  0  0  0  0
   13.5530  -13.9440   -3.7020 S   0  0  0  0  0  0  0  0  0  0  0  0
   14.0770  -15.2170   -3.2620 O   0  0  0  0  0  0  0  0  0  0  0  0
   14.3560  -12.7530   -3.8850 O   0  0  0  0  0  0  0  0  0  0  0  0
    6.2599  -14.1720    2.1321 H   0  0  0  0  0  0  0  0  0  0  0  0
    5.6097  -15.4016    0.9955 H   0  0  0  0  0  0  0  0  0  0  0  0
    7.3644  -15.0175    0.9955 H   0  0  0  0  0  0  0  0  0  0  0  0
    7.1103  -14.9312   -1.0536 H   0  0  0  0  0  0  0  0  0  0  0  0
    4.2205  -12.7187   -1.1868 H   0  0  0  0  0  0  0  0  0  0  0  0
    2.5852  -13.9379   -2.3847 H   0  0  0  0  0  0  0  0  0  0  0  0
    2.9821  -12.6383   -3.5628 H   0  0  0  0  0  0  0  0  0  0  0  0
    3.1922  -12.3436   -5.5800 H   0  0  0  0  0  0  0  0  0  0  0  0
    4.5142  -11.7311   -7.5966 H   0  0  0  0  0  0  0  0  0  0  0  0
    7.8848  -14.8139   -8.6027 H   0  0  0  0  0  0  0  0  0  0  0  0
    9.2067  -14.1912  -10.6147 H   0  0  0  0  0  0  0  0  0  0  0  0
    8.8005  -12.0101  -11.7547 H   0  0  0  0  0  0  0  0  0  0  0  0
    7.0655  -10.4514  -10.8695 H   0  0  0  0  0  0  0  0  0  0  0  0
    5.7436  -11.0685   -8.8553 H   0  0  0  0  0  0  0  0  0  0  0  0
    7.1605  -15.0684   -6.8825 H   0  0  0  0  0  0  0  0  0  0  0  0
    5.8331  -15.6814   -4.8734 H   0  0  0  0  0  0  0  0  0  0  0  0
    5.5712  -12.2708   -3.8278 H   0  0  0  0  0  0  0  0  0  0  0  0
    3.8050  -10.8400   -2.3110 H   0  0  0  0  0  0  0  0  0  0  0  0
    6.4194  -11.2375   -1.0402 H   0  0  0  0  0  0  0  0  0  0  0  0
    8.2280  -10.5510   -2.2680 H   0  0  0  0  0  0  0  0  0  0  0  0
    7.8191  -13.3110   -2.7775 H   0  0  0  0  0  0  0  0  0  0  0  0
   10.9383  -12.6764    0.3174 H   0  0  0  0  0  0  0  0  0  0  0  0
   13.1361  -13.1983   -0.7941 H   0  0  0  0  0  0  0  0  0  0  0  0
    8.8399  -13.3241   -3.4297 H   0  0  0  0  0  0  0  0  0  0  0  0
    9.2481  -13.9565   -5.7352 H   0  0  0  0  0  0  0  0  0  0  0  0
   10.0657  -14.6307   -8.0007 H   0  0  0  0  0  0  0  0  0  0  0  0
   12.4900  -15.0234   -8.4213 H   0  0  0  0  0  0  0  0  0  0  0  0
   14.1579  -14.7440   -6.5621 H   0  0  0  0  0  0  0  0  0  0  0  0
  1  2  1  0
  2  3  1  0
  3  4  1  0
  4  5  1  0
  5  6  1  0
  6  7  1  0
  7  8  1  0
  8  9  2  0
  9 10  1  0
 10 11  2  0
 11 12  1  0
 12 13  2  0
 13 14  1  0
 14 15  2  0
 15 16  1  0
 16 17  2  0
 11 18  1  0
 18 19  2  0
  5 20  1  0
 20 21  1  0
 20 22  1  0
 22 23  1  0
 22 24  1  0
 24 25  1  0
 25 26  1  0
 26 27  2  0
 27 28  1  0
 28 29  2  0
 29 30  1  0
 30 31  2  0
 30 32  1  0
 32 33  2  0
 33 34  1  0
 34 35  2  0
 35 36  1  0
 36 37  2  0
 37 38  1  0
 38 39  2  0
 38 40  2  0
 24  3  1  0
 31 26  1  0
 37 32  1  0
 19  8  1  0
 38 29  1  0
 17 12  1  0
  1 41  1  0
  1 42  1  0
  1 43  1  0
  3 44  1  1
  5 45  1  1
  6 46  1  0
  6 47  1  0
  9 48  1  0
 10 49  1  0
 13 50  1  0
 14 51  1  0
 15 52  1  0
 16 53  1  0
 17 54  1  0
 18 55  1  0
 19 56  1  0
 20 57  1  6
 21 58  1  0
 22 59  1  1
 23 60  1  0
 24 61  1  6
 27 62  1  0
 28 63  1  0
 31 64  1  0
 33 65  1  0
 34 66  1  0
 35 67  1  0
 36 68  1  0
M  END
>  <meeko>  (5) 
{"is_sidechain": [false], "free_energy": -8.603, "intermolecular_energy": -12.034, "internal_energy": -2.106}

$$$$
LIB_AIHATKMPAGBKRW__M_PUB_ALL__e8__s20260927
     RDKit          3D

 68 73  0  0  0  0  0  0  0  0999 V2000
    2.1580  -19.3270    4.3900 C   0  0  0  0  0  0  0  0  0  0  0  0
    1.4640  -18.8190    3.2580 O   0  0  0  0  0  0  0  0  0  0  0  0
    0.9500  -17.5040    3.4890 C   0  0  1  0  0  0  0  0  0  0  0  0
    1.6040  -16.5460    2.6490 O   0  0  0  0  0  0  0  0  0  0  0  0
    1.4150  -16.8170    1.2510 C   0  0  2  0  0  0  0  0  0  0  0  0
    2.1970  -15.7470    0.4700 C   0  0  0  0  0  0  0  0  0  0  0  0
    1.3790  -15.2160   -0.5720 O   0  0  0  0  0  0  0  0  0  0  0  0
    2.0080  -14.8340   -1.7240 C   0  0  0  0  0  0  0  0  0  0  0  0
    1.3860  -14.4390   -2.9070 C   0  0  0  0  0  0  0  0  0  0  0  0
    2.1570  -14.0770   -4.0190 C   0  0  0  0  0  0  0  0  0  0  0  0
    3.5600  -14.0990   -3.9750 C   0  0  0  0  0  0  0  0  0  0  0  0
    4.3640  -13.7150   -5.1470 C   0  0  0  0  0  0  0  0  0  0  0  0
    5.4160  -14.5280   -5.6010 C   0  0  0  0  0  0  0  0  0  0  0  0
    6.1800  -14.1650   -6.7130 C   0  0  0  0  0  0  0  0  0  0  0  0
    5.9040  -12.9810   -7.3920 C   0  0  0  0  0  0  0  0  0  0  0  0
    4.8640  -12.1610   -6.9600 C   0  0  0  0  0  0  0  0  0  0  0  0
    4.1020  -12.5250   -5.8470 C   0  0  0  0  0  0  0  0  0  0  0  0
    4.1690  -14.4980   -2.7770 C   0  0  0  0  0  0  0  0  0  0  0  0
    3.4010  -14.8610   -1.6660 C   0  0  0  0  0  0  0  0  0  0  0  0
   -0.0770  -16.8150    0.8770 C   0  0  1  0  0  0  0  0  0  0  0  0
   -0.3170  -17.2340   -0.4740 O   0  0  0  0  0  0  0  0  0  0  0  0
   -0.8820  -17.7470    1.7940 C   0  0  2  0  0  0  0  0  0  0  0  0
   -2.2800  -17.5360    1.5170 O   0  0  0  0  0  0  0  0  0  0  0  0
   -0.5770  -17.4600    3.2660 C   0  0  1  0  0  0  0  0  0  0  0  0
   -1.2050  -18.4580    4.0980 O   0  0  0  0  0  0  0  0  0  0  0  0
   -1.7090  -17.9630    5.2690 C   0  0  0  0  0  0  0  0  0  0  0  0
   -0.9980  -18.0610    6.4790 C   0  0  0  0  0  0  0  0  0  0  0  0
   -1.5230  -17.5170    7.6490 C   0  0  0  0  0  0  0  0  0  0  0  0
   -2.7440  -16.8730    7.5440 C   0  0  0  0  0  0  0  0  0  0  0  0
   -3.4650  -16.7260    6.3440 C   0  0  0  0  0  0  0  0  0  0  0  0
   -2.9280  -17.2770    5.1890 C   0  0  0  0  0  0  0  0  0  0  0  0
   -4.7160  -15.9810    6.5100 C   0  0  0  0  0  0  0  0  0  0  0  0
   -5.6620  -15.6460    5.5510 C   0  0  0  0  0  0  0  0  0  0  0  0
   -6.7970  -14.9180    5.9370 C   0  0  0  0  0  0  0  0  0  0  0  0
   -6.9900  -14.5240    7.2740 C   0  0  0  0  0  0  0  0  0  0  0  0
   -6.0520  -14.8490    8.2500 C   0  0  0  0  0  0  0  0  0  0  0  0
   -4.9440  -15.5670    7.8360 C   0  0  0  0  0  0  0  0  0  0  0  0
   -3.6190  -16.1010    8.8630 S   0  0  0  0  0  0  0  0  0  0  0  0
   -2.8740  -14.9400    9.2970 O   0  0  0  0  0  0  0  0  0  0  0  0
   -4.1110  -17.1310    9.7520 O   0  0  0  0  0  0  0  0  0  0  0  0
    1.6706  -18.9703    5.3094 H   0  0  0  0  0  0  0  0  0  0  0  0
    2.1397  -20.4266    4.3683 H   0  0  0  0  0  0  0  0  0  0  0  0
    3.2007  -18.9772    4.3683 H   0  0  0  0  0  0  0  0  0  0  0  0
    1.1536  -17.2433    4.5381 H   0  0  0  0  0  0  0  0  0  0  0  0
    1.7890  -17.8203    0.9991 H   0  0  0  0  0  0  0  0  0  0  0  0
    2.4896  -14.9365    1.1537 H   0  0  0  0  0  0  0  0  0  0  0  0
    3.0962  -16.2027    0.0299 H   0  0  0  0  0  0  0  0  0  0  0  0
    0.2880  -14.4115   -2.9675 H   0  0  0  0  0  0  0  0  0  0  0  0
    1.6524  -13.7689   -4.9466 H   0  0  0  0  0  0  0  0  0  0  0  0
    5.6419  -15.4658   -5.0723 H   0  0  0  0  0  0  0  0  0  0  0  0
    7.0000  -14.8149   -7.0523 H   0  0  0  0  0  0  0  0  0  0  0  0
    6.5055  -12.6940   -8.2671 H   0  0  0  0  0  0  0  0  0  0  0  0
    4.6425  -11.2261   -7.4957 H   0  0  0  0  0  0  0  0  0  0  0  0
    3.2840  -11.8697   -5.5133 H   0  0  0  0  0  0  0  0  0  0  0  0
    5.2666  -14.5260   -2.7099 H   0  0  0  0  0  0  0  0  0  0  0  0
    3.9011  -15.1711   -0.7366 H   0  0  0  0  0  0  0  0  0  0  0  0
   -0.4001  -15.7701    0.9945 H   0  0  0  0  0  0  0  0  0  0  0  0
   -0.4430  -18.2050   -0.4600 H   0  0  0  0  0  0  0  0  0  0  0  0
   -0.6072  -18.7947    1.6021 H   0  0  0  0  0  0  0  0  0  0  0  0
   -2.7420  -18.2230    2.0400 H   0  0  0  0  0  0  0  0  0  0  0  0
   -0.9657  -16.4654    3.5300 H   0  0  0  0  0  0  0  0  0  0  0  0
   -0.0229  -18.5696    6.5013 H   0  0  0  0  0  0  0  0  0  0  0  0
   -0.9931  -17.5953    8.6098 H   0  0  0  0  0  0  0  0  0  0  0  0
   -3.4509  -17.1768    4.2264 H   0  0  0  0  0  0  0  0  0  0  0  0
   -5.5233  -15.9475    4.5022 H   0  0  0  0  0  0  0  0  0  0  0  0
   -7.5498  -14.6502    5.1810 H   0  0  0  0  0  0  0  0  0  0  0  0
   -7.8896  -13.9544    7.5503 H   0  0  0  0  0  0  0  0  0  0  0  0
   -6.1853  -14.5494    9.3000 H   0  0  0  0  0  0  0  0  0  0  0  0
  1  2  1  0
  2  3  1  0
  3  4  1  0
  4  5  1  0
  5  6  1  0
  6  7  1  0
  7  8  1  0
  8  9  2  0
  9 10  1  0
 10 11  2  0
 11 12  1  0
 12 13  2  0
 13 14  1  0
 14 15  2  0
 15 16  1  0
 16 17  2  0
 11 18  1  0
 18 19  2  0
  5 20  1  0
 20 21  1  0
 20 22  1  0
 22 23  1  0
 22 24  1  0
 24 25  1  0
 25 26  1  0
 26 27  2  0
 27 28  1  0
 28 29  2  0
 29 30  1  0
 30 31  2  0
 30 32  1  0
 32 33  2  0
 33 34  1  0
 34 35  2  0
 35 36  1  0
 36 37  2  0
 37 38  1  0
 38 39  2  0
 38 40  2  0
 24  3  1  0
 31 26  1  0
 37 32  1  0
 19  8  1  0
 38 29  1  0
 17 12  1  0
  1 41  1  0
  1 42  1  0
  1 43  1  0
  3 44  1  1
  5 45  1  1
  6 46  1  0
  6 47  1  0
  9 48  1  0
 10 49  1  0
 13 50  1  0
 14 51  1  0
 15 52  1  0
 16 53  1  0
 17 54  1  0
 18 55  1  0
 19 56  1  0
 20 57  1  6
 21 58  1  0
 22 59  1  6
 23 60  1  0
 24 61  1  1
 27 62  1  0
 28 63  1  0
 31 64  1  0
 33 65  1  0
 34 66  1  0
 35 67  1  0
 36 68  1  0
M  END
>  <meeko>  (6) 
{"is_sidechain": [false], "free_energy": -8.589, "intermolecular_energy": -12.687, "internal_energy": -1.432}

$$$$
LIB_AIHATKMPAGBKRW__M_PUB_ALL__e8__s20260927
     RDKit          3D

 68 73  0  0  0  0  0  0  0  0999 V2000
    9.5490  -16.7010   -5.9750 C   0  0  0  0  0  0  0  0  0  0  0  0
   10.8080  -16.4400   -5.3710 O   0  0  0  0  0  0  0  0  0  0  0  0
   10.7370  -16.4770   -3.9420 C   0  0  1  0  0  0  0  0  0  0  0  0
   11.1770  -17.7440   -3.4420 O   0  0  0  0  0  0  0  0  0  0  0  0
   12.5410  -18.0310   -3.7890 C   0  0  2  0  0  0  0  0  0  0  0  0
   12.8680  -19.4270   -3.2310 C   0  0  0  0  0  0  0  0  0  0  0  0
   13.7470  -20.1100   -4.1250 O   0  0  0  0  0  0  0  0  0  0  0  0
   14.6280  -20.9990   -3.5740 C   0  0  0  0  0  0  0  0  0  0  0  0
   15.3510  -21.9730   -4.2610 C   0  0  0  0  0  0  0  0  0  0  0  0
   16.2190  -22.8250   -3.5660 C   0  0  0  0  0  0  0  0  0  0  0  0
   16.3860  -22.7230   -2.1760 C   0  0  0  0  0  0  0  0  0  0  0  0
   17.3020  -23.6200   -1.4520 C   0  0  0  0  0  0  0  0  0  0  0  0
   17.8640  -24.7430   -2.0820 C   0  0  0  0  0  0  0  0  0  0  0  0
   18.7320  -25.5960   -1.3970 C   0  0  0  0  0  0  0  0  0  0  0  0
   19.0560  -25.3380   -0.0670 C   0  0  0  0  0  0  0  0  0  0  0  0
   18.5120  -24.2290    0.5760 C   0  0  0  0  0  0  0  0  0  0  0  0
   17.6430  -23.3790   -0.1110 C   0  0  0  0  0  0  0  0  0  0  0  0
   15.6530  -21.7370   -1.5010 C   0  0  0  0  0  0  0  0  0  0  0  0
   14.7840  -20.8870   -2.1920 C   0  0  0  0  0  0  0  0  0  0  0  0
   13.4970  -16.9610   -3.2340 C   0  0  1  0  0  0  0  0  0  0  0  0
   14.8470  -17.1250   -3.6880 O   0  0  0  0  0  0  0  0  0  0  0  0
   13.0470  -15.5500   -3.6410 C   0  0  2  0  0  0  0  0  0  0  0  0
   13.8630  -14.6050   -2.9220 O   0  0  0  0  0  0  0  0  0  0  0  0
   11.5670  -15.3350   -3.3170 C   0  0  1  0  0  0  0  0  0  0  0  0
   11.1260  -14.0750   -3.8640 O   0  0  0  0  0  0  0  0  0  0  0  0
   10.0740  -13.5180   -3.1900 C   0  0  0  0  0  0  0  0  0  0  0  0
   10.1900  -13.1070   -1.8500 C   0  0  0  0  0  0  0  0  0  0  0  0
    9.1100  -12.5120   -1.2020 C   0  0  0  0  0  0  0  0  0  0  0  0
    7.9560  -12.3350   -1.9450 C   0  0  0  0  0  0  0  0  0  0  0  0
    7.8170  -12.7020   -3.2970 C   0  0  0  0  0  0  0  0  0  0  0  0
    8.9020  -13.2960   -3.9250 C   0  0  0  0  0  0  0  0  0  0  0  0
    6.4980  -12.3810   -3.8490 C   0  0  0  0  0  0  0  0  0  0  0  0
    6.0200  -12.5930   -5.1350 C   0  0  0  0  0  0  0  0  0  0  0  0
    4.7090  -12.2010   -5.4490 C   0  0  0  0  0  0  0  0  0  0  0  0
    3.8790  -11.6000   -4.4850 C   0  0  0  0  0  0  0  0  0  0  0  0
    4.3410  -11.3780   -3.1920 C   0  0  0  0  0  0  0  0  0  0  0  0
    5.6370  -11.7760   -2.9150 C   0  0  0  0  0  0  0  0  0  0  0  0
    6.4590  -11.6090   -1.3680 S   0  0  0  0  0  0  0  0  0  0  0  0
    6.6910  -10.2050   -1.1160 O   0  0  0  0  0  0  0  0  0  0  0  0
    5.8460  -12.5150   -0.4210 O   0  0  0  0  0  0  0  0  0  0  0  0
    8.7923  -16.8579   -5.1922 H   0  0  0  0  0  0  0  0  0  0  0  0
    9.2576  -15.8442   -6.6002 H   0  0  0  0  0  0  0  0  0  0  0  0
    9.6222  -17.6031   -6.6002 H   0  0  0  0  0  0  0  0  0  0  0  0
    9.6846  -16.3363   -3.6546 H   0  0  0  0  0  0  0  0  0  0  0  0
   12.6719  -18.0174   -4.8811 H   0  0  0  0  0  0  0  0  0  0  0  0
   13.3533  -19.3237   -2.2492 H   0  0  0  0  0  0  0  0  0  0  0  0
   11.9372  -20.0035   -3.1248 H   0  0  0  0  0  0  0  0  0  0  0  0
   15.2397  -22.0727   -5.3508 H   0  0  0  0  0  0  0  0  0  0  0  0
   16.7816  -23.5900   -4.1212 H   0  0  0  0  0  0  0  0  0  0  0  0
   17.6161  -24.9540   -3.1327 H   0  0  0  0  0  0  0  0  0  0  0  0
   19.1597  -26.4714   -1.9076 H   0  0  0  0  0  0  0  0  0  0  0  0
   19.7398  -26.0086    0.4740 H   0  0  0  0  0  0  0  0  0  0  0  0
   18.7671  -24.0225    1.6259 H   0  0  0  0  0  0  0  0  0  0  0  0
   17.2184  -22.5062    0.4066 H   0  0  0  0  0  0  0  0  0  0  0  0
   15.7631  -21.6304   -0.4117 H   0  0  0  0  0  0  0  0  0  0  0  0
   14.2176  -20.1222   -1.6404 H   0  0  0  0  0  0  0  0  0  0  0  0
   13.4654  -17.0871   -2.1417 H   0  0  0  0  0  0  0  0  0  0  0  0
   15.0690  -18.0750   -3.6030 H   0  0  0  0  0  0  0  0  0  0  0  0
   13.1669  -15.4141   -4.7260 H   0  0  0  0  0  0  0  0  0  0  0  0
   13.6670  -14.7770   -1.9780 H   0  0  0  0  0  0  0  0  0  0  0  0
   11.4312  -15.3276   -2.2254 H   0  0  0  0  0  0  0  0  0  0  0  0
   11.1375  -13.2560   -1.3114 H   0  0  0  0  0  0  0  0  0  0  0  0
    9.1715  -12.1977   -0.1496 H   0  0  0  0  0  0  0  0  0  0  0  0
    8.8431  -13.5882   -4.9838 H   0  0  0  0  0  0  0  0  0  0  0  0
    6.6596  -13.0616   -5.8974 H   0  0  0  0  0  0  0  0  0  0  0  0
    4.3242  -12.3666   -6.4661 H   0  0  0  0  0  0  0  0  0  0  0  0
    2.8552  -11.3029   -4.7564 H   0  0  0  0  0  0  0  0  0  0  0  0
    3.7063  -10.9084   -2.4261 H   0  0  0  0  0  0  0  0  0  0  0  0
  1  2  1  0
  2  3  1  0
  3  4  1  0
  4  5  1  0
  5  6  1  0
  6  7  1  0
  7  8  1  0
  8  9  2  0
  9 10  1  0
 10 11  2  0
 11 12  1  0
 12 13  2  0
 13 14  1  0
 14 15  2  0
 15 16  1  0
 16 17  2  0
 11 18  1  0
 18 19  2  0
  5 20  1  0
 20 21  1  0
 20 22  1  0
 22 23  1  0
 22 24  1  0
 24 25  1  0
 25 26  1  0
 26 27  2  0
 27 28  1  0
 28 29  2  0
 29 30  1  0
 30 31  2  0
 30 32  1  0
 32 33  2  0
 33 34  1  0
 34 35  2  0
 35 36  1  0
 36 37  2  0
 37 38  1  0
 38 39  2  0
 38 40  2  0
 24  3  1  0
 31 26  1  0
 37 32  1  0
 19  8  1  0
 38 29  1  0
 17 12  1  0
  1 41  1  0
  1 42  1  0
  1 43  1  0
  3 44  1  6
  5 45  1  6
  6 46  1  0
  6 47  1  0
  9 48  1  0
 10 49  1  0
 13 50  1  0
 14 51  1  0
 15 52  1  0
 16 53  1  0
 17 54  1  0
 18 55  1  0
 19 56  1  0
 20 57  1  1
 21 58  1  0
 22 59  1  6
 23 60  1  0
 24 61  1  1
 27 62  1  0
 28 63  1  0
 31 64  1  0
 33 65  1  0
 34 66  1  0
 35 67  1  0
 36 68  1  0
M  END
>  <meeko>  (7) 
{"is_sidechain": [false], "free_energy": -8.513, "intermolecular_energy": -12.486, "internal_energy": -1.522}

$$$$
LIB_AIHATKMPAGBKRW__M_PUB_ALL__e8__s20260927
     RDKit          3D

 68 73  0  0  0  0  0  0  0  0999 V2000
    2.1550  -18.7080    1.2030 C   0  0  0  0  0  0  0  0  0  0  0  0
    1.2900  -17.9000    1.9910 O   0  0  0  0  0  0  0  0  0  0  0  0
    0.9320  -16.6860    1.3230 C   0  0  1  0  0  0  0  0  0  0  0  0
   -0.4910  -16.5340    1.2720 O   0  0  0  0  0  0  0  0  0  0  0  0
   -1.0880  -16.4720    2.5770 C   0  0  2  0  0  0  0  0  0  0  0  0
   -2.6090  -16.3510    2.3770 C   0  0  0  0  0  0  0  0  0  0  0  0
   -3.0830  -15.1550    2.9930 O   0  0  0  0  0  0  0  0  0  0  0  0
   -4.2700  -15.2300    3.6680 C   0  0  0  0  0  0  0  0  0  0  0  0
   -5.2450  -14.2360    3.7270 C   0  0  0  0  0  0  0  0  0  0  0  0
   -6.4180  -14.4460    4.4630 C   0  0  0  0  0  0  0  0  0  0  0  0
   -6.6440  -15.6480    5.1520 C   0  0  0  0  0  0  0  0  0  0  0  0
   -7.8800  -15.8630    5.9230 C   0  0  0  0  0  0  0  0  0  0  0  0
   -7.9430  -15.5560    7.2920 C   0  0  0  0  0  0  0  0  0  0  0  0
   -9.1140  -15.7590    8.0250 C   0  0  0  0  0  0  0  0  0  0  0  0
  -10.2480  -16.2730    7.3980 C   0  0  0  0  0  0  0  0  0  0  0  0
  -10.2080  -16.5830    6.0410 C   0  0  0  0  0  0  0  0  0  0  0  0
   -9.0340  -16.3800    5.3110 C   0  0  0  0  0  0  0  0  0  0  0  0
   -5.6530  -16.6380    5.0810 C   0  0  0  0  0  0  0  0  0  0  0  0
   -4.4810  -16.4290    4.3480 C   0  0  0  0  0  0  0  0  0  0  0  0
   -0.5280  -15.2930    3.3930 C   0  0  1  0  0  0  0  0  0  0  0  0
   -0.9820  -15.2880    4.7530 O   0  0  0  0  0  0  0  0  0  0  0  0
    1.0070  -15.3180    3.4230 C   0  0  2  0  0  0  0  0  0  0  0  0
    1.4540  -14.0870    4.0230 O   0  0  0  0  0  0  0  0  0  0  0  0
    1.5780  -15.4650    2.0110 C   0  0  1  0  0  0  0  0  0  0  0  0
    3.0060  -15.6620    2.0800 O   0  0  0  0  0  0  0  0  0  0  0  0
    3.6850  -15.1640    1.0030 C   0  0  0  0  0  0  0  0  0  0  0  0
    4.8840  -15.7460    0.5510 C   0  0  0  0  0  0  0  0  0  0  0  0
    5.5340  -15.2360   -0.5710 C   0  0  0  0  0  0  0  0  0  0  0  0
    4.9320  -14.1650   -1.2080 C   0  0  0  0  0  0  0  0  0  0  0  0
    3.7170  -13.5800   -0.8030 C   0  0  0  0  0  0  0  0  0  0  0  0
    3.0850  -14.1000    0.3170 C   0  0  0  0  0  0  0  0  0  0  0  0
    3.2920  -12.4760   -1.6680 C   0  0  0  0  0  0  0  0  0  0  0  0
    2.1550  -11.6860   -1.5740 C   0  0  0  0  0  0  0  0  0  0  0  0
    1.9460  -10.6740   -2.5230 C   0  0  0  0  0  0  0  0  0  0  0  0
    2.8660  -10.4500   -3.5630 C   0  0  0  0  0  0  0  0  0  0  0  0
    4.0120  -11.2320   -3.6750 C   0  0  0  0  0  0  0  0  0  0  0  0
    4.1870  -12.2210   -2.7230 C   0  0  0  0  0  0  0  0  0  0  0  0
    5.5420  -13.3420   -2.6400 S   0  0  0  0  0  0  0  0  0  0  0  0
    5.4630  -14.2470   -3.7640 O   0  0  0  0  0  0  0  0  0  0  0  0
    6.7300  -12.6020   -2.2720 O   0  0  0  0  0  0  0  0  0  0  0  0
    2.7980  -19.3087    1.8631 H   0  0  0  0  0  0  0  0  0  0  0  0
    1.5550  -19.3765    0.5682 H   0  0  0  0  0  0  0  0  0  0  0  0
    2.7811  -18.0639    0.5682 H   0  0  0  0  0  0  0  0  0  0  0  0
    1.3137  -16.7437    0.2930 H   0  0  0  0  0  0  0  0  0  0  0  0
   -0.8514  -17.3791    3.1525 H   0  0  0  0  0  0  0  0  0  0  0  0
   -2.8348  -16.3219    1.3008 H   0  0  0  0  0  0  0  0  0  0  0  0
   -3.1061  -17.2181    2.8363 H   0  0  0  0  0  0  0  0  0  0  0  0
   -5.0932  -13.2853    3.1949 H   0  0  0  0  0  0  0  0  0  0  0  0
   -7.1784  -13.6521    4.5020 H   0  0  0  0  0  0  0  0  0  0  0  0
   -7.0541  -15.1484    7.7957 H   0  0  0  0  0  0  0  0  0  0  0  0
   -9.1417  -15.5134    9.0969 H   0  0  0  0  0  0  0  0  0  0  0  0
  -11.1717  -16.4332    7.9735 H   0  0  0  0  0  0  0  0  0  0  0  0
  -11.1014  -16.9881    5.5433 H   0  0  0  0  0  0  0  0  0  0  0  0
   -9.0130  -16.6290    4.2398 H   0  0  0  0  0  0  0  0  0  0  0  0
   -5.7999  -17.5917    5.6091 H   0  0  0  0  0  0  0  0  0  0  0  0
   -3.7168  -17.2192    4.3072 H   0  0  0  0  0  0  0  0  0  0  0  0
   -0.8981  -14.3901    2.8852 H   0  0  0  0  0  0  0  0  0  0  0  0
   -0.9800  -16.2160    5.0650 H   0  0  0  0  0  0  0  0  0  0  0  0
    1.3590  -16.1803    4.0082 H   0  0  0  0  0  0  0  0  0  0  0  0
    0.6300  -13.6110    4.2540 H   0  0  0  0  0  0  0  0  0  0  0  0
    1.3612  -14.5530    1.4355 H   0  0  0  0  0  0  0  0  0  0  0  0
    5.3100  -16.6076    1.0860 H   0  0  0  0  0  0  0  0  0  0  0  0
    6.4803  -15.6642   -0.9331 H   0  0  0  0  0  0  0  0  0  0  0  0
    2.1271  -13.6832    0.6614 H   0  0  0  0  0  0  0  0  0  0  0  0
    1.4271  -11.8511   -0.7660 H   0  0  0  0  0  0  0  0  0  0  0  0
    1.0466  -10.0446   -2.4524 H   0  0  0  0  0  0  0  0  0  0  0  0
    2.6782   -9.6499   -4.2942 H   0  0  0  0  0  0  0  0  0  0  0  0
    4.7431  -11.0717   -4.4811 H   0  0  0  0  0  0  0  0  0  0  0  0
  1  2  1  0
  2  3  1  0
  3  4  1  0
  4  5  1  0
  5  6  1  0
  6  7  1  0
  7  8  1  0
  8  9  2  0
  9 10  1  0
 10 11  2  0
 11 12  1  0
 12 13  2  0
 13 14  1  0
 14 15  2  0
 15 16  1  0
 16 17  2  0
 11 18  1  0
 18 19  2  0
  5 20  1  0
 20 21  1  0
 20 22  1  0
 22 23  1  0
 22 24  1  0
 24 25  1  0
 25 26  1  0
 26 27  2  0
 27 28  1  0
 28 29  2  0
 29 30  1  0
 30 31  2  0
 30 32  1  0
 32 33  2  0
 33 34  1  0
 34 35  2  0
 35 36  1  0
 36 37  2  0
 37 38  1  0
 38 39  2  0
 38 40  2  0
 24  3  1  0
 31 26  1  0
 37 32  1  0
 19  8  1  0
 38 29  1  0
 17 12  1  0
  1 41  1  0
  1 42  1  0
  1 43  1  0
  3 44  1  6
  5 45  1  1
  6 46  1  0
  6 47  1  0
  9 48  1  0
 10 49  1  0
 13 50  1  0
 14 51  1  0
 15 52  1  0
 16 53  1  0
 17 54  1  0
 18 55  1  0
 19 56  1  0
 20 57  1  6
 21 58  1  0
 22 59  1  1
 23 60  1  0
 24 61  1  6
 27 62  1  0
 28 63  1  0
 31 64  1  0
 33 65  1  0
 34 66  1  0
 35 67  1  0
 36 68  1  0
M  END
>  <meeko>  (8) 
{"is_sidechain": [false], "free_energy": -8.42, "intermolecular_energy": -12.366, "internal_energy": -1.506}

$$$$
LIB_AIHATKMPAGBKRW__M_PUB_ALL__e8__s20260927
     RDKit          3D

 68 73  0  0  0  0  0  0  0  0999 V2000
   11.7940  -13.9900  -10.7500 C   0  0  0  0  0  0  0  0  0  0  0  0
   12.8960  -14.2370   -9.8850 O   0  0  0  0  0  0  0  0  0  0  0  0
   12.7410  -15.4550   -9.1520 C   0  0  1  0  0  0  0  0  0  0  0  0
   13.2230  -16.5710   -9.9090 O   0  0  0  0  0  0  0  0  0  0  0  0
   14.6190  -16.4610  -10.2270 C   0  0  2  0  0  0  0  0  0  0  0  0
   14.9920  -17.6930  -11.0700 C   0  0  0  0  0  0  0  0  0  0  0  0
   15.8440  -18.5550  -10.3150 O   0  0  0  0  0  0  0  0  0  0  0  0
   15.7120  -19.9000  -10.5240 C   0  0  0  0  0  0  0  0  0  0  0  0
   15.1630  -20.8190   -9.6320 C   0  0  0  0  0  0  0  0  0  0  0  0
   15.0950  -22.1760   -9.9750 C   0  0  0  0  0  0  0  0  0  0  0  0
   15.5710  -22.6420  -11.2110 C   0  0  0  0  0  0  0  0  0  0  0  0
   15.4950  -24.0690  -11.5660 C   0  0  0  0  0  0  0  0  0  0  0  0
   14.9630  -24.4820  -12.7990 C   0  0  0  0  0  0  0  0  0  0  0  0
   14.8900  -25.8350  -13.1370 C   0  0  0  0  0  0  0  0  0  0  0  0
   15.3510  -26.8020  -12.2450 C   0  0  0  0  0  0  0  0  0  0  0  0
   15.8830  -26.4150  -11.0180 C   0  0  0  0  0  0  0  0  0  0  0  0
   15.9540  -25.0610  -10.6820 C   0  0  0  0  0  0  0  0  0  0  0  0
   16.1200  -21.7030  -12.0960 C   0  0  0  0  0  0  0  0  0  0  0  0
   16.1900  -20.3490  -11.7550 C   0  0  0  0  0  0  0  0  0  0  0  0
   15.4780  -16.3650   -8.9530 C   0  0  1  0  0  0  0  0  0  0  0  0
   16.8600  -16.0990   -9.2280 O   0  0  0  0  0  0  0  0  0  0  0  0
   14.9730  -15.2500   -8.0260 C   0  0  2  0  0  0  0  0  0  0  0  0
   15.6890  -15.3570   -6.7810 O   0  0  0  0  0  0  0  0  0  0  0  0
   13.4650  -15.3770   -7.7910 C   0  0  1  0  0  0  0  0  0  0  0  0
   12.9870  -14.2250   -7.0650 O   0  0  0  0  0  0  0  0  0  0  0  0
   12.5730  -14.5080   -5.7930 C   0  0  0  0  0  0  0  0  0  0  0  0
   11.9850  -15.7430   -5.4630 C   0  0  0  0  0  0  0  0  0  0  0  0
   11.6050  -16.0130   -4.1510 C   0  0  0  0  0  0  0  0  0  0  0  0
   11.8540  -15.0260   -3.2130 C   0  0  0  0  0  0  0  0  0  0  0  0
   12.4710  -13.7930   -3.5020 C   0  0  0  0  0  0  0  0  0  0  0  0
   12.8400  -13.5410   -4.8150 C   0  0  0  0  0  0  0  0  0  0  0  0
   12.6360  -12.9410   -2.3210 C   0  0  0  0  0  0  0  0  0  0  0  0
   13.2040  -11.6770   -2.2340 C   0  0  0  0  0  0  0  0  0  0  0  0
   13.2590  -11.0380   -0.9860 C   0  0  0  0  0  0  0  0  0  0  0  0
   12.7510  -11.6560    0.1720 C   0  0  0  0  0  0  0  0  0  0  0  0
   12.1800  -12.9230    0.1050 C   0  0  0  0  0  0  0  0  0  0  0  0
   12.1410  -13.5250   -1.1400 C   0  0  0  0  0  0  0  0  0  0  0  0
   11.4760  -15.1150   -1.4960 S   0  0  0  0  0  0  0  0  0  0  0  0
   12.3220  -16.1170   -0.8870 O   0  0  0  0  0  0  0  0  0  0  0  0
   10.0390  -15.0590   -1.3390 O   0  0  0  0  0  0  0  0  0  0  0  0
   10.8946  -13.7884  -10.1496 H   0  0  0  0  0  0  0  0  0  0  0  0
   12.0141  -13.1189  -11.3846 H   0  0  0  0  0  0  0  0  0  0  0  0
   11.6212  -14.8717  -11.3846 H   0  0  0  0  0  0  0  0  0  0  0  0
   11.6668  -15.5996   -8.9646 H   0  0  0  0  0  0  0  0  0  0  0  0
   14.8134  -15.5387  -10.7941 H   0  0  0  0  0  0  0  0  0  0  0  0
   14.0767  -18.2361  -11.3481 H   0  0  0  0  0  0  0  0  0  0  0  0
   15.5189  -17.3658  -11.9785 H   0  0  0  0  0  0  0  0  0  0  0  0
   14.7826  -20.4789   -8.6575 H   0  0  0  0  0  0  0  0  0  0  0  0
   14.6597  -22.8909   -9.2612 H   0  0  0  0  0  0  0  0  0  0  0  0
   14.5977  -23.7267  -13.5103 H   0  0  0  0  0  0  0  0  0  0  0  0
   14.4688  -26.1377  -14.1070 H   0  0  0  0  0  0  0  0  0  0  0  0
   15.2946  -27.8681  -12.5099 H   0  0  0  0  0  0  0  0  0  0  0  0
   16.2477  -27.1761  -10.3125 H   0  0  0  0  0  0  0  0  0  0  0  0
   16.3759  -24.7662   -9.7099 H   0  0  0  0  0  0  0  0  0  0  0  0
   16.5010  -22.0365  -13.0725 H   0  0  0  0  0  0  0  0  0  0  0  0
   16.6264  -19.6306  -12.4646 H   0  0  0  0  0  0  0  0  0  0  0  0
   15.3888  -17.3498   -8.4711 H   0  0  0  0  0  0  0  0  0  0  0  0
   17.1910  -15.5150   -8.5150 H   0  0  0  0  0  0  0  0  0  0  0  0
   15.1495  -14.2669   -8.4869 H   0  0  0  0  0  0  0  0  0  0  0  0
   16.0330  -16.2740   -6.7710 H   0  0  0  0  0  0  0  0  0  0  0  0
   13.2629  -16.2875   -7.2078 H   0  0  0  0  0  0  0  0  0  0  0  0
   11.8247  -16.4991   -6.2457 H   0  0  0  0  0  0  0  0  0  0  0  0
   11.1296  -16.9652   -3.8731 H   0  0  0  0  0  0  0  0  0  0  0  0
   13.3348  -12.5962   -5.0844 H   0  0  0  0  0  0  0  0  0  0  0  0
   13.6054  -11.1833   -3.1313 H   0  0  0  0  0  0  0  0  0  0  0  0
   13.7071  -10.0362   -0.9113 H   0  0  0  0  0  0  0  0  0  0  0  0
   12.8059  -11.1329    1.1381 H   0  0  0  0  0  0  0  0  0  0  0  0
   11.7787  -13.4222    0.9993 H   0  0  0  0  0  0  0  0  0  0  0  0
  1  2  1  0
  2  3  1  0
  3  4  1  0
  4  5  1  0
  5  6  1  0
  6  7  1  0
  7  8  1  0
  8  9  2  0
  9 10  1  0
 10 11  2  0
 11 12  1  0
 12 13  2  0
 13 14  1  0
 14 15  2  0
 15 16  1  0
 16 17  2  0
 11 18  1  0
 18 19  2  0
  5 20  1  0
 20 21  1  0
 20 22  1  0
 22 23  1  0
 22 24  1  0
 24 25  1  0
 25 26  1  0
 26 27  2  0
 27 28  1  0
 28 29  2  0
 29 30  1  0
 30 31  2  0
 30 32  1  0
 32 33  2  0
 33 34  1  0
 34 35  2  0
 35 36  1  0
 36 37  2  0
 37 38  1  0
 38 39  2  0
 38 40  2  0
 24  3  1  0
 31 26  1  0
 37 32  1  0
 19  8  1  0
 38 29  1  0
 17 12  1  0
  1 41  1  0
  1 42  1  0
  1 43  1  0
  3 44  1  1
  5 45  1  6
  6 46  1  0
  6 47  1  0
  9 48  1  0
 10 49  1  0
 13 50  1  0
 14 51  1  0
 15 52  1  0
 16 53  1  0
 17 54  1  0
 18 55  1  0
 19 56  1  0
 20 57  1  1
 21 58  1  0
 22 59  1  6
 23 60  1  0
 24 61  1  1
 27 62  1  0
 28 63  1  0
 31 64  1  0
 33 65  1  0
 34 66  1  0
 35 67  1  0
 36 68  1  0
M  END
>  <meeko>  (9) 
{"is_sidechain": [false], "free_energy": -8.372, "intermolecular_energy": -12.345, "internal_energy": -1.457}

$$$$
