LIB_GMMYKYNDSYLONO__M_PUB_ALL__e8__s20260927
     RDKit          3D

 79 84  0  0  0  0  0  0  0  0999 V2000
    3.9920  -12.9150   -1.5860 C   0  0  0  0  0  0  0  0  0  0  0  0
    3.8090  -13.8280   -0.6150 C   0  0  0  0  0  0  0  0  0  0  0  0
    4.8970  -14.0070    0.4230 C   0  0  0  0  0  0  0  0  0  0  0  0
    4.3420  -13.7100    1.8040 C   0  0  0  0  0  0  0  0  0  0  0  0
    3.0820  -14.5160    2.1180 C   0  0  0  0  0  0  0  0  0  0  0  0
    1.9810  -14.3780    1.0310 C   0  0  1  0  0  0  0  0  0  0  0  0
    2.5480  -14.7230   -0.4100 C   0  0  2  0  0  0  0  0  0  0  0  0
    3.0400  -16.1870   -0.5670 C   0  0  0  0  0  0  0  0  0  0  0  0
    1.4300  -14.4400   -1.4670 C   0  0  1  0  0  0  0  0  0  0  0  0
    1.8730  -14.9180   -2.7670 O   0  0  0  0  0  0  0  0  0  0  0  0
    1.3750  -14.2710   -3.8510 C   0  0  0  0  0  0  0  0  0  0  0  0
    0.2760  -14.4620   -4.3490 O   0  0  0  0  0  0  0  0  0  0  0  0
    2.3540  -13.2750   -4.3630 C   0  0  0  0  0  0  0  0  0  0  0  0
    2.1910  -11.8960   -4.1750 C   0  0  0  0  0  0  0  0  0  0  0  0
    3.1380  -11.0030   -4.6810 C   0  0  0  0  0  0  0  0  0  0  0  0
    4.2490  -11.4800   -5.3760 C   0  0  0  0  0  0  0  0  0  0  0  0
    4.4170  -12.8510   -5.5690 C   0  0  0  0  0  0  0  0  0  0  0  0
    3.4720  -13.7470   -5.0650 C   0  0  0  0  0  0  0  0  0  0  0  0
    0.0990  -15.1450   -1.1280 C   0  0  2  0  0  0  0  0  0  0  0  0
   -0.8870  -14.8620   -2.1430 O   0  0  0  0  0  0  0  0  0  0  0  0
   -0.4670  -14.7370    0.2650 C   0  0  2  0  0  0  0  0  0  0  0  0
   -1.8230  -15.4730    0.4070 C   0  0  0  0  0  0  0  0  0  0  0  0
   -0.6820  -13.3070    0.1820 O   0  0  0  0  0  0  0  0  0  0  0  0
   -1.1070  -12.5780    1.3350 C   0  0  2  0  0  0  0  0  0  0  0  0
   -2.6110  -12.6670    1.5830 C   0  0  0  0  0  0  0  0  0  0  0  0
   -3.0050  -11.4130    2.1370 O   0  0  0  0  0  0  0  0  0  0  0  0
   -2.0860  -10.4720    1.7880 C   0  0  0  0  0  0  0  0  0  0  0  0
   -2.1740   -9.2880    2.0660 O   0  0  0  0  0  0  0  0  0  0  0  0
   -0.9780  -11.0940    1.0010 C   0  0  0  0  0  0  0  0  0  0  0  0
   -0.2800  -12.9120    2.5870 C   0  0  0  0  0  0  0  0  0  0  0  0
   -0.0580  -14.4190    2.7240 C   0  0  2  0  0  0  0  0  0  0  0  0
    0.7380  -14.7140    3.8890 O   0  0  0  0  0  0  0  0  0  0  0  0
    0.0630  -14.8970    5.0530 C   0  0  0  0  0  0  0  0  0  0  0  0
    0.0260  -14.1100    5.9860 O   0  0  0  0  0  0  0  0  0  0  0  0
   -0.6290  -16.2020    5.0660 C   0  0  0  0  0  0  0  0  0  0  0  0
   -2.0260  -16.2400    5.0810 C   0  0  0  0  0  0  0  0  0  0  0  0
   -2.6810  -17.4690    5.0860 C   0  0  0  0  0  0  0  0  0  0  0  0
   -1.9140  -18.6240    5.0710 C   0  0  0  0  0  0  0  0  0  0  0  0
   -0.5620  -18.6240    5.0490 N   0  0  0  0  0  0  0  0  0  0  0  0
    0.0500  -17.4130    5.0450 C   0  0  0  0  0  0  0  0  0  0  0  0
    0.5680  -15.0400    1.4160 C   0  0  2  0  0  0  0  0  0  0  0  0
    0.7030  -16.5580    1.6810 C   0  0  0  0  0  0  0  0  0  0  0  0
    3.2176  -12.7647   -2.3526 H   0  0  0  0  0  0  0  0  0  0  0  0
    4.9160  -12.3188   -1.6133 H   0  0  0  0  0  0  0  0  0  0  0  0
    5.2647  -15.0433    0.3920 H   0  0  0  0  0  0  0  0  0  0  0  0
    5.7238  -13.3145    0.2065 H   0  0  0  0  0  0  0  0  0  0  0  0
    5.1109  -13.9529    2.5522 H   0  0  0  0  0  0  0  0  0  0  0  0
    4.0707  -12.6443    1.8314 H   0  0  0  0  0  0  0  0  0  0  0  0
    3.3581  -15.5774    2.2033 H   0  0  0  0  0  0  0  0  0  0  0  0
    2.6663  -14.1206    3.0566 H   0  0  0  0  0  0  0  0  0  0  0  0
    1.7041  -13.3144    0.9850 H   0  0  0  0  0  0  0  0  0  0  0  0
    3.1896  -16.6322    0.4277 H   0  0  0  0  0  0  0  0  0  0  0  0
    2.2881  -16.7692   -1.1200 H   0  0  0  0  0  0  0  0  0  0  0  0
    3.9909  -16.1970   -1.1200 H   0  0  0  0  0  0  0  0  0  0  0  0
    1.2534  -13.3543   -1.4685 H   0  0  0  0  0  0  0  0  0  0  0  0
    1.3156  -11.5162   -3.6279 H   0  0  0  0  0  0  0  0  0  0  0  0
    3.0073   -9.9211   -4.5311 H   0  0  0  0  0  0  0  0  0  0  0  0
    4.9937  -10.7741   -5.7724 H   0  0  0  0  0  0  0  0  0  0  0  0
    5.2933  -13.2262   -6.1179 H   0  0  0  0  0  0  0  0  0  0  0  0
    3.6054  -14.8279   -5.2194 H   0  0  0  0  0  0  0  0  0  0  0  0
    0.3163  -16.2228   -1.0940 H   0  0  0  0  0  0  0  0  0  0  0  0
   -1.0030  -15.6770   -2.6740 H   0  0  0  0  0  0  0  0  0  0  0  0
   -2.0604  -15.6018    1.4733 H   0  0  0  0  0  0  0  0  0  0  0  0
   -2.6141  -14.8805   -0.0758 H   0  0  0  0  0  0  0  0  0  0  0  0
   -1.7572  -16.4592   -0.0758 H   0  0  0  0  0  0  0  0  0  0  0  0
   -3.1421  -12.8482    0.6369 H   0  0  0  0  0  0  0  0  0  0  0  0
   -2.8535  -13.4964    2.2636 H   0  0  0  0  0  0  0  0  0  0  0  0
   -1.1123  -10.9186   -0.0766 H   0  0  0  0  0  0  0  0  0  0  0  0
    0.0114  -10.6801    1.2456 H   0  0  0  0  0  0  0  0  0  0  0  0
    0.6969  -12.4115    2.5146 H   0  0  0  0  0  0  0  0  0  0  0  0
   -0.8335  -12.5620    3.4708 H   0  0  0  0  0  0  0  0  0  0  0  0
   -1.0416  -14.8925    2.8593 H   0  0  0  0  0  0  0  0  0  0  0  0
   -2.6048  -15.3046    5.0888 H   0  0  0  0  0  0  0  0  0  0  0  0
   -3.7796  -17.5221    5.1015 H   0  0  0  0  0  0  0  0  0  0  0  0
   -2.4338  -19.5934    5.0773 H   0  0  0  0  0  0  0  0  0  0  0  0
    1.1495  -17.3892    5.0239 H   0  0  0  0  0  0  0  0  0  0  0  0
    0.7193  -16.7409    2.7656 H   0  0  0  0  0  0  0  0  0  0  0  0
   -0.1517  -17.0859    1.2329 H   0  0  0  0  0  0  0  0  0  0  0  0
    1.6375  -16.9268    1.2329 H   0  0  0  0  0  0  0  0  0  0  0  0
  1  2  2  0
  2  3  1  0
  3  4  1  0
  4  5  1  0
  5  6  1  0
  6  7  1  0
  7  8  1  1
  7  9  1  0
  9 10  1  0
 10 11  1  0
 11 12  2  0
 11 13  1  0
 13 14  2  0
 14 15  1  0
 15 16  2  0
 16 17  1  0
 17 18  2  0
  9 19  1  0
 19 20  1  0
 19 21  1  0
 21 22  1  1
 21 23  1  0
 24 23  1  6
 24 25  1  0
 25 26  1  0
 26 27  1  0
 27 28  2  0
 27 29  1  0
 24 30  1  0
 30 31  1  0
 31 32  1  0
 32 33  1  0
 33 34  2  0
 33 35  1  0
 35 36  2  0
 36 37  1  0
 37 38  2  0
 38 39  1  0
 39 40  2  0
 31 41  1  0
 41 42  1  1
  7  2  1  0
 18 13  1  0
 41 21  1  0
 41  6  1  0
 29 24  1  0
 40 35  1  0
  1 43  1  0
  1 44  1  0
  3 45  1  0
  3 46  1  0
  4 47  1  0
  4 48  1  0
  5 49  1  0
  5 50  1  0
  6 51  1  6
  8 52  1  0
  8 53  1  0
  8 54  1  0
  9 55  1  6
 14 56  1  0
 15 57  1  0
 16 58  1  0
 17 59  1  0
 18 60  1  0
 19 61  1  1
 20 62  1  0
 22 63  1  0
 22 64  1  0
 22 65  1  0
 25 66  1  0
 25 67  1  0
 29 68  1  0
 29 69  1  0
 30 70  1  0
 30 71  1  0
 31 72  1  1
 36 73  1  0
 37 74  1  0
 38 75  1  0
 40 76  1  0
 42 77  1  0
 42 78  1  0
 42 79  1  0
M  END
>  <meeko>  (1) 
{"is_sidechain": [false], "free_energy": -8.936, "intermolecular_energy": -12.332, "internal_energy": -1.376}

$$$$
LIB_GMMYKYNDSYLONO__M_PUB_ALL__e8__s20260927
     RDKit          3D

 79 84  0  0  0  0  0  0  0  0999 V2000
    0.0220  -13.7380    4.8750 C   0  0  0  0  0  0  0  0  0  0  0  0
   -0.4710  -13.7560    3.6230 C   0  0  0  0  0  0  0  0  0  0  0  0
   -1.1690  -12.5180    3.1030 C   0  0  0  0  0  0  0  0  0  0  0  0
   -0.4460  -11.9980    1.8750 C   0  0  0  0  0  0  0  0  0  0  0  0
   -0.2600  -13.0710    0.8020 C   0  0  0  0  0  0  0  0  0  0  0  0
    0.4100  -14.3640    1.3410 C   0  0  1  0  0  0  0  0  0  0  0  0
   -0.3650  -14.9320    2.6030 C   0  0  2  0  0  0  0  0  0  0  0  0
   -1.8270  -15.3680    2.3100 C   0  0  0  0  0  0  0  0  0  0  0  0
    0.4320  -16.1530    3.1710 C   0  0  1  0  0  0  0  0  0  0  0  0
   -0.3560  -16.7900    4.2150 O   0  0  0  0  0  0  0  0  0  0  0  0
    0.2760  -17.0180    5.3940 C   0  0  0  0  0  0  0  0  0  0  0  0
    1.4800  -17.1770    5.5350 O   0  0  0  0  0  0  0  0  0  0  0  0
   -0.6990  -17.0460    6.5160 C   0  0  0  0  0  0  0  0  0  0  0  0
   -0.3860  -17.5850    7.7710 C   0  0  0  0  0  0  0  0  0  0  0  0
   -1.3420  -17.5900    8.7900 C   0  0  0  0  0  0  0  0  0  0  0  0
   -2.6110  -17.0610    8.5610 C   0  0  0  0  0  0  0  0  0  0  0  0
   -2.9310  -16.5240    7.3140 C   0  0  0  0  0  0  0  0  0  0  0  0
   -1.9780  -16.5170    6.2930 C   0  0  0  0  0  0  0  0  0  0  0  0
    0.7420  -17.2140    2.0930 C   0  0  2  0  0  0  0  0  0  0  0  0
    1.4620  -18.3200    2.6760 O   0  0  0  0  0  0  0  0  0  0  0  0
    1.5600  -16.6420    0.8960 C   0  0  2  0  0  0  0  0  0  0  0  0
    1.8410  -17.8430   -0.0410 C   0  0  0  0  0  0  0  0  0  0  0  0
    2.7980  -16.1640    1.4780 O   0  0  0  0  0  0  0  0  0  0  0  0
    3.7530  -15.4770    0.6680 C   0  0  2  0  0  0  0  0  0  0  0  0
    4.6400  -16.4180   -0.1440 C   0  0  0  0  0  0  0  0  0  0  0  0
    5.9210  -15.7940   -0.2300 O   0  0  0  0  0  0  0  0  0  0  0  0
    6.0470  -14.9110    0.7990 C   0  0  0  0  0  0  0  0  0  0  0  0
    7.0530  -14.2620    1.0280 O   0  0  0  0  0  0  0  0  0  0  0  0
    4.7920  -14.8760    1.6100 C   0  0  0  0  0  0  0  0  0  0  0  0
    3.1170  -14.3730   -0.1920 C   0  0  0  0  0  0  0  0  0  0  0  0
    1.8220  -14.8520   -0.8490 C   0  0  2  0  0  0  0  0  0  0  0  0
    1.2260  -13.7990   -1.6330 O   0  0  0  0  0  0  0  0  0  0  0  0
    1.3700  -13.8930   -2.9800 C   0  0  0  0  0  0  0  0  0  0  0  0
    0.9220  -14.7860   -3.6820 O   0  0  0  0  0  0  0  0  0  0  0  0
    2.1650  -12.7670   -3.5080 C   0  0  0  0  0  0  0  0  0  0  0  0
    2.1310  -11.5320   -2.8530 C   0  0  0  0  0  0  0  0  0  0  0  0
    2.8860  -10.4710   -3.3460 C   0  0  0  0  0  0  0  0  0  0  0  0
    3.6550  -10.6810   -4.4800 C   0  0  0  0  0  0  0  0  0  0  0  0
    3.7170  -11.8620   -5.1350 N   0  0  0  0  0  0  0  0  0  0  0  0
    2.9710  -12.8790   -4.6340 C   0  0  0  0  0  0  0  0  0  0  0  0
    0.8100  -15.4360    0.2120 C   0  0  2  0  0  0  0  0  0  0  0  0
   -0.4270  -15.9100   -0.5880 C   0  0  0  0  0  0  0  0  0  0  0  0
    0.5339  -14.6246    5.2774 H   0  0  0  0  0  0  0  0  0  0  0  0
   -0.0869  -12.8367    5.4961 H   0  0  0  0  0  0  0  0  0  0  0  0
   -2.2066  -12.7683    2.8372 H   0  0  0  0  0  0  0  0  0  0  0  0
   -1.1630  -11.7428    3.8834 H   0  0  0  0  0  0  0  0  0  0  0  0
   -1.0299  -11.1698    1.4471 H   0  0  0  0  0  0  0  0  0  0  0  0
    0.5543  -11.6686    2.1927 H   0  0  0  0  0  0  0  0  0  0  0  0
   -1.2475  -13.3327    0.3941 H   0  0  0  0  0  0  0  0  0  0  0  0
    0.4065  -12.6530    0.0332 H   0  0  0  0  0  0  0  0  0  0  0  0
    1.4038  -14.0792    1.7168 H   0  0  0  0  0  0  0  0  0  0  0  0
   -2.3595  -15.5268    3.2593 H   0  0  0  0  0  0  0  0  0  0  0  0
   -2.3350  -14.5823    1.7316 H   0  0  0  0  0  0  0  0  0  0  0  0
   -1.8217  -16.3036    1.7316 H   0  0  0  0  0  0  0  0  0  0  0  0
    1.3866  -15.7659    3.5568 H   0  0  0  0  0  0  0  0  0  0  0  0
    0.6140  -18.0049    7.9543 H   0  0  0  0  0  0  0  0  0  0  0  0
   -1.0927  -18.0122    9.7747 H   0  0  0  0  0  0  0  0  0  0  0  0
   -3.3616  -17.0670    9.3651 H   0  0  0  0  0  0  0  0  0  0  0  0
   -3.9328  -16.1065    7.1350 H   0  0  0  0  0  0  0  0  0  0  0  0
   -2.2321  -16.0946    5.3096 H   0  0  0  0  0  0  0  0  0  0  0  0
   -0.2276  -17.5528    1.6992 H   0  0  0  0  0  0  0  0  0  0  0  0
    2.0470  -18.6860    1.9810 H   0  0  0  0  0  0  0  0  0  0  0  0
    2.0504  -18.7381    0.5630 H   0  0  0  0  0  0  0  0  0  0  0  0
    0.9615  -18.0265   -0.6757 H   0  0  0  0  0  0  0  0  0  0  0  0
    2.7106  -17.6173   -0.6757 H   0  0  0  0  0  0  0  0  0  0  0  0
    4.7246  -17.3912    0.3616 H   0  0  0  0  0  0  0  0  0  0  0  0
    4.2178  -16.5990   -1.1435 H   0  0  0  0  0  0  0  0  0  0  0  0
    4.8947  -15.4817    2.5225 H   0  0  0  0  0  0  0  0  0  0  0  0
    4.5288  -13.8652    1.9551 H   0  0  0  0  0  0  0  0  0  0  0  0
    2.8943  -13.5057    0.4469 H   0  0  0  0  0  0  0  0  0  0  0  0
    3.8276  -14.1013   -0.9865 H   0  0  0  0  0  0  0  0  0  0  0  0
    2.0761  -15.6761   -1.5319 H   0  0  0  0  0  0  0  0  0  0  0  0
    1.5115  -11.3995   -1.9537 H   0  0  0  0  0  0  0  0  0  0  0  0
    2.8725   -9.4904   -2.8479 H   0  0  0  0  0  0  0  0  0  0  0  0
    4.2478   -9.8398   -4.8686 H   0  0  0  0  0  0  0  0  0  0  0  0
    3.0066  -13.8497   -5.1502 H   0  0  0  0  0  0  0  0  0  0  0  0
   -1.2207  -16.2141    0.1102 H   0  0  0  0  0  0  0  0  0  0  0  0
   -0.7911  -15.0877   -1.2214 H   0  0  0  0  0  0  0  0  0  0  0  0
   -0.1484  -16.7651   -1.2214 H   0  0  0  0  0  0  0  0  0  0  0  0
  1  2  2  0
  2  3  1  0
  3  4  1  0
  4  5  1  0
  5  6  1  0
  6  7  1  0
  7  8  1  6
  7  9  1  0
  9 10  1  0
 10 11  1  0
 11 12  2  0
 11 13  1  0
 13 14  2  0
 14 15  1  0
 15 16  2  0
 16 17  1  0
 17 18  2  0
  9 19  1  0
 19 20  1  0
 19 21  1  0
 21 22  1  6
 21 23  1  0
 24 23  1  1
 24 25  1  0
 25 26  1  0
 26 27  1  0
 27 28  2  0
 27 29  1  0
 24 30  1  0
 30 31  1  0
 31 32  1  0
 32 33  1  0
 33 34  2  0
 33 35  1  0
 35 36  2  0
 36 37  1  0
 37 38  2  0
 38 39  1  0
 39 40  2  0
 31 41  1  0
 41 42  1  6
  7  2  1  0
 18 13  1  0
 41 21  1  0
 41  6  1  0
 29 24  1  0
 40 35  1  0
  1 43  1  0
  1 44  1  0
  3 45  1  0
  3 46  1  0
  4 47  1  0
  4 48  1  0
  5 49  1  0
  5 50  1  0
  6 51  1  1
  8 52  1  0
  8 53  1  0
  8 54  1  0
  9 55  1  1
 14 56  1  0
 15 57  1  0
 16 58  1  0
 17 59  1  0
 18 60  1  0
 19 61  1  6
 20 62  1  0
 22 63  1  0
 22 64  1  0
 22 65  1  0
 25 66  1  0
 25 67  1  0
 29 68  1  0
 29 69  1  0
 30 70  1  0
 30 71  1  0
 31 72  1  6
 36 73  1  0
 37 74  1  0
 38 75  1  0
 40 76  1  0
 42 77  1  0
 42 78  1  0
 42 79  1  0
M  END
>  <meeko>  (2) 
{"is_sidechain": [false], "free_energy": -8.882, "intermolecular_energy": -11.639, "internal_energy": -1.994}

$$$$
LIB_GMMYKYNDSYLONO__M_PUB_ALL__e8__s20260927
     RDKit          3D

 79 84  0  0  0  0  0  0  0  0999 V2000
    5.6910  -12.8810   -2.2580 C   0  0  0  0  0  0  0  0  0  0  0  0
    5.4300  -13.9310   -1.4580 C   0  0  0  0  0  0  0  0  0  0  0  0
    6.4520  -14.3120   -0.4090 C   0  0  0  0  0  0  0  0  0  0  0  0
    5.8290  -14.2210    0.9720 C   0  0  0  0  0  0  0  0  0  0  0  0
    4.5320  -15.0210    1.0870 C   0  0  0  0  0  0  0  0  0  0  0  0
    3.4980  -14.6720   -0.0180 C   0  0  1  0  0  0  0  0  0  0  0  0
    4.1350  -14.8020   -1.4650 C   0  0  2  0  0  0  0  0  0  0  0  0
    4.5950  -16.2380   -1.8310 C   0  0  0  0  0  0  0  0  0  0  0  0
    3.0860  -14.3130   -2.5180 C   0  0  1  0  0  0  0  0  0  0  0  0
    3.5890  -14.5920   -3.8540 O   0  0  0  0  0  0  0  0  0  0  0  0
    3.5570  -13.5630   -4.7380 C   0  0  0  0  0  0  0  0  0  0  0  0
    2.7500  -12.6450   -4.7300 O   0  0  0  0  0  0  0  0  0  0  0  0
    4.6530  -13.6940   -5.7350 C   0  0  0  0  0  0  0  0  0  0  0  0
    4.7970  -12.8100   -6.8140 C   0  0  0  0  0  0  0  0  0  0  0  0
    5.8420  -12.9810   -7.7250 C   0  0  0  0  0  0  0  0  0  0  0  0
    6.7450  -14.0310   -7.5650 C   0  0  0  0  0  0  0  0  0  0  0  0
    6.6070  -14.9160   -6.4950 C   0  0  0  0  0  0  0  0  0  0  0  0
    5.5630  -14.7490   -5.5820 C   0  0  0  0  0  0  0  0  0  0  0  0
    1.7200  -15.0160   -2.3660 C   0  0  2  0  0  0  0  0  0  0  0  0
    0.8000  -14.5380   -3.3700 O   0  0  0  0  0  0  0  0  0  0  0  0
    1.0880  -14.8160   -0.9550 C   0  0  2  0  0  0  0  0  0  0  0  0
   -0.2930  -15.5170   -1.0040 C   0  0  0  0  0  0  0  0  0  0  0  0
    0.9160  -13.3850   -0.8170 O   0  0  0  0  0  0  0  0  0  0  0  0
    0.4480  -12.8350    0.4160 C   0  0  2  0  0  0  0  0  0  0  0  0
   -1.0700  -12.9090    0.5690 C   0  0  0  0  0  0  0  0  0  0  0  0
   -1.4610  -11.7460    1.2980 O   0  0  0  0  0  0  0  0  0  0  0  0
   -0.4980  -10.7950    1.1530 C   0  0  0  0  0  0  0  0  0  0  0  0
   -0.5700   -9.6680    1.6150 O   0  0  0  0  0  0  0  0  0  0  0  0
    0.6350  -11.3220    0.3330 C   0  0  0  0  0  0  0  0  0  0  0  0
    1.1940  -13.3950    1.6370 C   0  0  0  0  0  0  0  0  0  0  0  0
    1.3670  -14.9110    1.5400 C   0  0  2  0  0  0  0  0  0  0  0  0
    2.0880  -15.4170    2.6810 O   0  0  0  0  0  0  0  0  0  0  0  0
    1.4550  -15.3410    3.8800 C   0  0  0  0  0  0  0  0  0  0  0  0
    1.8360  -14.7000    4.8470 O   0  0  0  0  0  0  0  0  0  0  0  0
    0.2240  -16.1580    3.8830 C   0  0  0  0  0  0  0  0  0  0  0  0
   -1.0140  -15.5360    4.0650 C   0  0  0  0  0  0  0  0  0  0  0  0
   -2.1760  -16.3040    4.0620 C   0  0  0  0  0  0  0  0  0  0  0  0
   -2.0610  -17.6710    3.8710 C   0  0  0  0  0  0  0  0  0  0  0  0
   -0.8810  -18.3050    3.6850 N   0  0  0  0  0  0  0  0  0  0  0  0
    0.2350  -17.5330    3.6940 C   0  0  0  0  0  0  0  0  0  0  0  0
    2.0480  -15.3360    0.1820 C   0  0  2  0  0  0  0  0  0  0  0  0
    2.1270  -16.8810    0.2050 C   0  0  0  0  0  0  0  0  0  0  0  0
    4.9650  -12.5829   -3.0287 H   0  0  0  0  0  0  0  0  0  0  0  0
    6.6304  -12.3207   -2.1413 H   0  0  0  0  0  0  0  0  0  0  0  0
    6.7932  -15.3422   -0.5886 H   0  0  0  0  0  0  0  0  0  0  0  0
    7.3074  -13.6229   -0.4679 H   0  0  0  0  0  0  0  0  0  0  0  0
    6.5481  -14.6084    1.7088 H   0  0  0  0  0  0  0  0  0  0  0  0
    5.5857  -13.1645    1.1581 H   0  0  0  0  0  0  0  0  0  0  0  0
    4.7739  -16.0916    1.0139 H   0  0  0  0  0  0  0  0  0  0  0  0
    4.0752  -14.7658    2.0546 H   0  0  0  0  0  0  0  0  0  0  0  0
    3.2532  -13.6055    0.0949 H   0  0  0  0  0  0  0  0  0  0  0  0
    4.7783  -16.8103   -0.9097 H   0  0  0  0  0  0  0  0  0  0  0  0
    3.8111  -16.7348   -2.4214 H   0  0  0  0  0  0  0  0  0  0  0  0
    5.5217  -16.1869   -2.4214 H   0  0  0  0  0  0  0  0  0  0  0  0
    2.9385  -13.2355   -2.3529 H   0  0  0  0  0  0  0  0  0  0  0  0
    4.0860  -11.9807   -6.9432 H   0  0  0  0  0  0  0  0  0  0  0  0
    5.9526  -12.2858   -8.5703 H   0  0  0  0  0  0  0  0  0  0  0  0
    7.5676  -14.1621   -8.2834 H   0  0  0  0  0  0  0  0  0  0  0  0
    7.3198  -15.7445   -6.3706 H   0  0  0  0  0  0  0  0  0  0  0  0
    5.4547  -15.4482   -4.7397 H   0  0  0  0  0  0  0  0  0  0  0  0
    1.9059  -16.0923   -2.4965 H   0  0  0  0  0  0  0  0  0  0  0  0
    0.2770  -13.8150   -2.9680 H   0  0  0  0  0  0  0  0  0  0  0  0
   -0.6490  -15.6977    0.0210 H   0  0  0  0  0  0  0  0  0  0  0  0
   -1.0117  -14.8746   -1.5339 H   0  0  0  0  0  0  0  0  0  0  0  0
   -0.1986  -16.4763   -1.5339 H   0  0  0  0  0  0  0  0  0  0  0  0
   -1.5516  -12.9174   -0.4199 H   0  0  0  0  0  0  0  0  0  0  0  0
   -1.3727  -13.8275    1.0932 H   0  0  0  0  0  0  0  0  0  0  0  0
    0.5656  -10.9720   -0.7075 H   0  0  0  0  0  0  0  0  0  0  0  0
    1.6200  -10.9878    0.6910 H   0  0  0  0  0  0  0  0  0  0  0  0
    2.1867  -12.9249    1.6961 H   0  0  0  0  0  0  0  0  0  0  0  0
    0.6013  -13.1717    2.5363 H   0  0  0  0  0  0  0  0  0  0  0  0
    0.3651  -15.3651    1.5471 H   0  0  0  0  0  0  0  0  0  0  0  0
   -1.0705  -14.4470    4.2097 H   0  0  0  0  0  0  0  0  0  0  0  0
   -3.1609  -15.8363    4.2078 H   0  0  0  0  0  0  0  0  0  0  0  0
   -2.9806  -18.2746    3.8706 H   0  0  0  0  0  0  0  0  0  0  0  0
    1.2064  -18.0264    3.5425 H   0  0  0  0  0  0  0  0  0  0  0  0
    2.1449  -17.2317    1.2474 H   0  0  0  0  0  0  0  0  0  0  0  0
    1.2491  -17.3007   -0.3080 H   0  0  0  0  0  0  0  0  0  0  0  0
    3.0431  -17.2090   -0.3080 H   0  0  0  0  0  0  0  0  0  0  0  0
  1  2  2  0
  2  3  1  0
  3  4  1  0
  4  5  1  0
  5  6  1  0
  6  7  1  0
  7  8  1  6
  7  9  1  0
  9 10  1  0
 10 11  1  0
 11 12  2  0
 11 13  1  0
 13 14  2  0
 14 15  1  0
 15 16  2  0
 16 17  1  0
 17 18  2  0
  9 19  1  0
 19 20  1  0
 19 21  1  0
 21 22  1  6
 21 23  1  0
 24 23  1  6
 24 25  1  0
 25 26  1  0
 26 27  1  0
 27 28  2  0
 27 29  1  0
 24 30  1  0
 30 31  1  0
 31 32  1  0
 32 33  1  0
 33 34  2  0
 33 35  1  0
 35 36  2  0
 36 37  1  0
 37 38  2  0
 38 39  1  0
 39 40  2  0
 31 41  1  0
 41 42  1  1
  7  2  1  0
 18 13  1  0
 41 21  1  0
 41  6  1  0
 29 24  1  0
 40 35  1  0
  1 43  1  0
  1 44  1  0
  3 45  1  0
  3 46  1  0
  4 47  1  0
  4 48  1  0
  5 49  1  0
  5 50  1  0
  6 51  1  1
  8 52  1  0
  8 53  1  0
  8 54  1  0
  9 55  1  6
 14 56  1  0
 15 57  1  0
 16 58  1  0
 17 59  1  0
 18 60  1  0
 19 61  1  6
 20 62  1  0
 22 63  1  0
 22 64  1  0
 22 65  1  0
 25 66  1  0
 25 67  1  0
 29 68  1  0
 29 69  1  0
 30 70  1  0
 30 71  1  0
 31 72  1  6
 36 73  1  0
 37 74  1  0
 38 75  1  0
 40 76  1  0
 42 77  1  0
 42 78  1  0
 42 79  1  0
M  END
>  <meeko>  (3) 
{"is_sidechain": [false], "free_energy": -8.842, "intermolecular_energy": -11.592, "internal_energy": -1.986}

$$$$
LIB_GMMYKYNDSYLONO__M_PUB_ALL__e8__s20260927
     RDKit          3D

 79 84  0  0  0  0  0  0  0  0999 V2000
    4.8300  -12.2350    1.0340 C   0  0  0  0  0  0  0  0  0  0  0  0
    5.9260  -11.9580    0.3040 C   0  0  0  0  0  0  0  0  0  0  0  0
    7.0460  -11.1730    0.9510 C   0  0  0  0  0  0  0  0  0  0  0  0
    8.3210  -11.9960    0.9460 C   0  0  0  0  0  0  0  0  0  0  0  0
    8.6830  -12.5120   -0.4460 C   0  0  0  0  0  0  0  0  0  0  0  0
    7.5200  -13.2750   -1.1380 C   0  0  1  0  0  0  0  0  0  0  0  0
    6.1950  -12.4020   -1.1670 C   0  0  2  0  0  0  0  0  0  0  0  0
    6.3150  -11.0900   -1.9880 C   0  0  0  0  0  0  0  0  0  0  0  0
    5.0360  -13.2730   -1.7560 C   0  0  1  0  0  0  0  0  0  0  0  0
    3.8650  -12.4340   -1.9530 O   0  0  0  0  0  0  0  0  0  0  0  0
    2.6810  -12.9380   -1.5210 C   0  0  0  0  0  0  0  0  0  0  0  0
    2.3560  -14.1160   -1.5560 O   0  0  0  0  0  0  0  0  0  0  0  0
    1.8150  -11.8560   -0.9830 C   0  0  0  0  0  0  0  0  0  0  0  0
    1.3150  -11.8750    0.3260 C   0  0  0  0  0  0  0  0  0  0  0  0
    0.5000  -10.8350    0.7810 C   0  0  0  0  0  0  0  0  0  0  0  0
    0.1820   -9.7750   -0.0680 C   0  0  0  0  0  0  0  0  0  0  0  0
    0.6740   -9.7500   -1.3720 C   0  0  0  0  0  0  0  0  0  0  0  0
    1.4880  -10.7880   -1.8300 C   0  0  0  0  0  0  0  0  0  0  0  0
    5.4020  -13.9090   -3.1150 C   0  0  2  0  0  0  0  0  0  0  0  0
    4.2930  -14.6850   -3.6150 O   0  0  0  0  0  0  0  0  0  0  0  0
    6.6700  -14.8130   -3.0410 C   0  0  2  0  0  0  0  0  0  0  0  0
    6.8450  -15.4190   -4.4560 C   0  0  0  0  0  0  0  0  0  0  0  0
    6.3370  -15.8540   -2.0900 O   0  0  0  0  0  0  0  0  0  0  0  0
    7.3230  -16.8120   -1.7010 C   0  0  2  0  0  0  0  0  0  0  0  0
    7.4850  -17.9500   -2.7070 C   0  0  0  0  0  0  0  0  0  0  0  0
    7.7970  -19.1180   -1.9490 O   0  0  0  0  0  0  0  0  0  0  0  0
    7.3560  -18.9430   -0.6730 C   0  0  0  0  0  0  0  0  0  0  0  0
    7.4280  -19.7900    0.2010 O   0  0  0  0  0  0  0  0  0  0  0  0
    6.7560  -17.5840   -0.5130 C   0  0  0  0  0  0  0  0  0  0  0  0
    8.6630  -16.1630   -1.3200 C   0  0  0  0  0  0  0  0  0  0  0  0
    9.0620  -15.0770   -2.3200 C   0  0  2  0  0  0  0  0  0  0  0  0
   10.3090  -14.4630   -1.9360 O   0  0  0  0  0  0  0  0  0  0  0  0
   11.3860  -14.7440   -2.7140 C   0  0  0  0  0  0  0  0  0  0  0  0
   11.5910  -15.8000   -3.2910 O   0  0  0  0  0  0  0  0  0  0  0  0
   12.3150  -13.5970   -2.7690 C   0  0  0  0  0  0  0  0  0  0  0  0
   13.3700  -13.6090   -3.6850 C   0  0  0  0  0  0  0  0  0  0  0  0
   14.2430  -12.5250   -3.7430 C   0  0  0  0  0  0  0  0  0  0  0  0
   14.0280  -11.4600   -2.8830 C   0  0  0  0  0  0  0  0  0  0  0  0
   13.0150  -11.4120   -1.9890 N   0  0  0  0  0  0  0  0  0  0  0  0
   12.1800  -12.4810   -1.9530 C   0  0  0  0  0  0  0  0  0  0  0  0
    7.9180  -14.0080   -2.5120 C   0  0  2  0  0  0  0  0  0  0  0  0
    8.4400  -13.0010   -3.5640 C   0  0  0  0  0  0  0  0  0  0  0  0
    4.0013  -12.8042    0.5876 H   0  0  0  0  0  0  0  0  0  0  0  0
    4.7628  -11.8922    2.0771 H   0  0  0  0  0  0  0  0  0  0  0  0
    7.2106  -10.2415    0.3896 H   0  0  0  0  0  0  0  0  0  0  0  0
    6.7707  -10.9366    1.9894 H   0  0  0  0  0  0  0  0  0  0  0  0
    9.1462  -11.3691    1.3148 H   0  0  0  0  0  0  0  0  0  0  0  0
    8.1551  -12.8705    1.5923 H   0  0  0  0  0  0  0  0  0  0  0  0
    8.9614  -11.6539   -1.0754 H   0  0  0  0  0  0  0  0  0  0  0  0
    9.5137  -13.2228   -0.3251 H   0  0  0  0  0  0  0  0  0  0  0  0
    7.2810  -14.1419   -0.5044 H   0  0  0  0  0  0  0  0  0  0  0  0
    6.3933  -10.2339   -1.3017 H   0  0  0  0  0  0  0  0  0  0  0  0
    7.2128  -11.1350   -2.6220 H   0  0  0  0  0  0  0  0  0  0  0  0
    5.4240  -10.9714   -2.6220 H   0  0  0  0  0  0  0  0  0  0  0  0
    4.8426  -14.0838   -1.0382 H   0  0  0  0  0  0  0  0  0  0  0  0
    1.5646  -12.7103    0.9968 H   0  0  0  0  0  0  0  0  0  0  0  0
    0.1091  -10.8523    1.8091 H   0  0  0  0  0  0  0  0  0  0  0  0
   -0.4587   -8.9567    0.2924 H   0  0  0  0  0  0  0  0  0  0  0  0
    0.4212   -8.9132   -2.0397 H   0  0  0  0  0  0  0  0  0  0  0  0
    1.8742  -10.7675   -2.8598 H   0  0  0  0  0  0  0  0  0  0  0  0
    5.6283  -13.0778   -3.7990 H   0  0  0  0  0  0  0  0  0  0  0  0
    3.8660  -14.1620   -4.3240 H   0  0  0  0  0  0  0  0  0  0  0  0
    7.1492  -16.4725   -4.3686 H   0  0  0  0  0  0  0  0  0  0  0  0
    5.8921  -15.3566   -5.0020 H   0  0  0  0  0  0  0  0  0  0  0  0
    7.6179  -14.8582   -5.0020 H   0  0  0  0  0  0  0  0  0  0  0  0
    6.5498  -18.0986   -3.2668 H   0  0  0  0  0  0  0  0  0  0  0  0
    8.2763  -17.7261   -3.4375 H   0  0  0  0  0  0  0  0  0  0  0  0
    5.6579  -17.6294   -0.5596 H   0  0  0  0  0  0  0  0  0  0  0  0
    6.9911  -17.1194    0.4560 H   0  0  0  0  0  0  0  0  0  0  0  0
    8.5711  -15.7128   -0.3206 H   0  0  0  0  0  0  0  0  0  0  0  0
    9.4393  -16.9423   -1.3275 H   0  0  0  0  0  0  0  0  0  0  0  0
    9.2106  -15.5586   -3.2977 H   0  0  0  0  0  0  0  0  0  0  0  0
   13.5104  -14.4691   -4.3562 H   0  0  0  0  0  0  0  0  0  0  0  0
   15.0823  -12.5147   -4.4540 H   0  0  0  0  0  0  0  0  0  0  0  0
   14.7200  -10.6062   -2.9303 H   0  0  0  0  0  0  0  0  0  0  0  0
   11.3468  -12.4627   -1.2351 H   0  0  0  0  0  0  0  0  0  0  0  0
    8.8883  -12.1362   -3.0530 H   0  0  0  0  0  0  0  0  0  0  0  0
    9.1988  -13.4887   -4.1935 H   0  0  0  0  0  0  0  0  0  0  0  0
    7.6041  -12.6620   -4.1935 H   0  0  0  0  0  0  0  0  0  0  0  0
  1  2  2  0
  2  3  1  0
  3  4  1  0
  4  5  1  0
  5  6  1  0
  6  7  1  0
  7  8  1  6
  7  9  1  0
  9 10  1  0
 10 11  1  0
 11 12  2  0
 11 13  1  0
 13 14  2  0
 14 15  1  0
 15 16  2  0
 16 17  1  0
 17 18  2  0
  9 19  1  0
 19 20  1  0
 19 21  1  0
 21 22  1  6
 21 23  1  0
 24 23  1  6
 24 25  1  0
 25 26  1  0
 26 27  1  0
 27 28  2  0
 27 29  1  0
 24 30  1  0
 30 31  1  0
 31 32  1  0
 32 33  1  0
 33 34  2  0
 33 35  1  0
 35 36  2  0
 36 37  1  0
 37 38  2  0
 38 39  1  0
 39 40  2  0
 31 41  1  0
 41 42  1  6
  7  2  1  0
 18 13  1  0
 41 21  1  0
 41  6  1  0
 29 24  1  0
 40 35  1  0
  1 43  1  0
  1 44  1  0
  3 45  1  0
  3 46  1  0
  4 47  1  0
  4 48  1  0
  5 49  1  0
  5 50  1  0
  6 51  1  1
  8 52  1  0
  8 53  1  0
  8 54  1  0
  9 55  1  1
 14 56  1  0
 15 57  1  0
 16 58  1  0
 17 59  1  0
 18 60  1  0
 19 61  1  6
 20 62  1  0
 22 63  1  0
 22 64  1  0
 22 65  1  0
 25 66  1  0
 25 67  1  0
 29 68  1  0
 29 69  1  0
 30 70  1  0
 30 71  1  0
 31 72  1  6
 36 73  1  0
 37 74  1  0
 38 75  1  0
 40 76  1  0
 42 77  1  0
 42 78  1  0
 42 79  1  0
M  END
>  <meeko>  (4) 
{"is_sidechain": [false], "free_energy": -8.809, "intermolecular_energy": -11.813, "internal_energy": -1.72}

$$$$
LIB_GMMYKYNDSYLONO__M_PUB_ALL__e8__s20260927
     RDKit          3D

 79 84  0  0  0  0  0  0  0  0999 V2000
    5.5640  -13.3690   -5.6150 C   0  0  0  0  0  0  0  0  0  0  0  0
    6.4630  -14.1740   -5.0200 C   0  0  0  0  0  0  0  0  0  0  0  0
    7.7430  -14.4980   -5.7590 C   0  0  0  0  0  0  0  0  0  0  0  0
    8.9370  -14.0240   -4.9510 C   0  0  0  0  0  0  0  0  0  0  0  0
    8.9260  -14.5540   -3.5170 C   0  0  0  0  0  0  0  0  0  0  0  0
    7.5950  -14.2690   -2.7690 C   0  0  1  0  0  0  0  0  0  0  0  0
    6.3470  -14.7970   -3.5940 C   0  0  2  0  0  0  0  0  0  0  0  0
    6.3290  -16.3350   -3.8080 C   0  0  0  0  0  0  0  0  0  0  0  0
    5.0390  -14.3650   -2.8520 C   0  0  1  0  0  0  0  0  0  0  0  0
    3.8970  -14.9920   -3.4990 O   0  0  0  0  0  0  0  0  0  0  0  0
    2.6780  -14.4640   -3.2170 C   0  0  0  0  0  0  0  0  0  0  0  0
    1.7110  -15.0900   -2.8090 O   0  0  0  0  0  0  0  0  0  0  0  0
    2.6710  -12.9980   -3.4680 C   0  0  0  0  0  0  0  0  0  0  0  0
    3.0070  -12.4470   -4.7120 C   0  0  0  0  0  0  0  0  0  0  0  0
    2.9890  -11.0620   -4.8920 C   0  0  0  0  0  0  0  0  0  0  0  0
    2.6360  -10.2230   -3.8360 C   0  0  0  0  0  0  0  0  0  0  0  0
    2.3020  -10.7650   -2.5950 C   0  0  0  0  0  0  0  0  0  0  0  0
    2.3200  -12.1490   -2.4100 C   0  0  0  0  0  0  0  0  0  0  0  0
    5.0330  -14.7830   -1.3660 C   0  0  2  0  0  0  0  0  0  0  0  0
    3.8000  -14.3730   -0.7390 O   0  0  0  0  0  0  0  0  0  0  0  0
    6.2360  -14.1960   -0.5660 C   0  0  2  0  0  0  0  0  0  0  0  0
    6.0340  -14.6490    0.9020 C   0  0  0  0  0  0  0  0  0  0  0  0
    6.0920  -12.7580   -0.6680 O   0  0  0  0  0  0  0  0  0  0  0  0
    7.0950  -11.8970   -0.1260 C   0  0  2  0  0  0  0  0  0  0  0  0
    6.9540  -11.6820    1.3790 C   0  0  0  0  0  0  0  0  0  0  0  0
    7.3830  -10.3460    1.6400 O   0  0  0  0  0  0  0  0  0  0  0  0
    7.2720   -9.6200    0.4940 C   0  0  0  0  0  0  0  0  0  0  0  0
    7.5120   -8.4270    0.4100 O   0  0  0  0  0  0  0  0  0  0  0  0
    6.7950  -10.4870   -0.6270 C   0  0  0  0  0  0  0  0  0  0  0  0
    8.5180  -12.3120   -0.5340 C   0  0  0  0  0  0  0  0  0  0  0  0
    8.7160  -13.8230   -0.4100 C   0  0  2  0  0  0  0  0  0  0  0  0
   10.0470  -14.2000   -0.8180 O   0  0  0  0  0  0  0  0  0  0  0  0
   11.0700  -13.5080   -0.2540 C   0  0  0  0  0  0  0  0  0  0  0  0
   11.2400  -13.3390    0.9430 O   0  0  0  0  0  0  0  0  0  0  0  0
   11.9710  -12.9560   -1.2860 C   0  0  0  0  0  0  0  0  0  0  0  0
   12.2370  -13.7030   -2.4380 C   0  0  0  0  0  0  0  0  0  0  0  0
   13.0800  -13.1820   -3.4160 C   0  0  0  0  0  0  0  0  0  0  0  0
   13.6280  -11.9250   -3.2110 C   0  0  0  0  0  0  0  0  0  0  0  0
   13.3870  -11.1730   -2.1140 N   0  0  0  0  0  0  0  0  0  0  0  0
   12.5630  -11.7050   -1.1770 C   0  0  0  0  0  0  0  0  0  0  0  0
    7.6130  -14.6260   -1.2030 C   0  0  2  0  0  0  0  0  0  0  0  0
    7.9130  -16.1240   -0.9620 C   0  0  0  0  0  0  0  0  0  0  0  0
    4.6252  -13.1174   -5.0999 H   0  0  0  0  0  0  0  0  0  0  0  0
    5.7678  -12.9624   -6.6166 H   0  0  0  0  0  0  0  0  0  0  0  0
    7.8125  -15.5854   -5.9097 H   0  0  0  0  0  0  0  0  0  0  0  0
    7.7386  -13.9883   -6.7338 H   0  0  0  0  0  0  0  0  0  0  0  0
    9.8566  -14.3685   -5.4466 H   0  0  0  0  0  0  0  0  0  0  0  0
    8.8895  -12.9262   -4.9002 H   0  0  0  0  0  0  0  0  0  0  0  0
    9.0849  -15.6421   -3.5453 H   0  0  0  0  0  0  0  0  0  0  0  0
    9.7260  -14.0334   -2.9702 H   0  0  0  0  0  0  0  0  0  0  0  0
    7.4744  -13.1763   -2.7295 H   0  0  0  0  0  0  0  0  0  0  0  0
    6.3231  -16.8410   -2.8313 H   0  0  0  0  0  0  0  0  0  0  0  0
    5.4275  -16.6162   -4.3721 H   0  0  0  0  0  0  0  0  0  0  0  0
    7.2237  -16.6372   -4.3721 H   0  0  0  0  0  0  0  0  0  0  0  0
    4.9862  -13.2674   -2.9009 H   0  0  0  0  0  0  0  0  0  0  0  0
    3.2852  -13.1060   -5.5476 H   0  0  0  0  0  0  0  0  0  0  0  0
    3.2540  -10.6322   -5.8693 H   0  0  0  0  0  0  0  0  0  0  0  0
    2.6209   -9.1328   -3.9816 H   0  0  0  0  0  0  0  0  0  0  0  0
    2.0244  -10.1023   -1.7621 H   0  0  0  0  0  0  0  0  0  0  0  0
    2.0577  -12.5743   -1.4301 H   0  0  0  0  0  0  0  0  0  0  0  0
    5.1263  -15.8789   -1.3483 H   0  0  0  0  0  0  0  0  0  0  0  0
    3.6440  -14.9740    0.0190 H   0  0  0  0  0  0  0  0  0  0  0  0
    6.3863  -13.8588    1.5813 H   0  0  0  0  0  0  0  0  0  0  0  0
    4.9658  -14.8391    1.0834 H   0  0  0  0  0  0  0  0  0  0  0  0
    6.6064  -15.5706    1.0834 H   0  0  0  0  0  0  0  0  0  0  0  0
    5.9052  -11.8108    1.6845 H   0  0  0  0  0  0  0  0  0  0  0  0
    7.5558  -12.4101    1.9427 H   0  0  0  0  0  0  0  0  0  0  0  0
    5.7174  -10.3506   -0.8007 H   0  0  0  0  0  0  0  0  0  0  0  0
    7.2794  -10.2573   -1.5875 H   0  0  0  0  0  0  0  0  0  0  0  0
    8.6925  -12.0127   -1.5780 H   0  0  0  0  0  0  0  0  0  0  0  0
    9.2304  -11.8132    0.1395 H   0  0  0  0  0  0  0  0  0  0  0  0
    8.6004  -14.0899    0.6509 H   0  0  0  0  0  0  0  0  0  0  0  0
   11.7830  -14.6961   -2.5706 H   0  0  0  0  0  0  0  0  0  0  0  0
   13.3056  -13.7534   -4.3285 H   0  0  0  0  0  0  0  0  0  0  0  0
   14.2959  -11.5171   -3.9840 H   0  0  0  0  0  0  0  0  0  0  0  0
   12.3511  -11.1095   -0.2768 H   0  0  0  0  0  0  0  0  0  0  0  0
    7.9524  -16.3207    0.1196 H   0  0  0  0  0  0  0  0  0  0  0  0
    7.1193  -16.7347   -1.4171 H   0  0  0  0  0  0  0  0  0  0  0  0
    8.8806  -16.3820   -1.4171 H   0  0  0  0  0  0  0  0  0  0  0  0
  1  2  2  0
  2  3  1  0
  3  4  1  0
  4  5  1  0
  5  6  1  0
  6  7  1  0
  7  8  1  6
  7  9  1  0
  9 10  1  0
 10 11  1  0
 11 12  2  0
 11 13  1  0
 13 14  2  0
 14 15  1  0
 15 16  2  0
 16 17  1  0
 17 18  2  0
  9 19  1  0
 19 20  1  0
 19 21  1  0
 21 22  1  1
 21 23  1  0
 24 23  1  6
 24 25  1  0
 25 26  1  0
 26 27  1  0
 27 28  2  0
 27 29  1  0
 24 30  1  0
 30 31  1  0
 31 32  1  0
 32 33  1  0
 33 34  2  0
 33 35  1  0
 35 36  2  0
 36 37  1  0
 37 38  2  0
 38 39  1  0
 39 40  2  0
 31 41  1  0
 41 42  1  6
  7  2  1  0
 18 13  1  0
 41 21  1  0
 41  6  1  0
 29 24  1  0
 40 35  1  0
  1 43  1  0
  1 44  1  0
  3 45  1  0
  3 46  1  0
  4 47  1  0
  4 48  1  0
  5 49  1  0
  5 50  1  0
  6 51  1  1
  8 52  1  0
  8 53  1  0
  8 54  1  0
  9 55  1  1
 14 56  1  0
 15 57  1  0
 16 58  1  0
 17 59  1  0
 18 60  1  0
 19 61  1  6
 20 62  1  0
 22 63  1  0
 22 64  1  0
 22 65  1  0
 25 66  1  0
 25 67  1  0
 29 68  1  0
 29 69  1  0
 30 70  1  0
 30 71  1  0
 31 72  1  1
 36 73  1  0
 37 74  1  0
 38 75  1  0
 40 76  1  0
 42 77  1  0
 42 78  1  0
 42 79  1  0
M  END
>  <meeko>  (5) 
{"is_sidechain": [false], "free_energy": -8.741, "intermolecular_energy": -12.613, "internal_energy": -0.826}

$$$$
LIB_GMMYKYNDSYLONO__M_PUB_ALL__e8__s20260927
     RDKit          3D

 79 84  0  0  0  0  0  0  0  0999 V2000
    7.7080  -13.2350   -3.5510 C   0  0  0  0  0  0  0  0  0  0  0  0
    6.6650  -12.5020   -3.1190 C   0  0  0  0  0  0  0  0  0  0  0  0
    5.7820  -11.8260   -4.1460 C   0  0  0  0  0  0  0  0  0  0  0  0
    4.3570  -12.3330   -4.0120 C   0  0  0  0  0  0  0  0  0  0  0  0
    3.8190  -12.2060   -2.5870 C   0  0  0  0  0  0  0  0  0  0  0  0
    4.7460  -12.8530   -1.5220 C   0  0  1  0  0  0  0  0  0  0  0  0
    6.2280  -12.2980   -1.6350 C   0  0  2  0  0  0  0  0  0  0  0  0
    6.3610  -10.7750   -1.3630 C   0  0  0  0  0  0  0  0  0  0  0  0
    7.1330  -13.0810   -0.6270 C   0  0  1  0  0  0  0  0  0  0  0  0
    8.4500  -12.4650   -0.5930 O   0  0  0  0  0  0  0  0  0  0  0  0
    9.5120  -13.3090   -0.6210 C   0  0  0  0  0  0  0  0  0  0  0  0
    9.4510  -14.5290   -0.5940 O   0  0  0  0  0  0  0  0  0  0  0  0
   10.7870  -12.5460   -0.6970 C   0  0  0  0  0  0  0  0  0  0  0  0
   11.2720  -11.7850    0.3760 C   0  0  0  0  0  0  0  0  0  0  0  0
   12.4730  -11.0830    0.2510 C   0  0  0  0  0  0  0  0  0  0  0  0
   13.1930  -11.1360   -0.9420 C   0  0  0  0  0  0  0  0  0  0  0  0
   12.7150  -11.8890   -2.0140 C   0  0  0  0  0  0  0  0  0  0  0  0
   11.5150  -12.5920   -1.8930 C   0  0  0  0  0  0  0  0  0  0  0  0
    6.5660  -13.0750    0.8090 C   0  0  2  0  0  0  0  0  0  0  0  0
    7.4470  -13.7960    1.6950 O   0  0  0  0  0  0  0  0  0  0  0  0
    5.1350  -13.6850    0.8990 C   0  0  2  0  0  0  0  0  0  0  0  0
    4.7570  -13.6660    2.4020 C   0  0  0  0  0  0  0  0  0  0  0  0
    5.2760  -15.0510    0.4380 O   0  0  0  0  0  0  0  0  0  0  0  0
    4.1230  -15.8820    0.2940 C   0  0  2  0  0  0  0  0  0  0  0  0
    3.6600  -16.5030    1.6110 C   0  0  0  0  0  0  0  0  0  0  0  0
    3.1360  -17.7900    1.2890 O   0  0  0  0  0  0  0  0  0  0  0  0
    3.6700  -18.1970    0.1040 C   0  0  0  0  0  0  0  0  0  0  0  0
    3.4560  -19.2820   -0.4090 O   0  0  0  0  0  0  0  0  0  0  0  0
    4.5650  -17.1380   -0.4530 C   0  0  0  0  0  0  0  0  0  0  0  0
    2.9820  -15.1870   -0.4660 C   0  0  0  0  0  0  0  0  0  0  0  0
    2.7830  -13.7500    0.0160 C   0  0  2  0  0  0  0  0  0  0  0  0
    1.7260  -13.1050   -0.7220 O   0  0  0  0  0  0  0  0  0  0  0  0
    0.4860  -13.1530   -0.1690 C   0  0  0  0  0  0  0  0  0  0  0  0
   -0.2620  -14.1170   -0.1820 O   0  0  0  0  0  0  0  0  0  0  0  0
    0.1330  -11.8610    0.4530 C   0  0  0  0  0  0  0  0  0  0  0  0
    0.4740  -10.6690   -0.1930 C   0  0  0  0  0  0  0  0  0  0  0  0
    0.1360   -9.4500    0.3890 C   0  0  0  0  0  0  0  0  0  0  0  0
   -0.5380   -9.4630    1.6000 C   0  0  0  0  0  0  0  0  0  0  0  0
   -0.8900  -10.5960    2.2490 N   0  0  0  0  0  0  0  0  0  0  0  0
   -0.5470  -11.7690    1.6600 C   0  0  0  0  0  0  0  0  0  0  0  0
    4.1250  -12.9230   -0.0410 C   0  0  2  0  0  0  0  0  0  0  0  0
    3.7870  -11.5140    0.5020 C   0  0  0  0  0  0  0  0  0  0  0  0
    8.3655  -13.7368   -2.8258 H   0  0  0  0  0  0  0  0  0  0  0  0
    7.9029  -13.3322   -4.6292 H   0  0  0  0  0  0  0  0  0  0  0  0
    5.7995  -10.7382   -3.9834 H   0  0  0  0  0  0  0  0  0  0  0  0
    6.1561  -12.0558   -5.1546 H   0  0  0  0  0  0  0  0  0  0  0  0
    3.7111  -11.7506   -4.6855 H   0  0  0  0  0  0  0  0  0  0  0  0
    4.3578  -13.4014   -4.2736 H   0  0  0  0  0  0  0  0  0  0  0  0
    3.7067  -11.1378   -2.3498 H   0  0  0  0  0  0  0  0  0  0  0  0
    2.8584  -12.7408   -2.5519 H   0  0  0  0  0  0  0  0  0  0  0  0
    4.8187  -13.9233   -1.7654 H   0  0  0  0  0  0  0  0  0  0  0  0
    6.3766  -10.5963   -0.2777 H   0  0  0  0  0  0  0  0  0  0  0  0
    7.2950  -10.4030   -1.8093 H   0  0  0  0  0  0  0  0  0  0  0  0
    5.5056  -10.2467   -1.8093 H   0  0  0  0  0  0  0  0  0  0  0  0
    7.1780  -14.1237   -0.9745 H   0  0  0  0  0  0  0  0  0  0  0  0
   10.7057  -11.7407    1.3180 H   0  0  0  0  0  0  0  0  0  0  0  0
   12.8514  -10.4875    1.0949 H   0  0  0  0  0  0  0  0  0  0  0  0
   14.1392  -10.5832   -1.0376 H   0  0  0  0  0  0  0  0  0  0  0  0
   13.2835  -11.9290   -2.9549 H   0  0  0  0  0  0  0  0  0  0  0  0
   11.1395  -13.1845   -2.7403 H   0  0  0  0  0  0  0  0  0  0  0  0
    6.4958  -12.0202    1.1132 H   0  0  0  0  0  0  0  0  0  0  0  0
    7.7170  -14.6170    1.2340 H   0  0  0  0  0  0  0  0  0  0  0  0
    5.6720  -13.7120    3.0108 H   0  0  0  0  0  0  0  0  0  0  0  0
    4.2104  -12.7392    2.6309 H   0  0  0  0  0  0  0  0  0  0  0  0
    4.1203  -14.5333    2.6309 H   0  0  0  0  0  0  0  0  0  0  0  0
    4.5084  -16.6006    2.3043 H   0  0  0  0  0  0  0  0  0  0  0  0
    2.9013  -15.8757    2.1019 H   0  0  0  0  0  0  0  0  0  0  0  0
    5.6215  -17.3670   -0.2497 H   0  0  0  0  0  0  0  0  0  0  0  0
    4.4898  -17.0396   -1.5460 H   0  0  0  0  0  0  0  0  0  0  0  0
    3.2229  -15.1741   -1.5392 H   0  0  0  0  0  0  0  0  0  0  0  0
    2.0527  -15.7456   -0.2805 H   0  0  0  0  0  0  0  0  0  0  0  0
    2.4799  -13.7888    1.0727 H   0  0  0  0  0  0  0  0  0  0  0  0
    1.0062  -10.6939   -1.1554 H   0  0  0  0  0  0  0  0  0  0  0  0
    0.3975   -8.5001   -0.1003 H   0  0  0  0  0  0  0  0  0  0  0  0
   -0.8012   -8.4984    2.0586 H   0  0  0  0  0  0  0  0  0  0  0  0
   -0.8244  -12.7036    2.1694 H   0  0  0  0  0  0  0  0  0  0  0  0
    3.7918  -11.5340    1.6018 H   0  0  0  0  0  0  0  0  0  0  0  0
    4.5378  -10.7937    0.1451 H   0  0  0  0  0  0  0  0  0  0  0  0
    2.7911  -11.2127    0.1451 H   0  0  0  0  0  0  0  0  0  0  0  0
  1  2  2  0
  2  3  1  0
  3  4  1  0
  4  5  1  0
  5  6  1  0
  6  7  1  0
  7  8  1  1
  7  9  1  0
  9 10  1  0
 10 11  1  0
 11 12  2  0
 11 13  1  0
 13 14  2  0
 14 15  1  0
 15 16  2  0
 16 17  1  0
 17 18  2  0
  9 19  1  0
 19 20  1  0
 19 21  1  0
 21 22  1  1
 21 23  1  0
 24 23  1  1
 24 25  1  0
 25 26  1  0
 26 27  1  0
 27 28  2  0
 27 29  1  0
 24 30  1  0
 30 31  1  0
 31 32  1  0
 32 33  1  0
 33 34  2  0
 33 35  1  0
 35 36  2  0
 36 37  1  0
 37 38  2  0
 38 39  1  0
 39 40  2  0
 31 41  1  0
 41 42  1  1
  7  2  1  0
 18 13  1  0
 41 21  1  0
 41  6  1  0
 29 24  1  0
 40 35  1  0
  1 43  1  0
  1 44  1  0
  3 45  1  0
  3 46  1  0
  4 47  1  0
  4 48  1  0
  5 49  1  0
  5 50  1  0
  6 51  1  6
  8 52  1  0
  8 53  1  0
  8 54  1  0
  9 55  1  6
 14 56  1  0
 15 57  1  0
 16 58  1  0
 17 59  1  0
 18 60  1  0
 19 61  1  1
 20 62  1  0
 22 63  1  0
 22 64  1  0
 22 65  1  0
 25 66  1  0
 25 67  1  0
 29 68  1  0
 29 69  1  0
 30 70  1  0
 30 71  1  0
 31 72  1  1
 36 73  1  0
 37 74  1  0
 38 75  1  0
 40 76  1  0
 42 77  1  0
 42 78  1  0
 42 79  1  0
M  END
>  <meeko>  (6) 
{"is_sidechain": [false], "free_energy": -8.651, "intermolecular_energy": -11.58, "internal_energy": -1.734}

$$$$
LIB_GMMYKYNDSYLONO__M_PUB_ALL__e8__s20260927
     RDKit          3D

 79 84  0  0  0  0  0  0  0  0999 V2000
    1.8470  -10.9840   -2.0350 C   0  0  0  0  0  0  0  0  0  0  0  0
    2.3220  -11.6800   -3.0840 C   0  0  0  0  0  0  0  0  0  0  0  0
    2.3860  -10.9990   -4.4340 C   0  0  0  0  0  0  0  0  0  0  0  0
    3.8220  -10.9650   -4.9250 C   0  0  0  0  0  0  0  0  0  0  0  0
    4.4780  -12.3460   -4.9220 C   0  0  0  0  0  0  0  0  0  0  0  0
    4.3710  -13.0720   -3.5530 C   0  0  1  0  0  0  0  0  0  0  0  0
    2.8660  -13.1420   -3.0550 C   0  0  2  0  0  0  0  0  0  0  0  0
    1.9260  -13.9600   -3.9810 C   0  0  0  0  0  0  0  0  0  0  0  0
    2.8440  -13.7650   -1.6200 C   0  0  1  0  0  0  0  0  0  0  0  0
    1.4640  -13.9990   -1.2240 O   0  0  0  0  0  0  0  0  0  0  0  0
    1.1080  -13.5670    0.0120 C   0  0  0  0  0  0  0  0  0  0  0  0
    1.8800  -13.3320    0.9310 O   0  0  0  0  0  0  0  0  0  0  0  0
   -0.3670  -13.4070    0.1090 C   0  0  0  0  0  0  0  0  0  0  0  0
   -0.9670  -12.2290    0.5750 C   0  0  0  0  0  0  0  0  0  0  0  0
   -2.3580  -12.1330    0.6500 C   0  0  0  0  0  0  0  0  0  0  0  0
   -3.1550  -13.2100    0.2630 C   0  0  0  0  0  0  0  0  0  0  0  0
   -2.5660  -14.3860   -0.2000 C   0  0  0  0  0  0  0  0  0  0  0  0
   -1.1750  -14.4860   -0.2760 C   0  0  0  0  0  0  0  0  0  0  0  0
    3.5960  -15.1110   -1.5440 C   0  0  2  0  0  0  0  0  0  0  0  0
    3.5290  -15.6450   -0.2060 O   0  0  0  0  0  0  0  0  0  0  0  0
    5.0890  -14.9980   -1.9780 C   0  0  2  0  0  0  0  0  0  0  0  0
    5.7000  -16.4070   -1.7730 C   0  0  0  0  0  0  0  0  0  0  0  0
    5.6820  -14.0580   -1.0500 O   0  0  0  0  0  0  0  0  0  0  0  0
    7.0360  -13.6380   -1.2210 C   0  0  2  0  0  0  0  0  0  0  0  0
    8.0500  -14.6370   -0.6670 C   0  0  0  0  0  0  0  0  0  0  0  0
    9.1460  -13.8690   -0.1710 O   0  0  0  0  0  0  0  0  0  0  0  0
    8.7100  -12.6080    0.0960 C   0  0  0  0  0  0  0  0  0  0  0  0
    9.4030  -11.7310    0.5850 O   0  0  0  0  0  0  0  0  0  0  0  0
    7.2680  -12.4670   -0.2700 C   0  0  0  0  0  0  0  0  0  0  0  0
    7.3490  -13.2170   -2.6660 C   0  0  0  0  0  0  0  0  0  0  0  0
    6.7630  -14.2050   -3.6750 C   0  0  2  0  0  0  0  0  0  0  0  0
    7.0450  -13.7840   -5.0250 O   0  0  0  0  0  0  0  0  0  0  0  0
    7.9230  -14.5470   -5.7260 C   0  0  0  0  0  0  0  0  0  0  0  0
    8.8680  -15.1600   -5.2540 O   0  0  0  0  0  0  0  0  0  0  0  0
    7.6030  -14.5360   -7.1670 C   0  0  0  0  0  0  0  0  0  0  0  0
    6.6250  -13.6610   -7.6490 C   0  0  0  0  0  0  0  0  0  0  0  0
    6.3270  -13.6450   -9.0090 C   0  0  0  0  0  0  0  0  0  0  0  0
    7.0210  -14.5040   -9.8460 C   0  0  0  0  0  0  0  0  0  0  0  0
    7.9760  -15.3590   -9.4160 N   0  0  0  0  0  0  0  0  0  0  0  0
    8.2460  -15.3550   -8.0860 C   0  0  0  0  0  0  0  0  0  0  0  0
    5.2190  -14.4320   -3.4430 C   0  0  2  0  0  0  0  0  0  0  0  0
    4.7720  -15.4690   -4.5010 C   0  0  0  0  0  0  0  0  0  0  0  0
    1.7898  -11.4553   -1.0427 H   0  0  0  0  0  0  0  0  0  0  0  0
    1.5159   -9.9437   -2.1697 H   0  0  0  0  0  0  0  0  0  0  0  0
    1.7671  -11.5553   -5.1534 H   0  0  0  0  0  0  0  0  0  0  0  0
    2.0098   -9.9696   -4.3398 H   0  0  0  0  0  0  0  0  0  0  0  0
    3.8337  -10.5718   -5.9523 H   0  0  0  0  0  0  0  0  0  0  0  0
    4.3935  -10.3235   -4.2381 H   0  0  0  0  0  0  0  0  0  0  0  0
    3.9882  -12.9673   -5.6863 H   0  0  0  0  0  0  0  0  0  0  0  0
    5.5479  -12.1998   -5.1314 H   0  0  0  0  0  0  0  0  0  0  0  0
    4.8918  -12.4453   -2.8141 H   0  0  0  0  0  0  0  0  0  0  0  0
    1.2374  -14.5593   -3.3673 H   0  0  0  0  0  0  0  0  0  0  0  0
    1.3477  -13.2726   -4.6159 H   0  0  0  0  0  0  0  0  0  0  0  0
    2.5269  -14.6277   -4.6159 H   0  0  0  0  0  0  0  0  0  0  0  0
    3.3469  -13.0517   -0.9504 H   0  0  0  0  0  0  0  0  0  0  0  0
   -0.3408  -11.3785    0.8822 H   0  0  0  0  0  0  0  0  0  0  0  0
   -2.8258  -11.2067    1.0148 H   0  0  0  0  0  0  0  0  0  0  0  0
   -4.2506  -13.1316    0.3231 H   0  0  0  0  0  0  0  0  0  0  0  0
   -3.1964  -15.2343   -0.5051 H   0  0  0  0  0  0  0  0  0  0  0  0
   -0.7116  -15.4151   -0.6394 H   0  0  0  0  0  0  0  0  0  0  0  0
    3.0957  -15.7882   -2.2519 H   0  0  0  0  0  0  0  0  0  0  0  0
    2.7040  -16.1680   -0.1400 H   0  0  0  0  0  0  0  0  0  0  0  0
    5.7900  -16.6145   -0.6965 H   0  0  0  0  0  0  0  0  0  0  0  0
    5.0479  -17.1607   -2.2385 H   0  0  0  0  0  0  0  0  0  0  0  0
    6.6959  -16.4461   -2.2385 H   0  0  0  0  0  0  0  0  0  0  0  0
    7.5991  -15.2248    0.1461 H   0  0  0  0  0  0  0  0  0  0  0  0
    8.3783  -15.3429   -1.4441 H   0  0  0  0  0  0  0  0  0  0  0  0
    6.6253  -12.5471    0.6191 H   0  0  0  0  0  0  0  0  0  0  0  0
    7.0293  -11.4916   -0.7190 H   0  0  0  0  0  0  0  0  0  0  0  0
    6.9194  -12.2211   -2.8495 H   0  0  0  0  0  0  0  0  0  0  0  0
    8.4416  -13.2005   -2.7925 H   0  0  0  0  0  0  0  0  0  0  0  0
    7.2524  -15.1774   -3.5168 H   0  0  0  0  0  0  0  0  0  0  0  0
    6.0942  -12.9894   -6.9582 H   0  0  0  0  0  0  0  0  0  0  0  0
    5.5591  -12.9667   -9.4094 H   0  0  0  0  0  0  0  0  0  0  0  0
    6.7817  -14.4895  -10.9196 H   0  0  0  0  0  0  0  0  0  0  0  0
    9.0205  -16.0416   -7.7136 H   0  0  0  0  0  0  0  0  0  0  0  0
    4.3854  -16.3659   -3.9949 H   0  0  0  0  0  0  0  0  0  0  0  0
    3.9816  -15.0336   -5.1301 H   0  0  0  0  0  0  0  0  0  0  0  0
    5.6312  -15.7447   -5.1301 H   0  0  0  0  0  0  0  0  0  0  0  0
  1  2  2  0
  2  3  1  0
  3  4  1  0
  4  5  1  0
  5  6  1  0
  6  7  1  0
  7  8  1  6
  7  9  1  0
  9 10  1  0
 10 11  1  0
 11 12  2  0
 11 13  1  0
 13 14  2  0
 14 15  1  0
 15 16  2  0
 16 17  1  0
 17 18  2  0
  9 19  1  0
 19 20  1  0
 19 21  1  0
 21 22  1  6
 21 23  1  0
 24 23  1  6
 24 25  1  0
 25 26  1  0
 26 27  1  0
 27 28  2  0
 27 29  1  0
 24 30  1  0
 30 31  1  0
 31 32  1  0
 32 33  1  0
 33 34  2  0
 33 35  1  0
 35 36  2  0
 36 37  1  0
 37 38  2  0
 38 39  1  0
 39 40  2  0
 31 41  1  0
 41 42  1  6
  7  2  1  0
 18 13  1  0
 41 21  1  0
 41  6  1  0
 29 24  1  0
 40 35  1  0
  1 43  1  0
  1 44  1  0
  3 45  1  0
  3 46  1  0
  4 47  1  0
  4 48  1  0
  5 49  1  0
  5 50  1  0
  6 51  1  1
  8 52  1  0
  8 53  1  0
  8 54  1  0
  9 55  1  1
 14 56  1  0
 15 57  1  0
 16 58  1  0
 17 59  1  0
 18 60  1  0
 19 61  1  6
 20 62  1  0
 22 63  1  0
 22 64  1  0
 22 65  1  0
 25 66  1  0
 25 67  1  0
 29 68  1  0
 29 69  1  0
 30 70  1  0
 30 71  1  0
 31 72  1  1
 36 73  1  0
 37 74  1  0
 38 75  1  0
 40 76  1  0
 42 77  1  0
 42 78  1  0
 42 79  1  0
M  END
>  <meeko>  (7) 
{"is_sidechain": [false], "free_energy": -8.564, "intermolecular_energy": -11.326, "internal_energy": -1.868}

$$$$
LIB_GMMYKYNDSYLONO__M_PUB_ALL__e8__s20260927
     RDKit          3D

 79 84  0  0  0  0  0  0  0  0999 V2000
   -0.4340  -13.2250    3.8920 C   0  0  0  0  0  0  0  0  0  0  0  0
   -0.6710  -13.1620    2.5690 C   0  0  0  0  0  0  0  0  0  0  0  0
   -1.6150  -12.0970    2.0540 C   0  0  0  0  0  0  0  0  0  0  0  0
   -0.8850  -11.1910    1.0800 C   0  0  0  0  0  0  0  0  0  0  0  0
   -0.1930  -11.9660   -0.0410 C   0  0  0  0  0  0  0  0  0  0  0  0
    0.7390  -13.0950    0.4800 C   0  0  1  0  0  0  0  0  0  0  0  0
   -0.0320  -14.0660    1.4700 C   0  0  2  0  0  0  0  0  0  0  0  0
   -1.2130  -14.8350    0.8170 C   0  0  0  0  0  0  0  0  0  0  0  0
    0.9910  -15.0960    2.0550 C   0  0  1  0  0  0  0  0  0  0  0  0
    0.2690  -16.0990    2.8230 O   0  0  0  0  0  0  0  0  0  0  0  0
    0.6840  -16.2960    4.1000 C   0  0  0  0  0  0  0  0  0  0  0  0
    1.8480  -16.3270    4.4720 O   0  0  0  0  0  0  0  0  0  0  0  0
   -0.4810  -16.4670    5.0090 C   0  0  0  0  0  0  0  0  0  0  0  0
   -1.7850  -16.6590    4.5330 C   0  0  0  0  0  0  0  0  0  0  0  0
   -2.8440  -16.8090    5.4300 C   0  0  0  0  0  0  0  0  0  0  0  0
   -2.6080  -16.7680    6.8040 C   0  0  0  0  0  0  0  0  0  0  0  0
   -1.3140  -16.5750    7.2860 C   0  0  0  0  0  0  0  0  0  0  0  0
   -0.2520  -16.4240    6.3910 C   0  0  0  0  0  0  0  0  0  0  0  0
    1.7960  -15.8240    0.9580 C   0  0  2  0  0  0  0  0  0  0  0  0
    2.7090  -16.7690    1.5540 O   0  0  0  0  0  0  0  0  0  0  0  0
    2.5940  -14.8480    0.0410 C   0  0  2  0  0  0  0  0  0  0  0  0
    3.3900  -15.7410   -0.9430 C   0  0  0  0  0  0  0  0  0  0  0  0
    3.5020  -14.1520    0.9300 O   0  0  0  0  0  0  0  0  0  0  0  0
    4.3250  -13.0960    0.4310 C   0  0  2  0  0  0  0  0  0  0  0  0
    5.5870  -13.5970   -0.2700 C   0  0  0  0  0  0  0  0  0  0  0  0
    6.6070  -12.6350   -0.0020 O   0  0  0  0  0  0  0  0  0  0  0  0
    6.2730  -11.9450    1.1230 C   0  0  0  0  0  0  0  0  0  0  0  0
    6.9750  -11.0910    1.6380 O   0  0  0  0  0  0  0  0  0  0  0  0
    4.9480  -12.4030    1.6400 C   0  0  0  0  0  0  0  0  0  0  0  0
    3.5400  -12.0820   -0.4160 C   0  0  0  0  0  0  0  0  0  0  0  0
    2.5910  -12.7820   -1.3890 C   0  0  2  0  0  0  0  0  0  0  0  0
    1.8460  -11.8170   -2.1590 O   0  0  0  0  0  0  0  0  0  0  0  0
    2.5500  -11.0990   -3.0720 C   0  0  0  0  0  0  0  0  0  0  0  0
    2.5190   -9.8850   -3.1990 O   0  0  0  0  0  0  0  0  0  0  0  0
    3.3670  -11.9830   -3.9280 C   0  0  0  0  0  0  0  0  0  0  0  0
    4.7400  -11.7490   -4.0450 C   0  0  0  0  0  0  0  0  0  0  0  0
    5.5140  -12.5860   -4.8460 C   0  0  0  0  0  0  0  0  0  0  0  0
    4.8870  -13.6340   -5.5010 C   0  0  0  0  0  0  0  0  0  0  0  0
    3.5640  -13.8930   -5.4050 N   0  0  0  0  0  0  0  0  0  0  0  0
    2.8340  -13.0620   -4.6190 C   0  0  0  0  0  0  0  0  0  0  0  0
    1.6400  -13.8000   -0.6490 C   0  0  2  0  0  0  0  0  0  0  0  0
    0.7680  -14.4530   -1.7480 C   0  0  0  0  0  0  0  0  0  0  0  0
    0.2479  -13.9894    4.2928 H   0  0  0  0  0  0  0  0  0  0  0  0
   -0.9222  -12.5121    4.5728 H   0  0  0  0  0  0  0  0  0  0  0  0
   -2.4622  -12.5766    1.5419 H   0  0  0  0  0  0  0  0  0  0  0  0
   -1.9840  -11.4986    2.9000 H   0  0  0  0  0  0  0  0  0  0  0  0
   -1.6119  -10.4977    0.6318 H   0  0  0  0  0  0  0  0  0  0  0  0
   -0.1066  -10.6558    1.6436 H   0  0  0  0  0  0  0  0  0  0  0  0
   -0.9647  -12.4176   -0.6818 H   0  0  0  0  0  0  0  0  0  0  0  0
    0.4359  -11.2515   -0.5924 H   0  0  0  0  0  0  0  0  0  0  0  0
    1.5165  -12.6152    1.0926 H   0  0  0  0  0  0  0  0  0  0  0  0
   -1.8572  -15.2544    1.6038 H   0  0  0  0  0  0  0  0  0  0  0  0
   -1.7992  -14.1449    0.1924 H   0  0  0  0  0  0  0  0  0  0  0  0
   -0.8190  -15.6502    0.1924 H   0  0  0  0  0  0  0  0  0  0  0  0
    1.6971  -14.5306    2.6809 H   0  0  0  0  0  0  0  0  0  0  0  0
   -1.9745  -16.6916    3.4499 H   0  0  0  0  0  0  0  0  0  0  0  0
   -3.8662  -16.9598    5.0526 H   0  0  0  0  0  0  0  0  0  0  0  0
   -3.4442  -16.8881    7.5086 H   0  0  0  0  0  0  0  0  0  0  0  0
   -1.1295  -16.5417    8.3699 H   0  0  0  0  0  0  0  0  0  0  0  0
    0.7682  -16.2707    6.7726 H   0  0  0  0  0  0  0  0  0  0  0  0
    1.0618  -16.3459    0.3267 H   0  0  0  0  0  0  0  0  0  0  0  0
    2.9580  -16.4190    2.4340 H   0  0  0  0  0  0  0  0  0  0  0  0
    4.0168  -16.4442   -0.3750 H   0  0  0  0  0  0  0  0  0  0  0  0
    2.6888  -16.3041   -1.5764 H   0  0  0  0  0  0  0  0  0  0  0  0
    4.0297  -15.1089   -1.5764 H   0  0  0  0  0  0  0  0  0  0  0  0
    5.8779  -14.5805    0.1277 H   0  0  0  0  0  0  0  0  0  0  0  0
    5.4227  -13.7126   -1.3515 H   0  0  0  0  0  0  0  0  0  0  0  0
    5.0723  -13.1056    2.4772 H   0  0  0  0  0  0  0  0  0  0  0  0
    4.3304  -11.5822    2.0335 H   0  0  0  0  0  0  0  0  0  0  0  0
    2.9533  -11.4354    0.2530 H   0  0  0  0  0  0  0  0  0  0  0  0
    4.2593  -11.4897   -1.0006 H   0  0  0  0  0  0  0  0  0  0  0  0
    3.2016  -13.3717   -2.0886 H   0  0  0  0  0  0  0  0  0  0  0  0
    5.2063  -10.9097   -3.5083 H   0  0  0  0  0  0  0  0  0  0  0  0
    6.5957  -12.4191   -4.9557 H   0  0  0  0  0  0  0  0  0  0  0  0
    5.5003  -14.2918   -6.1344 H   0  0  0  0  0  0  0  0  0  0  0  0
    1.7553  -13.2552   -4.5239 H   0  0  0  0  0  0  0  0  0  0  0  0
   -0.0282  -15.0492   -1.2783 H   0  0  0  0  0  0  0  0  0  0  0  0
    0.3178  -13.6681   -2.3735 H   0  0  0  0  0  0  0  0  0  0  0  0
    1.3945  -15.1059   -2.3735 H   0  0  0  0  0  0  0  0  0  0  0  0
  1  2  2  0
  2  3  1  0
  3  4  1  0
  4  5  1  0
  5  6  1  0
  6  7  1  0
  7  8  1  6
  7  9  1  0
  9 10  1  0
 10 11  1  0
 11 12  2  0
 11 13  1  0
 13 14  2  0
 14 15  1  0
 15 16  2  0
 16 17  1  0
 17 18  2  0
  9 19  1  0
 19 20  1  0
 19 21  1  0
 21 22  1  6
 21 23  1  0
 24 23  1  1
 24 25  1  0
 25 26  1  0
 26 27  1  0
 27 28  2  0
 27 29  1  0
 24 30  1  0
 30 31  1  0
 31 32  1  0
 32 33  1  0
 33 34  2  0
 33 35  1  0
 35 36  2  0
 36 37  1  0
 37 38  2  0
 38 39  1  0
 39 40  2  0
 31 41  1  0
 41 42  1  6
  7  2  1  0
 18 13  1  0
 41 21  1  0
 41  6  1  0
 29 24  1  0
 40 35  1  0
  1 43  1  0
  1 44  1  0
  3 45  1  0
  3 46  1  0
  4 47  1  0
  4 48  1  0
  5 49  1  0
  5 50  1  0
  6 51  1  1
  8 52  1  0
  8 53  1  0
  8 54  1  0
  9 55  1  1
 14 56  1  0
 15 57  1  0
 16 58  1  0
 17 59  1  0
 18 60  1  0
 19 61  1  6
 20 62  1  0
 22 63  1  0
 22 64  1  0
 22 65  1  0
 25 66  1  0
 25 67  1  0
 29 68  1  0
 29 69  1  0
 30 70  1  0
 30 71  1  0
 31 72  1  6
 36 73  1  0
 37 74  1  0
 38 75  1  0
 40 76  1  0
 42 77  1  0
 42 78  1  0
 42 79  1  0
M  END
>  <meeko>  (8) 
{"is_sidechain": [false], "free_energy": -8.533, "intermolecular_energy": -11.409, "internal_energy": -1.744}

$$$$
LIB_GMMYKYNDSYLONO__M_PUB_ALL__e8__s20260927
     RDKit          3D

 79 84  0  0  0  0  0  0  0  0999 V2000
    3.0290  -16.3900   -0.4280 C   0  0  0  0  0  0  0  0  0  0  0  0
    4.0420  -15.5190   -0.2590 C   0  0  0  0  0  0  0  0  0  0  0  0
    5.0180  -15.7580    0.8730 C   0  0  0  0  0  0  0  0  0  0  0  0
    6.4190  -15.9310    0.3150 C   0  0  0  0  0  0  0  0  0  0  0  0
    6.8360  -14.7780   -0.5990 C   0  0  0  0  0  0  0  0  0  0  0  0
    5.8120  -14.4950   -1.7320 C   0  0  1  0  0  0  0  0  0  0  0  0
    4.3530  -14.2760   -1.1490 C   0  0  2  0  0  0  0  0  0  0  0  0
    4.2180  -13.0440   -0.2140 C   0  0  0  0  0  0  0  0  0  0  0  0
    3.3550  -14.1260   -2.3450 C   0  0  1  0  0  0  0  0  0  0  0  0
    2.0480  -13.7490   -1.8290 O   0  0  0  0  0  0  0  0  0  0  0  0
    0.9880  -14.4560   -2.2960 C   0  0  0  0  0  0  0  0  0  0  0  0
    0.8200  -14.8000   -3.4560 O   0  0  0  0  0  0  0  0  0  0  0  0
    0.0400  -14.7700   -1.1940 C   0  0  0  0  0  0  0  0  0  0  0  0
   -0.9240  -15.7820   -1.2970 C   0  0  0  0  0  0  0  0  0  0  0  0
   -1.7940  -16.0330   -0.2340 C   0  0  0  0  0  0  0  0  0  0  0  0
   -1.7070  -15.2770    0.9340 C   0  0  0  0  0  0  0  0  0  0  0  0
   -0.7520  -14.2670    1.0440 C   0  0  0  0  0  0  0  0  0  0  0  0
    0.1200  -14.0130   -0.0170 C   0  0  0  0  0  0  0  0  0  0  0  0
    3.7970  -13.0460   -3.3560 C   0  0  2  0  0  0  0  0  0  0  0  0
    2.8340  -12.9420   -4.4250 O   0  0  0  0  0  0  0  0  0  0  0  0
    5.2070  -13.3220   -3.9610 C   0  0  2  0  0  0  0  0  0  0  0  0
    5.4560  -12.1950   -4.9940 C   0  0  0  0  0  0  0  0  0  0  0  0
    5.0870  -14.5990   -4.6340 O   0  0  0  0  0  0  0  0  0  0  0  0
    6.2360  -15.2110   -5.2210 C   0  0  2  0  0  0  0  0  0  0  0  0
    6.5770  -14.6520   -6.6010 C   0  0  0  0  0  0  0  0  0  0  0  0
    7.1090  -15.7390   -7.3570 O   0  0  0  0  0  0  0  0  0  0  0  0
    6.6730  -16.9080   -6.8120 C   0  0  0  0  0  0  0  0  0  0  0  0
    6.9140  -18.0120   -7.2690 O   0  0  0  0  0  0  0  0  0  0  0  0
    5.8430  -16.6370   -5.5980 C   0  0  0  0  0  0  0  0  0  0  0  0
    7.4480  -15.2290   -4.2740 C   0  0  0  0  0  0  0  0  0  0  0  0
    7.6240  -13.8850   -3.5670 C   0  0  2  0  0  0  0  0  0  0  0  0
    8.7500  -13.9250   -2.6670 O   0  0  0  0  0  0  0  0  0  0  0  0
    9.9140  -13.4020   -3.1300 C   0  0  0  0  0  0  0  0  0  0  0  0
   10.3080  -13.4540   -4.2840 O   0  0  0  0  0  0  0  0  0  0  0  0
   10.6760  -12.7580   -2.0410 C   0  0  0  0  0  0  0  0  0  0  0  0
   10.1820  -12.8030   -0.7340 C   0  0  0  0  0  0  0  0  0  0  0  0
   10.9030  -12.2020    0.2950 C   0  0  0  0  0  0  0  0  0  0  0  0
   12.1010  -11.5780   -0.0180 C   0  0  0  0  0  0  0  0  0  0  0  0
   12.6110  -11.5210   -1.2680 N   0  0  0  0  0  0  0  0  0  0  0  0
   11.8880  -12.1130   -2.2520 C   0  0  0  0  0  0  0  0  0  0  0  0
    6.3030  -13.4320   -2.8330 C   0  0  2  0  0  0  0  0  0  0  0  0
    6.6130  -12.0550   -2.1980 C   0  0  0  0  0  0  0  0  0  0  0  0
    2.3052  -16.2404   -1.2427 H   0  0  0  0  0  0  0  0  0  0  0  0
    2.9254  -17.2511    0.2486 H   0  0  0  0  0  0  0  0  0  0  0  0
    5.0012  -14.8973    1.5577 H   0  0  0  0  0  0  0  0  0  0  0  0
    4.7281  -16.6693    1.4166 H   0  0  0  0  0  0  0  0  0  0  0  0
    7.1276  -15.9888    1.1544 H   0  0  0  0  0  0  0  0  0  0  0  0
    6.4259  -16.8517   -0.2869 H   0  0  0  0  0  0  0  0  0  0  0  0
    6.9425  -13.8690    0.0112 H   0  0  0  0  0  0  0  0  0  0  0  0
    7.7829  -15.0667   -1.0785 H   0  0  0  0  0  0  0  0  0  0  0  0
    5.7453  -15.4082   -2.3415 H   0  0  0  0  0  0  0  0  0  0  0  0
    4.2542  -13.3739    0.8347 H   0  0  0  0  0  0  0  0  0  0  0  0
    5.0449  -12.3448   -0.4071 H   0  0  0  0  0  0  0  0  0  0  0  0
    3.2593  -12.5404   -0.4071 H   0  0  0  0  0  0  0  0  0  0  0  0
    3.3262  -15.0944   -2.8660 H   0  0  0  0  0  0  0  0  0  0  0  0
   -0.9955  -16.3800   -2.2175 H   0  0  0  0  0  0  0  0  0  0  0  0
   -2.5491  -16.8284   -0.3184 H   0  0  0  0  0  0  0  0  0  0  0  0
   -2.3929  -15.4776    1.7703 H   0  0  0  0  0  0  0  0  0  0  0  0
   -0.6854  -13.6706    1.9659 H   0  0  0  0  0  0  0  0  0  0  0  0
    0.8726  -13.2157    0.0714 H   0  0  0  0  0  0  0  0  0  0  0  0
    3.8551  -12.0998   -2.7981 H   0  0  0  0  0  0  0  0  0  0  0  0
    2.0390  -12.5030   -4.0600 H   0  0  0  0  0  0  0  0  0  0  0  0
    5.6642  -11.2529   -4.4658 H   0  0  0  0  0  0  0  0  0  0  0  0
    6.3173  -12.4597   -5.6249 H   0  0  0  0  0  0  0  0  0  0  0  0
    4.5633  -12.0721   -5.6249 H   0  0  0  0  0  0  0  0  0  0  0  0
    5.6716  -14.2585   -7.0862 H   0  0  0  0  0  0  0  0  0  0  0  0
    7.2996  -13.8258   -6.5286 H   0  0  0  0  0  0  0  0  0  0  0  0
    4.7699  -16.7024   -5.8307 H   0  0  0  0  0  0  0  0  0  0  0  0
    6.0132  -17.3610   -4.7875 H   0  0  0  0  0  0  0  0  0  0  0  0
    7.2998  -16.0143   -3.5181 H   0  0  0  0  0  0  0  0  0  0  0  0
    8.3506  -15.4268   -4.8709 H   0  0  0  0  0  0  0  0  0  0  0  0
    7.8342  -13.1259   -4.3349 H   0  0  0  0  0  0  0  0  0  0  0  0
    9.2296  -13.3100   -0.5196 H   0  0  0  0  0  0  0  0  0  0  0  0
   10.5313  -12.2219    1.3301 H   0  0  0  0  0  0  0  0  0  0  0  0
   12.6677  -11.1030    0.7964 H   0  0  0  0  0  0  0  0  0  0  0  0
   12.2852  -12.0802   -3.2773 H   0  0  0  0  0  0  0  0  0  0  0  0
    6.5930  -12.1439   -1.1018 H   0  0  0  0  0  0  0  0  0  0  0  0
    7.6094  -11.7185   -2.5205 H   0  0  0  0  0  0  0  0  0  0  0  0
    5.8570  -11.3240   -2.5205 H   0  0  0  0  0  0  0  0  0  0  0  0
  1  2  2  0
  2  3  1  0
  3  4  1  0
  4  5  1  0
  5  6  1  0
  6  7  1  0
  7  8  1  1
  7  9  1  0
  9 10  1  0
 10 11  1  0
 11 12  2  0
 11 13  1  0
 13 14  2  0
 14 15  1  0
 15 16  2  0
 16 17  1  0
 17 18  2  0
  9 19  1  0
 19 20  1  0
 19 21  1  0
 21 22  1  6
 21 23  1  0
 24 23  1  1
 24 25  1  0
 25 26  1  0
 26 27  1  0
 27 28  2  0
 27 29  1  0
 24 30  1  0
 30 31  1  0
 31 32  1  0
 32 33  1  0
 33 34  2  0
 33 35  1  0
 35 36  2  0
 36 37  1  0
 37 38  2  0
 38 39  1  0
 39 40  2  0
 31 41  1  0
 41 42  1  1
  7  2  1  0
 18 13  1  0
 41 21  1  0
 41  6  1  0
 29 24  1  0
 40 35  1  0
  1 43  1  0
  1 44  1  0
  3 45  1  0
  3 46  1  0
  4 47  1  0
  4 48  1  0
  5 49  1  0
  5 50  1  0
  6 51  1  6
  8 52  1  0
  8 53  1  0
  8 54  1  0
  9 55  1  6
 14 56  1  0
 15 57  1  0
 16 58  1  0
 17 59  1  0
 18 60  1  0
 19 61  1  1
 20 62  1  0
 22 63  1  0
 22 64  1  0
 22 65  1  0
 25 66  1  0
 25 67  1  0
 29 68  1  0
 29 69  1  0
 30 70  1  0
 30 71  1  0
 31 72  1  6
 36 73  1  0
 37 74  1  0
 38 75  1  0
 40 76  1  0
 42 77  1  0
 42 78  1  0
 42 79  1  0
M  END
>  <meeko>  (9) 
{"is_sidechain": [false], "free_energy": -8.514, "intermolecular_energy": -11.12, "internal_energy": -2.006}

$$$$
