LIB_OCOHRESDZFYIIC__M_PUB_ALL__e8__s20260927
     RDKit          3D

 57 61  0  0  0  0  0  0  0  0999 V2000
   -3.3910  -18.3880    4.4570 O   0  0  0  0  0  0  0  0  0  0  0  0
   -3.5100  -17.2970    5.0290 C   0  0  0  0  0  0  0  0  0  0  0  0
   -2.5230  -16.3910    5.1790 N   0  0  0  0  0  0  0  0  0  0  0  0
   -1.1790  -16.4400    4.7720 C   0  0  0  0  0  0  0  0  0  0  0  0
   -0.2400  -17.3380    5.2710 C   0  0  0  0  0  0  0  0  0  0  0  0
    1.0790  -17.3010    4.8150 C   0  0  0  0  0  0  0  0  0  0  0  0
    1.4670  -16.3580    3.8610 C   0  0  0  0  0  0  0  0  0  0  0  0
    0.5450  -15.4350    3.3450 C   0  0  0  0  0  0  0  0  0  0  0  0
    0.9790  -14.4380    2.3290 C   0  0  0  0  0  0  0  0  0  0  0  0
    2.0750  -14.6730    1.5750 C   0  0  0  0  0  0  0  0  0  0  0  0
    2.4450  -13.7320    0.6410 N   0  0  0  0  0  0  0  0  0  0  0  0
    3.4810  -13.6740   -0.2510 C   0  0  0  0  0  0  0  0  0  0  0  0
    3.3110  -12.4790   -0.9190 C   0  0  0  0  0  0  0  0  0  0  0  0
    2.2010  -11.8050   -0.4670 N   0  0  0  0  0  0  0  0  0  0  0  0
    1.7130  -12.5910    0.4730 C   0  0  0  0  0  0  0  0  0  0  0  0
    0.5360  -12.3810    1.2960 C   0  0  0  0  0  0  0  0  0  0  0  0
   -0.2180  -11.2420    1.1520 N   0  0  0  0  0  0  0  0  0  0  0  0
   -1.3670  -10.9360    1.9570 C   0  0  0  0  0  0  0  0  0  0  0  0
   -2.6220  -11.2040    1.1650 C   0  0  0  0  0  0  0  0  0  0  0  0
   -2.9640  -10.4000    0.0730 C   0  0  0  0  0  0  0  0  0  0  0  0
   -4.1140  -10.7030   -0.6390 C   0  0  0  0  0  0  0  0  0  0  0  0
   -4.9300  -11.7380   -0.3450 N   0  0  0  0  0  0  0  0  0  0  0  0
   -4.5730  -12.5110    0.7030 C   0  0  0  0  0  0  0  0  0  0  0  0
   -3.4440  -12.2910    1.4760 C   0  0  0  0  0  0  0  0  0  0  0  0
    0.1980  -13.2910    2.1810 N   0  0  0  0  0  0  0  0  0  0  0  0
   -0.7810  -15.5080    3.8030 C   0  0  0  0  0  0  0  0  0  0  0  0
   -4.7480  -17.0160    5.5200 N   0  0  0  0  0  0  0  0  0  0  0  0
   -5.3770  -15.9580    6.2340 C   0  0  0  0  0  0  0  0  0  0  0  0
   -4.9610  -15.8970    7.5890 C   0  0  0  0  0  0  0  0  0  0  0  0
   -5.4410  -14.9370    8.4860 C   0  0  0  0  0  0  0  0  0  0  0  0
   -4.9900  -14.9260    9.9160 C   0  0  0  0  0  0  0  0  0  0  0  0
   -5.4650  -13.8510   10.6110 F   0  0  0  0  0  0  0  0  0  0  0  0
   -5.3950  -16.0220   10.6210 F   0  0  0  0  0  0  0  0  0  0  0  0
   -3.6340  -14.8830   10.0610 F   0  0  0  0  0  0  0  0  0  0  0  0
   -6.3740  -14.0220    8.0200 C   0  0  0  0  0  0  0  0  0  0  0  0
   -6.7870  -14.0720    6.6860 C   0  0  0  0  0  0  0  0  0  0  0  0
   -6.3220  -15.0160    5.7370 C   0  0  0  0  0  0  0  0  0  0  0  0
   -6.7740  -14.9430    4.5450 O   0  0  0  0  0  0  0  0  0  0  0  0
   -2.8280  -15.5560    5.7030 H   0  0  0  0  0  0  0  0  0  0  0  0
   -0.5381  -18.0793    6.0271 H   0  0  0  0  0  0  0  0  0  0  0  0
    1.8152  -18.0172    5.2086 H   0  0  0  0  0  0  0  0  0  0  0  0
    2.5091  -16.3386    3.5095 H   0  0  0  0  0  0  0  0  0  0  0  0
    2.6590  -15.5961    1.7046 H   0  0  0  0  0  0  0  0  0  0  0  0
    4.2765  -14.4184   -0.4025 H   0  0  0  0  0  0  0  0  0  0  0  0
    3.9786  -12.1120   -1.7124 H   0  0  0  0  0  0  0  0  0  0  0  0
    0.0990  -10.5690    0.4610 H   0  0  0  0  0  0  0  0  0  0  0  0
   -1.3611  -11.5659    2.8588 H   0  0  0  0  0  0  0  0  0  0  0  0
   -1.3377   -9.8761    2.2497 H   0  0  0  0  0  0  0  0  0  0  0  0
   -2.3339   -9.5455   -0.2147 H   0  0  0  0  0  0  0  0  0  0  0  0
   -4.3774  -10.0627   -1.4938 H   0  0  0  0  0  0  0  0  0  0  0  0
   -5.2164  -13.3659    0.9583 H   0  0  0  0  0  0  0  0  0  0  0  0
   -3.1999  -12.9575    2.3163 H   0  0  0  0  0  0  0  0  0  0  0  0
   -1.5281  -14.8144    3.3898 H   0  0  0  0  0  0  0  0  0  0  0  0
   -5.3490  -17.7920    5.2910 H   0  0  0  0  0  0  0  0  0  0  0  0
   -4.2301  -16.6359    7.9494 H   0  0  0  0  0  0  0  0  0  0  0  0
   -6.7869  -13.2604    8.6978 H   0  0  0  0  0  0  0  0  0  0  0  0
   -7.5236  -13.3275    6.3495 H   0  0  0  0  0  0  0  0  0  0  0  0
  1  2  2  0
  2  3  1  0
  3  4  1  0
  4  5  2  0
  5  6  1  0
  6  7  2  0
  7  8  1  0
  8  9  1  0
  9 10  2  0
 10 11  1  0
 11 12  1  0
 12 13  2  0
 13 14  1  0
 14 15  2  0
 15 16  1  0
 16 17  1  0
 17 18  1  0
 18 19  1  0
 19 20  2  0
 20 21  1  0
 21 22  2  0
 22 23  1  0
 23 24  2  0
 16 25  2  0
  8 26  2  0
  2 27  1  0
 27 28  1  0
 28 29  2  0
 29 30  1  0
 30 31  1  0
 31 32  1  0
 31 33  1  0
 31 34  1  0
 30 35  2  0
 35 36  1  0
 36 37  2  0
 37 38  1  0
 26  4  1  0
 37 28  1  0
 25  9  1  0
 15 11  1  0
 24 19  1  0
  3 39  1  0
  5 40  1  0
  6 41  1  0
  7 42  1  0
 10 43  1  0
 12 44  1  0
 13 45  1  0
 17 46  1  0
 18 47  1  0
 18 48  1  0
 20 49  1  0
 21 50  1  0
 23 51  1  0
 24 52  1  0
 26 53  1  0
 27 54  1  0
 29 55  1  0
 35 56  1  0
 36 57  1  0
M  CHG  1  38  -1
M  END
>  <meeko>  (1) 
{"is_sidechain": [false], "free_energy": -9.506, "intermolecular_energy": -12.841, "internal_energy": -1.428}

$$$$
LIB_OCOHRESDZFYIIC__M_PUB_ALL__e8__s20260927
     RDKit          3D

 57 61  0  0  0  0  0  0  0  0999 V2000
    6.0320  -13.7090  -10.0480 O   0  0  0  0  0  0  0  0  0  0  0  0
    6.5390  -13.4720   -8.9450 C   0  0  0  0  0  0  0  0  0  0  0  0
    7.8570  -13.3050   -8.7180 N   0  0  0  0  0  0  0  0  0  0  0  0
    8.9430  -13.3680   -9.6070 C   0  0  0  0  0  0  0  0  0  0  0  0
    8.8770  -13.0170  -10.9530 C   0  0  0  0  0  0  0  0  0  0  0  0
   10.0090  -13.1260  -11.7640 C   0  0  0  0  0  0  0  0  0  0  0  0
   11.2120  -13.5950  -11.2330 C   0  0  0  0  0  0  0  0  0  0  0  0
   11.3070  -13.9640   -9.8820 C   0  0  0  0  0  0  0  0  0  0  0  0
   12.5990  -14.4620   -9.3350 C   0  0  0  0  0  0  0  0  0  0  0  0
   13.6600  -14.6290  -10.1550 C   0  0  0  0  0  0  0  0  0  0  0  0
   14.8410  -15.0860   -9.6150 N   0  0  0  0  0  0  0  0  0  0  0  0
   16.0640  -15.3580  -10.1660 C   0  0  0  0  0  0  0  0  0  0  0  0
   16.8460  -15.7810   -9.1110 C   0  0  0  0  0  0  0  0  0  0  0  0
   16.1410  -15.7740   -7.9300 N   0  0  0  0  0  0  0  0  0  0  0  0
   14.9400  -15.3540   -8.2800 C   0  0  0  0  0  0  0  0  0  0  0  0
   13.7800  -15.1510   -7.4320 C   0  0  0  0  0  0  0  0  0  0  0  0
   13.8480  -15.4150   -6.0860 N   0  0  0  0  0  0  0  0  0  0  0  0
   12.7350  -15.2860   -5.1870 C   0  0  0  0  0  0  0  0  0  0  0  0
   12.8230  -13.9680   -4.4620 C   0  0  0  0  0  0  0  0  0  0  0  0
   14.0540  -13.3250   -4.2950 C   0  0  0  0  0  0  0  0  0  0  0  0
   14.0810  -12.1020   -3.6440 C   0  0  0  0  0  0  0  0  0  0  0  0
   12.9820  -11.4830   -3.1600 N   0  0  0  0  0  0  0  0  0  0  0  0
   11.8020  -12.1130   -3.3460 C   0  0  0  0  0  0  0  0  0  0  0  0
   11.6720  -13.3360   -3.9840 C   0  0  0  0  0  0  0  0  0  0  0  0
   12.6620  -14.7130   -7.9650 N   0  0  0  0  0  0  0  0  0  0  0  0
   10.1620  -13.8230   -9.0820 C   0  0  0  0  0  0  0  0  0  0  0  0
    5.6690  -13.3630   -7.9040 N   0  0  0  0  0  0  0  0  0  0  0  0
    5.7340  -13.1220   -6.5030 C   0  0  0  0  0  0  0  0  0  0  0  0
    4.6650  -12.3110   -6.0430 C   0  0  0  0  0  0  0  0  0  0  0  0
    4.5170  -11.9430   -4.7010 C   0  0  0  0  0  0  0  0  0  0  0  0
    3.3840  -11.0640   -4.2640 C   0  0  0  0  0  0  0  0  0  0  0  0
    3.4020   -9.8400   -4.8670 F   0  0  0  0  0  0  0  0  0  0  0  0
    2.1540  -11.5880   -4.5420 F   0  0  0  0  0  0  0  0  0  0  0  0
    3.3730  -10.8100   -2.9230 F   0  0  0  0  0  0  0  0  0  0  0  0
    5.4720  -12.3860   -3.7970 C   0  0  0  0  0  0  0  0  0  0  0  0
    6.5260  -13.1900   -4.2410 C   0  0  0  0  0  0  0  0  0  0  0  0
    6.7130  -13.5980   -5.5840 C   0  0  0  0  0  0  0  0  0  0  0  0
    7.7140  -14.3430   -5.8530 O   0  0  0  0  0  0  0  0  0  0  0  0
    8.0690  -13.1340   -7.7240 H   0  0  0  0  0  0  0  0  0  0  0  0
    7.9304  -12.6528  -11.3789 H   0  0  0  0  0  0  0  0  0  0  0  0
    9.9524  -12.8413  -12.8250 H   0  0  0  0  0  0  0  0  0  0  0  0
   12.0967  -13.6764  -11.8816 H   0  0  0  0  0  0  0  0  0  0  0  0
   13.5818  -14.4050  -11.2291 H   0  0  0  0  0  0  0  0  0  0  0  0
   16.3594  -15.2605  -11.2211 H   0  0  0  0  0  0  0  0  0  0  0  0
   17.8991  -16.0851   -9.2027 H   0  0  0  0  0  0  0  0  0  0  0  0
   14.7340  -15.7640   -5.7330 H   0  0  0  0  0  0  0  0  0  0  0  0
   11.7959  -15.3279   -5.7582 H   0  0  0  0  0  0  0  0  0  0  0  0
   12.7576  -16.1079   -4.4563 H   0  0  0  0  0  0  0  0  0  0  0  0
   14.9813  -13.7807   -4.6726 H   0  0  0  0  0  0  0  0  0  0  0  0
   15.0542  -11.6061   -3.5137 H   0  0  0  0  0  0  0  0  0  0  0  0
   10.8904  -11.6265   -2.9688 H   0  0  0  0  0  0  0  0  0  0  0  0
   10.6829  -13.8000   -4.1117 H   0  0  0  0  0  0  0  0  0  0  0  0
   10.2222  -14.0764   -8.0133 H   0  0  0  0  0  0  0  0  0  0  0  0
    4.7380  -13.4920   -8.2700 H   0  0  0  0  0  0  0  0  0  0  0  0
    3.9212  -11.9565   -6.7717 H   0  0  0  0  0  0  0  0  0  0  0  0
    5.4001  -12.1058   -2.7357 H   0  0  0  0  0  0  0  0  0  0  0  0
    7.2606  -13.5290   -3.4958 H   0  0  0  0  0  0  0  0  0  0  0  0
  1  2  2  0
  2  3  1  0
  3  4  1  0
  4  5  2  0
  5  6  1  0
  6  7  2  0
  7  8  1  0
  8  9  1  0
  9 10  2  0
 10 11  1  0
 11 12  1  0
 12 13  2  0
 13 14  1  0
 14 15  2  0
 15 16  1  0
 16 17  1  0
 17 18  1  0
 18 19  1  0
 19 20  2  0
 20 21  1  0
 21 22  2  0
 22 23  1  0
 23 24  2  0
 16 25  2  0
  8 26  2  0
  2 27  1  0
 27 28  1  0
 28 29  2  0
 29 30  1  0
 30 31  1  0
 31 32  1  0
 31 33  1  0
 31 34  1  0
 30 35  2  0
 35 36  1  0
 36 37  2  0
 37 38  1  0
 26  4  1  0
 37 28  1  0
 25  9  1  0
 15 11  1  0
 24 19  1  0
  3 39  1  0
  5 40  1  0
  6 41  1  0
  7 42  1  0
 10 43  1  0
 12 44  1  0
 13 45  1  0
 17 46  1  0
 18 47  1  0
 18 48  1  0
 20 49  1  0
 21 50  1  0
 23 51  1  0
 24 52  1  0
 26 53  1  0
 27 54  1  0
 29 55  1  0
 35 56  1  0
 36 57  1  0
M  CHG  1  38  -1
M  END
>  <meeko>  (2) 
{"is_sidechain": [false], "free_energy": -9.325, "intermolecular_energy": -12.734, "internal_energy": -1.289}

$$$$
LIB_OCOHRESDZFYIIC__M_PUB_ALL__e8__s20260927
     RDKit          3D

 57 61  0  0  0  0  0  0  0  0999 V2000
    8.3310  -15.0160   -0.8020 O   0  0  0  0  0  0  0  0  0  0  0  0
    9.0320  -14.1000   -1.2470 C   0  0  0  0  0  0  0  0  0  0  0  0
    8.8370  -13.4790   -2.4280 N   0  0  0  0  0  0  0  0  0  0  0  0
    7.8620  -13.6990   -3.4160 C   0  0  0  0  0  0  0  0  0  0  0  0
    6.5350  -13.2890   -3.3130 C   0  0  0  0  0  0  0  0  0  0  0  0
    5.6330  -13.5650   -4.3430 C   0  0  0  0  0  0  0  0  0  0  0  0
    6.0530  -14.2620   -5.4780 C   0  0  0  0  0  0  0  0  0  0  0  0
    7.3810  -14.6950   -5.6060 C   0  0  0  0  0  0  0  0  0  0  0  0
    7.8090  -15.4360   -6.8230 C   0  0  0  0  0  0  0  0  0  0  0  0
    8.5700  -16.5470   -6.7050 C   0  0  0  0  0  0  0  0  0  0  0  0
    8.9430  -17.2120   -7.8510 N   0  0  0  0  0  0  0  0  0  0  0  0
    9.6960  -18.3350   -8.0640 C   0  0  0  0  0  0  0  0  0  0  0  0
    9.7080  -18.5050   -9.4330 C   0  0  0  0  0  0  0  0  0  0  0  0
    8.9810  -17.5230  -10.0660 N   0  0  0  0  0  0  0  0  0  0  0  0
    8.5430  -16.7660   -9.0780 C   0  0  0  0  0  0  0  0  0  0  0  0
    7.7180  -15.5750   -9.1610 C   0  0  0  0  0  0  0  0  0  0  0  0
    7.3030  -15.1000  -10.3810 N   0  0  0  0  0  0  0  0  0  0  0  0
    6.5260  -13.9050  -10.5530 C   0  0  0  0  0  0  0  0  0  0  0  0
    7.4190  -12.7890  -11.0320 C   0  0  0  0  0  0  0  0  0  0  0  0
    8.5620  -13.0630  -11.7900 C   0  0  0  0  0  0  0  0  0  0  0  0
    9.3370  -12.0020  -12.2300 C   0  0  0  0  0  0  0  0  0  0  0  0
    9.0530  -10.7060  -11.9750 N   0  0  0  0  0  0  0  0  0  0  0  0
    7.9360  -10.4630  -11.2550 C   0  0  0  0  0  0  0  0  0  0  0  0
    7.0980  -11.4540  -10.7710 C   0  0  0  0  0  0  0  0  0  0  0  0
    7.3710  -14.9550   -8.0560 N   0  0  0  0  0  0  0  0  0  0  0  0
    8.2750  -14.3840   -4.5680 C   0  0  0  0  0  0  0  0  0  0  0  0
   10.0630  -13.7020   -0.4530 N   0  0  0  0  0  0  0  0  0  0  0  0
   11.1170  -12.7470   -0.5020 C   0  0  0  0  0  0  0  0  0  0  0  0
   11.9010  -12.8660   -1.6780 C   0  0  0  0  0  0  0  0  0  0  0  0
   12.9910  -12.0330   -1.9490 C   0  0  0  0  0  0  0  0  0  0  0  0
   13.8050  -12.2110   -3.1960 C   0  0  0  0  0  0  0  0  0  0  0  0
   14.1870  -13.5060   -3.3970 F   0  0  0  0  0  0  0  0  0  0  0  0
   13.1430  -11.8460   -4.3330 F   0  0  0  0  0  0  0  0  0  0  0  0
   14.9610  -11.4860   -3.2030 F   0  0  0  0  0  0  0  0  0  0  0  0
   13.3160  -11.0630   -1.0120 C   0  0  0  0  0  0  0  0  0  0  0  0
   12.5470  -10.9350    0.1480 C   0  0  0  0  0  0  0  0  0  0  0  0
   11.4280  -11.7460    0.4620 C   0  0  0  0  0  0  0  0  0  0  0  0
   10.8060  -11.5160    1.5530 O   0  0  0  0  0  0  0  0  0  0  0  0
    9.5460  -12.7550   -2.6170 H   0  0  0  0  0  0  0  0  0  0  0  0
    6.1964  -12.7464   -2.4181 H   0  0  0  0  0  0  0  0  0  0  0  0
    4.5879  -13.2321   -4.2599 H   0  0  0  0  0  0  0  0  0  0  0  0
    5.3330  -14.4742   -6.2821 H   0  0  0  0  0  0  0  0  0  0  0  0
    8.8840  -16.9113   -5.7157 H   0  0  0  0  0  0  0  0  0  0  0  0
   10.1857  -18.9656   -7.3073 H   0  0  0  0  0  0  0  0  0  0  0  0
   10.2317  -19.3212   -9.9522 H   0  0  0  0  0  0  0  0  0  0  0  0
    7.6140  -15.6130  -11.2000 H   0  0  0  0  0  0  0  0  0  0  0  0
    5.7349  -14.0858  -11.2956 H   0  0  0  0  0  0  0  0  0  0  0  0
    6.0701  -13.6229   -9.5925 H   0  0  0  0  0  0  0  0  0  0  0  0
    8.8400  -14.0994  -12.0319 H   0  0  0  0  0  0  0  0  0  0  0  0
   10.2363  -12.2282  -12.8217 H   0  0  0  0  0  0  0  0  0  0  0  0
    7.6766   -9.4158  -11.0403 H   0  0  0  0  0  0  0  0  0  0  0  0
    6.1984  -11.1956  -10.1931 H   0  0  0  0  0  0  0  0  0  0  0  0
    9.3285  -14.6862   -4.6614 H   0  0  0  0  0  0  0  0  0  0  0  0
   10.0320  -14.2580    0.3870 H   0  0  0  0  0  0  0  0  0  0  0  0
   11.6405  -13.6467   -2.4078 H   0  0  0  0  0  0  0  0  0  0  0  0
   14.1753  -10.3974   -1.1813 H   0  0  0  0  0  0  0  0  0  0  0  0
   12.8296  -10.1513    0.8663 H   0  0  0  0  0  0  0  0  0  0  0  0
  1  2  2  0
  2  3  1  0
  3  4  1  0
  4  5  2  0
  5  6  1  0
  6  7  2  0
  7  8  1  0
  8  9  1  0
  9 10  2  0
 10 11  1  0
 11 12  1  0
 12 13  2  0
 13 14  1  0
 14 15  2  0
 15 16  1  0
 16 17  1  0
 17 18  1  0
 18 19  1  0
 19 20  2  0
 20 21  1  0
 21 22  2  0
 22 23  1  0
 23 24  2  0
 16 25  2  0
  8 26  2  0
  2 27  1  0
 27 28  1  0
 28 29  2  0
 29 30  1  0
 30 31  1  0
 31 32  1  0
 31 33  1  0
 31 34  1  0
 30 35  2  0
 35 36  1  0
 36 37  2  0
 37 38  1  0
 26  4  1  0
 37 28  1  0
 25  9  1  0
 15 11  1  0
 24 19  1  0
  3 39  1  0
  5 40  1  0
  6 41  1  0
  7 42  1  0
 10 43  1  0
 12 44  1  0
 13 45  1  0
 17 46  1  0
 18 47  1  0
 18 48  1  0
 20 49  1  0
 21 50  1  0
 23 51  1  0
 24 52  1  0
 26 53  1  0
 27 54  1  0
 29 55  1  0
 35 56  1  0
 36 57  1  0
M  CHG  1  38  -1
M  END
>  <meeko>  (3) 
{"is_sidechain": [false], "free_energy": -9.213, "intermolecular_energy": -12.769, "internal_energy": -1.102}

$$$$
LIB_OCOHRESDZFYIIC__M_PUB_ALL__e8__s20260927
     RDKit          3D

 57 61  0  0  0  0  0  0  0  0999 V2000
    6.6030  -11.6360    1.9240 O   0  0  0  0  0  0  0  0  0  0  0  0
    7.2120  -12.0750    0.9420 C   0  0  0  0  0  0  0  0  0  0  0  0
    6.6420  -12.4400   -0.2240 N   0  0  0  0  0  0  0  0  0  0  0  0
    5.2910  -12.4380   -0.6100 C   0  0  0  0  0  0  0  0  0  0  0  0
    4.8120  -11.8700   -1.7880 C   0  0  0  0  0  0  0  0  0  0  0  0
    3.4470  -11.9040   -2.0800 C   0  0  0  0  0  0  0  0  0  0  0  0
    2.5520  -12.4990   -1.1890 C   0  0  0  0  0  0  0  0  0  0  0  0
    3.0030  -13.0720    0.0090 C   0  0  0  0  0  0  0  0  0  0  0  0
    2.0330  -13.7010    0.9460 C   0  0  0  0  0  0  0  0  0  0  0  0
    2.2590  -14.9480    1.4170 C   0  0  0  0  0  0  0  0  0  0  0  0
    1.3440  -15.4970    2.2860 N   0  0  0  0  0  0  0  0  0  0  0  0
    1.2840  -16.7090    2.9190 C   0  0  0  0  0  0  0  0  0  0  0  0
    0.1240  -16.6660    3.6650 C   0  0  0  0  0  0  0  0  0  0  0  0
   -0.5270  -15.4640    3.5120 N   0  0  0  0  0  0  0  0  0  0  0  0
    0.2390  -14.7940    2.6720 C   0  0  0  0  0  0  0  0  0  0  0  0
    0.0380  -13.4540    2.1520 C   0  0  0  0  0  0  0  0  0  0  0  0
   -1.0650  -12.7240    2.5200 N   0  0  0  0  0  0  0  0  0  0  0  0
   -1.3620  -11.4120    2.0150 C   0  0  0  0  0  0  0  0  0  0  0  0
   -2.5910  -11.4740    1.1450 C   0  0  0  0  0  0  0  0  0  0  0  0
   -3.5540  -12.4700    1.3380 C   0  0  0  0  0  0  0  0  0  0  0  0
   -4.6800  -12.4700    0.5290 C   0  0  0  0  0  0  0  0  0  0  0  0
   -4.9110  -11.5570   -0.4390 N   0  0  0  0  0  0  0  0  0  0  0  0
   -3.9770  -10.5950   -0.5970 C   0  0  0  0  0  0  0  0  0  0  0  0
   -2.8200  -10.5100    0.1600 C   0  0  0  0  0  0  0  0  0  0  0  0
    0.9230  -12.9460    1.3250 N   0  0  0  0  0  0  0  0  0  0  0  0
    4.3830  -13.0460    0.2690 C   0  0  0  0  0  0  0  0  0  0  0  0
    8.5640  -12.1720    1.0750 N   0  0  0  0  0  0  0  0  0  0  0  0
    9.6680  -12.6030    0.2880 C   0  0  0  0  0  0  0  0  0  0  0  0
   10.7660  -11.7070    0.3610 C   0  0  0  0  0  0  0  0  0  0  0  0
   11.9660  -11.9230   -0.3270 C   0  0  0  0  0  0  0  0  0  0  0  0
   13.0920  -10.9380   -0.2390 C   0  0  0  0  0  0  0  0  0  0  0  0
   14.0180  -11.2780    0.7040 F   0  0  0  0  0  0  0  0  0  0  0  0
   13.7900  -10.8060   -1.4040 F   0  0  0  0  0  0  0  0  0  0  0  0
   12.6890   -9.6750    0.0850 F   0  0  0  0  0  0  0  0  0  0  0  0
   12.0640  -13.0570   -1.1200 C   0  0  0  0  0  0  0  0  0  0  0  0
   10.9890  -13.9470   -1.1940 C   0  0  0  0  0  0  0  0  0  0  0  0
    9.7600  -13.7790   -0.5090 C   0  0  0  0  0  0  0  0  0  0  0  0
    8.8620  -14.6740   -0.6560 O   0  0  0  0  0  0  0  0  0  0  0  0
    7.3280  -12.7960   -0.9070 H   0  0  0  0  0  0  0  0  0  0  0  0
    5.5112  -11.3931   -2.4906 H   0  0  0  0  0  0  0  0  0  0  0  0
    3.0755  -11.4603   -3.0155 H   0  0  0  0  0  0  0  0  0  0  0  0
    1.4789  -12.5187   -1.4298 H   0  0  0  0  0  0  0  0  0  0  0  0
    3.1537  -15.5108    1.1126 H   0  0  0  0  0  0  0  0  0  0  0  0
    2.0042  -17.5375    2.8484 H   0  0  0  0  0  0  0  0  0  0  0  0
   -0.2346  -17.4885    4.3013 H   0  0  0  0  0  0  0  0  0  0  0  0
   -1.7210  -13.1740    3.1510 H   0  0  0  0  0  0  0  0  0  0  0  0
   -1.5430  -10.7275    2.8569 H   0  0  0  0  0  0  0  0  0  0  0  0
   -0.5110  -11.0467    1.4214 H   0  0  0  0  0  0  0  0  0  0  0  0
   -3.4208  -13.2370    2.1152 H   0  0  0  0  0  0  0  0  0  0  0  0
   -5.4293  -13.2601    0.6848 H   0  0  0  0  0  0  0  0  0  0  0  0
   -4.1447   -9.8335   -1.3729 H   0  0  0  0  0  0  0  0  0  0  0  0
   -2.0960   -9.6997   -0.0110 H   0  0  0  0  0  0  0  0  0  0  0  0
    4.7624  -13.5159    1.1883 H   0  0  0  0  0  0  0  0  0  0  0  0
    8.8030  -11.8340    1.9940 H   0  0  0  0  0  0  0  0  0  0  0  0
   10.6703  -10.8054    0.9839 H   0  0  0  0  0  0  0  0  0  0  0  0
   12.9846  -13.2550   -1.6886 H   0  0  0  0  0  0  0  0  0  0  0  0
   11.1049  -14.8389   -1.8273 H   0  0  0  0  0  0  0  0  0  0  0  0
  1  2  2  0
  2  3  1  0
  3  4  1  0
  4  5  2  0
  5  6  1  0
  6  7  2  0
  7  8  1  0
  8  9  1  0
  9 10  2  0
 10 11  1  0
 11 12  1  0
 12 13  2  0
 13 14  1  0
 14 15  2  0
 15 16  1  0
 16 17  1  0
 17 18  1  0
 18 19  1  0
 19 20  2  0
 20 21  1  0
 21 22  2  0
 22 23  1  0
 23 24  2  0
 16 25  2  0
  8 26  2  0
  2 27  1  0
 27 28  1  0
 28 29  2  0
 29 30  1  0
 30 31  1  0
 31 32  1  0
 31 33  1  0
 31 34  1  0
 30 35  2  0
 35 36  1  0
 36 37  2  0
 37 38  1  0
 26  4  1  0
 37 28  1  0
 25  9  1  0
 15 11  1  0
 24 19  1  0
  3 39  1  0
  5 40  1  0
  6 41  1  0
  7 42  1  0
 10 43  1  0
 12 44  1  0
 13 45  1  0
 17 46  1  0
 18 47  1  0
 18 48  1  0
 20 49  1  0
 21 50  1  0
 23 51  1  0
 24 52  1  0
 26 53  1  0
 27 54  1  0
 29 55  1  0
 35 56  1  0
 36 57  1  0
M  CHG  1  38  -1
M  END
>  <meeko>  (4) 
{"is_sidechain": [false], "free_energy": -9.132, "intermolecular_energy": -12.649, "internal_energy": -1.114}

$$$$
LIB_OCOHRESDZFYIIC__M_PUB_ALL__e8__s20260927
     RDKit          3D

 57 61  0  0  0  0  0  0  0  0999 V2000
    2.9010  -10.5700   -3.4350 O   0  0  0  0  0  0  0  0  0  0  0  0
    3.7400  -11.4380   -3.1670 C   0  0  0  0  0  0  0  0  0  0  0  0
    3.5050  -12.7650   -3.1550 N   0  0  0  0  0  0  0  0  0  0  0  0
    2.3210  -13.4770   -3.4090 C   0  0  0  0  0  0  0  0  0  0  0  0
    1.8120  -13.7260   -4.6810 C   0  0  0  0  0  0  0  0  0  0  0  0
    0.6170  -14.4310   -4.8340 C   0  0  0  0  0  0  0  0  0  0  0  0
   -0.0810  -14.8850   -3.7120 C   0  0  0  0  0  0  0  0  0  0  0  0
    0.4020  -14.6420   -2.4180 C   0  0  0  0  0  0  0  0  0  0  0  0
   -0.3560  -15.1330   -1.2350 C   0  0  0  0  0  0  0  0  0  0  0  0
    0.0290  -16.2660   -0.6080 C   0  0  0  0  0  0  0  0  0  0  0  0
   -0.6920  -16.6890    0.4860 N   0  0  0  0  0  0  0  0  0  0  0  0
   -0.5640  -17.7700    1.3140 C   0  0  0  0  0  0  0  0  0  0  0  0
   -1.5860  -17.6420    2.2320 C   0  0  0  0  0  0  0  0  0  0  0  0
   -2.3340  -16.5120    1.9940 N   0  0  0  0  0  0  0  0  0  0  0  0
   -1.7650  -15.9720    0.9340 C   0  0  0  0  0  0  0  0  0  0  0  0
   -2.1400  -14.7550    0.2380 C   0  0  0  0  0  0  0  0  0  0  0  0
   -3.2160  -14.0150    0.6630 N   0  0  0  0  0  0  0  0  0  0  0  0
   -3.6810  -12.8270    0.0040 C   0  0  0  0  0  0  0  0  0  0  0  0
   -3.1400  -11.6130    0.7150 C   0  0  0  0  0  0  0  0  0  0  0  0
   -3.1060  -10.3680    0.0790 C   0  0  0  0  0  0  0  0  0  0  0  0
   -2.6240   -9.2760    0.7830 C   0  0  0  0  0  0  0  0  0  0  0  0
   -2.1850   -9.3380    2.0590 N   0  0  0  0  0  0  0  0  0  0  0  0
   -2.2410  -10.5460    2.6600 C   0  0  0  0  0  0  0  0  0  0  0  0
   -2.7060  -11.6950    2.0410 C   0  0  0  0  0  0  0  0  0  0  0  0
   -1.4390  -14.3670   -0.8030 N   0  0  0  0  0  0  0  0  0  0  0  0
    1.6180  -13.9510   -2.2910 C   0  0  0  0  0  0  0  0  0  0  0  0
    4.9920  -10.9840   -2.8810 N   0  0  0  0  0  0  0  0  0  0  0  0
    6.2500  -11.5390   -2.5160 C   0  0  0  0  0  0  0  0  0  0  0  0
    6.5730  -11.2980   -1.1560 C   0  0  0  0  0  0  0  0  0  0  0  0
    7.7590  -11.7520   -0.5680 C   0  0  0  0  0  0  0  0  0  0  0  0
    8.0690  -11.4530    0.8680 C   0  0  0  0  0  0  0  0  0  0  0  0
    9.3910  -11.6190    1.1690 F   0  0  0  0  0  0  0  0  0  0  0  0
    7.7720  -10.1710    1.2320 F   0  0  0  0  0  0  0  0  0  0  0  0
    7.3930  -12.2450    1.7500 F   0  0  0  0  0  0  0  0  0  0  0  0
    8.6530  -12.4520   -1.3650 C   0  0  0  0  0  0  0  0  0  0  0  0
    8.3410  -12.6980   -2.7050 C   0  0  0  0  0  0  0  0  0  0  0  0
    7.1500  -12.2710   -3.3430 C   0  0  0  0  0  0  0  0  0  0  0  0
    6.9840  -12.5720   -4.5720 O   0  0  0  0  0  0  0  0  0  0  0  0
    4.3370  -13.3120   -2.8880 H   0  0  0  0  0  0  0  0  0  0  0  0
    2.3534  -13.3659   -5.5682 H   0  0  0  0  0  0  0  0  0  0  0  0
    0.2233  -14.6299   -5.8417 H   0  0  0  0  0  0  0  0  0  0  0  0
   -1.0213  -15.4401   -3.8453 H   0  0  0  0  0  0  0  0  0  0  0  0
    0.8989  -16.8377   -0.9635 H   0  0  0  0  0  0  0  0  0  0  0  0
    0.1905  -18.5686    1.2598 H   0  0  0  0  0  0  0  0  0  0  0  0
   -1.7782  -18.3524    3.0495 H   0  0  0  0  0  0  0  0  0  0  0  0
   -3.7270  -14.3710    1.4640 H   0  0  0  0  0  0  0  0  0  0  0  0
   -3.3326  -12.8263   -1.0394 H   0  0  0  0  0  0  0  0  0  0  0  0
   -4.7806  -12.8035    0.0237 H   0  0  0  0  0  0  0  0  0  0  0  0
   -3.4546  -10.2578   -0.9585 H   0  0  0  0  0  0  0  0  0  0  0  0
   -2.5973   -8.3018    0.2729 H   0  0  0  0  0  0  0  0  0  0  0  0
   -1.8973  -10.6222    3.7021 H   0  0  0  0  0  0  0  0  0  0  0  0
   -2.7331  -12.6523    2.5822 H   0  0  0  0  0  0  0  0  0  0  0  0
    2.0311  -13.7764   -1.2866 H   0  0  0  0  0  0  0  0  0  0  0  0
    4.9780   -9.9800   -2.9650 H   0  0  0  0  0  0  0  0  0  0  0  0
    5.8617  -10.7307   -0.5378 H   0  0  0  0  0  0  0  0  0  0  0  0
    9.6034  -12.8119   -0.9441 H   0  0  0  0  0  0  0  0  0  0  0  0
    9.0700  -13.2618   -3.3056 H   0  0  0  0  0  0  0  0  0  0  0  0
  1  2  2  0
  2  3  1  0
  3  4  1  0
  4  5  2  0
  5  6  1  0
  6  7  2  0
  7  8  1  0
  8  9  1  0
  9 10  2  0
 10 11  1  0
 11 12  1  0
 12 13  2  0
 13 14  1  0
 14 15  2  0
 15 16  1  0
 16 17  1  0
 17 18  1  0
 18 19  1  0
 19 20  2  0
 20 21  1  0
 21 22  2  0
 22 23  1  0
 23 24  2  0
 16 25  2  0
  8 26  2  0
  2 27  1  0
 27 28  1  0
 28 29  2  0
 29 30  1  0
 30 31  1  0
 31 32  1  0
 31 33  1  0
 31 34  1  0
 30 35  2  0
 35 36  1  0
 36 37  2  0
 37 38  1  0
 26  4  1  0
 37 28  1  0
 25  9  1  0
 15 11  1  0
 24 19  1  0
  3 39  1  0
  5 40  1  0
  6 41  1  0
  7 42  1  0
 10 43  1  0
 12 44  1  0
 13 45  1  0
 17 46  1  0
 18 47  1  0
 18 48  1  0
 20 49  1  0
 21 50  1  0
 23 51  1  0
 24 52  1  0
 26 53  1  0
 27 54  1  0
 29 55  1  0
 35 56  1  0
 36 57  1  0
M  CHG  1  38  -1
M  END
>  <meeko>  (5) 
{"is_sidechain": [false], "free_energy": -9.091, "intermolecular_energy": -12.423, "internal_energy": -1.284}

$$$$
LIB_OCOHRESDZFYIIC__M_PUB_ALL__e8__s20260927
     RDKit          3D

 57 61  0  0  0  0  0  0  0  0999 V2000
   -0.7770  -10.2100    1.8360 O   0  0  0  0  0  0  0  0  0  0  0  0
   -0.4060  -11.0920    1.0530 C   0  0  0  0  0  0  0  0  0  0  0  0
   -1.1960  -12.0610    0.5470 N   0  0  0  0  0  0  0  0  0  0  0  0
   -2.5570  -12.3260    0.7690 C   0  0  0  0  0  0  0  0  0  0  0  0
   -3.5970  -11.7660    0.0300 C   0  0  0  0  0  0  0  0  0  0  0  0
   -4.9230  -12.0790    0.3350 C   0  0  0  0  0  0  0  0  0  0  0  0
   -5.2170  -12.9490    1.3870 C   0  0  0  0  0  0  0  0  0  0  0  0
   -4.1920  -13.5220    2.1540 C   0  0  0  0  0  0  0  0  0  0  0  0
   -4.5260  -14.4450    3.2720 C   0  0  0  0  0  0  0  0  0  0  0  0
   -5.6780  -14.2840    3.9610 C   0  0  0  0  0  0  0  0  0  0  0  0
   -5.9580  -15.1600    4.9850 N   0  0  0  0  0  0  0  0  0  0  0  0
   -7.0110  -15.2590    5.8530 C   0  0  0  0  0  0  0  0  0  0  0  0
   -6.7210  -16.3480    6.6470 C   0  0  0  0  0  0  0  0  0  0  0  0
   -5.5220  -16.9230    6.2900 N   0  0  0  0  0  0  0  0  0  0  0  0
   -5.0970  -16.1750    5.2910 C   0  0  0  0  0  0  0  0  0  0  0  0
   -3.8760  -16.3200    4.5200 C   0  0  0  0  0  0  0  0  0  0  0  0
   -2.9890  -17.3290    4.8060 N   0  0  0  0  0  0  0  0  0  0  0  0
   -1.7390  -17.5130    4.1250 C   0  0  0  0  0  0  0  0  0  0  0  0
   -0.7040  -16.5880    4.7140 C   0  0  0  0  0  0  0  0  0  0  0  0
   -0.3460  -16.6830    6.0630 C   0  0  0  0  0  0  0  0  0  0  0  0
    0.6290  -15.8280    6.5520 C   0  0  0  0  0  0  0  0  0  0  0  0
    1.2650  -14.9040    5.8000 N   0  0  0  0  0  0  0  0  0  0  0  0
    0.9160  -14.8400    4.4970 C   0  0  0  0  0  0  0  0  0  0  0  0
   -0.0460  -15.6500    3.9150 C   0  0  0  0  0  0  0  0  0  0  0  0
   -3.6260  -15.4750    3.5460 N   0  0  0  0  0  0  0  0  0  0  0  0
   -2.8650  -13.2100    1.8140 C   0  0  0  0  0  0  0  0  0  0  0  0
    0.9030  -11.0440    0.6810 N   0  0  0  0  0  0  0  0  0  0  0  0
    1.7870  -11.7920   -0.1460 C   0  0  0  0  0  0  0  0  0  0  0  0
    1.9630  -11.2000   -1.4230 C   0  0  0  0  0  0  0  0  0  0  0  0
    2.7900  -11.7540   -2.4070 C   0  0  0  0  0  0  0  0  0  0  0  0
    2.9280  -11.1050   -3.7520 C   0  0  0  0  0  0  0  0  0  0  0  0
    2.1810  -11.7210   -4.7140 F   0  0  0  0  0  0  0  0  0  0  0  0
    2.5330   -9.7980   -3.7660 F   0  0  0  0  0  0  0  0  0  0  0  0
    4.2060  -11.1020   -4.2290 F   0  0  0  0  0  0  0  0  0  0  0  0
    3.4470  -12.9390   -2.1110 C   0  0  0  0  0  0  0  0  0  0  0  0
    3.2830  -13.5260   -0.8530 C   0  0  0  0  0  0  0  0  0  0  0  0
    2.4670  -13.0000    0.1790 C   0  0  0  0  0  0  0  0  0  0  0  0
    2.4140  -13.6320    1.2860 O   0  0  0  0  0  0  0  0  0  0  0  0
   -0.6830  -12.7060   -0.0730 H   0  0  0  0  0  0  0  0  0  0  0  0
   -3.3727  -11.0752   -0.7962 H   0  0  0  0  0  0  0  0  0  0  0  0
   -5.7396  -11.6384   -0.2559 H   0  0  0  0  0  0  0  0  0  0  0  0
   -6.2658  -13.1880    1.6171 H   0  0  0  0  0  0  0  0  0  0  0  0
   -6.3755  -13.4716    3.7090 H   0  0  0  0  0  0  0  0  0  0  0  0
   -7.8975  -14.6099    5.9059 H   0  0  0  0  0  0  0  0  0  0  0  0
   -7.3651  -16.7111    7.4615 H   0  0  0  0  0  0  0  0  0  0  0  0
   -3.2300  -17.9420    5.5790 H   0  0  0  0  0  0  0  0  0  0  0  0
   -1.4079  -18.5554    4.2419 H   0  0  0  0  0  0  0  0  0  0  0  0
   -1.8672  -17.2863    3.0563 H   0  0  0  0  0  0  0  0  0  0  0  0
   -0.8280  -17.4205    6.7215 H   0  0  0  0  0  0  0  0  0  0  0  0
    0.9008  -15.9066    7.6150 H   0  0  0  0  0  0  0  0  0  0  0  0
    1.4252  -14.1016    3.8603 H   0  0  0  0  0  0  0  0  0  0  0  0
   -0.2865  -15.5562    2.8457 H   0  0  0  0  0  0  0  0  0  0  0  0
   -2.0446  -13.6717    2.3830 H   0  0  0  0  0  0  0  0  0  0  0  0
    1.3190  -10.2470    1.1360 H   0  0  0  0  0  0  0  0  0  0  0  0
    1.4271  -10.2664   -1.6494 H   0  0  0  0  0  0  0  0  0  0  0  0
    4.0941  -13.4147   -2.8626 H   0  0  0  0  0  0  0  0  0  0  0  0
    3.8252  -14.4614   -0.6501 H   0  0  0  0  0  0  0  0  0  0  0  0
  1  2  2  0
  2  3  1  0
  3  4  1  0
  4  5  2  0
  5  6  1  0
  6  7  2  0
  7  8  1  0
  8  9  1  0
  9 10  2  0
 10 11  1  0
 11 12  1  0
 12 13  2  0
 13 14  1  0
 14 15  2  0
 15 16  1  0
 16 17  1  0
 17 18  1  0
 18 19  1  0
 19 20  2  0
 20 21  1  0
 21 22  2  0
 22 23  1  0
 23 24  2  0
 16 25  2  0
  8 26  2  0
  2 27  1  0
 27 28  1  0
 28 29  2  0
 29 30  1  0
 30 31  1  0
 31 32  1  0
 31 33  1  0
 31 34  1  0
 30 35  2  0
 35 36  1  0
 36 37  2  0
 37 38  1  0
 26  4  1  0
 37 28  1  0
 25  9  1  0
 15 11  1  0
 24 19  1  0
  3 39  1  0
  5 40  1  0
  6 41  1  0
  7 42  1  0
 10 43  1  0
 12 44  1  0
 13 45  1  0
 17 46  1  0
 18 47  1  0
 18 48  1  0
 20 49  1  0
 21 50  1  0
 23 51  1  0
 24 52  1  0
 26 53  1  0
 27 54  1  0
 29 55  1  0
 35 56  1  0
 36 57  1  0
M  CHG  1  38  -1
M  END
>  <meeko>  (6) 
{"is_sidechain": [false], "free_energy": -9.054, "intermolecular_energy": -12.046, "internal_energy": -1.611}

$$$$
LIB_OCOHRESDZFYIIC__M_PUB_ALL__e8__s20260927
     RDKit          3D

 57 61  0  0  0  0  0  0  0  0999 V2000
    6.5920  -15.4700   -6.6490 O   0  0  0  0  0  0  0  0  0  0  0  0
    6.8840  -14.4640   -7.3070 C   0  0  0  0  0  0  0  0  0  0  0  0
    6.5110  -13.2050   -7.0040 N   0  0  0  0  0  0  0  0  0  0  0  0
    5.7280  -12.7240   -5.9410 C   0  0  0  0  0  0  0  0  0  0  0  0
    4.5680  -11.9690   -6.0990 C   0  0  0  0  0  0  0  0  0  0  0  0
    3.8630  -11.5230   -4.9790 C   0  0  0  0  0  0  0  0  0  0  0  0
    4.3200  -11.8230   -3.6940 C   0  0  0  0  0  0  0  0  0  0  0  0
    5.4890  -12.5740   -3.5040 C   0  0  0  0  0  0  0  0  0  0  0  0
    5.9600  -12.8820   -2.1260 C   0  0  0  0  0  0  0  0  0  0  0  0
    5.1180  -12.7460   -1.0770 C   0  0  0  0  0  0  0  0  0  0  0  0
    5.5840  -13.0450    0.1830 N   0  0  0  0  0  0  0  0  0  0  0  0
    4.9970  -13.0060    1.4180 C   0  0  0  0  0  0  0  0  0  0  0  0
    5.9760  -13.4280    2.2940 C   0  0  0  0  0  0  0  0  0  0  0  0
    7.1440  -13.7290    1.6320 N   0  0  0  0  0  0  0  0  0  0  0  0
    6.8660  -13.4810    0.3670 C   0  0  0  0  0  0  0  0  0  0  0  0
    7.7350  -13.6230   -0.7860 C   0  0  0  0  0  0  0  0  0  0  0  0
    9.0290  -14.0560   -0.6310 N   0  0  0  0  0  0  0  0  0  0  0  0
    9.9660  -14.1790   -1.7120 C   0  0  0  0  0  0  0  0  0  0  0  0
   11.0280  -13.1160   -1.5810 C   0  0  0  0  0  0  0  0  0  0  0  0
   11.3000  -12.5270   -0.3430 C   0  0  0  0  0  0  0  0  0  0  0  0
   12.3020  -11.5730   -0.2680 C   0  0  0  0  0  0  0  0  0  0  0  0
   13.0440  -11.1760   -1.3250 N   0  0  0  0  0  0  0  0  0  0  0  0
   12.7760  -11.7700   -2.5080 C   0  0  0  0  0  0  0  0  0  0  0  0
   11.7950  -12.7330   -2.6840 C   0  0  0  0  0  0  0  0  0  0  0  0
    7.2710  -13.3340   -1.9810 N   0  0  0  0  0  0  0  0  0  0  0  0
    6.1680  -13.0320   -4.6450 C   0  0  0  0  0  0  0  0  0  0  0  0
    7.6550  -14.6790   -8.4090 N   0  0  0  0  0  0  0  0  0  0  0  0
    8.2290  -13.9030   -9.4550 C   0  0  0  0  0  0  0  0  0  0  0  0
    9.6000  -13.6180   -9.2270 C   0  0  0  0  0  0  0  0  0  0  0  0
   10.3760  -12.8730  -10.1210 C   0  0  0  0  0  0  0  0  0  0  0  0
   11.8170  -12.5760   -9.8270 C   0  0  0  0  0  0  0  0  0  0  0  0
   12.6690  -13.1650  -10.7160 F   0  0  0  0  0  0  0  0  0  0  0  0
   12.1150  -11.2440   -9.8660 F   0  0  0  0  0  0  0  0  0  0  0  0
   12.2230  -13.0020   -8.5960 F   0  0  0  0  0  0  0  0  0  0  0  0
    9.7620  -12.3870  -11.2660 C   0  0  0  0  0  0  0  0  0  0  0  0
    8.4130  -12.6680  -11.5010 C   0  0  0  0  0  0  0  0  0  0  0  0
    7.5880  -13.4260  -10.6340 C   0  0  0  0  0  0  0  0  0  0  0  0
    6.3730  -13.6170  -10.9730 O   0  0  0  0  0  0  0  0  0  0  0  0
    6.8460  -12.5150   -7.6930 H   0  0  0  0  0  0  0  0  0  0  0  0
    4.2064  -11.7235   -7.1085 H   0  0  0  0  0  0  0  0  0  0  0  0
    2.9439  -10.9329   -5.1096 H   0  0  0  0  0  0  0  0  0  0  0  0
    3.7559  -11.4657   -2.8198 H   0  0  0  0  0  0  0  0  0  0  0  0
    4.0834  -12.4039   -1.2272 H   0  0  0  0  0  0  0  0  0  0  0  0
    3.9675  -12.7037    1.6603 H   0  0  0  0  0  0  0  0  0  0  0  0
    5.8401  -13.5129    3.3823 H   0  0  0  0  0  0  0  0  0  0  0  0
    9.3350  -14.2510    0.3170 H   0  0  0  0  0  0  0  0  0  0  0  0
   10.4361  -15.1729   -1.6783 H   0  0  0  0  0  0  0  0  0  0  0  0
    9.4391  -14.0545   -2.6696 H   0  0  0  0  0  0  0  0  0  0  0  0
   10.7305  -12.8148    0.5530 H   0  0  0  0  0  0  0  0  0  0  0  0
   12.5054  -11.1117    0.7097 H   0  0  0  0  0  0  0  0  0  0  0  0
   13.3715  -11.4718   -3.3835 H   0  0  0  0  0  0  0  0  0  0  0  0
   11.6239  -13.1863   -3.6715 H   0  0  0  0  0  0  0  0  0  0  0  0
    7.0697  -13.6493   -4.5189 H   0  0  0  0  0  0  0  0  0  0  0  0
    7.8500  -15.6670   -8.4550 H   0  0  0  0  0  0  0  0  0  0  0  0
   10.0722  -13.9986   -8.3093 H   0  0  0  0  0  0  0  0  0  0  0  0
   10.3341  -11.7832  -11.9858 H   0  0  0  0  0  0  0  0  0  0  0  0
    7.9608  -12.2733  -12.4228 H   0  0  0  0  0  0  0  0  0  0  0  0
  1  2  2  0
  2  3  1  0
  3  4  1  0
  4  5  2  0
  5  6  1  0
  6  7  2  0
  7  8  1  0
  8  9  1  0
  9 10  2  0
 10 11  1  0
 11 12  1  0
 12 13  2  0
 13 14  1  0
 14 15  2  0
 15 16  1  0
 16 17  1  0
 17 18  1  0
 18 19  1  0
 19 20  2  0
 20 21  1  0
 21 22  2  0
 22 23  1  0
 23 24  2  0
 16 25  2  0
  8 26  2  0
  2 27  1  0
 27 28  1  0
 28 29  2  0
 29 30  1  0
 30 31  1  0
 31 32  1  0
 31 33  1  0
 31 34  1  0
 30 35  2  0
 35 36  1  0
 36 37  2  0
 37 38  1  0
 26  4  1  0
 37 28  1  0
 25  9  1  0
 15 11  1  0
 24 19  1  0
  3 39  1  0
  5 40  1  0
  6 41  1  0
  7 42  1  0
 10 43  1  0
 12 44  1  0
 13 45  1  0
 17 46  1  0
 18 47  1  0
 18 48  1  0
 20 49  1  0
 21 50  1  0
 23 51  1  0
 24 52  1  0
 26 53  1  0
 27 54  1  0
 29 55  1  0
 35 56  1  0
 36 57  1  0
M  CHG  1  38  -1
M  END
>  <meeko>  (7) 
{"is_sidechain": [false], "free_energy": -8.967, "intermolecular_energy": -12.287, "internal_energy": -1.253}

$$$$
LIB_OCOHRESDZFYIIC__M_PUB_ALL__e8__s20260927
     RDKit          3D

 57 61  0  0  0  0  0  0  0  0999 V2000
    7.1390  -11.9800   -3.6230 O   0  0  0  0  0  0  0  0  0  0  0  0
    6.5850  -12.7160   -4.4480 C   0  0  0  0  0  0  0  0  0  0  0  0
    5.2530  -12.7980   -4.6410 N   0  0  0  0  0  0  0  0  0  0  0  0
    4.2020  -12.1300   -3.9910 C   0  0  0  0  0  0  0  0  0  0  0  0
    3.6250  -10.9460   -4.4440 C   0  0  0  0  0  0  0  0  0  0  0  0
    2.5920  -10.3470   -3.7210 C   0  0  0  0  0  0  0  0  0  0  0  0
    2.1350  -10.9260   -2.5350 C   0  0  0  0  0  0  0  0  0  0  0  0
    2.7020  -12.1140   -2.0500 C   0  0  0  0  0  0  0  0  0  0  0  0
    2.2020  -12.7140   -0.7830 C   0  0  0  0  0  0  0  0  0  0  0  0
    2.7680  -13.8430   -0.3000 C   0  0  0  0  0  0  0  0  0  0  0  0
    2.2850  -14.3680    0.8770 N   0  0  0  0  0  0  0  0  0  0  0  0
    2.6300  -15.4740    1.6050 C   0  0  0  0  0  0  0  0  0  0  0  0
    1.7830  -15.4650    2.6940 C   0  0  0  0  0  0  0  0  0  0  0  0
    0.9310  -14.3860    2.6570 N   0  0  0  0  0  0  0  0  0  0  0  0
    1.2640  -13.7560    1.5470 C   0  0  0  0  0  0  0  0  0  0  0  0
    0.6910  -12.5400    1.0000 C   0  0  0  0  0  0  0  0  0  0  0  0
   -0.3380  -11.9040    1.6500 N   0  0  0  0  0  0  0  0  0  0  0  0
   -0.9910  -10.7250    1.1540 C   0  0  0  0  0  0  0  0  0  0  0  0
   -2.3810  -11.0780    0.6900 C   0  0  0  0  0  0  0  0  0  0  0  0
   -3.0440  -10.2830   -0.2520 C   0  0  0  0  0  0  0  0  0  0  0  0
   -4.3110  -10.6630   -0.6660 C   0  0  0  0  0  0  0  0  0  0  0  0
   -4.9500  -11.7660   -0.2180 N   0  0  0  0  0  0  0  0  0  0  0  0
   -4.2860  -12.5270    0.6780 C   0  0  0  0  0  0  0  0  0  0  0  0
   -3.0190  -12.2320    1.1530 C   0  0  0  0  0  0  0  0  0  0  0  0
    1.1660  -12.0530   -0.1230 N   0  0  0  0  0  0  0  0  0  0  0  0
    3.7240  -12.7100   -2.8060 C   0  0  0  0  0  0  0  0  0  0  0  0
    7.4130  -13.4770   -5.2150 N   0  0  0  0  0  0  0  0  0  0  0  0
    7.2890  -14.4470   -6.2490 C   0  0  0  0  0  0  0  0  0  0  0  0
    7.2590  -13.8600   -7.5400 C   0  0  0  0  0  0  0  0  0  0  0  0
    7.1460  -14.6160   -8.7130 C   0  0  0  0  0  0  0  0  0  0  0  0
    7.0950  -13.9500  -10.0550 C   0  0  0  0  0  0  0  0  0  0  0  0
    7.9300  -14.5320  -10.9650 F   0  0  0  0  0  0  0  0  0  0  0  0
    5.8560  -13.9800  -10.6280 F   0  0  0  0  0  0  0  0  0  0  0  0
    7.4490  -12.6330  -10.0270 F   0  0  0  0  0  0  0  0  0  0  0  0
    7.0450  -15.9940   -8.5900 C   0  0  0  0  0  0  0  0  0  0  0  0
    7.0780  -16.5810   -7.3220 C   0  0  0  0  0  0  0  0  0  0  0  0
    7.2030  -15.8610   -6.1070 C   0  0  0  0  0  0  0  0  0  0  0  0
    7.2310  -16.5230   -5.0160 O   0  0  0  0  0  0  0  0  0  0  0  0
    5.0000  -13.4870   -5.3660 H   0  0  0  0  0  0  0  0  0  0  0  0
    3.9844  -10.4816   -5.3742 H   0  0  0  0  0  0  0  0  0  0  0  0
    2.1361   -9.4152   -4.0868 H   0  0  0  0  0  0  0  0  0  0  0  0
    1.3203  -10.4445   -1.9742 H   0  0  0  0  0  0  0  0  0  0  0  0
    3.5957  -14.3308   -0.8356 H   0  0  0  0  0  0  0  0  0  0  0  0
    3.4130  -16.2107    1.3724 H   0  0  0  0  0  0  0  0  0  0  0  0
    1.7884  -16.2239    3.4902 H   0  0  0  0  0  0  0  0  0  0  0  0
   -0.6720  -12.3340    2.5070 H   0  0  0  0  0  0  0  0  0  0  0  0
   -1.0517   -9.9746    1.9560 H   0  0  0  0  0  0  0  0  0  0  0  0
   -0.4161  -10.3147    0.3107 H   0  0  0  0  0  0  0  0  0  0  0  0
   -2.5697   -9.3761   -0.6551 H   0  0  0  0  0  0  0  0  0  0  0  0
   -4.8266  -10.0293   -1.4026 H   0  0  0  0  0  0  0  0  0  0  0  0
   -4.7807  -13.4351    1.0529 H   0  0  0  0  0  0  0  0  0  0  0  0
   -2.5246  -12.8929    1.8802 H   0  0  0  0  0  0  0  0  0  0  0  0
    4.1621  -13.6578   -2.4598 H   0  0  0  0  0  0  0  0  0  0  0  0
    8.3600  -13.2620   -4.9460 H   0  0  0  0  0  0  0  0  0  0  0  0
    7.3274  -12.7653   -7.6230 H   0  0  0  0  0  0  0  0  0  0  0  0
    6.9394  -16.6222   -9.4868 H   0  0  0  0  0  0  0  0  0  0  0  0
    7.0018  -17.6767   -7.2626 H   0  0  0  0  0  0  0  0  0  0  0  0
  1  2  2  0
  2  3  1  0
  3  4  1  0
  4  5  2  0
  5  6  1  0
  6  7  2  0
  7  8  1  0
  8  9  1  0
  9 10  2  0
 10 11  1  0
 11 12  1  0
 12 13  2  0
 13 14  1  0
 14 15  2  0
 15 16  1  0
 16 17  1  0
 17 18  1  0
 18 19  1  0
 19 20  2  0
 20 21  1  0
 21 22  2  0
 22 23  1  0
 23 24  2  0
 16 25  2  0
  8 26  2  0
  2 27  1  0
 27 28  1  0
 28 29  2  0
 29 30  1  0
 30 31  1  0
 31 32  1  0
 31 33  1  0
 31 34  1  0
 30 35  2  0
 35 36  1  0
 36 37  2  0
 37 38  1  0
 26  4  1  0
 37 28  1  0
 25  9  1  0
 15 11  1  0
 24 19  1  0
  3 39  1  0
  5 40  1  0
  6 41  1  0
  7 42  1  0
 10 43  1  0
 12 44  1  0
 13 45  1  0
 17 46  1  0
 18 47  1  0
 18 48  1  0
 20 49  1  0
 21 50  1  0
 23 51  1  0
 24 52  1  0
 26 53  1  0
 27 54  1  0
 29 55  1  0
 35 56  1  0
 36 57  1  0
M  CHG  1  38  -1
M  END
>  <meeko>  (8) 
{"is_sidechain": [false], "free_energy": -8.954, "intermolecular_energy": -12.231, "internal_energy": -1.292}

$$$$
LIB_OCOHRESDZFYIIC__M_PUB_ALL__e8__s20260927
     RDKit          3D

 57 61  0  0  0  0  0  0  0  0999 V2000
    8.1490  -15.1360   -0.8300 O   0  0  0  0  0  0  0  0  0  0  0  0
    8.6420  -14.0020   -0.8540 C   0  0  0  0  0  0  0  0  0  0  0  0
    7.9590  -12.8660   -1.1000 N   0  0  0  0  0  0  0  0  0  0  0  0
    6.5990  -12.6730   -1.3920 C   0  0  0  0  0  0  0  0  0  0  0  0
    6.1240  -11.8910   -2.4420 C   0  0  0  0  0  0  0  0  0  0  0  0
    4.7510  -11.7470   -2.6450 C   0  0  0  0  0  0  0  0  0  0  0  0
    3.8430  -12.3780   -1.7930 C   0  0  0  0  0  0  0  0  0  0  0  0
    4.2900  -13.1660   -0.7210 C   0  0  0  0  0  0  0  0  0  0  0  0
    3.3070  -13.8300    0.1770 C   0  0  0  0  0  0  0  0  0  0  0  0
    3.5380  -15.0850    0.6220 C   0  0  0  0  0  0  0  0  0  0  0  0
    2.6100  -15.6670    1.4560 N   0  0  0  0  0  0  0  0  0  0  0  0
    2.5510  -16.8950    2.0570 C   0  0  0  0  0  0  0  0  0  0  0  0
    1.3750  -16.8850    2.7780 C   0  0  0  0  0  0  0  0  0  0  0  0
    0.7120  -15.6870    2.6390 N   0  0  0  0  0  0  0  0  0  0  0  0
    1.4880  -14.9870    1.8340 C   0  0  0  0  0  0  0  0  0  0  0  0
    1.2820  -13.6370    1.3420 C   0  0  0  0  0  0  0  0  0  0  0  0
    0.1610  -12.9300    1.7020 N   0  0  0  0  0  0  0  0  0  0  0  0
   -0.1400  -11.6100    1.2230 C   0  0  0  0  0  0  0  0  0  0  0  0
   -1.5450  -11.5820    0.6770 C   0  0  0  0  0  0  0  0  0  0  0  0
   -2.3170  -12.7470    0.6300 C   0  0  0  0  0  0  0  0  0  0  0  0
   -3.6120  -12.6650    0.1430 C   0  0  0  0  0  0  0  0  0  0  0  0
   -4.1830  -11.5190   -0.2880 N   0  0  0  0  0  0  0  0  0  0  0  0
   -3.4260  -10.4040   -0.2190 C   0  0  0  0  0  0  0  0  0  0  0  0
   -2.1230  -10.3830    0.2520 C   0  0  0  0  0  0  0  0  0  0  0  0
    2.1790  -13.0980    0.5480 N   0  0  0  0  0  0  0  0  0  0  0  0
    5.6760  -13.3150   -0.5510 C   0  0  0  0  0  0  0  0  0  0  0  0
    9.9770  -13.9290   -0.5940 N   0  0  0  0  0  0  0  0  0  0  0  0
   10.9760  -12.9190   -0.5150 C   0  0  0  0  0  0  0  0  0  0  0  0
   11.8170  -12.9000   -1.6580 C   0  0  0  0  0  0  0  0  0  0  0  0
   12.8700  -11.9900   -1.8080 C   0  0  0  0  0  0  0  0  0  0  0  0
   13.7470  -12.0220   -3.0230 C   0  0  0  0  0  0  0  0  0  0  0  0
   13.1710  -11.4220   -4.1060 F   0  0  0  0  0  0  0  0  0  0  0  0
   14.9410  -11.3840   -2.8460 F   0  0  0  0  0  0  0  0  0  0  0  0
   14.0680  -13.2830   -3.4330 F   0  0  0  0  0  0  0  0  0  0  0  0
   13.0970  -11.0860   -0.7810 C   0  0  0  0  0  0  0  0  0  0  0  0
   12.2710  -11.0950    0.3460 C   0  0  0  0  0  0  0  0  0  0  0  0
   11.1870  -11.9860    0.5400 C   0  0  0  0  0  0  0  0  0  0  0  0
   10.5050  -11.8810    1.6130 O   0  0  0  0  0  0  0  0  0  0  0  0
    8.5640  -12.0310   -1.0910 H   0  0  0  0  0  0  0  0  0  0  0  0
    6.8335  -11.3852   -3.1135 H   0  0  0  0  0  0  0  0  0  0  0  0
    4.3825  -11.1334   -3.4803 H   0  0  0  0  0  0  0  0  0  0  0  0
    2.7632  -12.2561   -1.9640 H   0  0  0  0  0  0  0  0  0  0  0  0
    4.4466  -15.6290    0.3247 H   0  0  0  0  0  0  0  0  0  0  0  0
    3.2827  -17.7128    1.9815 H   0  0  0  0  0  0  0  0  0  0  0  0
    1.0133  -17.7271    3.3864 H   0  0  0  0  0  0  0  0  0  0  0  0
   -0.5020  -13.4030    2.3070 H   0  0  0  0  0  0  0  0  0  0  0  0
   -0.0539  -10.8910    2.0510 H   0  0  0  0  0  0  0  0  0  0  0  0
    0.5685  -11.3384    0.4266 H   0  0  0  0  0  0  0  0  0  0  0  0
   -1.9053  -13.7079    0.9722 H   0  0  0  0  0  0  0  0  0  0  0  0
   -4.2101  -13.5874    0.1052 H   0  0  0  0  0  0  0  0  0  0  0  0
   -3.8695   -9.4557   -0.5566 H   0  0  0  0  0  0  0  0  0  0  0  0
   -1.5553   -9.4416    0.2905 H   0  0  0  0  0  0  0  0  0  0  0  0
    6.0490  -13.9527    0.2640 H   0  0  0  0  0  0  0  0  0  0  0  0
   10.3030  -14.8650   -0.4130 H   0  0  0  0  0  0  0  0  0  0  0  0
   11.6337  -13.6308   -2.4594 H   0  0  0  0  0  0  0  0  0  0  0  0
   13.9242  -10.3646   -0.8534 H   0  0  0  0  0  0  0  0  0  0  0  0
   12.4768  -10.3592    1.1374 H   0  0  0  0  0  0  0  0  0  0  0  0
  1  2  2  0
  2  3  1  0
  3  4  1  0
  4  5  2  0
  5  6  1  0
  6  7  2  0
  7  8  1  0
  8  9  1  0
  9 10  2  0
 10 11  1  0
 11 12  1  0
 12 13  2  0
 13 14  1  0
 14 15  2  0
 15 16  1  0
 16 17  1  0
 17 18  1  0
 18 19  1  0
 19 20  2  0
 20 21  1  0
 21 22  2  0
 22 23  1  0
 23 24  2  0
 16 25  2  0
  8 26  2  0
  2 27  1  0
 27 28  1  0
 28 29  2  0
 29 30  1  0
 30 31  1  0
 31 32  1  0
 31 33  1  0
 31 34  1  0
 30 35  2  0
 35 36  1  0
 36 37  2  0
 37 38  1  0
 26  4  1  0
 37 28  1  0
 25  9  1  0
 15 11  1  0
 24 19  1  0
  3 39  1  0
  5 40  1  0
  6 41  1  0
  7 42  1  0
 10 43  1  0
 12 44  1  0
 13 45  1  0
 17 46  1  0
 18 47  1  0
 18 48  1  0
 20 49  1  0
 21 50  1  0
 23 51  1  0
 24 52  1  0
 26 53  1  0
 27 54  1  0
 29 55  1  0
 35 56  1  0
 36 57  1  0
M  CHG  1  38  -1
M  END
>  <meeko>  (9) 
{"is_sidechain": [false], "free_energy": -8.902, "intermolecular_energy": -12.471, "internal_energy": -0.98}

$$$$
