LIB_NPPRRBNKXJEVHF__M_PUB_ALL__e8__s20260927
     RDKit          3D

 72 76  0  0  0  0  0  0  0  0999 V2000
    2.2820  -17.5930   11.0250 C   0  0  0  0  0  0  0  0  0  0  0  0
    1.9620  -17.6900    9.5580 C   0  0  0  0  0  0  0  0  0  0  0  0
    2.6350  -17.1330    8.6970 O   0  0  0  0  0  0  0  0  0  0  0  0
    0.8860  -18.4970    9.2760 N   0  0  0  0  0  0  0  0  0  0  0  0
    0.4200  -18.7400    7.9200 C   0  0  0  0  0  0  0  0  0  0  0  0
   -1.1050  -18.6460    7.7440 C   0  0  1  0  0  0  0  0  0  0  0  0
   -1.6200  -17.2990    7.2880 C   0  0  0  0  0  0  0  0  0  0  0  0
   -1.7500  -17.4630    5.8680 N   0  0  0  0  0  0  0  0  0  0  0  0
   -1.9090  -16.3810    4.9650 C   0  0  0  0  0  0  0  0  0  0  0  0
   -3.1350  -16.0970    4.3580 C   0  0  0  0  0  0  0  0  0  0  0  0
   -3.2800  -15.0300    3.4550 C   0  0  0  0  0  0  0  0  0  0  0  0
   -2.2080  -14.1970    3.1180 C   0  0  0  0  0  0  0  0  0  0  0  0
   -2.3850  -13.1540    2.2150 N   0  0  0  0  0  0  0  0  0  0  0  0
   -2.1600  -13.3530    0.7740 C   0  0  0  0  0  0  0  0  0  0  0  0
   -0.8320  -12.7000    0.3410 C   0  0  0  0  0  0  0  0  0  0  0  0
   -0.8370  -11.2330    0.7670 N   0  0  0  0  0  0  0  0  0  0  0  0
    0.3810  -10.5560    0.3320 C   0  0  0  0  0  0  0  0  0  0  0  0
    0.6160   -9.4950    0.8800 O   0  0  0  0  0  0  0  0  0  0  0  0
    1.2680  -11.1260   -0.7030 C   0  0  0  0  0  0  0  0  0  0  0  0
    1.4210  -10.6470   -1.9470 C   0  0  0  0  0  0  0  0  0  0  0  0
    2.3390  -11.2640   -2.9190 C   0  0  0  0  0  0  0  0  0  0  0  0
    2.4680  -12.6510   -3.0470 C   0  0  0  0  0  0  0  0  0  0  0  0
    3.3310  -13.1990   -4.0030 C   0  0  0  0  0  0  0  0  0  0  0  0
    4.0760  -12.3800   -4.8640 C   0  0  0  0  0  0  0  0  0  0  0  0
    4.9830  -12.9590   -5.8680 C   0  0  0  0  0  0  0  0  0  0  0  0
    5.0460  -12.4390   -7.1720 C   0  0  0  0  0  0  0  0  0  0  0  0
    5.9080  -12.9880   -8.1270 C   0  0  0  0  0  0  0  0  0  0  0  0
    6.7220  -14.0670   -7.7920 C   0  0  0  0  0  0  0  0  0  0  0  0
    6.6750  -14.5980   -6.5060 C   0  0  0  0  0  0  0  0  0  0  0  0
    5.8130  -14.0480   -5.5530 C   0  0  0  0  0  0  0  0  0  0  0  0
    3.9270  -10.9910   -4.7390 C   0  0  0  0  0  0  0  0  0  0  0  0
    3.0650  -10.4390   -3.7830 C   0  0  0  0  0  0  0  0  0  0  0  0
   -1.0220  -11.0930    2.2670 C   0  0  0  0  0  0  0  0  0  0  0  0
   -2.3440  -11.7650    2.7000 C   0  0  0  0  0  0  0  0  0  0  0  0
   -0.9820  -14.5000    3.7340 C   0  0  0  0  0  0  0  0  0  0  0  0
    0.0930  -13.7290    3.5010 F   0  0  0  0  0  0  0  0  0  0  0  0
   -0.8290  -15.5590    4.6340 C   0  0  0  0  0  0  0  0  0  0  0  0
   -1.7450  -18.8200    5.5720 C   0  0  0  0  0  0  0  0  0  0  0  0
   -1.9010  -19.3650    4.4910 O   0  0  0  0  0  0  0  0  0  0  0  0
   -1.5330  -19.5490    6.7160 O   0  0  0  0  0  0  0  0  0  0  0  0
    1.3923  -17.8627   11.6130 H   0  0  0  0  0  0  0  0  0  0  0  0
    3.1044  -18.2822   11.2673 H   0  0  0  0  0  0  0  0  0  0  0  0
    2.5833  -16.5632   11.2673 H   0  0  0  0  0  0  0  0  0  0  0  0
    0.4030  -18.9640   10.0350 H   0  0  0  0  0  0  0  0  0  0  0  0
    0.8889  -17.9978    7.2572 H   0  0  0  0  0  0  0  0  0  0  0  0
    0.7006  -19.7746    7.6731 H   0  0  0  0  0  0  0  0  0  0  0  0
   -1.4964  -18.8676    8.7478 H   0  0  0  0  0  0  0  0  0  0  0  0
   -2.5921  -17.0711    7.7497 H   0  0  0  0  0  0  0  0  0  0  0  0
   -0.9583  -16.4661    7.5679 H   0  0  0  0  0  0  0  0  0  0  0  0
   -4.0079  -16.7238    4.5926 H   0  0  0  0  0  0  0  0  0  0  0  0
   -4.2643  -14.8446    3.0003 H   0  0  0  0  0  0  0  0  0  0  0  0
   -2.1206  -14.4311    0.5590 H   0  0  0  0  0  0  0  0  0  0  0  0
   -2.9852  -12.8858    0.2166 H   0  0  0  0  0  0  0  0  0  0  0  0
    0.0091  -13.2208    0.8219 H   0  0  0  0  0  0  0  0  0  0  0  0
   -0.7225  -12.7694   -0.7513 H   0  0  0  0  0  0  0  0  0  0  0  0
   -1.6240  -10.7950    0.2880 H   0  0  0  0  0  0  0  0  0  0  0  0
    1.8518  -12.0177   -0.4310 H   0  0  0  0  0  0  0  0  0  0  0  0
    0.8409   -9.7633   -2.2511 H   0  0  0  0  0  0  0  0  0  0  0  0
    1.8868  -13.3161   -2.3913 H   0  0  0  0  0  0  0  0  0  0  0  0
    3.4267  -14.2921   -4.0805 H   0  0  0  0  0  0  0  0  0  0  0  0
    4.4071  -11.5865   -7.4461 H   0  0  0  0  0  0  0  0  0  0  0  0
    5.9429  -12.5673   -9.1428 H   0  0  0  0  0  0  0  0  0  0  0  0
    7.4008  -14.4989   -8.5421 H   0  0  0  0  0  0  0  0  0  0  0  0
    7.3166  -15.4509   -6.2397 H   0  0  0  0  0  0  0  0  0  0  0  0
    5.7840  -14.4748   -4.5396 H   0  0  0  0  0  0  0  0  0  0  0  0
    4.4966  -10.3240   -5.4028 H   0  0  0  0  0  0  0  0  0  0  0  0
    2.9583   -9.3465   -3.7114 H   0  0  0  0  0  0  0  0  0  0  0  0
   -0.1806  -11.5767    2.7848 H   0  0  0  0  0  0  0  0  0  0  0  0
   -1.0563  -10.0252    2.5290 H   0  0  0  0  0  0  0  0  0  0  0  0
   -2.4125  -11.7603    3.7979 H   0  0  0  0  0  0  0  0  0  0  0  0
   -3.1898  -11.2076    2.2711 H   0  0  0  0  0  0  0  0  0  0  0  0
    0.1552  -15.7475    5.0876 H   0  0  0  0  0  0  0  0  0  0  0  0
  1  2  1  0
  2  3  2  0
  2  4  1  0
  4  5  1  0
  5  6  1  0
  6  7  1  0
  7  8  1  0
  8  9  1  0
  9 10  2  0
 10 11  1  0
 11 12  2  0
 12 13  1  0
 13 14  1  0
 14 15  1  0
 15 16  1  0
 16 17  1  0
 17 18  2  0
 17 19  1  0
 19 20  2  0
 20 21  1  0
 21 22  2  0
 22 23  1  0
 23 24  2  0
 24 25  1  0
 25 26  2  0
 26 27  1  0
 27 28  2  0
 28 29  1  0
 29 30  2  0
 24 31  1  0
 31 32  2  0
 16 33  1  0
 33 34  1  0
 12 35  1  0
 35 36  1  0
 35 37  2  0
  8 38  1  0
 38 39  2  0
 38 40  1  0
 40  6  1  0
 37  9  1  0
 34 13  1  0
 32 21  1  0
 30 25  1  0
  1 41  1  0
  1 42  1  0
  1 43  1  0
  4 44  1  0
  5 45  1  0
  5 46  1  0
  6 47  1  1
  7 48  1  0
  7 49  1  0
 10 50  1  0
 11 51  1  0
 14 52  1  0
 14 53  1  0
 15 54  1  0
 15 55  1  0
 16 56  1  0
 19 57  1  0
 20 58  1  0
 22 59  1  0
 23 60  1  0
 26 61  1  0
 27 62  1  0
 28 63  1  0
 29 64  1  0
 30 65  1  0
 31 66  1  0
 32 67  1  0
 33 68  1  0
 33 69  1  0
 34 70  1  0
 34 71  1  0
 37 72  1  0
M  CHG  1  16   1
M  END
>  <meeko>  (1) 
{"is_sidechain": [false], "free_energy": -9.104, "intermolecular_energy": -13.362, "internal_energy": -1.353}

$$$$
LIB_NPPRRBNKXJEVHF__M_PUB_ALL__e8__s20260927
     RDKit          3D

 72 76  0  0  0  0  0  0  0  0999 V2000
  -11.2600  -17.2510    9.8930 C   0  0  0  0  0  0  0  0  0  0  0  0
  -10.5300  -16.5450    8.7830 C   0  0  0  0  0  0  0  0  0  0  0  0
  -11.1090  -15.8780    7.9320 O   0  0  0  0  0  0  0  0  0  0  0  0
   -9.1630  -16.6760    8.8440 N   0  0  0  0  0  0  0  0  0  0  0  0
   -8.2710  -16.0580    7.8770 C   0  0  0  0  0  0  0  0  0  0  0  0
   -7.3920  -17.0510    7.0980 C   0  0  1  0  0  0  0  0  0  0  0  0
   -7.1260  -16.6840    5.6550 C   0  0  0  0  0  0  0  0  0  0  0  0
   -5.8490  -16.0330    5.7120 N   0  0  0  0  0  0  0  0  0  0  0  0
   -5.3220  -15.2440    4.6580 C   0  0  0  0  0  0  0  0  0  0  0  0
   -6.0000  -14.1310    4.1550 C   0  0  0  0  0  0  0  0  0  0  0  0
   -5.4750  -13.3630    3.1020 C   0  0  0  0  0  0  0  0  0  0  0  0
   -4.2470  -13.6700    2.5040 C   0  0  0  0  0  0  0  0  0  0  0  0
   -3.7610  -12.8920    1.4580 N   0  0  0  0  0  0  0  0  0  0  0  0
   -3.1060  -13.5120    0.2950 C   0  0  0  0  0  0  0  0  0  0  0  0
   -1.5800  -13.3010    0.3610 C   0  0  0  0  0  0  0  0  0  0  0  0
   -1.2890  -11.8100    0.5100 N   0  0  0  0  0  0  0  0  0  0  0  0
    0.1490  -11.5540    0.5250 C   0  0  0  0  0  0  0  0  0  0  0  0
    0.5770  -11.0190    1.5300 O   0  0  0  0  0  0  0  0  0  0  0  0
    1.0220  -11.9250   -0.6070 C   0  0  0  0  0  0  0  0  0  0  0  0
    1.3480  -11.1250   -1.6350 C   0  0  0  0  0  0  0  0  0  0  0  0
    2.2390  -11.5640   -2.7210 C   0  0  0  0  0  0  0  0  0  0  0  0
    3.0200  -10.6640   -3.4540 C   0  0  0  0  0  0  0  0  0  0  0  0
    3.8780  -11.1240   -4.4610 C   0  0  0  0  0  0  0  0  0  0  0  0
    3.9900  -12.4910   -4.7520 C   0  0  0  0  0  0  0  0  0  0  0  0
    4.8920  -12.9720   -5.8110 C   0  0  0  0  0  0  0  0  0  0  0  0
    5.6480  -14.1440   -5.6400 C   0  0  0  0  0  0  0  0  0  0  0  0
    6.5050  -14.6010   -6.6460 C   0  0  0  0  0  0  0  0  0  0  0  0
    6.6200  -13.8940   -7.8400 C   0  0  0  0  0  0  0  0  0  0  0  0
    5.8790  -12.7310   -8.0290 C   0  0  0  0  0  0  0  0  0  0  0  0
    5.0230  -12.2740   -7.0230 C   0  0  0  0  0  0  0  0  0  0  0  0
    3.2150  -13.3870   -4.0000 C   0  0  0  0  0  0  0  0  0  0  0  0
    2.3550  -12.9310   -2.9930 C   0  0  0  0  0  0  0  0  0  0  0  0
   -1.9470  -11.2390    1.7530 C   0  0  0  0  0  0  0  0  0  0  0  0
   -3.4750  -11.4680    1.6930 C   0  0  0  0  0  0  0  0  0  0  0  0
   -3.5820  -14.7940    3.0190 C   0  0  0  0  0  0  0  0  0  0  0  0
   -2.3780  -15.1410    2.5340 F   0  0  0  0  0  0  0  0  0  0  0  0
   -4.0960  -15.5650    4.0670 C   0  0  0  0  0  0  0  0  0  0  0  0
   -5.2370  -16.3520    6.9180 C   0  0  0  0  0  0  0  0  0  0  0  0
   -4.1210  -16.0520    7.3100 O   0  0  0  0  0  0  0  0  0  0  0  0
   -6.0860  -17.1110    7.6860 O   0  0  0  0  0  0  0  0  0  0  0  0
  -10.8879  -16.8911   10.8636 H   0  0  0  0  0  0  0  0  0  0  0  0
  -12.3373  -17.0434    9.8135 H   0  0  0  0  0  0  0  0  0  0  0  0
  -11.0885  -18.3346    9.8135 H   0  0  0  0  0  0  0  0  0  0  0  0
   -8.7490  -17.2050    9.6030 H   0  0  0  0  0  0  0  0  0  0  0  0
   -8.8823  -15.4987    7.1535 H   0  0  0  0  0  0  0  0  0  0  0  0
   -7.5863  -15.4140    8.4484 H   0  0  0  0  0  0  0  0  0  0  0  0
   -7.9637  -17.9899    7.1395 H   0  0  0  0  0  0  0  0  0  0  0  0
   -7.0829  -17.5820    5.0212 H   0  0  0  0  0  0  0  0  0  0  0  0
   -7.9133  -16.0517    5.2187 H   0  0  0  0  0  0  0  0  0  0  0  0
   -6.9684  -13.8490    4.5939 H   0  0  0  0  0  0  0  0  0  0  0  0
   -6.0451  -12.4959    2.7371 H   0  0  0  0  0  0  0  0  0  0  0  0
   -3.3228  -14.5904    0.2893 H   0  0  0  0  0  0  0  0  0  0  0  0
   -3.4913  -13.0439   -0.6228 H   0  0  0  0  0  0  0  0  0  0  0  0
   -1.1698  -13.8447    1.2248 H   0  0  0  0  0  0  0  0  0  0  0  0
   -1.1129  -13.6800   -0.5600 H   0  0  0  0  0  0  0  0  0  0  0  0
   -1.6770  -11.3550   -0.3160 H   0  0  0  0  0  0  0  0  0  0  0  0
    1.4404  -12.9423   -0.6081 H   0  0  0  0  0  0  0  0  0  0  0  0
    0.9347  -10.1061   -1.6665 H   0  0  0  0  0  0  0  0  0  0  0  0
    2.9598   -9.5871   -3.2379 H   0  0  0  0  0  0  0  0  0  0  0  0
    4.4750  -10.3994   -5.0342 H   0  0  0  0  0  0  0  0  0  0  0  0
    5.5644  -14.7104   -4.7008 H   0  0  0  0  0  0  0  0  0  0  0  0
    7.0892  -15.5205   -6.4938 H   0  0  0  0  0  0  0  0  0  0  0  0
    7.2943  -14.2534   -8.6313 H   0  0  0  0  0  0  0  0  0  0  0  0
    5.9672  -12.1707   -8.9715 H   0  0  0  0  0  0  0  0  0  0  0  0
    4.4428  -11.3533   -7.1829 H   0  0  0  0  0  0  0  0  0  0  0  0
    3.2841  -14.4656   -4.2048 H   0  0  0  0  0  0  0  0  0  0  0  0
    1.7655  -13.6545   -2.4108 H   0  0  0  0  0  0  0  0  0  0  0  0
   -1.5382  -11.7382    2.6439 H   0  0  0  0  0  0  0  0  0  0  0  0
   -1.7448  -10.1590    1.8057 H   0  0  0  0  0  0  0  0  0  0  0  0
   -3.9276  -11.1579    2.6464 H   0  0  0  0  0  0  0  0  0  0  0  0
   -3.8973  -10.8739    0.8692 H   0  0  0  0  0  0  0  0  0  0  0  0
   -3.5288  -16.4345    4.4306 H   0  0  0  0  0  0  0  0  0  0  0  0
  1  2  1  0
  2  3  2  0
  2  4  1  0
  4  5  1  0
  5  6  1  0
  6  7  1  0
  7  8  1  0
  8  9  1  0
  9 10  2  0
 10 11  1  0
 11 12  2  0
 12 13  1  0
 13 14  1  0
 14 15  1  0
 15 16  1  0
 16 17  1  0
 17 18  2  0
 17 19  1  0
 19 20  2  0
 20 21  1  0
 21 22  2  0
 22 23  1  0
 23 24  2  0
 24 25  1  0
 25 26  2  0
 26 27  1  0
 27 28  2  0
 28 29  1  0
 29 30  2  0
 24 31  1  0
 31 32  2  0
 16 33  1  0
 33 34  1  0
 12 35  1  0
 35 36  1  0
 35 37  2  0
  8 38  1  0
 38 39  2  0
 38 40  1  0
 40  6  1  0
 37  9  1  0
 34 13  1  0
 32 21  1  0
 30 25  1  0
  1 41  1  0
  1 42  1  0
  1 43  1  0
  4 44  1  0
  5 45  1  0
  5 46  1  0
  6 47  1  6
  7 48  1  0
  7 49  1  0
 10 50  1  0
 11 51  1  0
 14 52  1  0
 14 53  1  0
 15 54  1  0
 15 55  1  0
 16 56  1  0
 19 57  1  0
 20 58  1  0
 22 59  1  0
 23 60  1  0
 26 61  1  0
 27 62  1  0
 28 63  1  0
 29 64  1  0
 30 65  1  0
 31 66  1  0
 32 67  1  0
 33 68  1  0
 33 69  1  0
 34 70  1  0
 34 71  1  0
 37 72  1  0
M  CHG  1  16   1
M  END
>  <meeko>  (2) 
{"is_sidechain": [false], "free_energy": -8.783, "intermolecular_energy": -13.444, "internal_energy": -0.799}

$$$$
LIB_NPPRRBNKXJEVHF__M_PUB_ALL__e8__s20260927
     RDKit          3D

 72 76  0  0  0  0  0  0  0  0999 V2000
   14.7090  -12.1980   -3.6780 C   0  0  0  0  0  0  0  0  0  0  0  0
   13.5160  -11.7070   -2.9040 C   0  0  0  0  0  0  0  0  0  0  0  0
   12.4410  -11.4540   -3.4380 O   0  0  0  0  0  0  0  0  0  0  0  0
   13.7290  -11.6220   -1.5480 N   0  0  0  0  0  0  0  0  0  0  0  0
   12.7010  -11.1860   -0.6170 C   0  0  0  0  0  0  0  0  0  0  0  0
   12.0740  -12.3180    0.2140 C   0  0  1  0  0  0  0  0  0  0  0  0
   10.6260  -12.1110    0.5980 C   0  0  0  0  0  0  0  0  0  0  0  0
    9.9120  -12.8390   -0.4110 N   0  0  0  0  0  0  0  0  0  0  0  0
    8.5220  -12.6910   -0.6520 C   0  0  0  0  0  0  0  0  0  0  0  0
    7.5630  -13.0650    0.2920 C   0  0  0  0  0  0  0  0  0  0  0  0
    6.1870  -12.9250    0.0400 C   0  0  0  0  0  0  0  0  0  0  0  0
    5.7070  -12.4030   -1.1650 C   0  0  0  0  0  0  0  0  0  0  0  0
    4.3380  -12.2840   -1.3840 N   0  0  0  0  0  0  0  0  0  0  0  0
    3.4090  -12.0700   -0.2640 C   0  0  0  0  0  0  0  0  0  0  0  0
    2.6350  -13.3670    0.0490 C   0  0  0  0  0  0  0  0  0  0  0  0
    1.9580  -13.8630   -1.2270 N   0  0  0  0  0  0  0  0  0  0  0  0
    1.1680  -15.0630   -0.9710 C   0  0  0  0  0  0  0  0  0  0  0  0
    1.4960  -16.0520   -1.6000 O   0  0  0  0  0  0  0  0  0  0  0  0
    0.0480  -15.0730   -0.0080 C   0  0  0  0  0  0  0  0  0  0  0  0
   -0.2970  -16.1070    0.7750 C   0  0  0  0  0  0  0  0  0  0  0  0
   -1.4200  -16.0350    1.7240 C   0  0  0  0  0  0  0  0  0  0  0  0
   -2.2960  -17.1070    1.9260 C   0  0  0  0  0  0  0  0  0  0  0  0
   -3.3360  -17.0090    2.8580 C   0  0  0  0  0  0  0  0  0  0  0  0
   -3.5200  -15.8460    3.6210 C   0  0  0  0  0  0  0  0  0  0  0  0
   -4.6150  -15.7460    4.6010 C   0  0  0  0  0  0  0  0  0  0  0  0
   -5.7560  -14.9710    4.3340 C   0  0  0  0  0  0  0  0  0  0  0  0
   -6.7960  -14.8760    5.2630 C   0  0  0  0  0  0  0  0  0  0  0  0
   -6.7120  -15.5540    6.4760 C   0  0  0  0  0  0  0  0  0  0  0  0
   -5.5900  -16.3270    6.7610 C   0  0  0  0  0  0  0  0  0  0  0  0
   -4.5510  -16.4220    5.8310 C   0  0  0  0  0  0  0  0  0  0  0  0
   -2.6270  -14.7830    3.4230 C   0  0  0  0  0  0  0  0  0  0  0  0
   -1.5860  -14.8770    2.4900 C   0  0  0  0  0  0  0  0  0  0  0  0
    2.9720  -14.1140   -2.3290 C   0  0  0  0  0  0  0  0  0  0  0  0
    3.7590  -12.8170   -2.6270 C   0  0  0  0  0  0  0  0  0  0  0  0
    6.6850  -12.0350   -2.1040 C   0  0  0  0  0  0  0  0  0  0  0  0
    6.3180  -11.4870   -3.2740 F   0  0  0  0  0  0  0  0  0  0  0  0
    8.0560  -12.1710   -1.8620 C   0  0  0  0  0  0  0  0  0  0  0  0
   10.7910  -13.7120   -1.0390 C   0  0  0  0  0  0  0  0  0  0  0  0
   10.5550  -14.5460   -1.8990 O   0  0  0  0  0  0  0  0  0  0  0  0
   12.0610  -13.5320   -0.5480 O   0  0  0  0  0  0  0  0  0  0  0  0
   15.4932  -12.5207   -2.9773 H   0  0  0  0  0  0  0  0  0  0  0  0
   14.4112  -13.0467   -4.3113 H   0  0  0  0  0  0  0  0  0  0  0  0
   15.0949  -11.3856   -4.3113 H   0  0  0  0  0  0  0  0  0  0  0  0
   14.6300  -11.8920   -1.1700 H   0  0  0  0  0  0  0  0  0  0  0  0
   13.1503  -10.4591    0.0757 H   0  0  0  0  0  0  0  0  0  0  0  0
   11.8903  -10.7563   -1.2237 H   0  0  0  0  0  0  0  0  0  0  0  0
   12.6943  -12.3469    1.1220 H   0  0  0  0  0  0  0  0  0  0  0  0
   10.4210  -12.5195    1.5986 H   0  0  0  0  0  0  0  0  0  0  0  0
   10.3404  -11.0499    0.6478 H   0  0  0  0  0  0  0  0  0  0  0  0
    7.8924  -13.4793    1.2563 H   0  0  0  0  0  0  0  0  0  0  0  0
    5.4678  -13.2348    0.8125 H   0  0  0  0  0  0  0  0  0  0  0  0
    3.9787  -11.7644    0.6259 H   0  0  0  0  0  0  0  0  0  0  0  0
    2.6908  -11.2845   -0.5417 H   0  0  0  0  0  0  0  0  0  0  0  0
    3.3330  -14.1330    0.4177 H   0  0  0  0  0  0  0  0  0  0  0  0
    1.8754  -13.1694    0.8197 H   0  0  0  0  0  0  0  0  0  0  0  0
    1.3170  -13.1260   -1.5210 H   0  0  0  0  0  0  0  0  0  0  0  0
   -0.5539  -14.1559    0.0743 H   0  0  0  0  0  0  0  0  0  0  0  0
    0.2797  -17.0411    0.7051 H   0  0  0  0  0  0  0  0  0  0  0  0
   -2.1666  -18.0340    1.3481 H   0  0  0  0  0  0  0  0  0  0  0  0
   -4.0210  -17.8588    2.9945 H   0  0  0  0  0  0  0  0  0  0  0  0
   -5.8321  -14.4305    3.3790 H   0  0  0  0  0  0  0  0  0  0  0  0
   -7.6818  -14.2648    5.0354 H   0  0  0  0  0  0  0  0  0  0  0  0
   -7.5302  -15.4791    7.2074 H   0  0  0  0  0  0  0  0  0  0  0  0
   -5.5210  -16.8635    7.7188 H   0  0  0  0  0  0  0  0  0  0  0  0
   -3.6690  -17.0359    6.0658 H   0  0  0  0  0  0  0  0  0  0  0  0
   -2.7458  -13.8602    4.0098 H   0  0  0  0  0  0  0  0  0  0  0  0
   -0.8933  -14.0326    2.3589 H   0  0  0  0  0  0  0  0  0  0  0  0
    3.6720  -14.8996   -2.0082 H   0  0  0  0  0  0  0  0  0  0  0  0
    2.4446  -14.4343   -3.2396 H   0  0  0  0  0  0  0  0  0  0  0  0
    4.5669  -13.0367   -3.3405 H   0  0  0  0  0  0  0  0  0  0  0  0
    3.0754  -12.0700   -3.0567 H   0  0  0  0  0  0  0  0  0  0  0  0
    8.7766  -11.8645   -2.6345 H   0  0  0  0  0  0  0  0  0  0  0  0
  1  2  1  0
  2  3  2  0
  2  4  1  0
  4  5  1  0
  5  6  1  0
  6  7  1  0
  7  8  1  0
  8  9  1  0
  9 10  2  0
 10 11  1  0
 11 12  2  0
 12 13  1  0
 13 14  1  0
 14 15  1  0
 15 16  1  0
 16 17  1  0
 17 18  2  0
 17 19  1  0
 19 20  2  0
 20 21  1  0
 21 22  2  0
 22 23  1  0
 23 24  2  0
 24 25  1  0
 25 26  2  0
 26 27  1  0
 27 28  2  0
 28 29  1  0
 29 30  2  0
 24 31  1  0
 31 32  2  0
 16 33  1  0
 33 34  1  0
 12 35  1  0
 35 36  1  0
 35 37  2  0
  8 38  1  0
 38 39  2  0
 38 40  1  0
 40  6  1  0
 37  9  1  0
 34 13  1  0
 32 21  1  0
 30 25  1  0
  1 41  1  0
  1 42  1  0
  1 43  1  0
  4 44  1  0
  5 45  1  0
  5 46  1  0
  6 47  1  1
  7 48  1  0
  7 49  1  0
 10 50  1  0
 11 51  1  0
 14 52  1  0
 14 53  1  0
 15 54  1  0
 15 55  1  0
 16 56  1  0
 19 57  1  0
 20 58  1  0
 22 59  1  0
 23 60  1  0
 26 61  1  0
 27 62  1  0
 28 63  1  0
 29 64  1  0
 30 65  1  0
 31 66  1  0
 32 67  1  0
 33 68  1  0
 33 69  1  0
 34 70  1  0
 34 71  1  0
 37 72  1  0
M  CHG  1  16   1
M  END
>  <meeko>  (3) 
{"is_sidechain": [false], "free_energy": -8.719, "intermolecular_energy": -12.947, "internal_energy": -1.203}

$$$$
LIB_NPPRRBNKXJEVHF__M_PUB_ALL__e8__s20260927
     RDKit          3D

 72 76  0  0  0  0  0  0  0  0999 V2000
   -3.6730  -15.1870    9.4990 C   0  0  0  0  0  0  0  0  0  0  0  0
   -4.6820  -16.1530    8.9420 C   0  0  0  0  0  0  0  0  0  0  0  0
   -4.3870  -17.0170    8.1230 O   0  0  0  0  0  0  0  0  0  0  0  0
   -5.9420  -16.0100    9.4740 N   0  0  0  0  0  0  0  0  0  0  0  0
   -7.0590  -16.8550    9.0860 C   0  0  0  0  0  0  0  0  0  0  0  0
   -8.0060  -16.2220    8.0520 C   0  0  1  0  0  0  0  0  0  0  0  0
   -7.3920  -15.1410    7.1900 C   0  0  0  0  0  0  0  0  0  0  0  0
   -7.0170  -15.8470    5.9980 N   0  0  0  0  0  0  0  0  0  0  0  0
   -6.1320  -15.3230    5.0220 C   0  0  0  0  0  0  0  0  0  0  0  0
   -4.9380  -15.9660    4.6840 C   0  0  0  0  0  0  0  0  0  0  0  0
   -4.0620  -15.4330    3.7230 C   0  0  0  0  0  0  0  0  0  0  0  0
   -4.3370  -14.2350    3.0550 C   0  0  0  0  0  0  0  0  0  0  0  0
   -3.4440  -13.7330    2.1150 N   0  0  0  0  0  0  0  0  0  0  0  0
   -3.7400  -13.8050    0.6750 C   0  0  0  0  0  0  0  0  0  0  0  0
   -2.8900  -14.9040    0.0050 C   0  0  0  0  0  0  0  0  0  0  0  0
   -1.4170  -14.6550    0.3190 N   0  0  0  0  0  0  0  0  0  0  0  0
   -0.5650  -15.6430   -0.3380 C   0  0  0  0  0  0  0  0  0  0  0  0
   -0.6300  -16.7720    0.1090 O   0  0  0  0  0  0  0  0  0  0  0  0
    0.3130  -15.2890   -1.4720 C   0  0  0  0  0  0  0  0  0  0  0  0
    1.6470  -15.1550   -1.4110 C   0  0  0  0  0  0  0  0  0  0  0  0
    2.4570  -14.8150   -2.5920 C   0  0  0  0  0  0  0  0  0  0  0  0
    1.9680  -14.0060   -3.6240 C   0  0  0  0  0  0  0  0  0  0  0  0
    2.7800  -13.6820   -4.7180 C   0  0  0  0  0  0  0  0  0  0  0  0
    4.1020  -14.1430   -4.8040 C   0  0  0  0  0  0  0  0  0  0  0  0
    4.9530  -13.8000   -5.9550 C   0  0  0  0  0  0  0  0  0  0  0  0
    6.0210  -14.6290   -6.3370 C   0  0  0  0  0  0  0  0  0  0  0  0
    6.8300  -14.3050   -7.4310 C   0  0  0  0  0  0  0  0  0  0  0  0
    6.5820  -13.1460   -8.1620 C   0  0  0  0  0  0  0  0  0  0  0  0
    5.5280  -12.3110   -7.8010 C   0  0  0  0  0  0  0  0  0  0  0  0
    4.7210  -12.6360   -6.7070 C   0  0  0  0  0  0  0  0  0  0  0  0
    4.5880  -14.9390   -3.7560 C   0  0  0  0  0  0  0  0  0  0  0  0
    3.7790  -15.2670   -2.6610 C   0  0  0  0  0  0  0  0  0  0  0  0
   -1.1650  -14.6420    1.8160 C   0  0  0  0  0  0  0  0  0  0  0  0
   -2.0320  -13.5530    2.4870 C   0  0  0  0  0  0  0  0  0  0  0  0
   -5.5390  -13.6010    3.4100 C   0  0  0  0  0  0  0  0  0  0  0  0
   -5.9070  -12.4670    2.7910 F   0  0  0  0  0  0  0  0  0  0  0  0
   -6.4180  -14.1240    4.3640 C   0  0  0  0  0  0  0  0  0  0  0  0
   -7.6980  -17.0570    5.9620 C   0  0  0  0  0  0  0  0  0  0  0  0
   -7.7030  -17.9030    5.0830 O   0  0  0  0  0  0  0  0  0  0  0  0
   -8.4330  -17.2150    7.1110 O   0  0  0  0  0  0  0  0  0  0  0  0
   -3.7045  -15.2171   10.5981 H   0  0  0  0  0  0  0  0  0  0  0  0
   -2.6671  -15.4674    9.1531 H   0  0  0  0  0  0  0  0  0  0  0  0
   -3.9094  -14.1699    9.1531 H   0  0  0  0  0  0  0  0  0  0  0  0
   -6.1040  -15.3030   10.1830 H   0  0  0  0  0  0  0  0  0  0  0  0
   -6.6549  -17.7845    8.6586 H   0  0  0  0  0  0  0  0  0  0  0  0
   -7.6549  -17.0243    9.9950 H   0  0  0  0  0  0  0  0  0  0  0  0
   -8.8089  -15.7894    8.6671 H   0  0  0  0  0  0  0  0  0  0  0  0
   -8.1240  -14.3509    6.9669 H   0  0  0  0  0  0  0  0  0  0  0  0
   -6.5460  -14.6312    7.6741 H   0  0  0  0  0  0  0  0  0  0  0  0
   -4.6778  -16.9117    5.1820 H   0  0  0  0  0  0  0  0  0  0  0  0
   -3.1330  -15.9736    3.4892 H   0  0  0  0  0  0  0  0  0  0  0  0
   -4.8064  -14.0361    0.5354 H   0  0  0  0  0  0  0  0  0  0  0  0
   -3.4992  -12.8364    0.2126 H   0  0  0  0  0  0  0  0  0  0  0  0
   -3.1883  -15.8889    0.3934 H   0  0  0  0  0  0  0  0  0  0  0  0
   -3.0463  -14.8823   -1.0836 H   0  0  0  0  0  0  0  0  0  0  0  0
   -1.1880  -13.7400   -0.0690 H   0  0  0  0  0  0  0  0  0  0  0  0
   -0.1665  -15.1213   -2.4477 H   0  0  0  0  0  0  0  0  0  0  0  0
    2.1523  -15.3044   -0.4454 H   0  0  0  0  0  0  0  0  0  0  0  0
    0.9384  -13.6219   -3.5755 H   0  0  0  0  0  0  0  0  0  0  0  0
    2.3736  -13.0544   -5.5248 H   0  0  0  0  0  0  0  0  0  0  0  0
    6.2242  -15.5474   -5.7667 H   0  0  0  0  0  0  0  0  0  0  0  0
    7.6625  -14.9660   -7.7141 H   0  0  0  0  0  0  0  0  0  0  0  0
    7.2175  -12.8907   -9.0228 H   0  0  0  0  0  0  0  0  0  0  0  0
    5.3302  -11.3950   -8.3771 H   0  0  0  0  0  0  0  0  0  0  0  0
    3.8907  -11.9696   -6.4303 H   0  0  0  0  0  0  0  0  0  0  0  0
    5.6221  -15.3118   -3.7951 H   0  0  0  0  0  0  0  0  0  0  0  0
    4.1867  -15.8856   -1.8479 H   0  0  0  0  0  0  0  0  0  0  0  0
   -1.4232  -15.6246    2.2377 H   0  0  0  0  0  0  0  0  0  0  0  0
   -0.1029  -14.4243    2.0021 H   0  0  0  0  0  0  0  0  0  0  0  0
   -1.9308  -13.6290    3.5797 H   0  0  0  0  0  0  0  0  0  0  0  0
   -1.6931  -12.5627    2.1485 H   0  0  0  0  0  0  0  0  0  0  0  0
   -7.3470  -13.5841    4.5995 H   0  0  0  0  0  0  0  0  0  0  0  0
  1  2  1  0
  2  3  2  0
  2  4  1  0
  4  5  1  0
  5  6  1  0
  6  7  1  0
  7  8  1  0
  8  9  1  0
  9 10  2  0
 10 11  1  0
 11 12  2  0
 12 13  1  0
 13 14  1  0
 14 15  1  0
 15 16  1  0
 16 17  1  0
 17 18  2  0
 17 19  1  0
 19 20  2  0
 20 21  1  0
 21 22  2  0
 22 23  1  0
 23 24  2  0
 24 25  1  0
 25 26  2  0
 26 27  1  0
 27 28  2  0
 28 29  1  0
 29 30  2  0
 24 31  1  0
 31 32  2  0
 16 33  1  0
 33 34  1  0
 12 35  1  0
 35 36  1  0
 35 37  2  0
  8 38  1  0
 38 39  2  0
 38 40  1  0
 40  6  1  0
 37  9  1  0
 34 13  1  0
 32 21  1  0
 30 25  1  0
  1 41  1  0
  1 42  1  0
  1 43  1  0
  4 44  1  0
  5 45  1  0
  5 46  1  0
  6 47  1  1
  7 48  1  0
  7 49  1  0
 10 50  1  0
 11 51  1  0
 14 52  1  0
 14 53  1  0
 15 54  1  0
 15 55  1  0
 16 56  1  0
 19 57  1  0
 20 58  1  0
 22 59  1  0
 23 60  1  0
 26 61  1  0
 27 62  1  0
 28 63  1  0
 29 64  1  0
 30 65  1  0
 31 66  1  0
 32 67  1  0
 33 68  1  0
 33 69  1  0
 34 70  1  0
 34 71  1  0
 37 72  1  0
M  CHG  1  16   1
M  END
>  <meeko>  (4) 
{"is_sidechain": [false], "free_energy": -8.689, "intermolecular_energy": -12.689, "internal_energy": -1.417}

$$$$
LIB_NPPRRBNKXJEVHF__M_PUB_ALL__e8__s20260927
     RDKit          3D

 72 76  0  0  0  0  0  0  0  0999 V2000
    4.0780  -11.5560   -5.4100 C   0  0  0  0  0  0  0  0  0  0  0  0
    4.5920  -11.7050   -4.0050 C   0  0  0  0  0  0  0  0  0  0  0  0
    4.2090  -10.9920   -3.0830 O   0  0  0  0  0  0  0  0  0  0  0  0
    5.4840  -12.7380   -3.8450 N   0  0  0  0  0  0  0  0  0  0  0  0
    6.0880  -13.0640   -2.5630 C   0  0  0  0  0  0  0  0  0  0  0  0
    5.5200  -14.3280   -1.8950 C   0  0  1  0  0  0  0  0  0  0  0  0
    4.7640  -14.0930   -0.6060 C   0  0  0  0  0  0  0  0  0  0  0  0
    3.3950  -14.0450   -1.0330 N   0  0  0  0  0  0  0  0  0  0  0  0
    2.3390  -13.5430   -0.2300 C   0  0  0  0  0  0  0  0  0  0  0  0
    1.3800  -14.3840    0.3420 C   0  0  0  0  0  0  0  0  0  0  0  0
    0.3310  -13.8760    1.1270 C   0  0  0  0  0  0  0  0  0  0  0  0
    0.1920  -12.5070    1.3790 C   0  0  0  0  0  0  0  0  0  0  0  0
   -0.8630  -12.0380    2.1540 N   0  0  0  0  0  0  0  0  0  0  0  0
   -1.3820  -12.8290    3.2820 C   0  0  0  0  0  0  0  0  0  0  0  0
   -2.7340  -13.4720    2.9120 C   0  0  0  0  0  0  0  0  0  0  0  0
   -3.6890  -12.3820    2.4320 N   0  0  0  0  0  0  0  0  0  0  0  0
   -5.0030  -12.9360    2.1180 C   0  0  0  0  0  0  0  0  0  0  0  0
   -5.3040  -12.9380    0.9390 O   0  0  0  0  0  0  0  0  0  0  0  0
   -5.9030  -13.4610    3.1650 C   0  0  0  0  0  0  0  0  0  0  0  0
   -5.5880  -14.4130    4.0580 C   0  0  0  0  0  0  0  0  0  0  0  0
   -6.5370  -14.8730    5.0840 C   0  0  0  0  0  0  0  0  0  0  0  0
   -6.4570  -14.4540    6.4160 C   0  0  0  0  0  0  0  0  0  0  0  0
   -7.3970  -14.8920    7.3570 C   0  0  0  0  0  0  0  0  0  0  0  0
   -8.4460  -15.7470    6.9910 C   0  0  0  0  0  0  0  0  0  0  0  0
   -9.4330  -16.2070    7.9820 C   0  0  0  0  0  0  0  0  0  0  0  0
  -10.7180  -15.6420    8.0400 C   0  0  0  0  0  0  0  0  0  0  0  0
  -11.6560  -16.0790    8.9810 C   0  0  0  0  0  0  0  0  0  0  0  0
  -11.3230  -17.0890    9.8800 C   0  0  0  0  0  0  0  0  0  0  0  0
  -10.0550  -17.6630    9.8390 C   0  0  0  0  0  0  0  0  0  0  0  0
   -9.1190  -17.2250    8.8980 C   0  0  0  0  0  0  0  0  0  0  0  0
   -8.5270  -16.1500    5.6500 C   0  0  0  0  0  0  0  0  0  0  0  0
   -7.5890  -15.7140    4.7060 C   0  0  0  0  0  0  0  0  0  0  0  0
   -3.1220  -11.6370    1.2370 C   0  0  0  0  0  0  0  0  0  0  0  0
   -1.7590  -11.0090    1.6060 C   0  0  0  0  0  0  0  0  0  0  0  0
    1.1620  -11.6770    0.7920 C   0  0  0  0  0  0  0  0  0  0  0  0
    1.1320  -10.3520    1.0120 F   0  0  0  0  0  0  0  0  0  0  0  0
    2.2100  -12.1730    0.0100 C   0  0  0  0  0  0  0  0  0  0  0  0
    3.3020  -14.6060   -2.3010 C   0  0  0  0  0  0  0  0  0  0  0  0
    2.3040  -14.8100   -2.9730 O   0  0  0  0  0  0  0  0  0  0  0  0
    4.5520  -14.9410   -2.7580 O   0  0  0  0  0  0  0  0  0  0  0  0
    3.0218  -11.2498   -5.3835 H   0  0  0  0  0  0  0  0  0  0  0  0
    4.6681  -10.7919   -5.9372 H   0  0  0  0  0  0  0  0  0  0  0  0
    4.1680  -12.5172   -5.9372 H   0  0  0  0  0  0  0  0  0  0  0  0
    5.7220  -13.3170   -4.6430 H   0  0  0  0  0  0  0  0  0  0  0  0
    7.1667  -13.2126   -2.7190 H   0  0  0  0  0  0  0  0  0  0  0  0
    5.8634  -12.2249   -1.8882 H   0  0  0  0  0  0  0  0  0  0  0  0
    6.4129  -14.9374   -1.6913 H   0  0  0  0  0  0  0  0  0  0  0  0
    4.9273  -14.9179    0.1031 H   0  0  0  0  0  0  0  0  0  0  0  0
    5.0835  -13.1822   -0.0784 H   0  0  0  0  0  0  0  0  0  0  0  0
    1.4481  -15.4689    0.1737 H   0  0  0  0  0  0  0  0  0  0  0  0
   -0.4021  -14.5751    1.5558 H   0  0  0  0  0  0  0  0  0  0  0  0
   -0.6604  -13.6209    3.5315 H   0  0  0  0  0  0  0  0  0  0  0  0
   -1.5281  -12.1642    4.1461 H   0  0  0  0  0  0  0  0  0  0  0  0
   -2.5841  -14.2100    2.1102 H   0  0  0  0  0  0  0  0  0  0  0  0
   -3.1586  -13.9762    3.7926 H   0  0  0  0  0  0  0  0  0  0  0  0
   -3.8030  -11.7330    3.2110 H   0  0  0  0  0  0  0  0  0  0  0  0
   -6.9164  -13.0364    3.2176 H   0  0  0  0  0  0  0  0  0  0  0  0
   -4.5857  -14.8647    4.0212 H   0  0  0  0  0  0  0  0  0  0  0  0
   -5.6493  -13.7750    6.7269 H   0  0  0  0  0  0  0  0  0  0  0  0
   -7.3108  -14.5593    8.4019 H   0  0  0  0  0  0  0  0  0  0  0  0
  -10.9907  -14.8435    7.3343 H   0  0  0  0  0  0  0  0  0  0  0  0
  -12.6573  -15.6246    9.0109 H   0  0  0  0  0  0  0  0  0  0  0  0
  -12.0600  -17.4326   10.6208 H   0  0  0  0  0  0  0  0  0  0  0  0
   -9.7899  -18.4615   10.5475 H   0  0  0  0  0  0  0  0  0  0  0  0
   -8.1200  -17.6849    8.8742 H   0  0  0  0  0  0  0  0  0  0  0  0
   -9.3407  -16.8196    5.3346 H   0  0  0  0  0  0  0  0  0  0  0  0
   -7.6802  -16.0357    3.6580 H   0  0  0  0  0  0  0  0  0  0  0  0
   -2.9857  -12.3388    0.4010 H   0  0  0  0  0  0  0  0  0  0  0  0
   -3.8202  -10.8394    0.9433 H   0  0  0  0  0  0  0  0  0  0  0  0
   -1.3036  -10.5717    0.7052 H   0  0  0  0  0  0  0  0  0  0  0  0
   -1.9152  -10.2261    2.3627 H   0  0  0  0  0  0  0  0  0  0  0  0
    2.9424  -11.4750   -0.4218 H   0  0  0  0  0  0  0  0  0  0  0  0
  1  2  1  0
  2  3  2  0
  2  4  1  0
  4  5  1  0
  5  6  1  0
  6  7  1  0
  7  8  1  0
  8  9  1  0
  9 10  2  0
 10 11  1  0
 11 12  2  0
 12 13  1  0
 13 14  1  0
 14 15  1  0
 15 16  1  0
 16 17  1  0
 17 18  2  0
 17 19  1  0
 19 20  2  0
 20 21  1  0
 21 22  2  0
 22 23  1  0
 23 24  2  0
 24 25  1  0
 25 26  2  0
 26 27  1  0
 27 28  2  0
 28 29  1  0
 29 30  2  0
 24 31  1  0
 31 32  2  0
 16 33  1  0
 33 34  1  0
 12 35  1  0
 35 36  1  0
 35 37  2  0
  8 38  1  0
 38 39  2  0
 38 40  1  0
 40  6  1  0
 37  9  1  0
 34 13  1  0
 32 21  1  0
 30 25  1  0
  1 41  1  0
  1 42  1  0
  1 43  1  0
  4 44  1  0
  5 45  1  0
  5 46  1  0
  6 47  1  1
  7 48  1  0
  7 49  1  0
 10 50  1  0
 11 51  1  0
 14 52  1  0
 14 53  1  0
 15 54  1  0
 15 55  1  0
 16 56  1  0
 19 57  1  0
 20 58  1  0
 22 59  1  0
 23 60  1  0
 26 61  1  0
 27 62  1  0
 28 63  1  0
 29 64  1  0
 30 65  1  0
 31 66  1  0
 32 67  1  0
 33 68  1  0
 33 69  1  0
 34 70  1  0
 34 71  1  0
 37 72  1  0
M  CHG  1  16   1
M  END
>  <meeko>  (5) 
{"is_sidechain": [false], "free_energy": -8.68, "intermolecular_energy": -13.126, "internal_energy": -0.966}

$$$$
LIB_NPPRRBNKXJEVHF__M_PUB_ALL__e8__s20260927
     RDKit          3D

 72 76  0  0  0  0  0  0  0  0999 V2000
   12.1340  -11.7070   -0.4550 C   0  0  0  0  0  0  0  0  0  0  0  0
   10.8510  -12.2120    0.1450 C   0  0  0  0  0  0  0  0  0  0  0  0
   10.7500  -12.5160    1.3290 O   0  0  0  0  0  0  0  0  0  0  0  0
    9.8000  -12.2510   -0.7410 N   0  0  0  0  0  0  0  0  0  0  0  0
    8.4680  -12.6920   -0.3610 C   0  0  0  0  0  0  0  0  0  0  0  0
    7.3430  -11.7090   -0.7290 C   0  0  1  0  0  0  0  0  0  0  0  0
    6.0180  -12.3470   -1.0810 C   0  0  0  0  0  0  0  0  0  0  0  0
    5.2860  -12.2830    0.1510 N   0  0  0  0  0  0  0  0  0  0  0  0
    4.1060  -13.0270    0.4030 C   0  0  0  0  0  0  0  0  0  0  0  0
    2.8320  -12.4790    0.2270 C   0  0  0  0  0  0  0  0  0  0  0  0
    1.6680  -13.2220    0.4910 C   0  0  0  0  0  0  0  0  0  0  0  0
    1.7220  -14.5460    0.9400 C   0  0  0  0  0  0  0  0  0  0  0  0
    0.5500  -15.2490    1.1980 N   0  0  0  0  0  0  0  0  0  0  0  0
   -0.5510  -15.2670    0.2220 C   0  0  0  0  0  0  0  0  0  0  0  0
   -1.7050  -14.3600    0.6950 C   0  0  0  0  0  0  0  0  0  0  0  0
   -2.1220  -14.7800    2.1030 N   0  0  0  0  0  0  0  0  0  0  0  0
   -3.2500  -13.9820    2.5770 C   0  0  0  0  0  0  0  0  0  0  0  0
   -3.2220  -12.8030    2.2780 O   0  0  0  0  0  0  0  0  0  0  0  0
   -4.3510  -14.5730    3.3650 C   0  0  0  0  0  0  0  0  0  0  0  0
   -5.4080  -13.9030    3.8500 C   0  0  0  0  0  0  0  0  0  0  0  0
   -6.4760  -14.5670    4.6150 C   0  0  0  0  0  0  0  0  0  0  0  0
   -7.4510  -15.3610    4.0000 C   0  0  0  0  0  0  0  0  0  0  0  0
   -8.4330  -15.9990    4.7660 C   0  0  0  0  0  0  0  0  0  0  0  0
   -8.4610  -15.8740    6.1620 C   0  0  0  0  0  0  0  0  0  0  0  0
   -9.4960  -16.5460    6.9650 C   0  0  0  0  0  0  0  0  0  0  0  0
   -9.8190  -16.0930    8.2550 C   0  0  0  0  0  0  0  0  0  0  0  0
  -10.8030  -16.7310    9.0180 C   0  0  0  0  0  0  0  0  0  0  0  0
  -11.4800  -17.8330    8.5030 C   0  0  0  0  0  0  0  0  0  0  0  0
  -11.1750  -18.2980    7.2260 C   0  0  0  0  0  0  0  0  0  0  0  0
  -10.1920  -17.6600    6.4650 C   0  0  0  0  0  0  0  0  0  0  0  0
   -7.4710  -15.0890    6.7700 C   0  0  0  0  0  0  0  0  0  0  0  0
   -6.4860  -14.4480    6.0080 C   0  0  0  0  0  0  0  0  0  0  0  0
   -0.9580  -14.6920    3.0740 C   0  0  0  0  0  0  0  0  0  0  0  0
    0.2040  -15.5870    2.5870 C   0  0  0  0  0  0  0  0  0  0  0  0
    3.0100  -15.0790    1.1150 C   0  0  0  0  0  0  0  0  0  0  0  0
    3.1600  -16.3550    1.5040 F   0  0  0  0  0  0  0  0  0  0  0  0
    4.1740  -14.3480    0.8550 C   0  0  0  0  0  0  0  0  0  0  0  0
    5.8970  -11.3560    0.9870 C   0  0  0  0  0  0  0  0  0  0  0  0
    5.5390  -10.9690    2.0870 O   0  0  0  0  0  0  0  0  0  0  0  0
    7.0390  -10.8740    0.3950 O   0  0  0  0  0  0  0  0  0  0  0  0
   12.8319  -11.4323    0.3497 H   0  0  0  0  0  0  0  0  0  0  0  0
   12.5833  -12.4954   -1.0768 H   0  0  0  0  0  0  0  0  0  0  0  0
   11.9254  -10.8239   -1.0768 H   0  0  0  0  0  0  0  0  0  0  0  0
    9.9440  -11.9410   -1.6950 H   0  0  0  0  0  0  0  0  0  0  0  0
    8.2662  -13.6494   -0.8638 H   0  0  0  0  0  0  0  0  0  0  0  0
    8.4660  -12.7744    0.7359 H   0  0  0  0  0  0  0  0  0  0  0  0
    7.7396  -11.1782   -1.6071 H   0  0  0  0  0  0  0  0  0  0  0  0
    5.5062  -11.7817   -1.8738 H   0  0  0  0  0  0  0  0  0  0  0  0
    6.1218  -13.3712   -1.4685 H   0  0  0  0  0  0  0  0  0  0  0  0
    2.7380  -11.4416   -0.1265 H   0  0  0  0  0  0  0  0  0  0  0  0
    0.6865  -12.7487    0.3402 H   0  0  0  0  0  0  0  0  0  0  0  0
   -0.1806  -14.9055   -0.7486 H   0  0  0  0  0  0  0  0  0  0  0  0
   -0.9243  -16.2972    0.1248 H   0  0  0  0  0  0  0  0  0  0  0  0
   -1.3698  -13.3124    0.7067 H   0  0  0  0  0  0  0  0  0  0  0  0
   -2.5597  -14.4578    0.0094 H   0  0  0  0  0  0  0  0  0  0  0  0
   -2.4330  -15.7490    2.0370 H   0  0  0  0  0  0  0  0  0  0  0  0
   -4.3003  -15.6523    3.5715 H   0  0  0  0  0  0  0  0  0  0  0  0
   -5.4786  -12.8202    3.6696 H   0  0  0  0  0  0  0  0  0  0  0  0
   -7.4452  -15.4843    2.9069 H   0  0  0  0  0  0  0  0  0  0  0  0
   -9.1972  -16.6100    4.2634 H   0  0  0  0  0  0  0  0  0  0  0  0
   -9.2900  -15.2232    8.6717 H   0  0  0  0  0  0  0  0  0  0  0  0
  -11.0420  -16.3614   10.0261 H   0  0  0  0  0  0  0  0  0  0  0  0
  -12.2535  -18.3350    9.1028 H   0  0  0  0  0  0  0  0  0  0  0  0
  -11.7085  -19.1683    6.8162 H   0  0  0  0  0  0  0  0  0  0  0  0
   -9.9590  -18.0359    5.4578 H   0  0  0  0  0  0  0  0  0  0  0  0
   -7.4679  -14.9746    7.8640 H   0  0  0  0  0  0  0  0  0  0  0  0
   -5.7140  -13.8460    6.5096 H   0  0  0  0  0  0  0  0  0  0  0  0
   -0.6134  -13.6492    3.1364 H   0  0  0  0  0  0  0  0  0  0  0  0
   -1.2877  -15.0354    4.0657 H   0  0  0  0  0  0  0  0  0  0  0  0
    1.0817  -15.4270    3.2305 H   0  0  0  0  0  0  0  0  0  0  0  0
   -0.1066  -16.6411    2.6359 H   0  0  0  0  0  0  0  0  0  0  0  0
    5.1561  -14.8191    1.0083 H   0  0  0  0  0  0  0  0  0  0  0  0
  1  2  1  0
  2  3  2  0
  2  4  1  0
  4  5  1  0
  5  6  1  0
  6  7  1  0
  7  8  1  0
  8  9  1  0
  9 10  2  0
 10 11  1  0
 11 12  2  0
 12 13  1  0
 13 14  1  0
 14 15  1  0
 15 16  1  0
 16 17  1  0
 17 18  2  0
 17 19  1  0
 19 20  2  0
 20 21  1  0
 21 22  2  0
 22 23  1  0
 23 24  2  0
 24 25  1  0
 25 26  2  0
 26 27  1  0
 27 28  2  0
 28 29  1  0
 29 30  2  0
 24 31  1  0
 31 32  2  0
 16 33  1  0
 33 34  1  0
 12 35  1  0
 35 36  1  0
 35 37  2  0
  8 38  1  0
 38 39  2  0
 38 40  1  0
 40  6  1  0
 37  9  1  0
 34 13  1  0
 32 21  1  0
 30 25  1  0
  1 41  1  0
  1 42  1  0
  1 43  1  0
  4 44  1  0
  5 45  1  0
  5 46  1  0
  6 47  1  6
  7 48  1  0
  7 49  1  0
 10 50  1  0
 11 51  1  0
 14 52  1  0
 14 53  1  0
 15 54  1  0
 15 55  1  0
 16 56  1  0
 19 57  1  0
 20 58  1  0
 22 59  1  0
 23 60  1  0
 26 61  1  0
 27 62  1  0
 28 63  1  0
 29 64  1  0
 30 65  1  0
 31 66  1  0
 32 67  1  0
 33 68  1  0
 33 69  1  0
 34 70  1  0
 34 71  1  0
 37 72  1  0
M  CHG  1  16   1
M  END
>  <meeko>  (6) 
{"is_sidechain": [false], "free_energy": -8.659, "intermolecular_energy": -12.846, "internal_energy": -1.216}

$$$$
LIB_NPPRRBNKXJEVHF__M_PUB_ALL__e8__s20260927
     RDKit          3D

 72 76  0  0  0  0  0  0  0  0999 V2000
    6.8400  -10.5450   -1.4160 C   0  0  0  0  0  0  0  0  0  0  0  0
    6.8250  -11.4950   -2.5830 C   0  0  0  0  0  0  0  0  0  0  0  0
    7.7860  -12.2000   -2.8720 O   0  0  0  0  0  0  0  0  0  0  0  0
    5.6250  -11.5330   -3.2530 N   0  0  0  0  0  0  0  0  0  0  0  0
    5.3940  -12.3960   -4.4000 C   0  0  0  0  0  0  0  0  0  0  0  0
    4.6680  -13.7120   -4.0710 C   0  0  1  0  0  0  0  0  0  0  0  0
    4.1180  -13.8110   -2.6650 C   0  0  0  0  0  0  0  0  0  0  0  0
    2.7460  -13.4220   -2.8220 N   0  0  0  0  0  0  0  0  0  0  0  0
    1.9020  -13.0660   -1.7400 C   0  0  0  0  0  0  0  0  0  0  0  0
    1.0190  -13.9800   -1.1580 C   0  0  0  0  0  0  0  0  0  0  0  0
    0.1780  -13.6160   -0.0920 C   0  0  0  0  0  0  0  0  0  0  0  0
    0.1810  -12.3230    0.4420 C   0  0  0  0  0  0  0  0  0  0  0  0
   -0.6700  -11.9940    1.4920 N   0  0  0  0  0  0  0  0  0  0  0  0
   -0.8990  -12.9330    2.6020 C   0  0  0  0  0  0  0  0  0  0  0  0
   -2.2900  -13.5860    2.4760 C   0  0  0  0  0  0  0  0  0  0  0  0
   -3.3470  -12.4890    2.3680 N   0  0  0  0  0  0  0  0  0  0  0  0
   -4.6900  -13.0590    2.2990 C   0  0  0  0  0  0  0  0  0  0  0  0
   -5.3230  -12.7900    1.2960 O   0  0  0  0  0  0  0  0  0  0  0  0
   -5.2380  -13.9070    3.3770 C   0  0  0  0  0  0  0  0  0  0  0  0
   -6.2620  -13.5810    4.1810 C   0  0  0  0  0  0  0  0  0  0  0  0
   -6.7610  -14.4900    5.2260 C   0  0  0  0  0  0  0  0  0  0  0  0
   -7.5340  -15.6180    4.9260 C   0  0  0  0  0  0  0  0  0  0  0  0
   -7.9660  -16.4740    5.9460 C   0  0  0  0  0  0  0  0  0  0  0  0
   -7.6290  -16.2360    7.2860 C   0  0  0  0  0  0  0  0  0  0  0  0
   -8.0860  -17.1370    8.3560 C   0  0  0  0  0  0  0  0  0  0  0  0
   -9.2710  -17.8800    8.2210 C   0  0  0  0  0  0  0  0  0  0  0  0
   -9.7050  -18.7370    9.2370 C   0  0  0  0  0  0  0  0  0  0  0  0
   -8.9600  -18.8670   10.4060 C   0  0  0  0  0  0  0  0  0  0  0  0
   -7.7820  -18.1410   10.5600 C   0  0  0  0  0  0  0  0  0  0  0  0
   -7.3500  -17.2840    9.5440 C   0  0  0  0  0  0  0  0  0  0  0  0
   -6.8410  -15.1120    7.5740 C   0  0  0  0  0  0  0  0  0  0  0  0
   -6.4070  -14.2520    6.5570 C   0  0  0  0  0  0  0  0  0  0  0  0
   -3.0870  -11.5860    1.1770 C   0  0  0  0  0  0  0  0  0  0  0  0
   -1.6850  -10.9470    1.2960 C   0  0  0  0  0  0  0  0  0  0  0  0
    1.0710  -11.4160   -0.1580 C   0  0  0  0  0  0  0  0  0  0  0  0
    1.1720  -10.1630    0.3150 F   0  0  0  0  0  0  0  0  0  0  0  0
    1.9130  -11.7700   -1.2180 C   0  0  0  0  0  0  0  0  0  0  0  0
    2.4080  -13.5080   -4.1670 C   0  0  0  0  0  0  0  0  0  0  0  0
    1.3220  -13.3270   -4.6930 O   0  0  0  0  0  0  0  0  0  0  0  0
    3.5120  -13.8530   -4.9060 O   0  0  0  0  0  0  0  0  0  0  0  0
    6.8310  -11.1177   -0.4769 H   0  0  0  0  0  0  0  0  0  0  0  0
    7.7480   -9.9256   -1.4590 H   0  0  0  0  0  0  0  0  0  0  0  0
    5.9520   -9.8973   -1.4590 H   0  0  0  0  0  0  0  0  0  0  0  0
    4.8570  -10.9560   -2.9300 H   0  0  0  0  0  0  0  0  0  0  0  0
    4.7866  -11.8416   -5.1305 H   0  0  0  0  0  0  0  0  0  0  0  0
    6.3852  -12.6735   -4.7880 H   0  0  0  0  0  0  0  0  0  0  0  0
    5.4426  -14.4790   -4.2182 H   0  0  0  0  0  0  0  0  0  0  0  0
    4.1952  -14.8395   -2.2827 H   0  0  0  0  0  0  0  0  0  0  0  0
    4.6639  -13.1859   -1.9430 H   0  0  0  0  0  0  0  0  0  0  0  0
    0.9813  -15.0095   -1.5436 H   0  0  0  0  0  0  0  0  0  0  0  0
   -0.5014  -14.3689    0.3341 H   0  0  0  0  0  0  0  0  0  0  0  0
   -0.1274  -13.7166    2.5787 H   0  0  0  0  0  0  0  0  0  0  0  0
   -0.8490  -12.3810    3.5521 H   0  0  0  0  0  0  0  0  0  0  0  0
   -2.3207  -14.2175    1.5758 H   0  0  0  0  0  0  0  0  0  0  0  0
   -2.4897  -14.2083    3.3608 H   0  0  0  0  0  0  0  0  0  0  0  0
   -3.2860  -11.9420    3.2260 H   0  0  0  0  0  0  0  0  0  0  0  0
   -4.7671  -14.8886    3.5342 H   0  0  0  0  0  0  0  0  0  0  0  0
   -6.7451  -12.6008    4.0548 H   0  0  0  0  0  0  0  0  0  0  0  0
   -7.8038  -15.8332    3.8815 H   0  0  0  0  0  0  0  0  0  0  0  0
   -8.5813  -17.3496    5.6915 H   0  0  0  0  0  0  0  0  0  0  0  0
   -9.8668  -17.7859    7.3012 H   0  0  0  0  0  0  0  0  0  0  0  0
  -10.6362  -19.3092    9.1126 H   0  0  0  0  0  0  0  0  0  0  0  0
   -9.3010  -19.5412   11.2054 H   0  0  0  0  0  0  0  0  0  0  0  0
   -7.1908  -18.2420   11.4821 H   0  0  0  0  0  0  0  0  0  0  0  0
   -6.4180  -16.7149    9.6766 H   0  0  0  0  0  0  0  0  0  0  0  0
   -6.5590  -14.9022    8.6163 H   0  0  0  0  0  0  0  0  0  0  0  0
   -5.7823  -13.3821    6.8080 H   0  0  0  0  0  0  0  0  0  0  0  0
   -3.1402  -12.1786    0.2518 H   0  0  0  0  0  0  0  0  0  0  0  0
   -3.8463  -10.7904    1.1538 H   0  0  0  0  0  0  0  0  0  0  0  0
   -1.4596  -10.3889    0.3753 H   0  0  0  0  0  0  0  0  0  0  0  0
   -1.6712  -10.2646    2.1586 H   0  0  0  0  0  0  0  0  0  0  0  0
    2.5924  -11.0182   -1.6459 H   0  0  0  0  0  0  0  0  0  0  0  0
  1  2  1  0
  2  3  2  0
  2  4  1  0
  4  5  1  0
  5  6  1  0
  6  7  1  0
  7  8  1  0
  8  9  1  0
  9 10  2  0
 10 11  1  0
 11 12  2  0
 12 13  1  0
 13 14  1  0
 14 15  1  0
 15 16  1  0
 16 17  1  0
 17 18  2  0
 17 19  1  0
 19 20  2  0
 20 21  1  0
 21 22  2  0
 22 23  1  0
 23 24  2  0
 24 25  1  0
 25 26  2  0
 26 27  1  0
 27 28  2  0
 28 29  1  0
 29 30  2  0
 24 31  1  0
 31 32  2  0
 16 33  1  0
 33 34  1  0
 12 35  1  0
 35 36  1  0
 35 37  2  0
  8 38  1  0
 38 39  2  0
 38 40  1  0
 40  6  1  0
 37  9  1  0
 34 13  1  0
 32 21  1  0
 30 25  1  0
  1 41  1  0
  1 42  1  0
  1 43  1  0
  4 44  1  0
  5 45  1  0
  5 46  1  0
  6 47  1  6
  7 48  1  0
  7 49  1  0
 10 50  1  0
 11 51  1  0
 14 52  1  0
 14 53  1  0
 15 54  1  0
 15 55  1  0
 16 56  1  0
 19 57  1  0
 20 58  1  0
 22 59  1  0
 23 60  1  0
 26 61  1  0
 27 62  1  0
 28 63  1  0
 29 64  1  0
 30 65  1  0
 31 66  1  0
 32 67  1  0
 33 68  1  0
 33 69  1  0
 34 70  1  0
 34 71  1  0
 37 72  1  0
M  CHG  1  16   1
M  END
>  <meeko>  (7) 
{"is_sidechain": [false], "free_energy": -8.65, "intermolecular_energy": -12.726, "internal_energy": -1.323}

$$$$
LIB_NPPRRBNKXJEVHF__M_PUB_ALL__e8__s20260927
     RDKit          3D

 72 76  0  0  0  0  0  0  0  0999 V2000
   -1.5590  -10.4080    3.3080 C   0  0  0  0  0  0  0  0  0  0  0  0
   -1.2810  -11.1840    2.0500 C   0  0  0  0  0  0  0  0  0  0  0  0
   -2.0150  -11.1350    1.0690 O   0  0  0  0  0  0  0  0  0  0  0  0
   -0.1100  -11.9030    2.0870 N   0  0  0  0  0  0  0  0  0  0  0  0
    0.3540  -12.7080    0.9690 C   0  0  0  0  0  0  0  0  0  0  0  0
    0.0860  -14.2150    1.1150 C   0  0  1  0  0  0  0  0  0  0  0  0
   -0.7060  -14.6140    2.3400 C   0  0  0  0  0  0  0  0  0  0  0  0
   -2.0490  -14.7100    1.8450 N   0  0  0  0  0  0  0  0  0  0  0  0
   -3.1930  -14.7590    2.6820 C   0  0  0  0  0  0  0  0  0  0  0  0
   -3.4660  -15.8580    3.5000 C   0  0  0  0  0  0  0  0  0  0  0  0
   -4.6080  -15.9020    4.3180 C   0  0  0  0  0  0  0  0  0  0  0  0
   -5.5300  -14.8500    4.3570 C   0  0  0  0  0  0  0  0  0  0  0  0
   -6.6540  -14.9300    5.1730 N   0  0  0  0  0  0  0  0  0  0  0  0
   -6.7290  -14.1740    6.4330 C   0  0  0  0  0  0  0  0  0  0  0  0
   -6.5330  -15.1150    7.6380 C   0  0  0  0  0  0  0  0  0  0  0  0
   -7.5390  -16.2600    7.5450 N   0  0  0  0  0  0  0  0  0  0  0  0
   -7.4270  -17.1530    8.6950 C   0  0  0  0  0  0  0  0  0  0  0  0
   -6.6160  -16.8230    9.5390 O   0  0  0  0  0  0  0  0  0  0  0  0
   -8.2480  -18.3750    8.8210 C   0  0  0  0  0  0  0  0  0  0  0  0
   -8.0980  -19.3210    9.7610 C   0  0  0  0  0  0  0  0  0  0  0  0
   -8.9680  -20.5050    9.8300 C   0  0  0  0  0  0  0  0  0  0  0  0
   -9.8240  -20.8640    8.7830 C   0  0  0  0  0  0  0  0  0  0  0  0
  -10.6160  -22.0140    8.8750 C   0  0  0  0  0  0  0  0  0  0  0  0
  -10.5650  -22.8430   10.0060 C   0  0  0  0  0  0  0  0  0  0  0  0
  -11.3990  -24.0520   10.1000 C   0  0  0  0  0  0  0  0  0  0  0  0
  -11.6610  -24.6560   11.3420 C   0  0  0  0  0  0  0  0  0  0  0  0
  -12.4540  -25.8040   11.4320 C   0  0  0  0  0  0  0  0  0  0  0  0
  -12.9990  -26.3680   10.2820 C   0  0  0  0  0  0  0  0  0  0  0  0
  -12.7520  -25.7860    9.0420 C   0  0  0  0  0  0  0  0  0  0  0  0
  -11.9590  -24.6380    8.9530 C   0  0  0  0  0  0  0  0  0  0  0  0
   -9.6920  -22.4840   11.0430 C   0  0  0  0  0  0  0  0  0  0  0  0
   -8.8980  -21.3330   10.9550 C   0  0  0  0  0  0  0  0  0  0  0  0
   -7.3780  -17.0330    6.2480 C   0  0  0  0  0  0  0  0  0  0  0  0
   -7.5570  -16.0830    5.0420 C   0  0  0  0  0  0  0  0  0  0  0  0
   -5.2420  -13.7550    3.5250 C   0  0  0  0  0  0  0  0  0  0  0  0
   -6.0490  -12.6810    3.5270 F   0  0  0  0  0  0  0  0  0  0  0  0
   -4.1070  -13.7020    2.7090 C   0  0  0  0  0  0  0  0  0  0  0  0
   -2.0100  -14.7960    0.4590 C   0  0  0  0  0  0  0  0  0  0  0  0
   -2.9340  -14.9580   -0.3210 O   0  0  0  0  0  0  0  0  0  0  0  0
   -0.7150  -14.6760    0.0190 O   0  0  0  0  0  0  0  0  0  0  0  0
   -1.3342  -11.0355    4.1831 H   0  0  0  0  0  0  0  0  0  0  0  0
   -0.9275   -9.5076    3.3305 H   0  0  0  0  0  0  0  0  0  0  0  0
   -2.6186  -10.1134    3.3305 H   0  0  0  0  0  0  0  0  0  0  0  0
    0.4730  -11.8610    2.9160 H   0  0  0  0  0  0  0  0  0  0  0  0
   -0.1521  -12.3555    0.0582 H   0  0  0  0  0  0  0  0  0  0  0  0
    1.4465  -12.5867    0.9277 H   0  0  0  0  0  0  0  0  0  0  0  0
    1.0936  -14.6529    1.1698 H   0  0  0  0  0  0  0  0  0  0  0  0
   -0.3611  -15.5810    2.7350 H   0  0  0  0  0  0  0  0  0  0  0  0
   -0.6026  -13.9014    3.1715 H   0  0  0  0  0  0  0  0  0  0  0  0
   -2.7701  -16.7099    3.5040 H   0  0  0  0  0  0  0  0  0  0  0  0
   -4.7820  -16.7886    4.9454 H   0  0  0  0  0  0  0  0  0  0  0  0
   -5.9420  -13.4055    6.4417 H   0  0  0  0  0  0  0  0  0  0  0  0
   -7.7198  -13.7020    6.5069 H   0  0  0  0  0  0  0  0  0  0  0  0
   -5.5106  -15.5208    7.6263 H   0  0  0  0  0  0  0  0  0  0  0  0
   -6.6902  -14.5579    8.5734 H   0  0  0  0  0  0  0  0  0  0  0  0
   -8.4650  -15.8350    7.5710 H   0  0  0  0  0  0  0  0  0  0  0  0
   -9.0496  -18.5217    8.0821 H   0  0  0  0  0  0  0  0  0  0  0  0
   -7.2966  -19.2070   10.5058 H   0  0  0  0  0  0  0  0  0  0  0  0
   -9.8748  -20.2373    7.8804 H   0  0  0  0  0  0  0  0  0  0  0  0
  -11.2908  -22.2728    8.0457 H   0  0  0  0  0  0  0  0  0  0  0  0
  -11.2355  -24.2187   12.2573 H   0  0  0  0  0  0  0  0  0  0  0  0
  -12.6475  -26.2622   12.4131 H   0  0  0  0  0  0  0  0  0  0  0  0
  -13.6231  -27.2710   10.3530 H   0  0  0  0  0  0  0  0  0  0  0  0
  -13.1810  -26.2296    8.1314 H   0  0  0  0  0  0  0  0  0  0  0  0
  -11.7705  -24.1861    7.9680 H   0  0  0  0  0  0  0  0  0  0  0  0
   -9.6295  -23.1167   11.9407 H   0  0  0  0  0  0  0  0  0  0  0  0
   -8.2137  -21.0784   11.7777 H   0  0  0  0  0  0  0  0  0  0  0  0
   -6.3741  -17.4812    6.2130 H   0  0  0  0  0  0  0  0  0  0  0  0
   -8.1410  -17.8240    6.2015 H   0  0  0  0  0  0  0  0  0  0  0  0
   -7.3239  -16.6248    4.1135 H   0  0  0  0  0  0  0  0  0  0  0  0
   -8.5972  -15.7262    5.0141 H   0  0  0  0  0  0  0  0  0  0  0  0
   -3.9315  -12.8166    2.0802 H   0  0  0  0  0  0  0  0  0  0  0  0
  1  2  1  0
  2  3  2  0
  2  4  1  0
  4  5  1  0
  5  6  1  0
  6  7  1  0
  7  8  1  0
  8  9  1  0
  9 10  2  0
 10 11  1  0
 11 12  2  0
 12 13  1  0
 13 14  1  0
 14 15  1  0
 15 16  1  0
 16 17  1  0
 17 18  2  0
 17 19  1  0
 19 20  2  0
 20 21  1  0
 21 22  2  0
 22 23  1  0
 23 24  2  0
 24 25  1  0
 25 26  2  0
 26 27  1  0
 27 28  2  0
 28 29  1  0
 29 30  2  0
 24 31  1  0
 31 32  2  0
 16 33  1  0
 33 34  1  0
 12 35  1  0
 35 36  1  0
 35 37  2  0
  8 38  1  0
 38 39  2  0
 38 40  1  0
 40  6  1  0
 37  9  1  0
 34 13  1  0
 32 21  1  0
 30 25  1  0
  1 41  1  0
  1 42  1  0
  1 43  1  0
  4 44  1  0
  5 45  1  0
  5 46  1  0
  6 47  1  1
  7 48  1  0
  7 49  1  0
 10 50  1  0
 11 51  1  0
 14 52  1  0
 14 53  1  0
 15 54  1  0
 15 55  1  0
 16 56  1  0
 19 57  1  0
 20 58  1  0
 22 59  1  0
 23 60  1  0
 26 61  1  0
 27 62  1  0
 28 63  1  0
 29 64  1  0
 30 65  1  0
 31 66  1  0
 32 67  1  0
 33 68  1  0
 33 69  1  0
 34 70  1  0
 34 71  1  0
 37 72  1  0
M  CHG  1  16   1
M  END
>  <meeko>  (8) 
{"is_sidechain": [false], "free_energy": -8.521, "intermolecular_energy": -12.232, "internal_energy": -1.627}

$$$$
LIB_NPPRRBNKXJEVHF__M_PUB_ALL__e8__s20260927
     RDKit          3D

 72 76  0  0  0  0  0  0  0  0999 V2000
    6.7080  -13.7110  -11.4470 C   0  0  0  0  0  0  0  0  0  0  0  0
    8.0470  -13.6860  -10.7610 C   0  0  0  0  0  0  0  0  0  0  0  0
    8.6440  -12.6420  -10.5190 O   0  0  0  0  0  0  0  0  0  0  0  0
    8.5050  -14.9270  -10.3900 N   0  0  0  0  0  0  0  0  0  0  0  0
    9.7700  -15.1240   -9.7000 C   0  0  0  0  0  0  0  0  0  0  0  0
    9.6470  -15.8100   -8.3290 C   0  0  1  0  0  0  0  0  0  0  0  0
    8.9650  -14.9910   -7.2560 C   0  0  0  0  0  0  0  0  0  0  0  0
    7.6090  -15.4610   -7.2980 N   0  0  0  0  0  0  0  0  0  0  0  0
    6.5240  -14.7810   -6.6890 C   0  0  0  0  0  0  0  0  0  0  0  0
    5.8820  -15.2800   -5.5520 C   0  0  0  0  0  0  0  0  0  0  0  0
    4.8000  -14.6050   -4.9620 C   0  0  0  0  0  0  0  0  0  0  0  0
    4.3100  -13.4000   -5.4780 C   0  0  0  0  0  0  0  0  0  0  0  0
    3.2320  -12.7620   -4.8730 N   0  0  0  0  0  0  0  0  0  0  0  0
    3.3710  -11.4070   -4.3150 C   0  0  0  0  0  0  0  0  0  0  0  0
    3.4260  -11.4630   -2.7750 C   0  0  0  0  0  0  0  0  0  0  0  0
    2.2040  -12.2200   -2.2590 N   0  0  0  0  0  0  0  0  0  0  0  0
    2.1840  -12.2540   -0.8000 C   0  0  0  0  0  0  0  0  0  0  0  0
    3.2320  -11.9670   -0.2530 O   0  0  0  0  0  0  0  0  0  0  0  0
    0.9690  -12.6120   -0.0410 C   0  0  0  0  0  0  0  0  0  0  0  0
    0.6860  -13.8300    0.4490 C   0  0  0  0  0  0  0  0  0  0  0  0
   -0.5430  -14.1050    1.2100 C   0  0  0  0  0  0  0  0  0  0  0  0
   -0.9660  -15.4070    1.4990 C   0  0  0  0  0  0  0  0  0  0  0  0
   -2.1260  -15.6270    2.2510 C   0  0  0  0  0  0  0  0  0  0  0  0
   -2.8850  -14.5560    2.7450 C   0  0  0  0  0  0  0  0  0  0  0  0
   -4.1050  -14.7900    3.5360 C   0  0  0  0  0  0  0  0  0  0  0  0
   -4.2440  -15.9430    4.3270 C   0  0  0  0  0  0  0  0  0  0  0  0
   -5.4030  -16.1660    5.0780 C   0  0  0  0  0  0  0  0  0  0  0  0
   -6.4410  -15.2390    5.0510 C   0  0  0  0  0  0  0  0  0  0  0  0
   -6.3230  -14.0900    4.2740 C   0  0  0  0  0  0  0  0  0  0  0  0
   -5.1650  -13.8680    3.5230 C   0  0  0  0  0  0  0  0  0  0  0  0
   -2.4440  -13.2550    2.4640 C   0  0  0  0  0  0  0  0  0  0  0  0
   -1.2850  -13.0310    1.7110 C   0  0  0  0  0  0  0  0  0  0  0  0
    2.1440  -13.6260   -2.8300 C   0  0  0  0  0  0  0  0  0  0  0  0
    2.1070  -13.5670   -4.3730 C   0  0  0  0  0  0  0  0  0  0  0  0
    4.9650  -12.9150   -6.6230 C   0  0  0  0  0  0  0  0  0  0  0  0
    4.5900  -11.7450   -7.1640 F   0  0  0  0  0  0  0  0  0  0  0  0
    6.0430  -13.5800   -7.2170 C   0  0  0  0  0  0  0  0  0  0  0  0
    7.5770  -16.6750   -7.9710 C   0  0  0  0  0  0  0  0  0  0  0  0
    6.6280  -17.4200   -8.1540 O   0  0  0  0  0  0  0  0  0  0  0  0
    8.8290  -16.9820   -8.4440 O   0  0  0  0  0  0  0  0  0  0  0  0
    5.9090  -13.7259  -10.6911 H   0  0  0  0  0  0  0  0  0  0  0  0
    6.6013  -12.8147  -12.0757 H   0  0  0  0  0  0  0  0  0  0  0  0
    6.6348  -14.6107  -12.0757 H   0  0  0  0  0  0  0  0  0  0  0  0
    7.9370  -15.7440  -10.5820 H   0  0  0  0  0  0  0  0  0  0  0  0
   10.4167  -15.7442  -10.3380 H   0  0  0  0  0  0  0  0  0  0  0  0
   10.1845  -14.1223   -9.5132 H   0  0  0  0  0  0  0  0  0  0  0  0
   10.6910  -15.9987   -8.0383 H   0  0  0  0  0  0  0  0  0  0  0  0
    9.4168  -15.1772   -6.2705 H   0  0  0  0  0  0  0  0  0  0  0  0
    9.0514  -13.9068   -7.4201 H   0  0  0  0  0  0  0  0  0  0  0  0
    6.2322  -16.2237   -5.1085 H   0  0  0  0  0  0  0  0  0  0  0  0
    4.3244  -15.0362   -4.0688 H   0  0  0  0  0  0  0  0  0  0  0  0
    4.2978  -10.9520   -4.6945 H   0  0  0  0  0  0  0  0  0  0  0  0
    2.5022  -10.8049   -4.6194 H   0  0  0  0  0  0  0  0  0  0  0  0
    4.3422  -11.9824   -2.4577 H   0  0  0  0  0  0  0  0  0  0  0  0
    3.4291  -10.4416   -2.3667 H   0  0  0  0  0  0  0  0  0  0  0  0
    1.3860  -11.6950   -2.5690 H   0  0  0  0  0  0  0  0  0  0  0  0
    0.2337  -11.8138    0.1382 H   0  0  0  0  0  0  0  0  0  0  0  0
    1.3977  -14.6506    0.2754 H   0  0  0  0  0  0  0  0  0  0  0  0
   -0.3825  -16.2644    1.1324 H   0  0  0  0  0  0  0  0  0  0  0  0
   -2.4480  -16.6582    2.4582 H   0  0  0  0  0  0  0  0  0  0  0  0
   -3.4292  -16.6814    4.3561 H   0  0  0  0  0  0  0  0  0  0  0  0
   -5.4942  -17.0751    5.6906 H   0  0  0  0  0  0  0  0  0  0  0  0
   -7.3521  -15.4139    5.6421 H   0  0  0  0  0  0  0  0  0  0  0  0
   -7.1419  -13.3559    4.2509 H   0  0  0  0  0  0  0  0  0  0  0  0
   -5.0824  -12.9569    2.9122 H   0  0  0  0  0  0  0  0  0  0  0  0
   -3.0182  -12.3960    2.8414 H   0  0  0  0  0  0  0  0  0  0  0  0
   -0.9552  -12.0007    1.5118 H   0  0  0  0  0  0  0  0  0  0  0  0
    3.0328  -14.1884   -2.5079 H   0  0  0  0  0  0  0  0  0  0  0  0
    1.2345  -14.1259   -2.4653 H   0  0  0  0  0  0  0  0  0  0  0  0
    2.1804  -14.5869   -4.7784 H   0  0  0  0  0  0  0  0  0  0  0  0
    1.1617  -13.1050   -4.6940 H   0  0  0  0  0  0  0  0  0  0  0  0
    6.5184  -13.1517   -8.1117 H   0  0  0  0  0  0  0  0  0  0  0  0
  1  2  1  0
  2  3  2  0
  2  4  1  0
  4  5  1  0
  5  6  1  0
  6  7  1  0
  7  8  1  0
  8  9  1  0
  9 10  2  0
 10 11  1  0
 11 12  2  0
 12 13  1  0
 13 14  1  0
 14 15  1  0
 15 16  1  0
 16 17  1  0
 17 18  2  0
 17 19  1  0
 19 20  2  0
 20 21  1  0
 21 22  2  0
 22 23  1  0
 23 24  2  0
 24 25  1  0
 25 26  2  0
 26 27  1  0
 27 28  2  0
 28 29  1  0
 29 30  2  0
 24 31  1  0
 31 32  2  0
 16 33  1  0
 33 34  1  0
 12 35  1  0
 35 36  1  0
 35 37  2  0
  8 38  1  0
 38 39  2  0
 38 40  1  0
 40  6  1  0
 37  9  1  0
 34 13  1  0
 32 21  1  0
 30 25  1  0
  1 41  1  0
  1 42  1  0
  1 43  1  0
  4 44  1  0
  5 45  1  0
  5 46  1  0
  6 47  1  1
  7 48  1  0
  7 49  1  0
 10 50  1  0
 11 51  1  0
 14 52  1  0
 14 53  1  0
 15 54  1  0
 15 55  1  0
 16 56  1  0
 19 57  1  0
 20 58  1  0
 22 59  1  0
 23 60  1  0
 26 61  1  0
 27 62  1  0
 28 63  1  0
 29 64  1  0
 30 65  1  0
 31 66  1  0
 32 67  1  0
 33 68  1  0
 33 69  1  0
 34 70  1  0
 34 71  1  0
 37 72  1  0
M  CHG  1  16   1
M  END
>  <meeko>  (9) 
{"is_sidechain": [false], "free_energy": -8.422, "intermolecular_energy": -12.642, "internal_energy": -1.071}

$$$$
