REF_CHEMBL115__W_7USX_LOCAL_COMPLETE__e8__s20260927
     RDKit          3D

 94 98  0  0  0  0  0  0  0  0999 V2000
  135.3370  180.3540  164.5320 C   0  0  0  0  0  0  0  0  0  0  0  0
  134.9860  181.8510  164.4760 C   0  0  0  0  0  0  0  0  0  0  0  0
  135.7610  182.4780  163.3050 C   0  0  0  0  0  0  0  0  0  0  0  0
  135.4120  182.4990  165.8030 C   0  0  0  0  0  0  0  0  0  0  0  0
  133.5220  181.9900  164.2810 N   0  0  0  0  0  0  0  0  0  0  0  0
  132.8970  183.1530  163.9170 C   0  0  0  0  0  0  0  0  0  0  0  0
  133.4710  184.2290  163.7270 O   0  0  0  0  0  0  0  0  0  0  0  0
  131.3590  183.1210  163.8410 C   0  0  2  0  0  0  0  0  0  0  0  0
  130.9390  181.6610  163.4920 C   0  0  0  0  0  0  0  0  0  0  0  0
  131.4080  181.2600  162.0860 N   0  0  0  0  0  0  0  0  0  0  0  0
  131.1260  179.7980  161.7790 C   0  0  0  0  0  0  0  0  0  0  0  0
  130.9880  178.9570  163.0090 C   0  0  0  0  0  0  0  0  0  0  0  0
  129.7430  178.7140  163.6020 C   0  0  0  0  0  0  0  0  0  0  0  0
  129.6720  177.9580  164.7710 C   0  0  0  0  0  0  0  0  0  0  0  0
  130.8500  177.4790  165.3160 C   0  0  0  0  0  0  0  0  0  0  0  0
  132.0630  177.7050  164.7700 N   0  0  0  0  0  0  0  0  0  0  0  0
  132.1080  178.4100  163.6240 C   0  0  0  0  0  0  0  0  0  0  0  0
  130.9250  182.2200  161.0040 C   0  0  0  0  0  0  0  0  0  0  0  0
  131.2850  183.6910  161.3400 C   0  0  0  0  0  0  0  0  0  0  0  0
  130.8160  184.0670  162.7370 N   0  0  0  0  0  0  0  0  0  0  0  0
  131.0360  185.5380  163.0870 C   0  0  0  0  0  0  0  0  0  0  0  0
  130.4330  186.4130  161.9680 C   0  0  1  0  0  0  0  0  0  0  0  0
  129.0000  186.4120  162.1830 O   0  0  0  0  0  0  0  0  0  0  0  0
  130.9330  187.8700  161.9280 C   0  0  0  0  0  0  0  0  0  0  0  0
  131.5410  188.3890  163.2480 C   0  0  1  0  0  0  0  0  0  0  0  0
  132.8510  189.1590  162.9920 C   0  0  0  0  0  0  0  0  0  0  0  0
  133.6000  188.6670  161.7790 C   0  0  0  0  0  0  0  0  0  0  0  0
  133.8490  187.2980  161.6010 C   0  0  0  0  0  0  0  0  0  0  0  0
  134.5270  186.8430  160.4700 C   0  0  0  0  0  0  0  0  0  0  0  0
  134.9670  187.7480  159.5070 C   0  0  0  0  0  0  0  0  0  0  0  0
  134.7320  189.1100  159.6760 C   0  0  0  0  0  0  0  0  0  0  0  0
  134.0540  189.5690  160.8060 C   0  0  0  0  0  0  0  0  0  0  0  0
  130.5040  189.2330  163.9920 C   0  0  0  0  0  0  0  0  0  0  0  0
  130.8530  190.2360  164.6150 O   0  0  0  0  0  0  0  0  0  0  0  0
  129.2390  188.7140  164.0740 N   0  0  0  0  0  0  0  0  0  0  0  0
  128.1540  189.4410  164.7110 C   0  0  1  0  0  0  0  0  0  0  0  0
  126.8500  189.2950  163.9720 C   0  0  0  0  0  0  0  0  0  0  0  0
  126.6140  189.3640  162.6050 C   0  0  0  0  0  0  0  0  0  0  0  0
  125.3010  189.2380  162.1470 C   0  0  0  0  0  0  0  0  0  0  0  0
  124.2410  189.0680  163.0490 C   0  0  0  0  0  0  0  0  0  0  0  0
  124.4780  189.0300  164.4230 C   0  0  0  0  0  0  0  0  0  0  0  0
  125.7840  189.1420  164.8700 C   0  0  0  0  0  0  0  0  0  0  0  0
  126.2540  189.1950  166.2920 C   0  0  0  0  0  0  0  0  0  0  0  0
  127.7550  188.9000  166.1230 C   0  0  1  0  0  0  0  0  0  0  0  0
  127.9780  187.4700  166.2540 O   0  0  0  0  0  0  0  0  0  0  0  0
  135.4120  180.0340  165.5817 H   0  0  0  0  0  0  0  0  0  0  0  0
  134.5505  179.7738  164.0271 H   0  0  0  0  0  0  0  0  0  0  0  0
  136.2994  180.1839  164.0271 H   0  0  0  0  0  0  0  0  0  0  0  0
  136.5597  183.1242  163.6981 H   0  0  0  0  0  0  0  0  0  0  0  0
  136.2037  181.6809  162.6897 H   0  0  0  0  0  0  0  0  0  0  0  0
  135.0739  183.0774  162.6897 H   0  0  0  0  0  0  0  0  0  0  0  0
  135.0217  181.9054  166.6428 H   0  0  0  0  0  0  0  0  0  0  0  0
  136.5101  182.5343  165.8579 H   0  0  0  0  0  0  0  0  0  0  0  0
  135.0091  183.5211  165.8579 H   0  0  0  0  0  0  0  0  0  0  0  0
  132.9770  181.1520  164.4790 H   0  0  0  0  0  0  0  0  0  0  0  0
  130.9464  183.4542  164.8047 H   0  0  0  0  0  0  0  0  0  0  0  0
  131.3862  180.9753  164.2268 H   0  0  0  0  0  0  0  0  0  0  0  0
  129.8409  181.6026  163.5186 H   0  0  0  0  0  0  0  0  0  0  0  0
  132.4490  181.3360  162.1130 H   0  0  0  0  0  0  0  0  0  0  0  0
  130.1900  179.7349  161.2047 H   0  0  0  0  0  0  0  0  0  0  0  0
  131.9843  179.4103  161.2106 H   0  0  0  0  0  0  0  0  0  0  0  0
  128.8260  179.1175  163.1478 H   0  0  0  0  0  0  0  0  0  0  0  0
  128.7035  177.7475  165.2482 H   0  0  0  0  0  0  0  0  0  0  0  0
  130.7950  176.8846  166.2400 H   0  0  0  0  0  0  0  0  0  0  0  0
  133.0875  178.5619  163.1469 H   0  0  0  0  0  0  0  0  0  0  0  0
  131.3967  181.9468  160.0486 H   0  0  0  0  0  0  0  0  0  0  0  0
  129.8297  182.1411  160.9395 H   0  0  0  0  0  0  0  0  0  0  0  0
  132.3764  183.8154  161.2824 H   0  0  0  0  0  0  0  0  0  0  0  0
  130.7809  184.3471  160.6151 H   0  0  0  0  0  0  0  0  0  0  0  0
  129.7750  184.0300  162.7330 H   0  0  0  0  0  0  0  0  0  0  0  0
  130.5421  185.7682  164.0425 H   0  0  0  0  0  0  0  0  0  0  0  0
  132.1128  185.7421  163.1806 H   0  0  0  0  0  0  0  0  0  0  0  0
  130.7442  185.9834  161.0044 H   0  0  0  0  0  0  0  0  0  0  0  0
  128.7220  187.3500  162.2690 H   0  0  0  0  0  0  0  0  0  0  0  0
  131.7025  187.9450  161.1455 H   0  0  0  0  0  0  0  0  0  0  0  0
  130.0477  188.4928  161.7323 H   0  0  0  0  0  0  0  0  0  0  0  0
  131.8059  187.5344  163.8878 H   0  0  0  0  0  0  0  0  0  0  0  0
  132.6093  190.2222  162.8466 H   0  0  0  0  0  0  0  0  0  0  0  0
  133.5007  188.9996  163.8652 H   0  0  0  0  0  0  0  0  0  0  0  0
  133.5070  186.5779  162.3590 H   0  0  0  0  0  0  0  0  0  0  0  0
  134.7145  185.7671  160.3384 H   0  0  0  0  0  0  0  0  0  0  0  0
  135.4993  187.3874  158.6145 H   0  0  0  0  0  0  0  0  0  0  0  0
  135.0815  189.8256  158.9172 H   0  0  0  0  0  0  0  0  0  0  0  0
  133.8743  190.6466  160.9345 H   0  0  0  0  0  0  0  0  0  0  0  0
  128.9910  187.8950  163.5380 H   0  0  0  0  0  0  0  0  0  0  0  0
  128.5597  190.4631  164.7394 H   0  0  0  0  0  0  0  0  0  0  0  0
  127.4435  189.5146  161.8985 H   0  0  0  0  0  0  0  0  0  0  0  0
  125.0959  189.2725  161.0668 H   0  0  0  0  0  0  0  0  0  0  0  0
  123.2137  188.9637  162.6698 H   0  0  0  0  0  0  0  0  0  0  0  0
  123.6473  188.9138  165.1347 H   0  0  0  0  0  0  0  0  0  0  0  0
  126.0858  190.1876  166.7352 H   0  0  0  0  0  0  0  0  0  0  0  0
  125.7309  188.5008  166.9661 H   0  0  0  0  0  0  0  0  0  0  0  0
  128.3739  189.3875  166.8907 H   0  0  0  0  0  0  0  0  0  0  0  0
  127.4360  187.0770  165.5380 H   0  0  0  0  0  0  0  0  0  0  0  0
  1  2  1  0
  2  3  1  0
  2  4  1  0
  2  5  1  0
  5  6  1  0
  6  7  2  0
  6  8  1  0
  8  9  1  0
  9 10  1  0
 10 11  1  0
 11 12  1  0
 12 13  2  0
 13 14  1  0
 14 15  2  0
 15 16  1  0
 16 17  2  0
 10 18  1  0
 18 19  1  0
 19 20  1  0
 20 21  1  0
 21 22  1  0
 22 23  1  0
 22 24  1  0
 24 25  1  0
 25 26  1  0
 26 27  1  0
 27 28  2  0
 28 29  1  0
 29 30  2  0
 30 31  1  0
 31 32  2  0
 25 33  1  0
 33 34  2  0
 33 35  1  0
 35 36  1  0
 36 37  1  0
 37 38  2  0
 38 39  1  0
 39 40  2  0
 40 41  1  0
 41 42  2  0
 42 43  1  0
 43 44  1  0
 44 45  1  0
 20  8  1  0
 32 27  1  0
 44 36  1  0
 17 12  1  0
 42 37  1  0
  1 46  1  0
  1 47  1  0
  1 48  1  0
  3 49  1  0
  3 50  1  0
  3 51  1  0
  4 52  1  0
  4 53  1  0
  4 54  1  0
  5 55  1  0
  8 56  1  1
  9 57  1  0
  9 58  1  0
 10 59  1  0
 11 60  1  0
 11 61  1  0
 13 62  1  0
 14 63  1  0
 15 64  1  0
 17 65  1  0
 18 66  1  0
 18 67  1  0
 19 68  1  0
 19 69  1  0
 20 70  1  0
 21 71  1  0
 21 72  1  0
 22 73  1  6
 23 74  1  0
 24 75  1  0
 24 76  1  0
 25 77  1  1
 26 78  1  0
 26 79  1  0
 28 80  1  0
 29 81  1  0
 30 82  1  0
 31 83  1  0
 32 84  1  0
 35 85  1  0
 36 86  1  1
 38 87  1  0
 39 88  1  0
 40 89  1  0
 41 90  1  0
 43 91  1  0
 43 92  1  0
 44 93  1  1
 45 94  1  0
M  CHG  2  10   1  20   1
M  END
>  <meeko>  (1) 
{"is_sidechain": [false], "free_energy": -7.996, "intermolecular_energy": -14.072, "internal_energy": -0.721}

$$$$
REF_CHEMBL115__W_7USX_LOCAL_COMPLETE__e8__s20260927
     RDKit          3D

 94 98  0  0  0  0  0  0  0  0999 V2000
  135.6250  181.4360  163.4030 C   0  0  0  0  0  0  0  0  0  0  0  0
  135.0410  182.3360  164.5050 C   0  0  0  0  0  0  0  0  0  0  0  0
  135.7470  183.7000  164.4300 C   0  0  0  0  0  0  0  0  0  0  0  0
  135.3060  181.6740  165.8650 C   0  0  0  0  0  0  0  0  0  0  0  0
  133.5820  182.4800  164.2780 N   0  0  0  0  0  0  0  0  0  0  0  0
  133.0240  183.2800  163.3150 C   0  0  0  0  0  0  0  0  0  0  0  0
  133.6640  183.9910  162.5360 O   0  0  0  0  0  0  0  0  0  0  0  0
  131.4860  183.3600  163.2850 C   0  0  2  0  0  0  0  0  0  0  0  0
  130.9380  181.9230  163.5390 C   0  0  0  0  0  0  0  0  0  0  0  0
  131.3020  180.9690  162.3930 N   0  0  0  0  0  0  0  0  0  0  0  0
  130.8940  179.5340  162.6850 C   0  0  0  0  0  0  0  0  0  0  0  0
  131.5960  178.9550  163.8720 C   0  0  0  0  0  0  0  0  0  0  0  0
  132.9850  179.0470  164.0270 C   0  0  0  0  0  0  0  0  0  0  0  0
  133.5960  178.4550  165.1310 C   0  0  0  0  0  0  0  0  0  0  0  0
  132.8000  177.7800  166.0390 C   0  0  0  0  0  0  0  0  0  0  0  0
  131.4610  177.6700  165.9110 N   0  0  0  0  0  0  0  0  0  0  0  0
  130.8860  178.2760  164.8550 C   0  0  0  0  0  0  0  0  0  0  0  0
  130.8390  181.4760  161.0310 C   0  0  0  0  0  0  0  0  0  0  0  0
  131.3280  182.9230  160.7600 C   0  0  0  0  0  0  0  0  0  0  0  0
  130.9610  183.8510  161.9090 N   0  0  0  0  0  0  0  0  0  0  0  0
  131.3110  185.3160  161.6540 C   0  0  0  0  0  0  0  0  0  0  0  0
  130.4800  186.2010  162.6060 C   0  0  1  0  0  0  0  0  0  0  0  0
  131.3990  186.6790  163.6200 O   0  0  0  0  0  0  0  0  0  0  0  0
  129.7880  187.4100  161.9470 C   0  0  0  0  0  0  0  0  0  0  0  0
  128.4070  187.7730  162.5330 C   0  0  1  0  0  0  0  0  0  0  0  0
  127.6690  186.5160  163.0360 C   0  0  0  0  0  0  0  0  0  0  0  0
  126.1730  186.6960  163.1010 C   0  0  0  0  0  0  0  0  0  0  0  0
  125.5160  187.5480  162.2010 C   0  0  0  0  0  0  0  0  0  0  0  0
  124.1310  187.7010  162.2530 C   0  0  0  0  0  0  0  0  0  0  0  0
  123.3860  187.0090  163.2050 C   0  0  0  0  0  0  0  0  0  0  0  0
  124.0270  186.1660  164.1090 C   0  0  0  0  0  0  0  0  0  0  0  0
  125.4130  186.0110  164.0610 C   0  0  0  0  0  0  0  0  0  0  0  0
  128.5760  188.8270  163.6280 C   0  0  0  0  0  0  0  0  0  0  0  0
  127.9310  189.8750  163.5850 O   0  0  0  0  0  0  0  0  0  0  0  0
  129.5920  188.6220  164.5240 N   0  0  0  0  0  0  0  0  0  0  0  0
  129.8240  189.5240  165.6380 C   0  0  1  0  0  0  0  0  0  0  0  0
  129.7490  188.8260  166.9710 C   0  0  0  0  0  0  0  0  0  0  0  0
  128.8170  187.8960  167.4120 C   0  0  0  0  0  0  0  0  0  0  0  0
  128.9250  187.4110  168.7170 C   0  0  0  0  0  0  0  0  0  0  0  0
  129.9380  187.8700  169.5710 C   0  0  0  0  0  0  0  0  0  0  0  0
  130.8540  188.8280  169.1340 C   0  0  0  0  0  0  0  0  0  0  0  0
  130.7490  189.2950  167.8350 C   0  0  0  0  0  0  0  0  0  0  0  0
  131.5760  190.3640  167.1870 C   0  0  0  0  0  0  0  0  0  0  0  0
  131.2690  190.1190  165.6980 C   0  0  1  0  0  0  0  0  0  0  0  0
  132.2660  189.2160  165.1480 O   0  0  0  0  0  0  0  0  0  0  0  0
  136.1687  180.5981  163.8637 H   0  0  0  0  0  0  0  0  0  0  0  0
  134.8086  181.0442  162.7786 H   0  0  0  0  0  0  0  0  0  0  0  0
  136.3154  182.0220  162.7786 H   0  0  0  0  0  0  0  0  0  0  0  0
  135.9386  184.0702  165.4480 H   0  0  0  0  0  0  0  0  0  0  0  0
  136.7013  183.5899  163.8942 H   0  0  0  0  0  0  0  0  0  0  0  0
  135.1061  184.4156  163.8942 H   0  0  0  0  0  0  0  0  0  0  0  0
  135.0279  182.3686  166.6713 H   0  0  0  0  0  0  0  0  0  0  0  0
  134.7061  180.7558  165.9490 H   0  0  0  0  0  0  0  0  0  0  0  0
  136.3738  181.4233  165.9490 H   0  0  0  0  0  0  0  0  0  0  0  0
  132.9880  181.9650  164.9270 H   0  0  0  0  0  0  0  0  0  0  0  0
  131.1503  184.0751  164.0505 H   0  0  0  0  0  0  0  0  0  0  0  0
  131.3681  181.5372  164.4750 H   0  0  0  0  0  0  0  0  0  0  0  0
  129.8414  181.9795  163.6047 H   0  0  0  0  0  0  0  0  0  0  0  0
  132.3460  180.9550  162.3700 H   0  0  0  0  0  0  0  0  0  0  0  0
  129.8104  179.5093  162.8725 H   0  0  0  0  0  0  0  0  0  0  0  0
  131.1742  178.9286  161.8104 H   0  0  0  0  0  0  0  0  0  0  0  0
  133.5903  179.5835  163.2815 H   0  0  0  0  0  0  0  0  0  0  0  0
  134.6842  178.5228  165.2767 H   0  0  0  0  0  0  0  0  0  0  0  0
  133.2824  177.3096  166.9085 H   0  0  0  0  0  0  0  0  0  0  0  0
  129.7906  178.2310  164.7651 H   0  0  0  0  0  0  0  0  0  0  0  0
  131.2380  180.8128  160.2494 H   0  0  0  0  0  0  0  0  0  0  0  0
  129.7390  181.4789  161.0224 H   0  0  0  0  0  0  0  0  0  0  0  0
  132.4214  182.9158  160.6395 H   0  0  0  0  0  0  0  0  0  0  0  0
  130.8400  183.2905  159.8453 H   0  0  0  0  0  0  0  0  0  0  0  0
  129.9220  183.9100  161.9380 H   0  0  0  0  0  0  0  0  0  0  0  0
  132.3829  185.4776  161.8410 H   0  0  0  0  0  0  0  0  0  0  0  0
  131.0848  185.5770  160.6097 H   0  0  0  0  0  0  0  0  0  0  0  0
  129.6569  185.5860  162.9987 H   0  0  0  0  0  0  0  0  0  0  0  0
  131.6320  185.9080  164.1830 H   0  0  0  0  0  0  0  0  0  0  0  0
  130.4468  188.2835  162.0607 H   0  0  0  0  0  0  0  0  0  0  0  0
  129.6116  187.1282  160.8985 H   0  0  0  0  0  0  0  0  0  0  0  0
  127.7775  188.2047  161.7410 H   0  0  0  0  0  0  0  0  0  0  0  0
  127.8922  185.6823  162.3540 H   0  0  0  0  0  0  0  0  0  0  0  0
  128.0206  186.3159  164.0589 H   0  0  0  0  0  0  0  0  0  0  0  0
  126.0980  188.0999  161.4482 H   0  0  0  0  0  0  0  0  0  0  0  0
  123.6256  188.3697  161.5406 H   0  0  0  0  0  0  0  0  0  0  0  0
  122.2931  187.1283  163.2426 H   0  0  0  0  0  0  0  0  0  0  0  0
  123.4396  185.6210  164.8626 H   0  0  0  0  0  0  0  0  0  0  0  0
  125.9134  185.3469  164.7811 H   0  0  0  0  0  0  0  0  0  0  0  0
  130.0900  187.7420  164.5330 H   0  0  0  0  0  0  0  0  0  0  0  0
  129.0498  190.2869  165.4690 H   0  0  0  0  0  0  0  0  0  0  0  0
  128.0115  187.5490  166.7481 H   0  0  0  0  0  0  0  0  0  0  0  0
  128.2072  186.6603  169.0792 H   0  0  0  0  0  0  0  0  0  0  0  0
  130.0113  187.4717  170.5937 H   0  0  0  0  0  0  0  0  0  0  0  0
  131.6404  189.2030  169.8055 H   0  0  0  0  0  0  0  0  0  0  0  0
  131.2574  191.3679  167.5043 H   0  0  0  0  0  0  0  0  0  0  0  0
  132.6457  190.3225  167.4400 H   0  0  0  0  0  0  0  0  0  0  0  0
  131.3111  191.0395  165.0972 H   0  0  0  0  0  0  0  0  0  0  0  0
  132.7280  188.8600  165.9360 H   0  0  0  0  0  0  0  0  0  0  0  0
  1  2  1  0
  2  3  1  0
  2  4  1  0
  2  5  1  0
  5  6  1  0
  6  7  2  0
  6  8  1  0
  8  9  1  0
  9 10  1  0
 10 11  1  0
 11 12  1  0
 12 13  2  0
 13 14  1  0
 14 15  2  0
 15 16  1  0
 16 17  2  0
 10 18  1  0
 18 19  1  0
 19 20  1  0
 20 21  1  0
 21 22  1  0
 22 23  1  0
 22 24  1  0
 24 25  1  0
 25 26  1  0
 26 27  1  0
 27 28  2  0
 28 29  1  0
 29 30  2  0
 30 31  1  0
 31 32  2  0
 25 33  1  0
 33 34  2  0
 33 35  1  0
 35 36  1  0
 36 37  1  0
 37 38  2  0
 38 39  1  0
 39 40  2  0
 40 41  1  0
 41 42  2  0
 42 43  1  0
 43 44  1  0
 44 45  1  0
 20  8  1  0
 32 27  1  0
 44 36  1  0
 17 12  1  0
 42 37  1  0
  1 46  1  0
  1 47  1  0
  1 48  1  0
  3 49  1  0
  3 50  1  0
  3 51  1  0
  4 52  1  0
  4 53  1  0
  4 54  1  0
  5 55  1  0
  8 56  1  1
  9 57  1  0
  9 58  1  0
 10 59  1  0
 11 60  1  0
 11 61  1  0
 13 62  1  0
 14 63  1  0
 15 64  1  0
 17 65  1  0
 18 66  1  0
 18 67  1  0
 19 68  1  0
 19 69  1  0
 20 70  1  0
 21 71  1  0
 21 72  1  0
 22 73  1  1
 23 74  1  0
 24 75  1  0
 24 76  1  0
 25 77  1  6
 26 78  1  0
 26 79  1  0
 28 80  1  0
 29 81  1  0
 30 82  1  0
 31 83  1  0
 32 84  1  0
 35 85  1  0
 36 86  1  1
 38 87  1  0
 39 88  1  0
 40 89  1  0
 41 90  1  0
 43 91  1  0
 43 92  1  0
 44 93  1  6
 45 94  1  0
M  CHG  2  10   1  20   1
M  END
>  <meeko>  (2) 
{"is_sidechain": [false], "free_energy": -7.944, "intermolecular_energy": -13.052, "internal_energy": -1.651}

$$$$
REF_CHEMBL115__W_7USX_LOCAL_COMPLETE__e8__s20260927
     RDKit          3D

 94 98  0  0  0  0  0  0  0  0999 V2000
  123.2370  168.8980  174.5450 C   0  0  0  0  0  0  0  0  0  0  0  0
  123.9080  167.6590  175.1620 C   0  0  0  0  0  0  0  0  0  0  0  0
  125.2590  167.4500  174.4590 C   0  0  0  0  0  0  0  0  0  0  0  0
  122.9950  166.4450  174.9300 C   0  0  0  0  0  0  0  0  0  0  0  0
  124.0940  167.8930  176.6150 N   0  0  0  0  0  0  0  0  0  0  0  0
  124.7020  167.0110  177.4700 C   0  0  0  0  0  0  0  0  0  0  0  0
  125.1490  165.9090  177.1390 O   0  0  0  0  0  0  0  0  0  0  0  0
  124.7310  167.3960  178.9600 C   0  0  2  0  0  0  0  0  0  0  0  0
  126.1960  167.2100  179.4620 C   0  0  0  0  0  0  0  0  0  0  0  0
  126.6200  165.7350  179.4310 N   0  0  0  0  0  0  0  0  0  0  0  0
  128.0860  165.5500  179.7880 C   0  0  0  0  0  0  0  0  0  0  0  0
  128.9510  165.2880  178.5960 C   0  0  0  0  0  0  0  0  0  0  0  0
  130.0150  166.1320  178.2550 C   0  0  0  0  0  0  0  0  0  0  0  0
  130.7650  165.8680  177.1110 C   0  0  0  0  0  0  0  0  0  0  0  0
  130.4210  164.7740  176.3370 C   0  0  0  0  0  0  0  0  0  0  0  0
  129.3960  163.9480  176.6380 N   0  0  0  0  0  0  0  0  0  0  0  0
  128.7040  164.2020  177.7640 C   0  0  0  0  0  0  0  0  0  0  0  0
  125.6760  164.8310  180.2160 C   0  0  0  0  0  0  0  0  0  0  0  0
  124.2000  165.0210  179.7750 C   0  0  0  0  0  0  0  0  0  0  0  0
  123.8020  166.4890  179.8090 N   0  0  0  0  0  0  0  0  0  0  0  0
  122.3260  166.7340  179.4980 C   0  0  0  0  0  0  0  0  0  0  0  0
  121.8800  168.0390  180.1890 C   0  0  1  0  0  0  0  0  0  0  0  0
  120.7430  168.5270  179.4350 O   0  0  0  0  0  0  0  0  0  0  0  0
  121.4760  167.8960  181.6690 C   0  0  0  0  0  0  0  0  0  0  0  0
  122.1990  168.8530  182.6400 C   0  0  1  0  0  0  0  0  0  0  0  0
  121.2180  169.8790  183.2430 C   0  0  0  0  0  0  0  0  0  0  0  0
  121.8070  171.2630  183.3570 C   0  0  0  0  0  0  0  0  0  0  0  0
  122.1950  171.9700  182.2100 C   0  0  0  0  0  0  0  0  0  0  0  0
  122.7240  173.2570  182.3160 C   0  0  0  0  0  0  0  0  0  0  0  0
  122.8740  173.8500  183.5670 C   0  0  0  0  0  0  0  0  0  0  0  0
  122.5000  173.1540  184.7140 C   0  0  0  0  0  0  0  0  0  0  0  0
  121.9710  171.8680  184.6120 C   0  0  0  0  0  0  0  0  0  0  0  0
  122.9270  168.0420  183.7130 C   0  0  0  0  0  0  0  0  0  0  0  0
  122.5380  168.0670  184.8800 O   0  0  0  0  0  0  0  0  0  0  0  0
  124.1080  167.4570  183.3410 N   0  0  0  0  0  0  0  0  0  0  0  0
  124.8680  166.6200  184.2520 C   0  0  1  0  0  0  0  0  0  0  0  0
  124.8260  165.1630  183.8700 C   0  0  0  0  0  0  0  0  0  0  0  0
  123.7360  164.4050  183.4640 C   0  0  0  0  0  0  0  0  0  0  0  0
  123.9310  163.0470  183.1990 C   0  0  0  0  0  0  0  0  0  0  0  0
  125.1940  162.4590  183.3610 C   0  0  0  0  0  0  0  0  0  0  0  0
  126.2790  163.2180  183.8000 C   0  0  0  0  0  0  0  0  0  0  0  0
  126.0820  164.5660  184.0480 C   0  0  0  0  0  0  0  0  0  0  0  0
  127.0830  165.5430  184.5870 C   0  0  0  0  0  0  0  0  0  0  0  0
  126.4110  166.8830  184.2380 C   0  0  1  0  0  0  0  0  0  0  0  0
  126.8860  167.3320  182.9400 O   0  0  0  0  0  0  0  0  0  0  0  0
  122.8789  169.5591  175.3479 H   0  0  0  0  0  0  0  0  0  0  0  0
  123.9659  169.4382  173.9229 H   0  0  0  0  0  0  0  0  0  0  0  0
  122.3863  168.5827  173.9229 H   0  0  0  0  0  0  0  0  0  0  0  0
  126.0499  167.3276  175.2136 H   0  0  0  0  0  0  0  0  0  0  0  0
  125.2096  166.5488  173.8302 H   0  0  0  0  0  0  0  0  0  0  0  0
  125.4842  168.3240  173.8302 H   0  0  0  0  0  0  0  0  0  0  0  0
  122.6830  166.0302  175.8998 H   0  0  0  0  0  0  0  0  0  0  0  0
  122.1064  166.7577  174.3620 H   0  0  0  0  0  0  0  0  0  0  0  0
  123.5420  165.6781  174.3620 H   0  0  0  0  0  0  0  0  0  0  0  0
  123.6950  168.7610  176.9700 H   0  0  0  0  0  0  0  0  0  0  0  0
  124.3814  168.4334  179.0675 H   0  0  0  0  0  0  0  0  0  0  0  0
  126.8714  167.7894  178.8154 H   0  0  0  0  0  0  0  0  0  0  0  0
  126.2509  167.5624  180.5026 H   0  0  0  0  0  0  0  0  0  0  0  0
  126.5470  165.4510  178.4290 H   0  0  0  0  0  0  0  0  0  0  0  0
  128.4432  166.4635  180.2859 H   0  0  0  0  0  0  0  0  0  0  0  0
  128.1556  164.6697  180.4440 H   0  0  0  0  0  0  0  0  0  0  0  0
  130.2574  166.9990  178.8871 H   0  0  0  0  0  0  0  0  0  0  0  0
  131.6101  166.5136  176.8299 H   0  0  0  0  0  0  0  0  0  0  0  0
  131.0113  164.5669  175.4322 H   0  0  0  0  0  0  0  0  0  0  0  0
  127.8957  163.5098  178.0423 H   0  0  0  0  0  0  0  0  0  0  0  0
  125.9656  163.7829  180.0497 H   0  0  0  0  0  0  0  0  0  0  0  0
  125.7527  165.0970  181.2806 H   0  0  0  0  0  0  0  0  0  0  0  0
  124.0795  164.6399  178.7502 H   0  0  0  0  0  0  0  0  0  0  0  0
  123.5535  164.4678  180.4721 H   0  0  0  0  0  0  0  0  0  0  0  0
  123.8350  166.7940  180.8040 H   0  0  0  0  0  0  0  0  0  0  0  0
  122.1881  166.8261  178.4106 H   0  0  0  0  0  0  0  0  0  0  0  0
  121.7224  165.8917  179.8670 H   0  0  0  0  0  0  0  0  0  0  0  0
  122.7412  168.7232  180.1979 H   0  0  0  0  0  0  0  0  0  0  0  0
  120.9380  168.3680  178.4850 H   0  0  0  0  0  0  0  0  0  0  0  0
  120.3950  168.0840  181.7469 H   0  0  0  0  0  0  0  0  0  0  0  0
  121.7662  166.8782  181.9689 H   0  0  0  0  0  0  0  0  0  0  0  0
  122.9511  169.4335  182.0856 H   0  0  0  0  0  0  0  0  0  0  0  0
  120.3259  169.9297  182.6014 H   0  0  0  0  0  0  0  0  0  0  0  0
  120.9738  169.5411  184.2609 H   0  0  0  0  0  0  0  0  0  0  0  0
  122.0815  171.5066  181.2189 H   0  0  0  0  0  0  0  0  0  0  0  0
  123.0230  173.8040  181.4097 H   0  0  0  0  0  0  0  0  0  0  0  0
  123.2871  174.8662  183.6492 H   0  0  0  0  0  0  0  0  0  0  0  0
  122.6223  173.6201  185.7029 H   0  0  0  0  0  0  0  0  0  0  0  0
  121.6800  171.3237  185.5225 H   0  0  0  0  0  0  0  0  0  0  0  0
  124.3860  167.4490  182.3690 H   0  0  0  0  0  0  0  0  0  0  0  0
  124.3972  166.8611  185.2165 H   0  0  0  0  0  0  0  0  0  0  0  0
  122.7419  164.8629  183.3535 H   0  0  0  0  0  0  0  0  0  0  0  0
  123.0844  162.4322  182.8595 H   0  0  0  0  0  0  0  0  0  0  0  0
  125.3302  161.3901  183.1399 H   0  0  0  0  0  0  0  0  0  0  0  0
  127.2670  162.7569  183.9456 H   0  0  0  0  0  0  0  0  0  0  0  0
  127.2136  165.4284  185.6732 H   0  0  0  0  0  0  0  0  0  0  0  0
  128.0960  165.4251  184.1747 H   0  0  0  0  0  0  0  0  0  0  0  0
  126.6538  167.6800  184.9562 H   0  0  0  0  0  0  0  0  0  0  0  0
  127.5630  168.0090  183.1540 H   0  0  0  0  0  0  0  0  0  0  0  0
  1  2  1  0
  2  3  1  0
  2  4  1  0
  2  5  1  0
  5  6  1  0
  6  7  2  0
  6  8  1  0
  8  9  1  0
  9 10  1  0
 10 11  1  0
 11 12  1  0
 12 13  2  0
 13 14  1  0
 14 15  2  0
 15 16  1  0
 16 17  2  0
 10 18  1  0
 18 19  1  0
 19 20  1  0
 20 21  1  0
 21 22  1  0
 22 23  1  0
 22 24  1  0
 24 25  1  0
 25 26  1  0
 26 27  1  0
 27 28  2  0
 28 29  1  0
 29 30  2  0
 30 31  1  0
 31 32  2  0
 25 33  1  0
 33 34  2  0
 33 35  1  0
 35 36  1  0
 36 37  1  0
 37 38  2  0
 38 39  1  0
 39 40  2  0
 40 41  1  0
 41 42  2  0
 42 43  1  0
 43 44  1  0
 44 45  1  0
 20  8  1  0
 32 27  1  0
 44 36  1  0
 17 12  1  0
 42 37  1  0
  1 46  1  0
  1 47  1  0
  1 48  1  0
  3 49  1  0
  3 50  1  0
  3 51  1  0
  4 52  1  0
  4 53  1  0
  4 54  1  0
  5 55  1  0
  8 56  1  6
  9 57  1  0
  9 58  1  0
 10 59  1  0
 11 60  1  0
 11 61  1  0
 13 62  1  0
 14 63  1  0
 15 64  1  0
 17 65  1  0
 18 66  1  0
 18 67  1  0
 19 68  1  0
 19 69  1  0
 20 70  1  0
 21 71  1  0
 21 72  1  0
 22 73  1  1
 23 74  1  0
 24 75  1  0
 24 76  1  0
 25 77  1  6
 26 78  1  0
 26 79  1  0
 28 80  1  0
 29 81  1  0
 30 82  1  0
 31 83  1  0
 32 84  1  0
 35 85  1  0
 36 86  1  1
 38 87  1  0
 39 88  1  0
 40 89  1  0
 41 90  1  0
 43 91  1  0
 43 92  1  0
 44 93  1  1
 45 94  1  0
M  CHG  2  10   1  20   1
M  END
>  <meeko>  (3) 
{"is_sidechain": [false], "free_energy": -7.943, "intermolecular_energy": -12.294, "internal_energy": -2.407}

$$$$
REF_CHEMBL115__W_7USX_LOCAL_COMPLETE__e8__s20260927
     RDKit          3D

 94 98  0  0  0  0  0  0  0  0999 V2000
  124.1320  182.5820  172.3620 C   0  0  0  0  0  0  0  0  0  0  0  0
  124.0660  184.0570  171.9320 C   0  0  0  0  0  0  0  0  0  0  0  0
  124.4440  184.9240  173.1450 C   0  0  0  0  0  0  0  0  0  0  0  0
  122.6310  184.3690  171.4830 C   0  0  0  0  0  0  0  0  0  0  0  0
  125.0150  184.2680  170.8110 N   0  0  0  0  0  0  0  0  0  0  0  0
  125.1600  185.4490  170.1320 C   0  0  0  0  0  0  0  0  0  0  0  0
  124.5060  186.4720  170.3560 O   0  0  0  0  0  0  0  0  0  0  0  0
  126.1400  185.4520  168.9440 C   0  0  2  0  0  0  0  0  0  0  0  0
  127.1900  184.3300  169.2030 C   0  0  0  0  0  0  0  0  0  0  0  0
  128.0610  184.6430  170.4280 N   0  0  0  0  0  0  0  0  0  0  0  0
  128.9990  183.4990  170.7760 C   0  0  0  0  0  0  0  0  0  0  0  0
  128.3960  182.5150  171.7270 C   0  0  0  0  0  0  0  0  0  0  0  0
  127.9660  182.8900  173.0060 C   0  0  0  0  0  0  0  0  0  0  0  0
  127.4490  181.9260  173.8700 C   0  0  0  0  0  0  0  0  0  0  0  0
  127.3880  180.6160  173.4310 C   0  0  0  0  0  0  0  0  0  0  0  0
  127.8010  180.2250  172.2070 N   0  0  0  0  0  0  0  0  0  0  0  0
  128.2680  181.1750  171.3760 C   0  0  0  0  0  0  0  0  0  0  0  0
  128.7510  185.9990  170.3320 C   0  0  0  0  0  0  0  0  0  0  0  0
  127.7420  187.1380  170.0300 C   0  0  0  0  0  0  0  0  0  0  0  0
  126.8880  186.8050  168.8150 N   0  0  0  0  0  0  0  0  0  0  0  0
  125.9510  187.9370  168.3930 C   0  0  0  0  0  0  0  0  0  0  0  0
  125.1670  187.4940  167.1400 C   0  0  1  0  0  0  0  0  0  0  0  0
  123.7810  187.3830  167.5490 O   0  0  0  0  0  0  0  0  0  0  0  0
  125.2590  188.4480  165.9330 C   0  0  0  0  0  0  0  0  0  0  0  0
  124.7150  187.8790  164.6060 C   0  0  1  0  0  0  0  0  0  0  0  0
  123.3220  188.4550  164.2830 C   0  0  0  0  0  0  0  0  0  0  0  0
  122.2290  187.4180  164.3240 C   0  0  0  0  0  0  0  0  0  0  0  0
  120.9070  187.7610  164.0060 C   0  0  0  0  0  0  0  0  0  0  0  0
  119.9000  186.7960  164.0290 C   0  0  0  0  0  0  0  0  0  0  0  0
  120.1990  185.4800  164.3730 C   0  0  0  0  0  0  0  0  0  0  0  0
  121.5070  185.1290  164.6990 C   0  0  0  0  0  0  0  0  0  0  0  0
  122.5170  186.0910  164.6770 C   0  0  0  0  0  0  0  0  0  0  0  0
  125.7260  188.1340  163.4870 C   0  0  0  0  0  0  0  0  0  0  0  0
  125.3550  188.1730  162.3130 O   0  0  0  0  0  0  0  0  0  0  0  0
  127.0490  188.1270  163.8430 N   0  0  0  0  0  0  0  0  0  0  0  0
  128.1020  188.4050  162.8830 C   0  0  1  0  0  0  0  0  0  0  0  0
  129.4100  188.7490  163.5450 C   0  0  0  0  0  0  0  0  0  0  0  0
  129.6410  189.5880  164.6280 C   0  0  0  0  0  0  0  0  0  0  0  0
  130.9580  189.7900  165.0460 C   0  0  0  0  0  0  0  0  0  0  0  0
  132.0260  189.1780  164.3730 C   0  0  0  0  0  0  0  0  0  0  0  0
  131.7920  188.3620  163.2660 C   0  0  0  0  0  0  0  0  0  0  0  0
  130.4830  188.1540  162.8650 C   0  0  0  0  0  0  0  0  0  0  0  0
  130.0130  187.3770  161.6730 C   0  0  0  0  0  0  0  0  0  0  0  0
  128.5260  187.1750  162.0140 C   0  0  1  0  0  0  0  0  0  0  0  0
  128.3650  185.9140  162.7190 O   0  0  0  0  0  0  0  0  0  0  0  0
  124.1348  182.5200  173.4602 H   0  0  0  0  0  0  0  0  0  0  0  0
  123.2570  182.0453  171.9667 H   0  0  0  0  0  0  0  0  0  0  0  0
  125.0515  182.1256  171.9667 H   0  0  0  0  0  0  0  0  0  0  0  0
  124.2072  184.3810  174.0719 H   0  0  0  0  0  0  0  0  0  0  0  0
  125.5208  185.1466  173.1153 H   0  0  0  0  0  0  0  0  0  0  0  0
  123.8742  185.8645  173.1153 H   0  0  0  0  0  0  0  0  0  0  0  0
  121.9920  184.5079  172.3676 H   0  0  0  0  0  0  0  0  0  0  0  0
  122.6273  185.2889  170.8799 H   0  0  0  0  0  0  0  0  0  0  0  0
  122.2457  183.5336  170.8799 H   0  0  0  0  0  0  0  0  0  0  0  0
  125.5470  183.4450  170.5320 H   0  0  0  0  0  0  0  0  0  0  0  0
  125.5748  185.2886  168.0146 H   0  0  0  0  0  0  0  0  0  0  0  0
  126.6625  183.3799  169.3734 H   0  0  0  0  0  0  0  0  0  0  0  0
  127.8460  184.2627  168.3225 H   0  0  0  0  0  0  0  0  0  0  0  0
  127.3940  184.7000  171.2300 H   0  0  0  0  0  0  0  0  0  0  0  0
  129.2664  182.9711  169.8488 H   0  0  0  0  0  0  0  0  0  0  0  0
  129.8796  183.9354  171.2700 H   0  0  0  0  0  0  0  0  0  0  0  0
  128.0359  183.9398  173.3271 H   0  0  0  0  0  0  0  0  0  0  0  0
  127.0983  182.2004  174.8758 H   0  0  0  0  0  0  0  0  0  0  0  0
  126.9826  179.8546  174.1136 H   0  0  0  0  0  0  0  0  0  0  0  0
  128.5657  180.8746  170.3606 H   0  0  0  0  0  0  0  0  0  0  0  0
  129.2528  186.2117  171.2875 H   0  0  0  0  0  0  0  0  0  0  0  0
  129.4761  185.9562  169.5059 H   0  0  0  0  0  0  0  0  0  0  0  0
  127.0867  187.2782  170.9023 H   0  0  0  0  0  0  0  0  0  0  0  0
  128.3065  188.0582  169.8189 H   0  0  0  0  0  0  0  0  0  0  0  0
  127.5230  186.7720  167.9910 H   0  0  0  0  0  0  0  0  0  0  0  0
  125.2480  188.1586  169.2095 H   0  0  0  0  0  0  0  0  0  0  0  0
  126.5357  188.8410  168.1673 H   0  0  0  0  0  0  0  0  0  0  0  0
  125.6088  186.5508  166.7862 H   0  0  0  0  0  0  0  0  0  0  0  0
  123.2350  187.7440  166.8160 H   0  0  0  0  0  0  0  0  0  0  0  0
  124.6886  189.3574  166.1731 H   0  0  0  0  0  0  0  0  0  0  0  0
  126.3310  188.6335  165.7702 H   0  0  0  0  0  0  0  0  0  0  0  0
  124.5834  186.7912  164.7030 H   0  0  0  0  0  0  0  0  0  0  0  0
  123.0884  189.2391  165.0183 H   0  0  0  0  0  0  0  0  0  0  0  0
  123.3605  188.8504  163.2572 H   0  0  0  0  0  0  0  0  0  0  0  0
  120.6622  188.7990  163.7363 H   0  0  0  0  0  0  0  0  0  0  0  0
  118.8669  187.0752  163.7747 H   0  0  0  0  0  0  0  0  0  0  0  0
  119.4042  184.7196  164.3872 H   0  0  0  0  0  0  0  0  0  0  0  0
  121.7441  184.0908  164.9745 H   0  0  0  0  0  0  0  0  0  0  0  0
  123.5471  185.8070  164.9384 H   0  0  0  0  0  0  0  0  0  0  0  0
  127.3110  188.1040  164.8200 H   0  0  0  0  0  0  0  0  0  0  0  0
  127.6530  189.2168  162.2919 H   0  0  0  0  0  0  0  0  0  0  0  0
  128.8051  190.0822  165.1447 H   0  0  0  0  0  0  0  0  0  0  0  0
  131.1603  190.4363  165.9128 H   0  0  0  0  0  0  0  0  0  0  0  0
  133.0564  189.3429  164.7211 H   0  0  0  0  0  0  0  0  0  0  0  0
  132.6277  187.8948  162.7244 H   0  0  0  0  0  0  0  0  0  0  0  0
  130.1388  187.9507  160.7429 H   0  0  0  0  0  0  0  0  0  0  0  0
  130.5663  186.4428  161.4967 H   0  0  0  0  0  0  0  0  0  0  0  0
  127.8877  187.1205  161.1198 H   0  0  0  0  0  0  0  0  0  0  0  0
  129.2830  185.6110  162.8790 H   0  0  0  0  0  0  0  0  0  0  0  0
  1  2  1  0
  2  3  1  0
  2  4  1  0
  2  5  1  0
  5  6  1  0
  6  7  2  0
  6  8  1  0
  8  9  1  0
  9 10  1  0
 10 11  1  0
 11 12  1  0
 12 13  2  0
 13 14  1  0
 14 15  2  0
 15 16  1  0
 16 17  2  0
 10 18  1  0
 18 19  1  0
 19 20  1  0
 20 21  1  0
 21 22  1  0
 22 23  1  0
 22 24  1  0
 24 25  1  0
 25 26  1  0
 26 27  1  0
 27 28  2  0
 28 29  1  0
 29 30  2  0
 30 31  1  0
 31 32  2  0
 25 33  1  0
 33 34  2  0
 33 35  1  0
 35 36  1  0
 36 37  1  0
 37 38  2  0
 38 39  1  0
 39 40  2  0
 40 41  1  0
 41 42  2  0
 42 43  1  0
 43 44  1  0
 44 45  1  0
 20  8  1  0
 32 27  1  0
 44 36  1  0
 17 12  1  0
 42 37  1  0
  1 46  1  0
  1 47  1  0
  1 48  1  0
  3 49  1  0
  3 50  1  0
  3 51  1  0
  4 52  1  0
  4 53  1  0
  4 54  1  0
  5 55  1  0
  8 56  1  6
  9 57  1  0
  9 58  1  0
 10 59  1  0
 11 60  1  0
 11 61  1  0
 13 62  1  0
 14 63  1  0
 15 64  1  0
 17 65  1  0
 18 66  1  0
 18 67  1  0
 19 68  1  0
 19 69  1  0
 20 70  1  0
 21 71  1  0
 21 72  1  0
 22 73  1  6
 23 74  1  0
 24 75  1  0
 24 76  1  0
 25 77  1  1
 26 78  1  0
 26 79  1  0
 28 80  1  0
 29 81  1  0
 30 82  1  0
 31 83  1  0
 32 84  1  0
 35 85  1  0
 36 86  1  6
 38 87  1  0
 39 88  1  0
 40 89  1  0
 41 90  1  0
 43 91  1  0
 43 92  1  0
 44 93  1  6
 45 94  1  0
M  CHG  2  10   1  20   1
M  END
>  <meeko>  (4) 
{"is_sidechain": [false], "free_energy": -7.874, "intermolecular_energy": -12.824, "internal_energy": -1.756}

$$$$
REF_CHEMBL115__W_7USX_LOCAL_COMPLETE__e8__s20260927
     RDKit          3D

 94 98  0  0  0  0  0  0  0  0999 V2000
  123.3590  187.5240  163.6070 C   0  0  0  0  0  0  0  0  0  0  0  0
  124.8540  187.4380  163.2550 C   0  0  0  0  0  0  0  0  0  0  0  0
  125.0130  187.7840  161.7660 C   0  0  0  0  0  0  0  0  0  0  0  0
  125.3330  186.0030  163.5230 C   0  0  0  0  0  0  0  0  0  0  0  0
  125.5990  188.3980  164.1070 N   0  0  0  0  0  0  0  0  0  0  0  0
  126.9060  188.7560  163.9080 C   0  0  0  0  0  0  0  0  0  0  0  0
  127.6270  188.3090  163.0110 O   0  0  0  0  0  0  0  0  0  0  0  0
  127.5320  189.7060  164.9450 C   0  0  2  0  0  0  0  0  0  0  0  0
  128.9120  190.1670  164.3840 C   0  0  0  0  0  0  0  0  0  0  0  0
  129.8990  188.9960  164.2820 N   0  0  0  0  0  0  0  0  0  0  0  0
  131.2030  189.3980  163.6120 C   0  0  0  0  0  0  0  0  0  0  0  0
  131.8120  188.2950  162.8060 C   0  0  0  0  0  0  0  0  0  0  0  0
  133.1710  187.9710  162.9030 C   0  0  0  0  0  0  0  0  0  0  0  0
  133.6990  186.9620  162.1000 C   0  0  0  0  0  0  0  0  0  0  0  0
  132.8530  186.3160  161.2160 C   0  0  0  0  0  0  0  0  0  0  0  0
  131.5410  186.6120  161.0970 N   0  0  0  0  0  0  0  0  0  0  0  0
  131.0440  187.5670  161.9030 C   0  0  0  0  0  0  0  0  0  0  0  0
  130.0870  188.2630  165.6060 C   0  0  0  0  0  0  0  0  0  0  0  0
  128.7300  187.8280  166.2190 C   0  0  0  0  0  0  0  0  0  0  0  0
  127.7660  189.0020  166.3070 N   0  0  0  0  0  0  0  0  0  0  0  0
  126.4500  188.6670  167.0090 C   0  0  0  0  0  0  0  0  0  0  0  0
  126.5420  189.1170  168.4820 C   0  0  1  0  0  0  0  0  0  0  0  0
  125.4030  189.9830  168.7120 O   0  0  0  0  0  0  0  0  0  0  0  0
  126.5260  187.9800  169.5220 C   0  0  0  0  0  0  0  0  0  0  0  0
  127.6710  186.9540  169.3880 C   0  0  1  0  0  0  0  0  0  0  0  0
  128.6560  187.0630  170.5680 C   0  0  0  0  0  0  0  0  0  0  0  0
  129.6610  188.1750  170.3990 C   0  0  0  0  0  0  0  0  0  0  0  0
  130.5610  188.1660  169.3240 C   0  0  0  0  0  0  0  0  0  0  0  0
  131.4780  189.2040  169.1590 C   0  0  0  0  0  0  0  0  0  0  0  0
  131.5110  190.2590  170.0680 C   0  0  0  0  0  0  0  0  0  0  0  0
  130.6270  190.2750  171.1450 C   0  0  0  0  0  0  0  0  0  0  0  0
  129.7080  189.2390  171.3120 C   0  0  0  0  0  0  0  0  0  0  0  0
  127.0850  185.5480  169.2450 C   0  0  0  0  0  0  0  0  0  0  0  0
  126.2460  185.3110  168.3760 O   0  0  0  0  0  0  0  0  0  0  0  0
  127.4020  184.6500  170.2300 N   0  0  0  0  0  0  0  0  0  0  0  0
  126.9490  183.2710  170.1830 C   0  0  1  0  0  0  0  0  0  0  0  0
  127.8980  182.3280  170.8760 C   0  0  0  0  0  0  0  0  0  0  0  0
  129.2840  182.2850  170.8050 C   0  0  0  0  0  0  0  0  0  0  0  0
  129.9570  181.2850  171.5100 C   0  0  0  0  0  0  0  0  0  0  0  0
  129.2470  180.3320  172.2550 C   0  0  0  0  0  0  0  0  0  0  0  0
  127.8530  180.3600  172.2980 C   0  0  0  0  0  0  0  0  0  0  0  0
  127.1930  181.3620  171.6080 C   0  0  0  0  0  0  0  0  0  0  0  0
  125.7110  181.5380  171.4630 C   0  0  0  0  0  0  0  0  0  0  0  0
  125.6290  182.9960  170.9760 C   0  0  1  0  0  0  0  0  0  0  0  0
  125.4760  183.8750  172.1230 O   0  0  0  0  0  0  0  0  0  0  0  0
  123.2396  187.5309  164.7005 H   0  0  0  0  0  0  0  0  0  0  0  0
  122.9358  188.4480  163.1861 H   0  0  0  0  0  0  0  0  0  0  0  0
  122.8326  186.6547  163.1861 H   0  0  0  0  0  0  0  0  0  0  0  0
  125.4705  188.7795  161.6677 H   0  0  0  0  0  0  0  0  0  0  0  0
  125.6572  187.0350  161.2823 H   0  0  0  0  0  0  0  0  0  0  0  0
  124.0251  187.7851  161.2823 H   0  0  0  0  0  0  0  0  0  0  0  0
  125.3900  185.8321  164.6081 H   0  0  0  0  0  0  0  0  0  0  0  0
  124.6240  185.2904  163.0764 H   0  0  0  0  0  0  0  0  0  0  0  0
  126.3279  185.8591  163.0764 H   0  0  0  0  0  0  0  0  0  0  0  0
  125.0810  188.7620  164.9050 H   0  0  0  0  0  0  0  0  0  0  0  0
  126.8471  190.5500  165.1140 H   0  0  0  0  0  0  0  0  0  0  0  0
  128.7646  190.5981  163.3828 H   0  0  0  0  0  0  0  0  0  0  0  0
  129.3327  190.9130  165.0743 H   0  0  0  0  0  0  0  0  0  0  0  0
  129.4530  188.3190  163.6230 H   0  0  0  0  0  0  0  0  0  0  0  0
  131.0061  190.2510  162.9459 H   0  0  0  0  0  0  0  0  0  0  0  0
  131.9163  189.6545  164.4091 H   0  0  0  0  0  0  0  0  0  0  0  0
  133.8186  188.5105  163.6098 H   0  0  0  0  0  0  0  0  0  0  0  0
  134.7617  186.6860  162.1672 H   0  0  0  0  0  0  0  0  0  0  0  0
  133.2698  185.5221  160.5788 H   0  0  0  0  0  0  0  0  0  0  0  0
  129.9674  187.7852  161.8448 H   0  0  0  0  0  0  0  0  0  0  0  0
  130.7034  187.3684  165.4337 H   0  0  0  0  0  0  0  0  0  0  0  0
  130.5774  188.9499  166.3115 H   0  0  0  0  0  0  0  0  0  0  0  0
  128.2853  187.0448  165.5874 H   0  0  0  0  0  0  0  0  0  0  0  0
  128.9118  187.4489  167.2355 H   0  0  0  0  0  0  0  0  0  0  0  0
  128.1700  189.6820  166.9830 H   0  0  0  0  0  0  0  0  0  0  0  0
  125.6219  189.1942  166.5127 H   0  0  0  0  0  0  0  0  0  0  0  0
  126.2665  187.5835  166.9606 H   0  0  0  0  0  0  0  0  0  0  0  0
  127.5163  189.6086  168.6198 H   0  0  0  0  0  0  0  0  0  0  0  0
  125.0700  189.7860  169.6150 H   0  0  0  0  0  0  0  0  0  0  0  0
  126.5893  188.4325  170.5226 H   0  0  0  0  0  0  0  0  0  0  0  0
  125.5934  187.4222  169.3517 H   0  0  0  0  0  0  0  0  0  0  0  0
  128.2520  187.1734  168.4801 H   0  0  0  0  0  0  0  0  0  0  0  0
  128.0815  187.2472  171.4878 H   0  0  0  0  0  0  0  0  0  0  0  0
  129.2172  186.1181  170.6152 H   0  0  0  0  0  0  0  0  0  0  0  0
  130.5438  187.3337  168.6050 H   0  0  0  0  0  0  0  0  0  0  0  0
  132.1765  189.1894  168.3094 H   0  0  0  0  0  0  0  0  0  0  0  0
  132.2335  191.0779  169.9359 H   0  0  0  0  0  0  0  0  0  0  0  0
  130.6539  191.1062  171.8649 H   0  0  0  0  0  0  0  0  0  0  0  0
  129.0149  189.2565  172.1660 H   0  0  0  0  0  0  0  0  0  0  0  0
  128.1040  184.8800  170.9190 H   0  0  0  0  0  0  0  0  0  0  0  0
  126.8428  183.1107  169.0999 H   0  0  0  0  0  0  0  0  0  0  0  0
  129.8395  183.0222  170.2067 H   0  0  0  0  0  0  0  0  0  0  0  0
  131.0559  181.2442  171.4808 H   0  0  0  0  0  0  0  0  0  0  0  0
  129.7942  179.5558  172.8102 H   0  0  0  0  0  0  0  0  0  0  0  0
  127.2918  179.6039  172.8666 H   0  0  0  0  0  0  0  0  0  0  0  0
  125.2930  180.8413  170.7215 H   0  0  0  0  0  0  0  0  0  0  0  0
  125.1405  181.3362  172.3816 H   0  0  0  0  0  0  0  0  0  0  0  0
  124.7637  183.1779  170.3217 H   0  0  0  0  0  0  0  0  0  0  0  0
  125.2900  184.7530  171.7290 H   0  0  0  0  0  0  0  0  0  0  0  0
  1  2  1  0
  2  3  1  0
  2  4  1  0
  2  5  1  0
  5  6  1  0
  6  7  2  0
  6  8  1  0
  8  9  1  0
  9 10  1  0
 10 11  1  0
 11 12  1  0
 12 13  2  0
 13 14  1  0
 14 15  2  0
 15 16  1  0
 16 17  2  0
 10 18  1  0
 18 19  1  0
 19 20  1  0
 20 21  1  0
 21 22  1  0
 22 23  1  0
 22 24  1  0
 24 25  1  0
 25 26  1  0
 26 27  1  0
 27 28  2  0
 28 29  1  0
 29 30  2  0
 30 31  1  0
 31 32  2  0
 25 33  1  0
 33 34  2  0
 33 35  1  0
 35 36  1  0
 36 37  1  0
 37 38  2  0
 38 39  1  0
 39 40  2  0
 40 41  1  0
 41 42  2  0
 42 43  1  0
 43 44  1  0
 44 45  1  0
 20  8  1  0
 32 27  1  0
 44 36  1  0
 17 12  1  0
 42 37  1  0
  1 46  1  0
  1 47  1  0
  1 48  1  0
  3 49  1  0
  3 50  1  0
  3 51  1  0
  4 52  1  0
  4 53  1  0
  4 54  1  0
  5 55  1  0
  8 56  1  1
  9 57  1  0
  9 58  1  0
 10 59  1  0
 11 60  1  0
 11 61  1  0
 13 62  1  0
 14 63  1  0
 15 64  1  0
 17 65  1  0
 18 66  1  0
 18 67  1  0
 19 68  1  0
 19 69  1  0
 20 70  1  0
 21 71  1  0
 21 72  1  0
 22 73  1  6
 23 74  1  0
 24 75  1  0
 24 76  1  0
 25 77  1  6
 26 78  1  0
 26 79  1  0
 28 80  1  0
 29 81  1  0
 30 82  1  0
 31 83  1  0
 32 84  1  0
 35 85  1  0
 36 86  1  6
 38 87  1  0
 39 88  1  0
 40 89  1  0
 41 90  1  0
 43 91  1  0
 43 92  1  0
 44 93  1  6
 45 94  1  0
M  CHG  2  10   1  20   1
M  END
>  <meeko>  (5) 
{"is_sidechain": [false], "free_energy": -7.696, "intermolecular_energy": -12.468, "internal_energy": -1.797}

$$$$
REF_CHEMBL115__W_7USX_LOCAL_COMPLETE__e8__s20260927
     RDKit          3D

 94 98  0  0  0  0  0  0  0  0999 V2000
  136.1370  183.1940  164.4730 C   0  0  0  0  0  0  0  0  0  0  0  0
  135.0910  182.0900  164.7050 C   0  0  0  0  0  0  0  0  0  0  0  0
  135.2590  181.5700  166.1430 C   0  0  0  0  0  0  0  0  0  0  0  0
  135.3480  180.9590  163.6980 C   0  0  0  0  0  0  0  0  0  0  0  0
  133.7390  182.6650  164.5010 N   0  0  0  0  0  0  0  0  0  0  0  0
  133.4340  183.6100  163.5570 C   0  0  0  0  0  0  0  0  0  0  0  0
  134.2490  184.1110  162.7780 O   0  0  0  0  0  0  0  0  0  0  0  0
  131.9900  184.1450  163.5510 C   0  0  2  0  0  0  0  0  0  0  0  0
  131.0570  182.9650  163.1390 C   0  0  0  0  0  0  0  0  0  0  0  0
  131.3150  182.5190  161.6930 N   0  0  0  0  0  0  0  0  0  0  0  0
  130.5110  181.2850  161.3190 C   0  0  0  0  0  0  0  0  0  0  0  0
  131.1550  180.0090  161.7620 C   0  0  0  0  0  0  0  0  0  0  0  0
  131.8510  179.9150  162.9740 C   0  0  0  0  0  0  0  0  0  0  0  0
  132.4670  178.7140  163.3220 C   0  0  0  0  0  0  0  0  0  0  0  0
  132.3790  177.6500  162.4420 C   0  0  0  0  0  0  0  0  0  0  0  0
  131.7210  177.7160  161.2650 N   0  0  0  0  0  0  0  0  0  0  0  0
  131.1050  178.8730  160.9610 C   0  0  0  0  0  0  0  0  0  0  0  0
  131.1930  183.6620  160.6900 C   0  0  0  0  0  0  0  0  0  0  0  0
  132.0740  184.8740  161.0910 C   0  0  0  0  0  0  0  0  0  0  0  0
  131.8060  185.2970  162.5280 N   0  0  0  0  0  0  0  0  0  0  0  0
  132.5570  186.5590  162.9490 C   0  0  0  0  0  0  0  0  0  0  0  0
  131.5370  187.6040  163.4490 C   0  0  1  0  0  0  0  0  0  0  0  0
  132.3150  188.7270  163.9350 O   0  0  0  0  0  0  0  0  0  0  0  0
  130.5370  188.1070  162.3910 C   0  0  0  0  0  0  0  0  0  0  0  0
  129.0810  188.2470  162.8820 C   0  0  1  0  0  0  0  0  0  0  0  0
  128.3830  186.8740  162.9520 C   0  0  0  0  0  0  0  0  0  0  0  0
  126.8820  186.9670  162.8430 C   0  0  0  0  0  0  0  0  0  0  0  0
  126.0570  186.3050  163.7630 C   0  0  0  0  0  0  0  0  0  0  0  0
  124.6680  186.4060  163.6700 C   0  0  0  0  0  0  0  0  0  0  0  0
  124.0880  187.1640  162.6560 C   0  0  0  0  0  0  0  0  0  0  0  0
  124.8970  187.8200  161.7310 C   0  0  0  0  0  0  0  0  0  0  0  0
  126.2860  187.7210  161.8210 C   0  0  0  0  0  0  0  0  0  0  0  0
  129.0610  188.9800  164.2250 C   0  0  0  0  0  0  0  0  0  0  0  0
  129.3720  190.1700  164.2870 O   0  0  0  0  0  0  0  0  0  0  0  0
  128.8650  188.2090  165.3400 N   0  0  0  0  0  0  0  0  0  0  0  0
  128.7760  188.7910  166.6670 C   0  0  1  0  0  0  0  0  0  0  0  0
  128.6670  187.7490  167.7490 C   0  0  0  0  0  0  0  0  0  0  0  0
  127.8820  186.6040  167.7740 C   0  0  0  0  0  0  0  0  0  0  0  0
  127.9140  185.7980  168.9150 C   0  0  0  0  0  0  0  0  0  0  0  0
  128.7040  186.1510  170.0190 C   0  0  0  0  0  0  0  0  0  0  0  0
  129.4660  187.3180  170.0020 C   0  0  0  0  0  0  0  0  0  0  0  0
  129.4410  188.1050  168.8630 C   0  0  0  0  0  0  0  0  0  0  0  0
  130.1240  189.4240  168.6570 C   0  0  0  0  0  0  0  0  0  0  0  0
  130.0620  189.5570  167.1250 C   0  0  1  0  0  0  0  0  0  0  0  0
  131.2750  189.0020  166.5480 O   0  0  0  0  0  0  0  0  0  0  0  0
  136.4939  183.5707  165.4429 H   0  0  0  0  0  0  0  0  0  0  0  0
  136.9845  182.7826  163.9051 H   0  0  0  0  0  0  0  0  0  0  0  0
  135.6805  184.0181  163.9051 H   0  0  0  0  0  0  0  0  0  0  0  0
  135.0010  182.3686  166.8542 H   0  0  0  0  0  0  0  0  0  0  0  0
  134.5934  180.7087  166.3016 H   0  0  0  0  0  0  0  0  0  0  0  0
  136.3027  181.2609  166.3016 H   0  0  0  0  0  0  0  0  0  0  0  0
  135.5600  180.0260  164.2407 H   0  0  0  0  0  0  0  0  0  0  0  0
  134.4582  180.8215  163.0661 H   0  0  0  0  0  0  0  0  0  0  0  0
  136.2098  181.2195  163.0661 H   0  0  0  0  0  0  0  0  0  0  0  0
  133.0260  182.3390  165.1530 H   0  0  0  0  0  0  0  0  0  0  0  0
  131.7500  184.5378  164.5501 H   0  0  0  0  0  0  0  0  0  0  0  0
  131.2384  182.1145  163.8127 H   0  0  0  0  0  0  0  0  0  0  0  0
  130.0147  183.3088  163.2123 H   0  0  0  0  0  0  0  0  0  0  0  0
  132.3120  182.2090  161.6770 H   0  0  0  0  0  0  0  0  0  0  0  0
  129.5189  181.3579  161.7884 H   0  0  0  0  0  0  0  0  0  0  0  0
  130.4458  181.2560  160.2213 H   0  0  0  0  0  0  0  0  0  0  0  0
  131.9110  180.7832  163.6467 H   0  0  0  0  0  0  0  0  0  0  0  0
  133.0100  178.6146  164.2734 H   0  0  0  0  0  0  0  0  0  0  0  0
  132.8692  176.7038  162.7148 H   0  0  0  0  0  0  0  0  0  0  0  0
  130.5288  178.9233  160.0253 H   0  0  0  0  0  0  0  0  0  0  0  0
  131.5103  183.3028  159.6999 H   0  0  0  0  0  0  0  0  0  0  0  0
  130.1438  183.9919  160.6722 H   0  0  0  0  0  0  0  0  0  0  0  0
  133.1336  184.5964  160.9903 H   0  0  0  0  0  0  0  0  0  0  0  0
  131.8295  185.7171  160.4281 H   0  0  0  0  0  0  0  0  0  0  0  0
  130.8240  185.6420  162.5690 H   0  0  0  0  0  0  0  0  0  0  0  0
  133.2632  186.3164  163.7567 H   0  0  0  0  0  0  0  0  0  0  0  0
  133.1158  186.9636  162.0922 H   0  0  0  0  0  0  0  0  0  0  0  0
  130.9140  187.1221  164.2169 H   0  0  0  0  0  0  0  0  0  0  0  0
  132.8730  188.3920  164.6710 H   0  0  0  0  0  0  0  0  0  0  0  0
  130.8760  189.0941  162.0436 H   0  0  0  0  0  0  0  0  0  0  0  0
  130.5211  187.3454  161.5975 H   0  0  0  0  0  0  0  0  0  0  0  0
  128.5096  188.8474  162.1588 H   0  0  0  0  0  0  0  0  0  0  0  0
  128.7558  186.2493  162.1269 H   0  0  0  0  0  0  0  0  0  0  0  0
  128.6140  186.4385  163.9354 H   0  0  0  0  0  0  0  0  0  0  0  0
  126.5078  185.7012  164.5644 H   0  0  0  0  0  0  0  0  0  0  0  0
  124.0300  185.8856  164.3994 H   0  0  0  0  0  0  0  0  0  0  0  0
  122.9932  187.2446  162.5856 H   0  0  0  0  0  0  0  0  0  0  0  0
  124.4401  188.4172  160.9281 H   0  0  0  0  0  0  0  0  0  0  0  0
  126.9187  188.2383  161.0847 H   0  0  0  0  0  0  0  0  0  0  0  0
  128.6010  187.2380  165.2460 H   0  0  0  0  0  0  0  0  0  0  0  0
  127.8977  189.4449  166.5620 H   0  0  0  0  0  0  0  0  0  0  0  0
  127.2490  186.3374  166.9148 H   0  0  0  0  0  0  0  0  0  0  0  0
  127.3134  184.8770  168.9478 H   0  0  0  0  0  0  0  0  0  0  0  0
  128.7223  185.5010  170.9062 H   0  0  0  0  0  0  0  0  0  0  0  0
  130.0729  187.6069  170.8728 H   0  0  0  0  0  0  0  0  0  0  0  0
  129.5812  190.2410  169.1548 H   0  0  0  0  0  0  0  0  0  0  0  0
  131.1407  189.4758  169.0738 H   0  0  0  0  0  0  0  0  0  0  0  0
  130.0037  190.6034  166.7908 H   0  0  0  0  0  0  0  0  0  0  0  0
  131.7550  189.7840  166.2040 H   0  0  0  0  0  0  0  0  0  0  0  0
  1  2  1  0
  2  3  1  0
  2  4  1  0
  2  5  1  0
  5  6  1  0
  6  7  2  0
  6  8  1  0
  8  9  1  0
  9 10  1  0
 10 11  1  0
 11 12  1  0
 12 13  2  0
 13 14  1  0
 14 15  2  0
 15 16  1  0
 16 17  2  0
 10 18  1  0
 18 19  1  0
 19 20  1  0
 20 21  1  0
 21 22  1  0
 22 23  1  0
 22 24  1  0
 24 25  1  0
 25 26  1  0
 26 27  1  0
 27 28  2  0
 28 29  1  0
 29 30  2  0
 30 31  1  0
 31 32  2  0
 25 33  1  0
 33 34  2  0
 33 35  1  0
 35 36  1  0
 36 37  1  0
 37 38  2  0
 38 39  1  0
 39 40  2  0
 40 41  1  0
 41 42  2  0
 42 43  1  0
 43 44  1  0
 44 45  1  0
 20  8  1  0
 32 27  1  0
 44 36  1  0
 17 12  1  0
 42 37  1  0
  1 46  1  0
  1 47  1  0
  1 48  1  0
  3 49  1  0
  3 50  1  0
  3 51  1  0
  4 52  1  0
  4 53  1  0
  4 54  1  0
  5 55  1  0
  8 56  1  1
  9 57  1  0
  9 58  1  0
 10 59  1  0
 11 60  1  0
 11 61  1  0
 13 62  1  0
 14 63  1  0
 15 64  1  0
 17 65  1  0
 18 66  1  0
 18 67  1  0
 19 68  1  0
 19 69  1  0
 20 70  1  0
 21 71  1  0
 21 72  1  0
 22 73  1  1
 23 74  1  0
 24 75  1  0
 24 76  1  0
 25 77  1  6
 26 78  1  0
 26 79  1  0
 28 80  1  0
 29 81  1  0
 30 82  1  0
 31 83  1  0
 32 84  1  0
 35 85  1  0
 36 86  1  6
 38 87  1  0
 39 88  1  0
 40 89  1  0
 41 90  1  0
 43 91  1  0
 43 92  1  0
 44 93  1  1
 45 94  1  0
M  CHG  2  10   1  20   1
M  END
>  <meeko>  (6) 
{"is_sidechain": [false], "free_energy": -7.427, "intermolecular_energy": -13.008, "internal_energy": -0.785}

$$$$
REF_CHEMBL115__W_7USX_LOCAL_COMPLETE__e8__s20260927
     RDKit          3D

 94 98  0  0  0  0  0  0  0  0999 V2000
  122.9050  187.8450  169.7940 C   0  0  0  0  0  0  0  0  0  0  0  0
  123.7310  186.7310  170.4600 C   0  0  0  0  0  0  0  0  0  0  0  0
  122.7900  185.5520  170.7550 C   0  0  0  0  0  0  0  0  0  0  0  0
  124.3230  187.2800  171.7660 C   0  0  0  0  0  0  0  0  0  0  0  0
  124.8160  186.3260  169.5320 N   0  0  0  0  0  0  0  0  0  0  0  0
  125.7820  185.4000  169.8290 C   0  0  0  0  0  0  0  0  0  0  0  0
  125.8790  184.8070  170.9070 O   0  0  0  0  0  0  0  0  0  0  0  0
  126.8730  185.1700  168.7670 C   0  0  2  0  0  0  0  0  0  0  0  0
  127.8060  184.0370  169.2930 C   0  0  0  0  0  0  0  0  0  0  0  0
  128.5710  184.4740  170.5510 N   0  0  0  0  0  0  0  0  0  0  0  0
  129.3810  183.3400  171.1560 C   0  0  0  0  0  0  0  0  0  0  0  0
  128.5590  182.4150  171.9970 C   0  0  0  0  0  0  0  0  0  0  0  0
  127.9760  182.8330  173.2000 C   0  0  0  0  0  0  0  0  0  0  0  0
  127.2540  181.9210  173.9680 C   0  0  0  0  0  0  0  0  0  0  0  0
  127.1470  180.6190  173.5140 C   0  0  0  0  0  0  0  0  0  0  0  0
  127.7050  180.1880  172.3630 N   0  0  0  0  0  0  0  0  0  0  0  0
  128.3710  181.0900  171.6190 C   0  0  0  0  0  0  0  0  0  0  0  0
  129.3670  185.7580  170.3430 C   0  0  0  0  0  0  0  0  0  0  0  0
  128.4810  186.8980  169.7750 C   0  0  0  0  0  0  0  0  0  0  0  0
  127.7290  186.4430  168.5330 N   0  0  0  0  0  0  0  0  0  0  0  0
  126.9270  187.5540  167.8570 C   0  0  0  0  0  0  0  0  0  0  0  0
  126.2900  186.9960  166.5670 C   0  0  1  0  0  0  0  0  0  0  0  0
  124.8610  187.1940  166.7030 O   0  0  0  0  0  0  0  0  0  0  0  0
  126.7660  187.6550  165.2580 C   0  0  0  0  0  0  0  0  0  0  0  0
  126.6500  189.1930  165.2210 C   0  0  1  0  0  0  0  0  0  0  0  0
  127.9710  189.8390  164.7560 C   0  0  0  0  0  0  0  0  0  0  0  0
  128.8640  188.8840  164.0040 C   0  0  0  0  0  0  0  0  0  0  0  0
  128.5420  188.4830  162.7000 C   0  0  0  0  0  0  0  0  0  0  0  0
  129.3780  187.6120  162.0000 C   0  0  0  0  0  0  0  0  0  0  0  0
  130.5400  187.1290  162.5950 C   0  0  0  0  0  0  0  0  0  0  0  0
  130.8660  187.5130  163.8940 C   0  0  0  0  0  0  0  0  0  0  0  0
  130.0330  188.3840  164.5970 C   0  0  0  0  0  0  0  0  0  0  0  0
  125.4630  189.5970  164.3440 C   0  0  0  0  0  0  0  0  0  0  0  0
  125.5870  190.4900  163.5060 O   0  0  0  0  0  0  0  0  0  0  0  0
  124.2490  189.0520  164.6700 N   0  0  0  0  0  0  0  0  0  0  0  0
  123.0560  189.3180  163.8850 C   0  0  1  0  0  0  0  0  0  0  0  0
  122.0400  188.2100  163.9870 C   0  0  0  0  0  0  0  0  0  0  0  0
  122.2450  186.8380  163.9310 C   0  0  0  0  0  0  0  0  0  0  0  0
  121.1340  185.9940  164.0070 C   0  0  0  0  0  0  0  0  0  0  0  0
  119.8390  186.5230  164.1140 C   0  0  0  0  0  0  0  0  0  0  0  0
  119.6350  187.9030  164.1380 C   0  0  0  0  0  0  0  0  0  0  0  0
  120.7420  188.7330  164.0770 C   0  0  0  0  0  0  0  0  0  0  0  0
  120.7490  190.2310  164.0190 C   0  0  0  0  0  0  0  0  0  0  0  0
  122.2130  190.5380  164.3830 C   0  0  1  0  0  0  0  0  0  0  0  0
  122.3160  190.7360  165.8200 O   0  0  0  0  0  0  0  0  0  0  0  0
  122.4407  188.4711  170.5702 H   0  0  0  0  0  0  0  0  0  0  0  0
  123.5633  188.4651  169.1678 H   0  0  0  0  0  0  0  0  0  0  0  0
  122.1204  187.3952  169.1678 H   0  0  0  0  0  0  0  0  0  0  0  0
  122.6897  185.4263  171.8432 H   0  0  0  0  0  0  0  0  0  0  0  0
  121.8015  185.7532  170.3165 H   0  0  0  0  0  0  0  0  0  0  0  0
  123.2054  184.6327  170.3165 H   0  0  0  0  0  0  0  0  0  0  0  0
  123.8176  186.8113  172.6232 H   0  0  0  0  0  0  0  0  0  0  0  0
  125.3985  187.0525  171.8052 H   0  0  0  0  0  0  0  0  0  0  0  0
  124.1771  188.3696  171.8052 H   0  0  0  0  0  0  0  0  0  0  0  0
  124.8340  186.8210  168.6420 H   0  0  0  0  0  0  0  0  0  0  0  0
  126.3926  184.9055  167.8135 H   0  0  0  0  0  0  0  0  0  0  0  0
  127.1951  183.1548  169.5350 H   0  0  0  0  0  0  0  0  0  0  0  0
  128.5398  183.8028  168.5077 H   0  0  0  0  0  0  0  0  0  0  0  0
  127.8330  184.6880  171.2580 H   0  0  0  0  0  0  0  0  0  0  0  0
  129.8354  182.7599  170.3393 H   0  0  0  0  0  0  0  0  0  0  0  0
  130.1396  183.7924  171.8117 H   0  0  0  0  0  0  0  0  0  0  0  0
  128.0872  183.8743  173.5365 H   0  0  0  0  0  0  0  0  0  0  0  0
  126.7809  182.2293  174.9120 H   0  0  0  0  0  0  0  0  0  0  0  0
  126.5789  179.8988  174.1211 H   0  0  0  0  0  0  0  0  0  0  0  0
  128.7906  180.7605  170.6570 H   0  0  0  0  0  0  0  0  0  0  0  0
  129.7845  186.0788  171.3088 H   0  0  0  0  0  0  0  0  0  0  0  0
  130.1666  185.5513  169.6164 H   0  0  0  0  0  0  0  0  0  0  0  0
  127.7547  187.2042  170.5422 H   0  0  0  0  0  0  0  0  0  0  0  0
  129.1319  187.7407  169.4991 H   0  0  0  0  0  0  0  0  0  0  0  0
  128.4390  186.2510  167.7960 H   0  0  0  0  0  0  0  0  0  0  0  0
  126.1369  187.9053  168.5370 H   0  0  0  0  0  0  0  0  0  0  0  0
  127.5905  188.3962  167.6111 H   0  0  0  0  0  0  0  0  0  0  0  0
  126.5910  185.9420  166.4756 H   0  0  0  0  0  0  0  0  0  0  0  0
  124.6640  187.2140  167.6650 H   0  0  0  0  0  0  0  0  0  0  0  0
  127.8226  187.3890  165.1069 H   0  0  0  0  0  0  0  0  0  0  0  0
  126.1024  187.2781  164.4658 H   0  0  0  0  0  0  0  0  0  0  0  0
  126.4635  189.5684  166.2380 H   0  0  0  0  0  0  0  0  0  0  0  0
  127.7331  190.6877  164.0979 H   0  0  0  0  0  0  0  0  0  0  0  0
  128.5158  190.1569  165.6572 H   0  0  0  0  0  0  0  0  0  0  0  0
  127.6234  188.8577  162.2249 H   0  0  0  0  0  0  0  0  0  0  0  0
  129.1181  187.3065  160.9757 H   0  0  0  0  0  0  0  0  0  0  0  0
  131.1997  186.4453  162.0406 H   0  0  0  0  0  0  0  0  0  0  0  0
  131.7821  187.1287  164.3664 H   0  0  0  0  0  0  0  0  0  0  0  0
  130.2947  188.6807  165.6234 H   0  0  0  0  0  0  0  0  0  0  0  0
  124.1930  188.3130  165.3570 H   0  0  0  0  0  0  0  0  0  0  0  0
  123.4806  189.4681  162.8814 H   0  0  0  0  0  0  0  0  0  0  0  0
  123.2593  186.4247  163.8291 H   0  0  0  0  0  0  0  0  0  0  0  0
  121.2762  184.9035  163.9827 H   0  0  0  0  0  0  0  0  0  0  0  0
  118.9765  185.8434  164.1796 H   0  0  0  0  0  0  0  0  0  0  0  0
  118.6199  188.3215  164.2038 H   0  0  0  0  0  0  0  0  0  0  0  0
  120.4989  190.5965  163.0121 H   0  0  0  0  0  0  0  0  0  0  0  0
  120.0101  190.7116  164.6771 H   0  0  0  0  0  0  0  0  0  0  0  0
  122.5855  191.4585  163.9099 H   0  0  0  0  0  0  0  0  0  0  0  0
  122.6490  189.8770  166.1560 H   0  0  0  0  0  0  0  0  0  0  0  0
  1  2  1  0
  2  3  1  0
  2  4  1  0
  2  5  1  0
  5  6  1  0
  6  7  2  0
  6  8  1  0
  8  9  1  0
  9 10  1  0
 10 11  1  0
 11 12  1  0
 12 13  2  0
 13 14  1  0
 14 15  2  0
 15 16  1  0
 16 17  2  0
 10 18  1  0
 18 19  1  0
 19 20  1  0
 20 21  1  0
 21 22  1  0
 22 23  1  0
 22 24  1  0
 24 25  1  0
 25 26  1  0
 26 27  1  0
 27 28  2  0
 28 29  1  0
 29 30  2  0
 30 31  1  0
 31 32  2  0
 25 33  1  0
 33 34  2  0
 33 35  1  0
 35 36  1  0
 36 37  1  0
 37 38  2  0
 38 39  1  0
 39 40  2  0
 40 41  1  0
 41 42  2  0
 42 43  1  0
 43 44  1  0
 44 45  1  0
 20  8  1  0
 32 27  1  0
 44 36  1  0
 17 12  1  0
 42 37  1  0
  1 46  1  0
  1 47  1  0
  1 48  1  0
  3 49  1  0
  3 50  1  0
  3 51  1  0
  4 52  1  0
  4 53  1  0
  4 54  1  0
  5 55  1  0
  8 56  1  6
  9 57  1  0
  9 58  1  0
 10 59  1  0
 11 60  1  0
 11 61  1  0
 13 62  1  0
 14 63  1  0
 15 64  1  0
 17 65  1  0
 18 66  1  0
 18 67  1  0
 19 68  1  0
 19 69  1  0
 20 70  1  0
 21 71  1  0
 21 72  1  0
 22 73  1  6
 23 74  1  0
 24 75  1  0
 24 76  1  0
 25 77  1  1
 26 78  1  0
 26 79  1  0
 28 80  1  0
 29 81  1  0
 30 82  1  0
 31 83  1  0
 32 84  1  0
 35 85  1  0
 36 86  1  6
 38 87  1  0
 39 88  1  0
 40 89  1  0
 41 90  1  0
 43 91  1  0
 43 92  1  0
 44 93  1  6
 45 94  1  0
M  CHG  2  10   1  20   1
M  END
>  <meeko>  (7) 
{"is_sidechain": [false], "free_energy": -7.254, "intermolecular_energy": -11.536, "internal_energy": -1.951}

$$$$
REF_CHEMBL115__W_7USX_LOCAL_COMPLETE__e8__s20260927
     RDKit          3D

 94 98  0  0  0  0  0  0  0  0999 V2000
  125.1810  181.8600  184.9220 C   0  0  0  0  0  0  0  0  0  0  0  0
  125.8920  180.8080  184.0520 C   0  0  0  0  0  0  0  0  0  0  0  0
  126.1580  179.5700  184.9240 C   0  0  0  0  0  0  0  0  0  0  0  0
  127.2170  181.4050  183.5550 C   0  0  0  0  0  0  0  0  0  0  0  0
  125.0150  180.4710  182.9040 N   0  0  0  0  0  0  0  0  0  0  0  0
  125.2570  179.4540  182.0180 C   0  0  0  0  0  0  0  0  0  0  0  0
  126.2410  178.7100  182.0560 O   0  0  0  0  0  0  0  0  0  0  0  0
  124.2740  179.3090  180.8420 C   0  0  2  0  0  0  0  0  0  0  0  0
  123.5340  177.9470  181.0170 C   0  0  0  0  0  0  0  0  0  0  0  0
  124.4960  176.7600  180.8710 N   0  0  0  0  0  0  0  0  0  0  0  0
  123.8210  175.4310  181.1720 C   0  0  0  0  0  0  0  0  0  0  0  0
  123.6530  175.1780  182.6360 C   0  0  0  0  0  0  0  0  0  0  0  0
  122.8650  174.1240  183.1180 C   0  0  0  0  0  0  0  0  0  0  0  0
  122.7070  173.9560  184.4930 C   0  0  0  0  0  0  0  0  0  0  0  0
  123.3320  174.8520  185.3410 C   0  0  0  0  0  0  0  0  0  0  0  0
  124.0900  175.8790  184.9040 N   0  0  0  0  0  0  0  0  0  0  0  0
  124.2570  176.0070  183.5750 C   0  0  0  0  0  0  0  0  0  0  0  0
  125.2630  176.7770  179.5530 C   0  0  0  0  0  0  0  0  0  0  0  0
  125.9760  178.1350  179.3210 C   0  0  0  0  0  0  0  0  0  0  0  0
  125.0070  179.2980  179.4740 N   0  0  0  0  0  0  0  0  0  0  0  0
  125.6200  180.6580  179.1450 C   0  0  0  0  0  0  0  0  0  0  0  0
  125.2970  181.0090  177.6770 C   0  0  1  0  0  0  0  0  0  0  0  0
  123.8900  180.7120  177.4910 O   0  0  0  0  0  0  0  0  0  0  0  0
  125.5570  182.4740  177.2770 C   0  0  0  0  0  0  0  0  0  0  0  0
  126.9330  182.7410  176.6330 C   0  0  1  0  0  0  0  0  0  0  0  0
  126.7830  183.2090  175.1720 C   0  0  0  0  0  0  0  0  0  0  0  0
  127.5060  182.3220  174.1890 C   0  0  0  0  0  0  0  0  0  0  0  0
  127.0380  181.0290  173.9170 C   0  0  0  0  0  0  0  0  0  0  0  0
  127.6990  180.2160  172.9950 C   0  0  0  0  0  0  0  0  0  0  0  0
  128.8360  180.6820  172.3400 C   0  0  0  0  0  0  0  0  0  0  0  0
  129.3150  181.9630  172.6090 C   0  0  0  0  0  0  0  0  0  0  0  0
  128.6570  182.7780  173.5290 C   0  0  0  0  0  0  0  0  0  0  0  0
  127.7130  183.7420  177.4880 C   0  0  0  0  0  0  0  0  0  0  0  0
  128.6440  184.3820  176.9990 O   0  0  0  0  0  0  0  0  0  0  0  0
  127.4420  183.7410  178.8310 N   0  0  0  0  0  0  0  0  0  0  0  0
  128.0790  184.6760  179.7400 C   0  0  1  0  0  0  0  0  0  0  0  0
  127.3410  184.8040  181.0470 C   0  0  0  0  0  0  0  0  0  0  0  0
  125.9740  184.9210  181.2640 C   0  0  0  0  0  0  0  0  0  0  0  0
  125.5170  185.0700  182.5760 C   0  0  0  0  0  0  0  0  0  0  0  0
  126.4200  185.1240  183.6470 C   0  0  0  0  0  0  0  0  0  0  0  0
  127.7940  185.0380  183.4230 C   0  0  0  0  0  0  0  0  0  0  0  0
  128.2400  184.8760  182.1210 C   0  0  0  0  0  0  0  0  0  0  0  0
  129.6620  184.8300  181.6500 C   0  0  0  0  0  0  0  0  0  0  0  0
  129.4920  184.2300  180.2430 C   0  0  1  0  0  0  0  0  0  0  0  0
  129.6230  182.7840  180.3210 O   0  0  0  0  0  0  0  0  0  0  0  0
  125.3399  181.6249  185.9848 H   0  0  0  0  0  0  0  0  0  0  0  0
  125.5916  182.8564  184.7015 H   0  0  0  0  0  0  0  0  0  0  0  0
  124.1034  181.8505  184.7015 H   0  0  0  0  0  0  0  0  0  0  0  0
  126.0979  179.8498  185.9861 H   0  0  0  0  0  0  0  0  0  0  0  0
  125.4051  178.7985  184.7049 H   0  0  0  0  0  0  0  0  0  0  0  0
  127.1613  179.1759  184.7049 H   0  0  0  0  0  0  0  0  0  0  0  0
  127.8393  181.6854  184.4176 H   0  0  0  0  0  0  0  0  0  0  0  0
  127.7493  180.6597  182.9457 H   0  0  0  0  0  0  0  0  0  0  0  0
  127.0114  182.2975  182.9457 H   0  0  0  0  0  0  0  0  0  0  0  0
  124.2120  181.0850  182.7760 H   0  0  0  0  0  0  0  0  0  0  0  0
  123.5819  180.1639  180.8478 H   0  0  0  0  0  0  0  0  0  0  0  0
  123.0763  177.9150  182.0167 H   0  0  0  0  0  0  0  0  0  0  0  0
  122.7675  177.8679  180.2320 H   0  0  0  0  0  0  0  0  0  0  0  0
  125.2010  176.8840  181.6310 H   0  0  0  0  0  0  0  0  0  0  0  0
  122.8276  175.4278  180.6997 H   0  0  0  0  0  0  0  0  0  0  0  0
  124.4685  174.6360  180.7734 H   0  0  0  0  0  0  0  0  0  0  0  0
  122.3743  173.4337  182.4160 H   0  0  0  0  0  0  0  0  0  0  0  0
  122.0999  173.1308  184.8936 H   0  0  0  0  0  0  0  0  0  0  0  0
  123.2048  174.7208  186.4257 H   0  0  0  0  0  0  0  0  0  0  0  0
  124.9091  176.8142  183.2101 H   0  0  0  0  0  0  0  0  0  0  0  0
  126.0174  175.9766  179.5693 H   0  0  0  0  0  0  0  0  0  0  0  0
  124.5431  176.6239  178.7355 H   0  0  0  0  0  0  0  0  0  0  0  0
  126.7871  178.2446  180.0559 H   0  0  0  0  0  0  0  0  0  0  0  0
  126.3766  178.1477  178.2966 H   0  0  0  0  0  0  0  0  0  0  0  0
  124.3070  179.2180  178.7080 H   0  0  0  0  0  0  0  0  0  0  0  0
  125.1962  181.4249  179.8100 H   0  0  0  0  0  0  0  0  0  0  0  0
  126.7100  180.6205  179.2885 H   0  0  0  0  0  0  0  0  0  0  0  0
  125.9701  180.4196  177.0370 H   0  0  0  0  0  0  0  0  0  0  0  0
  123.7940  179.7350  177.5430 H   0  0  0  0  0  0  0  0  0  0  0  0
  124.7802  182.7742  176.5584 H   0  0  0  0  0  0  0  0  0  0  0  0
  125.5373  183.0551  178.2108 H   0  0  0  0  0  0  0  0  0  0  0  0
  127.5064  181.8029  176.5990 H   0  0  0  0  0  0  0  0  0  0  0  0
  125.7134  183.2172  174.9151 H   0  0  0  0  0  0  0  0  0  0  0  0
  127.2315  184.2109  175.1010 H   0  0  0  0  0  0  0  0  0  0  0  0
  126.1432  180.6523  174.4341 H   0  0  0  0  0  0  0  0  0  0  0  0
  127.3208  179.2046  172.7852 H   0  0  0  0  0  0  0  0  0  0  0  0
  129.3548  180.0408  171.6122 H   0  0  0  0  0  0  0  0  0  0  0  0
  130.2144  182.3318  172.0941 H   0  0  0  0  0  0  0  0  0  0  0  0
  129.0432  183.7863  173.7391 H   0  0  0  0  0  0  0  0  0  0  0  0
  126.6610  183.2090  179.1900 H   0  0  0  0  0  0  0  0  0  0  0  0
  128.1070  185.5910  179.1301 H   0  0  0  0  0  0  0  0  0  0  0  0
  125.2669  184.8969  180.4217 H   0  0  0  0  0  0  0  0  0  0  0  0
  124.4370  185.1458  182.7706 H   0  0  0  0  0  0  0  0  0  0  0  0
  126.0413  185.2352  184.6738 H   0  0  0  0  0  0  0  0  0  0  0  0
  128.5061  185.0973  184.2593 H   0  0  0  0  0  0  0  0  0  0  0  0
  130.1055  185.8358  181.6084 H   0  0  0  0  0  0  0  0  0  0  0  0
  130.3363  184.2594  182.3055 H   0  0  0  0  0  0  0  0  0  0  0  0
  130.2596  184.5792  179.5367 H   0  0  0  0  0  0  0  0  0  0  0  0
  130.2200  182.6400  181.0860 H   0  0  0  0  0  0  0  0  0  0  0  0
  1  2  1  0
  2  3  1  0
  2  4  1  0
  2  5  1  0
  5  6  1  0
  6  7  2  0
  6  8  1  0
  8  9  1  0
  9 10  1  0
 10 11  1  0
 11 12  1  0
 12 13  2  0
 13 14  1  0
 14 15  2  0
 15 16  1  0
 16 17  2  0
 10 18  1  0
 18 19  1  0
 19 20  1  0
 20 21  1  0
 21 22  1  0
 22 23  1  0
 22 24  1  0
 24 25  1  0
 25 26  1  0
 26 27  1  0
 27 28  2  0
 28 29  1  0
 29 30  2  0
 30 31  1  0
 31 32  2  0
 25 33  1  0
 33 34  2  0
 33 35  1  0
 35 36  1  0
 36 37  1  0
 37 38  2  0
 38 39  1  0
 39 40  2  0
 40 41  1  0
 41 42  2  0
 42 43  1  0
 43 44  1  0
 44 45  1  0
 20  8  1  0
 32 27  1  0
 44 36  1  0
 17 12  1  0
 42 37  1  0
  1 46  1  0
  1 47  1  0
  1 48  1  0
  3 49  1  0
  3 50  1  0
  3 51  1  0
  4 52  1  0
  4 53  1  0
  4 54  1  0
  5 55  1  0
  8 56  1  6
  9 57  1  0
  9 58  1  0
 10 59  1  0
 11 60  1  0
 11 61  1  0
 13 62  1  0
 14 63  1  0
 15 64  1  0
 17 65  1  0
 18 66  1  0
 18 67  1  0
 19 68  1  0
 19 69  1  0
 20 70  1  0
 21 71  1  0
 21 72  1  0
 22 73  1  6
 23 74  1  0
 24 75  1  0
 24 76  1  0
 25 77  1  6
 26 78  1  0
 26 79  1  0
 28 80  1  0
 29 81  1  0
 30 82  1  0
 31 83  1  0
 32 84  1  0
 35 85  1  0
 36 86  1  6
 38 87  1  0
 39 88  1  0
 40 89  1  0
 41 90  1  0
 43 91  1  0
 43 92  1  0
 44 93  1  6
 45 94  1  0
M  CHG  2  10   1  20   1
M  END
>  <meeko>  (8) 
{"is_sidechain": [false], "free_energy": -7.241, "intermolecular_energy": -11.326, "internal_energy": -2.139}

$$$$
REF_CHEMBL115__W_7USX_LOCAL_COMPLETE__e8__s20260927
     RDKit          3D

 94 98  0  0  0  0  0  0  0  0999 V2000
  126.1180  181.6890  183.8220 C   0  0  0  0  0  0  0  0  0  0  0  0
  126.5230  183.0780  183.2970 C   0  0  0  0  0  0  0  0  0  0  0  0
  126.8170  183.9770  184.5090 C   0  0  0  0  0  0  0  0  0  0  0  0
  125.3520  183.6490  182.4830 C   0  0  0  0  0  0  0  0  0  0  0  0
  127.7240  182.9310  182.4400 N   0  0  0  0  0  0  0  0  0  0  0  0
  128.5250  183.9700  182.0450 C   0  0  0  0  0  0  0  0  0  0  0  0
  128.3340  185.1540  182.3360 O   0  0  0  0  0  0  0  0  0  0  0  0
  129.6830  183.6290  181.0880 C   0  0  2  0  0  0  0  0  0  0  0  0
  130.9510  184.3750  181.6050 C   0  0  0  0  0  0  0  0  0  0  0  0
  130.7920  185.8990  181.5000 N   0  0  0  0  0  0  0  0  0  0  0  0
  131.9600  186.6450  182.1230 C   0  0  0  0  0  0  0  0  0  0  0  0
  132.9980  187.0470  181.1230 C   0  0  0  0  0  0  0  0  0  0  0  0
  133.7800  186.1020  180.4480 C   0  0  0  0  0  0  0  0  0  0  0  0
  134.7620  186.5310  179.5570 C   0  0  0  0  0  0  0  0  0  0  0  0
  134.9400  187.8910  179.3780 C   0  0  0  0  0  0  0  0  0  0  0  0
  134.2060  188.8230  180.0220 N   0  0  0  0  0  0  0  0  0  0  0  0
  133.2410  188.3900  180.8540 C   0  0  0  0  0  0  0  0  0  0  0  0
  130.4470  186.3620  180.0880 C   0  0  0  0  0  0  0  0  0  0  0  0
  129.2160  185.6080  179.5210 C   0  0  0  0  0  0  0  0  0  0  0  0
  129.3920  184.1010  179.6390 N   0  0  0  0  0  0  0  0  0  0  0  0
  128.2650  183.2970  178.9920 C   0  0  0  0  0  0  0  0  0  0  0  0
  127.7380  184.0710  177.7660 C   0  0  1  0  0  0  0  0  0  0  0  0
  128.5880  183.6950  176.6540 O   0  0  0  0  0  0  0  0  0  0  0  0
  126.2700  183.7940  177.3920 C   0  0  0  0  0  0  0  0  0  0  0  0
  125.9500  182.3250  177.0420 C   0  0  1  0  0  0  0  0  0  0  0  0
  124.8640  181.7540  177.9750 C   0  0  0  0  0  0  0  0  0  0  0  0
  125.3190  180.5340  178.7350 C   0  0  0  0  0  0  0  0  0  0  0  0
  126.0620  180.6650  179.9170 C   0  0  0  0  0  0  0  0  0  0  0  0
  126.4680  179.5350  180.6270 C   0  0  0  0  0  0  0  0  0  0  0  0
  126.1410  178.2630  180.1650 C   0  0  0  0  0  0  0  0  0  0  0  0
  125.4100  178.1190  178.9870 C   0  0  0  0  0  0  0  0  0  0  0  0
  125.0020  179.2470  178.2740 C   0  0  0  0  0  0  0  0  0  0  0  0
  125.5640  182.2230  175.5650 C   0  0  0  0  0  0  0  0  0  0  0  0
  124.4540  181.7980  175.2430 O   0  0  0  0  0  0  0  0  0  0  0  0
  126.5620  182.4460  174.6550 N   0  0  0  0  0  0  0  0  0  0  0  0
  126.3120  182.4280  173.2240 C   0  0  1  0  0  0  0  0  0  0  0  0
  127.1720  183.4110  172.4740 C   0  0  0  0  0  0  0  0  0  0  0  0
  127.4690  184.7280  172.7990 C   0  0  0  0  0  0  0  0  0  0  0  0
  128.2650  185.4680  171.9220 C   0  0  0  0  0  0  0  0  0  0  0  0
  128.7340  184.9000  170.7280 C   0  0  0  0  0  0  0  0  0  0  0  0
  128.4070  183.5870  170.3900 C   0  0  0  0  0  0  0  0  0  0  0  0
  127.6300  182.8550  171.2710 C   0  0  0  0  0  0  0  0  0  0  0  0
  127.1080  181.4630  171.0770 C   0  0  0  0  0  0  0  0  0  0  0  0
  126.7070  181.0900  172.5160 C   0  0  1  0  0  0  0  0  0  0  0  0
  127.8250  180.4260  173.1660 O   0  0  0  0  0  0  0  0  0  0  0  0
  126.1205  181.6977  184.9220 H   0  0  0  0  0  0  0  0  0  0  0  0
  125.1098  181.4397  183.4596 H   0  0  0  0  0  0  0  0  0  0  0  0
  126.8342  180.9369  183.4596 H   0  0  0  0  0  0  0  0  0  0  0  0
  126.6330  183.4143  185.4361 H   0  0  0  0  0  0  0  0  0  0  0  0
  127.8678  184.3008  184.4790 H   0  0  0  0  0  0  0  0  0  0  0  0
  126.1605  184.8591  184.4790 H   0  0  0  0  0  0  0  0  0  0  0  0
  124.5786  184.0261  183.1682 H   0  0  0  0  0  0  0  0  0  0  0  0
  125.7131  184.4722  181.8489 H   0  0  0  0  0  0  0  0  0  0  0  0
  124.9258  182.8576  181.8489 H   0  0  0  0  0  0  0  0  0  0  0  0
  127.9100  181.9840  182.1110 H   0  0  0  0  0  0  0  0  0  0  0  0
  129.8201  182.5378  181.0675 H   0  0  0  0  0  0  0  0  0  0  0  0
  131.1194  184.1053  182.6580 H   0  0  0  0  0  0  0  0  0  0  0  0
  131.8056  184.0743  180.9811 H   0  0  0  0  0  0  0  0  0  0  0  0
  129.9700  186.1300  182.1010 H   0  0  0  0  0  0  0  0  0  0  0  0
  131.5755  187.5518  182.6127 H   0  0  0  0  0  0  0  0  0  0  0  0
  132.4408  185.9632  182.8399 H   0  0  0  0  0  0  0  0  0  0  0  0
  133.6203  185.0273  180.6199 H   0  0  0  0  0  0  0  0  0  0  0  0
  135.3809  185.8053  179.0091 H   0  0  0  0  0  0  0  0  0  0  0  0
  135.7172  188.2294  178.6770 H   0  0  0  0  0  0  0  0  0  0  0  0
  132.6082  189.1409  181.3497 H   0  0  0  0  0  0  0  0  0  0  0  0
  130.2258  187.4393  180.1103 H   0  0  0  0  0  0  0  0  0  0  0  0
  131.3084  186.1494  179.4377 H   0  0  0  0  0  0  0  0  0  0  0  0
  128.3200  185.9098  180.0832 H   0  0  0  0  0  0  0  0  0  0  0  0
  129.1102  185.8643  178.4565 H   0  0  0  0  0  0  0  0  0  0  0  0
  130.1880  183.8350  179.0220 H   0  0  0  0  0  0  0  0  0  0  0  0
  128.6474  182.3162  178.6729 H   0  0  0  0  0  0  0  0  0  0  0  0
  127.4507  183.1478  179.7164 H   0  0  0  0  0  0  0  0  0  0  0  0
  127.7666  185.1429  178.0114 H   0  0  0  0  0  0  0  0  0  0  0  0
  129.3940  183.2830  177.0350 H   0  0  0  0  0  0  0  0  0  0  0  0
  125.6399  184.0862  178.2450 H   0  0  0  0  0  0  0  0  0  0  0  0
  126.0706  184.3767  176.4806 H   0  0  0  0  0  0  0  0  0  0  0  0
  126.8473  181.7090  177.2016 H   0  0  0  0  0  0  0  0  0  0  0  0
  124.5802  182.5319  178.6991 H   0  0  0  0  0  0  0  0  0  0  0  0
  124.0160  181.4499  177.3438 H   0  0  0  0  0  0  0  0  0  0  0  0
  126.3267  181.6665  180.2872 H   0  0  0  0  0  0  0  0  0  0  0  0
  127.0482  179.6492  181.5545 H   0  0  0  0  0  0  0  0  0  0  0  0
  126.4589  177.3734  180.7285 H   0  0  0  0  0  0  0  0  0  0  0  0
  125.1543  177.1145  178.6188 H   0  0  0  0  0  0  0  0  0  0  0  0
  124.4276  179.1265  177.3437 H   0  0  0  0  0  0  0  0  0  0  0  0
  127.4560  182.8060  174.9600 H   0  0  0  0  0  0  0  0  0  0  0  0
  125.2322  182.6343  173.1866 H   0  0  0  0  0  0  0  0  0  0  0  0
  127.0858  185.1783  173.7266 H   0  0  0  0  0  0  0  0  0  0  0  0
  128.5270  186.5072  172.1700 H   0  0  0  0  0  0  0  0  0  0  0  0
  129.3654  185.4956  170.0523 H   0  0  0  0  0  0  0  0  0  0  0  0
  128.7580  183.1440  169.4463 H   0  0  0  0  0  0  0  0  0  0  0  0
  126.2408  181.4484  170.4004 H   0  0  0  0  0  0  0  0  0  0  0  0
  127.8281  180.7713  170.6156 H   0  0  0  0  0  0  0  0  0  0  0  0
  125.8588  180.3906  172.5541 H   0  0  0  0  0  0  0  0  0  0  0  0
  127.4650  180.1460  174.0340 H   0  0  0  0  0  0  0  0  0  0  0  0
  1  2  1  0
  2  3  1  0
  2  4  1  0
  2  5  1  0
  5  6  1  0
  6  7  2  0
  6  8  1  0
  8  9  1  0
  9 10  1  0
 10 11  1  0
 11 12  1  0
 12 13  2  0
 13 14  1  0
 14 15  2  0
 15 16  1  0
 16 17  2  0
 10 18  1  0
 18 19  1  0
 19 20  1  0
 20 21  1  0
 21 22  1  0
 22 23  1  0
 22 24  1  0
 24 25  1  0
 25 26  1  0
 26 27  1  0
 27 28  2  0
 28 29  1  0
 29 30  2  0
 30 31  1  0
 31 32  2  0
 25 33  1  0
 33 34  2  0
 33 35  1  0
 35 36  1  0
 36 37  1  0
 37 38  2  0
 38 39  1  0
 39 40  2  0
 40 41  1  0
 41 42  2  0
 42 43  1  0
 43 44  1  0
 44 45  1  0
 20  8  1  0
 32 27  1  0
 44 36  1  0
 17 12  1  0
 42 37  1  0
  1 46  1  0
  1 47  1  0
  1 48  1  0
  3 49  1  0
  3 50  1  0
  3 51  1  0
  4 52  1  0
  4 53  1  0
  4 54  1  0
  5 55  1  0
  8 56  1  6
  9 57  1  0
  9 58  1  0
 10 59  1  0
 11 60  1  0
 11 61  1  0
 13 62  1  0
 14 63  1  0
 15 64  1  0
 17 65  1  0
 18 66  1  0
 18 67  1  0
 19 68  1  0
 19 69  1  0
 20 70  1  0
 21 71  1  0
 21 72  1  0
 22 73  1  1
 23 74  1  0
 24 75  1  0
 24 76  1  0
 25 77  1  6
 26 78  1  0
 26 79  1  0
 28 80  1  0
 29 81  1  0
 30 82  1  0
 31 83  1  0
 32 84  1  0
 35 85  1  0
 36 86  1  1
 38 87  1  0
 39 88  1  0
 40 89  1  0
 41 90  1  0
 43 91  1  0
 43 92  1  0
 44 93  1  6
 45 94  1  0
M  CHG  2  10   1  20   1
M  END
>  <meeko>  (9) 
{"is_sidechain": [false], "free_energy": -7.085, "intermolecular_energy": -11.396, "internal_energy": -1.794}

$$$$
