REF_CHEMBL1397__W_7USX_LOCAL_COMPLETE__e8__s20260927
     RDKit          3D

 93 99  0  0  0  0  0  0  0  0999 V2000
  125.2270  162.7590  167.7430 C   0  0  0  0  0  0  0  0  0  0  0  0
  123.8650  163.0010  167.1050 C   0  0  0  0  0  0  0  0  0  0  0  0
  123.5940  164.4920  166.8250 C   0  0  1  0  0  0  0  0  0  0  0  0
  122.7730  164.6730  165.5240 C   0  0  2  0  0  0  0  0  0  0  0  0
  122.6570  163.3850  164.7150 C   0  0  0  0  0  0  0  0  0  0  0  0
  123.3500  165.6800  164.6870 O   0  0  0  0  0  0  0  0  0  0  0  0
  122.9270  165.1220  167.9620 N   0  0  0  0  0  0  0  0  0  0  0  0
  121.9220  164.5170  168.6740 N   0  0  0  0  0  0  0  0  0  0  0  0
  121.6320  165.3940  169.5860 C   0  0  0  0  0  0  0  0  0  0  0  0
  122.3450  166.5430  169.5580 N   0  0  0  0  0  0  0  0  0  0  0  0
  122.2240  167.6520  170.4320 C   0  0  0  0  0  0  0  0  0  0  0  0
  121.6570  168.8590  170.0140 C   0  0  0  0  0  0  0  0  0  0  0  0
  121.5390  169.9520  170.8880 C   0  0  0  0  0  0  0  0  0  0  0  0
  121.9760  169.8950  172.2160 C   0  0  0  0  0  0  0  0  0  0  0  0
  121.8520  170.9940  173.0540 N   0  0  0  0  0  0  0  0  0  0  0  0
  122.9440  171.2590  174.0160 C   0  0  0  0  0  0  0  0  0  0  0  0
  122.4660  172.1230  175.2050 C   0  0  0  0  0  0  0  0  0  0  0  0
  121.7640  173.3370  174.7500 N   0  0  0  0  0  0  0  0  0  0  0  0
  121.6320  174.4330  175.5930 C   0  0  0  0  0  0  0  0  0  0  0  0
  120.4070  175.0810  175.8120 C   0  0  0  0  0  0  0  0  0  0  0  0
  120.2920  176.1840  176.6720 C   0  0  0  0  0  0  0  0  0  0  0  0
  121.4100  176.6670  177.3450 C   0  0  0  0  0  0  0  0  0  0  0  0
  121.4420  177.7270  178.2060 O   0  0  0  0  0  0  0  0  0  0  0  0
  122.2040  177.5700  179.4030 C   0  0  0  0  0  0  0  0  0  0  0  0
  121.4110  176.6760  180.3630 C   0  0  2  0  0  0  0  0  0  0  0  0
  121.4380  177.2280  181.7680 C   0  0  0  0  0  0  0  0  0  0  0  0
  122.6610  176.7520  182.3390 O   0  0  0  0  0  0  0  0  0  0  0  0
  122.9950  175.4610  181.7670 C   0  0  1  0  0  0  0  0  0  0  0  0
  124.4640  175.4820  181.2750 C   0  0  0  0  0  0  0  0  0  0  0  0
  125.2810  176.5300  181.8550 N   0  0  0  0  0  0  0  0  0  0  0  0
  125.5380  177.7670  181.3470 C   0  0  0  0  0  0  0  0  0  0  0  0
  126.2510  178.4560  182.2080 N   0  0  0  0  0  0  0  0  0  0  0  0
  126.3780  177.5950  183.2580 C   0  0  0  0  0  0  0  0  0  0  0  0
  125.7780  176.4120  183.1020 N   0  0  0  0  0  0  0  0  0  0  0  0
  122.7760  174.3610  182.8080 C   0  0  0  0  0  0  0  0  0  0  0  0
  122.4360  173.0470  182.4380 C   0  0  0  0  0  0  0  0  0  0  0  0
  122.2270  172.0650  183.4090 C   0  0  0  0  0  0  0  0  0  0  0  0
  122.3540  172.3870  184.7550 C   0  0  0  0  0  0  0  0  0  0  0  0
  122.1530  171.4420  185.6820 F   0  0  0  0  0  0  0  0  0  0  0  0
  122.6770  173.6750  185.1530 C   0  0  0  0  0  0  0  0  0  0  0  0
  122.8800  174.6470  184.1800 C   0  0  0  0  0  0  0  0  0  0  0  0
  123.1670  175.8950  184.5760 F   0  0  0  0  0  0  0  0  0  0  0  0
  122.0240  175.2990  180.5710 C   0  0  0  0  0  0  0  0  0  0  0  0
  122.6340  176.0320  177.1530 C   0  0  0  0  0  0  0  0  0  0  0  0
  122.7400  174.9320  176.2920 C   0  0  0  0  0  0  0  0  0  0  0  0
  120.6680  173.0710  173.7930 C   0  0  0  0  0  0  0  0  0  0  0  0
  121.1430  172.2080  172.6040 C   0  0  0  0  0  0  0  0  0  0  0  0
  122.5550  168.6900  172.6240 C   0  0  0  0  0  0  0  0  0  0  0  0
  122.6750  167.5890  171.7560 C   0  0  0  0  0  0  0  0  0  0  0  0
  123.2120  166.3920  168.4880 C   0  0  0  0  0  0  0  0  0  0  0  0
  124.0580  167.1560  168.0480 O   0  0  0  0  0  0  0  0  0  0  0  0
  125.1272  162.7767  168.8383 H   0  0  0  0  0  0  0  0  0  0  0  0
  125.6115  161.7785  167.4257 H   0  0  0  0  0  0  0  0  0  0  0  0
  125.9258  163.5471  167.4257 H   0  0  0  0  0  0  0  0  0  0  0  0
  123.8196  162.4507  166.1536 H   0  0  0  0  0  0  0  0  0  0  0  0
  123.1000  162.6525  167.8144 H   0  0  0  0  0  0  0  0  0  0  0  0
  124.5626  164.9932  166.6816 H   0  0  0  0  0  0  0  0  0  0  0  0
  121.7661  164.9754  165.8475 H   0  0  0  0  0  0  0  0  0  0  0  0
  122.5798  162.5276  165.3998 H   0  0  0  0  0  0  0  0  0  0  0  0
  121.7593  163.4299  164.0809 H   0  0  0  0  0  0  0  0  0  0  0  0
  123.5483  163.2687  164.0809 H   0  0  0  0  0  0  0  0  0  0  0  0
  122.7910  165.6970  163.8800 H   0  0  0  0  0  0  0  0  0  0  0  0
  120.8507  165.2130  170.3389 H   0  0  0  0  0  0  0  0  0  0  0  0
  121.2958  168.9549  168.9794 H   0  0  0  0  0  0  0  0  0  0  0  0
  121.0880  170.8839  170.5162 H   0  0  0  0  0  0  0  0  0  0  0  0
  123.3192  170.2995  174.4015 H   0  0  0  0  0  0  0  0  0  0  0  0
  123.7363  171.8113  173.4895 H   0  0  0  0  0  0  0  0  0  0  0  0
  121.7812  171.5270  175.8261 H   0  0  0  0  0  0  0  0  0  0  0  0
  123.3506  172.4339  175.7802 H   0  0  0  0  0  0  0  0  0  0  0  0
  119.5092  174.7132  175.2937 H   0  0  0  0  0  0  0  0  0  0  0  0
  119.3147  176.6684  176.8145 H   0  0  0  0  0  0  0  0  0  0  0  0
  123.1709  177.1001  179.1698 H   0  0  0  0  0  0  0  0  0  0  0  0
  122.3914  178.5506  179.8649 H   0  0  0  0  0  0  0  0  0  0  0  0
  120.4164  176.6295  179.8954 H   0  0  0  0  0  0  0  0  0  0  0  0
  121.4239  178.3278  181.7499 H   0  0  0  0  0  0  0  0  0  0  0  0
  120.5619  176.9073  182.3508 H   0  0  0  0  0  0  0  0  0  0  0  0
  124.9224  174.5132  181.5226 H   0  0  0  0  0  0  0  0  0  0  0  0
  124.4272  175.6787  180.1934 H   0  0  0  0  0  0  0  0  0  0  0  0
  125.2003  178.1329  180.3661 H   0  0  0  0  0  0  0  0  0  0  0  0
  126.9355  177.8565  184.1695 H   0  0  0  0  0  0  0  0  0  0  0  0
  122.3337  172.7904  181.3733 H   0  0  0  0  0  0  0  0  0  0  0  0
  121.9627  171.0401  183.1094 H   0  0  0  0  0  0  0  0  0  0  0  0
  122.7711  173.9237  186.2204 H   0  0  0  0  0  0  0  0  0  0  0  0
  122.5707  174.9806  179.6711 H   0  0  0  0  0  0  0  0  0  0  0  0
  121.2579  174.5338  180.7651 H   0  0  0  0  0  0  0  0  0  0  0  0
  123.5263  176.3975  177.6824 H   0  0  0  0  0  0  0  0  0  0  0  0
  123.7186  174.4470  176.1610 H   0  0  0  0  0  0  0  0  0  0  0  0
  119.8586  172.5413  174.3167 H   0  0  0  0  0  0  0  0  0  0  0  0
  120.3174  174.0356  173.3973 H   0  0  0  0  0  0  0  0  0  0  0  0
  120.2672  171.9086  172.0095 H   0  0  0  0  0  0  0  0  0  0  0  0
  121.8425  172.8089  172.0044 H   0  0  0  0  0  0  0  0  0  0  0  0
  122.9281  168.5996  173.6548 H   0  0  0  0  0  0  0  0  0  0  0  0
  123.1327  166.6594  172.1254 H   0  0  0  0  0  0  0  0  0  0  0  0
  1  2  1  0
  2  3  1  0
  3  4  1  0
  4  5  1  0
  4  6  1  0
  3  7  1  0
  7  8  1  0
  8  9  2  0
  9 10  1  0
 10 11  1  0
 11 12  2  0
 12 13  1  0
 13 14  2  0
 14 15  1  0
 15 16  1  0
 16 17  1  0
 17 18  1  0
 18 19  1  0
 19 20  2  0
 20 21  1  0
 21 22  2  0
 22 23  1  0
 23 24  1  0
 24 25  1  0
 25 26  1  0
 26 27  1  0
 27 28  1  0
 28 29  1  6
 29 30  1  0
 30 31  1  0
 31 32  2  0
 32 33  1  0
 33 34  2  0
 28 35  1  0
 35 36  2  0
 36 37  1  0
 37 38  2  0
 38 39  1  0
 38 40  1  0
 40 41  2  0
 41 42  1  0
 28 43  1  0
 22 44  1  0
 44 45  2  0
 18 46  1  0
 46 47  1  0
 14 48  1  0
 48 49  2  0
 10 50  1  0
 50 51  2  0
 50  7  1  0
 49 11  1  0
 47 15  1  0
 45 19  1  0
 43 25  1  0
 34 30  1  0
 41 35  1  0
  1 52  1  0
  1 53  1  0
  1 54  1  0
  2 55  1  0
  2 56  1  0
  3 57  1  6
  4 58  1  1
  5 59  1  0
  5 60  1  0
  5 61  1  0
  6 62  1  0
  9 63  1  0
 12 64  1  0
 13 65  1  0
 16 66  1  0
 16 67  1  0
 17 68  1  0
 17 69  1  0
 20 70  1  0
 21 71  1  0
 24 72  1  0
 24 73  1  0
 25 74  1  6
 26 75  1  0
 26 76  1  0
 29 77  1  0
 29 78  1  0
 31 79  1  0
 33 80  1  0
 36 81  1  0
 37 82  1  0
 40 83  1  0
 43 84  1  0
 43 85  1  0
 44 86  1  0
 45 87  1  0
 46 88  1  0
 46 89  1  0
 47 90  1  0
 47 91  1  0
 48 92  1  0
 49 93  1  0
M  END
>  <meeko>  (1) 
{"is_sidechain": [false], "free_energy": -7.578, "intermolecular_energy": -13.116, "internal_energy": -1.762}

$$$$
REF_CHEMBL1397__W_7USX_LOCAL_COMPLETE__e8__s20260927
     RDKit          3D

 93 99  0  0  0  0  0  0  0  0999 V2000
  123.4690  179.4300  184.0240 C   0  0  0  0  0  0  0  0  0  0  0  0
  123.9560  179.3140  182.5850 C   0  0  0  0  0  0  0  0  0  0  0  0
  124.6120  177.9520  182.2850 C   0  0  1  0  0  0  0  0  0  0  0  0
  124.9940  177.2200  183.5960 C   0  0  2  0  0  0  0  0  0  0  0  0
  126.4880  177.2890  183.8980 C   0  0  0  0  0  0  0  0  0  0  0  0
  124.6080  175.8430  183.5480 O   0  0  0  0  0  0  0  0  0  0  0  0
  123.7390  177.1260  181.4550 N   0  0  0  0  0  0  0  0  0  0  0  0
  122.4010  176.9540  181.7080 N   0  0  0  0  0  0  0  0  0  0  0  0
  122.0110  176.1810  180.7420 C   0  0  0  0  0  0  0  0  0  0  0  0
  122.9610  175.8070  179.8550 N   0  0  0  0  0  0  0  0  0  0  0  0
  122.7990  174.9730  178.7210 C   0  0  0  0  0  0  0  0  0  0  0  0
  122.5780  175.5000  177.4460 C   0  0  0  0  0  0  0  0  0  0  0  0
  122.4220  174.6670  176.3270 C   0  0  0  0  0  0  0  0  0  0  0  0
  122.4810  173.2720  176.4230 C   0  0  0  0  0  0  0  0  0  0  0  0
  122.3160  172.4740  175.3000 N   0  0  0  0  0  0  0  0  0  0  0  0
  122.4920  171.0130  175.4560 C   0  0  0  0  0  0  0  0  0  0  0  0
  122.8180  170.3260  174.1110 C   0  0  0  0  0  0  0  0  0  0  0  0
  121.8570  170.7030  173.0580 N   0  0  0  0  0  0  0  0  0  0  0  0
  121.7010  169.9070  171.9290 C   0  0  0  0  0  0  0  0  0  0  0  0
  122.0350  168.5450  171.9080 C   0  0  0  0  0  0  0  0  0  0  0  0
  121.8640  167.7550  170.7600 C   0  0  0  0  0  0  0  0  0  0  0  0
  121.3450  168.3140  169.5960 C   0  0  0  0  0  0  0  0  0  0  0  0
  121.1280  167.6660  168.4140 O   0  0  0  0  0  0  0  0  0  0  0  0
  122.2300  167.5770  167.5090 C   0  0  0  0  0  0  0  0  0  0  0  0
  123.2340  166.5660  168.0730 C   0  0  2  0  0  0  0  0  0  0  0  0
  124.4300  166.4230  167.1660 C   0  0  0  0  0  0  0  0  0  0  0  0
  124.0390  165.4750  166.1670 O   0  0  0  0  0  0  0  0  0  0  0  0
  123.1010  164.5270  166.7390 C   0  0  1  0  0  0  0  0  0  0  0  0
  121.8580  164.4180  165.8210 C   0  0  0  0  0  0  0  0  0  0  0  0
  121.9890  165.0910  164.5430 N   0  0  0  0  0  0  0  0  0  0  0  0
  122.6140  164.6390  163.4210 C   0  0  0  0  0  0  0  0  0  0  0  0
  122.4420  165.5000  162.4450 N   0  0  0  0  0  0  0  0  0  0  0  0
  121.6650  166.4630  163.0200 C   0  0  0  0  0  0  0  0  0  0  0  0
  121.3370  166.2440  164.2960 N   0  0  0  0  0  0  0  0  0  0  0  0
  123.7810  163.1670  166.9130 C   0  0  0  0  0  0  0  0  0  0  0  0
  123.4370  162.0590  166.1170 C   0  0  0  0  0  0  0  0  0  0  0  0
  124.0620  160.8240  166.3060 C   0  0  0  0  0  0  0  0  0  0  0  0
  125.0320  160.6850  167.2910 C   0  0  0  0  0  0  0  0  0  0  0  0
  125.6280  159.4990  167.4680 F   0  0  0  0  0  0  0  0  0  0  0  0
  125.3860  161.7540  168.0990 C   0  0  0  0  0  0  0  0  0  0  0  0
  124.7570  162.9790  167.9060 C   0  0  0  0  0  0  0  0  0  0  0  0
  125.0880  163.9990  168.7100 F   0  0  0  0  0  0  0  0  0  0  0  0
  122.7130  165.1360  168.1090 C   0  0  0  0  0  0  0  0  0  0  0  0
  120.9950  169.6610  169.5980 C   0  0  0  0  0  0  0  0  0  0  0  0
  121.1680  170.4420  170.7480 C   0  0  0  0  0  0  0  0  0  0  0  0
  121.6870  172.1640  172.8980 C   0  0  0  0  0  0  0  0  0  0  0  0
  121.3600  172.8520  174.2410 C   0  0  0  0  0  0  0  0  0  0  0  0
  122.6880  172.7490  177.7030 C   0  0  0  0  0  0  0  0  0  0  0  0
  122.8480  173.5780  178.8280 C   0  0  0  0  0  0  0  0  0  0  0  0
  124.1200  176.4180  180.3040 C   0  0  0  0  0  0  0  0  0  0  0  0
  125.2530  176.3860  179.8470 O   0  0  0  0  0  0  0  0  0  0  0  0
  124.3047  179.2310  184.7111 H   0  0  0  0  0  0  0  0  0  0  0  0
  123.0835  180.4451  184.1999 H   0  0  0  0  0  0  0  0  0  0  0  0
  122.6673  178.6977  184.1999 H   0  0  0  0  0  0  0  0  0  0  0  0
  123.0966  179.4463  181.9113 H   0  0  0  0  0  0  0  0  0  0  0  0
  124.7192  180.0908  182.4298 H   0  0  0  0  0  0  0  0  0  0  0  0
  125.5385  178.1360  181.7214 H   0  0  0  0  0  0  0  0  0  0  0  0
  124.4503  177.7424  184.3969 H   0  0  0  0  0  0  0  0  0  0  0  0
  126.6420  177.2961  184.9871 H   0  0  0  0  0  0  0  0  0  0  0  0
  126.9910  176.4131  183.4623 H   0  0  0  0  0  0  0  0  0  0  0  0
  126.9081  178.2075  183.4623 H   0  0  0  0  0  0  0  0  0  0  0  0
  124.0990  175.6880  184.3730 H   0  0  0  0  0  0  0  0  0  0  0  0
  120.9666  175.8485  180.6495 H   0  0  0  0  0  0  0  0  0  0  0  0
  122.5251  176.5911  177.3163 H   0  0  0  0  0  0  0  0  0  0  0  0
  122.2477  175.1256  175.3425 H   0  0  0  0  0  0  0  0  0  0  0  0
  123.3169  170.8271  176.1596 H   0  0  0  0  0  0  0  0  0  0  0  0
  121.5475  170.5938  175.8332 H   0  0  0  0  0  0  0  0  0  0  0  0
  123.8285  170.6239  173.7944 H   0  0  0  0  0  0  0  0  0  0  0  0
  122.7553  169.2377  174.2582 H   0  0  0  0  0  0  0  0  0  0  0  0
  122.4432  168.0818  172.8184 H   0  0  0  0  0  0  0  0  0  0  0  0
  122.1412  166.6907  170.7807 H   0  0  0  0  0  0  0  0  0  0  0  0
  121.8760  167.2398  166.5236 H   0  0  0  0  0  0  0  0  0  0  0  0
  122.7069  168.5615  167.3939 H   0  0  0  0  0  0  0  0  0  0  0  0
  123.4505  166.9629  169.0758 H   0  0  0  0  0  0  0  0  0  0  0  0
  124.6794  167.3891  166.7030 H   0  0  0  0  0  0  0  0  0  0  0  0
  125.3232  166.0922  167.7163 H   0  0  0  0  0  0  0  0  0  0  0  0
  121.6659  163.3520  165.6291 H   0  0  0  0  0  0  0  0  0  0  0  0
  121.0340  164.9167  166.3523 H   0  0  0  0  0  0  0  0  0  0  0  0
  123.1767  163.6970  163.3441 H   0  0  0  0  0  0  0  0  0  0  0  0
  121.3323  167.3565  162.4714 H   0  0  0  0  0  0  0  0  0  0  0  0
  122.6680  162.1663  165.3378 H   0  0  0  0  0  0  0  0  0  0  0  0
  123.7871  159.9644  165.6771 H   0  0  0  0  0  0  0  0  0  0  0  0
  126.1517  161.6353  168.8798 H   0  0  0  0  0  0  0  0  0  0  0  0
  121.6208  165.1267  168.2397 H   0  0  0  0  0  0  0  0  0  0  0  0
  123.1380  164.5649  168.9476 H   0  0  0  0  0  0  0  0  0  0  0  0
  120.5785  170.1168  168.6877 H   0  0  0  0  0  0  0  0  0  0  0  0
  120.8780  171.5028  170.7237 H   0  0  0  0  0  0  0  0  0  0  0  0
  122.6189  172.5894  172.4973 H   0  0  0  0  0  0  0  0  0  0  0  0
  120.8462  172.3378  172.2103 H   0  0  0  0  0  0  0  0  0  0  0  0
  121.3977  173.9423  174.1005 H   0  0  0  0  0  0  0  0  0  0  0  0
  120.3571  172.5272  174.5552 H   0  0  0  0  0  0  0  0  0  0  0  0
  122.7269  171.6575  177.8341 H   0  0  0  0  0  0  0  0  0  0  0  0
  123.0154  173.1199  179.8140 H   0  0  0  0  0  0  0  0  0  0  0  0
  1  2  1  0
  2  3  1  0
  3  4  1  0
  4  5  1  0
  4  6  1  0
  3  7  1  0
  7  8  1  0
  8  9  2  0
  9 10  1  0
 10 11  1  0
 11 12  2  0
 12 13  1  0
 13 14  2  0
 14 15  1  0
 15 16  1  0
 16 17  1  0
 17 18  1  0
 18 19  1  0
 19 20  2  0
 20 21  1  0
 21 22  2  0
 22 23  1  0
 23 24  1  0
 24 25  1  0
 25 26  1  0
 26 27  1  0
 27 28  1  0
 28 29  1  6
 29 30  1  0
 30 31  1  0
 31 32  2  0
 32 33  1  0
 33 34  2  0
 28 35  1  0
 35 36  2  0
 36 37  1  0
 37 38  2  0
 38 39  1  0
 38 40  1  0
 40 41  2  0
 41 42  1  0
 28 43  1  0
 22 44  1  0
 44 45  2  0
 18 46  1  0
 46 47  1  0
 14 48  1  0
 48 49  2  0
 10 50  1  0
 50 51  2  0
 50  7  1  0
 49 11  1  0
 47 15  1  0
 45 19  1  0
 43 25  1  0
 34 30  1  0
 41 35  1  0
  1 52  1  0
  1 53  1  0
  1 54  1  0
  2 55  1  0
  2 56  1  0
  3 57  1  6
  4 58  1  1
  5 59  1  0
  5 60  1  0
  5 61  1  0
  6 62  1  0
  9 63  1  0
 12 64  1  0
 13 65  1  0
 16 66  1  0
 16 67  1  0
 17 68  1  0
 17 69  1  0
 20 70  1  0
 21 71  1  0
 24 72  1  0
 24 73  1  0
 25 74  1  1
 26 75  1  0
 26 76  1  0
 29 77  1  0
 29 78  1  0
 31 79  1  0
 33 80  1  0
 36 81  1  0
 37 82  1  0
 40 83  1  0
 43 84  1  0
 43 85  1  0
 44 86  1  0
 45 87  1  0
 46 88  1  0
 46 89  1  0
 47 90  1  0
 47 91  1  0
 48 92  1  0
 49 93  1  0
M  END
>  <meeko>  (2) 
{"is_sidechain": [false], "free_energy": -7.465, "intermolecular_energy": -13.04, "internal_energy": -1.641}

$$$$
REF_CHEMBL1397__W_7USX_LOCAL_COMPLETE__e8__s20260927
     RDKit          3D

 93 99  0  0  0  0  0  0  0  0999 V2000
  120.1100  165.0010  162.2630 C   0  0  0  0  0  0  0  0  0  0  0  0
  120.9640  163.7420  162.1950 C   0  0  0  0  0  0  0  0  0  0  0  0
  122.4680  164.0330  162.3660 C   0  0  1  0  0  0  0  0  0  0  0  0
  123.0580  164.6770  161.0870 C   0  0  2  0  0  0  0  0  0  0  0  0
  122.7180  163.8980  159.8210 C   0  0  0  0  0  0  0  0  0  0  0  0
  124.4820  164.7900  161.1770 O   0  0  0  0  0  0  0  0  0  0  0  0
  122.7060  164.8720  163.5370 N   0  0  0  0  0  0  0  0  0  0  0  0
  122.9710  166.2170  163.4580 N   0  0  0  0  0  0  0  0  0  0  0  0
  123.0960  166.5700  164.7010 C   0  0  0  0  0  0  0  0  0  0  0  0
  122.9440  165.5900  165.6190 N   0  0  0  0  0  0  0  0  0  0  0  0
  123.0330  165.7090  167.0280 C   0  0  0  0  0  0  0  0  0  0  0  0
  123.7360  164.7820  167.8020 C   0  0  0  0  0  0  0  0  0  0  0  0
  123.8200  164.9090  169.1980 C   0  0  0  0  0  0  0  0  0  0  0  0
  123.2140  165.9650  169.8880 C   0  0  0  0  0  0  0  0  0  0  0  0
  123.3100  166.0610  171.2690 N   0  0  0  0  0  0  0  0  0  0  0  0
  123.2240  164.8130  172.0580 C   0  0  0  0  0  0  0  0  0  0  0  0
  122.8050  165.0850  173.5200 C   0  0  0  0  0  0  0  0  0  0  0  0
  123.6400  166.1280  174.1430 N   0  0  0  0  0  0  0  0  0  0  0  0
  123.7280  166.2290  175.5260 C   0  0  0  0  0  0  0  0  0  0  0  0
  124.6440  167.0740  176.1690 C   0  0  0  0  0  0  0  0  0  0  0  0
  124.7150  167.1670  177.5680 C   0  0  0  0  0  0  0  0  0  0  0  0
  123.8590  166.4120  178.3650 C   0  0  0  0  0  0  0  0  0  0  0  0
  123.8210  166.4040  179.7290 O   0  0  0  0  0  0  0  0  0  0  0  0
  124.8790  167.0750  180.4150 C   0  0  0  0  0  0  0  0  0  0  0  0
  125.2820  166.2240  181.6240 C   0  0  2  0  0  0  0  0  0  0  0  0
  126.7140  166.4860  182.0210 C   0  0  0  0  0  0  0  0  0  0  0  0
  127.5030  165.6470  181.1710 O   0  0  0  0  0  0  0  0  0  0  0  0
  126.7600  164.4420  180.8520 C   0  0  1  0  0  0  0  0  0  0  0  0
  126.7790  164.2180  179.3190 C   0  0  0  0  0  0  0  0  0  0  0  0
  127.9170  164.8020  178.6360 N   0  0  0  0  0  0  0  0  0  0  0  0
  128.8850  164.1610  177.9250 C   0  0  0  0  0  0  0  0  0  0  0  0
  129.6940  165.0450  177.3890 N   0  0  0  0  0  0  0  0  0  0  0  0
  129.1520  166.2340  177.7800 C   0  0  0  0  0  0  0  0  0  0  0  0
  128.0460  166.1390  178.5230 N   0  0  0  0  0  0  0  0  0  0  0  0
  127.3670  163.2490  181.5930 C   0  0  0  0  0  0  0  0  0  0  0  0
  126.5690  162.3340  182.3030 C   0  0  0  0  0  0  0  0  0  0  0  0
  127.1490  161.2610  182.9840 C   0  0  0  0  0  0  0  0  0  0  0  0
  128.5280  161.0940  182.9620 C   0  0  0  0  0  0  0  0  0  0  0  0
  129.0790  160.0640  183.6160 F   0  0  0  0  0  0  0  0  0  0  0  0
  129.3430  161.9840  182.2800 C   0  0  0  0  0  0  0  0  0  0  0  0
  128.7570  163.0510  181.6080 C   0  0  0  0  0  0  0  0  0  0  0  0
  129.5560  163.9200  180.9730 F   0  0  0  0  0  0  0  0  0  0  0  0
  125.3190  164.7290  181.3420 C   0  0  0  0  0  0  0  0  0  0  0  0
  122.9340  165.5750  177.7470 C   0  0  0  0  0  0  0  0  0  0  0  0
  122.8700  165.4890  176.3510 C   0  0  0  0  0  0  0  0  0  0  0  0
  123.7210  167.3780  173.3570 C   0  0  0  0  0  0  0  0  0  0  0  0
  124.1400  167.1090  171.8950 C   0  0  0  0  0  0  0  0  0  0  0  0
  122.5010  166.8820  169.1100 C   0  0  0  0  0  0  0  0  0  0  0  0
  122.4130  166.7630  167.7110 C   0  0  0  0  0  0  0  0  0  0  0  0
  122.6850  164.4490  164.8760 C   0  0  0  0  0  0  0  0  0  0  0  0
  122.4800  163.3020  165.2420 O   0  0  0  0  0  0  0  0  0  0  0  0
  119.9304  165.2658  163.3154 H   0  0  0  0  0  0  0  0  0  0  0  0
  120.6347  165.8275  161.7613 H   0  0  0  0  0  0  0  0  0  0  0  0
  119.1481  164.8191  161.7613 H   0  0  0  0  0  0  0  0  0  0  0  0
  120.6451  163.0569  162.9944 H   0  0  0  0  0  0  0  0  0  0  0  0
  120.8228  163.2984  161.1984 H   0  0  0  0  0  0  0  0  0  0  0  0
  122.9840  163.0750  162.5270 H   0  0  0  0  0  0  0  0  0  0  0  0
  122.5982  165.6739  161.0183 H   0  0  0  0  0  0  0  0  0  0  0  0
  122.2918  162.9215  160.0947 H   0  0  0  0  0  0  0  0  0  0  0  0
  121.9853  164.4645  159.2275 H   0  0  0  0  0  0  0  0  0  0  0  0
  123.6316  163.7460  159.2275 H   0  0  0  0  0  0  0  0  0  0  0  0
  124.6990  164.5880  162.1130 H   0  0  0  0  0  0  0  0  0  0  0  0
  123.3135  167.6086  164.9908 H   0  0  0  0  0  0  0  0  0  0  0  0
  124.2340  163.9350  167.3074 H   0  0  0  0  0  0  0  0  0  0  0  0
  124.3806  164.1535  169.7680 H   0  0  0  0  0  0  0  0  0  0  0  0
  122.4812  164.1483  171.5927 H   0  0  0  0  0  0  0  0  0  0  0  0
  124.2203  164.3469  172.0694 H   0  0  0  0  0  0  0  0  0  0  0  0
  121.7552  165.4133  173.5345 H   0  0  0  0  0  0  0  0  0  0  0  0
  122.9358  164.1547  174.0922 H   0  0  0  0  0  0  0  0  0  0  0  0
  125.3276  167.6824  175.5587 H   0  0  0  0  0  0  0  0  0  0  0  0
  125.4496  167.8388  178.0360 H   0  0  0  0  0  0  0  0  0  0  0  0
  125.7405  167.1972  179.7420 H   0  0  0  0  0  0  0  0  0  0  0  0
  124.5465  168.0702  180.7451 H   0  0  0  0  0  0  0  0  0  0  0  0
  124.5282  166.4929  182.3786 H   0  0  0  0  0  0  0  0  0  0  0  0
  126.9700  167.5440  181.8626 H   0  0  0  0  0  0  0  0  0  0  0  0
  126.8896  166.2711  183.0854 H   0  0  0  0  0  0  0  0  0  0  0  0
  126.7856  163.1342  179.1310 H   0  0  0  0  0  0  0  0  0  0  0  0
  125.8855  164.7206  178.9202 H   0  0  0  0  0  0  0  0  0  0  0  0
  128.9753  163.0701  177.8164 H   0  0  0  0  0  0  0  0  0  0  0  0
  129.5943  167.2024  177.5031 H   0  0  0  0  0  0  0  0  0  0  0  0
  125.4770  162.4646  182.3222 H   0  0  0  0  0  0  0  0  0  0  0  0
  126.5159  160.5506  183.5358 H   0  0  0  0  0  0  0  0  0  0  0  0
  130.4346  161.8485  182.2706 H   0  0  0  0  0  0  0  0  0  0  0  0
  124.5876  164.4653  180.5639 H   0  0  0  0  0  0  0  0  0  0  0  0
  125.0628  164.1368  182.2329 H   0  0  0  0  0  0  0  0  0  0  0  0
  122.2466  164.9752  178.3616 H   0  0  0  0  0  0  0  0  0  0  0  0
  122.1264  164.8228  175.8893 H   0  0  0  0  0  0  0  0  0  0  0  0
  122.7351  167.8658  173.3610 H   0  0  0  0  0  0  0  0  0  0  0  0
  124.4829  168.0236  173.8182 H   0  0  0  0  0  0  0  0  0  0  0  0
  124.0337  168.0392  171.3176 H   0  0  0  0  0  0  0  0  0  0  0  0
  125.1836  166.7613  171.8977 H   0  0  0  0  0  0  0  0  0  0  0  0
  121.9934  167.7220  169.6068 H   0  0  0  0  0  0  0  0  0  0  0  0
  121.8453  167.5136  167.1415 H   0  0  0  0  0  0  0  0  0  0  0  0
  1  2  1  0
  2  3  1  0
  3  4  1  0
  4  5  1  0
  4  6  1  0
  3  7  1  0
  7  8  1  0
  8  9  2  0
  9 10  1  0
 10 11  1  0
 11 12  2  0
 12 13  1  0
 13 14  2  0
 14 15  1  0
 15 16  1  0
 16 17  1  0
 17 18  1  0
 18 19  1  0
 19 20  2  0
 20 21  1  0
 21 22  2  0
 22 23  1  0
 23 24  1  0
 24 25  1  0
 25 26  1  0
 26 27  1  0
 27 28  1  0
 28 29  1  6
 29 30  1  0
 30 31  1  0
 31 32  2  0
 32 33  1  0
 33 34  2  0
 28 35  1  0
 35 36  2  0
 36 37  1  0
 37 38  2  0
 38 39  1  0
 38 40  1  0
 40 41  2  0
 41 42  1  0
 28 43  1  0
 22 44  1  0
 44 45  2  0
 18 46  1  0
 46 47  1  0
 14 48  1  0
 48 49  2  0
 10 50  1  0
 50 51  2  0
 50  7  1  0
 49 11  1  0
 47 15  1  0
 45 19  1  0
 43 25  1  0
 34 30  1  0
 41 35  1  0
  1 52  1  0
  1 53  1  0
  1 54  1  0
  2 55  1  0
  2 56  1  0
  3 57  1  1
  4 58  1  6
  5 59  1  0
  5 60  1  0
  5 61  1  0
  6 62  1  0
  9 63  1  0
 12 64  1  0
 13 65  1  0
 16 66  1  0
 16 67  1  0
 17 68  1  0
 17 69  1  0
 20 70  1  0
 21 71  1  0
 24 72  1  0
 24 73  1  0
 25 74  1  1
 26 75  1  0
 26 76  1  0
 29 77  1  0
 29 78  1  0
 31 79  1  0
 33 80  1  0
 36 81  1  0
 37 82  1  0
 40 83  1  0
 43 84  1  0
 43 85  1  0
 44 86  1  0
 45 87  1  0
 46 88  1  0
 46 89  1  0
 47 90  1  0
 47 91  1  0
 48 92  1  0
 49 93  1  0
M  END
>  <meeko>  (3) 
{"is_sidechain": [false], "free_energy": -7.323, "intermolecular_energy": -12.604, "internal_energy": -1.833}

$$$$
REF_CHEMBL1397__W_7USX_LOCAL_COMPLETE__e8__s20260927
     RDKit          3D

 93 99  0  0  0  0  0  0  0  0999 V2000
  120.0430  165.5440  162.8550 C   0  0  0  0  0  0  0  0  0  0  0  0
  119.7360  166.4850  164.0130 C   0  0  0  0  0  0  0  0  0  0  0  0
  120.9200  166.6340  164.9900 C   0  0  1  0  0  0  0  0  0  0  0  0
  122.2660  166.6880  164.2250 C   0  0  2  0  0  0  0  0  0  0  0  0
  123.3970  165.9830  164.9670 C   0  0  0  0  0  0  0  0  0  0  0  0
  122.6640  168.0410  163.9790 O   0  0  0  0  0  0  0  0  0  0  0  0
  120.7480  167.8090  165.8400 N   0  0  0  0  0  0  0  0  0  0  0  0
  120.1560  168.9700  165.4080 N   0  0  0  0  0  0  0  0  0  0  0  0
  120.1900  169.7310  166.4590 C   0  0  0  0  0  0  0  0  0  0  0  0
  120.7540  169.1970  167.5660 N   0  0  0  0  0  0  0  0  0  0  0  0
  120.9160  169.8120  168.8320 C   0  0  0  0  0  0  0  0  0  0  0  0
  121.5250  169.1480  169.9000 C   0  0  0  0  0  0  0  0  0  0  0  0
  121.6830  169.7670  171.1510 C   0  0  0  0  0  0  0  0  0  0  0  0
  121.2480  171.0740  171.3960 C   0  0  0  0  0  0  0  0  0  0  0  0
  121.4130  171.6570  172.6440 N   0  0  0  0  0  0  0  0  0  0  0  0
  122.4590  171.1040  173.5340 C   0  0  0  0  0  0  0  0  0  0  0  0
  122.1900  171.4440  175.0170 C   0  0  0  0  0  0  0  0  0  0  0  0
  121.9400  172.8840  175.2110 N   0  0  0  0  0  0  0  0  0  0  0  0
  122.0970  173.4640  176.4640 C   0  0  0  0  0  0  0  0  0  0  0  0
  122.6400  172.7740  177.5580 C   0  0  0  0  0  0  0  0  0  0  0  0
  122.7970  173.3780  178.8150 C   0  0  0  0  0  0  0  0  0  0  0  0
  122.4150  174.7020  179.0090 C   0  0  0  0  0  0  0  0  0  0  0  0
  122.5090  175.4100  180.1730 O   0  0  0  0  0  0  0  0  0  0  0  0
  123.7950  175.9240  180.5190 C   0  0  0  0  0  0  0  0  0  0  0  0
  124.2060  176.9460  179.4530 C   0  0  2  0  0  0  0  0  0  0  0  0
  125.7070  177.0840  179.3810 C   0  0  0  0  0  0  0  0  0  0  0  0
  126.0520  178.0190  180.4070 O   0  0  0  0  0  0  0  0  0  0  0  0
  124.9700  178.9700  180.5820 C   0  0  1  0  0  0  0  0  0  0  0  0
  124.6070  179.0640  182.0860 C   0  0  0  0  0  0  0  0  0  0  0  0
  125.6210  178.5500  182.9850 N   0  0  0  0  0  0  0  0  0  0  0  0
  126.5750  179.2510  183.6580 C   0  0  0  0  0  0  0  0  0  0  0  0
  127.2500  178.4390  184.4390 N   0  0  0  0  0  0  0  0  0  0  0  0
  126.6390  177.2370  184.2290 C   0  0  0  0  0  0  0  0  0  0  0  0
  125.6180  177.2580  183.3680 N   0  0  0  0  0  0  0  0  0  0  0  0
  125.3840  180.3340  180.0270 C   0  0  0  0  0  0  0  0  0  0  0  0
  124.4990  181.1290  179.2760 C   0  0  0  0  0  0  0  0  0  0  0  0
  124.9070  182.3650  178.7670 C   0  0  0  0  0  0  0  0  0  0  0  0
  126.2000  182.8140  179.0030 C   0  0  0  0  0  0  0  0  0  0  0  0
  126.5860  184.0000  178.5140 F   0  0  0  0  0  0  0  0  0  0  0  0
  127.1000  182.0510  179.7300 C   0  0  0  0  0  0  0  0  0  0  0  0
  126.6860  180.8210  180.2300 C   0  0  0  0  0  0  0  0  0  0  0  0
  127.5710  180.0790  180.9100 F   0  0  0  0  0  0  0  0  0  0  0  0
  123.7900  178.3740  179.7750 C   0  0  0  0  0  0  0  0  0  0  0  0
  121.8840  175.4100  177.9340 C   0  0  0  0  0  0  0  0  0  0  0  0
  121.7310  174.7990  176.6830 C   0  0  0  0  0  0  0  0  0  0  0  0
  120.8900  173.4340  174.3260 C   0  0  0  0  0  0  0  0  0  0  0  0
  121.1580  173.0960  172.8430 C   0  0  0  0  0  0  0  0  0  0  0  0
  120.6270  171.7290  170.3280 C   0  0  0  0  0  0  0  0  0  0  0  0
  120.4660  171.1170  169.0710 C   0  0  0  0  0  0  0  0  0  0  0  0
  121.1350  167.9210  167.1850 C   0  0  0  0  0  0  0  0  0  0  0  0
  121.6900  167.0420  167.8260 O   0  0  0  0  0  0  0  0  0  0  0  0
  120.3614  164.5680  163.2501 H   0  0  0  0  0  0  0  0  0  0  0  0
  119.1408  165.4137  162.2393 H   0  0  0  0  0  0  0  0  0  0  0  0
  120.8485  165.9708  162.2393 H   0  0  0  0  0  0  0  0  0  0  0  0
  119.4898  167.4764  163.6049 H   0  0  0  0  0  0  0  0  0  0  0  0
  118.8938  166.0555  164.5753 H   0  0  0  0  0  0  0  0  0  0  0  0
  120.9398  165.7474  165.6408 H   0  0  0  0  0  0  0  0  0  0  0  0
  122.0891  166.1617  163.2754 H   0  0  0  0  0  0  0  0  0  0  0  0
  123.2408  166.0804  166.0515 H   0  0  0  0  0  0  0  0  0  0  0  0
  123.4078  164.9179  164.6923 H   0  0  0  0  0  0  0  0  0  0  0  0
  124.3580  166.4423  164.6923 H   0  0  0  0  0  0  0  0  0  0  0  0
  121.8430  168.5070  163.7110 H   0  0  0  0  0  0  0  0  0  0  0  0
  119.7829  170.7529  166.4497 H   0  0  0  0  0  0  0  0  0  0  0  0
  121.8882  168.1194  169.7582 H   0  0  0  0  0  0  0  0  0  0  0  0
  122.1647  169.2055  171.9651 H   0  0  0  0  0  0  0  0  0  0  0  0
  122.4831  170.0104  173.4183 H   0  0  0  0  0  0  0  0  0  0  0  0
  123.4220  171.5533  173.2497 H   0  0  0  0  0  0  0  0  0  0  0  0
  121.3089  170.8804  175.3575 H   0  0  0  0  0  0  0  0  0  0  0  0
  123.0828  171.1702  175.5984 H   0  0  0  0  0  0  0  0  0  0  0  0
  122.9523  171.7275  177.4266 H   0  0  0  0  0  0  0  0  0  0  0  0
  123.2236  172.8028  179.6500 H   0  0  0  0  0  0  0  0  0  0  0  0
  123.7482  176.4118  181.5038 H   0  0  0  0  0  0  0  0  0  0  0  0
  124.5303  175.1072  180.5653 H   0  0  0  0  0  0  0  0  0  0  0  0
  123.7253  176.5609  178.5416 H   0  0  0  0  0  0  0  0  0  0  0  0
  126.1920  176.1140  179.5653 H   0  0  0  0  0  0  0  0  0  0  0  0
  126.0395  177.4239  178.3891 H   0  0  0  0  0  0  0  0  0  0  0  0
  124.4351  180.1223  182.3319 H   0  0  0  0  0  0  0  0  0  0  0  0
  123.7151  178.4368  182.2311 H   0  0  0  0  0  0  0  0  0  0  0  0
  126.7531  180.3323  183.5622 H   0  0  0  0  0  0  0  0  0  0  0  0
  126.9645  176.3153  184.7335 H   0  0  0  0  0  0  0  0  0  0  0  0
  123.4751  180.7740  179.0874 H   0  0  0  0  0  0  0  0  0  0  0  0
  124.2071  182.9796  178.1819 H   0  0  0  0  0  0  0  0  0  0  0  0
  128.1237  182.4118  179.9084 H   0  0  0  0  0  0  0  0  0  0  0  0
  122.8691  178.3809  180.3766 H   0  0  0  0  0  0  0  0  0  0  0  0
  123.5796  178.9554  178.8652 H   0  0  0  0  0  0  0  0  0  0  0  0
  121.5818  176.4591  178.0685 H   0  0  0  0  0  0  0  0  0  0  0  0
  121.3123  175.3827  175.8499 H   0  0  0  0  0  0  0  0  0  0  0  0
  119.9186  173.0089  174.6186 H   0  0  0  0  0  0  0  0  0  0  0  0
  120.8898  174.5287  174.4335 H   0  0  0  0  0  0  0  0  0  0  0  0
  120.2801  173.3872  172.2477 H   0  0  0  0  0  0  0  0  0  0  0  0
  122.0544  173.6482  172.5242 H   0  0  0  0  0  0  0  0  0  0  0  0
  120.2532  172.7531  170.4747 H   0  0  0  0  0  0  0  0  0  0  0  0
  119.9766  171.6750  168.2591 H   0  0  0  0  0  0  0  0  0  0  0  0
  1  2  1  0
  2  3  1  0
  3  4  1  0
  4  5  1  0
  4  6  1  0
  3  7  1  0
  7  8  1  0
  8  9  2  0
  9 10  1  0
 10 11  1  0
 11 12  2  0
 12 13  1  0
 13 14  2  0
 14 15  1  0
 15 16  1  0
 16 17  1  0
 17 18  1  0
 18 19  1  0
 19 20  2  0
 20 21  1  0
 21 22  2  0
 22 23  1  0
 23 24  1  0
 24 25  1  0
 25 26  1  0
 26 27  1  0
 27 28  1  0
 28 29  1  1
 29 30  1  0
 30 31  1  0
 31 32  2  0
 32 33  1  0
 33 34  2  0
 28 35  1  0
 35 36  2  0
 36 37  1  0
 37 38  2  0
 38 39  1  0
 38 40  1  0
 40 41  2  0
 41 42  1  0
 28 43  1  0
 22 44  1  0
 44 45  2  0
 18 46  1  0
 46 47  1  0
 14 48  1  0
 48 49  2  0
 10 50  1  0
 50 51  2  0
 50  7  1  0
 49 11  1  0
 47 15  1  0
 45 19  1  0
 43 25  1  0
 34 30  1  0
 41 35  1  0
  1 52  1  0
  1 53  1  0
  1 54  1  0
  2 55  1  0
  2 56  1  0
  3 57  1  1
  4 58  1  6
  5 59  1  0
  5 60  1  0
  5 61  1  0
  6 62  1  0
  9 63  1  0
 12 64  1  0
 13 65  1  0
 16 66  1  0
 16 67  1  0
 17 68  1  0
 17 69  1  0
 20 70  1  0
 21 71  1  0
 24 72  1  0
 24 73  1  0
 25 74  1  6
 26 75  1  0
 26 76  1  0
 29 77  1  0
 29 78  1  0
 31 79  1  0
 33 80  1  0
 36 81  1  0
 37 82  1  0
 40 83  1  0
 43 84  1  0
 43 85  1  0
 44 86  1  0
 45 87  1  0
 46 88  1  0
 46 89  1  0
 47 90  1  0
 47 91  1  0
 48 92  1  0
 49 93  1  0
M  END
>  <meeko>  (4) 
{"is_sidechain": [false], "free_energy": -7.14, "intermolecular_energy": -12.586, "internal_energy": -1.534}

$$$$
REF_CHEMBL1397__W_7USX_LOCAL_COMPLETE__e8__s20260927
     RDKit          3D

 93 99  0  0  0  0  0  0  0  0999 V2000
  125.6400  162.0620  167.9150 C   0  0  0  0  0  0  0  0  0  0  0  0
  124.3910  161.7910  167.0850 C   0  0  0  0  0  0  0  0  0  0  0  0
  123.6830  163.0840  166.6340 C   0  0  1  0  0  0  0  0  0  0  0  0
  122.6850  162.7980  165.4850 C   0  0  2  0  0  0  0  0  0  0  0  0
  122.8090  161.3820  164.9320 C   0  0  0  0  0  0  0  0  0  0  0  0
  122.8660  163.7200  164.4050 O   0  0  0  0  0  0  0  0  0  0  0  0
  123.0180  163.7330  167.7610 N   0  0  0  0  0  0  0  0  0  0  0  0
  121.8800  163.2390  168.3490 N   0  0  0  0  0  0  0  0  0  0  0  0
  121.6410  164.0900  169.3000 C   0  0  0  0  0  0  0  0  0  0  0  0
  122.5090  165.1210  169.4110 N   0  0  0  0  0  0  0  0  0  0  0  0
  122.4740  166.1780  170.3530 C   0  0  0  0  0  0  0  0  0  0  0  0
  121.9040  167.4170  170.0470 C   0  0  0  0  0  0  0  0  0  0  0  0
  121.8710  168.4580  170.9890 C   0  0  0  0  0  0  0  0  0  0  0  0
  122.3980  168.3160  172.2770 C   0  0  0  0  0  0  0  0  0  0  0  0
  122.3560  169.3650  173.1830 N   0  0  0  0  0  0  0  0  0  0  0  0
  123.2410  169.2950  174.3670 C   0  0  0  0  0  0  0  0  0  0  0  0
  122.7320  170.1890  175.5200 C   0  0  0  0  0  0  0  0  0  0  0  0
  122.4530  171.5630  175.0630 N   0  0  0  0  0  0  0  0  0  0  0  0
  122.4020  172.6120  175.9730 C   0  0  0  0  0  0  0  0  0  0  0  0
  122.2680  172.4120  177.3550 C   0  0  0  0  0  0  0  0  0  0  0  0
  122.2240  173.4840  178.2610 C   0  0  0  0  0  0  0  0  0  0  0  0
  122.3190  174.7940  177.8010 C   0  0  0  0  0  0  0  0  0  0  0  0
  122.2890  175.9240  178.5660 O   0  0  0  0  0  0  0  0  0  0  0  0
  123.4860  176.2700  179.2640 C   0  0  0  0  0  0  0  0  0  0  0  0
  124.0220  177.5800  178.6770 C   0  0  2  0  0  0  0  0  0  0  0  0
  125.5310  177.6070  178.6950 C   0  0  0  0  0  0  0  0  0  0  0  0
  125.8880  178.0520  180.0080 O   0  0  0  0  0  0  0  0  0  0  0  0
  124.8670  178.9540  180.5090 C   0  0  1  0  0  0  0  0  0  0  0  0
  124.4340  178.5020  181.9260 C   0  0  0  0  0  0  0  0  0  0  0  0
  125.5310  178.2210  182.8320 N   0  0  0  0  0  0  0  0  0  0  0  0
  126.3300  179.1130  183.4800 C   0  0  0  0  0  0  0  0  0  0  0  0
  127.1520  178.4690  184.2770 N   0  0  0  0  0  0  0  0  0  0  0  0
  126.7890  177.1660  184.1030 C   0  0  0  0  0  0  0  0  0  0  0  0
  125.7820  176.9630  183.2490 N   0  0  0  0  0  0  0  0  0  0  0  0
  125.4050  180.3860  180.5250 C   0  0  0  0  0  0  0  0  0  0  0  0
  126.7440  180.6790  180.2120 C   0  0  0  0  0  0  0  0  0  0  0  0
  127.2140  181.9940  180.2490 C   0  0  0  0  0  0  0  0  0  0  0  0
  126.3510  183.0250  180.6000 C   0  0  0  0  0  0  0  0  0  0  0  0
  126.8060  184.2840  180.6330 F   0  0  0  0  0  0  0  0  0  0  0  0
  125.0280  182.7690  180.9230 C   0  0  0  0  0  0  0  0  0  0  0  0
  124.5700  181.4570  180.8870 C   0  0  0  0  0  0  0  0  0  0  0  0
  123.2960  181.2170  181.2260 F   0  0  0  0  0  0  0  0  0  0  0  0
  123.6910  178.8100  179.5100 C   0  0  0  0  0  0  0  0  0  0  0  0
  122.4640  175.0150  176.4350 C   0  0  0  0  0  0  0  0  0  0  0  0
  122.5070  173.9400  175.5380 C   0  0  0  0  0  0  0  0  0  0  0  0
  121.5630  171.6330  173.8840 C   0  0  0  0  0  0  0  0  0  0  0  0
  122.0700  170.7410  172.7300 C   0  0  0  0  0  0  0  0  0  0  0  0
  122.9790  167.0790  172.5730 C   0  0  0  0  0  0  0  0  0  0  0  0
  123.0150  166.0300  171.6360 C   0  0  0  0  0  0  0  0  0  0  0  0
  123.4340  164.9110  168.4010 C   0  0  0  0  0  0  0  0  0  0  0  0
  124.4140  165.5680  168.0840 O   0  0  0  0  0  0  0  0  0  0  0  0
  125.3885  162.0074  168.9845 H   0  0  0  0  0  0  0  0  0  0  0  0
  126.4070  161.3094  167.6798 H   0  0  0  0  0  0  0  0  0  0  0  0
  126.0261  163.0648  167.6798 H   0  0  0  0  0  0  0  0  0  0  0  0
  124.6799  161.2182  166.1915 H   0  0  0  0  0  0  0  0  0  0  0  0
  123.6871  161.2308  167.7180 H   0  0  0  0  0  0  0  0  0  0  0  0
  124.4475  163.7752  166.2495 H   0  0  0  0  0  0  0  0  0  0  0  0
  121.6839  162.9151  165.9256 H   0  0  0  0  0  0  0  0  0  0  0  0
  122.8716  160.6670  165.7656 H   0  0  0  0  0  0  0  0  0  0  0  0
  121.9277  161.1505  164.3158 H   0  0  0  0  0  0  0  0  0  0  0  0
  123.7171  161.3072  164.3158 H   0  0  0  0  0  0  0  0  0  0  0  0
  122.0810  164.3090  164.4330 H   0  0  0  0  0  0  0  0  0  0  0  0
  120.7812  163.9787  169.9770 H   0  0  0  0  0  0  0  0  0  0  0  0
  121.4726  167.5799  169.0483 H   0  0  0  0  0  0  0  0  0  0  0  0
  121.4152  169.4178  170.7043 H   0  0  0  0  0  0  0  0  0  0  0  0
  123.2846  168.2532  174.7174 H   0  0  0  0  0  0  0  0  0  0  0  0
  124.2370  169.6554  174.0702 H   0  0  0  0  0  0  0  0  0  0  0  0
  121.8071  169.7540  175.9267 H   0  0  0  0  0  0  0  0  0  0  0  0
  123.5170  170.2364  176.2891 H   0  0  0  0  0  0  0  0  0  0  0  0
  122.1952  171.3844  177.7406 H   0  0  0  0  0  0  0  0  0  0  0  0
  122.1141  173.2876  179.3377 H   0  0  0  0  0  0  0  0  0  0  0  0
  123.2677  176.4034  180.3338 H   0  0  0  0  0  0  0  0  0  0  0  0
  124.2339  175.4709  179.1543 H   0  0  0  0  0  0  0  0  0  0  0  0
  123.5634  177.6106  177.6777 H   0  0  0  0  0  0  0  0  0  0  0  0
  125.9361  176.6019  178.5060 H   0  0  0  0  0  0  0  0  0  0  0  0
  125.9375  178.2673  177.9148 H   0  0  0  0  0  0  0  0  0  0  0  0
  123.8200  179.3005  182.3681 H   0  0  0  0  0  0  0  0  0  0  0  0
  123.8860  177.5569  181.7977 H   0  0  0  0  0  0  0  0  0  0  0  0
  126.2929  180.2053  183.3553 H   0  0  0  0  0  0  0  0  0  0  0  0
  127.2902  176.3401  184.6290 H   0  0  0  0  0  0  0  0  0  0  0  0
  127.4289  179.8640  179.9350 H   0  0  0  0  0  0  0  0  0  0  0  0
  128.2632  182.2125  180.0012 H   0  0  0  0  0  0  0  0  0  0  0  0
  124.3517  183.5900  181.2031 H   0  0  0  0  0  0  0  0  0  0  0  0
  122.7427  178.6670  180.0488 H   0  0  0  0  0  0  0  0  0  0  0  0
  123.5696  179.7079  178.8863 H   0  0  0  0  0  0  0  0  0  0  0  0
  122.5457  176.0443  176.0556 H   0  0  0  0  0  0  0  0  0  0  0  0
  122.6264  174.1436  174.4636 H   0  0  0  0  0  0  0  0  0  0  0  0
  120.5568  171.2987  174.1769 H   0  0  0  0  0  0  0  0  0  0  0  0
  121.5457  172.6742  173.5296 H   0  0  0  0  0  0  0  0  0  0  0  0
  121.3008  170.7042  171.9445 H   0  0  0  0  0  0  0  0  0  0  0  0
  123.0056  171.1759  172.3485 H   0  0  0  0  0  0  0  0  0  0  0  0
  123.4210  166.9213  173.5679 H   0  0  0  0  0  0  0  0  0  0  0  0
  123.4782  165.0728  171.9175 H   0  0  0  0  0  0  0  0  0  0  0  0
  1  2  1  0
  2  3  1  0
  3  4  1  0
  4  5  1  0
  4  6  1  0
  3  7  1  0
  7  8  1  0
  8  9  2  0
  9 10  1  0
 10 11  1  0
 11 12  2  0
 12 13  1  0
 13 14  2  0
 14 15  1  0
 15 16  1  0
 16 17  1  0
 17 18  1  0
 18 19  1  0
 19 20  2  0
 20 21  1  0
 21 22  2  0
 22 23  1  0
 23 24  1  0
 24 25  1  0
 25 26  1  0
 26 27  1  0
 27 28  1  0
 28 29  1  1
 29 30  1  0
 30 31  1  0
 31 32  2  0
 32 33  1  0
 33 34  2  0
 28 35  1  0
 35 36  2  0
 36 37  1  0
 37 38  2  0
 38 39  1  0
 38 40  1  0
 40 41  2  0
 41 42  1  0
 28 43  1  0
 22 44  1  0
 44 45  2  0
 18 46  1  0
 46 47  1  0
 14 48  1  0
 48 49  2  0
 10 50  1  0
 50 51  2  0
 50  7  1  0
 49 11  1  0
 47 15  1  0
 45 19  1  0
 43 25  1  0
 34 30  1  0
 41 35  1  0
  1 52  1  0
  1 53  1  0
  1 54  1  0
  2 55  1  0
  2 56  1  0
  3 57  1  6
  4 58  1  1
  5 59  1  0
  5 60  1  0
  5 61  1  0
  6 62  1  0
  9 63  1  0
 12 64  1  0
 13 65  1  0
 16 66  1  0
 16 67  1  0
 17 68  1  0
 17 69  1  0
 20 70  1  0
 21 71  1  0
 24 72  1  0
 24 73  1  0
 25 74  1  6
 26 75  1  0
 26 76  1  0
 29 77  1  0
 29 78  1  0
 31 79  1  0
 33 80  1  0
 36 81  1  0
 37 82  1  0
 40 83  1  0
 43 84  1  0
 43 85  1  0
 44 86  1  0
 45 87  1  0
 46 88  1  0
 46 89  1  0
 47 90  1  0
 47 91  1  0
 48 92  1  0
 49 93  1  0
M  END
>  <meeko>  (5) 
{"is_sidechain": [false], "free_energy": -7.067, "intermolecular_energy": -12.357, "internal_energy": -1.636}

$$$$
REF_CHEMBL1397__W_7USX_LOCAL_COMPLETE__e8__s20260927
     RDKit          3D

 93 99  0  0  0  0  0  0  0  0999 V2000
  124.8620  178.3430  182.3610 C   0  0  0  0  0  0  0  0  0  0  0  0
  124.2390  179.3740  181.4280 C   0  0  0  0  0  0  0  0  0  0  0  0
  125.2520  180.4310  180.9450 C   0  0  1  0  0  0  0  0  0  0  0  0
  126.6330  180.2210  181.6140 C   0  0  2  0  0  0  0  0  0  0  0  0
  127.1960  181.5010  182.2230 C   0  0  0  0  0  0  0  0  0  0  0  0
  127.5870  179.7110  180.6770 O   0  0  0  0  0  0  0  0  0  0  0  0
  125.3630  180.4170  179.4890 N   0  0  0  0  0  0  0  0  0  0  0  0
  125.3400  179.2650  178.7430 N   0  0  0  0  0  0  0  0  0  0  0  0
  125.4460  179.6960  177.5240 C   0  0  0  0  0  0  0  0  0  0  0  0
  125.5430  181.0370  177.3700 N   0  0  0  0  0  0  0  0  0  0  0  0
  125.6690  181.7570  176.1570 C   0  0  0  0  0  0  0  0  0  0  0  0
  124.8190  182.8200  175.8410 C   0  0  0  0  0  0  0  0  0  0  0  0
  124.9530  183.5300  174.6370 C   0  0  0  0  0  0  0  0  0  0  0  0
  125.9390  183.2190  173.6940 C   0  0  0  0  0  0  0  0  0  0  0  0
  126.0430  183.9350  172.5100 N   0  0  0  0  0  0  0  0  0  0  0  0
  127.3950  184.1620  171.9540 C   0  0  0  0  0  0  0  0  0  0  0  0
  127.4270  185.3740  170.9960 C   0  0  0  0  0  0  0  0  0  0  0  0
  126.3670  185.2920  169.9750 N   0  0  0  0  0  0  0  0  0  0  0  0
  126.4680  186.0170  168.7940 C   0  0  0  0  0  0  0  0  0  0  0  0
  127.6910  186.4830  168.2910 C   0  0  0  0  0  0  0  0  0  0  0  0
  127.7750  187.2090  167.0920 C   0  0  0  0  0  0  0  0  0  0  0  0
  126.6260  187.4850  166.3590 C   0  0  0  0  0  0  0  0  0  0  0  0
  126.5620  188.1790  165.1840 O   0  0  0  0  0  0  0  0  0  0  0  0
  126.9950  187.5010  164.0050 C   0  0  0  0  0  0  0  0  0  0  0  0
  127.9290  188.4380  163.2290 C   0  0  2  0  0  0  0  0  0  0  0  0
  128.0440  188.0180  161.7850 C   0  0  0  0  0  0  0  0  0  0  0  0
  129.0510  187.0000  161.7640 O   0  0  0  0  0  0  0  0  0  0  0  0
  130.0240  187.2580  162.8090 C   0  0  1  0  0  0  0  0  0  0  0  0
  130.2350  185.9690  163.6430 C   0  0  0  0  0  0  0  0  0  0  0  0
  131.0280  184.9480  162.9880 N   0  0  0  0  0  0  0  0  0  0  0  0
  132.2870  184.5360  163.3030 C   0  0  0  0  0  0  0  0  0  0  0  0
  132.6280  183.5320  162.5300 N   0  0  0  0  0  0  0  0  0  0  0  0
  131.5130  183.3420  161.7670 C   0  0  0  0  0  0  0  0  0  0  0  0
  130.4950  184.1660  162.0280 N   0  0  0  0  0  0  0  0  0  0  0  0
  131.3380  187.7360  162.1870 C   0  0  0  0  0  0  0  0  0  0  0  0
  132.2520  188.5280  162.9030 C   0  0  0  0  0  0  0  0  0  0  0  0
  133.4390  188.9630  162.3070 C   0  0  0  0  0  0  0  0  0  0  0  0
  133.7190  188.6130  160.9920 C   0  0  0  0  0  0  0  0  0  0  0  0
  134.8570  189.0320  160.4250 F   0  0  0  0  0  0  0  0  0  0  0  0
  132.8340  187.8420  160.2550 C   0  0  0  0  0  0  0  0  0  0  0  0
  131.6540  187.4160  160.8560 C   0  0  0  0  0  0  0  0  0  0  0  0
  130.7930  186.6920  160.1270 F   0  0  0  0  0  0  0  0  0  0  0  0
  129.3820  188.3690  163.6770 C   0  0  0  0  0  0  0  0  0  0  0  0
  125.4010  187.0230  166.8330 C   0  0  0  0  0  0  0  0  0  0  0  0
  125.3270  186.2990  168.0300 C   0  0  0  0  0  0  0  0  0  0  0  0
  125.0140  185.0720  170.5320 C   0  0  0  0  0  0  0  0  0  0  0  0
  124.9800  183.8600  171.4890 C   0  0  0  0  0  0  0  0  0  0  0  0
  126.7780  182.1460  174.0090 C   0  0  0  0  0  0  0  0  0  0  0  0
  126.6510  181.4300  175.2130 C   0  0  0  0  0  0  0  0  0  0  0  0
  125.4920  181.5420  178.6590 C   0  0  0  0  0  0  0  0  0  0  0  0
  125.5460  182.6970  179.0530 O   0  0  0  0  0  0  0  0  0  0  0  0
  124.6835  178.6384  183.4054 H   0  0  0  0  0  0  0  0  0  0  0  0
  124.4074  177.3586  182.1756 H   0  0  0  0  0  0  0  0  0  0  0  0
  125.9448  178.2876  182.1756 H   0  0  0  0  0  0  0  0  0  0  0  0
  123.8300  178.8521  180.5503 H   0  0  0  0  0  0  0  0  0  0  0  0
  123.4545  179.9000  181.9918 H   0  0  0  0  0  0  0  0  0  0  0  0
  124.8815  181.4222  181.2455 H   0  0  0  0  0  0  0  0  0  0  0  0
  126.4637  179.4940  182.4220 H   0  0  0  0  0  0  0  0  0  0  0  0
  127.1646  181.4297  183.3202 H   0  0  0  0  0  0  0  0  0  0  0  0
  128.2368  181.6367  181.8940 H   0  0  0  0  0  0  0  0  0  0  0  0
  126.5926  182.3599  181.8940 H   0  0  0  0  0  0  0  0  0  0  0  0
  127.9310  178.8850  181.0800 H   0  0  0  0  0  0  0  0  0  0  0  0
  125.4564  179.0101  176.6641 H   0  0  0  0  0  0  0  0  0  0  0  0
  124.0285  183.1066  176.5502 H   0  0  0  0  0  0  0  0  0  0  0  0
  124.2599  184.3582  174.4281 H   0  0  0  0  0  0  0  0  0  0  0  0
  128.0945  184.3452  172.7830 H   0  0  0  0  0  0  0  0  0  0  0  0
  127.6836  183.2675  171.3825 H   0  0  0  0  0  0  0  0  0  0  0  0
  127.2871  186.2946  171.5815 H   0  0  0  0  0  0  0  0  0  0  0  0
  128.3989  185.3774  170.4808 H   0  0  0  0  0  0  0  0  0  0  0  0
  128.6131  186.2734  168.8530 H   0  0  0  0  0  0  0  0  0  0  0  0
  128.7529  187.5606  166.7314 H   0  0  0  0  0  0  0  0  0  0  0  0
  127.5338  186.5824  164.2804 H   0  0  0  0  0  0  0  0  0  0  0  0
  126.1291  187.2279  163.3840 H   0  0  0  0  0  0  0  0  0  0  0  0
  127.4817  189.4290  163.3956 H   0  0  0  0  0  0  0  0  0  0  0  0
  127.0852  187.6185  161.4229 H   0  0  0  0  0  0  0  0  0  0  0  0
  128.3043  188.8643  161.1323 H   0  0  0  0  0  0  0  0  0  0  0  0
  130.7394  186.2460  164.5805 H   0  0  0  0  0  0  0  0  0  0  0  0
  129.2371  185.5340  163.8012 H   0  0  0  0  0  0  0  0  0  0  0  0
  132.9213  184.9774  164.0858 H   0  0  0  0  0  0  0  0  0  0  0  0
  131.4565  182.5644  160.9910 H   0  0  0  0  0  0  0  0  0  0  0  0
  132.0308  188.8085  163.9434 H   0  0  0  0  0  0  0  0  0  0  0  0
  134.1490  189.5802  162.8771 H   0  0  0  0  0  0  0  0  0  0  0  0
  133.0607  187.5717  159.2131 H   0  0  0  0  0  0  0  0  0  0  0  0
  129.4445  188.1090  164.7440 H   0  0  0  0  0  0  0  0  0  0  0  0
  129.8956  189.3340  163.5544 H   0  0  0  0  0  0  0  0  0  0  0  0
  124.4832  187.2283  166.2625 H   0  0  0  0  0  0  0  0  0  0  0  0
  124.3471  185.9421  168.3799 H   0  0  0  0  0  0  0  0  0  0  0  0
  124.7056  185.9715  171.0849 H   0  0  0  0  0  0  0  0  0  0  0  0
  124.3282  184.8683  169.6964 H   0  0  0  0  0  0  0  0  0  0  0  0
  124.0031  183.8329  171.9940 H   0  0  0  0  0  0  0  0  0  0  0  0
  125.1436  182.9502  170.8928 H   0  0  0  0  0  0  0  0  0  0  0  0
  127.5608  181.8529  173.2939 H   0  0  0  0  0  0  0  0  0  0  0  0
  127.3376  180.5953  175.4177 H   0  0  0  0  0  0  0  0  0  0  0  0
  1  2  1  0
  2  3  1  0
  3  4  1  0
  4  5  1  0
  4  6  1  0
  3  7  1  0
  7  8  1  0
  8  9  2  0
  9 10  1  0
 10 11  1  0
 11 12  2  0
 12 13  1  0
 13 14  2  0
 14 15  1  0
 15 16  1  0
 16 17  1  0
 17 18  1  0
 18 19  1  0
 19 20  2  0
 20 21  1  0
 21 22  2  0
 22 23  1  0
 23 24  1  0
 24 25  1  0
 25 26  1  0
 26 27  1  0
 27 28  1  0
 28 29  1  1
 29 30  1  0
 30 31  1  0
 31 32  2  0
 32 33  1  0
 33 34  2  0
 28 35  1  0
 35 36  2  0
 36 37  1  0
 37 38  2  0
 38 39  1  0
 38 40  1  0
 40 41  2  0
 41 42  1  0
 28 43  1  0
 22 44  1  0
 44 45  2  0
 18 46  1  0
 46 47  1  0
 14 48  1  0
 48 49  2  0
 10 50  1  0
 50 51  2  0
 50  7  1  0
 49 11  1  0
 47 15  1  0
 45 19  1  0
 43 25  1  0
 34 30  1  0
 41 35  1  0
  1 52  1  0
  1 53  1  0
  1 54  1  0
  2 55  1  0
  2 56  1  0
  3 57  1  1
  4 58  1  1
  5 59  1  0
  5 60  1  0
  5 61  1  0
  6 62  1  0
  9 63  1  0
 12 64  1  0
 13 65  1  0
 16 66  1  0
 16 67  1  0
 17 68  1  0
 17 69  1  0
 20 70  1  0
 21 71  1  0
 24 72  1  0
 24 73  1  0
 25 74  1  6
 26 75  1  0
 26 76  1  0
 29 77  1  0
 29 78  1  0
 31 79  1  0
 33 80  1  0
 36 81  1  0
 37 82  1  0
 40 83  1  0
 43 84  1  0
 43 85  1  0
 44 86  1  0
 45 87  1  0
 46 88  1  0
 46 89  1  0
 47 90  1  0
 47 91  1  0
 48 92  1  0
 49 93  1  0
M  END
>  <meeko>  (6) 
{"is_sidechain": [false], "free_energy": -7.063, "intermolecular_energy": -12.181, "internal_energy": -1.805}

$$$$
REF_CHEMBL1397__W_7USX_LOCAL_COMPLETE__e8__s20260927
     RDKit          3D

 93 99  0  0  0  0  0  0  0  0999 V2000
  133.7250  185.8590  180.1220 C   0  0  0  0  0  0  0  0  0  0  0  0
  132.2700  186.3070  180.1780 C   0  0  0  0  0  0  0  0  0  0  0  0
  131.6310  186.0880  181.5630 C   0  0  1  0  0  0  0  0  0  0  0  0
  131.4270  187.4350  182.3000 C   0  0  2  0  0  0  0  0  0  0  0  0
  132.7030  187.9490  182.9580 C   0  0  0  0  0  0  0  0  0  0  0  0
  130.4150  187.3240  183.3050 O   0  0  0  0  0  0  0  0  0  0  0  0
  130.3730  185.3550  181.4460 N   0  0  0  0  0  0  0  0  0  0  0  0
  129.2570  185.8680  180.8340 N   0  0  0  0  0  0  0  0  0  0  0  0
  128.3930  184.9060  180.9320 C   0  0  0  0  0  0  0  0  0  0  0  0
  128.8150  183.7840  181.5590 N   0  0  0  0  0  0  0  0  0  0  0  0
  128.0750  182.6000  181.7970 C   0  0  0  0  0  0  0  0  0  0  0  0
  127.8540  181.6560  180.7910 C   0  0  0  0  0  0  0  0  0  0  0  0
  127.1210  180.4840  181.0380 C   0  0  0  0  0  0  0  0  0  0  0  0
  126.5770  180.1950  182.2940 C   0  0  0  0  0  0  0  0  0  0  0  0
  125.8510  179.0310  182.5050 N   0  0  0  0  0  0  0  0  0  0  0  0
  125.8880  177.9920  181.4530 C   0  0  0  0  0  0  0  0  0  0  0  0
  124.6710  177.0430  181.5400 C   0  0  0  0  0  0  0  0  0  0  0  0
  124.4920  176.5080  182.9020 N   0  0  0  0  0  0  0  0  0  0  0  0
  123.7570  175.3470  183.1130 C   0  0  0  0  0  0  0  0  0  0  0  0
  123.3830  174.4860  182.0710 C   0  0  0  0  0  0  0  0  0  0  0  0
  122.6460  173.3140  182.3030 C   0  0  0  0  0  0  0  0  0  0  0  0
  122.2650  172.9710  183.5970 C   0  0  0  0  0  0  0  0  0  0  0  0
  121.5490  171.8680  183.9640 O   0  0  0  0  0  0  0  0  0  0  0  0
  121.8680  170.6380  183.3130 C   0  0  0  0  0  0  0  0  0  0  0  0
  121.0900  169.5130  184.0030 C   0  0  2  0  0  0  0  0  0  0  0  0
  121.9690  168.7550  184.9670 C   0  0  0  0  0  0  0  0  0  0  0  0
  122.6590  167.7860  184.1710 O   0  0  0  0  0  0  0  0  0  0  0  0
  121.8180  167.3830  183.0590 C   0  0  1  0  0  0  0  0  0  0  0  0
  122.6260  167.4880  181.7410 C   0  0  0  0  0  0  0  0  0  0  0  0
  123.8530  166.7150  181.7210 N   0  0  0  0  0  0  0  0  0  0  0  0
  124.1520  165.6410  180.9390 C   0  0  0  0  0  0  0  0  0  0  0  0
  125.3930  165.2720  181.1550 N   0  0  0  0  0  0  0  0  0  0  0  0
  125.8290  166.1870  182.0690 C   0  0  0  0  0  0  0  0  0  0  0  0
  124.9310  167.1090  182.4260 N   0  0  0  0  0  0  0  0  0  0  0  0
  121.3090  165.9580  183.2850 C   0  0  0  0  0  0  0  0  0  0  0  0
  121.8750  165.1140  184.2560 C   0  0  0  0  0  0  0  0  0  0  0  0
  121.4020  163.8110  184.4320 C   0  0  0  0  0  0  0  0  0  0  0  0
  120.3620  163.3420  183.6380 C   0  0  0  0  0  0  0  0  0  0  0  0
  119.9120  162.0930  183.8110 F   0  0  0  0  0  0  0  0  0  0  0  0
  119.7890  164.1450  182.6650 C   0  0  0  0  0  0  0  0  0  0  0  0
  120.2690  165.4390  182.4950 C   0  0  0  0  0  0  0  0  0  0  0  0
  119.7250  166.1990  181.5340 F   0  0  0  0  0  0  0  0  0  0  0  0
  120.6500  168.4000  183.0620 C   0  0  0  0  0  0  0  0  0  0  0  0
  122.6350  173.8050  184.6480 C   0  0  0  0  0  0  0  0  0  0  0  0
  123.3710  174.9730  184.4070 C   0  0  0  0  0  0  0  0  0  0  0  0
  124.4480  177.5490  183.9530 C   0  0  0  0  0  0  0  0  0  0  0  0
  125.6640  178.4980  183.8680 C   0  0  0  0  0  0  0  0  0  0  0  0
  126.7890  181.1500  183.2930 C   0  0  0  0  0  0  0  0  0  0  0  0
  127.5240  182.3260  183.0550 C   0  0  0  0  0  0  0  0  0  0  0  0
  130.1280  184.0530  181.9120 C   0  0  0  0  0  0  0  0  0  0  0  0
  130.9410  183.3580  182.5020 O   0  0  0  0  0  0  0  0  0  0  0  0
  134.1116  185.7399  181.1449 H   0  0  0  0  0  0  0  0  0  0  0  0
  133.7927  184.8984  179.5903 H   0  0  0  0  0  0  0  0  0  0  0  0
  134.3213  186.6151  179.5903 H   0  0  0  0  0  0  0  0  0  0  0  0
  132.2226  187.3787  179.9345 H   0  0  0  0  0  0  0  0  0  0  0  0
  131.7080  185.6989  179.4539 H   0  0  0  0  0  0  0  0  0  0  0  0
  132.3219  185.4787  182.1641 H   0  0  0  0  0  0  0  0  0  0  0  0
  131.1198  188.1530  181.5254 H   0  0  0  0  0  0  0  0  0  0  0  0
  132.5947  187.9054  184.0518 H   0  0  0  0  0  0  0  0  0  0  0  0
  133.5530  187.3231  182.6484 H   0  0  0  0  0  0  0  0  0  0  0  0
  132.8818  188.9893  182.6484 H   0  0  0  0  0  0  0  0  0  0  0  0
  129.6290  187.7810  182.9320 H   0  0  0  0  0  0  0  0  0  0  0  0
  127.3740  184.9972  180.5279 H   0  0  0  0  0  0  0  0  0  0  0  0
  128.2624  181.8344  179.7853 H   0  0  0  0  0  0  0  0  0  0  0  0
  126.9694  179.7689  180.2160 H   0  0  0  0  0  0  0  0  0  0  0  0
  125.8875  178.4822  180.4683 H   0  0  0  0  0  0  0  0  0  0  0  0
  126.7994  177.3930  181.5961 H   0  0  0  0  0  0  0  0  0  0  0  0
  123.7654  177.5976  181.2532 H   0  0  0  0  0  0  0  0  0  0  0  0
  124.8473  176.1966  180.8599 H   0  0  0  0  0  0  0  0  0  0  0  0
  123.6760  174.7366  181.0408 H   0  0  0  0  0  0  0  0  0  0  0  0
  122.3687  172.6647  181.4595 H   0  0  0  0  0  0  0  0  0  0  0  0
  121.5807  170.6929  182.2526 H   0  0  0  0  0  0  0  0  0  0  0  0
  122.9491  170.4451  183.3758 H   0  0  0  0  0  0  0  0  0  0  0  0
  120.2401  170.0423  184.4586 H   0  0  0  0  0  0  0  0  0  0  0  0
  122.6849  169.4353  185.4514 H   0  0  0  0  0  0  0  0  0  0  0  0
  121.3836  168.2829  185.7697 H   0  0  0  0  0  0  0  0  0  0  0  0
  121.9863  167.1374  180.9177 H   0  0  0  0  0  0  0  0  0  0  0  0
  122.9208  168.5429  181.6397 H   0  0  0  0  0  0  0  0  0  0  0  0
  123.4597  165.1570  180.2344 H   0  0  0  0  0  0  0  0  0  0  0  0
  126.8481  166.1666  182.4825 H   0  0  0  0  0  0  0  0  0  0  0  0
  122.6991  165.4832  184.8841 H   0  0  0  0  0  0  0  0  0  0  0  0
  121.8509  163.1591  185.1959 H   0  0  0  0  0  0  0  0  0  0  0  0
  118.9687  163.7655  182.0380 H   0  0  0  0  0  0  0  0  0  0  0  0
  120.4808  168.7956  182.0496 H   0  0  0  0  0  0  0  0  0  0  0  0
  119.7051  167.9389  183.3852 H   0  0  0  0  0  0  0  0  0  0  0  0
  122.3471  173.5450  185.6773 H   0  0  0  0  0  0  0  0  0  0  0  0
  123.6531  175.6130  185.2560 H   0  0  0  0  0  0  0  0  0  0  0  0
  123.5269  178.1381  183.8330 H   0  0  0  0  0  0  0  0  0  0  0  0
  124.4710  177.0488  184.9324 H   0  0  0  0  0  0  0  0  0  0  0  0
  125.5084  179.3385  184.5604 H   0  0  0  0  0  0  0  0  0  0  0  0
  126.5636  177.9247  184.1365 H   0  0  0  0  0  0  0  0  0  0  0  0
  126.3687  180.9768  184.2947 H   0  0  0  0  0  0  0  0  0  0  0  0
  127.6689  183.0454  183.8744 H   0  0  0  0  0  0  0  0  0  0  0  0
  1  2  1  0
  2  3  1  0
  3  4  1  0
  4  5  1  0
  4  6  1  0
  3  7  1  0
  7  8  1  0
  8  9  2  0
  9 10  1  0
 10 11  1  0
 11 12  2  0
 12 13  1  0
 13 14  2  0
 14 15  1  0
 15 16  1  0
 16 17  1  0
 17 18  1  0
 18 19  1  0
 19 20  2  0
 20 21  1  0
 21 22  2  0
 22 23  1  0
 23 24  1  0
 24 25  1  0
 25 26  1  0
 26 27  1  0
 27 28  1  0
 28 29  1  6
 29 30  1  0
 30 31  1  0
 31 32  2  0
 32 33  1  0
 33 34  2  0
 28 35  1  0
 35 36  2  0
 36 37  1  0
 37 38  2  0
 38 39  1  0
 38 40  1  0
 40 41  2  0
 41 42  1  0
 28 43  1  0
 22 44  1  0
 44 45  2  0
 18 46  1  0
 46 47  1  0
 14 48  1  0
 48 49  2  0
 10 50  1  0
 50 51  2  0
 50  7  1  0
 49 11  1  0
 47 15  1  0
 45 19  1  0
 43 25  1  0
 34 30  1  0
 41 35  1  0
  1 52  1  0
  1 53  1  0
  1 54  1  0
  2 55  1  0
  2 56  1  0
  3 57  1  1
  4 58  1  6
  5 59  1  0
  5 60  1  0
  5 61  1  0
  6 62  1  0
  9 63  1  0
 12 64  1  0
 13 65  1  0
 16 66  1  0
 16 67  1  0
 17 68  1  0
 17 69  1  0
 20 70  1  0
 21 71  1  0
 24 72  1  0
 24 73  1  0
 25 74  1  1
 26 75  1  0
 26 76  1  0
 29 77  1  0
 29 78  1  0
 31 79  1  0
 33 80  1  0
 36 81  1  0
 37 82  1  0
 40 83  1  0
 43 84  1  0
 43 85  1  0
 44 86  1  0
 45 87  1  0
 46 88  1  0
 46 89  1  0
 47 90  1  0
 47 91  1  0
 48 92  1  0
 49 93  1  0
M  END
>  <meeko>  (7) 
{"is_sidechain": [false], "free_energy": -7.059, "intermolecular_energy": -12.298, "internal_energy": -1.68}

$$$$
REF_CHEMBL1397__W_7USX_LOCAL_COMPLETE__e8__s20260927
     RDKit          3D

 93 99  0  0  0  0  0  0  0  0999 V2000
  123.5270  164.8640  161.0170 C   0  0  0  0  0  0  0  0  0  0  0  0
  123.1590  164.5310  162.4570 C   0  0  0  0  0  0  0  0  0  0  0  0
  122.2130  165.5720  163.0870 C   0  0  1  0  0  0  0  0  0  0  0  0
  120.7680  165.4020  162.5560 C   0  0  2  0  0  0  0  0  0  0  0  0
  120.0010  166.7180  162.4970 C   0  0  0  0  0  0  0  0  0  0  0  0
  120.0270  164.4840  163.3660 O   0  0  0  0  0  0  0  0  0  0  0  0
  122.2520  165.4940  164.5450 N   0  0  0  0  0  0  0  0  0  0  0  0
  122.4340  164.3200  165.2320 N   0  0  0  0  0  0  0  0  0  0  0  0
  122.4220  164.6950  166.4750 C   0  0  0  0  0  0  0  0  0  0  0  0
  122.2440  166.0170  166.6980 N   0  0  0  0  0  0  0  0  0  0  0  0
  122.1900  166.6780  167.9500 C   0  0  0  0  0  0  0  0  0  0  0  0
  121.4170  167.8260  168.1420 C   0  0  0  0  0  0  0  0  0  0  0  0
  121.3680  168.4740  169.3870 C   0  0  0  0  0  0  0  0  0  0  0  0
  122.0800  168.0090  170.4980 C   0  0  0  0  0  0  0  0  0  0  0  0
  122.0160  168.6740  171.7140 N   0  0  0  0  0  0  0  0  0  0  0  0
  122.8080  168.1360  172.8410 C   0  0  0  0  0  0  0  0  0  0  0  0
  122.2540  168.6000  174.2070 C   0  0  0  0  0  0  0  0  0  0  0  0
  122.0670  170.0620  174.2530 N   0  0  0  0  0  0  0  0  0  0  0  0
  121.9940  170.7250  175.4710 C   0  0  0  0  0  0  0  0  0  0  0  0
  121.6160  170.0870  176.6620 C   0  0  0  0  0  0  0  0  0  0  0  0
  121.5530  170.7720  177.8850 C   0  0  0  0  0  0  0  0  0  0  0  0
  121.8740  172.1240  177.9480 C   0  0  0  0  0  0  0  0  0  0  0  0
  121.8550  172.9100  179.0650 O   0  0  0  0  0  0  0  0  0  0  0  0
  122.6660  174.0850  179.0480 C   0  0  0  0  0  0  0  0  0  0  0  0
  123.7150  173.9600  180.1580 C   0  0  2  0  0  0  0  0  0  0  0  0
  123.0820  173.5280  181.4580 C   0  0  0  0  0  0  0  0  0  0  0  0
  122.5910  174.7300  182.0600 O   0  0  0  0  0  0  0  0  0  0  0  0
  123.4430  175.8440  181.6870 C   0  0  1  0  0  0  0  0  0  0  0  0
  122.5660  177.0050  181.1540 C   0  0  0  0  0  0  0  0  0  0  0  0
  123.2160  177.8540  180.1750 N   0  0  0  0  0  0  0  0  0  0  0  0
  123.1290  177.7840  178.8180 C   0  0  0  0  0  0  0  0  0  0  0  0
  123.7940  178.7800  178.2820 N   0  0  0  0  0  0  0  0  0  0  0  0
  124.2510  179.4630  179.3720 C   0  0  0  0  0  0  0  0  0  0  0  0
  123.9000  178.9510  180.5540 N   0  0  0  0  0  0  0  0  0  0  0  0
  124.2750  176.2870  182.8920 C   0  0  0  0  0  0  0  0  0  0  0  0
  123.7900  176.1760  184.2080 C   0  0  0  0  0  0  0  0  0  0  0  0
  124.5640  176.6020  185.2910 C   0  0  0  0  0  0  0  0  0  0  0  0
  125.8240  177.1430  185.0680 C   0  0  0  0  0  0  0  0  0  0  0  0
  126.5620  177.5490  186.1090 F   0  0  0  0  0  0  0  0  0  0  0  0
  126.3260  177.2750  183.7830 C   0  0  0  0  0  0  0  0  0  0  0  0
  125.5490  176.8510  182.7110 C   0  0  0  0  0  0  0  0  0  0  0  0
  126.0330  177.0070  181.4710 F   0  0  0  0  0  0  0  0  0  0  0  0
  124.3480  175.2850  180.5600 C   0  0  0  0  0  0  0  0  0  0  0  0
  122.2640  172.7750  176.7810 C   0  0  0  0  0  0  0  0  0  0  0  0
  122.3240  172.0840  175.5640 C   0  0  0  0  0  0  0  0  0  0  0  0
  121.2690  170.5990  173.1290 C   0  0  0  0  0  0  0  0  0  0  0  0
  121.8220  170.1370  171.7630 C   0  0  0  0  0  0  0  0  0  0  0  0
  122.8620  166.8680  170.2960 C   0  0  0  0  0  0  0  0  0  0  0  0
  122.9160  166.2120  169.0530 C   0  0  0  0  0  0  0  0  0  0  0  0
  122.1270  166.5730  165.4350 C   0  0  0  0  0  0  0  0  0  0  0  0
  121.9500  167.7350  165.1010 O   0  0  0  0  0  0  0  0  0  0  0  0
  124.3426  165.6020  161.0083 H   0  0  0  0  0  0  0  0  0  0  0  0
  123.8547  163.9493  160.5014 H   0  0  0  0  0  0  0  0  0  0  0  0
  122.6495  165.2812  160.5014 H   0  0  0  0  0  0  0  0  0  0  0  0
  122.6634  163.5491  162.4752 H   0  0  0  0  0  0  0  0  0  0  0  0
  124.0888  164.5294  163.0448 H   0  0  0  0  0  0  0  0  0  0  0  0
  122.5620  166.5728  162.7927 H   0  0  0  0  0  0  0  0  0  0  0  0
  120.8715  165.0120  161.5327 H   0  0  0  0  0  0  0  0  0  0  0  0
  119.7963  167.0692  163.5191 H   0  0  0  0  0  0  0  0  0  0  0  0
  120.6026  167.4695  161.9646 H   0  0  0  0  0  0  0  0  0  0  0  0
  119.0506  166.5650  161.9646 H   0  0  0  0  0  0  0  0  0  0  0  0
  120.7020  163.9490  163.8360 H   0  0  0  0  0  0  0  0  0  0  0  0
  122.5493  163.9783  167.2997 H   0  0  0  0  0  0  0  0  0  0  0  0
  120.8349  168.2305  167.3008 H   0  0  0  0  0  0  0  0  0  0  0  0
  120.7492  169.3773  169.4922 H   0  0  0  0  0  0  0  0  0  0  0  0
  122.7822  167.0370  172.8014 H   0  0  0  0  0  0  0  0  0  0  0  0
  123.8373  168.5118  172.7448 H   0  0  0  0  0  0  0  0  0  0  0  0
  121.2844  168.1111  174.3828 H   0  0  0  0  0  0  0  0  0  0  0  0
  122.9823  168.3234  174.9836 H   0  0  0  0  0  0  0  0  0  0  0  0
  121.3613  169.0172  176.6363 H   0  0  0  0  0  0  0  0  0  0  0  0
  121.2487  170.2379  178.7972 H   0  0  0  0  0  0  0  0  0  0  0  0
  123.1657  174.1783  178.0725 H   0  0  0  0  0  0  0  0  0  0  0  0
  122.0444  174.9776  179.2119 H   0  0  0  0  0  0  0  0  0  0  0  0
  124.4443  173.2547  179.7330 H   0  0  0  0  0  0  0  0  0  0  0  0
  122.2557  172.8268  181.2693 H   0  0  0  0  0  0  0  0  0  0  0  0
  123.7999  173.0081  182.1094 H   0  0  0  0  0  0  0  0  0  0  0  0
  121.6683  176.5711  180.6894 H   0  0  0  0  0  0  0  0  0  0  0  0
  122.3385  177.6454  182.0190 H   0  0  0  0  0  0  0  0  0  0  0  0
  122.5843  177.0105  178.2567 H   0  0  0  0  0  0  0  0  0  0  0  0
  124.8652  180.3712  179.2828 H   0  0  0  0  0  0  0  0  0  0  0  0
  122.7918  175.7497  184.3863 H   0  0  0  0  0  0  0  0  0  0  0  0
  124.1768  176.5092  186.3164 H   0  0  0  0  0  0  0  0  0  0  0  0
  127.3229  177.7081  183.6141 H   0  0  0  0  0  0  0  0  0  0  0  0
  124.3705  175.9766  179.7049 H   0  0  0  0  0  0  0  0  0  0  0  0
  125.3885  175.1584  180.8938 H   0  0  0  0  0  0  0  0  0  0  0  0
  122.5276  173.8424  176.8149 H   0  0  0  0  0  0  0  0  0  0  0  0
  122.6383  172.6221  174.6575 H   0  0  0  0  0  0  0  0  0  0  0  0
  120.2309  170.2494  173.2299 H   0  0  0  0  0  0  0  0  0  0  0  0
  121.3208  171.6972  173.1659 H   0  0  0  0  0  0  0  0  0  0  0  0
  121.1119  170.4282  170.9749 H   0  0  0  0  0  0  0  0  0  0  0  0
  122.8006  170.6160  171.6117 H   0  0  0  0  0  0  0  0  0  0  0  0
  123.4530  166.4712  171.1346 H   0  0  0  0  0  0  0  0  0  0  0  0
  123.5418  165.3138  168.9450 H   0  0  0  0  0  0  0  0  0  0  0  0
  1  2  1  0
  2  3  1  0
  3  4  1  0
  4  5  1  0
  4  6  1  0
  3  7  1  0
  7  8  1  0
  8  9  2  0
  9 10  1  0
 10 11  1  0
 11 12  2  0
 12 13  1  0
 13 14  2  0
 14 15  1  0
 15 16  1  0
 16 17  1  0
 17 18  1  0
 18 19  1  0
 19 20  2  0
 20 21  1  0
 21 22  2  0
 22 23  1  0
 23 24  1  0
 24 25  1  0
 25 26  1  0
 26 27  1  0
 27 28  1  0
 28 29  1  6
 29 30  1  0
 30 31  1  0
 31 32  2  0
 32 33  1  0
 33 34  2  0
 28 35  1  0
 35 36  2  0
 36 37  1  0
 37 38  2  0
 38 39  1  0
 38 40  1  0
 40 41  2  0
 41 42  1  0
 28 43  1  0
 22 44  1  0
 44 45  2  0
 18 46  1  0
 46 47  1  0
 14 48  1  0
 48 49  2  0
 10 50  1  0
 50 51  2  0
 50  7  1  0
 49 11  1  0
 47 15  1  0
 45 19  1  0
 43 25  1  0
 34 30  1  0
 41 35  1  0
  1 52  1  0
  1 53  1  0
  1 54  1  0
  2 55  1  0
  2 56  1  0
  3 57  1  1
  4 58  1  6
  5 59  1  0
  5 60  1  0
  5 61  1  0
  6 62  1  0
  9 63  1  0
 12 64  1  0
 13 65  1  0
 16 66  1  0
 16 67  1  0
 17 68  1  0
 17 69  1  0
 20 70  1  0
 21 71  1  0
 24 72  1  0
 24 73  1  0
 25 74  1  6
 26 75  1  0
 26 76  1  0
 29 77  1  0
 29 78  1  0
 31 79  1  0
 33 80  1  0
 36 81  1  0
 37 82  1  0
 40 83  1  0
 43 84  1  0
 43 85  1  0
 44 86  1  0
 45 87  1  0
 46 88  1  0
 46 89  1  0
 47 90  1  0
 47 91  1  0
 48 92  1  0
 49 93  1  0
M  END
>  <meeko>  (8) 
{"is_sidechain": [false], "free_energy": -6.994, "intermolecular_energy": -12.496, "internal_energy": -1.37}

$$$$
REF_CHEMBL1397__W_7USX_LOCAL_COMPLETE__e8__s20260927
     RDKit          3D

 93 99  0  0  0  0  0  0  0  0999 V2000
  129.1130  186.0880  178.1160 C   0  0  0  0  0  0  0  0  0  0  0  0
  129.9540  186.7290  179.2120 C   0  0  0  0  0  0  0  0  0  0  0  0
  130.5320  185.6970  180.2000 C   0  0  1  0  0  0  0  0  0  0  0  0
  131.5140  186.3680  181.1930 C   0  0  2  0  0  0  0  0  0  0  0  0
  132.9720  186.2320  180.7660 C   0  0  0  0  0  0  0  0  0  0  0  0
  131.3760  185.8160  182.5060 O   0  0  0  0  0  0  0  0  0  0  0  0
  129.4620  184.9990  180.9080 N   0  0  0  0  0  0  0  0  0  0  0  0
  128.5840  185.6280  181.7540 N   0  0  0  0  0  0  0  0  0  0  0  0
  127.8040  184.6670  182.1450 C   0  0  0  0  0  0  0  0  0  0  0  0
  128.0730  183.4390  181.6460 N   0  0  0  0  0  0  0  0  0  0  0  0
  127.3820  182.2310  181.9130 C   0  0  0  0  0  0  0  0  0  0  0  0
  127.2230  181.7470  183.2140 C   0  0  0  0  0  0  0  0  0  0  0  0
  126.5340  180.5500  183.4690 C   0  0  0  0  0  0  0  0  0  0  0  0
  125.9680  179.7830  182.4450 C   0  0  0  0  0  0  0  0  0  0  0  0
  125.2980  178.6010  182.7280 N   0  0  0  0  0  0  0  0  0  0  0  0
  125.6020  177.4160  181.8960 C   0  0  0  0  0  0  0  0  0  0  0  0
  124.4590  176.3770  181.9360 C   0  0  0  0  0  0  0  0  0  0  0  0
  124.0650  176.0510  183.3190 N   0  0  0  0  0  0  0  0  0  0  0  0
  123.3860  174.8720  183.5990 C   0  0  0  0  0  0  0  0  0  0  0  0
  123.0360  174.4880  184.9020 C   0  0  0  0  0  0  0  0  0  0  0  0
  122.3450  173.2950  185.1660 C   0  0  0  0  0  0  0  0  0  0  0  0
  121.9790  172.4520  184.1220 C   0  0  0  0  0  0  0  0  0  0  0  0
  121.3090  171.2670  184.2340 O   0  0  0  0  0  0  0  0  0  0  0  0
  121.8540  170.1440  183.5420 C   0  0  0  0  0  0  0  0  0  0  0  0
  121.5780  168.8870  184.3760 C   0  0  2  0  0  0  0  0  0  0  0  0
  122.7270  168.5890  185.3070 C   0  0  0  0  0  0  0  0  0  0  0  0
  123.6740  167.8570  184.5210 O   0  0  0  0  0  0  0  0  0  0  0  0
  122.9720  167.0760  183.5190 C   0  0  1  0  0  0  0  0  0  0  0  0
  123.6090  167.3340  182.1300 C   0  0  0  0  0  0  0  0  0  0  0  0
  122.6840  167.2530  181.0160 N   0  0  0  0  0  0  0  0  0  0  0  0
  122.1920  168.2740  180.2620 C   0  0  0  0  0  0  0  0  0  0  0  0
  121.4490  167.7880  179.2940 N   0  0  0  0  0  0  0  0  0  0  0  0
  121.5460  166.4400  179.4830 C   0  0  0  0  0  0  0  0  0  0  0  0
  122.3130  166.0610  180.5080 N   0  0  0  0  0  0  0  0  0  0  0  0
  123.0280  165.5920  183.8870 C   0  0  0  0  0  0  0  0  0  0  0  0
  121.8620  164.8440  184.1300 C   0  0  0  0  0  0  0  0  0  0  0  0
  121.9420  163.4930  184.4780 C   0  0  0  0  0  0  0  0  0  0  0  0
  123.1850  162.8810  184.5890 C   0  0  0  0  0  0  0  0  0  0  0  0
  123.2550  161.5860  184.9230 F   0  0  0  0  0  0  0  0  0  0  0  0
  124.3530  163.5930  184.3660 C   0  0  0  0  0  0  0  0  0  0  0  0
  124.2640  164.9370  184.0230 C   0  0  0  0  0  0  0  0  0  0  0  0
  125.4000  165.6230  183.8340 F   0  0  0  0  0  0  0  0  0  0  0  0
  121.5170  167.6060  183.5560 C   0  0  0  0  0  0  0  0  0  0  0  0
  122.3060  172.8180  182.8190 C   0  0  0  0  0  0  0  0  0  0  0  0
  122.9960  174.0110  182.5650 C   0  0  0  0  0  0  0  0  0  0  0  0
  123.7550  177.2360  184.1480 C   0  0  0  0  0  0  0  0  0  0  0  0
  124.8970  178.2760  184.1100 C   0  0  0  0  0  0  0  0  0  0  0  0
  126.1420  180.2650  181.1440 C   0  0  0  0  0  0  0  0  0  0  0  0
  126.8290  181.4640  180.8800 C   0  0  0  0  0  0  0  0  0  0  0  0
  129.1700  183.6280  180.8220 C   0  0  0  0  0  0  0  0  0  0  0  0
  129.7930  182.8230  180.1460 O   0  0  0  0  0  0  0  0  0  0  0  0
  128.3169  185.4812  178.5722 H   0  0  0  0  0  0  0  0  0  0  0  0
  128.6629  186.8742  177.4921 H   0  0  0  0  0  0  0  0  0  0  0  0
  129.7518  185.4456  177.4921 H   0  0  0  0  0  0  0  0  0  0  0  0
  130.7877  187.2724  178.7432 H   0  0  0  0  0  0  0  0  0  0  0  0
  129.2979  187.4030  179.7823 H   0  0  0  0  0  0  0  0  0  0  0  0
  131.0974  184.9514  179.6217 H   0  0  0  0  0  0  0  0  0  0  0  0
  131.2487  187.4355  181.1968 H   0  0  0  0  0  0  0  0  0  0  0  0
  133.6115  186.1723  181.6590 H   0  0  0  0  0  0  0  0  0  0  0  0
  133.0945  185.3185  180.1655 H   0  0  0  0  0  0  0  0  0  0  0  0
  133.2614  187.1070  180.1655 H   0  0  0  0  0  0  0  0  0  0  0  0
  130.4210  185.8950  182.7210 H   0  0  0  0  0  0  0  0  0  0  0  0
  126.9715  184.8414  182.8426 H   0  0  0  0  0  0  0  0  0  0  0  0
  127.6461  182.3150  184.0557 H   0  0  0  0  0  0  0  0  0  0  0  0
  126.4361  180.2040  184.5086 H   0  0  0  0  0  0  0  0  0  0  0  0
  125.7517  177.7405  180.8557 H   0  0  0  0  0  0  0  0  0  0  0  0
  126.5095  176.9409  182.2970 H   0  0  0  0  0  0  0  0  0  0  0  0
  123.5872  176.7858  181.4041 H   0  0  0  0  0  0  0  0  0  0  0  0
  124.8177  175.4547  181.4557 H   0  0  0  0  0  0  0  0  0  0  0  0
  123.3115  175.1418  185.7426 H   0  0  0  0  0  0  0  0  0  0  0  0
  122.0921  173.0259  186.2022 H   0  0  0  0  0  0  0  0  0  0  0  0
  121.3779  170.0479  182.5550 H   0  0  0  0  0  0  0  0  0  0  0  0
  122.9368  170.2748  183.3989 H   0  0  0  0  0  0  0  0  0  0  0  0
  120.6226  169.1195  184.8692 H   0  0  0  0  0  0  0  0  0  0  0  0
  123.1745  169.5232  185.6771 H   0  0  0  0  0  0  0  0  0  0  0  0
  122.4009  168.0192  186.1896 H   0  0  0  0  0  0  0  0  0  0  0  0
  124.0501  168.3417  182.1369 H   0  0  0  0  0  0  0  0  0  0  0  0
  124.3524  166.5380  181.9758 H   0  0  0  0  0  0  0  0  0  0  0  0
  122.3868  169.3424  180.4366 H   0  0  0  0  0  0  0  0  0  0  0  0
  121.0285  165.7163  178.8361 H   0  0  0  0  0  0  0  0  0  0  0  0
  120.8774  165.3272  184.0453 H   0  0  0  0  0  0  0  0  0  0  0  0
  121.0242  162.9157  184.6635 H   0  0  0  0  0  0  0  0  0  0  0  0
  125.3334  163.1030  184.4588 H   0  0  0  0  0  0  0  0  0  0  0  0
  121.1575  167.8167  182.5380 H   0  0  0  0  0  0  0  0  0  0  0  0
  120.8236  166.8719  183.9923 H   0  0  0  0  0  0  0  0  0  0  0  0
  122.0201  172.1648  181.9814 H   0  0  0  0  0  0  0  0  0  0  0  0
  123.2379  174.2786  181.5258 H   0  0  0  0  0  0  0  0  0  0  0  0
  122.8341  177.7041  183.7701 H   0  0  0  0  0  0  0  0  0  0  0  0
  123.6300  176.9026  185.1888 H   0  0  0  0  0  0  0  0  0  0  0  0
  124.5569  179.1962  184.6075 H   0  0  0  0  0  0  0  0  0  0  0  0
  125.7680  177.8456  184.6259 H   0  0  0  0  0  0  0  0  0  0  0  0
  125.7295  179.6897  180.3020 H   0  0  0  0  0  0  0  0  0  0  0  0
  126.9340  181.8064  179.8399 H   0  0  0  0  0  0  0  0  0  0  0  0
  1  2  1  0
  2  3  1  0
  3  4  1  0
  4  5  1  0
  4  6  1  0
  3  7  1  0
  7  8  1  0
  8  9  2  0
  9 10  1  0
 10 11  1  0
 11 12  2  0
 12 13  1  0
 13 14  2  0
 14 15  1  0
 15 16  1  0
 16 17  1  0
 17 18  1  0
 18 19  1  0
 19 20  2  0
 20 21  1  0
 21 22  2  0
 22 23  1  0
 23 24  1  0
 24 25  1  0
 25 26  1  0
 26 27  1  0
 27 28  1  0
 28 29  1  6
 29 30  1  0
 30 31  1  0
 31 32  2  0
 32 33  1  0
 33 34  2  0
 28 35  1  0
 35 36  2  0
 36 37  1  0
 37 38  2  0
 38 39  1  0
 38 40  1  0
 40 41  2  0
 41 42  1  0
 28 43  1  0
 22 44  1  0
 44 45  2  0
 18 46  1  0
 46 47  1  0
 14 48  1  0
 48 49  2  0
 10 50  1  0
 50 51  2  0
 50  7  1  0
 49 11  1  0
 47 15  1  0
 45 19  1  0
 43 25  1  0
 34 30  1  0
 41 35  1  0
  1 52  1  0
  1 53  1  0
  1 54  1  0
  2 55  1  0
  2 56  1  0
  3 57  1  6
  4 58  1  1
  5 59  1  0
  5 60  1  0
  5 61  1  0
  6 62  1  0
  9 63  1  0
 12 64  1  0
 13 65  1  0
 16 66  1  0
 16 67  1  0
 17 68  1  0
 17 69  1  0
 20 70  1  0
 21 71  1  0
 24 72  1  0
 24 73  1  0
 25 74  1  1
 26 75  1  0
 26 76  1  0
 29 77  1  0
 29 78  1  0
 31 79  1  0
 33 80  1  0
 36 81  1  0
 37 82  1  0
 40 83  1  0
 43 84  1  0
 43 85  1  0
 44 86  1  0
 45 87  1  0
 46 88  1  0
 46 89  1  0
 47 90  1  0
 47 91  1  0
 48 92  1  0
 49 93  1  0
M  END
>  <meeko>  (9) 
{"is_sidechain": [false], "free_energy": -6.992, "intermolecular_energy": -11.876, "internal_energy": -1.988}

$$$$
