
     RDKit          3D

 55 59  0  0  0  0  0  0  0  0999 V2000
    3.6877   -0.7781   -0.1334 O   0  0  0  0  0  0  0  0  0  0  0  0
    4.1633    0.3199    0.1284 C   0  0  0  0  0  0  0  0  0  0  0  0
    3.4823    1.4434    0.5604 N   0  0  0  0  0  0  0  0  0  0  0  0
    2.1048    1.5535    0.8509 C   0  0  0  0  0  0  0  0  0  0  0  0
    1.6437    2.8017    1.2849 C   0  0  0  0  0  0  0  0  0  0  0  0
    0.2975    2.9924    1.5949 C   0  0  0  0  0  0  0  0  0  0  0  0
   -0.6001    1.9321    1.4779 C   0  0  0  0  0  0  0  0  0  0  0  0
   -0.1659    0.6678    1.0546 C   0  0  0  0  0  0  0  0  0  0  0  0
   -1.1488   -0.4389    0.9266 C   0  0  0  0  0  0  0  0  0  0  0  0
   -0.7930   -1.7002    1.2518 C   0  0  0  0  0  0  0  0  0  0  0  0
   -1.7351   -2.6980    1.1301 N   0  0  0  0  0  0  0  0  0  0  0  0
   -1.6900   -4.0441    1.3694 C   0  0  0  0  0  0  0  0  0  0  0  0
   -2.9535   -4.5048    1.0612 C   0  0  0  0  0  0  0  0  0  0  0  0
   -3.7707   -3.4806    0.6432 N   0  0  0  0  0  0  0  0  0  0  0  0
   -2.9994   -2.4137    0.6982 C   0  0  0  0  0  0  0  0  0  0  0  0
   -3.3432   -1.0423    0.3693 C   0  0  0  0  0  0  0  0  0  0  0  0
   -4.6069   -0.7287   -0.0648 N   0  0  0  0  0  0  0  0  0  0  0  0
   -5.0273    0.5924   -0.4398 C   0  0  0  0  0  0  0  0  0  0  0  0
   -6.4731    0.5613   -0.8616 C   0  0  0  0  0  0  0  0  0  0  0  0
   -6.8243    0.3320   -2.1953 C   0  0  0  0  0  0  0  0  0  0  0  0
   -8.1686    0.2870   -2.5295 C   0  0  0  0  0  0  0  0  0  0  0  0
   -9.1699    0.4457   -1.6381 N   0  0  0  0  0  0  0  0  0  0  0  0
   -8.8110    0.6503   -0.3530 C   0  0  0  0  0  0  0  0  0  0  0  0
   -7.4959    0.7119    0.0798 C   0  0  0  0  0  0  0  0  0  0  0  0
   -2.4307   -0.1046    0.4943 N   0  0  0  0  0  0  0  0  0  0  0  0
    1.1937    0.4992    0.7317 C   0  0  0  0  0  0  0  0  0  0  0  0
    5.6303    0.5067   -0.0557 C   0  0  0  0  0  0  0  0  0  0  0  0
    6.3885    1.2960    0.8177 C   0  0  0  0  0  0  0  0  0  0  0  0
    7.7624    1.4350    0.6156 C   0  0  0  0  0  0  0  0  0  0  0  0
    8.3836    0.7829   -0.4514 C   0  0  0  0  0  0  0  0  0  0  0  0
    7.6401   -0.0203   -1.3304 C   0  0  0  0  0  0  0  0  0  0  0  0
    8.3158   -0.7554   -2.4625 C   0  0  0  0  0  0  0  0  0  0  0  0
    7.5237   -0.8835   -3.5625 F   0  0  0  0  0  0  0  0  0  0  0  0
    8.6854   -2.0173   -2.1134 F   0  0  0  0  0  0  0  0  0  0  0  0
    9.4515   -0.1384   -2.8944 F   0  0  0  0  0  0  0  0  0  0  0  0
    6.2598   -0.1617   -1.1148 C   0  0  0  0  0  0  0  0  0  0  0  0
    4.0147    2.2980    0.6547 H   0  0  0  0  0  0  0  0  0  0  0  0
    2.3222    3.6446    1.3855 H   0  0  0  0  0  0  0  0  0  0  0  0
   -0.0554    3.9657    1.9256 H   0  0  0  0  0  0  0  0  0  0  0  0
   -1.6489    2.0944    1.7194 H   0  0  0  0  0  0  0  0  0  0  0  0
    0.1859   -1.9900    1.6102 H   0  0  0  0  0  0  0  0  0  0  0  0
   -0.7988   -4.5424    1.7219 H   0  0  0  0  0  0  0  0  0  0  0  0
   -3.3173   -5.5230    1.1190 H   0  0  0  0  0  0  0  0  0  0  0  0
   -5.2659   -1.4968   -0.1471 H   0  0  0  0  0  0  0  0  0  0  0  0
   -4.4111    0.9735   -1.2633 H   0  0  0  0  0  0  0  0  0  0  0  0
   -4.9050    1.2889    0.3986 H   0  0  0  0  0  0  0  0  0  0  0  0
   -6.0687    0.1866   -2.9607 H   0  0  0  0  0  0  0  0  0  0  0  0
   -8.4846    0.1135   -3.5542 H   0  0  0  0  0  0  0  0  0  0  0  0
   -9.6355    0.7642    0.3449 H   0  0  0  0  0  0  0  0  0  0  0  0
   -7.2760    0.8693    1.1308 H   0  0  0  0  0  0  0  0  0  0  0  0
    1.5235   -0.4673    0.3659 H   0  0  0  0  0  0  0  0  0  0  0  0
    5.9330    1.7793    1.6781 H   0  0  0  0  0  0  0  0  0  0  0  0
    8.3547    2.0408    1.2984 H   0  0  0  0  0  0  0  0  0  0  0  0
    9.4587    0.8954   -0.5911 H   0  0  0  0  0  0  0  0  0  0  0  0
    5.6681   -0.7953   -1.7768 H   0  0  0  0  0  0  0  0  0  0  0  0
  1  2  2  0
  2  3  1  0
  3  4  1  0
  4  5  2  0
  5  6  1  0
  6  7  2  0
  7  8  1  0
  8  9  1  0
  9 10  2  0
 10 11  1  0
 11 12  1  0
 12 13  2  0
 13 14  1  0
 14 15  2  0
 15 16  1  0
 16 17  1  0
 17 18  1  0
 18 19  1  0
 19 20  2  0
 20 21  1  0
 21 22  2  0
 22 23  1  0
 23 24  2  0
 16 25  2  0
  8 26  2  0
  2 27  1  0
 27 28  2  0
 28 29  1  0
 29 30  2  0
 30 31  1  0
 31 32  1  0
 32 33  1  0
 32 34  1  0
 32 35  1  0
 31 36  2  0
 26  4  1  0
 36 27  1  0
 25  9  1  0
 15 11  1  0
 24 19  1  0
  3 37  1  0
  5 38  1  0
  6 39  1  0
  7 40  1  0
 10 41  1  0
 12 42  1  0
 13 43  1  0
 17 44  1  0
 18 45  1  0
 18 46  1  0
 20 47  1  0
 21 48  1  0
 23 49  1  0
 24 50  1  0
 26 51  1  0
 28 52  1  0
 29 53  1  0
 30 54  1  0
 36 55  1  0
M  END
$$$$
