
     RDKit          3D

 60 64  0  0  0  0  0  0  0  0999 V2000
   -3.7535    1.7184   -2.5504 O   0  0  0  0  0  0  0  0  0  0  0  0
   -3.6180    1.1279   -1.4871 C   0  0  0  0  0  0  0  0  0  0  0  0
   -4.6630    0.9798   -0.6042 N   0  0  0  0  0  0  0  0  0  0  0  0
   -5.9662    1.5180   -0.9117 C   0  0  0  0  0  0  0  0  0  0  0  0
   -6.9613    1.1423    0.1542 C   0  0  0  0  0  0  0  0  0  0  0  0
   -7.1956    1.9947    1.2407 C   0  0  0  0  0  0  0  0  0  0  0  0
   -8.0920    1.6306    2.2453 C   0  0  0  0  0  0  0  0  0  0  0  0
   -8.7593    0.4075    2.1782 C   0  0  0  0  0  0  0  0  0  0  0  0
   -8.5403   -0.4646    1.1018 C   0  0  0  0  0  0  0  0  0  0  0  0
   -9.2371   -1.8018    1.0389 C   0  0  0  0  0  0  0  0  0  0  0  0
   -9.5468   -2.1818   -0.2320 F   0  0  0  0  0  0  0  0  0  0  0  0
  -10.4092   -1.8330    1.7324 F   0  0  0  0  0  0  0  0  0  0  0  0
   -8.4718   -2.8046    1.5524 F   0  0  0  0  0  0  0  0  0  0  0  0
   -7.6294   -0.0906    0.0996 C   0  0  0  0  0  0  0  0  0  0  0  0
   -2.4720    0.5319   -1.0102 N   0  0  0  0  0  0  0  0  0  0  0  0
   -1.1947    0.5129   -1.6085 C   0  0  0  0  0  0  0  0  0  0  0  0
   -0.8822    1.1724   -2.7976 C   0  0  0  0  0  0  0  0  0  0  0  0
    0.4144    1.1219   -3.3152 C   0  0  0  0  0  0  0  0  0  0  0  0
    1.4082    0.4046   -2.6510 C   0  0  0  0  0  0  0  0  0  0  0  0
    1.1160   -0.2802   -1.4659 C   0  0  0  0  0  0  0  0  0  0  0  0
    2.1846   -1.0353   -0.7761 C   0  0  0  0  0  0  0  0  0  0  0  0
    1.9590   -2.3106   -0.3976 C   0  0  0  0  0  0  0  0  0  0  0  0
    2.9804   -2.9936    0.2260 N   0  0  0  0  0  0  0  0  0  0  0  0
    3.0721   -4.2650    0.7221 C   0  0  0  0  0  0  0  0  0  0  0  0
    4.3519   -4.3593    1.2293 C   0  0  0  0  0  0  0  0  0  0  0  0
    5.0454   -3.1844    1.0570 N   0  0  0  0  0  0  0  0  0  0  0  0
    4.1869   -2.3915    0.4486 C   0  0  0  0  0  0  0  0  0  0  0  0
    4.3868   -1.0206    0.0121 C   0  0  0  0  0  0  0  0  0  0  0  0
    5.5907   -0.3948    0.2164 N   0  0  0  0  0  0  0  0  0  0  0  0
    5.8754    0.9575   -0.1769 C   0  0  0  0  0  0  0  0  0  0  0  0
    7.2907    1.3054    0.2041 C   0  0  0  0  0  0  0  0  0  0  0  0
    8.3512    1.0429   -0.6685 C   0  0  0  0  0  0  0  0  0  0  0  0
    9.6385    1.3560   -0.2619 C   0  0  0  0  0  0  0  0  0  0  0  0
    9.9362    1.8976    0.9382 N   0  0  0  0  0  0  0  0  0  0  0  0
    8.9007    2.1306    1.7722 C   0  0  0  0  0  0  0  0  0  0  0  0
    7.5799    1.8525    1.4578 C   0  0  0  0  0  0  0  0  0  0  0  0
    3.3998   -0.3879   -0.5824 N   0  0  0  0  0  0  0  0  0  0  0  0
   -0.1884   -0.2081   -0.9477 C   0  0  0  0  0  0  0  0  0  0  0  0
   -4.5127    0.5739    0.3051 H   0  0  0  0  0  0  0  0  0  0  0  0
   -5.8814    2.6076   -1.0005 H   0  0  0  0  0  0  0  0  0  0  0  0
   -6.2878    1.1419   -1.8903 H   0  0  0  0  0  0  0  0  0  0  0  0
   -6.6794    2.9508    1.3098 H   0  0  0  0  0  0  0  0  0  0  0  0
   -8.2698    2.3013    3.0830 H   0  0  0  0  0  0  0  0  0  0  0  0
   -9.4545    0.1360    2.9717 H   0  0  0  0  0  0  0  0  0  0  0  0
   -7.4405   -0.7674   -0.7346 H   0  0  0  0  0  0  0  0  0  0  0  0
   -2.5652    0.0333   -0.1401 H   0  0  0  0  0  0  0  0  0  0  0  0
   -1.6232    1.7474   -3.3442 H   0  0  0  0  0  0  0  0  0  0  0  0
    0.6481    1.6486   -4.2372 H   0  0  0  0  0  0  0  0  0  0  0  0
    2.4153    0.3803   -3.0622 H   0  0  0  0  0  0  0  0  0  0  0  0
    1.0313   -2.8425   -0.5604 H   0  0  0  0  0  0  0  0  0  0  0  0
    2.2547   -4.9694    0.6752 H   0  0  0  0  0  0  0  0  0  0  0  0
    4.8110   -5.2144    1.7098 H   0  0  0  0  0  0  0  0  0  0  0  0
    6.3154   -0.9339    0.6804 H   0  0  0  0  0  0  0  0  0  0  0  0
    5.1813    1.6543    0.3085 H   0  0  0  0  0  0  0  0  0  0  0  0
    5.7457    1.0799   -1.2592 H   0  0  0  0  0  0  0  0  0  0  0  0
    8.1821    0.5997   -1.6446 H   0  0  0  0  0  0  0  0  0  0  0  0
   10.4905    1.1707   -0.9099 H   0  0  0  0  0  0  0  0  0  0  0  0
    9.1688    2.5584    2.7340 H   0  0  0  0  0  0  0  0  0  0  0  0
    6.7951    2.0559    2.1793 H   0  0  0  0  0  0  0  0  0  0  0  0
   -0.4120   -0.7102   -0.0101 H   0  0  0  0  0  0  0  0  0  0  0  0
  1  2  2  0
  2  3  1  0
  3  4  1  0
  4  5  1  0
  5  6  2  0
  6  7  1  0
  7  8  2  0
  8  9  1  0
  9 10  1  0
 10 11  1  0
 10 12  1  0
 10 13  1  0
  9 14  2  0
  2 15  1  0
 15 16  1  0
 16 17  2  0
 17 18  1  0
 18 19  2  0
 19 20  1  0
 20 21  1  0
 21 22  2  0
 22 23  1  0
 23 24  1  0
 24 25  2  0
 25 26  1  0
 26 27  2  0
 27 28  1  0
 28 29  1  0
 29 30  1  0
 30 31  1  0
 31 32  2  0
 32 33  1  0
 33 34  2  0
 34 35  1  0
 35 36  2  0
 28 37  2  0
 20 38  2  0
 14  5  1  0
 38 16  1  0
 37 21  1  0
 27 23  1  0
 36 31  1  0
  3 39  1  0
  4 40  1  0
  4 41  1  0
  6 42  1  0
  7 43  1  0
  8 44  1  0
 14 45  1  0
 15 46  1  0
 17 47  1  0
 18 48  1  0
 19 49  1  0
 22 50  1  0
 24 51  1  0
 25 52  1  0
 29 53  1  0
 30 54  1  0
 30 55  1  0
 32 56  1  0
 33 57  1  0
 35 58  1  0
 36 59  1  0
 38 60  1  0
M  END
$$$$
