
     RDKit          3D

 73 78  0  0  0  0  0  0  0  0999 V2000
   -9.7180    0.2091    2.6044 C   0  0  0  0  0  0  0  0  0  0  0  0
   -9.2116    1.0248    1.4365 N   0  0  0  0  0  0  0  0  0  0  0  0
   -7.7135    1.3035    1.4860 C   0  0  0  0  0  0  0  0  0  0  0  0
   -6.8751    0.0878    1.0200 C   0  0  0  0  0  0  0  0  0  0  0  0
   -7.3382   -0.4193   -0.3495 N   0  0  0  0  0  0  0  0  0  0  0  0
   -6.5279   -1.6291   -0.8263 C   0  0  0  0  0  0  0  0  0  0  0  0
   -5.0817   -1.2897   -1.0448 C   0  0  0  0  0  0  0  0  0  0  0  0
   -4.1156   -1.6671   -0.1020 C   0  0  0  0  0  0  0  0  0  0  0  0
   -2.7856   -1.2710   -0.2571 C   0  0  0  0  0  0  0  0  0  0  0  0
   -2.3917   -0.5010   -1.3570 C   0  0  0  0  0  0  0  0  0  0  0  0
   -1.0131   -0.0781   -1.5119 C   0  0  0  0  0  0  0  0  0  0  0  0
   -0.1956   -0.0532   -2.6560 C   0  0  0  0  0  0  0  0  0  0  0  0
    1.0251    0.4149   -2.4159 N   0  0  0  0  0  0  0  0  0  0  0  0
    1.0428    0.6881   -1.0817 N   0  0  0  0  0  0  0  0  0  0  0  0
    2.1096    1.1703   -0.2984 C   0  0  0  0  0  0  0  0  0  0  0  0
    3.4510    1.4349   -0.8626 C   0  0  0  0  0  0  0  0  0  0  0  0
    3.6109    2.2543   -1.9861 C   0  0  0  0  0  0  0  0  0  0  0  0
    4.8817    2.4983   -2.5065 C   0  0  0  0  0  0  0  0  0  0  0  0
    6.0059    1.9303   -1.9050 C   0  0  0  0  0  0  0  0  0  0  0  0
    5.8725    1.1136   -0.7776 C   0  0  0  0  0  0  0  0  0  0  0  0
    7.0531    0.5745   -0.2231 N   0  0  0  0  0  0  0  0  0  0  0  0
    7.1685   -0.1567    0.9464 C   0  0  0  0  0  0  0  0  0  0  0  0
    6.2823   -0.3718    1.7654 O   0  0  0  0  0  0  0  0  0  0  0  0
    8.5359   -0.6793    1.2271 C   0  0  0  0  0  0  0  0  0  0  0  0
    8.9744   -0.7281    2.5549 C   0  0  0  0  0  0  0  0  0  0  0  0
   10.2455   -1.2176    2.8558 C   0  0  0  0  0  0  0  0  0  0  0  0
   11.0807   -1.6694    1.8328 C   0  0  0  0  0  0  0  0  0  0  0  0
   10.6535   -1.6395    0.4962 C   0  0  0  0  0  0  0  0  0  0  0  0
   11.5385   -2.1664   -0.6085 C   0  0  0  0  0  0  0  0  0  0  0  0
   12.8646   -2.1109   -0.3109 F   0  0  0  0  0  0  0  0  0  0  0  0
   11.3862   -1.4713   -1.7708 F   0  0  0  0  0  0  0  0  0  0  0  0
   11.2685   -3.4646   -0.9103 F   0  0  0  0  0  0  0  0  0  0  0  0
    9.3681   -1.1503    0.2019 C   0  0  0  0  0  0  0  0  0  0  0  0
    4.5936    0.8636   -0.2725 C   0  0  0  0  0  0  0  0  0  0  0  0
    1.9016    1.4004    1.0120 C   0  0  0  0  0  0  0  0  0  0  0  0
    0.5381    1.1155    1.5199 C   0  0  0  0  0  0  0  0  0  0  0  0
   -0.4662    0.6654    0.8298 N   0  0  0  0  0  0  0  0  0  0  0  0
   -0.2150    0.4264   -0.4993 C   0  0  0  0  0  0  0  0  0  0  0  0
   -3.3479   -0.1565   -2.3186 C   0  0  0  0  0  0  0  0  0  0  0  0
   -4.6830   -0.5435   -2.1643 C   0  0  0  0  0  0  0  0  0  0  0  0
   -8.8333   -0.7130   -0.3921 C   0  0  0  0  0  0  0  0  0  0  0  0
   -9.6657    0.5061    0.0777 C   0  0  0  0  0  0  0  0  0  0  0  0
   -9.2743   -0.7874    2.5560 H   0  0  0  0  0  0  0  0  0  0  0  0
  -10.8071    0.1582    2.5305 H   0  0  0  0  0  0  0  0  0  0  0  0
   -9.4284    0.7239    3.5239 H   0  0  0  0  0  0  0  0  0  0  0  0
   -9.6728    1.9433    1.5589 H   0  0  0  0  0  0  0  0  0  0  0  0
   -7.5449    2.1579    0.8210 H   0  0  0  0  0  0  0  0  0  0  0  0
   -7.4615    1.5996    2.5090 H   0  0  0  0  0  0  0  0  0  0  0  0
   -6.9659   -0.7491    1.7201 H   0  0  0  0  0  0  0  0  0  0  0  0
   -5.8279    0.3879    0.9310 H   0  0  0  0  0  0  0  0  0  0  0  0
   -7.1212    0.3120   -1.0435 H   0  0  0  0  0  0  0  0  0  0  0  0
   -6.6601   -2.4219   -0.0811 H   0  0  0  0  0  0  0  0  0  0  0  0
   -6.9763   -1.9647   -1.7687 H   0  0  0  0  0  0  0  0  0  0  0  0
   -4.3694   -2.2721    0.7668 H   0  0  0  0  0  0  0  0  0  0  0  0
   -2.0479   -1.5729    0.4873 H   0  0  0  0  0  0  0  0  0  0  0  0
   -0.4368   -0.3642   -3.6648 H   0  0  0  0  0  0  0  0  0  0  0  0
    2.7485    2.7036   -2.4740 H   0  0  0  0  0  0  0  0  0  0  0  0
    4.9963    3.1300   -3.3842 H   0  0  0  0  0  0  0  0  0  0  0  0
    6.9839    2.1401   -2.3311 H   0  0  0  0  0  0  0  0  0  0  0  0
    7.9093    0.7973   -0.7153 H   0  0  0  0  0  0  0  0  0  0  0  0
    8.3258   -0.3846    3.3588 H   0  0  0  0  0  0  0  0  0  0  0  0
   10.5834   -1.2523    3.8895 H   0  0  0  0  0  0  0  0  0  0  0  0
   12.0688   -2.0551    2.0846 H   0  0  0  0  0  0  0  0  0  0  0  0
    9.0184   -1.1702   -0.8291 H   0  0  0  0  0  0  0  0  0  0  0  0
    4.4627    0.2030    0.5791 H   0  0  0  0  0  0  0  0  0  0  0  0
    2.6471    1.7735    1.7026 H   0  0  0  0  0  0  0  0  0  0  0  0
    0.3920    1.3185    2.5943 H   0  0  0  0  0  0  0  0  0  0  0  0
   -3.0596    0.4269   -3.1927 H   0  0  0  0  0  0  0  0  0  0  0  0
   -5.3903   -0.2587   -2.9411 H   0  0  0  0  0  0  0  0  0  0  0  0
   -9.0088   -1.5819    0.2510 H   0  0  0  0  0  0  0  0  0  0  0  0
   -9.0843   -0.9658   -1.4271 H   0  0  0  0  0  0  0  0  0  0  0  0
   -9.5419    1.3417   -0.6201 H   0  0  0  0  0  0  0  0  0  0  0  0
  -10.7305    0.2638    0.1506 H   0  0  0  0  0  0  0  0  0  0  0  0
  1  2  1  0
  2  3  1  0
  3  4  1  0
  4  5  1  0
  5  6  1  0
  6  7  1  0
  7  8  2  0
  8  9  1  0
  9 10  2  0
 10 11  1  0
 11 12  1  0
 12 13  2  0
 13 14  1  0
 14 15  1  0
 15 16  1  0
 16 17  2  0
 17 18  1  0
 18 19  2  0
 19 20  1  0
 20 21  1  0
 21 22  1  0
 22 23  2  0
 22 24  1  0
 24 25  2  0
 25 26  1  0
 26 27  2  0
 27 28  1  0
 28 29  1  0
 29 30  1  0
 29 31  1  0
 29 32  1  0
 28 33  2  0
 20 34  2  0
 15 35  2  0
 35 36  1  0
 36 37  2  0
 37 38  1  0
 10 39  1  0
 39 40  2  0
  5 41  1  0
 41 42  1  0
 42  2  1  0
 40  7  1  0
 38 11  2  0
 38 14  1  0
 34 16  1  0
 33 24  1  0
  1 43  1  0
  1 44  1  0
  1 45  1  0
  2 46  1  0
  3 47  1  0
  3 48  1  0
  4 49  1  0
  4 50  1  0
  5 51  1  0
  6 52  1  0
  6 53  1  0
  8 54  1  0
  9 55  1  0
 12 56  1  0
 17 57  1  0
 18 58  1  0
 19 59  1  0
 21 60  1  0
 25 61  1  0
 26 62  1  0
 27 63  1  0
 33 64  1  0
 34 65  1  0
 35 66  1  0
 36 67  1  0
 39 68  1  0
 40 69  1  0
 41 70  1  0
 41 71  1  0
 42 72  1  0
 42 73  1  0
M  CHG  2   2   1   5   1
M  END
$$$$
