
     RDKit          3D

 60 64  0  0  0  0  0  0  0  0999 V2000
   -5.5428    0.1475   -0.3981 C   0  0  0  0  0  0  0  0  0  0  0  0
   -4.1822   -0.0517   -0.8734 N   0  0  0  0  0  0  0  0  0  0  0  0
   -3.4346    1.1470   -1.2418 C   0  0  0  0  0  0  0  0  0  0  0  0
   -2.8573    1.8335   -0.0263 C   0  0  0  0  0  0  0  0  0  0  0  0
   -3.5254    2.8878    0.6032 C   0  0  0  0  0  0  0  0  0  0  0  0
   -2.9449    3.4732    1.7193 C   0  0  0  0  0  0  0  0  0  0  0  0
   -1.7634    3.0878    2.2460 N   0  0  0  0  0  0  0  0  0  0  0  0
   -1.1372    2.0623    1.6287 C   0  0  0  0  0  0  0  0  0  0  0  0
   -1.6366    1.4163    0.5096 C   0  0  0  0  0  0  0  0  0  0  0  0
   -3.5940   -1.3205   -0.9059 C   0  0  0  0  0  0  0  0  0  0  0  0
   -2.3529   -1.4299   -1.3449 N   0  0  0  0  0  0  0  0  0  0  0  0
   -1.7222   -2.6631   -1.3974 C   0  0  0  0  0  0  0  0  0  0  0  0
   -0.3196   -2.6917   -1.8632 C   0  0  0  0  0  0  0  0  0  0  0  0
    0.0870   -3.5287   -2.9096 C   0  0  0  0  0  0  0  0  0  0  0  0
    1.4153   -3.5282   -3.3331 C   0  0  0  0  0  0  0  0  0  0  0  0
    2.3440   -2.6841   -2.7203 C   0  0  0  0  0  0  0  0  0  0  0  0
    1.9567   -1.8282   -1.6817 C   0  0  0  0  0  0  0  0  0  0  0  0
    2.9541   -0.9991   -1.1229 N   0  0  0  0  0  0  0  0  0  0  0  0
    2.7965   -0.0118   -0.1586 C   0  0  0  0  0  0  0  0  0  0  0  0
    1.7267    0.3402    0.3198 O   0  0  0  0  0  0  0  0  0  0  0  0
    4.0311    0.5219    0.1890 N   0  0  0  0  0  0  0  0  0  0  0  0
    4.2821    1.6331    1.0219 C   0  0  0  0  0  0  0  0  0  0  0  0
    3.2881    2.4748    1.5217 C   0  0  0  0  0  0  0  0  0  0  0  0
    3.6182    3.5631    2.3341 C   0  0  0  0  0  0  0  0  0  0  0  0
    4.9490    3.8236    2.6531 C   0  0  0  0  0  0  0  0  0  0  0  0
    5.9653    2.9937    2.1635 C   0  0  0  0  0  0  0  0  0  0  0  0
    7.4113    3.2799    2.4791 C   0  0  0  0  0  0  0  0  0  0  0  0
    8.0024    4.0588    1.5317 F   0  0  0  0  0  0  0  0  0  0  0  0
    7.5893    3.9276    3.6635 F   0  0  0  0  0  0  0  0  0  0  0  0
    8.1700    2.1498    2.5562 F   0  0  0  0  0  0  0  0  0  0  0  0
    5.6194    1.9068    1.3395 C   0  0  0  0  0  0  0  0  0  0  0  0
    0.6263   -1.8462   -1.2584 C   0  0  0  0  0  0  0  0  0  0  0  0
   -2.3119   -3.8095   -1.0117 C   0  0  0  0  0  0  0  0  0  0  0  0
   -3.6072   -3.7455   -0.5525 N   0  0  0  0  0  0  0  0  0  0  0  0
   -4.4580   -4.7165   -0.0997 C   0  0  0  0  0  0  0  0  0  0  0  0
   -5.6207   -4.0519    0.2204 C   0  0  0  0  0  0  0  0  0  0  0  0
   -5.5042   -2.7059   -0.0236 N   0  0  0  0  0  0  0  0  0  0  0  0
   -4.2766   -2.5508   -0.4847 C   0  0  0  0  0  0  0  0  0  0  0  0
   -5.8593    1.1925   -0.4858 H   0  0  0  0  0  0  0  0  0  0  0  0
   -5.6281   -0.1292    0.6577 H   0  0  0  0  0  0  0  0  0  0  0  0
   -6.2504   -0.4400   -0.9919 H   0  0  0  0  0  0  0  0  0  0  0  0
   -4.0903    1.8454   -1.7789 H   0  0  0  0  0  0  0  0  0  0  0  0
   -2.6316    0.9295   -1.9572 H   0  0  0  0  0  0  0  0  0  0  0  0
   -4.4786    3.2524    0.2372 H   0  0  0  0  0  0  0  0  0  0  0  0
   -3.4327    4.2951    2.2353 H   0  0  0  0  0  0  0  0  0  0  0  0
   -0.1905    1.7563    2.0654 H   0  0  0  0  0  0  0  0  0  0  0  0
   -1.0761    0.6017    0.0643 H   0  0  0  0  0  0  0  0  0  0  0  0
   -0.6305   -4.1739   -3.4110 H   0  0  0  0  0  0  0  0  0  0  0  0
    1.7251   -4.1779   -4.1478 H   0  0  0  0  0  0  0  0  0  0  0  0
    3.3707   -2.7000   -3.0763 H   0  0  0  0  0  0  0  0  0  0  0  0
    3.8740   -1.0918   -1.5229 H   0  0  0  0  0  0  0  0  0  0  0  0
    4.8420    0.0176   -0.1322 H   0  0  0  0  0  0  0  0  0  0  0  0
    2.2392    2.3224    1.2881 H   0  0  0  0  0  0  0  0  0  0  0  0
    2.8280    4.2083    2.7130 H   0  0  0  0  0  0  0  0  0  0  0  0
    5.1888    4.6776    3.2850 H   0  0  0  0  0  0  0  0  0  0  0  0
    6.4143    1.2703    0.9543 H   0  0  0  0  0  0  0  0  0  0  0  0
    0.2896   -1.2128   -0.4451 H   0  0  0  0  0  0  0  0  0  0  0  0
   -1.8318   -4.7786   -1.0245 H   0  0  0  0  0  0  0  0  0  0  0  0
   -4.1758   -5.7575   -0.0443 H   0  0  0  0  0  0  0  0  0  0  0  0
   -6.5369   -4.4728    0.6150 H   0  0  0  0  0  0  0  0  0  0  0  0
  1  2  1  0
  2  3  1  0
  3  4  1  0
  4  5  2  0
  5  6  1  0
  6  7  2  0
  7  8  1  0
  8  9  2  0
  2 10  1  0
 10 11  2  0
 11 12  1  0
 12 13  1  0
 13 14  2  0
 14 15  1  0
 15 16  2  0
 16 17  1  0
 17 18  1  0
 18 19  1  0
 19 20  2  0
 19 21  1  0
 21 22  1  0
 22 23  2  0
 23 24  1  0
 24 25  2  0
 25 26  1  0
 26 27  1  0
 27 28  1  0
 27 29  1  0
 27 30  1  0
 26 31  2  0
 17 32  2  0
 12 33  2  0
 33 34  1  0
 34 35  1  0
 35 36  2  0
 36 37  1  0
 37 38  2  0
  9  4  1  0
 38 10  1  0
 32 13  1  0
 38 34  1  0
 31 22  1  0
  1 39  1  0
  1 40  1  0
  1 41  1  0
  3 42  1  0
  3 43  1  0
  5 44  1  0
  6 45  1  0
  8 46  1  0
  9 47  1  0
 14 48  1  0
 15 49  1  0
 16 50  1  0
 18 51  1  0
 21 52  1  0
 23 53  1  0
 24 54  1  0
 25 55  1  0
 31 56  1  0
 32 57  1  0
 33 58  1  0
 35 59  1  0
 36 60  1  0
M  END
$$$$
