
     RDKit          3D

 57 61  0  0  0  0  0  0  0  0999 V2000
    3.5433   -0.7635    1.2859 O   0  0  0  0  0  0  0  0  0  0  0  0
    2.6124   -0.9598    0.5161 C   0  0  0  0  0  0  0  0  0  0  0  0
    1.4275   -0.2500    0.5104 N   0  0  0  0  0  0  0  0  0  0  0  0
    0.9739    0.7093    1.4327 C   0  0  0  0  0  0  0  0  0  0  0  0
    1.6180    1.0828    2.6053 C   0  0  0  0  0  0  0  0  0  0  0  0
    0.9963    1.9803    3.4863 C   0  0  0  0  0  0  0  0  0  0  0  0
   -0.2796    2.4932    3.2115 C   0  0  0  0  0  0  0  0  0  0  0  0
   -0.9333    2.1364    2.0319 C   0  0  0  0  0  0  0  0  0  0  0  0
   -2.3137    2.5316    1.6609 C   0  0  0  0  0  0  0  0  0  0  0  0
   -2.8228    3.7445    1.9544 C   0  0  0  0  0  0  0  0  0  0  0  0
   -4.0718    4.0587    1.4527 N   0  0  0  0  0  0  0  0  0  0  0  0
   -4.8484    5.1807    1.5538 C   0  0  0  0  0  0  0  0  0  0  0  0
   -5.9768    4.9057    0.8084 C   0  0  0  0  0  0  0  0  0  0  0  0
   -5.9153    3.6503    0.2494 N   0  0  0  0  0  0  0  0  0  0  0  0
   -4.7578    3.1748    0.6608 C   0  0  0  0  0  0  0  0  0  0  0  0
   -4.1694    1.8802    0.3746 C   0  0  0  0  0  0  0  0  0  0  0  0
   -4.7909    0.9609   -0.4394 N   0  0  0  0  0  0  0  0  0  0  0  0
   -4.3157   -0.3829   -0.6839 C   0  0  0  0  0  0  0  0  0  0  0  0
   -3.0161   -0.4235   -1.4504 C   0  0  0  0  0  0  0  0  0  0  0  0
   -2.8554    0.2295   -2.6749 C   0  0  0  0  0  0  0  0  0  0  0  0
   -1.6316    0.1685   -3.3375 C   0  0  0  0  0  0  0  0  0  0  0  0
   -0.5965   -0.5458   -2.7542 C   0  0  0  0  0  0  0  0  0  0  0  0
   -0.6977   -1.1947   -1.5712 N   0  0  0  0  0  0  0  0  0  0  0  0
   -1.9145   -1.1284   -0.9608 C   0  0  0  0  0  0  0  0  0  0  0  0
   -3.0097    1.5916    0.9079 N   0  0  0  0  0  0  0  0  0  0  0  0
   -0.2678    1.2739    1.1470 C   0  0  0  0  0  0  0  0  0  0  0  0
    2.5805   -1.9280   -0.4795 N   0  0  0  0  0  0  0  0  0  0  0  0
    3.6085   -2.8078   -0.8680 C   0  0  0  0  0  0  0  0  0  0  0  0
    3.2952   -3.7595   -1.8462 C   0  0  0  0  0  0  0  0  0  0  0  0
    4.2556   -4.6702   -2.2897 C   0  0  0  0  0  0  0  0  0  0  0  0
    5.5440   -4.6351   -1.7615 C   0  0  0  0  0  0  0  0  0  0  0  0
    5.8837   -3.6835   -0.7896 C   0  0  0  0  0  0  0  0  0  0  0  0
    7.2701   -3.6404   -0.1967 C   0  0  0  0  0  0  0  0  0  0  0  0
    7.7661   -2.3767   -0.0891 F   0  0  0  0  0  0  0  0  0  0  0  0
    8.1887   -4.3328   -0.9302 F   0  0  0  0  0  0  0  0  0  0  0  0
    7.3199   -4.1743    1.0547 F   0  0  0  0  0  0  0  0  0  0  0  0
    4.9035   -2.7761   -0.3466 C   0  0  0  0  0  0  0  0  0  0  0  0
    0.7876   -0.4558   -0.2514 H   0  0  0  0  0  0  0  0  0  0  0  0
    2.5890    0.6768    2.8724 H   0  0  0  0  0  0  0  0  0  0  0  0
    1.5020    2.2556    4.4092 H   0  0  0  0  0  0  0  0  0  0  0  0
   -0.7538    3.1441    3.9402 H   0  0  0  0  0  0  0  0  0  0  0  0
   -2.3044    4.5079    2.5175 H   0  0  0  0  0  0  0  0  0  0  0  0
   -4.5459    6.0477    2.1226 H   0  0  0  0  0  0  0  0  0  0  0  0
   -6.8313    5.5502    0.6436 H   0  0  0  0  0  0  0  0  0  0  0  0
   -5.6926    1.2310   -0.8168 H   0  0  0  0  0  0  0  0  0  0  0  0
   -4.2197   -0.9127    0.2715 H   0  0  0  0  0  0  0  0  0  0  0  0
   -5.0695   -0.9292   -1.2633 H   0  0  0  0  0  0  0  0  0  0  0  0
   -3.6750    0.7986   -3.1069 H   0  0  0  0  0  0  0  0  0  0  0  0
   -1.4873    0.6756   -4.2855 H   0  0  0  0  0  0  0  0  0  0  0  0
    0.3730   -0.6091   -3.2416 H   0  0  0  0  0  0  0  0  0  0  0  0
   -1.9684   -1.6540   -0.0090 H   0  0  0  0  0  0  0  0  0  0  0  0
   -0.7558    1.0199    0.2102 H   0  0  0  0  0  0  0  0  0  0  0  0
    1.6867   -2.0494   -0.9392 H   0  0  0  0  0  0  0  0  0  0  0  0
    2.2954   -3.8093   -2.2711 H   0  0  0  0  0  0  0  0  0  0  0  0
    3.9966   -5.4083   -3.0449 H   0  0  0  0  0  0  0  0  0  0  0  0
    6.2849   -5.3526   -2.1113 H   0  0  0  0  0  0  0  0  0  0  0  0
    5.1856   -2.0469    0.4093 H   0  0  0  0  0  0  0  0  0  0  0  0
  1  2  2  0
  2  3  1  0
  3  4  1  0
  4  5  2  0
  5  6  1  0
  6  7  2  0
  7  8  1  0
  8  9  1  0
  9 10  2  0
 10 11  1  0
 11 12  1  0
 12 13  2  0
 13 14  1  0
 14 15  2  0
 15 16  1  0
 16 17  1  0
 17 18  1  0
 18 19  1  0
 19 20  2  0
 20 21  1  0
 21 22  2  0
 22 23  1  0
 23 24  2  0
 16 25  2  0
  8 26  2  0
  2 27  1  0
 27 28  1  0
 28 29  2  0
 29 30  1  0
 30 31  2  0
 31 32  1  0
 32 33  1  0
 33 34  1  0
 33 35  1  0
 33 36  1  0
 32 37  2  0
 26  4  1  0
 37 28  1  0
 25  9  1  0
 15 11  1  0
 24 19  1  0
  3 38  1  0
  5 39  1  0
  6 40  1  0
  7 41  1  0
 10 42  1  0
 12 43  1  0
 13 44  1  0
 17 45  1  0
 18 46  1  0
 18 47  1  0
 20 48  1  0
 21 49  1  0
 22 50  1  0
 24 51  1  0
 26 52  1  0
 27 53  1  0
 29 54  1  0
 30 55  1  0
 31 56  1  0
 37 57  1  0
M  END
$$$$
