
     RDKit          3D

 60 64  0  0  0  0  0  0  0  0999 V2000
    3.4372   -0.7983    0.2897 O   0  0  0  0  0  0  0  0  0  0  0  0
    4.0231   -0.4327   -0.7207 C   0  0  0  0  0  0  0  0  0  0  0  0
    3.4714   -0.4131   -1.9947 N   0  0  0  0  0  0  0  0  0  0  0  0
    2.1313   -0.6723   -2.3554 C   0  0  0  0  0  0  0  0  0  0  0  0
    1.8407   -0.7467   -3.7224 C   0  0  0  0  0  0  0  0  0  0  0  0
    0.5388   -0.9926   -4.1584 C   0  0  0  0  0  0  0  0  0  0  0  0
   -0.4851   -1.1681   -3.2285 C   0  0  0  0  0  0  0  0  0  0  0  0
   -0.2231   -1.1021   -1.8529 C   0  0  0  0  0  0  0  0  0  0  0  0
   -1.3356   -1.2769   -0.8850 C   0  0  0  0  0  0  0  0  0  0  0  0
   -1.1265   -1.9433    0.2691 C   0  0  0  0  0  0  0  0  0  0  0  0
   -2.1826   -2.0917    1.1405 N   0  0  0  0  0  0  0  0  0  0  0  0
   -2.2786   -2.6929    2.3655 C   0  0  0  0  0  0  0  0  0  0  0  0
   -3.5879   -2.5083    2.7532 C   0  0  0  0  0  0  0  0  0  0  0  0
   -4.2948   -1.8145    1.8008 N   0  0  0  0  0  0  0  0  0  0  0  0
   -3.4188   -1.5844    0.8417 C   0  0  0  0  0  0  0  0  0  0  0  0
   -3.6031   -0.8871   -0.4230 C   0  0  0  0  0  0  0  0  0  0  0  0
   -4.7745   -0.3267   -0.8677 N   0  0  0  0  0  0  0  0  0  0  0  0
   -6.0169   -0.2076   -0.1376 C   0  0  0  0  0  0  0  0  0  0  0  0
   -5.9763    0.9373    0.8820 C   0  0  0  0  0  0  0  0  0  0  0  0
   -5.9057    2.3012    0.2351 C   0  0  0  0  0  0  0  0  0  0  0  0
   -4.6719    2.8849   -0.0653 C   0  0  0  0  0  0  0  0  0  0  0  0
   -4.6553    4.1274   -0.6795 C   0  0  0  0  0  0  0  0  0  0  0  0
   -5.7677    4.8176   -1.0104 N   0  0  0  0  0  0  0  0  0  0  0  0
   -6.9490    4.2370   -0.7110 C   0  0  0  0  0  0  0  0  0  0  0  0
   -7.0695    2.9976   -0.1003 C   0  0  0  0  0  0  0  0  0  0  0  0
   -2.5760   -0.7556   -1.2390 N   0  0  0  0  0  0  0  0  0  0  0  0
    1.0932   -0.8357   -1.4326 C   0  0  0  0  0  0  0  0  0  0  0  0
    5.3361    0.0161   -0.7580 N   0  0  0  0  0  0  0  0  0  0  0  0
    6.2673    0.0511    0.3011 C   0  0  0  0  0  0  0  0  0  0  0  0
    7.5101    0.6410    0.0380 C   0  0  0  0  0  0  0  0  0  0  0  0
    8.4899    0.7169    1.0298 C   0  0  0  0  0  0  0  0  0  0  0  0
    8.2392    0.1975    2.2975 C   0  0  0  0  0  0  0  0  0  0  0  0
    7.0080   -0.4092    2.5808 C   0  0  0  0  0  0  0  0  0  0  0  0
    6.7141   -0.9649    3.9524 C   0  0  0  0  0  0  0  0  0  0  0  0
    6.0866   -2.1730    3.9149 F   0  0  0  0  0  0  0  0  0  0  0  0
    5.9118   -0.1452    4.6856 F   0  0  0  0  0  0  0  0  0  0  0  0
    7.8349   -1.1566    4.7053 F   0  0  0  0  0  0  0  0  0  0  0  0
    6.0267   -0.4723    1.5735 C   0  0  0  0  0  0  0  0  0  0  0  0
    4.1121   -0.2750   -2.7600 H   0  0  0  0  0  0  0  0  0  0  0  0
    2.6201   -0.6168   -4.4683 H   0  0  0  0  0  0  0  0  0  0  0  0
    0.3185   -1.0470   -5.2213 H   0  0  0  0  0  0  0  0  0  0  0  0
   -1.4976   -1.3566   -3.5811 H   0  0  0  0  0  0  0  0  0  0  0  0
   -0.1803   -2.3785    0.5639 H   0  0  0  0  0  0  0  0  0  0  0  0
   -1.4392   -3.1788    2.8414 H   0  0  0  0  0  0  0  0  0  0  0  0
   -4.0582   -2.8390    3.6707 H   0  0  0  0  0  0  0  0  0  0  0  0
   -4.7064    0.1582   -1.7542 H   0  0  0  0  0  0  0  0  0  0  0  0
   -6.2624   -1.1521    0.3587 H   0  0  0  0  0  0  0  0  0  0  0  0
   -6.8234   -0.0295   -0.8592 H   0  0  0  0  0  0  0  0  0  0  0  0
   -5.1307    0.8229    1.5707 H   0  0  0  0  0  0  0  0  0  0  0  0
   -6.8778    0.8904    1.5062 H   0  0  0  0  0  0  0  0  0  0  0  0
   -3.7381    2.3818    0.1665 H   0  0  0  0  0  0  0  0  0  0  0  0
   -3.7164    4.6125   -0.9305 H   0  0  0  0  0  0  0  0  0  0  0  0
   -7.8285    4.8125   -0.9849 H   0  0  0  0  0  0  0  0  0  0  0  0
   -8.0533    2.5913    0.1084 H   0  0  0  0  0  0  0  0  0  0  0  0
    1.2869   -0.7324   -0.3700 H   0  0  0  0  0  0  0  0  0  0  0  0
    5.6434    0.4235   -1.6271 H   0  0  0  0  0  0  0  0  0  0  0  0
    7.7338    1.0566   -0.9413 H   0  0  0  0  0  0  0  0  0  0  0  0
    9.4481    1.1834    0.8133 H   0  0  0  0  0  0  0  0  0  0  0  0
    9.0089    0.2651    3.0652 H   0  0  0  0  0  0  0  0  0  0  0  0
    5.0789   -0.9464    1.8168 H   0  0  0  0  0  0  0  0  0  0  0  0
  1  2  2  0
  2  3  1  0
  3  4  1  0
  4  5  2  0
  5  6  1  0
  6  7  2  0
  7  8  1  0
  8  9  1  0
  9 10  2  0
 10 11  1  0
 11 12  1  0
 12 13  2  0
 13 14  1  0
 14 15  2  0
 15 16  1  0
 16 17  1  0
 17 18  1  0
 18 19  1  0
 19 20  1  0
 20 21  2  0
 21 22  1  0
 22 23  2  0
 23 24  1  0
 24 25  2  0
 16 26  2  0
  8 27  2  0
  2 28  1  0
 28 29  1  0
 29 30  2  0
 30 31  1  0
 31 32  2  0
 32 33  1  0
 33 34  1  0
 34 35  1  0
 34 36  1  0
 34 37  1  0
 33 38  2  0
 27  4  1  0
 38 29  1  0
 26  9  1  0
 15 11  1  0
 25 20  1  0
  3 39  1  0
  5 40  1  0
  6 41  1  0
  7 42  1  0
 10 43  1  0
 12 44  1  0
 13 45  1  0
 17 46  1  0
 18 47  1  0
 18 48  1  0
 19 49  1  0
 19 50  1  0
 21 51  1  0
 22 52  1  0
 24 53  1  0
 25 54  1  0
 27 55  1  0
 28 56  1  0
 30 57  1  0
 31 58  1  0
 32 59  1  0
 38 60  1  0
M  END
$$$$
