
     RDKit          3D

 57 61  0  0  0  0  0  0  0  0999 V2000
    3.4797    0.3542    0.2190 O   0  0  0  0  0  0  0  0  0  0  0  0
    3.8770   -0.6516    0.7917 C   0  0  0  0  0  0  0  0  0  0  0  0
    3.1079   -1.4424    1.6341 N   0  0  0  0  0  0  0  0  0  0  0  0
    1.7232   -1.3330    1.8878 C   0  0  0  0  0  0  0  0  0  0  0  0
    1.1932   -2.1424    2.8990 C   0  0  0  0  0  0  0  0  0  0  0  0
   -0.1670   -2.0962    3.2047 C   0  0  0  0  0  0  0  0  0  0  0  0
   -1.0097   -1.2372    2.5007 C   0  0  0  0  0  0  0  0  0  0  0  0
   -0.5064   -0.4129    1.4846 C   0  0  0  0  0  0  0  0  0  0  0  0
   -1.4295    0.4814    0.7410 C   0  0  0  0  0  0  0  0  0  0  0  0
   -1.0221    1.7150    0.3732 C   0  0  0  0  0  0  0  0  0  0  0  0
   -1.9092    2.5216   -0.3052 N   0  0  0  0  0  0  0  0  0  0  0  0
   -1.8055    3.7896   -0.8076 C   0  0  0  0  0  0  0  0  0  0  0  0
   -3.0340    4.0494   -1.3795 C   0  0  0  0  0  0  0  0  0  0  0  0
   -3.8867    2.9793   -1.2397 N   0  0  0  0  0  0  0  0  0  0  0  0
   -3.1713    2.0835   -0.5900 C   0  0  0  0  0  0  0  0  0  0  0  0
   -3.5718    0.7541   -0.1661 C   0  0  0  0  0  0  0  0  0  0  0  0
   -4.8351    0.2908   -0.4368 N   0  0  0  0  0  0  0  0  0  0  0  0
   -5.3102   -1.0161   -0.0784 C   0  0  0  0  0  0  0  0  0  0  0  0
   -6.7380   -1.1760   -0.5313 C   0  0  0  0  0  0  0  0  0  0  0  0
   -7.7975   -0.7819    0.2916 C   0  0  0  0  0  0  0  0  0  0  0  0
   -9.0929   -0.9253   -0.1796 C   0  0  0  0  0  0  0  0  0  0  0  0
   -9.3986   -1.4205   -1.3976 N   0  0  0  0  0  0  0  0  0  0  0  0
   -8.3618   -1.7805   -2.1835 C   0  0  0  0  0  0  0  0  0  0  0  0
   -7.0332   -1.6759   -1.8032 C   0  0  0  0  0  0  0  0  0  0  0  0
   -2.7111    0.0006    0.4814 N   0  0  0  0  0  0  0  0  0  0  0  0
    0.8652   -0.4861    1.1787 C   0  0  0  0  0  0  0  0  0  0  0  0
    5.1651   -1.1604    0.6948 N   0  0  0  0  0  0  0  0  0  0  0  0
    6.2682   -0.5937    0.0233 C   0  0  0  0  0  0  0  0  0  0  0  0
    7.4474   -1.3505   -0.0142 C   0  0  0  0  0  0  0  0  0  0  0  0
    8.5860   -0.8601   -0.6557 C   0  0  0  0  0  0  0  0  0  0  0  0
    8.5504    0.3912   -1.2589 C   0  0  0  0  0  0  0  0  0  0  0  0
    9.6530    0.8445   -1.8690 F   0  0  0  0  0  0  0  0  0  0  0  0
    7.3972    1.1683   -1.2334 C   0  0  0  0  0  0  0  0  0  0  0  0
    7.4100    2.5130   -1.8945 C   0  0  0  0  0  0  0  0  0  0  0  0
    6.2269    3.1821   -1.7855 F   0  0  0  0  0  0  0  0  0  0  0  0
    7.6668    2.4433   -3.2302 F   0  0  0  0  0  0  0  0  0  0  0  0
    8.3486    3.3498   -1.3706 F   0  0  0  0  0  0  0  0  0  0  0  0
    6.2537    0.6659   -0.5854 C   0  0  0  0  0  0  0  0  0  0  0  0
    3.6019   -2.1223    2.1901 H   0  0  0  0  0  0  0  0  0  0  0  0
    1.8279   -2.8183    3.4656 H   0  0  0  0  0  0  0  0  0  0  0  0
   -0.5730   -2.7282    3.9902 H   0  0  0  0  0  0  0  0  0  0  0  0
   -2.0696   -1.2113    2.7471 H   0  0  0  0  0  0  0  0  0  0  0  0
   -0.0419    2.1254    0.5784 H   0  0  0  0  0  0  0  0  0  0  0  0
   -0.9028    4.3768   -0.7224 H   0  0  0  0  0  0  0  0  0  0  0  0
   -3.3488    4.9535   -1.8854 H   0  0  0  0  0  0  0  0  0  0  0  0
   -5.4528    0.9172   -0.9441 H   0  0  0  0  0  0  0  0  0  0  0  0
   -5.2510   -1.1642    1.0068 H   0  0  0  0  0  0  0  0  0  0  0  0
   -4.6881   -1.7923   -0.5404 H   0  0  0  0  0  0  0  0  0  0  0  0
   -7.6207   -0.3666    1.2785 H   0  0  0  0  0  0  0  0  0  0  0  0
   -9.9447   -0.6333    0.4280 H   0  0  0  0  0  0  0  0  0  0  0  0
   -8.6349   -2.1656   -3.1619 H   0  0  0  0  0  0  0  0  0  0  0  0
   -6.2465   -1.9746   -2.4886 H   0  0  0  0  0  0  0  0  0  0  0  0
    1.2453    0.1129    0.3576 H   0  0  0  0  0  0  0  0  0  0  0  0
    5.3131   -2.0726    1.0977 H   0  0  0  0  0  0  0  0  0  0  0  0
    7.4971   -2.3323    0.4500 H   0  0  0  0  0  0  0  0  0  0  0  0
    9.5000   -1.4456   -0.6893 H   0  0  0  0  0  0  0  0  0  0  0  0
    5.3618    1.2878   -0.5677 H   0  0  0  0  0  0  0  0  0  0  0  0
  1  2  2  0
  2  3  1  0
  3  4  1  0
  4  5  2  0
  5  6  1  0
  6  7  2  0
  7  8  1  0
  8  9  1  0
  9 10  2  0
 10 11  1  0
 11 12  1  0
 12 13  2  0
 13 14  1  0
 14 15  2  0
 15 16  1  0
 16 17  1  0
 17 18  1  0
 18 19  1  0
 19 20  2  0
 20 21  1  0
 21 22  2  0
 22 23  1  0
 23 24  2  0
 16 25  2  0
  8 26  2  0
  2 27  1  0
 27 28  1  0
 28 29  2  0
 29 30  1  0
 30 31  2  0
 31 32  1  0
 31 33  1  0
 33 34  1  0
 34 35  1  0
 34 36  1  0
 34 37  1  0
 33 38  2  0
 26  4  1  0
 38 28  1  0
 25  9  1  0
 15 11  1  0
 24 19  1  0
  3 39  1  0
  5 40  1  0
  6 41  1  0
  7 42  1  0
 10 43  1  0
 12 44  1  0
 13 45  1  0
 17 46  1  0
 18 47  1  0
 18 48  1  0
 20 49  1  0
 21 50  1  0
 23 51  1  0
 24 52  1  0
 26 53  1  0
 27 54  1  0
 29 55  1  0
 30 56  1  0
 38 57  1  0
M  END
$$$$
