
     RDKit          3D

 57 61  0  0  0  0  0  0  0  0999 V2000
    3.3365   -0.3852   -0.0900 O   0  0  0  0  0  0  0  0  0  0  0  0
    3.7253    0.0966    0.9659 C   0  0  0  0  0  0  0  0  0  0  0  0
    5.0009    0.5962    1.1909 N   0  0  0  0  0  0  0  0  0  0  0  0
    6.1046    0.5738    0.3125 C   0  0  0  0  0  0  0  0  0  0  0  0
    6.1027   -0.0552   -0.9329 C   0  0  0  0  0  0  0  0  0  0  0  0
    7.2448   -0.0356   -1.7434 C   0  0  0  0  0  0  0  0  0  0  0  0
    8.4109    0.6182   -1.3246 C   0  0  0  0  0  0  0  0  0  0  0  0
    9.6478    0.6195   -2.1888 C   0  0  0  0  0  0  0  0  0  0  0  0
   10.4748   -0.4252   -1.9089 F   0  0  0  0  0  0  0  0  0  0  0  0
    9.3748    0.5358   -3.5206 F   0  0  0  0  0  0  0  0  0  0  0  0
   10.4024    1.7439   -2.0350 F   0  0  0  0  0  0  0  0  0  0  0  0
    8.4157    1.2383   -0.0685 C   0  0  0  0  0  0  0  0  0  0  0  0
    7.2734    1.2171    0.7392 C   0  0  0  0  0  0  0  0  0  0  0  0
    2.9535    0.2153    2.1144 N   0  0  0  0  0  0  0  0  0  0  0  0
    1.5760   -0.0587    2.2575 C   0  0  0  0  0  0  0  0  0  0  0  0
    1.0473   -0.0149    3.5527 C   0  0  0  0  0  0  0  0  0  0  0  0
   -0.3062   -0.2674    3.7754 C   0  0  0  0  0  0  0  0  0  0  0  0
   -1.1438   -0.5680    2.7022 C   0  0  0  0  0  0  0  0  0  0  0  0
   -0.6416   -0.6219    1.3945 C   0  0  0  0  0  0  0  0  0  0  0  0
   -1.5593   -0.9306    0.2687 C   0  0  0  0  0  0  0  0  0  0  0  0
   -1.1341   -1.7020   -0.7546 C   0  0  0  0  0  0  0  0  0  0  0  0
   -2.0162   -1.9776   -1.7762 N   0  0  0  0  0  0  0  0  0  0  0  0
   -1.8964   -2.7056   -2.9280 C   0  0  0  0  0  0  0  0  0  0  0  0
   -3.1285   -2.6100   -3.5415 C   0  0  0  0  0  0  0  0  0  0  0  0
   -3.9991   -1.8474   -2.7984 N   0  0  0  0  0  0  0  0  0  0  0  0
   -3.2909   -1.4871   -1.7472 C   0  0  0  0  0  0  0  0  0  0  0  0
   -3.7099   -0.6710   -0.6221 C   0  0  0  0  0  0  0  0  0  0  0  0
   -4.9860   -0.1684   -0.5667 N   0  0  0  0  0  0  0  0  0  0  0  0
   -5.4799    0.6665    0.4923 C   0  0  0  0  0  0  0  0  0  0  0  0
   -6.9173    1.0271    0.2221 C   0  0  0  0  0  0  0  0  0  0  0  0
   -7.9562    0.1982    0.6566 C   0  0  0  0  0  0  0  0  0  0  0  0
   -9.2612    0.5593    0.3616 C   0  0  0  0  0  0  0  0  0  0  0  0
   -9.5952    1.6686   -0.3313 N   0  0  0  0  0  0  0  0  0  0  0  0
   -8.5779    2.4477   -0.7558 C   0  0  0  0  0  0  0  0  0  0  0  0
   -7.2418    2.1722   -0.5115 C   0  0  0  0  0  0  0  0  0  0  0  0
   -2.8537   -0.4210    0.3434 N   0  0  0  0  0  0  0  0  0  0  0  0
    0.7229   -0.3470    1.1875 C   0  0  0  0  0  0  0  0  0  0  0  0
    5.1421    1.0843    2.0609 H   0  0  0  0  0  0  0  0  0  0  0  0
    5.2280   -0.5785   -1.3073 H   0  0  0  0  0  0  0  0  0  0  0  0
    7.2132   -0.5374   -2.7100 H   0  0  0  0  0  0  0  0  0  0  0  0
    9.3118    1.7450    0.2879 H   0  0  0  0  0  0  0  0  0  0  0  0
    7.3149    1.7136    1.7055 H   0  0  0  0  0  0  0  0  0  0  0  0
    3.4438    0.4499    2.9629 H   0  0  0  0  0  0  0  0  0  0  0  0
    1.6785    0.2136    4.4072 H   0  0  0  0  0  0  0  0  0  0  0  0
   -0.7110   -0.2303    4.7834 H   0  0  0  0  0  0  0  0  0  0  0  0
   -2.1986   -0.7615    2.8881 H   0  0  0  0  0  0  0  0  0  0  0  0
   -0.1430   -2.1299   -0.8310 H   0  0  0  0  0  0  0  0  0  0  0  0
   -0.9815   -3.2086   -3.2052 H   0  0  0  0  0  0  0  0  0  0  0  0
   -3.4341   -3.0520   -4.4816 H   0  0  0  0  0  0  0  0  0  0  0  0
   -5.5995   -0.3917   -1.3444 H   0  0  0  0  0  0  0  0  0  0  0  0
   -5.4065    0.1500    1.4571 H   0  0  0  0  0  0  0  0  0  0  0  0
   -4.8797    1.5809    0.5738 H   0  0  0  0  0  0  0  0  0  0  0  0
   -7.7560   -0.7137    1.2099 H   0  0  0  0  0  0  0  0  0  0  0  0
  -10.0977   -0.0552    0.6820 H   0  0  0  0  0  0  0  0  0  0  0  0
   -8.8734    3.3279   -1.3196 H   0  0  0  0  0  0  0  0  0  0  0  0
   -6.4716    2.8364   -0.8905 H   0  0  0  0  0  0  0  0  0  0  0  0
    1.1011   -0.3371    0.1704 H   0  0  0  0  0  0  0  0  0  0  0  0
  1  2  2  0
  2  3  1  0
  3  4  1  0
  4  5  2  0
  5  6  1  0
  6  7  2  0
  7  8  1  0
  8  9  1  0
  8 10  1  0
  8 11  1  0
  7 12  1  0
 12 13  2  0
  2 14  1  0
 14 15  1  0
 15 16  2  0
 16 17  1  0
 17 18  2  0
 18 19  1  0
 19 20  1  0
 20 21  2  0
 21 22  1  0
 22 23  1  0
 23 24  2  0
 24 25  1  0
 25 26  2  0
 26 27  1  0
 27 28  1  0
 28 29  1  0
 29 30  1  0
 30 31  2  0
 31 32  1  0
 32 33  2  0
 33 34  1  0
 34 35  2  0
 27 36  2  0
 19 37  2  0
 13  4  1  0
 37 15  1  0
 36 20  1  0
 26 22  1  0
 35 30  1  0
  3 38  1  0
  5 39  1  0
  6 40  1  0
 12 41  1  0
 13 42  1  0
 14 43  1  0
 16 44  1  0
 17 45  1  0
 18 46  1  0
 21 47  1  0
 23 48  1  0
 24 49  1  0
 28 50  1  0
 29 51  1  0
 29 52  1  0
 31 53  1  0
 32 54  1  0
 34 55  1  0
 35 56  1  0
 37 57  1  0
M  END
$$$$
