
     RDKit          3D

 67 72  0  0  0  0  0  0  0  0999 V2000
    5.6738   -1.1699   -0.5086 O   0  0  0  0  0  0  0  0  0  0  0  0
    6.4786   -0.3539   -0.0744 C   0  0  0  0  0  0  0  0  0  0  0  0
    6.2369    0.6220    0.8760 N   0  0  0  0  0  0  0  0  0  0  0  0
    4.9946    0.9579    1.4557 C   0  0  0  0  0  0  0  0  0  0  0  0
    5.0027    1.8981    2.4915 C   0  0  0  0  0  0  0  0  0  0  0  0
    3.8129    2.2776    3.1146 C   0  0  0  0  0  0  0  0  0  0  0  0
    2.6014    1.7196    2.7076 C   0  0  0  0  0  0  0  0  0  0  0  0
    2.5664    0.7816    1.6691 C   0  0  0  0  0  0  0  0  0  0  0  0
    1.2873    0.1788    1.2347 C   0  0  0  0  0  0  0  0  0  0  0  0
    1.1875   -1.1633    1.1878 C   0  0  0  0  0  0  0  0  0  0  0  0
   -0.1196   -1.7082    0.7486 C   0  0  0  0  0  0  0  0  0  0  0  0
   -1.1662   -1.0205    0.4080 N   0  0  0  0  0  0  0  0  0  0  0  0
   -1.0307    0.3445    0.4607 C   0  0  0  0  0  0  0  0  0  0  0  0
   -1.9110    1.3715    0.1642 C   0  0  0  0  0  0  0  0  0  0  0  0
   -3.2750    1.2057   -0.3070 C   0  0  0  0  0  0  0  0  0  0  0  0
   -3.6032    0.2121   -1.2365 C   0  0  0  0  0  0  0  0  0  0  0  0
   -4.9177    0.0571   -1.6848 C   0  0  0  0  0  0  0  0  0  0  0  0
   -5.9347    0.8968   -1.2091 C   0  0  0  0  0  0  0  0  0  0  0  0
   -7.3580    0.6882   -1.6480 C   0  0  0  0  0  0  0  0  0  0  0  0
   -7.9761   -0.5237   -1.0091 N   0  0  0  0  0  0  0  0  0  0  0  0
   -9.2732   -0.9575   -1.6381 C   0  0  0  0  0  0  0  0  0  0  0  0
   -9.9345   -1.7516   -0.5332 C   0  0  0  0  0  0  0  0  0  0  0  0
   -9.6293   -0.9225    0.6986 C   0  0  0  0  0  0  0  0  0  0  0  0
   -8.2082   -0.4231    0.4865 C   0  0  0  0  0  0  0  0  0  0  0  0
   -5.6052    1.9034   -0.2911 C   0  0  0  0  0  0  0  0  0  0  0  0
   -4.2872    2.0568    0.1525 C   0  0  0  0  0  0  0  0  0  0  0  0
   -1.1888    2.5468    0.4435 C   0  0  0  0  0  0  0  0  0  0  0  0
    0.0475    2.3149    0.8754 N   0  0  0  0  0  0  0  0  0  0  0  0
    0.1679    0.9577    0.8782 N   0  0  0  0  0  0  0  0  0  0  0  0
    3.7735    0.4156    1.0453 C   0  0  0  0  0  0  0  0  0  0  0  0
    7.8858   -0.4258   -0.5610 C   0  0  0  0  0  0  0  0  0  0  0  0
    8.6658    0.7240   -0.7352 C   0  0  0  0  0  0  0  0  0  0  0  0
    9.9759    0.6125   -1.2038 C   0  0  0  0  0  0  0  0  0  0  0  0
   10.5084   -0.6424   -1.5062 C   0  0  0  0  0  0  0  0  0  0  0  0
    9.7372   -1.8040   -1.3471 C   0  0  0  0  0  0  0  0  0  0  0  0
   10.2965   -3.1592   -1.7077 C   0  0  0  0  0  0  0  0  0  0  0  0
    9.9798   -3.5279   -2.9784 F   0  0  0  0  0  0  0  0  0  0  0  0
    9.8359   -4.1541   -0.8999 F   0  0  0  0  0  0  0  0  0  0  0  0
   11.6550   -3.2149   -1.6270 F   0  0  0  0  0  0  0  0  0  0  0  0
    8.4173   -1.6822   -0.8830 C   0  0  0  0  0  0  0  0  0  0  0  0
    7.0388    1.1199    1.2406 H   0  0  0  0  0  0  0  0  0  0  0  0
    5.9322    2.3469    2.8320 H   0  0  0  0  0  0  0  0  0  0  0  0
    3.8286    3.0105    3.9175 H   0  0  0  0  0  0  0  0  0  0  0  0
    1.6849    2.0318    3.2043 H   0  0  0  0  0  0  0  0  0  0  0  0
    1.9781   -1.8554    1.4463 H   0  0  0  0  0  0  0  0  0  0  0  0
   -0.1781   -2.8093    0.7200 H   0  0  0  0  0  0  0  0  0  0  0  0
   -2.8299   -0.4505   -1.6241 H   0  0  0  0  0  0  0  0  0  0  0  0
   -5.1224   -0.7248   -2.4136 H   0  0  0  0  0  0  0  0  0  0  0  0
   -7.9932    1.5501   -1.4124 H   0  0  0  0  0  0  0  0  0  0  0  0
   -7.3885    0.5327   -2.7332 H   0  0  0  0  0  0  0  0  0  0  0  0
   -7.3045   -1.2912   -1.1424 H   0  0  0  0  0  0  0  0  0  0  0  0
   -9.0502   -1.5454   -2.5323 H   0  0  0  0  0  0  0  0  0  0  0  0
   -9.8452   -0.0586   -1.8929 H   0  0  0  0  0  0  0  0  0  0  0  0
   -9.4782   -2.7449   -0.4475 H   0  0  0  0  0  0  0  0  0  0  0  0
  -11.0080   -1.8797   -0.6968 H   0  0  0  0  0  0  0  0  0  0  0  0
   -9.7320   -1.4941    1.6255 H   0  0  0  0  0  0  0  0  0  0  0  0
  -10.3168   -0.0697    0.7563 H   0  0  0  0  0  0  0  0  0  0  0  0
   -7.4640   -1.0651    0.9676 H   0  0  0  0  0  0  0  0  0  0  0  0
   -8.0903    0.6133    0.8154 H   0  0  0  0  0  0  0  0  0  0  0  0
   -6.3627    2.5831    0.0955 H   0  0  0  0  0  0  0  0  0  0  0  0
   -4.0622    2.8407    0.8741 H   0  0  0  0  0  0  0  0  0  0  0  0
   -1.5137    3.5748    0.3439 H   0  0  0  0  0  0  0  0  0  0  0  0
    3.7372   -0.2893    0.2203 H   0  0  0  0  0  0  0  0  0  0  0  0
    8.2602    1.7142   -0.5449 H   0  0  0  0  0  0  0  0  0  0  0  0
   10.5808    1.5057   -1.3477 H   0  0  0  0  0  0  0  0  0  0  0  0
   11.5308   -0.7113   -1.8783 H   0  0  0  0  0  0  0  0  0  0  0  0
    7.7984   -2.5730   -0.7693 H   0  0  0  0  0  0  0  0  0  0  0  0
  1  2  2  0
  2  3  1  0
  3  4  1  0
  4  5  2  0
  5  6  1  0
  6  7  2  0
  7  8  1  0
  8  9  1  0
  9 10  2  0
 10 11  1  0
 11 12  2  0
 12 13  1  0
 13 14  2  0
 14 15  1  0
 15 16  2  0
 16 17  1  0
 17 18  2  0
 18 19  1  0
 19 20  1  0
 20 21  1  0
 21 22  1  0
 22 23  1  0
 23 24  1  0
 18 25  1  0
 25 26  2  0
 14 27  1  0
 27 28  2  0
 28 29  1  0
  8 30  2  0
  2 31  1  0
 31 32  2  0
 32 33  1  0
 33 34  2  0
 34 35  1  0
 35 36  1  0
 36 37  1  0
 36 38  1  0
 36 39  1  0
 35 40  2  0
 30  4  1  0
 40 31  1  0
 29  9  1  0
 29 13  1  0
 26 15  1  0
 24 20  1  0
  3 41  1  0
  5 42  1  0
  6 43  1  0
  7 44  1  0
 10 45  1  0
 11 46  1  0
 16 47  1  0
 17 48  1  0
 19 49  1  0
 19 50  1  0
 20 51  1  0
 21 52  1  0
 21 53  1  0
 22 54  1  0
 22 55  1  0
 23 56  1  0
 23 57  1  0
 24 58  1  0
 24 59  1  0
 25 60  1  0
 26 61  1  0
 27 62  1  0
 30 63  1  0
 32 64  1  0
 33 65  1  0
 34 66  1  0
 40 67  1  0
M  CHG  1  20   1
M  END
$$$$
