
     RDKit          3D

 71 75  0  0  0  0  0  0  0  0999 V2000
   -0.4099    1.8318   -2.2140 C   0  0  0  0  0  0  0  0  0  0  0  0
   -0.6511    0.8347   -1.1129 N   0  0  0  0  0  0  0  0  0  0  0  0
   -1.6023    1.3081   -0.0343 C   0  0  0  0  0  0  0  0  0  0  0  0
   -3.0788    1.2197   -0.4940 C   0  0  0  0  0  0  0  0  0  0  0  0
   -3.4439   -0.1814   -1.0048 N   0  0  0  0  0  0  0  0  0  0  0  0
   -4.9047   -0.2218   -1.4694 C   0  0  0  0  0  0  0  0  0  0  0  0
   -5.4863   -1.6365   -1.6007 C   0  0  0  0  0  0  0  0  0  0  0  0
   -5.9520   -2.2797   -0.2841 C   0  0  0  0  0  0  0  0  0  0  0  0
   -4.8104   -2.6190    0.5685 C   0  0  0  0  0  0  0  0  0  0  0  0
   -3.7814   -2.8040    1.1568 C   0  0  0  0  0  0  0  0  0  0  0  0
   -2.4441   -2.7960    1.6283 C   0  0  0  0  0  0  0  0  0  0  0  0
   -1.8819   -1.9597    2.5966 C   0  0  0  0  0  0  0  0  0  0  0  0
   -0.5517   -1.9798    2.5551 N   0  0  0  0  0  0  0  0  0  0  0  0
   -0.2409   -3.0161    1.7200 N   0  0  0  0  0  0  0  0  0  0  0  0
    1.0287   -3.4900    1.3439 C   0  0  0  0  0  0  0  0  0  0  0  0
    2.2526   -2.7805    1.7511 C   0  0  0  0  0  0  0  0  0  0  0  0
    3.2798   -3.3840    2.4754 C   0  0  0  0  0  0  0  0  0  0  0  0
    4.4220   -2.6472    2.7941 C   0  0  0  0  0  0  0  0  0  0  0  0
    4.5436   -1.3129    2.3867 C   0  0  0  0  0  0  0  0  0  0  0  0
    3.5244   -0.6975    1.6547 C   0  0  0  0  0  0  0  0  0  0  0  0
    3.6945    0.6495    1.2699 N   0  0  0  0  0  0  0  0  0  0  0  0
    2.8356    1.4288    0.5182 C   0  0  0  0  0  0  0  0  0  0  0  0
    1.7770    1.0888   -0.0165 O   0  0  0  0  0  0  0  0  0  0  0  0
    3.2818    2.8349    0.3269 C   0  0  0  0  0  0  0  0  0  0  0  0
    3.8220    3.5837    1.3771 C   0  0  0  0  0  0  0  0  0  0  0  0
    4.1943    4.9119    1.1596 C   0  0  0  0  0  0  0  0  0  0  0  0
    4.0138    5.4989   -0.0957 C   0  0  0  0  0  0  0  0  0  0  0  0
    3.4552    4.7648   -1.1508 C   0  0  0  0  0  0  0  0  0  0  0  0
    3.2385    5.3816   -2.5123 C   0  0  0  0  0  0  0  0  0  0  0  0
    4.1997    5.0268   -3.4023 F   0  0  0  0  0  0  0  0  0  0  0  0
    3.1881    6.7372   -2.4999 F   0  0  0  0  0  0  0  0  0  0  0  0
    2.0547    4.9660   -3.0574 F   0  0  0  0  0  0  0  0  0  0  0  0
    3.1034    3.4228   -0.9310 C   0  0  0  0  0  0  0  0  0  0  0  0
    2.3900   -1.4404    1.3452 C   0  0  0  0  0  0  0  0  0  0  0  0
    1.1216   -4.5020    0.4614 C   0  0  0  0  0  0  0  0  0  0  0  0
   -0.1644   -4.9695   -0.1218 C   0  0  0  0  0  0  0  0  0  0  0  0
   -1.3382   -4.4594    0.1099 N   0  0  0  0  0  0  0  0  0  0  0  0
   -1.3947   -3.5045    1.0878 C   0  0  0  0  0  0  0  0  0  0  0  0
   -2.4552   -0.6919   -2.0610 C   0  0  0  0  0  0  0  0  0  0  0  0
   -0.9795   -0.5644   -1.5940 C   0  0  0  0  0  0  0  0  0  0  0  0
   -0.0976    2.7738   -1.7562 H   0  0  0  0  0  0  0  0  0  0  0  0
   -1.3336    1.9624   -2.7816 H   0  0  0  0  0  0  0  0  0  0  0  0
    0.3883    1.4430   -2.8514 H   0  0  0  0  0  0  0  0  0  0  0  0
    0.2883    0.7786   -0.6416 H   0  0  0  0  0  0  0  0  0  0  0  0
   -1.3255    2.3329    0.2327 H   0  0  0  0  0  0  0  0  0  0  0  0
   -1.4311    0.6616    0.8328 H   0  0  0  0  0  0  0  0  0  0  0  0
   -3.7471    1.4365    0.3455 H   0  0  0  0  0  0  0  0  0  0  0  0
   -3.2802    1.9178   -1.3132 H   0  0  0  0  0  0  0  0  0  0  0  0
   -3.3804   -0.8158   -0.1985 H   0  0  0  0  0  0  0  0  0  0  0  0
   -5.4883    0.3602   -0.7476 H   0  0  0  0  0  0  0  0  0  0  0  0
   -4.9309    0.2963   -2.4345 H   0  0  0  0  0  0  0  0  0  0  0  0
   -6.3749   -1.5557   -2.2407 H   0  0  0  0  0  0  0  0  0  0  0  0
   -4.7955   -2.3032   -2.1275 H   0  0  0  0  0  0  0  0  0  0  0  0
   -6.6338   -1.6036    0.2435 H   0  0  0  0  0  0  0  0  0  0  0  0
   -6.5167   -3.1906   -0.5137 H   0  0  0  0  0  0  0  0  0  0  0  0
   -2.3736   -1.2703    3.2728 H   0  0  0  0  0  0  0  0  0  0  0  0
    3.2035   -4.4175    2.8067 H   0  0  0  0  0  0  0  0  0  0  0  0
    5.2231   -3.1125    3.3664 H   0  0  0  0  0  0  0  0  0  0  0  0
    5.4487   -0.7726    2.6560 H   0  0  0  0  0  0  0  0  0  0  0  0
    4.5705    1.0711    1.5659 H   0  0  0  0  0  0  0  0  0  0  0  0
    3.9424    3.1624    2.3729 H   0  0  0  0  0  0  0  0  0  0  0  0
    4.6210    5.4988    1.9726 H   0  0  0  0  0  0  0  0  0  0  0  0
    4.3091    6.5389   -0.2435 H   0  0  0  0  0  0  0  0  0  0  0  0
    2.7005    2.8352   -1.7533 H   0  0  0  0  0  0  0  0  0  0  0  0
    1.5797   -0.9922    0.7884 H   0  0  0  0  0  0  0  0  0  0  0  0
    2.0473   -4.9105    0.0757 H   0  0  0  0  0  0  0  0  0  0  0  0
   -0.0739   -5.7853   -0.8596 H   0  0  0  0  0  0  0  0  0  0  0  0
   -2.6295   -0.1052   -2.9687 H   0  0  0  0  0  0  0  0  0  0  0  0
   -2.6902   -1.7421   -2.2508 H   0  0  0  0  0  0  0  0  0  0  0  0
   -0.7879   -1.2287   -0.7471 H   0  0  0  0  0  0  0  0  0  0  0  0
   -0.2816   -0.8156   -2.3989 H   0  0  0  0  0  0  0  0  0  0  0  0
  1  2  1  0
  2  3  1  0
  3  4  1  0
  4  5  1  0
  5  6  1  0
  6  7  1  0
  7  8  1  0
  8  9  1  0
  9 10  3  0
 10 11  1  0
 11 12  1  0
 12 13  2  0
 13 14  1  0
 14 15  1  0
 15 16  1  0
 16 17  2  0
 17 18  1  0
 18 19  2  0
 19 20  1  0
 20 21  1  0
 21 22  1  0
 22 23  2  0
 22 24  1  0
 24 25  2  0
 25 26  1  0
 26 27  2  0
 27 28  1  0
 28 29  1  0
 29 30  1  0
 29 31  1  0
 29 32  1  0
 28 33  2  0
 20 34  2  0
 15 35  2  0
 35 36  1  0
 36 37  2  0
 37 38  1  0
  5 39  1  0
 39 40  1  0
 40  2  1  0
 38 11  2  0
 38 14  1  0
 34 16  1  0
 33 24  1  0
  1 41  1  0
  1 42  1  0
  1 43  1  0
  2 44  1  0
  3 45  1  0
  3 46  1  0
  4 47  1  0
  4 48  1  0
  5 49  1  0
  6 50  1  0
  6 51  1  0
  7 52  1  0
  7 53  1  0
  8 54  1  0
  8 55  1  0
 12 56  1  0
 17 57  1  0
 18 58  1  0
 19 59  1  0
 21 60  1  0
 25 61  1  0
 26 62  1  0
 27 63  1  0
 33 64  1  0
 34 65  1  0
 35 66  1  0
 36 67  1  0
 39 68  1  0
 39 69  1  0
 40 70  1  0
 40 71  1  0
M  CHG  2   2   1   5   1
M  END
$$$$
