
     RDKit          3D

 54 58  0  0  0  0  0  0  0  0999 V2000
    1.6598   -2.2736    2.1436 C   0  0  0  0  0  0  0  0  0  0  0  0
    0.3390   -1.7961    1.6135 C   0  0  0  0  0  0  0  0  0  0  0  0
   -0.7983   -2.6020    1.8043 C   0  0  0  0  0  0  0  0  0  0  0  0
   -2.0578   -2.2122    1.3319 C   0  0  0  0  0  0  0  0  0  0  0  0
   -2.2085   -1.0042    0.6592 C   0  0  0  0  0  0  0  0  0  0  0  0
   -3.4301   -0.5265    0.1402 N   0  0  0  0  0  0  0  0  0  0  0  0
   -4.6719   -1.1188    0.2264 C   0  0  0  0  0  0  0  0  0  0  0  0
   -4.9730   -2.1398    0.8335 O   0  0  0  0  0  0  0  0  0  0  0  0
   -5.7633   -0.3930   -0.4828 C   0  0  0  0  0  0  0  0  0  0  0  0
   -5.5434    0.2620   -1.6995 C   0  0  0  0  0  0  0  0  0  0  0  0
   -6.6046    0.9072   -2.3308 C   0  0  0  0  0  0  0  0  0  0  0  0
   -6.3457    1.7078   -3.8319 Cl  0  0  0  0  0  0  0  0  0  0  0  0
   -7.8814    0.9040   -1.7670 C   0  0  0  0  0  0  0  0  0  0  0  0
   -8.1180    0.2447   -0.5511 C   0  0  0  0  0  0  0  0  0  0  0  0
   -9.5030    0.2062    0.0433 C   0  0  0  0  0  0  0  0  0  0  0  0
  -10.2375    1.3151   -0.2537 F   0  0  0  0  0  0  0  0  0  0  0  0
   -9.5050    0.1148    1.4012 F   0  0  0  0  0  0  0  0  0  0  0  0
  -10.2300   -0.8523   -0.4078 F   0  0  0  0  0  0  0  0  0  0  0  0
   -7.0497   -0.4134    0.0781 C   0  0  0  0  0  0  0  0  0  0  0  0
   -1.0845   -0.1974    0.4643 C   0  0  0  0  0  0  0  0  0  0  0  0
    0.1844   -0.5785    0.9318 C   0  0  0  0  0  0  0  0  0  0  0  0
    1.3838    0.4425    0.6334 C   0  0  0  0  0  0  0  0  0  0  0  0
    2.7128    0.2495    1.0129 N   0  0  0  0  0  0  0  0  0  0  0  0
    3.3665    1.4323    0.4980 C   0  0  0  0  0  0  0  0  0  0  0  0
    2.4911    2.2342   -0.1105 C   0  0  0  0  0  0  0  0  0  0  0  0
    3.2006    3.3410   -0.5492 C   0  0  0  0  0  0  0  0  0  0  0  0
    4.5139    3.2518   -0.2155 N   0  0  0  0  0  0  0  0  0  0  0  0
    4.5753    2.0245    0.4226 N   0  0  0  0  0  0  0  0  0  0  0  0
    5.8033    1.5335    1.0070 C   0  0  0  0  0  0  0  0  0  0  0  0
    6.6233    0.7373    0.0203 C   0  0  0  0  0  0  0  0  0  0  0  0
    6.2498   -0.5737   -0.3124 C   0  0  0  0  0  0  0  0  0  0  0  0
    7.0023   -1.3152   -1.2237 C   0  0  0  0  0  0  0  0  0  0  0  0
    8.1337   -0.7546   -1.8138 C   0  0  0  0  0  0  0  0  0  0  0  0
    8.5089    0.5508   -1.4989 C   0  0  0  0  0  0  0  0  0  0  0  0
    7.7562    1.2953   -0.5887 C   0  0  0  0  0  0  0  0  0  0  0  0
    1.1792    1.6473   -0.0567 N   0  0  0  0  0  0  0  0  0  0  0  0
    2.3772   -2.4121    1.3290 H   0  0  0  0  0  0  0  0  0  0  0  0
    1.5593   -3.2445    2.6421 H   0  0  0  0  0  0  0  0  0  0  0  0
    2.0524   -1.5770    2.8904 H   0  0  0  0  0  0  0  0  0  0  0  0
   -0.7102   -3.5512    2.3276 H   0  0  0  0  0  0  0  0  0  0  0  0
   -2.8969   -2.8765    1.5056 H   0  0  0  0  0  0  0  0  0  0  0  0
   -3.3576    0.3756   -0.3141 H   0  0  0  0  0  0  0  0  0  0  0  0
   -4.5649    0.2482   -2.1732 H   0  0  0  0  0  0  0  0  0  0  0  0
   -8.6986    1.4108   -2.2786 H   0  0  0  0  0  0  0  0  0  0  0  0
   -7.2138   -0.9468    1.0160 H   0  0  0  0  0  0  0  0  0  0  0  0
   -1.1667    0.7526   -0.0598 H   0  0  0  0  0  0  0  0  0  0  0  0
    2.8421    4.2083   -1.0804 H   0  0  0  0  0  0  0  0  0  0  0  0
    6.3629    2.3989    1.3810 H   0  0  0  0  0  0  0  0  0  0  0  0
    5.5531    0.9166    1.8783 H   0  0  0  0  0  0  0  0  0  0  0  0
    5.3516   -1.0122    0.1265 H   0  0  0  0  0  0  0  0  0  0  0  0
    6.6918   -2.3244   -1.4794 H   0  0  0  0  0  0  0  0  0  0  0  0
    8.7127   -1.3304   -2.5296 H   0  0  0  0  0  0  0  0  0  0  0  0
    9.3807    0.9948   -1.9707 H   0  0  0  0  0  0  0  0  0  0  0  0
    8.0469    2.3195   -0.3661 H   0  0  0  0  0  0  0  0  0  0  0  0
  1  2  1  0
  2  3  2  0
  3  4  1  0
  4  5  2  0
  5  6  1  0
  6  7  1  0
  7  8  2  0
  7  9  1  0
  9 10  2  0
 10 11  1  0
 11 12  1  0
 11 13  2  0
 13 14  1  0
 14 15  1  0
 15 16  1  0
 15 17  1  0
 15 18  1  0
 14 19  2  0
  5 20  1  0
 20 21  2  0
 21 22  1  0
 22 23  2  0
 23 24  1  0
 24 25  2  0
 25 26  1  0
 26 27  2  0
 27 28  1  0
 28 29  1  0
 29 30  1  0
 30 31  2  0
 31 32  1  0
 32 33  2  0
 33 34  1  0
 34 35  2  0
 25 36  1  0
 21  2  1  0
 36 22  1  0
 19  9  1  0
 28 24  1  0
 35 30  1  0
  1 37  1  0
  1 38  1  0
  1 39  1  0
  3 40  1  0
  4 41  1  0
  6 42  1  0
 10 43  1  0
 13 44  1  0
 19 45  1  0
 20 46  1  0
 26 47  1  0
 29 48  1  0
 29 49  1  0
 31 50  1  0
 32 51  1  0
 33 52  1  0
 34 53  1  0
 35 54  1  0
M  CHG  1  36  -1
M  END
$$$$
