
     RDKit          3D

 57 61  0  0  0  0  0  0  0  0999 V2000
    4.5587    0.6914   -0.2678 O   0  0  0  0  0  0  0  0  0  0  0  0
    4.3424   -0.5105   -0.1935 C   0  0  0  0  0  0  0  0  0  0  0  0
    3.1133   -1.0798    0.1116 N   0  0  0  0  0  0  0  0  0  0  0  0
    1.8823   -0.4196    0.3110 C   0  0  0  0  0  0  0  0  0  0  0  0
    1.6909    0.9511    0.1407 C   0  0  0  0  0  0  0  0  0  0  0  0
    0.4313    1.5284    0.3557 C   0  0  0  0  0  0  0  0  0  0  0  0
   -0.6628    0.7484    0.7533 C   0  0  0  0  0  0  0  0  0  0  0  0
   -2.0062    1.3315    0.9815 C   0  0  0  0  0  0  0  0  0  0  0  0
   -2.1257    2.5035    1.6403 C   0  0  0  0  0  0  0  0  0  0  0  0
   -3.3904    3.0092    1.8482 N   0  0  0  0  0  0  0  0  0  0  0  0
   -3.8405    4.1451    2.4631 C   0  0  0  0  0  0  0  0  0  0  0  0
   -5.2146    4.0931    2.3486 C   0  0  0  0  0  0  0  0  0  0  0  0
   -5.6181    2.9586    1.6843 N   0  0  0  0  0  0  0  0  0  0  0  0
   -4.4920    2.3355    1.4020 C   0  0  0  0  0  0  0  0  0  0  0  0
   -4.3171    1.0724    0.7077 C   0  0  0  0  0  0  0  0  0  0  0  0
   -5.4072    0.3739    0.2525 N   0  0  0  0  0  0  0  0  0  0  0  0
   -5.3292   -0.8672   -0.4662 C   0  0  0  0  0  0  0  0  0  0  0  0
   -6.7181   -1.3447   -0.8010 C   0  0  0  0  0  0  0  0  0  0  0  0
   -7.4434   -2.1249    0.1048 C   0  0  0  0  0  0  0  0  0  0  0  0
   -8.7273   -2.5187   -0.2375 C   0  0  0  0  0  0  0  0  0  0  0  0
   -9.3295   -2.1877   -1.3993 N   0  0  0  0  0  0  0  0  0  0  0  0
   -8.6193   -1.4212   -2.2539 C   0  0  0  0  0  0  0  0  0  0  0  0
   -7.3306   -0.9775   -2.0029 C   0  0  0  0  0  0  0  0  0  0  0  0
   -3.1022    0.6056    0.5226 N   0  0  0  0  0  0  0  0  0  0  0  0
   -0.4684   -0.6303    0.9039 C   0  0  0  0  0  0  0  0  0  0  0  0
    0.7888   -1.2072    0.6883 C   0  0  0  0  0  0  0  0  0  0  0  0
    5.2939   -1.5007   -0.4016 N   0  0  0  0  0  0  0  0  0  0  0  0
    6.6716   -1.3357   -0.6577 C   0  0  0  0  0  0  0  0  0  0  0  0
    7.4162   -2.4958   -0.9062 C   0  0  0  0  0  0  0  0  0  0  0  0
    8.7856   -2.4244   -1.1694 C   0  0  0  0  0  0  0  0  0  0  0  0
    9.4285   -1.1890   -1.1828 C   0  0  0  0  0  0  0  0  0  0  0  0
    8.7070   -0.0153   -0.9260 C   0  0  0  0  0  0  0  0  0  0  0  0
    9.3835    1.3333   -0.9491 C   0  0  0  0  0  0  0  0  0  0  0  0
    9.0270    2.1259    0.0992 F   0  0  0  0  0  0  0  0  0  0  0  0
    9.0947    2.0422   -2.0748 F   0  0  0  0  0  0  0  0  0  0  0  0
   10.7442    1.2523   -0.9018 F   0  0  0  0  0  0  0  0  0  0  0  0
    7.3257   -0.1016   -0.6687 C   0  0  0  0  0  0  0  0  0  0  0  0
    3.1003   -2.0768    0.2540 H   0  0  0  0  0  0  0  0  0  0  0  0
    2.4979    1.6065   -0.1720 H   0  0  0  0  0  0  0  0  0  0  0  0
    0.3210    2.5975    0.1888 H   0  0  0  0  0  0  0  0  0  0  0  0
   -1.2945    3.0762    2.0293 H   0  0  0  0  0  0  0  0  0  0  0  0
   -3.1745    4.8674    2.9119 H   0  0  0  0  0  0  0  0  0  0  0  0
   -5.9355    4.8152    2.7114 H   0  0  0  0  0  0  0  0  0  0  0  0
   -6.3190    0.7885    0.4199 H   0  0  0  0  0  0  0  0  0  0  0  0
   -4.8147   -1.6285    0.1328 H   0  0  0  0  0  0  0  0  0  0  0  0
   -4.7495   -0.7421   -1.3888 H   0  0  0  0  0  0  0  0  0  0  0  0
   -7.0216   -2.4178    1.0608 H   0  0  0  0  0  0  0  0  0  0  0  0
   -9.3244   -3.1267    0.4361 H   0  0  0  0  0  0  0  0  0  0  0  0
   -9.1309   -1.1609   -3.1762 H   0  0  0  0  0  0  0  0  0  0  0  0
   -6.8190   -0.3549   -2.7300 H   0  0  0  0  0  0  0  0  0  0  0  0
   -1.3021   -1.2669    1.1943 H   0  0  0  0  0  0  0  0  0  0  0  0
    0.8915   -2.2806    0.8220 H   0  0  0  0  0  0  0  0  0  0  0  0
    4.9567   -2.4498   -0.4172 H   0  0  0  0  0  0  0  0  0  0  0  0
    6.9419   -3.4739   -0.9038 H   0  0  0  0  0  0  0  0  0  0  0  0
    9.3500   -3.3329   -1.3657 H   0  0  0  0  0  0  0  0  0  0  0  0
   10.4963   -1.1440   -1.3925 H   0  0  0  0  0  0  0  0  0  0  0  0
    6.7871    0.8229   -0.4744 H   0  0  0  0  0  0  0  0  0  0  0  0
  1  2  2  0
  2  3  1  0
  3  4  1  0
  4  5  2  0
  5  6  1  0
  6  7  2  0
  7  8  1  0
  8  9  2  0
  9 10  1  0
 10 11  1  0
 11 12  2  0
 12 13  1  0
 13 14  2  0
 14 15  1  0
 15 16  1  0
 16 17  1  0
 17 18  1  0
 18 19  2  0
 19 20  1  0
 20 21  2  0
 21 22  1  0
 22 23  2  0
 15 24  2  0
  7 25  1  0
 25 26  2  0
  2 27  1  0
 27 28  1  0
 28 29  2  0
 29 30  1  0
 30 31  2  0
 31 32  1  0
 32 33  1  0
 33 34  1  0
 33 35  1  0
 33 36  1  0
 32 37  2  0
 26  4  1  0
 37 28  1  0
 24  8  1  0
 14 10  1  0
 23 18  1  0
  3 38  1  0
  5 39  1  0
  6 40  1  0
  9 41  1  0
 11 42  1  0
 12 43  1  0
 16 44  1  0
 17 45  1  0
 17 46  1  0
 19 47  1  0
 20 48  1  0
 22 49  1  0
 23 50  1  0
 25 51  1  0
 26 52  1  0
 27 53  1  0
 29 54  1  0
 30 55  1  0
 31 56  1  0
 37 57  1  0
M  END
$$$$
