
     RDKit          3D

 64 68  0  0  0  0  0  0  0  0999 V2000
    0.6440    0.0432    1.8417 O   0  0  0  0  0  0  0  0  0  0  0  0
    1.3509    0.6495    2.6400 C   0  0  0  0  0  0  0  0  0  0  0  0
    1.7396    1.9728    2.5156 N   0  0  0  0  0  0  0  0  0  0  0  0
    1.4453    2.8639    1.4573 C   0  0  0  0  0  0  0  0  0  0  0  0
    1.9659    4.1595    1.5447 C   0  0  0  0  0  0  0  0  0  0  0  0
    1.7358    5.0895    0.5278 C   0  0  0  0  0  0  0  0  0  0  0  0
    0.9767    4.7361   -0.5885 C   0  0  0  0  0  0  0  0  0  0  0  0
    0.4308    3.4514   -0.6932 C   0  0  0  0  0  0  0  0  0  0  0  0
   -0.3767    3.0282   -1.8629 C   0  0  0  0  0  0  0  0  0  0  0  0
   -1.3513    3.8341   -2.3345 C   0  0  0  0  0  0  0  0  0  0  0  0
   -2.1207    3.3799   -3.3845 N   0  0  0  0  0  0  0  0  0  0  0  0
   -3.1682    3.9295   -4.0704 C   0  0  0  0  0  0  0  0  0  0  0  0
   -3.5322    2.9729   -4.9966 C   0  0  0  0  0  0  0  0  0  0  0  0
   -2.7419    1.8508   -4.8941 N   0  0  0  0  0  0  0  0  0  0  0  0
   -1.9028    2.1426   -3.9220 C   0  0  0  0  0  0  0  0  0  0  0  0
   -0.8372    1.3138   -3.3906 C   0  0  0  0  0  0  0  0  0  0  0  0
   -0.5989    0.0657   -3.9283 N   0  0  0  0  0  0  0  0  0  0  0  0
    0.5457   -0.7629   -3.6382 C   0  0  0  0  0  0  0  0  0  0  0  0
    0.2593   -1.8048   -2.5421 C   0  0  0  0  0  0  0  0  0  0  0  0
   -0.8702   -2.7748   -2.9260 C   0  0  0  0  0  0  0  0  0  0  0  0
   -1.1070   -3.8094   -1.8334 C   0  0  0  0  0  0  0  0  0  0  0  0
   -1.3770   -3.1180   -0.5446 N   0  0  0  0  0  0  0  0  0  0  0  0
   -0.2882   -2.1994   -0.1003 C   0  0  0  0  0  0  0  0  0  0  0  0
   -0.0310   -1.1633   -1.1777 C   0  0  0  0  0  0  0  0  0  0  0  0
   -0.1163    1.7655   -2.3904 N   0  0  0  0  0  0  0  0  0  0  0  0
    0.6801    2.5264    0.3379 C   0  0  0  0  0  0  0  0  0  0  0  0
    1.8897    0.0749    3.7834 N   0  0  0  0  0  0  0  0  0  0  0  0
    1.6311   -1.2220    4.2794 C   0  0  0  0  0  0  0  0  0  0  0  0
    2.4570   -1.7121    5.2946 C   0  0  0  0  0  0  0  0  0  0  0  0
    2.2704   -3.0016    5.8014 C   0  0  0  0  0  0  0  0  0  0  0  0
    1.2563   -3.8161    5.2969 C   0  0  0  0  0  0  0  0  0  0  0  0
    0.4098   -3.3408    4.2889 C   0  0  0  0  0  0  0  0  0  0  0  0
   -0.7009   -4.1888    3.7273 C   0  0  0  0  0  0  0  0  0  0  0  0
   -0.5077   -5.5257    3.8859 F   0  0  0  0  0  0  0  0  0  0  0  0
   -1.9136   -3.9077    4.2728 F   0  0  0  0  0  0  0  0  0  0  0  0
   -0.8659   -4.0100    2.3730 F   0  0  0  0  0  0  0  0  0  0  0  0
    0.5934   -2.0316    3.8114 C   0  0  0  0  0  0  0  0  0  0  0  0
    2.2815    2.3617    3.2728 H   0  0  0  0  0  0  0  0  0  0  0  0
    2.5664    4.4662    2.3975 H   0  0  0  0  0  0  0  0  0  0  0  0
    2.1569    6.0898    0.6013 H   0  0  0  0  0  0  0  0  0  0  0  0
    0.8307    5.4694   -1.3783 H   0  0  0  0  0  0  0  0  0  0  0  0
   -1.5906    4.8091   -1.9304 H   0  0  0  0  0  0  0  0  0  0  0  0
   -3.5538    4.9156   -3.8546 H   0  0  0  0  0  0  0  0  0  0  0  0
   -4.3254    3.0354   -5.7319 H   0  0  0  0  0  0  0  0  0  0  0  0
   -1.1583   -0.1573   -4.7493 H   0  0  0  0  0  0  0  0  0  0  0  0
    0.8284   -1.2886   -4.5582 H   0  0  0  0  0  0  0  0  0  0  0  0
    1.4128   -0.1512   -3.3617 H   0  0  0  0  0  0  0  0  0  0  0  0
    1.1777   -2.3997   -2.4334 H   0  0  0  0  0  0  0  0  0  0  0  0
   -1.8013   -2.2225   -3.1048 H   0  0  0  0  0  0  0  0  0  0  0  0
   -0.6196   -3.2886   -3.8614 H   0  0  0  0  0  0  0  0  0  0  0  0
   -1.9806   -4.4302   -2.0531 H   0  0  0  0  0  0  0  0  0  0  0  0
   -0.2353   -4.4547   -1.6825 H   0  0  0  0  0  0  0  0  0  0  0  0
   -2.2516   -2.5797   -0.6121 H   0  0  0  0  0  0  0  0  0  0  0  0
   -1.5310   -3.8082    0.2057 H   0  0  0  0  0  0  0  0  0  0  0  0
    0.5943   -2.8120    0.1095 H   0  0  0  0  0  0  0  0  0  0  0  0
   -0.6471   -1.7416    0.8214 H   0  0  0  0  0  0  0  0  0  0  0  0
   -0.9132   -0.5165   -1.2408 H   0  0  0  0  0  0  0  0  0  0  0  0
    0.8169   -0.5375   -0.8794 H   0  0  0  0  0  0  0  0  0  0  0  0
    0.2492    1.5382    0.2357 H   0  0  0  0  0  0  0  0  0  0  0  0
    2.6131    0.5955    4.2577 H   0  0  0  0  0  0  0  0  0  0  0  0
    3.2656   -1.1082    5.6998 H   0  0  0  0  0  0  0  0  0  0  0  0
    2.9231   -3.3731    6.5894 H   0  0  0  0  0  0  0  0  0  0  0  0
    1.1291   -4.8205    5.7000 H   0  0  0  0  0  0  0  0  0  0  0  0
   -0.1120   -1.6545    3.0793 H   0  0  0  0  0  0  0  0  0  0  0  0
  1  2  2  0
  2  3  1  0
  3  4  1  0
  4  5  2  0
  5  6  1  0
  6  7  2  0
  7  8  1  0
  8  9  1  0
  9 10  2  0
 10 11  1  0
 11 12  1  0
 12 13  2  0
 13 14  1  0
 14 15  2  0
 15 16  1  0
 16 17  1  0
 17 18  1  0
 18 19  1  0
 19 20  1  0
 20 21  1  0
 21 22  1  0
 22 23  1  0
 23 24  1  0
 16 25  2  0
  8 26  2  0
  2 27  1  0
 27 28  1  0
 28 29  2  0
 29 30  1  0
 30 31  2  0
 31 32  1  0
 32 33  1  0
 33 34  1  0
 33 35  1  0
 33 36  1  0
 32 37  2  0
 26  4  1  0
 37 28  1  0
 25  9  1  0
 15 11  1  0
 24 19  1  0
  3 38  1  0
  5 39  1  0
  6 40  1  0
  7 41  1  0
 10 42  1  0
 12 43  1  0
 13 44  1  0
 17 45  1  0
 18 46  1  0
 18 47  1  0
 19 48  1  0
 20 49  1  0
 20 50  1  0
 21 51  1  0
 21 52  1  0
 22 53  1  0
 22 54  1  0
 23 55  1  0
 23 56  1  0
 24 57  1  0
 24 58  1  0
 26 59  1  0
 27 60  1  0
 29 61  1  0
 30 62  1  0
 31 63  1  0
 37 64  1  0
M  CHG  1  22   1
M  END
$$$$
