
     RDKit          3D

 66 70  0  0  0  0  0  0  0  0999 V2000
    4.0003   -1.7551   -0.3336 O   0  0  0  0  0  0  0  0  0  0  0  0
    5.0434   -1.4585    0.2381 C   0  0  0  0  0  0  0  0  0  0  0  0
    5.2654   -0.3515    1.0381 N   0  0  0  0  0  0  0  0  0  0  0  0
    4.3609    0.6948    1.3218 C   0  0  0  0  0  0  0  0  0  0  0  0
    4.8088    1.7217    2.1595 C   0  0  0  0  0  0  0  0  0  0  0  0
    3.9721    2.7919    2.4813 C   0  0  0  0  0  0  0  0  0  0  0  0
    2.6771    2.8476    1.9668 C   0  0  0  0  0  0  0  0  0  0  0  0
    2.2061    1.8325    1.1268 C   0  0  0  0  0  0  0  0  0  0  0  0
    0.8356    1.8759    0.5736 C   0  0  0  0  0  0  0  0  0  0  0  0
    0.6699    1.7670   -0.7582 C   0  0  0  0  0  0  0  0  0  0  0  0
   -0.7287    1.7855   -1.2516 C   0  0  0  0  0  0  0  0  0  0  0  0
   -1.8070    1.8948   -0.5322 N   0  0  0  0  0  0  0  0  0  0  0  0
   -1.5922    2.0454    0.8188 C   0  0  0  0  0  0  0  0  0  0  0  0
   -2.4587    2.2453    1.8724 C   0  0  0  0  0  0  0  0  0  0  0  0
   -3.8704    2.3460    1.7628 C   0  0  0  0  0  0  0  0  0  0  0  0
   -5.0487    2.3952    1.5421 C   0  0  0  0  0  0  0  0  0  0  0  0
   -6.4421    2.4088    1.0940 C   0  0  0  0  0  0  0  0  0  0  0  0
   -6.9242    1.0226    0.6598 C   0  0  0  0  0  0  0  0  0  0  0  0
   -5.9434    0.1495   -0.1323 C   0  0  0  0  0  0  0  0  0  0  0  0
   -5.2701    0.8554   -1.2829 N   0  0  0  0  0  0  0  0  0  0  0  0
   -6.1841    1.3711   -2.3828 C   0  0  0  0  0  0  0  0  0  0  0  0
   -6.6686    0.2196   -3.2710 C   0  0  0  0  0  0  0  0  0  0  0  0
   -5.5638   -0.4989   -3.8315 O   0  0  0  0  0  0  0  0  0  0  0  0
   -4.7275   -1.0690   -2.8177 C   0  0  0  0  0  0  0  0  0  0  0  0
   -4.1489    0.0183   -1.9054 C   0  0  0  0  0  0  0  0  0  0  0  0
   -1.6597    2.3176    3.0171 C   0  0  0  0  0  0  0  0  0  0  0  0
   -0.3644    2.1773    2.7425 N   0  0  0  0  0  0  0  0  0  0  0  0
   -0.3015    2.0312    1.3889 N   0  0  0  0  0  0  0  0  0  0  0  0
    3.0601    0.7582    0.8154 C   0  0  0  0  0  0  0  0  0  0  0  0
    6.2049   -2.3825    0.1007 C   0  0  0  0  0  0  0  0  0  0  0  0
    7.5210   -1.9108    0.0260 C   0  0  0  0  0  0  0  0  0  0  0  0
    8.5770   -2.8130   -0.1142 C   0  0  0  0  0  0  0  0  0  0  0  0
    8.3238   -4.1843   -0.1878 C   0  0  0  0  0  0  0  0  0  0  0  0
    7.0100   -4.6732   -0.1247 C   0  0  0  0  0  0  0  0  0  0  0  0
    6.7273   -6.1517   -0.2408 C   0  0  0  0  0  0  0  0  0  0  0  0
    6.4294   -6.5216   -1.5158 F   0  0  0  0  0  0  0  0  0  0  0  0
    7.7770   -6.9297    0.1424 F   0  0  0  0  0  0  0  0  0  0  0  0
    5.6717   -6.5490    0.5228 F   0  0  0  0  0  0  0  0  0  0  0  0
    5.9529   -3.7583    0.0085 C   0  0  0  0  0  0  0  0  0  0  0  0
    6.1616   -0.2901    1.5045 H   0  0  0  0  0  0  0  0  0  0  0  0
    5.8123    1.7055    2.5774 H   0  0  0  0  0  0  0  0  0  0  0  0
    4.3278    3.5815    3.1391 H   0  0  0  0  0  0  0  0  0  0  0  0
    2.0395    3.6870    2.2378 H   0  0  0  0  0  0  0  0  0  0  0  0
    1.4739    1.6559   -1.4748 H   0  0  0  0  0  0  0  0  0  0  0  0
   -0.8331    1.6808   -2.3449 H   0  0  0  0  0  0  0  0  0  0  0  0
   -6.5382    3.1046    0.2521 H   0  0  0  0  0  0  0  0  0  0  0  0
   -7.0953    2.7899    1.8869 H   0  0  0  0  0  0  0  0  0  0  0  0
   -7.8568    1.1383    0.0939 H   0  0  0  0  0  0  0  0  0  0  0  0
   -7.1999    0.4568    1.5601 H   0  0  0  0  0  0  0  0  0  0  0  0
   -5.1454   -0.2072    0.5287 H   0  0  0  0  0  0  0  0  0  0  0  0
   -6.4625   -0.7284   -0.5295 H   0  0  0  0  0  0  0  0  0  0  0  0
   -4.7678    1.6667   -0.8898 H   0  0  0  0  0  0  0  0  0  0  0  0
   -7.0114    1.9172   -1.9239 H   0  0  0  0  0  0  0  0  0  0  0  0
   -5.5763    2.0730   -2.9647 H   0  0  0  0  0  0  0  0  0  0  0  0
   -7.3125   -0.4752   -2.7206 H   0  0  0  0  0  0  0  0  0  0  0  0
   -7.2550    0.6220   -4.1030 H   0  0  0  0  0  0  0  0  0  0  0  0
   -3.9108   -1.5949   -3.3222 H   0  0  0  0  0  0  0  0  0  0  0  0
   -5.2985   -1.8140   -2.2530 H   0  0  0  0  0  0  0  0  0  0  0  0
   -3.5418   -0.3967   -1.0956 H   0  0  0  0  0  0  0  0  0  0  0  0
   -3.5471    0.7224   -2.4899 H   0  0  0  0  0  0  0  0  0  0  0  0
   -1.9612    2.4649    4.0469 H   0  0  0  0  0  0  0  0  0  0  0  0
    2.6812   -0.0361    0.1807 H   0  0  0  0  0  0  0  0  0  0  0  0
    7.7413   -0.8468    0.0406 H   0  0  0  0  0  0  0  0  0  0  0  0
    9.6004   -2.4482   -0.1801 H   0  0  0  0  0  0  0  0  0  0  0  0
    9.1596   -4.8745   -0.3044 H   0  0  0  0  0  0  0  0  0  0  0  0
    4.9248   -4.1203    0.0435 H   0  0  0  0  0  0  0  0  0  0  0  0
  1  2  2  0
  2  3  1  0
  3  4  1  0
  4  5  2  0
  5  6  1  0
  6  7  2  0
  7  8  1  0
  8  9  1  0
  9 10  2  0
 10 11  1  0
 11 12  2  0
 12 13  1  0
 13 14  2  0
 14 15  1  0
 15 16  3  0
 16 17  1  0
 17 18  1  0
 18 19  1  0
 19 20  1  0
 20 21  1  0
 21 22  1  0
 22 23  1  0
 23 24  1  0
 24 25  1  0
 14 26  1  0
 26 27  2  0
 27 28  1  0
  8 29  2  0
  2 30  1  0
 30 31  2  0
 31 32  1  0
 32 33  2  0
 33 34  1  0
 34 35  1  0
 35 36  1  0
 35 37  1  0
 35 38  1  0
 34 39  2  0
 29  4  1  0
 39 30  1  0
 28  9  1  0
 28 13  1  0
 25 20  1  0
  3 40  1  0
  5 41  1  0
  6 42  1  0
  7 43  1  0
 10 44  1  0
 11 45  1  0
 17 46  1  0
 17 47  1  0
 18 48  1  0
 18 49  1  0
 19 50  1  0
 19 51  1  0
 20 52  1  0
 21 53  1  0
 21 54  1  0
 22 55  1  0
 22 56  1  0
 24 57  1  0
 24 58  1  0
 25 59  1  0
 25 60  1  0
 26 61  1  0
 29 62  1  0
 31 63  1  0
 32 64  1  0
 33 65  1  0
 39 66  1  0
M  CHG  1  20   1
M  END
$$$$
