
     RDKit          3D

 73 78  0  0  0  0  0  0  0  0999 V2000
   -7.6120    3.6864    0.8627 C   0  0  0  0  0  0  0  0  0  0  0  0
   -8.4260    2.5317    0.3097 C   0  0  0  0  0  0  0  0  0  0  0  0
   -7.5124    1.3957   -0.1518 N   0  0  0  0  0  0  0  0  0  0  0  0
   -6.7248    1.7427   -1.4177 C   0  0  0  0  0  0  0  0  0  0  0  0
   -5.8137    0.5689   -1.8565 C   0  0  0  0  0  0  0  0  0  0  0  0
   -6.6072   -0.7263   -2.0059 N   0  0  0  0  0  0  0  0  0  0  0  0
   -5.7321   -1.8954   -2.4964 C   0  0  0  0  0  0  0  0  0  0  0  0
   -4.4769   -2.1138   -1.7374 C   0  0  0  0  0  0  0  0  0  0  0  0
   -3.1543   -2.2478   -2.1126 C   0  0  0  0  0  0  0  0  0  0  0  0
   -2.4128   -2.3818   -0.9111 C   0  0  0  0  0  0  0  0  0  0  0  0
   -0.9682   -2.5061   -0.7953 C   0  0  0  0  0  0  0  0  0  0  0  0
   -0.0629   -2.7446   -1.8389 C   0  0  0  0  0  0  0  0  0  0  0  0
    1.2015   -2.7800   -1.4268 N   0  0  0  0  0  0  0  0  0  0  0  0
    1.1420   -2.5673   -0.0814 N   0  0  0  0  0  0  0  0  0  0  0  0
    2.1990   -2.4866    0.8435 C   0  0  0  0  0  0  0  0  0  0  0  0
    3.6114   -2.6176    0.4357 C   0  0  0  0  0  0  0  0  0  0  0  0
    4.0712   -3.7782   -0.1955 C   0  0  0  0  0  0  0  0  0  0  0  0
    5.4104   -3.8907   -0.5673 C   0  0  0  0  0  0  0  0  0  0  0  0
    6.2988   -2.8437   -0.3133 C   0  0  0  0  0  0  0  0  0  0  0  0
    5.8591   -1.6710    0.3107 C   0  0  0  0  0  0  0  0  0  0  0  0
    6.8156   -0.6565    0.5321 N   0  0  0  0  0  0  0  0  0  0  0  0
    6.6001    0.5911    1.0904 C   0  0  0  0  0  0  0  0  0  0  0  0
    5.5232    1.0652    1.4345 O   0  0  0  0  0  0  0  0  0  0  0  0
    7.8184    1.4370    1.2388 C   0  0  0  0  0  0  0  0  0  0  0  0
    9.0616    0.8915    1.5807 C   0  0  0  0  0  0  0  0  0  0  0  0
   10.1731    1.7247    1.7191 C   0  0  0  0  0  0  0  0  0  0  0  0
   10.0472    3.1019    1.5246 C   0  0  0  0  0  0  0  0  0  0  0  0
    8.8066    3.6662    1.1914 C   0  0  0  0  0  0  0  0  0  0  0  0
    8.6545    5.1577    1.0144 C   0  0  0  0  0  0  0  0  0  0  0  0
    9.8186    5.7814    0.6845 F   0  0  0  0  0  0  0  0  0  0  0  0
    7.7673    5.4832    0.0329 F   0  0  0  0  0  0  0  0  0  0  0  0
    8.2049    5.7688    2.1438 F   0  0  0  0  0  0  0  0  0  0  0  0
    7.6918    2.8218    1.0621 C   0  0  0  0  0  0  0  0  0  0  0  0
    4.5159   -1.5688    0.6816 C   0  0  0  0  0  0  0  0  0  0  0  0
    1.9161   -2.2745    2.1426 C   0  0  0  0  0  0  0  0  0  0  0  0
    0.4797   -2.1247    2.4832 C   0  0  0  0  0  0  0  0  0  0  0  0
   -0.5198   -2.1752    1.6541 N   0  0  0  0  0  0  0  0  0  0  0  0
   -0.1921   -2.4040    0.3416 C   0  0  0  0  0  0  0  0  0  0  0  0
   -3.3309   -2.3496    0.1130 C   0  0  0  0  0  0  0  0  0  0  0  0
   -4.5852   -2.1784   -0.3792 O   0  0  0  0  0  0  0  0  0  0  0  0
   -7.3978   -1.0765   -0.7472 C   0  0  0  0  0  0  0  0  0  0  0  0
   -8.3104    0.0978   -0.3160 C   0  0  0  0  0  0  0  0  0  0  0  0
   -7.0283    4.1838    0.0833 H   0  0  0  0  0  0  0  0  0  0  0  0
   -8.2803    4.4369    1.2974 H   0  0  0  0  0  0  0  0  0  0  0  0
   -6.9266    3.3510    1.6477 H   0  0  0  0  0  0  0  0  0  0  0  0
   -9.0655    2.1235    1.0993 H   0  0  0  0  0  0  0  0  0  0  0  0
   -9.0449    2.8301   -0.5424 H   0  0  0  0  0  0  0  0  0  0  0  0
   -6.8407    1.2537    0.6213 H   0  0  0  0  0  0  0  0  0  0  0  0
   -7.4581    1.9798   -2.1960 H   0  0  0  0  0  0  0  0  0  0  0  0
   -6.1134    2.6220   -1.2005 H   0  0  0  0  0  0  0  0  0  0  0  0
   -5.0398    0.4048   -1.1005 H   0  0  0  0  0  0  0  0  0  0  0  0
   -5.3519    0.7804   -2.8260 H   0  0  0  0  0  0  0  0  0  0  0  0
   -7.2845   -0.6024   -2.7717 H   0  0  0  0  0  0  0  0  0  0  0  0
   -5.5056   -1.6650   -3.5436 H   0  0  0  0  0  0  0  0  0  0  0  0
   -6.3639   -2.7897   -2.4793 H   0  0  0  0  0  0  0  0  0  0  0  0
   -2.7680   -2.2339   -3.1243 H   0  0  0  0  0  0  0  0  0  0  0  0
   -0.2560   -2.8957   -2.8929 H   0  0  0  0  0  0  0  0  0  0  0  0
    3.3929   -4.6017   -0.4081 H   0  0  0  0  0  0  0  0  0  0  0  0
    5.7626   -4.7944   -1.0594 H   0  0  0  0  0  0  0  0  0  0  0  0
    7.3364   -2.9601   -0.6167 H   0  0  0  0  0  0  0  0  0  0  0  0
    7.7517   -0.8606    0.2053 H   0  0  0  0  0  0  0  0  0  0  0  0
    9.1778   -0.1712    1.7764 H   0  0  0  0  0  0  0  0  0  0  0  0
   11.1390    1.3040    1.9928 H   0  0  0  0  0  0  0  0  0  0  0  0
   10.9242    3.7386    1.6438 H   0  0  0  0  0  0  0  0  0  0  0  0
    6.7171    3.2461    0.8191 H   0  0  0  0  0  0  0  0  0  0  0  0
    4.1447   -0.6686    1.1609 H   0  0  0  0  0  0  0  0  0  0  0  0
    2.6514   -2.1990    2.9332 H   0  0  0  0  0  0  0  0  0  0  0  0
    0.2720   -1.9486    3.5523 H   0  0  0  0  0  0  0  0  0  0  0  0
   -3.2437   -2.4264    1.1901 H   0  0  0  0  0  0  0  0  0  0  0  0
   -6.6909   -1.2966    0.0546 H   0  0  0  0  0  0  0  0  0  0  0  0
   -7.9958   -1.9644   -0.9740 H   0  0  0  0  0  0  0  0  0  0  0  0
   -9.0823    0.2913   -1.0689 H   0  0  0  0  0  0  0  0  0  0  0  0
   -8.7783   -0.1206    0.6492 H   0  0  0  0  0  0  0  0  0  0  0  0
  1  2  1  0
  2  3  1  0
  3  4  1  0
  4  5  1  0
  5  6  1  0
  6  7  1  0
  7  8  1  0
  8  9  2  0
  9 10  1  0
 10 11  1  0
 11 12  1  0
 12 13  2  0
 13 14  1  0
 14 15  1  0
 15 16  1  0
 16 17  2  0
 17 18  1  0
 18 19  2  0
 19 20  1  0
 20 21  1  0
 21 22  1  0
 22 23  2  0
 22 24  1  0
 24 25  2  0
 25 26  1  0
 26 27  2  0
 27 28  1  0
 28 29  1  0
 29 30  1  0
 29 31  1  0
 29 32  1  0
 28 33  2  0
 20 34  2  0
 15 35  2  0
 35 36  1  0
 36 37  2  0
 37 38  1  0
 10 39  2  0
 39 40  1  0
  6 41  1  0
 41 42  1  0
 42  3  1  0
 40  8  1  0
 38 11  2  0
 38 14  1  0
 34 16  1  0
 33 24  1  0
  1 43  1  0
  1 44  1  0
  1 45  1  0
  2 46  1  0
  2 47  1  0
  3 48  1  0
  4 49  1  0
  4 50  1  0
  5 51  1  0
  5 52  1  0
  6 53  1  0
  7 54  1  0
  7 55  1  0
  9 56  1  0
 12 57  1  0
 17 58  1  0
 18 59  1  0
 19 60  1  0
 21 61  1  0
 25 62  1  0
 26 63  1  0
 27 64  1  0
 33 65  1  0
 34 66  1  0
 35 67  1  0
 36 68  1  0
 39 69  1  0
 41 70  1  0
 41 71  1  0
 42 72  1  0
 42 73  1  0
M  CHG  2   3   1   6   1
M  END
$$$$
