
     RDKit          3D

 77 82  0  0  0  0  0  0  0  0999 V2000
   -8.5107   -3.9293   -1.9779 C   0  0  0  0  0  0  0  0  0  0  0  0
   -7.8288   -2.8593   -1.1847 N   0  0  0  0  0  0  0  0  0  0  0  0
   -8.6299   -2.4568    0.0494 C   0  0  0  0  0  0  0  0  0  0  0  0
   -7.8597   -1.4158    0.8857 C   0  0  0  0  0  0  0  0  0  0  0  0
   -7.4273   -0.2777    0.0540 N   0  0  0  0  0  0  0  0  0  0  0  0
   -7.0822    0.8921    0.7400 C   0  0  0  0  0  0  0  0  0  0  0  0
   -7.9946    1.4938    1.6189 C   0  0  0  0  0  0  0  0  0  0  0  0
   -7.6721    2.6552    2.3240 C   0  0  0  0  0  0  0  0  0  0  0  0
   -6.4211    3.2455    2.1624 C   0  0  0  0  0  0  0  0  0  0  0  0
   -5.4839    2.6845    1.2892 C   0  0  0  0  0  0  0  0  0  0  0  0
   -4.1809    3.3151    1.1194 C   0  0  0  0  0  0  0  0  0  0  0  0
   -3.8282    4.6782    1.2196 C   0  0  0  0  0  0  0  0  0  0  0  0
   -2.5307    4.9059    1.0319 N   0  0  0  0  0  0  0  0  0  0  0  0
   -1.9987    3.6672    0.8170 N   0  0  0  0  0  0  0  0  0  0  0  0
   -0.6260    3.3645    0.6001 C   0  0  0  0  0  0  0  0  0  0  0  0
    0.2507    4.4315    0.6248 N   0  0  0  0  0  0  0  0  0  0  0  0
   -0.2792    2.0719    0.4095 C   0  0  0  0  0  0  0  0  0  0  0  0
    1.0927    1.5987    0.1766 C   0  0  0  0  0  0  0  0  0  0  0  0
    1.8188    2.0160   -0.9444 C   0  0  0  0  0  0  0  0  0  0  0  0
    3.1187    1.5459   -1.1632 C   0  0  0  0  0  0  0  0  0  0  0  0
    3.7131    0.6438   -0.2727 C   0  0  0  0  0  0  0  0  0  0  0  0
    5.0244    0.2169   -0.5653 N   0  0  0  0  0  0  0  0  0  0  0  0
    5.7895   -0.7016    0.1385 C   0  0  0  0  0  0  0  0  0  0  0  0
    5.4388   -1.3291    1.1306 O   0  0  0  0  0  0  0  0  0  0  0  0
    7.1709   -0.8625   -0.4814 C   0  0  0  0  0  0  0  0  0  0  0  0
    8.0332   -1.8794    0.2654 C   0  0  0  0  0  0  0  0  0  0  0  0
    9.3933   -2.0959   -0.3993 C   0  0  0  0  0  0  0  0  0  0  0  0
   10.2999   -0.8657   -0.3962 C   0  0  0  0  0  0  0  0  0  0  0  0
   11.7110   -1.4190   -0.5855 C   0  0  0  0  0  0  0  0  0  0  0  0
   11.6426   -2.9035   -0.2290 C   0  0  0  0  0  0  0  0  0  0  0  0
   10.2464   -3.1279    0.3353 C   0  0  0  0  0  0  0  0  0  0  0  0
    2.9874    0.2280    0.8441 C   0  0  0  0  0  0  0  0  0  0  0  0
    1.6885    0.7014    1.0684 C   0  0  0  0  0  0  0  0  0  0  0  0
   -1.4114    1.0927    0.4532 C   0  0  0  0  0  0  0  0  0  0  0  0
   -2.6699    1.3492    0.6464 N   0  0  0  0  0  0  0  0  0  0  0  0
   -2.9847    2.6688    0.8447 C   0  0  0  0  0  0  0  0  0  0  0  0
   -5.8343    1.5204    0.5829 C   0  0  0  0  0  0  0  0  0  0  0  0
   -6.7269   -0.5937   -1.2012 C   0  0  0  0  0  0  0  0  0  0  0  0
   -7.5125   -1.6284   -2.0292 C   0  0  0  0  0  0  0  0  0  0  0  0
   -9.4675   -3.5433   -2.3394 H   0  0  0  0  0  0  0  0  0  0  0  0
   -8.6589   -4.7930   -1.3247 H   0  0  0  0  0  0  0  0  0  0  0  0
   -7.8582   -4.2009   -2.8118 H   0  0  0  0  0  0  0  0  0  0  0  0
   -6.9312   -3.2345   -0.8516 H   0  0  0  0  0  0  0  0  0  0  0  0
   -9.5849   -2.0530   -0.3052 H   0  0  0  0  0  0  0  0  0  0  0  0
   -8.8066   -3.3657    0.6334 H   0  0  0  0  0  0  0  0  0  0  0  0
   -6.9745   -1.8876    1.3311 H   0  0  0  0  0  0  0  0  0  0  0  0
   -8.5124   -1.1076    1.7094 H   0  0  0  0  0  0  0  0  0  0  0  0
   -8.9913    1.0813    1.7499 H   0  0  0  0  0  0  0  0  0  0  0  0
   -8.3987    3.1022    2.9985 H   0  0  0  0  0  0  0  0  0  0  0  0
   -6.1896    4.1409    2.7349 H   0  0  0  0  0  0  0  0  0  0  0  0
   -4.4737    5.5241    1.4209 H   0  0  0  0  0  0  0  0  0  0  0  0
    1.2528    4.2933    0.6076 H   0  0  0  0  0  0  0  0  0  0  0  0
   -0.1406    5.3491    0.8372 H   0  0  0  0  0  0  0  0  0  0  0  0
    1.3807    2.7119   -1.6579 H   0  0  0  0  0  0  0  0  0  0  0  0
    3.6543    1.8944   -2.0429 H   0  0  0  0  0  0  0  0  0  0  0  0
    5.4529    0.6234   -1.3877 H   0  0  0  0  0  0  0  0  0  0  0  0
    7.0426   -1.1768   -1.5241 H   0  0  0  0  0  0  0  0  0  0  0  0
    7.6557    0.1206   -0.4806 H   0  0  0  0  0  0  0  0  0  0  0  0
    7.5038   -2.8397    0.3129 H   0  0  0  0  0  0  0  0  0  0  0  0
    8.1682   -1.5513    1.3042 H   0  0  0  0  0  0  0  0  0  0  0  0
    9.2434   -2.4301   -1.4350 H   0  0  0  0  0  0  0  0  0  0  0  0
   10.2380   -0.3393    0.5642 H   0  0  0  0  0  0  0  0  0  0  0  0
   10.0380   -0.1527   -1.1842 H   0  0  0  0  0  0  0  0  0  0  0  0
   12.4254   -0.8858    0.0505 H   0  0  0  0  0  0  0  0  0  0  0  0
   12.0419   -1.2962   -1.6229 H   0  0  0  0  0  0  0  0  0  0  0  0
   12.4212   -3.1922    0.4838 H   0  0  0  0  0  0  0  0  0  0  0  0
   11.7836   -3.5063   -1.1339 H   0  0  0  0  0  0  0  0  0  0  0  0
   10.2459   -2.9393    1.4160 H   0  0  0  0  0  0  0  0  0  0  0  0
    9.8975   -4.1519    0.1700 H   0  0  0  0  0  0  0  0  0  0  0  0
    3.4059   -0.4601    1.5726 H   0  0  0  0  0  0  0  0  0  0  0  0
    1.1599    0.3649    1.9584 H   0  0  0  0  0  0  0  0  0  0  0  0
   -1.1247    0.0392    0.2912 H   0  0  0  0  0  0  0  0  0  0  0  0
   -5.0957    1.0937   -0.0885 H   0  0  0  0  0  0  0  0  0  0  0  0
   -5.7293   -0.9929   -0.9790 H   0  0  0  0  0  0  0  0  0  0  0  0
   -6.6092    0.3049   -1.8189 H   0  0  0  0  0  0  0  0  0  0  0  0
   -6.9219   -1.9647   -2.8874 H   0  0  0  0  0  0  0  0  0  0  0  0
   -8.4693   -1.2206   -2.3743 H   0  0  0  0  0  0  0  0  0  0  0  0
  1  2  1  0
  2  3  1  0
  3  4  1  0
  4  5  1  0
  5  6  1  0
  6  7  2  0
  7  8  1  0
  8  9  2  0
  9 10  1  0
 10 11  1  0
 11 12  1  0
 12 13  2  0
 13 14  1  0
 14 15  1  0
 15 16  1  0
 15 17  2  0
 17 18  1  0
 18 19  2  0
 19 20  1  0
 20 21  2  0
 21 22  1  0
 22 23  1  0
 23 24  2  0
 23 25  1  0
 25 26  1  0
 26 27  1  0
 27 28  1  0
 28 29  1  0
 29 30  1  0
 30 31  1  0
 21 32  1  0
 32 33  2  0
 17 34  1  0
 34 35  2  0
 35 36  1  0
 10 37  2  0
  5 38  1  0
 38 39  1  0
 39  2  1  0
 37  6  1  0
 36 11  2  0
 36 14  1  0
 33 18  1  0
 31 27  1  0
  1 40  1  0
  1 41  1  0
  1 42  1  0
  2 43  1  0
  3 44  1  0
  3 45  1  0
  4 46  1  0
  4 47  1  0
  7 48  1  0
  8 49  1  0
  9 50  1  0
 12 51  1  0
 16 52  1  0
 16 53  1  0
 19 54  1  0
 20 55  1  0
 22 56  1  0
 25 57  1  0
 25 58  1  0
 26 59  1  0
 26 60  1  0
 27 61  1  0
 28 62  1  0
 28 63  1  0
 29 64  1  0
 29 65  1  0
 30 66  1  0
 30 67  1  0
 31 68  1  0
 31 69  1  0
 32 70  1  0
 33 71  1  0
 34 72  1  0
 37 73  1  0
 38 74  1  0
 38 75  1  0
 39 76  1  0
 39 77  1  0
M  CHG  1   2   1
M  END
$$$$
