
     RDKit          3D

 64 69  0  0  0  0  0  0  0  0999 V2000
    5.4079   -0.9012    0.2677 O   0  0  0  0  0  0  0  0  0  0  0  0
    6.1131    0.0683    0.5222 C   0  0  0  0  0  0  0  0  0  0  0  0
    5.7922    1.3994    0.3229 N   0  0  0  0  0  0  0  0  0  0  0  0
    4.5525    1.9224   -0.1036 C   0  0  0  0  0  0  0  0  0  0  0  0
    4.4879    3.2968   -0.3557 C   0  0  0  0  0  0  0  0  0  0  0  0
    3.2965    3.8846   -0.7835 C   0  0  0  0  0  0  0  0  0  0  0  0
    2.1561    3.1025   -0.9641 C   0  0  0  0  0  0  0  0  0  0  0  0
    2.1939    1.7260   -0.7126 C   0  0  0  0  0  0  0  0  0  0  0  0
    0.9923    0.8861   -0.9083 C   0  0  0  0  0  0  0  0  0  0  0  0
    1.0856   -0.2053   -1.6919 C   0  0  0  0  0  0  0  0  0  0  0  0
   -0.1518   -1.0072   -1.8503 C   0  0  0  0  0  0  0  0  0  0  0  0
   -1.3068   -0.7572   -1.3124 N   0  0  0  0  0  0  0  0  0  0  0  0
   -1.3667    0.3598   -0.5177 C   0  0  0  0  0  0  0  0  0  0  0  0
   -2.3955    0.9160    0.2168 C   0  0  0  0  0  0  0  0  0  0  0  0
   -3.7677    0.4547    0.3738 C   0  0  0  0  0  0  0  0  0  0  0  0
   -4.8053    1.0698    1.0378 C   0  0  0  0  0  0  0  0  0  0  0  0
   -5.9370    0.3184    0.9549 O   0  0  0  0  0  0  0  0  0  0  0  0
   -5.6167   -0.8004    0.2381 C   0  0  0  0  0  0  0  0  0  0  0  0
   -6.7112   -1.7758    0.0230 C   0  0  0  0  0  0  0  0  0  0  0  0
   -8.0327   -1.0902   -0.1916 N   0  0  0  0  0  0  0  0  0  0  0  0
   -9.2307   -1.9865   -0.0584 C   0  0  0  0  0  0  0  0  0  0  0  0
  -10.2717   -1.3000   -0.9166 C   0  0  0  0  0  0  0  0  0  0  0  0
   -9.4599   -0.8267   -2.1065 C   0  0  0  0  0  0  0  0  0  0  0  0
   -8.1568   -0.3347   -1.4984 C   0  0  0  0  0  0  0  0  0  0  0  0
   -4.2936   -0.7565   -0.1433 C   0  0  0  0  0  0  0  0  0  0  0  0
   -1.8436    2.0604    0.8125 C   0  0  0  0  0  0  0  0  0  0  0  0
   -0.5636    2.2427    0.4974 N   0  0  0  0  0  0  0  0  0  0  0  0
   -0.2472    1.1910   -0.3112 N   0  0  0  0  0  0  0  0  0  0  0  0
    3.4002    1.1498   -0.2736 C   0  0  0  0  0  0  0  0  0  0  0  0
    7.4840   -0.1781    1.0538 C   0  0  0  0  0  0  0  0  0  0  0  0
    8.0821    0.6841    1.9809 C   0  0  0  0  0  0  0  0  0  0  0  0
    9.3675    0.4151    2.4538 C   0  0  0  0  0  0  0  0  0  0  0  0
   10.0542   -0.7182    2.0135 C   0  0  0  0  0  0  0  0  0  0  0  0
    9.4587   -1.6077    1.1060 C   0  0  0  0  0  0  0  0  0  0  0  0
   10.1987   -2.8304    0.6195 C   0  0  0  0  0  0  0  0  0  0  0  0
   10.7975   -2.6217   -0.5847 F   0  0  0  0  0  0  0  0  0  0  0  0
    9.3873   -3.9109    0.4539 F   0  0  0  0  0  0  0  0  0  0  0  0
   11.1868   -3.2324    1.4659 F   0  0  0  0  0  0  0  0  0  0  0  0
    8.1683   -1.3252    0.6287 C   0  0  0  0  0  0  0  0  0  0  0  0
    6.5350    2.0761    0.4422 H   0  0  0  0  0  0  0  0  0  0  0  0
    5.3617    3.9306   -0.2273 H   0  0  0  0  0  0  0  0  0  0  0  0
    3.2556    4.9541   -0.9754 H   0  0  0  0  0  0  0  0  0  0  0  0
    1.2369    3.5814   -1.2956 H   0  0  0  0  0  0  0  0  0  0  0  0
    1.9828   -0.5286   -2.2036 H   0  0  0  0  0  0  0  0  0  0  0  0
   -0.0500   -1.8961   -2.4956 H   0  0  0  0  0  0  0  0  0  0  0  0
   -4.8992    1.9954    1.5906 H   0  0  0  0  0  0  0  0  0  0  0  0
   -6.8203   -2.4019    0.9154 H   0  0  0  0  0  0  0  0  0  0  0  0
   -6.5261   -2.4193   -0.8436 H   0  0  0  0  0  0  0  0  0  0  0  0
   -8.0756   -0.3826    0.5574 H   0  0  0  0  0  0  0  0  0  0  0  0
   -9.5035   -2.0546    0.9979 H   0  0  0  0  0  0  0  0  0  0  0  0
   -8.9645   -2.9717   -0.4566 H   0  0  0  0  0  0  0  0  0  0  0  0
  -10.7049   -0.4447   -0.3847 H   0  0  0  0  0  0  0  0  0  0  0  0
  -11.0840   -1.9732   -1.2040 H   0  0  0  0  0  0  0  0  0  0  0  0
   -9.2616   -1.6657   -2.7845 H   0  0  0  0  0  0  0  0  0  0  0  0
   -9.9692   -0.0468   -2.6797 H   0  0  0  0  0  0  0  0  0  0  0  0
   -7.2945   -0.5423   -2.1390 H   0  0  0  0  0  0  0  0  0  0  0  0
   -8.1959    0.7297   -1.2458 H   0  0  0  0  0  0  0  0  0  0  0  0
   -3.7650   -1.5059   -0.7193 H   0  0  0  0  0  0  0  0  0  0  0  0
   -2.3139    2.7804    1.4699 H   0  0  0  0  0  0  0  0  0  0  0  0
    3.4159    0.0872   -0.0512 H   0  0  0  0  0  0  0  0  0  0  0  0
    7.5527    1.5509    2.3678 H   0  0  0  0  0  0  0  0  0  0  0  0
    9.8335    1.0832    3.1756 H   0  0  0  0  0  0  0  0  0  0  0  0
   11.0575   -0.9133    2.3927 H   0  0  0  0  0  0  0  0  0  0  0  0
    7.6921   -2.0042   -0.0795 H   0  0  0  0  0  0  0  0  0  0  0  0
  1  2  2  0
  2  3  1  0
  3  4  1  0
  4  5  2  0
  5  6  1  0
  6  7  2  0
  7  8  1  0
  8  9  1  0
  9 10  2  0
 10 11  1  0
 11 12  2  0
 12 13  1  0
 13 14  2  0
 14 15  1  0
 15 16  2  0
 16 17  1  0
 17 18  1  0
 18 19  1  0
 19 20  1  0
 20 21  1  0
 21 22  1  0
 22 23  1  0
 23 24  1  0
 18 25  2  0
 14 26  1  0
 26 27  2  0
 27 28  1  0
  8 29  2  0
  2 30  1  0
 30 31  2  0
 31 32  1  0
 32 33  2  0
 33 34  1  0
 34 35  1  0
 35 36  1  0
 35 37  1  0
 35 38  1  0
 34 39  2  0
 29  4  1  0
 39 30  1  0
 28  9  1  0
 28 13  1  0
 25 15  1  0
 24 20  1  0
  3 40  1  0
  5 41  1  0
  6 42  1  0
  7 43  1  0
 10 44  1  0
 11 45  1  0
 16 46  1  0
 19 47  1  0
 19 48  1  0
 20 49  1  0
 21 50  1  0
 21 51  1  0
 22 52  1  0
 22 53  1  0
 23 54  1  0
 23 55  1  0
 24 56  1  0
 24 57  1  0
 25 58  1  0
 26 59  1  0
 29 60  1  0
 31 61  1  0
 32 62  1  0
 33 63  1  0
 39 64  1  0
M  CHG  1  20   1
M  END
$$$$
