
     RDKit          3D

 56 60  0  0  0  0  0  0  0  0999 V2000
    3.6360    0.6164   -1.3839 O   0  0  0  0  0  0  0  0  0  0  0  0
    2.5605    0.9839   -0.9307 C   0  0  0  0  0  0  0  0  0  0  0  0
    1.4485    0.1762   -0.7841 N   0  0  0  0  0  0  0  0  0  0  0  0
    1.3234   -1.2046   -1.0186 C   0  0  0  0  0  0  0  0  0  0  0  0
    2.3342   -2.0535   -1.4525 C   0  0  0  0  0  0  0  0  0  0  0  0
    2.0817   -3.4267   -1.5934 C   0  0  0  0  0  0  0  0  0  0  0  0
    0.8221   -3.9630   -1.2924 C   0  0  0  0  0  0  0  0  0  0  0  0
   -0.2031   -3.1223   -0.8609 C   0  0  0  0  0  0  0  0  0  0  0  0
   -1.5623   -3.5630   -0.4733 C   0  0  0  0  0  0  0  0  0  0  0  0
   -2.2534   -4.4590   -1.2089 C   0  0  0  0  0  0  0  0  0  0  0  0
   -3.5951   -4.6496   -0.9175 N   0  0  0  0  0  0  0  0  0  0  0  0
   -4.5490   -5.4529   -1.4796 C   0  0  0  0  0  0  0  0  0  0  0  0
   -5.7109   -5.1641   -0.7945 C   0  0  0  0  0  0  0  0  0  0  0  0
   -5.4985   -4.2046    0.1669 N   0  0  0  0  0  0  0  0  0  0  0  0
   -4.2174   -3.9183    0.0654 C   0  0  0  0  0  0  0  0  0  0  0  0
   -3.4020   -2.9977    0.8071 C   0  0  0  0  0  0  0  0  0  0  0  0
   -4.0812   -2.2610    1.7238 O   0  0  0  0  0  0  0  0  0  0  0  0
   -3.3073   -1.5059    2.6778 C   0  0  0  0  0  0  0  0  0  0  0  0
   -2.4533   -0.3923    2.1076 C   0  0  0  0  0  0  0  0  0  0  0  0
   -1.1618   -0.1823    2.6062 C   0  0  0  0  0  0  0  0  0  0  0  0
   -0.3684    0.8000    2.0314 C   0  0  0  0  0  0  0  0  0  0  0  0
   -0.7584    1.5774    0.9933 N   0  0  0  0  0  0  0  0  0  0  0  0
   -2.0357    1.3997    0.5712 C   0  0  0  0  0  0  0  0  0  0  0  0
   -2.9075    0.4471    1.0882 C   0  0  0  0  0  0  0  0  0  0  0  0
   -2.1291   -2.8691    0.5904 N   0  0  0  0  0  0  0  0  0  0  0  0
    0.0677   -1.7487   -0.7498 C   0  0  0  0  0  0  0  0  0  0  0  0
    2.2693    2.2643   -0.4737 N   0  0  0  0  0  0  0  0  0  0  0  0
    3.1079    3.3957   -0.4697 C   0  0  0  0  0  0  0  0  0  0  0  0
    4.4026    3.4131   -0.9879 C   0  0  0  0  0  0  0  0  0  0  0  0
    5.1672    4.5826   -0.9489 C   0  0  0  0  0  0  0  0  0  0  0  0
    4.6441    5.7468   -0.3892 C   0  0  0  0  0  0  0  0  0  0  0  0
    3.3491    5.7516    0.1440 C   0  0  0  0  0  0  0  0  0  0  0  0
    2.7600    7.0075    0.7335 C   0  0  0  0  0  0  0  0  0  0  0  0
    3.6992    7.8998    1.1552 F   0  0  0  0  0  0  0  0  0  0  0  0
    1.9689    6.7640    1.8162 F   0  0  0  0  0  0  0  0  0  0  0  0
    1.9779    7.6795   -0.1555 F   0  0  0  0  0  0  0  0  0  0  0  0
    2.5875    4.5705    0.0903 C   0  0  0  0  0  0  0  0  0  0  0  0
    0.6129    0.6362   -0.4390 H   0  0  0  0  0  0  0  0  0  0  0  0
    3.3291   -1.6810   -1.6775 H   0  0  0  0  0  0  0  0  0  0  0  0
    2.8833   -4.0831   -1.9251 H   0  0  0  0  0  0  0  0  0  0  0  0
    0.6674   -5.0346   -1.3805 H   0  0  0  0  0  0  0  0  0  0  0  0
   -1.8505   -4.9898   -2.0613 H   0  0  0  0  0  0  0  0  0  0  0  0
   -4.3336   -6.1340   -2.2899 H   0  0  0  0  0  0  0  0  0  0  0  0
   -6.6926   -5.5959   -0.9458 H   0  0  0  0  0  0  0  0  0  0  0  0
   -2.6984   -2.2141    3.2538 H   0  0  0  0  0  0  0  0  0  0  0  0
   -4.0202   -1.0597    3.3804 H   0  0  0  0  0  0  0  0  0  0  0  0
   -0.7611   -0.7935    3.4092 H   0  0  0  0  0  0  0  0  0  0  0  0
    0.6440    0.9707    2.3902 H   0  0  0  0  0  0  0  0  0  0  0  0
   -2.3537    2.0572   -0.2343 H   0  0  0  0  0  0  0  0  0  0  0  0
   -3.9090    0.3448    0.6817 H   0  0  0  0  0  0  0  0  0  0  0  0
   -0.7322   -1.0879   -0.4264 H   0  0  0  0  0  0  0  0  0  0  0  0
    1.3490    2.3890   -0.0686 H   0  0  0  0  0  0  0  0  0  0  0  0
    4.8490    2.5308   -1.4364 H   0  0  0  0  0  0  0  0  0  0  0  0
    6.1739    4.5793   -1.3606 H   0  0  0  0  0  0  0  0  0  0  0  0
    5.2526    6.6497   -0.3703 H   0  0  0  0  0  0  0  0  0  0  0  0
    1.5767    4.5786    0.4969 H   0  0  0  0  0  0  0  0  0  0  0  0
  1  2  2  0
  2  3  1  0
  3  4  1  0
  4  5  2  0
  5  6  1  0
  6  7  2  0
  7  8  1  0
  8  9  1  0
  9 10  2  0
 10 11  1  0
 11 12  1  0
 12 13  2  0
 13 14  1  0
 14 15  2  0
 15 16  1  0
 16 17  1  0
 17 18  1  0
 18 19  1  0
 19 20  2  0
 20 21  1  0
 21 22  2  0
 22 23  1  0
 23 24  2  0
 16 25  2  0
  8 26  2  0
  2 27  1  0
 27 28  1  0
 28 29  2  0
 29 30  1  0
 30 31  2  0
 31 32  1  0
 32 33  1  0
 33 34  1  0
 33 35  1  0
 33 36  1  0
 32 37  2  0
 26  4  1  0
 37 28  1  0
 25  9  1  0
 15 11  1  0
 24 19  1  0
  3 38  1  0
  5 39  1  0
  6 40  1  0
  7 41  1  0
 10 42  1  0
 12 43  1  0
 13 44  1  0
 18 45  1  0
 18 46  1  0
 20 47  1  0
 21 48  1  0
 23 49  1  0
 24 50  1  0
 26 51  1  0
 27 52  1  0
 29 53  1  0
 30 54  1  0
 31 55  1  0
 37 56  1  0
M  END
$$$$
