
     RDKit          3D

 56 60  0  0  0  0  0  0  0  0999 V2000
    3.0167    2.1939   -2.9536 O   0  0  0  0  0  0  0  0  0  0  0  0
    3.9565    1.0961   -3.0379 S   0  0  0  0  0  0  0  0  0  0  0  0
    4.9573    1.0409   -4.0821 O   0  0  0  0  0  0  0  0  0  0  0  0
    3.1137   -0.3662   -3.1112 N   0  0  0  0  0  0  0  0  0  0  0  0
    2.2302   -0.7094   -2.0506 C   0  0  0  0  0  0  0  0  0  0  0  0
    2.5470   -1.7851   -1.2233 C   0  0  0  0  0  0  0  0  0  0  0  0
    1.7131   -2.1002   -0.1528 C   0  0  0  0  0  0  0  0  0  0  0  0
    0.5702   -1.3342    0.0912 C   0  0  0  0  0  0  0  0  0  0  0  0
    0.2420   -0.2421   -0.7277 C   0  0  0  0  0  0  0  0  0  0  0  0
   -0.9826    0.5485   -0.4471 C   0  0  0  0  0  0  0  0  0  0  0  0
   -0.9837    1.8851   -0.6392 C   0  0  0  0  0  0  0  0  0  0  0  0
   -2.1360    2.5855   -0.3556 N   0  0  0  0  0  0  0  0  0  0  0  0
   -2.4543    3.9128   -0.4442 C   0  0  0  0  0  0  0  0  0  0  0  0
   -3.7631    3.9960   -0.0152 C   0  0  0  0  0  0  0  0  0  0  0  0
   -4.2534    2.7598    0.3353 N   0  0  0  0  0  0  0  0  0  0  0  0
   -3.2448    1.9414    0.1148 C   0  0  0  0  0  0  0  0  0  0  0  0
   -3.1970    0.5046    0.3165 C   0  0  0  0  0  0  0  0  0  0  0  0
   -4.2962   -0.1666    0.7902 N   0  0  0  0  0  0  0  0  0  0  0  0
   -4.3510   -1.5873    0.9943 C   0  0  0  0  0  0  0  0  0  0  0  0
   -5.7086   -1.9692    1.5233 C   0  0  0  0  0  0  0  0  0  0  0  0
   -5.9704   -1.9560    2.8967 C   0  0  0  0  0  0  0  0  0  0  0  0
   -7.2425   -2.2902    3.3334 C   0  0  0  0  0  0  0  0  0  0  0  0
   -8.2562   -2.6247    2.5072 N   0  0  0  0  0  0  0  0  0  0  0  0
   -7.9884   -2.6168    1.1842 C   0  0  0  0  0  0  0  0  0  0  0  0
   -6.7502   -2.2973    0.6501 C   0  0  0  0  0  0  0  0  0  0  0  0
   -2.0873   -0.1444    0.0418 N   0  0  0  0  0  0  0  0  0  0  0  0
    1.0817    0.0486   -1.8134 C   0  0  0  0  0  0  0  0  0  0  0  0
    4.8129    0.9844   -1.4797 C   0  0  0  0  0  0  0  0  0  0  0  0
    4.2703    1.5914   -0.3443 C   0  0  0  0  0  0  0  0  0  0  0  0
    4.9523    1.5123    0.8685 C   0  0  0  0  0  0  0  0  0  0  0  0
    6.1743    0.8389    0.9426 C   0  0  0  0  0  0  0  0  0  0  0  0
    6.7321    0.2338   -0.1961 C   0  0  0  0  0  0  0  0  0  0  0  0
    8.0666   -0.4694   -0.1206 C   0  0  0  0  0  0  0  0  0  0  0  0
    9.0988    0.3339   -0.4925 F   0  0  0  0  0  0  0  0  0  0  0  0
    8.3671   -0.9175    1.1297 F   0  0  0  0  0  0  0  0  0  0  0  0
    8.1278   -1.5632   -0.9306 F   0  0  0  0  0  0  0  0  0  0  0  0
    6.0449    0.3229   -1.4176 C   0  0  0  0  0  0  0  0  0  0  0  0
    3.6628   -1.1100   -3.5389 H   0  0  0  0  0  0  0  0  0  0  0  0
    3.4387   -2.3807   -1.3955 H   0  0  0  0  0  0  0  0  0  0  0  0
    1.9492   -2.9401    0.4959 H   0  0  0  0  0  0  0  0  0  0  0  0
   -0.0716   -1.5943    0.9318 H   0  0  0  0  0  0  0  0  0  0  0  0
   -0.1380    2.4578   -0.9970 H   0  0  0  0  0  0  0  0  0  0  0  0
   -1.7539    4.6576   -0.7931 H   0  0  0  0  0  0  0  0  0  0  0  0
   -4.3786    4.8839    0.0594 H   0  0  0  0  0  0  0  0  0  0  0  0
   -5.1254    0.3888    0.9783 H   0  0  0  0  0  0  0  0  0  0  0  0
   -4.1583   -2.1190    0.0545 H   0  0  0  0  0  0  0  0  0  0  0  0
   -3.5780   -1.9052    1.7046 H   0  0  0  0  0  0  0  0  0  0  0  0
   -5.2026   -1.6867    3.6148 H   0  0  0  0  0  0  0  0  0  0  0  0
   -7.4878   -2.2946    4.3916 H   0  0  0  0  0  0  0  0  0  0  0  0
   -8.8239   -2.8798    0.5416 H   0  0  0  0  0  0  0  0  0  0  0  0
   -6.6051   -2.3009   -0.4254 H   0  0  0  0  0  0  0  0  0  0  0  0
    0.8348    0.8592   -2.4951 H   0  0  0  0  0  0  0  0  0  0  0  0
    3.3220    2.1223   -0.3950 H   0  0  0  0  0  0  0  0  0  0  0  0
    4.5345    1.9798    1.7578 H   0  0  0  0  0  0  0  0  0  0  0  0
    6.6963    0.7918    1.8984 H   0  0  0  0  0  0  0  0  0  0  0  0
    6.4751   -0.1210   -2.3152 H   0  0  0  0  0  0  0  0  0  0  0  0
  1  2  2  0
  2  3  2  0
  2  4  1  0
  4  5  1  0
  5  6  2  0
  6  7  1  0
  7  8  2  0
  8  9  1  0
  9 10  1  0
 10 11  2  0
 11 12  1  0
 12 13  1  0
 13 14  2  0
 14 15  1  0
 15 16  2  0
 16 17  1  0
 17 18  1  0
 18 19  1  0
 19 20  1  0
 20 21  2  0
 21 22  1  0
 22 23  2  0
 23 24  1  0
 24 25  2  0
 17 26  2  0
  9 27  2  0
  2 28  1  0
 28 29  2  0
 29 30  1  0
 30 31  2  0
 31 32  1  0
 32 33  1  0
 33 34  1  0
 33 35  1  0
 33 36  1  0
 32 37  2  0
 27  5  1  0
 37 28  1  0
 26 10  1  0
 16 12  1  0
 25 20  1  0
  4 38  1  0
  6 39  1  0
  7 40  1  0
  8 41  1  0
 11 42  1  0
 13 43  1  0
 14 44  1  0
 18 45  1  0
 19 46  1  0
 19 47  1  0
 21 48  1  0
 22 49  1  0
 24 50  1  0
 25 51  1  0
 27 52  1  0
 29 53  1  0
 30 54  1  0
 31 55  1  0
 37 56  1  0
M  END
$$$$
