
     RDKit          3D

 60 64  0  0  0  0  0  0  0  0999 V2000
    5.0540    1.0912   -1.7293 O   0  0  0  0  0  0  0  0  0  0  0  0
    4.3002    1.3047   -0.7890 C   0  0  0  0  0  0  0  0  0  0  0  0
    2.9521    1.5033   -0.9727 N   0  0  0  0  0  0  0  0  0  0  0  0
    2.3754    1.4680   -2.2951 C   0  0  0  0  0  0  0  0  0  0  0  0
    0.8765    1.5811   -2.2227 C   0  0  0  0  0  0  0  0  0  0  0  0
    0.2488    2.8262   -2.3497 C   0  0  0  0  0  0  0  0  0  0  0  0
   -1.1362    2.9311   -2.2327 C   0  0  0  0  0  0  0  0  0  0  0  0
   -1.9055    1.7927   -1.9855 C   0  0  0  0  0  0  0  0  0  0  0  0
   -1.3043    0.5326   -1.8594 C   0  0  0  0  0  0  0  0  0  0  0  0
   -2.1444   -0.6559   -1.5843 C   0  0  0  0  0  0  0  0  0  0  0  0
   -1.9301   -1.7985   -2.2697 C   0  0  0  0  0  0  0  0  0  0  0  0
   -2.7400   -2.8805   -2.0020 N   0  0  0  0  0  0  0  0  0  0  0  0
   -2.7806   -4.1507   -2.5078 C   0  0  0  0  0  0  0  0  0  0  0  0
   -3.8160   -4.7695   -1.8377 C   0  0  0  0  0  0  0  0  0  0  0  0
   -4.4106   -3.9152   -0.9389 N   0  0  0  0  0  0  0  0  0  0  0  0
   -3.7355   -2.7915   -1.0703 C   0  0  0  0  0  0  0  0  0  0  0  0
   -3.9372   -1.5379   -0.3656 C   0  0  0  0  0  0  0  0  0  0  0  0
   -4.9347   -1.4202    0.5694 N   0  0  0  0  0  0  0  0  0  0  0  0
   -5.2058   -0.2237    1.3165 C   0  0  0  0  0  0  0  0  0  0  0  0
   -6.3676   -0.4613    2.2454 C   0  0  0  0  0  0  0  0  0  0  0  0
   -6.1616   -0.9618    3.5346 C   0  0  0  0  0  0  0  0  0  0  0  0
   -7.2643   -1.1884    4.3429 C   0  0  0  0  0  0  0  0  0  0  0  0
   -8.5375   -0.9600    3.9574 N   0  0  0  0  0  0  0  0  0  0  0  0
   -8.7172   -0.4916    2.7042 C   0  0  0  0  0  0  0  0  0  0  0  0
   -7.6804   -0.2335    1.8216 C   0  0  0  0  0  0  0  0  0  0  0  0
   -3.1538   -0.5175   -0.6361 N   0  0  0  0  0  0  0  0  0  0  0  0
    0.0929    0.4430   -1.9666 C   0  0  0  0  0  0  0  0  0  0  0  0
    4.6411    1.3746    0.5429 N   0  0  0  0  0  0  0  0  0  0  0  0
    5.9220    1.2412    1.1154 C   0  0  0  0  0  0  0  0  0  0  0  0
    6.0100    1.3293    2.5102 C   0  0  0  0  0  0  0  0  0  0  0  0
    7.2407    1.2053    3.1578 C   0  0  0  0  0  0  0  0  0  0  0  0
    8.4000    0.9937    2.4153 C   0  0  0  0  0  0  0  0  0  0  0  0
    8.3378    0.9092    1.0177 C   0  0  0  0  0  0  0  0  0  0  0  0
    9.5799    0.6677    0.1960 C   0  0  0  0  0  0  0  0  0  0  0  0
    9.6921    1.5197   -0.8602 F   0  0  0  0  0  0  0  0  0  0  0  0
   10.7336    0.8123    0.9089 F   0  0  0  0  0  0  0  0  0  0  0  0
    9.6237   -0.5891   -0.3258 F   0  0  0  0  0  0  0  0  0  0  0  0
    7.0896    1.0307    0.3784 C   0  0  0  0  0  0  0  0  0  0  0  0
    2.3540    1.7360   -0.1962 H   0  0  0  0  0  0  0  0  0  0  0  0
    2.8033    2.2890   -2.8825 H   0  0  0  0  0  0  0  0  0  0  0  0
    2.6676    0.5343   -2.7906 H   0  0  0  0  0  0  0  0  0  0  0  0
    0.8367    3.7232   -2.5344 H   0  0  0  0  0  0  0  0  0  0  0  0
   -1.6197    3.9000   -2.3294 H   0  0  0  0  0  0  0  0  0  0  0  0
   -2.9853    1.8911   -1.8905 H   0  0  0  0  0  0  0  0  0  0  0  0
   -1.1690   -1.9250   -3.0280 H   0  0  0  0  0  0  0  0  0  0  0  0
   -2.0982   -4.4962   -3.2705 H   0  0  0  0  0  0  0  0  0  0  0  0
   -4.1649   -5.7878   -1.9569 H   0  0  0  0  0  0  0  0  0  0  0  0
   -5.5079   -2.2423    0.7336 H   0  0  0  0  0  0  0  0  0  0  0  0
   -5.4394    0.6081    0.6408 H   0  0  0  0  0  0  0  0  0  0  0  0
   -4.3253    0.0755    1.8980 H   0  0  0  0  0  0  0  0  0  0  0  0
   -5.1639   -1.1764    3.9038 H   0  0  0  0  0  0  0  0  0  0  0  0
   -7.1488   -1.5745    5.3517 H   0  0  0  0  0  0  0  0  0  0  0  0
   -9.7515   -0.3263    2.4162 H   0  0  0  0  0  0  0  0  0  0  0  0
   -7.8954    0.1334    0.8232 H   0  0  0  0  0  0  0  0  0  0  0  0
    0.5876   -0.5176   -1.8334 H   0  0  0  0  0  0  0  0  0  0  0  0
    3.8790    1.5259    1.1844 H   0  0  0  0  0  0  0  0  0  0  0  0
    5.1215    1.4932    3.1147 H   0  0  0  0  0  0  0  0  0  0  0  0
    7.2939    1.2727    4.2418 H   0  0  0  0  0  0  0  0  0  0  0  0
    9.3544    0.8957    2.9309 H   0  0  0  0  0  0  0  0  0  0  0  0
    7.0637    0.9573   -0.7063 H   0  0  0  0  0  0  0  0  0  0  0  0
  1  2  2  0
  2  3  1  0
  3  4  1  0
  4  5  1  0
  5  6  2  0
  6  7  1  0
  7  8  2  0
  8  9  1  0
  9 10  1  0
 10 11  2  0
 11 12  1  0
 12 13  1  0
 13 14  2  0
 14 15  1  0
 15 16  2  0
 16 17  1  0
 17 18  1  0
 18 19  1  0
 19 20  1  0
 20 21  2  0
 21 22  1  0
 22 23  2  0
 23 24  1  0
 24 25  2  0
 17 26  2  0
  9 27  2  0
  2 28  1  0
 28 29  1  0
 29 30  2  0
 30 31  1  0
 31 32  2  0
 32 33  1  0
 33 34  1  0
 34 35  1  0
 34 36  1  0
 34 37  1  0
 33 38  2  0
 27  5  1  0
 38 29  1  0
 26 10  1  0
 16 12  1  0
 25 20  1  0
  3 39  1  0
  4 40  1  0
  4 41  1  0
  6 42  1  0
  7 43  1  0
  8 44  1  0
 11 45  1  0
 13 46  1  0
 14 47  1  0
 18 48  1  0
 19 49  1  0
 19 50  1  0
 21 51  1  0
 22 52  1  0
 24 53  1  0
 25 54  1  0
 27 55  1  0
 28 56  1  0
 30 57  1  0
 31 58  1  0
 32 59  1  0
 38 60  1  0
M  END
$$$$
