
     RDKit          3D

 67 71  0  0  0  0  0  0  0  0999 V2000
   -9.7860    4.0206   -0.3682 C   0  0  0  0  0  0  0  0  0  0  0  0
   -9.0912    3.0761   -1.2916 N   0  0  0  0  0  0  0  0  0  0  0  0
   -9.9551    1.9198   -1.7031 C   0  0  0  0  0  0  0  0  0  0  0  0
   -7.7175    2.6329   -0.7852 C   0  0  0  0  0  0  0  0  0  0  0  0
   -6.7927    2.3038   -1.9619 C   0  0  0  0  0  0  0  0  0  0  0  0
   -7.1249    2.6918   -3.0815 O   0  0  0  0  0  0  0  0  0  0  0  0
   -5.6674    1.5899   -1.6131 N   0  0  0  0  0  0  0  0  0  0  0  0
   -4.6325    1.1574   -2.4737 C   0  0  0  0  0  0  0  0  0  0  0  0
   -4.5971    1.4079   -3.8446 C   0  0  0  0  0  0  0  0  0  0  0  0
   -3.5240    0.9528   -4.6137 C   0  0  0  0  0  0  0  0  0  0  0  0
   -2.4782    0.2460   -4.0185 C   0  0  0  0  0  0  0  0  0  0  0  0
   -2.4914   -0.0186   -2.6442 C   0  0  0  0  0  0  0  0  0  0  0  0
   -1.3964   -0.7617   -2.0345 C   0  0  0  0  0  0  0  0  0  0  0  0
   -0.5599   -1.7456   -2.5988 C   0  0  0  0  0  0  0  0  0  0  0  0
    0.3610   -2.2038   -1.7567 N   0  0  0  0  0  0  0  0  0  0  0  0
    0.1691   -1.4950   -0.6111 N   0  0  0  0  0  0  0  0  0  0  0  0
    0.9103   -1.5565    0.5871 C   0  0  0  0  0  0  0  0  0  0  0  0
    2.0725   -2.4582    0.7546 C   0  0  0  0  0  0  0  0  0  0  0  0
    1.9719   -3.8219    0.4546 C   0  0  0  0  0  0  0  0  0  0  0  0
    3.0725   -4.6635    0.6123 C   0  0  0  0  0  0  0  0  0  0  0  0
    4.2846   -4.1508    1.0765 C   0  0  0  0  0  0  0  0  0  0  0  0
    4.4105   -2.7926    1.3880 C   0  0  0  0  0  0  0  0  0  0  0  0
    5.6665   -2.3523    1.8592 N   0  0  0  0  0  0  0  0  0  0  0  0
    6.0130   -1.0727    2.2547 C   0  0  0  0  0  0  0  0  0  0  0  0
    5.2992   -0.0770    2.2348 O   0  0  0  0  0  0  0  0  0  0  0  0
    7.4177   -0.9165    2.7279 C   0  0  0  0  0  0  0  0  0  0  0  0
    8.0600   -1.9089    3.4783 C   0  0  0  0  0  0  0  0  0  0  0  0
    9.3730   -1.7146    3.9103 C   0  0  0  0  0  0  0  0  0  0  0  0
   10.0450   -0.5299    3.6026 C   0  0  0  0  0  0  0  0  0  0  0  0
    9.4124    0.4793    2.8602 C   0  0  0  0  0  0  0  0  0  0  0  0
   10.1223    1.7768    2.5571 C   0  0  0  0  0  0  0  0  0  0  0  0
    9.7808    2.2977    1.3462 F   0  0  0  0  0  0  0  0  0  0  0  0
    9.8471    2.7430    3.4747 F   0  0  0  0  0  0  0  0  0  0  0  0
   11.4784    1.6516    2.5381 F   0  0  0  0  0  0  0  0  0  0  0  0
    8.0887    0.2792    2.4363 C   0  0  0  0  0  0  0  0  0  0  0  0
    3.3034   -1.9563    1.2183 C   0  0  0  0  0  0  0  0  0  0  0  0
    0.5469   -0.7692    1.6170 C   0  0  0  0  0  0  0  0  0  0  0  0
   -0.6219    0.1120    1.3864 C   0  0  0  0  0  0  0  0  0  0  0  0
   -1.3280    0.1908    0.3006 N   0  0  0  0  0  0  0  0  0  0  0  0
   -0.9284   -0.6169   -0.7369 C   0  0  0  0  0  0  0  0  0  0  0  0
   -3.5805    0.4379   -1.8863 C   0  0  0  0  0  0  0  0  0  0  0  0
  -10.7210    4.3350   -0.8393 H   0  0  0  0  0  0  0  0  0  0  0  0
   -9.1389    4.8883   -0.2161 H   0  0  0  0  0  0  0  0  0  0  0  0
   -9.9776    3.5049    0.5764 H   0  0  0  0  0  0  0  0  0  0  0  0
   -8.8769    3.5826   -2.1708 H   0  0  0  0  0  0  0  0  0  0  0  0
  -10.2042    1.3392   -0.8109 H   0  0  0  0  0  0  0  0  0  0  0  0
  -10.8579    2.3220   -2.1704 H   0  0  0  0  0  0  0  0  0  0  0  0
   -9.4049    1.3097   -2.4234 H   0  0  0  0  0  0  0  0  0  0  0  0
   -7.8599    1.7742   -0.1226 H   0  0  0  0  0  0  0  0  0  0  0  0
   -7.2800    3.4716   -0.2340 H   0  0  0  0  0  0  0  0  0  0  0  0
   -5.5249    1.3450   -0.6385 H   0  0  0  0  0  0  0  0  0  0  0  0
   -5.3788    1.9598   -4.3553 H   0  0  0  0  0  0  0  0  0  0  0  0
   -3.4977    1.1577   -5.6820 H   0  0  0  0  0  0  0  0  0  0  0  0
   -1.6486   -0.0777   -4.6438 H   0  0  0  0  0  0  0  0  0  0  0  0
   -0.5881   -2.1570   -3.6000 H   0  0  0  0  0  0  0  0  0  0  0  0
    1.0388   -4.2413    0.0832 H   0  0  0  0  0  0  0  0  0  0  0  0
    2.9860   -5.7191    0.3669 H   0  0  0  0  0  0  0  0  0  0  0  0
    5.1253   -4.8306    1.1882 H   0  0  0  0  0  0  0  0  0  0  0  0
    6.3943   -3.0549    1.8772 H   0  0  0  0  0  0  0  0  0  0  0  0
    7.5447   -2.8217    3.7646 H   0  0  0  0  0  0  0  0  0  0  0  0
    9.8717   -2.4813    4.5002 H   0  0  0  0  0  0  0  0  0  0  0  0
   11.0676   -0.3910    3.9538 H   0  0  0  0  0  0  0  0  0  0  0  0
    7.5759    1.0593    1.8722 H   0  0  0  0  0  0  0  0  0  0  0  0
    3.3829   -0.8939    1.4258 H   0  0  0  0  0  0  0  0  0  0  0  0
    1.0390   -0.7379    2.5801 H   0  0  0  0  0  0  0  0  0  0  0  0
   -0.8988    0.7489    2.2433 H   0  0  0  0  0  0  0  0  0  0  0  0
   -3.6012    0.2236   -0.8207 H   0  0  0  0  0  0  0  0  0  0  0  0
  1  2  1  0
  2  3  1  0
  2  4  1  0
  4  5  1  0
  5  6  2  0
  5  7  1  0
  7  8  1  0
  8  9  2  0
  9 10  1  0
 10 11  2  0
 11 12  1  0
 12 13  1  0
 13 14  1  0
 14 15  2  0
 15 16  1  0
 16 17  1  0
 17 18  1  0
 18 19  2  0
 19 20  1  0
 20 21  2  0
 21 22  1  0
 22 23  1  0
 23 24  1  0
 24 25  2  0
 24 26  1  0
 26 27  2  0
 27 28  1  0
 28 29  2  0
 29 30  1  0
 30 31  1  0
 31 32  1  0
 31 33  1  0
 31 34  1  0
 30 35  2  0
 22 36  2  0
 17 37  2  0
 37 38  1  0
 38 39  2  0
 39 40  1  0
 12 41  2  0
 41  8  1  0
 40 13  2  0
 40 16  1  0
 36 18  1  0
 35 26  1  0
  1 42  1  0
  1 43  1  0
  1 44  1  0
  2 45  1  0
  3 46  1  0
  3 47  1  0
  3 48  1  0
  4 49  1  0
  4 50  1  0
  7 51  1  0
  9 52  1  0
 10 53  1  0
 11 54  1  0
 14 55  1  0
 19 56  1  0
 20 57  1  0
 21 58  1  0
 23 59  1  0
 27 60  1  0
 28 61  1  0
 29 62  1  0
 35 63  1  0
 36 64  1  0
 37 65  1  0
 38 66  1  0
 41 67  1  0
M  CHG  1   2   1
M  END
$$$$
