LIB_APMUVXPIJNPXQE__M_PUB_ALL__e8__s20260927
     RDKit          3D

 67 72  0  0  0  0  0  0  0  0999 V2000
    6.9720  -17.9290   12.9660 O   0  0  0  0  0  0  0  0  0  0  0  0
    7.3250  -17.6490   11.8260 C   0  0  0  0  0  0  0  0  0  0  0  0
    8.5500  -17.1340   11.4410 N   0  0  0  0  0  0  0  0  0  0  0  0
    9.6030  -16.7180   12.2850 C   0  0  0  0  0  0  0  0  0  0  0  0
   10.3020  -17.7110   12.9760 C   0  0  0  0  0  0  0  0  0  0  0  0
   11.3540  -17.3750   13.8310 C   0  0  0  0  0  0  0  0  0  0  0  0
   11.7170  -16.0390   14.0020 C   0  0  0  0  0  0  0  0  0  0  0  0
   11.0360  -15.0270   13.3140 C   0  0  0  0  0  0  0  0  0  0  0  0
   11.4080  -13.6070   13.4940 C   0  0  0  0  0  0  0  0  0  0  0  0
   10.7140  -12.8620   14.3750 C   0  0  0  0  0  0  0  0  0  0  0  0
   11.1360  -11.4470   14.5130 C   0  0  0  0  0  0  0  0  0  0  0  0
   12.1010  -10.8640   13.8720 N   0  0  0  0  0  0  0  0  0  0  0  0
   12.7860  -11.6480   12.9770 C   0  0  0  0  0  0  0  0  0  0  0  0
   13.8430  -11.3710   12.1250 C   0  0  0  0  0  0  0  0  0  0  0  0
   14.5000  -10.0830   11.9880 C   0  0  0  0  0  0  0  0  0  0  0  0
   13.8650   -9.0110   11.3510 C   0  0  0  0  0  0  0  0  0  0  0  0
   14.5030   -7.7740   11.2220 C   0  0  0  0  0  0  0  0  0  0  0  0
   15.7960   -7.5850   11.7330 C   0  0  0  0  0  0  0  0  0  0  0  0
   16.4540   -6.2360   11.6460 C   0  0  0  0  0  0  0  0  0  0  0  0
   17.9510   -6.3410   11.5560 N   0  0  0  0  0  0  0  0  0  0  0  0
   18.6860   -5.1430   12.0950 C   0  0  0  0  0  0  0  0  0  0  0  0
   20.0260   -5.2280   11.3970 C   0  0  0  0  0  0  0  0  0  0  0  0
   19.6400   -5.6340    9.9880 C   0  0  0  0  0  0  0  0  0  0  0  0
   18.4990   -6.6240   10.1710 C   0  0  0  0  0  0  0  0  0  0  0  0
   16.4390   -8.6620   12.3570 C   0  0  0  0  0  0  0  0  0  0  0  0
   15.7980   -9.8990   12.4800 C   0  0  0  0  0  0  0  0  0  0  0  0
   14.1110  -12.5950   11.4850 C   0  0  0  0  0  0  0  0  0  0  0  0
   13.3050  -13.5790   11.8710 N   0  0  0  0  0  0  0  0  0  0  0  0
   12.4690  -13.0090   12.7830 N   0  0  0  0  0  0  0  0  0  0  0  0
    9.9840  -15.3830   12.4500 C   0  0  0  0  0  0  0  0  0  0  0  0
    6.3780  -17.9260   10.7080 C   0  0  0  0  0  0  0  0  0  0  0  0
    6.8190  -18.4080    9.4700 C   0  0  0  0  0  0  0  0  0  0  0  0
    5.9000  -18.6440    8.4460 C   0  0  0  0  0  0  0  0  0  0  0  0
    4.5420  -18.3940    8.6530 C   0  0  0  0  0  0  0  0  0  0  0  0
    4.0840  -17.9020    9.8850 C   0  0  0  0  0  0  0  0  0  0  0  0
    2.6210  -17.5950   10.0990 C   0  0  0  0  0  0  0  0  0  0  0  0
    2.4230  -16.6840   11.0890 F   0  0  0  0  0  0  0  0  0  0  0  0
    1.8950  -18.6930   10.4470 F   0  0  0  0  0  0  0  0  0  0  0  0
    2.0140  -17.0850    8.9910 F   0  0  0  0  0  0  0  0  0  0  0  0
    5.0170  -17.6590   10.9060 C   0  0  0  0  0  0  0  0  0  0  0  0
    8.7440  -17.0970   10.4490 H   0  0  0  0  0  0  0  0  0  0  0  0
   10.0213  -18.7666   12.8455 H   0  0  0  0  0  0  0  0  0  0  0  0
   11.8971  -18.1650   14.3703 H   0  0  0  0  0  0  0  0  0  0  0  0
   12.5426  -15.7790   14.6809 H   0  0  0  0  0  0  0  0  0  0  0  0
    9.8809  -13.2794   14.9595 H   0  0  0  0  0  0  0  0  0  0  0  0
   10.5746  -10.8305   15.2305 H   0  0  0  0  0  0  0  0  0  0  0  0
   12.8507   -9.1435   10.9466 H   0  0  0  0  0  0  0  0  0  0  0  0
   13.9882   -6.9435   10.7167 H   0  0  0  0  0  0  0  0  0  0  0  0
   16.0806   -5.7164   10.7513 H   0  0  0  0  0  0  0  0  0  0  0  0
   16.2082   -5.6798   12.5627 H   0  0  0  0  0  0  0  0  0  0  0  0
   18.2170   -7.1450   12.1370 H   0  0  0  0  0  0  0  0  0  0  0  0
   18.1641   -4.2095   11.8378 H   0  0  0  0  0  0  0  0  0  0  0  0
   18.7665   -5.1395   13.1920 H   0  0  0  0  0  0  0  0  0  0  0  0
   20.5394   -4.2552   11.4033 H   0  0  0  0  0  0  0  0  0  0  0  0
   20.7260   -5.9274   11.8775 H   0  0  0  0  0  0  0  0  0  0  0  0
   19.3062   -4.7597    9.4099 H   0  0  0  0  0  0  0  0  0  0  0  0
   20.4846   -6.0696    9.4339 H   0  0  0  0  0  0  0  0  0  0  0  0
   17.7227   -6.4643    9.4082 H   0  0  0  0  0  0  0  0  0  0  0  0
   18.8355   -7.6659   10.0652 H   0  0  0  0  0  0  0  0  0  0  0  0
   17.4569   -8.5336   12.7537 H   0  0  0  0  0  0  0  0  0  0  0  0
   16.3189  -10.7359   12.9682 H   0  0  0  0  0  0  0  0  0  0  0  0
   14.9088  -12.7248   10.7389 H   0  0  0  0  0  0  0  0  0  0  0  0
    9.4518  -14.5968   11.8944 H   0  0  0  0  0  0  0  0  0  0  0  0
    7.8892  -18.6007    9.3041 H   0  0  0  0  0  0  0  0  0  0  0  0
    6.2462  -19.0274    7.4748 H   0  0  0  0  0  0  0  0  0  0  0  0
    3.8237  -18.5846    7.8420 H   0  0  0  0  0  0  0  0  0  0  0  0
    4.6759  -17.2551   11.8706 H   0  0  0  0  0  0  0  0  0  0  0  0
  1  2  2  0
  2  3  1  0
  3  4  1  0
  4  5  2  0
  5  6  1  0
  6  7  2  0
  7  8  1  0
  8  9  1  0
  9 10  2  0
 10 11  1  0
 11 12  2  0
 12 13  1  0
 13 14  2  0
 14 15  1  0
 15 16  2  0
 16 17  1  0
 17 18  2  0
 18 19  1  0
 19 20  1  0
 20 21  1  0
 21 22  1  0
 22 23  1  0
 23 24  1  0
 18 25  1  0
 25 26  2  0
 14 27  1  0
 27 28  2  0
 28 29  1  0
  8 30  2  0
  2 31  1  0
 31 32  2  0
 32 33  1  0
 33 34  2  0
 34 35  1  0
 35 36  1  0
 36 37  1  0
 36 38  1  0
 36 39  1  0
 35 40  2  0
 30  4  1  0
 40 31  1  0
 29  9  1  0
 29 13  1  0
 26 15  1  0
 24 20  1  0
  3 41  1  0
  5 42  1  0
  6 43  1  0
  7 44  1  0
 10 45  1  0
 11 46  1  0
 16 47  1  0
 17 48  1  0
 19 49  1  0
 19 50  1  0
 20 51  1  0
 21 52  1  0
 21 53  1  0
 22 54  1  0
 22 55  1  0
 23 56  1  0
 23 57  1  0
 24 58  1  0
 24 59  1  0
 25 60  1  0
 26 61  1  0
 27 62  1  0
 30 63  1  0
 32 64  1  0
 33 65  1  0
 34 66  1  0
 40 67  1  0
M  CHG  1  20   1
M  END
>  <meeko>  (1) 
{"is_sidechain": [false], "free_energy": -9.314, "intermolecular_energy": -13.125, "internal_energy": -1.197}

$$$$
LIB_APMUVXPIJNPXQE__M_PUB_ALL__e8__s20260927
     RDKit          3D

 67 72  0  0  0  0  0  0  0  0999 V2000
   10.1870  -15.0350   -2.7860 O   0  0  0  0  0  0  0  0  0  0  0  0
   10.2320  -13.9190   -3.2920 C   0  0  0  0  0  0  0  0  0  0  0  0
    9.2510  -13.3200   -4.0620 N   0  0  0  0  0  0  0  0  0  0  0  0
    8.0510  -13.9040   -4.5200 C   0  0  0  0  0  0  0  0  0  0  0  0
    8.1580  -14.9730   -5.4160 C   0  0  0  0  0  0  0  0  0  0  0  0
    7.0150  -15.5990   -5.9150 C   0  0  0  0  0  0  0  0  0  0  0  0
    5.7500  -15.1620   -5.5210 C   0  0  0  0  0  0  0  0  0  0  0  0
    5.6160  -14.0990   -4.6200 C   0  0  0  0  0  0  0  0  0  0  0  0
    4.2790  -13.6230   -4.2020 C   0  0  0  0  0  0  0  0  0  0  0  0
    3.2770  -13.6380   -5.1010 C   0  0  0  0  0  0  0  0  0  0  0  0
    1.9600  -13.1530   -4.6230 C   0  0  0  0  0  0  0  0  0  0  0  0
    1.6850  -12.7190   -3.4320 N   0  0  0  0  0  0  0  0  0  0  0  0
    2.7290  -12.7110   -2.5400 C   0  0  0  0  0  0  0  0  0  0  0  0
    2.8100  -12.3130   -1.2150 C   0  0  0  0  0  0  0  0  0  0  0  0
    1.7150  -11.7740   -0.4280 C   0  0  0  0  0  0  0  0  0  0  0  0
    1.1090  -10.5590   -0.7680 C   0  0  0  0  0  0  0  0  0  0  0  0
    0.0560  -10.0450   -0.0060 C   0  0  0  0  0  0  0  0  0  0  0  0
   -0.4150  -10.7420    1.1160 C   0  0  0  0  0  0  0  0  0  0  0  0
   -1.5880  -10.2170    1.8970 C   0  0  0  0  0  0  0  0  0  0  0  0
   -2.8450  -10.9940    1.6230 N   0  0  0  0  0  0  0  0  0  0  0  0
   -2.9850  -12.2490    2.4430 C   0  0  0  0  0  0  0  0  0  0  0  0
   -3.9420  -13.0830    1.6210 C   0  0  0  0  0  0  0  0  0  0  0  0
   -3.4570  -12.8430    0.2040 C   0  0  0  0  0  0  0  0  0  0  0  0
   -3.0710  -11.3730    0.1720 C   0  0  0  0  0  0  0  0  0  0  0  0
    0.2010  -11.9510    1.4680 C   0  0  0  0  0  0  0  0  0  0  0  0
    1.2580  -12.4590    0.7040 C   0  0  0  0  0  0  0  0  0  0  0  0
    4.1430  -12.5750   -0.8490 C   0  0  0  0  0  0  0  0  0  0  0  0
    4.8700  -13.0870   -1.8370 N   0  0  0  0  0  0  0  0  0  0  0  0
    4.0160  -13.1650   -2.8960 N   0  0  0  0  0  0  0  0  0  0  0  0
    6.7790  -13.4840   -4.1200 C   0  0  0  0  0  0  0  0  0  0  0  0
   11.4310  -13.0750   -3.0280 C   0  0  0  0  0  0  0  0  0  0  0  0
   12.4470  -12.9180   -3.9800 C   0  0  0  0  0  0  0  0  0  0  0  0
   13.5590  -12.1270   -3.6880 C   0  0  0  0  0  0  0  0  0  0  0  0
   13.6640  -11.4970   -2.4470 C   0  0  0  0  0  0  0  0  0  0  0  0
   12.6600  -11.6510   -1.4780 C   0  0  0  0  0  0  0  0  0  0  0  0
   12.7880  -11.0010   -0.1210 C   0  0  0  0  0  0  0  0  0  0  0  0
   11.8050  -11.3910    0.7340 F   0  0  0  0  0  0  0  0  0  0  0  0
   12.7250   -9.6420   -0.1760 F   0  0  0  0  0  0  0  0  0  0  0  0
   13.9650  -11.2920    0.5010 F   0  0  0  0  0  0  0  0  0  0  0  0
   11.5490  -12.4560   -1.7770 C   0  0  0  0  0  0  0  0  0  0  0  0
    9.3710  -12.3390   -4.2810 H   0  0  0  0  0  0  0  0  0  0  0  0
    9.1523  -15.3233   -5.7301 H   0  0  0  0  0  0  0  0  0  0  0  0
    7.1115  -16.4380   -6.6198 H   0  0  0  0  0  0  0  0  0  0  0  0
    4.8521  -15.6559   -5.9209 H   0  0  0  0  0  0  0  0  0  0  0  0
    3.4270  -13.9903   -6.1322 H   0  0  0  0  0  0  0  0  0  0  0  0
    1.1347  -13.1621   -5.3501 H   0  0  0  0  0  0  0  0  0  0  0  0
    1.4661  -10.0014   -1.6464 H   0  0  0  0  0  0  0  0  0  0  0  0
   -0.4062   -9.0876   -0.2882 H   0  0  0  0  0  0  0  0  0  0  0  0
   -1.3573  -10.2833    2.9705 H   0  0  0  0  0  0  0  0  0  0  0  0
   -1.7605   -9.1753    1.5886 H   0  0  0  0  0  0  0  0  0  0  0  0
   -3.6250  -10.3760    1.8810 H   0  0  0  0  0  0  0  0  0  0  0  0
   -2.0160  -12.7567    2.5585 H   0  0  0  0  0  0  0  0  0  0  0  0
   -3.3403  -12.0620    3.4671 H   0  0  0  0  0  0  0  0  0  0  0  0
   -3.8725  -14.1475    1.8895 H   0  0  0  0  0  0  0  0  0  0  0  0
   -4.9979  -12.8148    1.7733 H   0  0  0  0  0  0  0  0  0  0  0  0
   -2.5870  -13.4775   -0.0209 H   0  0  0  0  0  0  0  0  0  0  0  0
   -4.2238  -13.0883   -0.5455 H   0  0  0  0  0  0  0  0  0  0  0  0
   -2.1510  -11.2276   -0.4132 H   0  0  0  0  0  0  0  0  0  0  0  0
   -3.8467  -10.7527   -0.3007 H   0  0  0  0  0  0  0  0  0  0  0  0
   -0.1491  -12.5048    2.3516 H   0  0  0  0  0  0  0  0  0  0  0  0
    1.7346  -13.4064    0.9961 H   0  0  0  0  0  0  0  0  0  0  0  0
    4.5440  -12.3758    0.1557 H   0  0  0  0  0  0  0  0  0  0  0  0
    6.6853  -12.6570   -3.4007 H   0  0  0  0  0  0  0  0  0  0  0  0
   12.3682  -13.4178   -4.9567 H   0  0  0  0  0  0  0  0  0  0  0  0
   14.3542  -11.9998   -4.4373 H   0  0  0  0  0  0  0  0  0  0  0  0
   14.5427  -10.8733   -2.2259 H   0  0  0  0  0  0  0  0  0  0  0  0
   10.7633  -12.6020   -1.0211 H   0  0  0  0  0  0  0  0  0  0  0  0
  1  2  2  0
  2  3  1  0
  3  4  1  0
  4  5  2  0
  5  6  1  0
  6  7  2  0
  7  8  1  0
  8  9  1  0
  9 10  2  0
 10 11  1  0
 11 12  2  0
 12 13  1  0
 13 14  2  0
 14 15  1  0
 15 16  2  0
 16 17  1  0
 17 18  2  0
 18 19  1  0
 19 20  1  0
 20 21  1  0
 21 22  1  0
 22 23  1  0
 23 24  1  0
 18 25  1  0
 25 26  2  0
 14 27  1  0
 27 28  2  0
 28 29  1  0
  8 30  2  0
  2 31  1  0
 31 32  2  0
 32 33  1  0
 33 34  2  0
 34 35  1  0
 35 36  1  0
 36 37  1  0
 36 38  1  0
 36 39  1  0
 35 40  2  0
 30  4  1  0
 40 31  1  0
 29  9  1  0
 29 13  1  0
 26 15  1  0
 24 20  1  0
  3 41  1  0
  5 42  1  0
  6 43  1  0
  7 44  1  0
 10 45  1  0
 11 46  1  0
 16 47  1  0
 17 48  1  0
 19 49  1  0
 19 50  1  0
 20 51  1  0
 21 52  1  0
 21 53  1  0
 22 54  1  0
 22 55  1  0
 23 56  1  0
 23 57  1  0
 24 58  1  0
 24 59  1  0
 25 60  1  0
 26 61  1  0
 27 62  1  0
 30 63  1  0
 32 64  1  0
 33 65  1  0
 34 66  1  0
 40 67  1  0
M  CHG  1  20   1
M  END
>  <meeko>  (2) 
{"is_sidechain": [false], "free_energy": -9.233, "intermolecular_energy": -13.452, "internal_energy": -0.756}

$$$$
LIB_APMUVXPIJNPXQE__M_PUB_ALL__e8__s20260927
     RDKit          3D

 67 72  0  0  0  0  0  0  0  0999 V2000
    7.0770  -17.9290   13.4030 O   0  0  0  0  0  0  0  0  0  0  0  0
    7.3430  -17.6810   12.2330 C   0  0  0  0  0  0  0  0  0  0  0  0
    8.5540  -17.2320   11.7360 N   0  0  0  0  0  0  0  0  0  0  0  0
    9.6940  -16.8570   12.4790 C   0  0  0  0  0  0  0  0  0  0  0  0
   10.4700  -17.8830   13.0260 C   0  0  0  0  0  0  0  0  0  0  0  0
   11.6110  -17.5880   13.7760 C   0  0  0  0  0  0  0  0  0  0  0  0
   11.9860  -16.2610   13.9850 C   0  0  0  0  0  0  0  0  0  0  0  0
   11.2300  -15.2160   13.4410 C   0  0  0  0  0  0  0  0  0  0  0  0
   11.6160  -13.8060   13.6630 C   0  0  0  0  0  0  0  0  0  0  0  0
   11.0410  -13.1290   14.6750 C   0  0  0  0  0  0  0  0  0  0  0  0
   11.4710  -11.7210   14.8500 C   0  0  0  0  0  0  0  0  0  0  0  0
   12.3390  -11.0850   14.1260 N   0  0  0  0  0  0  0  0  0  0  0  0
   12.9030  -11.8000   13.0990 C   0  0  0  0  0  0  0  0  0  0  0  0
   13.8360  -11.4530   12.1350 C   0  0  0  0  0  0  0  0  0  0  0  0
   14.4630  -10.1510   11.9970 C   0  0  0  0  0  0  0  0  0  0  0  0
   13.8000   -9.0920   11.3660 C   0  0  0  0  0  0  0  0  0  0  0  0
   14.4090   -7.8400   11.2360 C   0  0  0  0  0  0  0  0  0  0  0  0
   15.7000   -7.6230   11.7400 C   0  0  0  0  0  0  0  0  0  0  0  0
   16.3270   -6.2590   11.6530 C   0  0  0  0  0  0  0  0  0  0  0  0
   17.8270   -6.3290   11.5870 N   0  0  0  0  0  0  0  0  0  0  0  0
   18.5260   -5.1170   12.1440 C   0  0  0  0  0  0  0  0  0  0  0  0
   19.8780   -5.1670   11.4680 C   0  0  0  0  0  0  0  0  0  0  0  0
   19.5240   -5.5750   10.0500 C   0  0  0  0  0  0  0  0  0  0  0  0
   18.4050   -6.5920   10.2100 C   0  0  0  0  0  0  0  0  0  0  0  0
   16.3710   -8.6870   12.3580 C   0  0  0  0  0  0  0  0  0  0  0  0
   15.7590   -9.9390   12.4820 C   0  0  0  0  0  0  0  0  0  0  0  0
   14.0220  -12.6300   11.3850 C   0  0  0  0  0  0  0  0  0  0  0  0
   13.2790  -13.6470   11.8090 N   0  0  0  0  0  0  0  0  0  0  0  0
   12.5690  -13.1490   12.8590 N   0  0  0  0  0  0  0  0  0  0  0  0
   10.0880  -15.5300   12.6810 C   0  0  0  0  0  0  0  0  0  0  0  0
    6.2910  -17.9260   11.2050 C   0  0  0  0  0  0  0  0  0  0  0  0
    4.9290  -17.7910   11.4980 C   0  0  0  0  0  0  0  0  0  0  0  0
    3.9750  -18.0410   10.5100 C   0  0  0  0  0  0  0  0  0  0  0  0
    4.3780  -18.4320    9.2310 C   0  0  0  0  0  0  0  0  0  0  0  0
    5.7390  -18.5810    8.9230 C   0  0  0  0  0  0  0  0  0  0  0  0
    6.1760  -19.0400    7.5530 C   0  0  0  0  0  0  0  0  0  0  0  0
    5.1370  -19.1320    6.6810 F   0  0  0  0  0  0  0  0  0  0  0  0
    6.7670  -20.2670    7.5680 F   0  0  0  0  0  0  0  0  0  0  0  0
    7.0800  -18.2010    6.9730 F   0  0  0  0  0  0  0  0  0  0  0  0
    6.6910  -18.3360    9.9260 C   0  0  0  0  0  0  0  0  0  0  0  0
    8.6630  -17.2170   10.7300 H   0  0  0  0  0  0  0  0  0  0  0  0
   10.1797  -18.9316   12.8645 H   0  0  0  0  0  0  0  0  0  0  0  0
   12.2143  -18.4031   14.2022 H   0  0  0  0  0  0  0  0  0  0  0  0
   12.8820  -16.0340   14.5814 H   0  0  0  0  0  0  0  0  0  0  0  0
   10.2941  -13.5945   15.3349 H   0  0  0  0  0  0  0  0  0  0  0  0
   11.0081  -11.1603   15.6755 H   0  0  0  0  0  0  0  0  0  0  0  0
   12.7866   -9.2467   10.9671 H   0  0  0  0  0  0  0  0  0  0  0  0
   13.8725   -7.0204   10.7355 H   0  0  0  0  0  0  0  0  0  0  0  0
   15.9554   -5.7549   10.7487 H   0  0  0  0  0  0  0  0  0  0  0  0
   16.0537   -5.7022   12.5614 H   0  0  0  0  0  0  0  0  0  0  0  0
   18.1030   -7.1300   12.1690 H   0  0  0  0  0  0  0  0  0  0  0  0
   17.9869   -4.1943   11.8831 H   0  0  0  0  0  0  0  0  0  0  0  0
   18.5889   -5.1179   13.2422 H   0  0  0  0  0  0  0  0  0  0  0  0
   20.3683   -4.1825   11.4873 H   0  0  0  0  0  0  0  0  0  0  0  0
   20.5864   -5.8522   11.9565 H   0  0  0  0  0  0  0  0  0  0  0  0
   19.1787   -4.7059    9.4709 H   0  0  0  0  0  0  0  0  0  0  0  0
   20.3874   -5.9875    9.5074 H   0  0  0  0  0  0  0  0  0  0  0  0
   17.6379   -6.4474    9.4350 H   0  0  0  0  0  0  0  0  0  0  0  0
   18.7685   -7.6250   10.1057 H   0  0  0  0  0  0  0  0  0  0  0  0
   17.3880   -8.5364   12.7491 H   0  0  0  0  0  0  0  0  0  0  0  0
   16.3015  -10.7649   12.9653 H   0  0  0  0  0  0  0  0  0  0  0  0
   14.7137  -12.7007   10.5326 H   0  0  0  0  0  0  0  0  0  0  0  0
    9.4942  -14.7171   12.2376 H   0  0  0  0  0  0  0  0  0  0  0  0
    4.6105  -17.4880   12.5063 H   0  0  0  0  0  0  0  0  0  0  0  0
    2.9048  -17.9300   10.7389 H   0  0  0  0  0  0  0  0  0  0  0  0
    3.6206  -18.6252    8.4571 H   0  0  0  0  0  0  0  0  0  0  0  0
    7.7607  -18.4672    9.7056 H   0  0  0  0  0  0  0  0  0  0  0  0
  1  2  2  0
  2  3  1  0
  3  4  1  0
  4  5  2  0
  5  6  1  0
  6  7  2  0
  7  8  1  0
  8  9  1  0
  9 10  2  0
 10 11  1  0
 11 12  2  0
 12 13  1  0
 13 14  2  0
 14 15  1  0
 15 16  2  0
 16 17  1  0
 17 18  2  0
 18 19  1  0
 19 20  1  0
 20 21  1  0
 21 22  1  0
 22 23  1  0
 23 24  1  0
 18 25  1  0
 25 26  2  0
 14 27  1  0
 27 28  2  0
 28 29  1  0
  8 30  2  0
  2 31  1  0
 31 32  2  0
 32 33  1  0
 33 34  2  0
 34 35  1  0
 35 36  1  0
 36 37  1  0
 36 38  1  0
 36 39  1  0
 35 40  2  0
 30  4  1  0
 40 31  1  0
 29  9  1  0
 29 13  1  0
 26 15  1  0
 24 20  1  0
  3 41  1  0
  5 42  1  0
  6 43  1  0
  7 44  1  0
 10 45  1  0
 11 46  1  0
 16 47  1  0
 17 48  1  0
 19 49  1  0
 19 50  1  0
 20 51  1  0
 21 52  1  0
 21 53  1  0
 22 54  1  0
 22 55  1  0
 23 56  1  0
 23 57  1  0
 24 58  1  0
 24 59  1  0
 25 60  1  0
 26 61  1  0
 27 62  1  0
 30 63  1  0
 32 64  1  0
 33 65  1  0
 34 66  1  0
 40 67  1  0
M  CHG  1  20   1
M  END
>  <meeko>  (3) 
{"is_sidechain": [false], "free_energy": -9.151, "intermolecular_energy": -12.798, "internal_energy": -1.294}

$$$$
LIB_APMUVXPIJNPXQE__M_PUB_ALL__e8__s20260927
     RDKit          3D

 67 72  0  0  0  0  0  0  0  0999 V2000
   15.0780  -19.2320   11.6860 O   0  0  0  0  0  0  0  0  0  0  0  0
   15.9410  -18.3620   11.6540 C   0  0  0  0  0  0  0  0  0  0  0  0
   15.9770  -17.2030   12.4090 N   0  0  0  0  0  0  0  0  0  0  0  0
   14.9780  -16.7240   13.2830 C   0  0  0  0  0  0  0  0  0  0  0  0
   15.0010  -17.1910   14.6010 C   0  0  0  0  0  0  0  0  0  0  0  0
   14.0430  -16.7640   15.5220 C   0  0  0  0  0  0  0  0  0  0  0  0
   13.0520  -15.8630   15.1330 C   0  0  0  0  0  0  0  0  0  0  0  0
   13.0120  -15.3750   13.8220 C   0  0  0  0  0  0  0  0  0  0  0  0
   11.9610  -14.4240   13.3970 C   0  0  0  0  0  0  0  0  0  0  0  0
   11.1320  -14.7800   12.3980 C   0  0  0  0  0  0  0  0  0  0  0  0
   10.0970  -13.7880   12.0200 C   0  0  0  0  0  0  0  0  0  0  0  0
    9.9180  -12.6200   12.5550 N   0  0  0  0  0  0  0  0  0  0  0  0
   10.7820  -12.2840   13.5670 C   0  0  0  0  0  0  0  0  0  0  0  0
   10.8970  -11.1430   14.3430 C   0  0  0  0  0  0  0  0  0  0  0  0
   10.0570   -9.9620   14.2390 C   0  0  0  0  0  0  0  0  0  0  0  0
    8.6990  -10.0100   14.5720 C   0  0  0  0  0  0  0  0  0  0  0  0
    7.8960   -8.8700   14.4690 C   0  0  0  0  0  0  0  0  0  0  0  0
    8.4400   -7.6540   14.0310 C   0  0  0  0  0  0  0  0  0  0  0  0
    7.5870   -6.4170   13.9800 C   0  0  0  0  0  0  0  0  0  0  0  0
    6.2220   -6.6440   14.5680 N   0  0  0  0  0  0  0  0  0  0  0  0
    5.0960   -6.5060   13.5790 C   0  0  0  0  0  0  0  0  0  0  0  0
    3.9050   -6.2100   14.4640 C   0  0  0  0  0  0  0  0  0  0  0  0
    4.4840   -5.2520   15.4870 C   0  0  0  0  0  0  0  0  0  0  0  0
    5.8800   -5.7850   15.7690 C   0  0  0  0  0  0  0  0  0  0  0  0
    9.7960   -7.6090   13.6820 C   0  0  0  0  0  0  0  0  0  0  0  0
   10.5960   -8.7530   13.7820 C   0  0  0  0  0  0  0  0  0  0  0  0
   11.9610  -11.4190   15.2220 C   0  0  0  0  0  0  0  0  0  0  0  0
   12.4980  -12.6210   15.0370 N   0  0  0  0  0  0  0  0  0  0  0  0
   11.7920  -13.1650   14.0070 N   0  0  0  0  0  0  0  0  0  0  0  0
   13.9900  -15.8090   12.9070 C   0  0  0  0  0  0  0  0  0  0  0  0
   17.1140  -18.5680   10.7570 C   0  0  0  0  0  0  0  0  0  0  0  0
   18.3020  -17.8440   10.9180 C   0  0  0  0  0  0  0  0  0  0  0  0
   19.3720  -18.0590   10.0480 C   0  0  0  0  0  0  0  0  0  0  0  0
   19.2590  -18.9900    9.0140 C   0  0  0  0  0  0  0  0  0  0  0  0
   18.0720  -19.7170    8.8320 C   0  0  0  0  0  0  0  0  0  0  0  0
   17.9320  -20.6980    7.6930 C   0  0  0  0  0  0  0  0  0  0  0  0
   16.8370  -20.4490    6.9270 F   0  0  0  0  0  0  0  0  0  0  0  0
   17.8130  -21.9870    8.1150 F   0  0  0  0  0  0  0  0  0  0  0  0
   18.9970  -20.6840    6.8420 F   0  0  0  0  0  0  0  0  0  0  0  0
   16.9970  -19.4880    9.7060 C   0  0  0  0  0  0  0  0  0  0  0  0
   16.8300  -16.6590   12.3790 H   0  0  0  0  0  0  0  0  0  0  0  0
   15.7806  -17.9008   14.9145 H   0  0  0  0  0  0  0  0  0  0  0  0
   14.0697  -17.1386   16.5559 H   0  0  0  0  0  0  0  0  0  0  0  0
   12.2966  -15.5337   15.8617 H   0  0  0  0  0  0  0  0  0  0  0  0
   11.2176  -15.7522   11.8906 H   0  0  0  0  0  0  0  0  0  0  0  0
    9.4136  -14.0703   11.2056 H   0  0  0  0  0  0  0  0  0  0  0  0
    8.2577  -10.9560   14.9190 H   0  0  0  0  0  0  0  0  0  0  0  0
    6.8298   -8.9274   14.7335 H   0  0  0  0  0  0  0  0  0  0  0  0
    8.0880   -5.6176   14.5457 H   0  0  0  0  0  0  0  0  0  0  0  0
    7.4578   -6.1391   12.9235 H   0  0  0  0  0  0  0  0  0  0  0  0
    6.2130   -7.6170   14.9010 H   0  0  0  0  0  0  0  0  0  0  0  0
    5.2837   -5.6793   12.8781 H   0  0  0  0  0  0  0  0  0  0  0  0
    4.9589   -7.3972   12.9489 H   0  0  0  0  0  0  0  0  0  0  0  0
    3.0929   -5.7373   13.8921 H   0  0  0  0  0  0  0  0  0  0  0  0
    3.4574   -7.1099   14.9111 H   0  0  0  0  0  0  0  0  0  0  0  0
    4.5336   -4.2319   15.0785 H   0  0  0  0  0  0  0  0  0  0  0  0
    3.8691   -5.1940   16.3973 H   0  0  0  0  0  0  0  0  0  0  0  0
    6.5971   -4.9569   15.8688 H   0  0  0  0  0  0  0  0  0  0  0  0
    5.9229   -6.3539   16.7095 H   0  0  0  0  0  0  0  0  0  0  0  0
   10.2360   -6.6658   13.3261 H   0  0  0  0  0  0  0  0  0  0  0  0
   11.6578   -8.7020   13.4991 H   0  0  0  0  0  0  0  0  0  0  0  0
   12.3133  -10.7105   15.9862 H   0  0  0  0  0  0  0  0  0  0  0  0
   13.9766  -15.4212   11.8777 H   0  0  0  0  0  0  0  0  0  0  0  0
   18.3917  -17.1066   11.7293 H   0  0  0  0  0  0  0  0  0  0  0  0
   20.3066  -17.4935   10.1774 H   0  0  0  0  0  0  0  0  0  0  0  0
   20.1085  -19.1556    8.3351 H   0  0  0  0  0  0  0  0  0  0  0  0
   16.0538  -20.0360    9.5644 H   0  0  0  0  0  0  0  0  0  0  0  0
  1  2  2  0
  2  3  1  0
  3  4  1  0
  4  5  2  0
  5  6  1  0
  6  7  2  0
  7  8  1  0
  8  9  1  0
  9 10  2  0
 10 11  1  0
 11 12  2  0
 12 13  1  0
 13 14  2  0
 14 15  1  0
 15 16  2  0
 16 17  1  0
 17 18  2  0
 18 19  1  0
 19 20  1  0
 20 21  1  0
 21 22  1  0
 22 23  1  0
 23 24  1  0
 18 25  1  0
 25 26  2  0
 14 27  1  0
 27 28  2  0
 28 29  1  0
  8 30  2  0
  2 31  1  0
 31 32  2  0
 32 33  1  0
 33 34  2  0
 34 35  1  0
 35 36  1  0
 36 37  1  0
 36 38  1  0
 36 39  1  0
 35 40  2  0
 30  4  1  0
 40 31  1  0
 29  9  1  0
 29 13  1  0
 26 15  1  0
 24 20  1  0
  3 41  1  0
  5 42  1  0
  6 43  1  0
  7 44  1  0
 10 45  1  0
 11 46  1  0
 16 47  1  0
 17 48  1  0
 19 49  1  0
 19 50  1  0
 20 51  1  0
 21 52  1  0
 21 53  1  0
 22 54  1  0
 22 55  1  0
 23 56  1  0
 23 57  1  0
 24 58  1  0
 24 59  1  0
 25 60  1  0
 26 61  1  0
 27 62  1  0
 30 63  1  0
 32 64  1  0
 33 65  1  0
 34 66  1  0
 40 67  1  0
M  CHG  1  20   1
M  END
>  <meeko>  (4) 
{"is_sidechain": [false], "free_energy": -9.094, "intermolecular_energy": -12.878, "internal_energy": -1.134}

$$$$
LIB_APMUVXPIJNPXQE__M_PUB_ALL__e8__s20260927
     RDKit          3D

 67 72  0  0  0  0  0  0  0  0999 V2000
   15.1430  -18.4890   12.3130 O   0  0  0  0  0  0  0  0  0  0  0  0
   14.3840  -18.6780   11.3690 C   0  0  0  0  0  0  0  0  0  0  0  0
   13.1100  -18.1610   11.2140 N   0  0  0  0  0  0  0  0  0  0  0  0
   12.3750  -17.4090   12.1560 C   0  0  0  0  0  0  0  0  0  0  0  0
   11.4820  -18.1040   12.9760 C   0  0  0  0  0  0  0  0  0  0  0  0
   10.7180  -17.4260   13.9290 C   0  0  0  0  0  0  0  0  0  0  0  0
   10.8420  -16.0440   14.0700 C   0  0  0  0  0  0  0  0  0  0  0  0
   11.7360  -15.3260   13.2650 C   0  0  0  0  0  0  0  0  0  0  0  0
   11.8690  -13.8600   13.4010 C   0  0  0  0  0  0  0  0  0  0  0  0
   11.0350  -13.2080   14.2340 C   0  0  0  0  0  0  0  0  0  0  0  0
   11.2190  -11.7410   14.3310 C   0  0  0  0  0  0  0  0  0  0  0  0
   12.0990  -11.0310   13.6950 N   0  0  0  0  0  0  0  0  0  0  0  0
   12.9310  -11.7230   12.8500 C   0  0  0  0  0  0  0  0  0  0  0  0
   13.9580  -11.3060   12.0180 C   0  0  0  0  0  0  0  0  0  0  0  0
   14.4050   -9.9340   11.8510 C   0  0  0  0  0  0  0  0  0  0  0  0
   15.6340   -9.5070   12.3660 C   0  0  0  0  0  0  0  0  0  0  0  0
   16.0590   -8.1850   12.2010 C   0  0  0  0  0  0  0  0  0  0  0  0
   15.2590   -7.2620   11.5130 C   0  0  0  0  0  0  0  0  0  0  0  0
   15.7460   -5.8570   11.2850 C   0  0  0  0  0  0  0  0  0  0  0  0
   16.3730   -5.2680   12.5180 N   0  0  0  0  0  0  0  0  0  0  0  0
   15.7650   -3.9620   12.9540 C   0  0  0  0  0  0  0  0  0  0  0  0
   16.8670   -3.3360   13.7790 C   0  0  0  0  0  0  0  0  0  0  0  0
   18.1100   -3.6600   12.9720 C   0  0  0  0  0  0  0  0  0  0  0  0
   17.8750   -5.0700   12.4520 C   0  0  0  0  0  0  0  0  0  0  0  0
   14.0200   -7.6840   11.0120 C   0  0  0  0  0  0  0  0  0  0  0  0
   13.5970   -9.0070   11.1820 C   0  0  0  0  0  0  0  0  0  0  0  0
   14.4400  -12.4910   11.4320 C   0  0  0  0  0  0  0  0  0  0  0  0
   13.7900  -13.5790   11.8320 N   0  0  0  0  0  0  0  0  0  0  0  0
   12.8430  -13.1220   12.6990 N   0  0  0  0  0  0  0  0  0  0  0  0
   12.5040  -16.0250   12.3150 C   0  0  0  0  0  0  0  0  0  0  0  0
   14.8730  -19.5040   10.2280 C   0  0  0  0  0  0  0  0  0  0  0  0
   14.0660  -20.4740    9.6210 C   0  0  0  0  0  0  0  0  0  0  0  0
   14.5670  -21.2340    8.5620 C   0  0  0  0  0  0  0  0  0  0  0  0
   15.8730  -21.0320    8.1120 C   0  0  0  0  0  0  0  0  0  0  0  0
   16.6990  -20.0700    8.7150 C   0  0  0  0  0  0  0  0  0  0  0  0
   18.1230  -19.8750    8.2550 C   0  0  0  0  0  0  0  0  0  0  0  0
   18.3270  -18.6480    7.7080 F   0  0  0  0  0  0  0  0  0  0  0  0
   18.5030  -20.7780    7.3090 F   0  0  0  0  0  0  0  0  0  0  0  0
   19.0310  -19.9930    9.2650 F   0  0  0  0  0  0  0  0  0  0  0  0
   16.1890  -19.3170    9.7850 C   0  0  0  0  0  0  0  0  0  0  0  0
   12.6680  -18.2850   10.3130 H   0  0  0  0  0  0  0  0  0  0  0  0
   11.3798  -19.1941   12.8702 H   0  0  0  0  0  0  0  0  0  0  0  0
   10.0177  -17.9828   14.5690 H   0  0  0  0  0  0  0  0  0  0  0  0
   10.2339  -15.5143   14.8181 H   0  0  0  0  0  0  0  0  0  0  0  0
   10.2604  -13.7353   14.8102 H   0  0  0  0  0  0  0  0  0  0  0  0
   10.5425  -11.2004   15.0094 H   0  0  0  0  0  0  0  0  0  0  0  0
   16.2735  -10.2198   12.9072 H   0  0  0  0  0  0  0  0  0  0  0  0
   17.0277   -7.8671   12.6139 H   0  0  0  0  0  0  0  0  0  0  0  0
   16.4931   -5.8673   10.4777 H   0  0  0  0  0  0  0  0  0  0  0  0
   14.8776   -5.2370   11.0177 H   0  0  0  0  0  0  0  0  0  0  0  0
   16.2080   -5.9450   13.2740 H   0  0  0  0  0  0  0  0  0  0  0  0
   15.5137   -3.3333   12.0870 H   0  0  0  0  0  0  0  0  0  0  0  0
   14.8230   -4.0847   13.5086 H   0  0  0  0  0  0  0  0  0  0  0  0
   16.7255   -2.2490   13.8709 H   0  0  0  0  0  0  0  0  0  0  0  0
   16.9065   -3.7109   14.8124 H   0  0  0  0  0  0  0  0  0  0  0  0
   18.2261   -2.9529   12.1374 H   0  0  0  0  0  0  0  0  0  0  0  0
   19.0281   -3.5854   13.5732 H   0  0  0  0  0  0  0  0  0  0  0  0
   18.2322   -5.1644   11.4159 H   0  0  0  0  0  0  0  0  0  0  0  0
   18.4172   -5.8235   13.0421 H   0  0  0  0  0  0  0  0  0  0  0  0
   13.3746   -6.9691   10.4806 H   0  0  0  0  0  0  0  0  0  0  0  0
   12.6201   -9.3216   10.7861 H   0  0  0  0  0  0  0  0  0  0  0  0
   15.2727  -12.5145   10.7136 H   0  0  0  0  0  0  0  0  0  0  0  0
   13.2184  -15.4733   11.6863 H   0  0  0  0  0  0  0  0  0  0  0  0
   13.0384  -20.6372    9.9780 H   0  0  0  0  0  0  0  0  0  0  0  0
   13.9318  -21.9928    8.0818 H   0  0  0  0  0  0  0  0  0  0  0  0
   16.2592  -21.6332    7.2757 H   0  0  0  0  0  0  0  0  0  0  0  0
   16.8294  -18.5725   10.2806 H   0  0  0  0  0  0  0  0  0  0  0  0
  1  2  2  0
  2  3  1  0
  3  4  1  0
  4  5  2  0
  5  6  1  0
  6  7  2  0
  7  8  1  0
  8  9  1  0
  9 10  2  0
 10 11  1  0
 11 12  2  0
 12 13  1  0
 13 14  2  0
 14 15  1  0
 15 16  2  0
 16 17  1  0
 17 18  2  0
 18 19  1  0
 19 20  1  0
 20 21  1  0
 21 22  1  0
 22 23  1  0
 23 24  1  0
 18 25  1  0
 25 26  2  0
 14 27  1  0
 27 28  2  0
 28 29  1  0
  8 30  2  0
  2 31  1  0
 31 32  2  0
 32 33  1  0
 33 34  2  0
 34 35  1  0
 35 36  1  0
 36 37  1  0
 36 38  1  0
 36 39  1  0
 35 40  2  0
 30  4  1  0
 40 31  1  0
 29  9  1  0
 29 13  1  0
 26 15  1  0
 24 20  1  0
  3 41  1  0
  5 42  1  0
  6 43  1  0
  7 44  1  0
 10 45  1  0
 11 46  1  0
 16 47  1  0
 17 48  1  0
 19 49  1  0
 19 50  1  0
 20 51  1  0
 21 52  1  0
 21 53  1  0
 22 54  1  0
 22 55  1  0
 23 56  1  0
 23 57  1  0
 24 58  1  0
 24 59  1  0
 25 60  1  0
 26 61  1  0
 27 62  1  0
 30 63  1  0
 32 64  1  0
 33 65  1  0
 34 66  1  0
 40 67  1  0
M  CHG  1  20   1
M  END
>  <meeko>  (5) 
{"is_sidechain": [false], "free_energy": -9.089, "intermolecular_energy": -13.363, "internal_energy": -0.642}

$$$$
LIB_APMUVXPIJNPXQE__M_PUB_ALL__e8__s20260927
     RDKit          3D

 67 72  0  0  0  0  0  0  0  0999 V2000
   -0.6320  -14.3590    3.6990 O   0  0  0  0  0  0  0  0  0  0  0  0
   -1.2900  -14.8660    2.7980 C   0  0  0  0  0  0  0  0  0  0  0  0
   -1.2720  -14.5130    1.4600 N   0  0  0  0  0  0  0  0  0  0  0  0
   -0.5850  -13.4290    0.8740 C   0  0  0  0  0  0  0  0  0  0  0  0
   -1.1830  -12.1680    0.9610 C   0  0  0  0  0  0  0  0  0  0  0  0
   -0.5640  -11.0480    0.4020 C   0  0  0  0  0  0  0  0  0  0  0  0
    0.6620  -11.1790   -0.2500 C   0  0  0  0  0  0  0  0  0  0  0  0
    1.2850  -12.4300   -0.3440 C   0  0  0  0  0  0  0  0  0  0  0  0
    2.5810  -12.5810   -1.0390 C   0  0  0  0  0  0  0  0  0  0  0  0
    3.7160  -12.3490   -0.3520 C   0  0  0  0  0  0  0  0  0  0  0  0
    4.9830  -12.5200   -1.1020 C   0  0  0  0  0  0  0  0  0  0  0  0
    5.1020  -12.8670   -2.3460 N   0  0  0  0  0  0  0  0  0  0  0  0
    3.9280  -13.0910   -3.0210 C   0  0  0  0  0  0  0  0  0  0  0  0
    3.6710  -13.4560   -4.3320 C   0  0  0  0  0  0  0  0  0  0  0  0
    4.6750  -13.6960   -5.3540 C   0  0  0  0  0  0  0  0  0  0  0  0
    4.8660  -12.7940   -6.4060 C   0  0  0  0  0  0  0  0  0  0  0  0
    5.8350  -13.0300   -7.3860 C   0  0  0  0  0  0  0  0  0  0  0  0
    6.6370  -14.1790   -7.3300 C   0  0  0  0  0  0  0  0  0  0  0  0
    7.7180  -14.3990   -8.3510 C   0  0  0  0  0  0  0  0  0  0  0  0
    7.5670  -13.4930   -9.5410 N   0  0  0  0  0  0  0  0  0  0  0  0
    6.8170  -14.1090  -10.6930 C   0  0  0  0  0  0  0  0  0  0  0  0
    7.2870  -13.2910  -11.8760 C   0  0  0  0  0  0  0  0  0  0  0  0
    8.7690  -13.1290  -11.5980 C   0  0  0  0  0  0  0  0  0  0  0  0
    8.8600  -12.9250  -10.0930 C   0  0  0  0  0  0  0  0  0  0  0  0
    6.4360  -15.0920   -6.2860 C   0  0  0  0  0  0  0  0  0  0  0  0
    5.4620  -14.8530   -5.3090 C   0  0  0  0  0  0  0  0  0  0  0  0
    2.2690  -13.5510   -4.4050 C   0  0  0  0  0  0  0  0  0  0  0  0
    1.6620  -13.2680   -3.2560 N   0  0  0  0  0  0  0  0  0  0  0  0
    2.6720  -12.9670   -2.3920 N   0  0  0  0  0  0  0  0  0  0  0  0
    0.6520  -13.5470    0.2320 C   0  0  0  0  0  0  0  0  0  0  0  0
   -2.1740  -16.0190    3.1350 C   0  0  0  0  0  0  0  0  0  0  0  0
   -1.9050  -17.3130    2.6740 C   0  0  0  0  0  0  0  0  0  0  0  0
   -2.7650  -18.3630    3.0030 C   0  0  0  0  0  0  0  0  0  0  0  0
   -3.8960  -18.1220    3.7860 C   0  0  0  0  0  0  0  0  0  0  0  0
   -4.1850  -16.8290    4.2480 C   0  0  0  0  0  0  0  0  0  0  0  0
   -5.4270  -16.5580    5.0630 C   0  0  0  0  0  0  0  0  0  0  0  0
   -5.1790  -16.5600    6.4000 F   0  0  0  0  0  0  0  0  0  0  0  0
   -6.4060  -17.4820    4.8590 F   0  0  0  0  0  0  0  0  0  0  0  0
   -5.9940  -15.3500    4.7880 F   0  0  0  0  0  0  0  0  0  0  0  0
   -3.3190  -15.7780    3.9040 C   0  0  0  0  0  0  0  0  0  0  0  0
   -1.7570  -15.1230    0.8150 H   0  0  0  0  0  0  0  0  0  0  0  0
   -2.1496  -12.0573    1.4743 H   0  0  0  0  0  0  0  0  0  0  0  0
   -1.0440  -10.0610    0.4760 H   0  0  0  0  0  0  0  0  0  0  0  0
    1.1427  -10.2944   -0.6932 H   0  0  0  0  0  0  0  0  0  0  0  0
    3.7034  -12.0494    0.7063 H   0  0  0  0  0  0  0  0  0  0  0  0
    5.9152  -12.3341   -0.5484 H   0  0  0  0  0  0  0  0  0  0  0  0
    4.2458  -11.8873   -6.4630 H   0  0  0  0  0  0  0  0  0  0  0  0
    5.9691  -12.3096   -8.2064 H   0  0  0  0  0  0  0  0  0  0  0  0
    8.6938  -14.2070   -7.8810 H   0  0  0  0  0  0  0  0  0  0  0  0
    7.6421  -15.4377   -8.7052 H   0  0  0  0  0  0  0  0  0  0  0  0
    7.0160  -12.6880   -9.2190 H   0  0  0  0  0  0  0  0  0  0  0  0
    7.0807  -15.1699  -10.8152 H   0  0  0  0  0  0  0  0  0  0  0  0
    5.7252  -14.0935  -10.5595 H   0  0  0  0  0  0  0  0  0  0  0  0
    7.1165  -13.8262  -12.8218 H   0  0  0  0  0  0  0  0  0  0  0  0
    6.7552  -12.3344  -11.9855 H   0  0  0  0  0  0  0  0  0  0  0  0
    9.3213  -14.0306  -11.9013 H   0  0  0  0  0  0  0  0  0  0  0  0
    9.2083  -12.2908  -12.1588 H   0  0  0  0  0  0  0  0  0  0  0  0
    9.7259  -13.4642   -9.6814 H   0  0  0  0  0  0  0  0  0  0  0  0
    8.9929  -11.8660   -9.8269 H   0  0  0  0  0  0  0  0  0  0  0  0
    7.0486  -16.0041   -6.2337 H   0  0  0  0  0  0  0  0  0  0  0  0
    5.3137  -15.5814   -4.4982 H   0  0  0  0  0  0  0  0  0  0  0  0
    1.7288  -13.8314   -5.3213 H   0  0  0  0  0  0  0  0  0  0  0  0
    1.1393  -14.5316    0.1763 H   0  0  0  0  0  0  0  0  0  0  0  0
   -1.0170  -17.5027    2.0531 H   0  0  0  0  0  0  0  0  0  0  0  0
   -2.5513  -19.3809    2.6450 H   0  0  0  0  0  0  0  0  0  0  0  0
   -4.5673  -18.9546    4.0432 H   0  0  0  0  0  0  0  0  0  0  0  0
   -3.5426  -14.7554    4.2421 H   0  0  0  0  0  0  0  0  0  0  0  0
  1  2  2  0
  2  3  1  0
  3  4  1  0
  4  5  2  0
  5  6  1  0
  6  7  2  0
  7  8  1  0
  8  9  1  0
  9 10  2  0
 10 11  1  0
 11 12  2  0
 12 13  1  0
 13 14  2  0
 14 15  1  0
 15 16  2  0
 16 17  1  0
 17 18  2  0
 18 19  1  0
 19 20  1  0
 20 21  1  0
 21 22  1  0
 22 23  1  0
 23 24  1  0
 18 25  1  0
 25 26  2  0
 14 27  1  0
 27 28  2  0
 28 29  1  0
  8 30  2  0
  2 31  1  0
 31 32  2  0
 32 33  1  0
 33 34  2  0
 34 35  1  0
 35 36  1  0
 36 37  1  0
 36 38  1  0
 36 39  1  0
 35 40  2  0
 30  4  1  0
 40 31  1  0
 29  9  1  0
 29 13  1  0
 26 15  1  0
 24 20  1  0
  3 41  1  0
  5 42  1  0
  6 43  1  0
  7 44  1  0
 10 45  1  0
 11 46  1  0
 16 47  1  0
 17 48  1  0
 19 49  1  0
 19 50  1  0
 20 51  1  0
 21 52  1  0
 21 53  1  0
 22 54  1  0
 22 55  1  0
 23 56  1  0
 23 57  1  0
 24 58  1  0
 24 59  1  0
 25 60  1  0
 26 61  1  0
 27 62  1  0
 30 63  1  0
 32 64  1  0
 33 65  1  0
 34 66  1  0
 40 67  1  0
M  CHG  1  20   1
M  END
>  <meeko>  (6) 
{"is_sidechain": [false], "free_energy": -8.942, "intermolecular_energy": -12.52, "internal_energy": -1.278}

$$$$
LIB_APMUVXPIJNPXQE__M_PUB_ALL__e8__s20260927
     RDKit          3D

 67 72  0  0  0  0  0  0  0  0999 V2000
    6.8990  -13.5710   -5.4530 O   0  0  0  0  0  0  0  0  0  0  0  0
    6.1300  -13.7660   -6.3880 C   0  0  0  0  0  0  0  0  0  0  0  0
    4.7860  -13.4410   -6.4350 N   0  0  0  0  0  0  0  0  0  0  0  0
    3.9960  -12.9280   -5.3850 C   0  0  0  0  0  0  0  0  0  0  0  0
    3.8870  -11.5380   -5.2830 C   0  0  0  0  0  0  0  0  0  0  0  0
    3.1240  -10.9580   -4.2680 C   0  0  0  0  0  0  0  0  0  0  0  0
    2.4610  -11.7640   -3.3430 C   0  0  0  0  0  0  0  0  0  0  0  0
    2.5480  -13.1590   -3.4280 C   0  0  0  0  0  0  0  0  0  0  0  0
    1.8550  -14.0240   -2.4480 C   0  0  0  0  0  0  0  0  0  0  0  0
    0.6140  -14.4600   -2.7340 C   0  0  0  0  0  0  0  0  0  0  0  0
   -0.0280  -15.3250   -1.7150 C   0  0  0  0  0  0  0  0  0  0  0  0
    0.4880  -15.6970   -0.5840 N   0  0  0  0  0  0  0  0  0  0  0  0
    1.7520  -15.2320   -0.3200 C   0  0  0  0  0  0  0  0  0  0  0  0
    2.5930  -15.4080    0.7670 C   0  0  0  0  0  0  0  0  0  0  0  0
    2.2860  -16.1860    1.9550 C   0  0  0  0  0  0  0  0  0  0  0  0
    1.7760  -15.5760    3.1070 C   0  0  0  0  0  0  0  0  0  0  0  0
    1.4820  -16.3310    4.2460 C   0  0  0  0  0  0  0  0  0  0  0  0
    1.6920  -17.7170    4.2540 C   0  0  0  0  0  0  0  0  0  0  0  0
    1.3180  -18.5330    5.4600 C   0  0  0  0  0  0  0  0  0  0  0  0
    1.8770  -17.9570    6.7310 N   0  0  0  0  0  0  0  0  0  0  0  0
    2.7400  -18.9110    7.5120 C   0  0  0  0  0  0  0  0  0  0  0  0
    2.6860  -18.3430    8.9140 C   0  0  0  0  0  0  0  0  0  0  0  0
    1.2300  -17.9430    9.0520 C   0  0  0  0  0  0  0  0  0  0  0  0
    0.8520  -17.3830    7.6900 C   0  0  0  0  0  0  0  0  0  0  0  0
    2.2180  -18.3260    3.1070 C   0  0  0  0  0  0  0  0  0  0  0  0
    2.5140  -17.5670    1.9700 C   0  0  0  0  0  0  0  0  0  0  0  0
    3.7600  -14.6980    0.4290 C   0  0  0  0  0  0  0  0  0  0  0  0
    3.6910  -14.1070   -0.7590 N   0  0  0  0  0  0  0  0  0  0  0  0
    2.4510  -14.4130   -1.2310 N   0  0  0  0  0  0  0  0  0  0  0  0
    3.3140  -13.7290   -4.4620 C   0  0  0  0  0  0  0  0  0  0  0  0
    6.6790  -14.3660   -7.6370 C   0  0  0  0  0  0  0  0  0  0  0  0
    7.2990  -15.6210   -7.6410 C   0  0  0  0  0  0  0  0  0  0  0  0
    7.8100  -16.1420   -8.8310 C   0  0  0  0  0  0  0  0  0  0  0  0
    7.7100  -15.4110  -10.0160 C   0  0  0  0  0  0  0  0  0  0  0  0
    7.1010  -14.1460  -10.0280 C   0  0  0  0  0  0  0  0  0  0  0  0
    7.0240  -13.3360  -11.2990 C   0  0  0  0  0  0  0  0  0  0  0  0
    6.0720  -13.8010  -12.1530 F   0  0  0  0  0  0  0  0  0  0  0  0
    8.1920  -13.3370  -11.9990 F   0  0  0  0  0  0  0  0  0  0  0  0
    6.7240  -12.0250  -11.0800 F   0  0  0  0  0  0  0  0  0  0  0  0
    6.5970  -13.6260   -8.8240 C   0  0  0  0  0  0  0  0  0  0  0  0
    4.3220  -13.5270   -7.3300 H   0  0  0  0  0  0  0  0  0  0  0  0
    4.4070  -10.8957   -6.0089 H   0  0  0  0  0  0  0  0  0  0  0  0
    3.0456   -9.8631   -4.1977 H   0  0  0  0  0  0  0  0  0  0  0  0
    1.8661  -11.3011   -2.5418 H   0  0  0  0  0  0  0  0  0  0  0  0
    0.1048  -14.1898   -3.6709 H   0  0  0  0  0  0  0  0  0  0  0  0
   -1.0420  -15.6872   -1.9401 H   0  0  0  0  0  0  0  0  0  0  0  0
    1.6045  -14.4895    3.1161 H   0  0  0  0  0  0  0  0  0  0  0  0
    1.0830  -15.8340    5.1425 H   0  0  0  0  0  0  0  0  0  0  0  0
    0.2213  -18.5667    5.5387 H   0  0  0  0  0  0  0  0  0  0  0  0
    1.7413  -19.5400    5.3308 H   0  0  0  0  0  0  0  0  0  0  0  0
    2.4750  -17.1700    6.4490 H   0  0  0  0  0  0  0  0  0  0  0  0
    2.3299  -19.9313    7.4820 H   0  0  0  0  0  0  0  0  0  0  0  0
    3.7628  -18.9961    7.1162 H   0  0  0  0  0  0  0  0  0  0  0  0
    2.9620  -19.1019    9.6609 H   0  0  0  0  0  0  0  0  0  0  0  0
    3.3861  -17.5102    9.0763 H   0  0  0  0  0  0  0  0  0  0  0  0
    0.6093  -18.8173    9.2977 H   0  0  0  0  0  0  0  0  0  0  0  0
    1.0741  -17.2128    9.8597 H   0  0  0  0  0  0  0  0  0  0  0  0
   -0.1622  -17.7026    7.4086 H   0  0  0  0  0  0  0  0  0  0  0  0
    0.8493  -16.2830    7.6819 H   0  0  0  0  0  0  0  0  0  0  0  0
    2.3998  -19.4109    3.1006 H   0  0  0  0  0  0  0  0  0  0  0  0
    2.9300  -18.0601    1.0790 H   0  0  0  0  0  0  0  0  0  0  0  0
    4.6420  -14.6382    1.0835 H   0  0  0  0  0  0  0  0  0  0  0  0
    3.3778  -14.8239   -4.5462 H   0  0  0  0  0  0  0  0  0  0  0  0
    7.3835  -16.1962   -6.7072 H   0  0  0  0  0  0  0  0  0  0  0  0
    8.2924  -17.1306   -8.8349 H   0  0  0  0  0  0  0  0  0  0  0  0
    8.1124  -15.8303  -10.9499 H   0  0  0  0  0  0  0  0  0  0  0  0
    6.1336  -12.6284   -8.8131 H   0  0  0  0  0  0  0  0  0  0  0  0
  1  2  2  0
  2  3  1  0
  3  4  1  0
  4  5  2  0
  5  6  1  0
  6  7  2  0
  7  8  1  0
  8  9  1  0
  9 10  2  0
 10 11  1  0
 11 12  2  0
 12 13  1  0
 13 14  2  0
 14 15  1  0
 15 16  2  0
 16 17  1  0
 17 18  2  0
 18 19  1  0
 19 20  1  0
 20 21  1  0
 21 22  1  0
 22 23  1  0
 23 24  1  0
 18 25  1  0
 25 26  2  0
 14 27  1  0
 27 28  2  0
 28 29  1  0
  8 30  2  0
  2 31  1  0
 31 32  2  0
 32 33  1  0
 33 34  2  0
 34 35  1  0
 35 36  1  0
 36 37  1  0
 36 38  1  0
 36 39  1  0
 35 40  2  0
 30  4  1  0
 40 31  1  0
 29  9  1  0
 29 13  1  0
 26 15  1  0
 24 20  1  0
  3 41  1  0
  5 42  1  0
  6 43  1  0
  7 44  1  0
 10 45  1  0
 11 46  1  0
 16 47  1  0
 17 48  1  0
 19 49  1  0
 19 50  1  0
 20 51  1  0
 21 52  1  0
 21 53  1  0
 22 54  1  0
 22 55  1  0
 23 56  1  0
 23 57  1  0
 24 58  1  0
 24 59  1  0
 25 60  1  0
 26 61  1  0
 27 62  1  0
 30 63  1  0
 32 64  1  0
 33 65  1  0
 34 66  1  0
 40 67  1  0
M  CHG  1  20   1
M  END
>  <meeko>  (7) 
{"is_sidechain": [false], "free_energy": -8.906, "intermolecular_energy": -12.423, "internal_energy": -1.324}

$$$$
LIB_APMUVXPIJNPXQE__M_PUB_ALL__e8__s20260927
     RDKit          3D

 67 72  0  0  0  0  0  0  0  0999 V2000
    9.9360  -14.8920   -2.5990 O   0  0  0  0  0  0  0  0  0  0  0  0
   10.1140  -13.8920   -3.2870 C   0  0  0  0  0  0  0  0  0  0  0  0
    9.2780  -13.4100   -4.2780 N   0  0  0  0  0  0  0  0  0  0  0  0
    8.1110  -14.0230   -4.7820 C   0  0  0  0  0  0  0  0  0  0  0  0
    8.2680  -14.9420   -5.8240 C   0  0  0  0  0  0  0  0  0  0  0  0
    7.1590  -15.5860   -6.3760 C   0  0  0  0  0  0  0  0  0  0  0  0
    5.8790  -15.3160   -5.8890 C   0  0  0  0  0  0  0  0  0  0  0  0
    5.6970  -14.4060   -4.8420 C   0  0  0  0  0  0  0  0  0  0  0  0
    4.3440  -14.1070   -4.3230 C   0  0  0  0  0  0  0  0  0  0  0  0
    3.6380  -13.1120   -4.8920 C   0  0  0  0  0  0  0  0  0  0  0  0
    2.2880  -12.8630   -4.3320 C   0  0  0  0  0  0  0  0  0  0  0  0
    1.7290  -13.5060   -3.3540 N   0  0  0  0  0  0  0  0  0  0  0  0
    2.4760  -14.5110   -2.7910 C   0  0  0  0  0  0  0  0  0  0  0  0
    2.2160  -15.3810   -1.7450 C   0  0  0  0  0  0  0  0  0  0  0  0
    0.9960  -15.4130   -0.9570 C   0  0  0  0  0  0  0  0  0  0  0  0
    1.0390  -15.4150    0.4420 C   0  0  0  0  0  0  0  0  0  0  0  0
   -0.1390  -15.4460    1.1940 C   0  0  0  0  0  0  0  0  0  0  0  0
   -1.3880  -15.4740    0.5580 C   0  0  0  0  0  0  0  0  0  0  0  0
   -2.6530  -15.4450    1.3700 C   0  0  0  0  0  0  0  0  0  0  0  0
   -3.2380  -14.0640    1.4600 N   0  0  0  0  0  0  0  0  0  0  0  0
   -4.2160  -13.7370    0.3630 C   0  0  0  0  0  0  0  0  0  0  0  0
   -4.1980  -12.2240    0.3360 C   0  0  0  0  0  0  0  0  0  0  0  0
   -2.7260  -11.9070    0.5140 C   0  0  0  0  0  0  0  0  0  0  0  0
   -2.2290  -12.9330    1.5200 C   0  0  0  0  0  0  0  0  0  0  0  0
   -1.4320  -15.4880   -0.8430 C   0  0  0  0  0  0  0  0  0  0  0  0
   -0.2500  -15.4610   -1.5920 C   0  0  0  0  0  0  0  0  0  0  0  0
    3.3640  -16.1910   -1.6660 C   0  0  0  0  0  0  0  0  0  0  0  0
    4.2910  -15.8800   -2.5670 N   0  0  0  0  0  0  0  0  0  0  0  0
    3.7660  -14.8330   -3.2620 N   0  0  0  0  0  0  0  0  0  0  0  0
    6.8260  -13.7710   -4.2910 C   0  0  0  0  0  0  0  0  0  0  0  0
   11.3210  -13.0610   -3.0190 C   0  0  0  0  0  0  0  0  0  0  0  0
   12.3280  -12.8920   -3.9770 C   0  0  0  0  0  0  0  0  0  0  0  0
   13.4490  -12.1140   -3.6820 C   0  0  0  0  0  0  0  0  0  0  0  0
   13.5700  -11.5080   -2.4300 C   0  0  0  0  0  0  0  0  0  0  0  0
   12.5750  -11.6740   -1.4540 C   0  0  0  0  0  0  0  0  0  0  0  0
   12.7200  -11.0510   -0.0870 C   0  0  0  0  0  0  0  0  0  0  0  0
   13.8920  -11.3880    0.5140 F   0  0  0  0  0  0  0  0  0  0  0  0
   11.7330  -11.4260    0.7740 F   0  0  0  0  0  0  0  0  0  0  0  0
   12.6890   -9.6890   -0.1140 F   0  0  0  0  0  0  0  0  0  0  0  0
   11.4550  -12.4660   -1.7570 C   0  0  0  0  0  0  0  0  0  0  0  0
    9.4870  -12.4930   -4.6520 H   0  0  0  0  0  0  0  0  0  0  0  0
    9.2740  -15.1595   -6.2122 H   0  0  0  0  0  0  0  0  0  0  0  0
    7.2941  -16.3070   -7.1957 H   0  0  0  0  0  0  0  0  0  0  0  0
    5.0080  -15.8218   -6.3312 H   0  0  0  0  0  0  0  0  0  0  0  0
    4.0401  -12.5172   -5.7254 H   0  0  0  0  0  0  0  0  0  0  0  0
    1.7026  -12.0529   -4.7913 H   0  0  0  0  0  0  0  0  0  0  0  0
    2.0113  -15.3919    0.9559 H   0  0  0  0  0  0  0  0  0  0  0  0
   -0.0855  -15.4484    2.2927 H   0  0  0  0  0  0  0  0  0  0  0  0
   -3.3907  -16.1123    0.9005 H   0  0  0  0  0  0  0  0  0  0  0  0
   -2.4071  -15.7748    2.3902 H   0  0  0  0  0  0  0  0  0  0  0  0
   -3.7580  -14.0300    2.3460 H   0  0  0  0  0  0  0  0  0  0  0  0
   -3.8854  -14.1542   -0.5996 H   0  0  0  0  0  0  0  0  0  0  0  0
   -5.2181  -14.1571    0.5342 H   0  0  0  0  0  0  0  0  0  0  0  0
   -4.5737  -11.8396   -0.6237 H   0  0  0  0  0  0  0  0  0  0  0  0
   -4.8399  -11.7653    1.1025 H   0  0  0  0  0  0  0  0  0  0  0  0
   -2.1892  -12.0083   -0.4408 H   0  0  0  0  0  0  0  0  0  0  0  0
   -2.5611  -10.8747    0.8564 H   0  0  0  0  0  0  0  0  0  0  0  0
   -1.2276  -13.2933    1.2418 H   0  0  0  0  0  0  0  0  0  0  0  0
   -2.1423  -12.5105    2.5319 H   0  0  0  0  0  0  0  0  0  0  0  0
   -2.4035  -15.5205   -1.3580 H   0  0  0  0  0  0  0  0  0  0  0  0
   -0.3010  -15.4777   -2.6907 H   0  0  0  0  0  0  0  0  0  0  0  0
    3.4827  -17.0012   -0.9316 H   0  0  0  0  0  0  0  0  0  0  0  0
    6.6951  -13.0635   -3.4589 H   0  0  0  0  0  0  0  0  0  0  0  0
   12.2358  -13.3723   -4.9623 H   0  0  0  0  0  0  0  0  0  0  0  0
   14.2377  -11.9783   -4.4367 H   0  0  0  0  0  0  0  0  0  0  0  0
   14.4547  -10.8938   -2.2061 H   0  0  0  0  0  0  0  0  0  0  0  0
   10.6755  -12.6207   -0.9964 H   0  0  0  0  0  0  0  0  0  0  0  0
  1  2  2  0
  2  3  1  0
  3  4  1  0
  4  5  2  0
  5  6  1  0
  6  7  2  0
  7  8  1  0
  8  9  1  0
  9 10  2  0
 10 11  1  0
 11 12  2  0
 12 13  1  0
 13 14  2  0
 14 15  1  0
 15 16  2  0
 16 17  1  0
 17 18  2  0
 18 19  1  0
 19 20  1  0
 20 21  1  0
 21 22  1  0
 22 23  1  0
 23 24  1  0
 18 25  1  0
 25 26  2  0
 14 27  1  0
 27 28  2  0
 28 29  1  0
  8 30  2  0
  2 31  1  0
 31 32  2  0
 32 33  1  0
 33 34  2  0
 34 35  1  0
 35 36  1  0
 36 37  1  0
 36 38  1  0
 36 39  1  0
 35 40  2  0
 30  4  1  0
 40 31  1  0
 29  9  1  0
 29 13  1  0
 26 15  1  0
 24 20  1  0
  3 41  1  0
  5 42  1  0
  6 43  1  0
  7 44  1  0
 10 45  1  0
 11 46  1  0
 16 47  1  0
 17 48  1  0
 19 49  1  0
 19 50  1  0
 20 51  1  0
 21 52  1  0
 21 53  1  0
 22 54  1  0
 22 55  1  0
 23 56  1  0
 23 57  1  0
 24 58  1  0
 24 59  1  0
 25 60  1  0
 26 61  1  0
 27 62  1  0
 30 63  1  0
 32 64  1  0
 33 65  1  0
 34 66  1  0
 40 67  1  0
M  CHG  1  20   1
M  END
>  <meeko>  (8) 
{"is_sidechain": [false], "free_energy": -8.904, "intermolecular_energy": -12.617, "internal_energy": -1.128}

$$$$
LIB_APMUVXPIJNPXQE__M_PUB_ALL__e8__s20260927
     RDKit          3D

 67 72  0  0  0  0  0  0  0  0999 V2000
    0.8330  -14.7480    0.9210 O   0  0  0  0  0  0  0  0  0  0  0  0
    0.9210  -13.5770    1.2720 C   0  0  0  0  0  0  0  0  0  0  0  0
    2.0580  -12.7880    1.2450 N   0  0  0  0  0  0  0  0  0  0  0  0
    3.3700  -13.1940    0.9200 C   0  0  0  0  0  0  0  0  0  0  0  0
    4.0770  -13.9150    1.8870 C   0  0  0  0  0  0  0  0  0  0  0  0
    5.3810  -14.3480    1.6380 C   0  0  0  0  0  0  0  0  0  0  0  0
    5.9910  -14.0630    0.4170 C   0  0  0  0  0  0  0  0  0  0  0  0
    5.3010  -13.3490   -0.5710 C   0  0  0  0  0  0  0  0  0  0  0  0
    5.9420  -13.0350   -1.8660 C   0  0  0  0  0  0  0  0  0  0  0  0
    6.7680  -11.9740   -1.9400 C   0  0  0  0  0  0  0  0  0  0  0  0
    7.3820  -11.7130   -3.2640 C   0  0  0  0  0  0  0  0  0  0  0  0
    7.2010  -12.4020   -4.3470 N   0  0  0  0  0  0  0  0  0  0  0  0
    6.3490  -13.4740   -4.2410 C   0  0  0  0  0  0  0  0  0  0  0  0
    5.9170  -14.4060   -5.1700 C   0  0  0  0  0  0  0  0  0  0  0  0
    6.3060  -14.4470   -6.5690 C   0  0  0  0  0  0  0  0  0  0  0  0
    7.0380  -15.5230   -7.0850 C   0  0  0  0  0  0  0  0  0  0  0  0
    7.4080  -15.5570   -8.4330 C   0  0  0  0  0  0  0  0  0  0  0  0
    7.0510  -14.5100   -9.2940 C   0  0  0  0  0  0  0  0  0  0  0  0
    7.3990  -14.5780  -10.7560 C   0  0  0  0  0  0  0  0  0  0  0  0
    8.7870  -14.0720  -11.0320 N   0  0  0  0  0  0  0  0  0  0  0  0
    9.5770  -13.7370   -9.7960 C   0  0  0  0  0  0  0  0  0  0  0  0
   10.6170  -12.7670  -10.3140 C   0  0  0  0  0  0  0  0  0  0  0  0
    9.8180  -11.9070  -11.2740 C   0  0  0  0  0  0  0  0  0  0  0  0
    8.8680  -12.8770  -11.9620 C   0  0  0  0  0  0  0  0  0  0  0  0
    6.3320  -13.4240   -8.7760 C   0  0  0  0  0  0  0  0  0  0  0  0
    5.9660  -13.3930   -7.4250 C   0  0  0  0  0  0  0  0  0  0  0  0
    5.0730  -15.2650   -4.4420 C   0  0  0  0  0  0  0  0  0  0  0  0
    4.9550  -14.9260   -3.1620 N   0  0  0  0  0  0  0  0  0  0  0  0
    5.7260  -13.8120   -3.0230 N   0  0  0  0  0  0  0  0  0  0  0  0
    3.9850  -12.9270   -0.3070 C   0  0  0  0  0  0  0  0  0  0  0  0
   -0.3160  -12.8850    1.7330 C   0  0  0  0  0  0  0  0  0  0  0  0
   -1.4820  -13.5930    2.0490 C   0  0  0  0  0  0  0  0  0  0  0  0
   -2.6230  -12.9060    2.4670 C   0  0  0  0  0  0  0  0  0  0  0  0
   -2.6060  -11.5130    2.5630 C   0  0  0  0  0  0  0  0  0  0  0  0
   -1.4490  -10.7870    2.2400 C   0  0  0  0  0  0  0  0  0  0  0  0
   -1.4380   -9.2790    2.3070 C   0  0  0  0  0  0  0  0  0  0  0  0
   -1.4520   -8.8170    3.5850 F   0  0  0  0  0  0  0  0  0  0  0  0
   -2.5120   -8.7140    1.6890 F   0  0  0  0  0  0  0  0  0  0  0  0
   -0.3400   -8.7260    1.7190 F   0  0  0  0  0  0  0  0  0  0  0  0
   -0.3080  -11.4860    1.8120 C   0  0  0  0  0  0  0  0  0  0  0  0
    1.9380  -11.7990    1.4240 H   0  0  0  0  0  0  0  0  0  0  0  0
    3.6018  -14.1432    2.8525 H   0  0  0  0  0  0  0  0  0  0  0  0
    5.9277  -14.9147    2.4061 H   0  0  0  0  0  0  0  0  0  0  0  0
    7.0207  -14.4010    0.2284 H   0  0  0  0  0  0  0  0  0  0  0  0
    6.9754  -11.3370   -1.0675 H   0  0  0  0  0  0  0  0  0  0  0  0
    8.0586  -10.8485   -3.3343 H   0  0  0  0  0  0  0  0  0  0  0  0
    7.3257  -16.3520   -6.4217 H   0  0  0  0  0  0  0  0  0  0  0  0
    7.9830  -16.4110   -8.8204 H   0  0  0  0  0  0  0  0  0  0  0  0
    7.3305  -15.6243  -11.0884 H   0  0  0  0  0  0  0  0  0  0  0  0
    6.6907  -13.9379  -11.3024 H   0  0  0  0  0  0  0  0  0  0  0  0
    9.2810  -14.8370  -11.5080 H   0  0  0  0  0  0  0  0  0  0  0  0
    8.9393  -13.2645   -9.0344 H   0  0  0  0  0  0  0  0  0  0  0  0
   10.0120  -14.6201   -9.3051 H   0  0  0  0  0  0  0  0  0  0  0  0
   11.0388  -12.1633   -9.4969 H   0  0  0  0  0  0  0  0  0  0  0  0
   11.4804  -13.2608  -10.7838 H   0  0  0  0  0  0  0  0  0  0  0  0
    9.2559  -11.1352  -10.7277 H   0  0  0  0  0  0  0  0  0  0  0  0
   10.4612  -11.3753  -11.9907 H   0  0  0  0  0  0  0  0  0  0  0  0
    7.8759  -12.4201  -12.0919 H   0  0  0  0  0  0  0  0  0  0  0  0
    9.2191  -13.1575  -12.9660 H   0  0  0  0  0  0  0  0  0  0  0  0
    6.0531  -12.5895   -9.4362 H   0  0  0  0  0  0  0  0  0  0  0  0
    5.4056  -12.5317   -7.0323 H   0  0  0  0  0  0  0  0  0  0  0  0
    4.5617  -16.1309   -4.8878 H   0  0  0  0  0  0  0  0  0  0  0  0
    3.4294  -12.3766   -1.0806 H   0  0  0  0  0  0  0  0  0  0  0  0
   -1.4988  -14.6899    1.9679 H   0  0  0  0  0  0  0  0  0  0  0  0
   -3.5370  -13.4628    2.7212 H   0  0  0  0  0  0  0  0  0  0  0  0
   -3.5086  -10.9792    2.8952 H   0  0  0  0  0  0  0  0  0  0  0  0
    0.6002  -10.9299    1.5363 H   0  0  0  0  0  0  0  0  0  0  0  0
  1  2  2  0
  2  3  1  0
  3  4  1  0
  4  5  2  0
  5  6  1  0
  6  7  2  0
  7  8  1  0
  8  9  1  0
  9 10  2  0
 10 11  1  0
 11 12  2  0
 12 13  1  0
 13 14  2  0
 14 15  1  0
 15 16  2  0
 16 17  1  0
 17 18  2  0
 18 19  1  0
 19 20  1  0
 20 21  1  0
 21 22  1  0
 22 23  1  0
 23 24  1  0
 18 25  1  0
 25 26  2  0
 14 27  1  0
 27 28  2  0
 28 29  1  0
  8 30  2  0
  2 31  1  0
 31 32  2  0
 32 33  1  0
 33 34  2  0
 34 35  1  0
 35 36  1  0
 36 37  1  0
 36 38  1  0
 36 39  1  0
 35 40  2  0
 30  4  1  0
 40 31  1  0
 29  9  1  0
 29 13  1  0
 26 15  1  0
 24 20  1  0
  3 41  1  0
  5 42  1  0
  6 43  1  0
  7 44  1  0
 10 45  1  0
 11 46  1  0
 16 47  1  0
 17 48  1  0
 19 49  1  0
 19 50  1  0
 20 51  1  0
 21 52  1  0
 21 53  1  0
 22 54  1  0
 22 55  1  0
 23 56  1  0
 23 57  1  0
 24 58  1  0
 24 59  1  0
 25 60  1  0
 26 61  1  0
 27 62  1  0
 30 63  1  0
 32 64  1  0
 33 65  1  0
 34 66  1  0
 40 67  1  0
M  CHG  1  20   1
M  END
>  <meeko>  (9) 
{"is_sidechain": [false], "free_energy": -8.892, "intermolecular_energy": -12.713, "internal_energy": -1.014}

$$$$
