LIB_HLVJLTDUBJMRSP__M_PUB_ALL__e8__s20260927
     RDKit          3D

 58 62  0  0  0  0  0  0  0  0999 V2000
    6.4600  -13.9550  -10.0010 O   0  0  0  0  0  0  0  0  0  0  0  0
    6.8470  -13.0290   -9.2940 C   0  0  0  0  0  0  0  0  0  0  0  0
    5.8860  -12.3270   -8.3420 C   0  0  0  0  0  0  0  0  0  0  0  0
    5.5250  -13.1520   -7.1280 C   0  0  0  0  0  0  0  0  0  0  0  0
    6.4090  -14.1240   -6.6410 C   0  0  0  0  0  0  0  0  0  0  0  0
    6.0810  -14.8820   -5.5180 C   0  0  0  0  0  0  0  0  0  0  0  0
    4.8670  -14.6740   -4.8630 C   0  0  0  0  0  0  0  0  0  0  0  0
    3.9670  -13.7050   -5.3290 C   0  0  0  0  0  0  0  0  0  0  0  0
    2.6630  -13.4550   -4.6100 C   0  0  0  0  0  0  0  0  0  0  0  0
    1.6340  -14.2190   -5.0710 F   0  0  0  0  0  0  0  0  0  0  0  0
    2.2430  -12.1630   -4.7220 F   0  0  0  0  0  0  0  0  0  0  0  0
    2.7500  -13.7050   -3.2750 F   0  0  0  0  0  0  0  0  0  0  0  0
    4.3110  -12.9410   -6.4580 C   0  0  0  0  0  0  0  0  0  0  0  0
    8.1400  -12.5350   -9.2150 N   0  0  0  0  0  0  0  0  0  0  0  0
    9.2730  -12.9620   -9.9380 C   0  0  0  0  0  0  0  0  0  0  0  0
    9.2030  -12.8890  -11.3330 C   0  0  0  0  0  0  0  0  0  0  0  0
   10.2800  -13.2920  -12.1210 C   0  0  0  0  0  0  0  0  0  0  0  0
   11.4420  -13.7710  -11.5180 C   0  0  0  0  0  0  0  0  0  0  0  0
   11.5450  -13.8490  -10.1220 C   0  0  0  0  0  0  0  0  0  0  0  0
   12.7900  -14.3770   -9.5070 C   0  0  0  0  0  0  0  0  0  0  0  0
   13.8900  -14.5670  -10.2680 C   0  0  0  0  0  0  0  0  0  0  0  0
   15.0230  -15.0690   -9.6650 N   0  0  0  0  0  0  0  0  0  0  0  0
   16.2690  -15.3650  -10.1460 C   0  0  0  0  0  0  0  0  0  0  0  0
   16.9690  -15.8380   -9.0550 C   0  0  0  0  0  0  0  0  0  0  0  0
   16.1880  -15.8420   -7.9240 N   0  0  0  0  0  0  0  0  0  0  0  0
   15.0280  -15.3720   -8.3340 C   0  0  0  0  0  0  0  0  0  0  0  0
   13.8200  -15.1630   -7.5560 C   0  0  0  0  0  0  0  0  0  0  0  0
   13.7960  -15.4620   -6.2170 N   0  0  0  0  0  0  0  0  0  0  0  0
   12.6570  -15.2650   -5.3650 C   0  0  0  0  0  0  0  0  0  0  0  0
   12.7920  -13.9530   -4.6380 C   0  0  0  0  0  0  0  0  0  0  0  0
   11.6630  -13.2780   -4.1650 C   0  0  0  0  0  0  0  0  0  0  0  0
   11.8400  -12.0870   -3.4790 C   0  0  0  0  0  0  0  0  0  0  0  0
   13.0460  -11.5360   -3.2310 N   0  0  0  0  0  0  0  0  0  0  0  0
   14.1260  -12.2100   -3.6810 C   0  0  0  0  0  0  0  0  0  0  0  0
   14.0530  -13.4060   -4.3760 C   0  0  0  0  0  0  0  0  0  0  0  0
   12.7490  -14.6850   -8.1500 N   0  0  0  0  0  0  0  0  0  0  0  0
   10.4410  -13.4510   -9.3440 C   0  0  0  0  0  0  0  0  0  0  0  0
    6.3557  -11.3928   -8.0003 H   0  0  0  0  0  0  0  0  0  0  0  0
    4.9543  -12.1481   -8.8987 H   0  0  0  0  0  0  0  0  0  0  0  0
    7.3702  -14.2904   -7.1493 H   0  0  0  0  0  0  0  0  0  0  0  0
    6.7808  -15.6456   -5.1476 H   0  0  0  0  0  0  0  0  0  0  0  0
    4.6144  -15.2735   -3.9760 H   0  0  0  0  0  0  0  0  0  0  0  0
    3.6185  -12.1672   -6.8208 H   0  0  0  0  0  0  0  0  0  0  0  0
    8.2890  -11.7630   -8.5780 H   0  0  0  0  0  0  0  0  0  0  0  0
    8.2889  -12.5098  -11.8132 H   0  0  0  0  0  0  0  0  0  0  0  0
   10.2130  -13.2321  -13.2173 H   0  0  0  0  0  0  0  0  0  0  0  0
   12.2875  -14.0913  -12.1445 H   0  0  0  0  0  0  0  0  0  0  0  0
   13.8815  -14.3271  -11.3415 H   0  0  0  0  0  0  0  0  0  0  0  0
   16.6334  -15.2508  -11.1776 H   0  0  0  0  0  0  0  0  0  0  0  0
   18.0174  -16.1693   -9.0864 H   0  0  0  0  0  0  0  0  0  0  0  0
   14.6560  -15.8240   -5.8140 H   0  0  0  0  0  0  0  0  0  0  0  0
   11.7413  -15.2535   -5.9745 H   0  0  0  0  0  0  0  0  0  0  0  0
   12.6015  -16.0845   -4.6333 H   0  0  0  0  0  0  0  0  0  0  0  0
   10.6547  -13.6839   -4.3339 H   0  0  0  0  0  0  0  0  0  0  0  0
   10.9452  -11.5604   -3.1157 H   0  0  0  0  0  0  0  0  0  0  0  0
   15.1212  -11.7848   -3.4843 H   0  0  0  0  0  0  0  0  0  0  0  0
   14.9673  -13.9151   -4.7149 H   0  0  0  0  0  0  0  0  0  0  0  0
   10.4982  -13.5261   -8.2481 H   0  0  0  0  0  0  0  0  0  0  0  0
  1  2  2  0
  2  3  1  0
  3  4  1  0
  4  5  2  0
  5  6  1  0
  6  7  2  0
  7  8  1  0
  8  9  1  0
  9 10  1  0
  9 11  1  0
  9 12  1  0
  8 13  2  0
  2 14  1  0
 14 15  1  0
 15 16  2  0
 16 17  1  0
 17 18  2  0
 18 19  1  0
 19 20  1  0
 20 21  2  0
 21 22  1  0
 22 23  1  0
 23 24  2  0
 24 25  1  0
 25 26  2  0
 26 27  1  0
 27 28  1  0
 28 29  1  0
 29 30  1  0
 30 31  2  0
 31 32  1  0
 32 33  2  0
 33 34  1  0
 34 35  2  0
 27 36  2  0
 19 37  2  0
 13  4  1  0
 37 15  1  0
 36 20  1  0
 26 22  1  0
 35 30  1  0
  3 38  1  0
  3 39  1  0
  5 40  1  0
  6 41  1  0
  7 42  1  0
 13 43  1  0
 14 44  1  0
 16 45  1  0
 17 46  1  0
 18 47  1  0
 21 48  1  0
 23 49  1  0
 24 50  1  0
 28 51  1  0
 29 52  1  0
 29 53  1  0
 31 54  1  0
 32 55  1  0
 34 56  1  0
 35 57  1  0
 37 58  1  0
M  END
>  <meeko>  (1) 
{"is_sidechain": [false], "free_energy": -8.957, "intermolecular_energy": -12.623, "internal_energy": -1.209}

$$$$
LIB_HLVJLTDUBJMRSP__M_PUB_ALL__e8__s20260927
     RDKit          3D

 58 62  0  0  0  0  0  0  0  0999 V2000
    5.0990  -14.7040   -5.5020 O   0  0  0  0  0  0  0  0  0  0  0  0
    5.9600  -13.8630   -5.2580 C   0  0  0  0  0  0  0  0  0  0  0  0
    7.3710  -14.0160   -5.8110 C   0  0  0  0  0  0  0  0  0  0  0  0
    7.4180  -14.6160   -7.1970 C   0  0  0  0  0  0  0  0  0  0  0  0
    7.6870  -15.9800   -7.3710 C   0  0  0  0  0  0  0  0  0  0  0  0
    7.7240  -16.5380   -8.6480 C   0  0  0  0  0  0  0  0  0  0  0  0
    7.4870  -15.7400   -9.7680 C   0  0  0  0  0  0  0  0  0  0  0  0
    7.2120  -14.3740   -9.6200 C   0  0  0  0  0  0  0  0  0  0  0  0
    6.9270  -13.5090  -10.8250 C   0  0  0  0  0  0  0  0  0  0  0  0
    6.8980  -12.1780  -10.5420 F   0  0  0  0  0  0  0  0  0  0  0  0
    5.7250  -13.7930  -11.4000 F   0  0  0  0  0  0  0  0  0  0  0  0
    7.8570  -13.6660  -11.8060 F   0  0  0  0  0  0  0  0  0  0  0  0
    7.1690  -13.8230   -8.3270 C   0  0  0  0  0  0  0  0  0  0  0  0
    5.7890  -12.6960   -4.5300 N   0  0  0  0  0  0  0  0  0  0  0  0
    4.6160  -12.2360   -3.8960 C   0  0  0  0  0  0  0  0  0  0  0  0
    3.9150  -11.2030   -4.5270 C   0  0  0  0  0  0  0  0  0  0  0  0
    2.7460  -10.6910   -3.9660 C   0  0  0  0  0  0  0  0  0  0  0  0
    2.2660  -11.2120   -2.7650 C   0  0  0  0  0  0  0  0  0  0  0  0
    2.9430  -12.2520   -2.1130 C   0  0  0  0  0  0  0  0  0  0  0  0
    2.4150  -12.7770   -0.8280 C   0  0  0  0  0  0  0  0  0  0  0  0
    2.9900  -13.8540   -0.2510 C   0  0  0  0  0  0  0  0  0  0  0  0
    2.4650  -14.3190    0.9350 N   0  0  0  0  0  0  0  0  0  0  0  0
    2.8120  -15.3610    1.7520 C   0  0  0  0  0  0  0  0  0  0  0  0
    1.9060  -15.3160    2.7910 C   0  0  0  0  0  0  0  0  0  0  0  0
    1.0150  -14.2810    2.6330 N   0  0  0  0  0  0  0  0  0  0  0  0
    1.3870  -13.7080    1.5070 C   0  0  0  0  0  0  0  0  0  0  0  0
    0.7920  -12.5600    0.8480 C   0  0  0  0  0  0  0  0  0  0  0  0
   -0.2950  -11.9280    1.3990 N   0  0  0  0  0  0  0  0  0  0  0  0
   -0.9310  -10.7730    0.8320 C   0  0  0  0  0  0  0  0  0  0  0  0
   -2.3450  -11.1160    0.4400 C   0  0  0  0  0  0  0  0  0  0  0  0
   -2.9580  -12.2770    0.9190 C   0  0  0  0  0  0  0  0  0  0  0  0
   -4.2690  -12.5360    0.5510 C   0  0  0  0  0  0  0  0  0  0  0  0
   -4.9990  -11.7270   -0.2440 N   0  0  0  0  0  0  0  0  0  0  0  0
   -4.3950  -10.6030   -0.6840 C   0  0  0  0  0  0  0  0  0  0  0  0
   -3.0900  -10.2560   -0.3730 C   0  0  0  0  0  0  0  0  0  0  0  0
    1.3060  -12.1330   -0.2840 N   0  0  0  0  0  0  0  0  0  0  0  0
    4.1290  -12.7460   -2.6880 C   0  0  0  0  0  0  0  0  0  0  0  0
    7.8397  -13.0215   -5.8469 H   0  0  0  0  0  0  0  0  0  0  0  0
    7.9051  -14.7076   -5.1428 H   0  0  0  0  0  0  0  0  0  0  0  0
    7.8706  -16.6160   -6.4925 H   0  0  0  0  0  0  0  0  0  0  0  0
    7.9404  -17.6092   -8.7730 H   0  0  0  0  0  0  0  0  0  0  0  0
    7.5162  -16.1860  -10.7731 H   0  0  0  0  0  0  0  0  0  0  0  0
    6.9369  -12.7553   -8.1999 H   0  0  0  0  0  0  0  0  0  0  0  0
    6.6070  -12.1090   -4.4210 H   0  0  0  0  0  0  0  0  0  0  0  0
    4.2899  -10.7905   -5.4753 H   0  0  0  0  0  0  0  0  0  0  0  0
    2.2033   -9.8776   -4.4698 H   0  0  0  0  0  0  0  0  0  0  0  0
    1.3454  -10.8021   -2.3240 H   0  0  0  0  0  0  0  0  0  0  0  0
    3.8559  -14.3478   -0.7162 H   0  0  0  0  0  0  0  0  0  0  0  0
    3.6342  -16.0780    1.6107 H   0  0  0  0  0  0  0  0  0  0  0  0
    1.8974  -16.0183    3.6376 H   0  0  0  0  0  0  0  0  0  0  0  0
   -0.6430  -12.3010    2.2770 H   0  0  0  0  0  0  0  0  0  0  0  0
   -0.9435   -9.9608    1.5738 H   0  0  0  0  0  0  0  0  0  0  0  0
   -0.3732  -10.4493   -0.0591 H   0  0  0  0  0  0  0  0  0  0  0  0
   -2.4114  -12.9709    1.5745 H   0  0  0  0  0  0  0  0  0  0  0  0
   -4.7415  -13.4545    0.9292 H   0  0  0  0  0  0  0  0  0  0  0  0
   -4.9725   -9.9226   -1.3271 H   0  0  0  0  0  0  0  0  0  0  0  0
   -2.6496   -9.3242   -0.7573 H   0  0  0  0  0  0  0  0  0  0  0  0
    4.6830  -13.5478   -2.1780 H   0  0  0  0  0  0  0  0  0  0  0  0
  1  2  2  0
  2  3  1  0
  3  4  1  0
  4  5  2  0
  5  6  1  0
  6  7  2  0
  7  8  1  0
  8  9  1  0
  9 10  1  0
  9 11  1  0
  9 12  1  0
  8 13  2  0
  2 14  1  0
 14 15  1  0
 15 16  2  0
 16 17  1  0
 17 18  2  0
 18 19  1  0
 19 20  1  0
 20 21  2  0
 21 22  1  0
 22 23  1  0
 23 24  2  0
 24 25  1  0
 25 26  2  0
 26 27  1  0
 27 28  1  0
 28 29  1  0
 29 30  1  0
 30 31  2  0
 31 32  1  0
 32 33  2  0
 33 34  1  0
 34 35  2  0
 27 36  2  0
 19 37  2  0
 13  4  1  0
 37 15  1  0
 36 20  1  0
 26 22  1  0
 35 30  1  0
  3 38  1  0
  3 39  1  0
  5 40  1  0
  6 41  1  0
  7 42  1  0
 13 43  1  0
 14 44  1  0
 16 45  1  0
 17 46  1  0
 18 47  1  0
 21 48  1  0
 23 49  1  0
 24 50  1  0
 28 51  1  0
 29 52  1  0
 29 53  1  0
 31 54  1  0
 32 55  1  0
 34 56  1  0
 35 57  1  0
 37 58  1  0
M  END
>  <meeko>  (2) 
{"is_sidechain": [false], "free_energy": -8.813, "intermolecular_energy": -12.399, "internal_energy": -1.23}

$$$$
LIB_HLVJLTDUBJMRSP__M_PUB_ALL__e8__s20260927
     RDKit          3D

 58 62  0  0  0  0  0  0  0  0999 V2000
   -1.6480  -16.4310    5.7510 O   0  0  0  0  0  0  0  0  0  0  0  0
   -2.3040  -16.8270    4.7920 C   0  0  0  0  0  0  0  0  0  0  0  0
   -3.7360  -17.3100    4.9810 C   0  0  0  0  0  0  0  0  0  0  0  0
   -4.7330  -16.1910    5.1740 C   0  0  0  0  0  0  0  0  0  0  0  0
   -5.0790  -15.3550    4.1030 C   0  0  0  0  0  0  0  0  0  0  0  0
   -6.0030  -14.3260    4.2770 C   0  0  0  0  0  0  0  0  0  0  0  0
   -6.5980  -14.1220    5.5220 C   0  0  0  0  0  0  0  0  0  0  0  0
   -6.2720  -14.9460    6.6080 C   0  0  0  0  0  0  0  0  0  0  0  0
   -6.9320  -14.7490    7.9520 C   0  0  0  0  0  0  0  0  0  0  0  0
   -6.3640  -15.4850    8.9470 F   0  0  0  0  0  0  0  0  0  0  0  0
   -8.2500  -15.0930    7.9430 F   0  0  0  0  0  0  0  0  0  0  0  0
   -6.8870  -13.4540    8.3670 F   0  0  0  0  0  0  0  0  0  0  0  0
   -5.3440  -15.9860    6.4200 C   0  0  0  0  0  0  0  0  0  0  0  0
   -1.8960  -16.8530    3.4680 N   0  0  0  0  0  0  0  0  0  0  0  0
   -0.6470  -16.4640    2.9400 C   0  0  0  0  0  0  0  0  0  0  0  0
    0.4660  -17.2260    3.3100 C   0  0  0  0  0  0  0  0  0  0  0  0
    1.7360  -16.9070    2.8320 C   0  0  0  0  0  0  0  0  0  0  0  0
    1.9030  -15.8190    1.9760 C   0  0  0  0  0  0  0  0  0  0  0  0
    0.8060  -15.0410    1.5820 C   0  0  0  0  0  0  0  0  0  0  0  0
    1.0170  -13.8800    0.6800 C   0  0  0  0  0  0  0  0  0  0  0  0
    1.9400  -13.9490   -0.3040 C   0  0  0  0  0  0  0  0  0  0  0  0
    2.1160  -12.8480   -1.1130 N   0  0  0  0  0  0  0  0  0  0  0  0
    2.9460  -12.6050   -2.1740 C   0  0  0  0  0  0  0  0  0  0  0  0
    2.6560  -11.3150   -2.5660 C   0  0  0  0  0  0  0  0  0  0  0  0
    1.6760  -10.7610   -1.7770 N   0  0  0  0  0  0  0  0  0  0  0  0
    1.3800  -11.7140   -0.9180 C   0  0  0  0  0  0  0  0  0  0  0  0
    0.4070  -11.6790    0.1590 C   0  0  0  0  0  0  0  0  0  0  0  0
   -0.3440  -10.5520    0.3800 N   0  0  0  0  0  0  0  0  0  0  0  0
   -1.3450  -10.4350    1.4030 C   0  0  0  0  0  0  0  0  0  0  0  0
   -2.6500  -10.9930    0.8990 C   0  0  0  0  0  0  0  0  0  0  0  0
   -3.2760  -12.0550    1.5570 C   0  0  0  0  0  0  0  0  0  0  0  0
   -4.4890  -12.5170    1.0700 C   0  0  0  0  0  0  0  0  0  0  0  0
   -5.1120  -11.9950   -0.0070 N   0  0  0  0  0  0  0  0  0  0  0  0
   -4.5010  -10.9590   -0.6200 C   0  0  0  0  0  0  0  0  0  0  0  0
   -3.2890  -10.4280   -0.2100 C   0  0  0  0  0  0  0  0  0  0  0  0
    0.2560  -12.7390    0.9220 N   0  0  0  0  0  0  0  0  0  0  0  0
   -0.4660  -15.3710    2.0870 C   0  0  0  0  0  0  0  0  0  0  0  0
   -4.0286  -17.8864    4.0910 H   0  0  0  0  0  0  0  0  0  0  0  0
   -3.7524  -17.9175    5.8979 H   0  0  0  0  0  0  0  0  0  0  0  0
   -4.6174  -15.5125    3.1170 H   0  0  0  0  0  0  0  0  0  0  0  0
   -6.2635  -13.6734    3.4307 H   0  0  0  0  0  0  0  0  0  0  0  0
   -7.3277  -13.3093    5.6524 H   0  0  0  0  0  0  0  0  0  0  0  0
   -5.0937  -16.6481    7.2620 H   0  0  0  0  0  0  0  0  0  0  0  0
   -2.5640  -17.2130    2.7980 H   0  0  0  0  0  0  0  0  0  0  0  0
    0.3379  -18.0853    3.9847 H   0  0  0  0  0  0  0  0  0  0  0  0
    2.6049  -17.5125    3.1295 H   0  0  0  0  0  0  0  0  0  0  0  0
    2.9079  -15.5684    1.6055 H   0  0  0  0  0  0  0  0  0  0  0  0
    2.5359  -14.8611   -0.4554 H   0  0  0  0  0  0  0  0  0  0  0  0
    3.6838  -13.2898   -2.6175 H   0  0  0  0  0  0  0  0  0  0  0  0
    3.1461  -10.7958   -3.4028 H   0  0  0  0  0  0  0  0  0  0  0  0
   -0.1850   -9.7670   -0.2450 H   0  0  0  0  0  0  0  0  0  0  0  0
   -1.0261  -10.9969    2.2933 H   0  0  0  0  0  0  0  0  0  0  0  0
   -1.4777   -9.3749    1.6647 H   0  0  0  0  0  0  0  0  0  0  0  0
   -2.8155  -12.5152    2.4437 H   0  0  0  0  0  0  0  0  0  0  0  0
   -4.9711  -13.3571    1.5914 H   0  0  0  0  0  0  0  0  0  0  0  0
   -4.9938  -10.5107   -1.4953 H   0  0  0  0  0  0  0  0  0  0  0  0
   -2.8382   -9.5794   -0.7454 H   0  0  0  0  0  0  0  0  0  0  0  0
   -1.3342  -14.7572    1.8051 H   0  0  0  0  0  0  0  0  0  0  0  0
  1  2  2  0
  2  3  1  0
  3  4  1  0
  4  5  2  0
  5  6  1  0
  6  7  2  0
  7  8  1  0
  8  9  1  0
  9 10  1  0
  9 11  1  0
  9 12  1  0
  8 13  2  0
  2 14  1  0
 14 15  1  0
 15 16  2  0
 16 17  1  0
 17 18  2  0
 18 19  1  0
 19 20  1  0
 20 21  2  0
 21 22  1  0
 22 23  1  0
 23 24  2  0
 24 25  1  0
 25 26  2  0
 26 27  1  0
 27 28  1  0
 28 29  1  0
 29 30  1  0
 30 31  2  0
 31 32  1  0
 32 33  2  0
 33 34  1  0
 34 35  2  0
 27 36  2  0
 19 37  2  0
 13  4  1  0
 37 15  1  0
 36 20  1  0
 26 22  1  0
 35 30  1  0
  3 38  1  0
  3 39  1  0
  5 40  1  0
  6 41  1  0
  7 42  1  0
 13 43  1  0
 14 44  1  0
 16 45  1  0
 17 46  1  0
 18 47  1  0
 21 48  1  0
 23 49  1  0
 24 50  1  0
 28 51  1  0
 29 52  1  0
 29 53  1  0
 31 54  1  0
 32 55  1  0
 34 56  1  0
 35 57  1  0
 37 58  1  0
M  END
>  <meeko>  (3) 
{"is_sidechain": [false], "free_energy": -8.786, "intermolecular_energy": -11.989, "internal_energy": -1.603}

$$$$
LIB_HLVJLTDUBJMRSP__M_PUB_ALL__e8__s20260927
     RDKit          3D

 58 62  0  0  0  0  0  0  0  0999 V2000
    6.9990  -11.3260   -1.7430 O   0  0  0  0  0  0  0  0  0  0  0  0
    6.6620  -12.5060   -1.7930 C   0  0  0  0  0  0  0  0  0  0  0  0
    7.7040  -13.6130   -1.7150 C   0  0  0  0  0  0  0  0  0  0  0  0
    9.1190  -13.1320   -1.9390 C   0  0  0  0  0  0  0  0  0  0  0  0
    9.6180  -12.9730   -3.2390 C   0  0  0  0  0  0  0  0  0  0  0  0
   10.9200  -12.5220   -3.4480 C   0  0  0  0  0  0  0  0  0  0  0  0
   11.7400  -12.2190   -2.3610 C   0  0  0  0  0  0  0  0  0  0  0  0
   11.2640  -12.3670   -1.0510 C   0  0  0  0  0  0  0  0  0  0  0  0
   12.1350  -12.0160    0.1310 C   0  0  0  0  0  0  0  0  0  0  0  0
   13.3300  -11.4660   -0.2210 F   0  0  0  0  0  0  0  0  0  0  0  0
   12.4380  -13.1010    0.8990 F   0  0  0  0  0  0  0  0  0  0  0  0
   11.5400  -11.1220    0.9670 F   0  0  0  0  0  0  0  0  0  0  0  0
    9.9460  -12.8150   -0.8510 C   0  0  0  0  0  0  0  0  0  0  0  0
    5.3660  -12.9890   -1.8760 N   0  0  0  0  0  0  0  0  0  0  0  0
    4.1680  -12.2470   -1.9460 C   0  0  0  0  0  0  0  0  0  0  0  0
    3.9260  -11.5420   -3.1300 C   0  0  0  0  0  0  0  0  0  0  0  0
    2.7660  -10.7830   -3.2800 C   0  0  0  0  0  0  0  0  0  0  0  0
    1.8350  -10.7250   -2.2440 C   0  0  0  0  0  0  0  0  0  0  0  0
    2.0470  -11.4270   -1.0490 C   0  0  0  0  0  0  0  0  0  0  0  0
    1.0440  -11.3340    0.0420 C   0  0  0  0  0  0  0  0  0  0  0  0
    0.2210  -10.2660    0.1140 C   0  0  0  0  0  0  0  0  0  0  0  0
   -0.6890  -10.2090    1.1470 N   0  0  0  0  0  0  0  0  0  0  0  0
   -1.6400   -9.2870    1.4890 C   0  0  0  0  0  0  0  0  0  0  0  0
   -2.2330   -9.7920    2.6280 C   0  0  0  0  0  0  0  0  0  0  0  0
   -1.6720  -10.9920    2.9930 N   0  0  0  0  0  0  0  0  0  0  0  0
   -0.7500  -11.2060    2.0770 C   0  0  0  0  0  0  0  0  0  0  0  0
    0.1610  -12.3310    1.9690 C   0  0  0  0  0  0  0  0  0  0  0  0
    0.1240  -13.3460    2.8930 N   0  0  0  0  0  0  0  0  0  0  0  0
    0.9670  -14.5080    2.8510 C   0  0  0  0  0  0  0  0  0  0  0  0
    0.1520  -15.7100    2.4520 C   0  0  0  0  0  0  0  0  0  0  0  0
   -0.8540  -16.2020    3.2880 C   0  0  0  0  0  0  0  0  0  0  0  0
   -1.5940  -17.2950    2.8650 C   0  0  0  0  0  0  0  0  0  0  0  0
   -1.4060  -17.9160    1.6810 N   0  0  0  0  0  0  0  0  0  0  0  0
   -0.4400  -17.4160    0.8810 C   0  0  0  0  0  0  0  0  0  0  0  0
    0.3520  -16.3300    1.2140 C   0  0  0  0  0  0  0  0  0  0  0  0
    1.0230  -12.3660    0.9780 N   0  0  0  0  0  0  0  0  0  0  0  0
    3.2310  -12.1750   -0.9110 C   0  0  0  0  0  0  0  0  0  0  0  0
    7.6475  -14.0735   -0.7176 H   0  0  0  0  0  0  0  0  0  0  0  0
    7.4757  -14.3267   -2.5203 H   0  0  0  0  0  0  0  0  0  0  0  0
    8.9766  -13.2062   -4.1017 H   0  0  0  0  0  0  0  0  0  0  0  0
   11.3020  -12.4047   -4.4728 H   0  0  0  0  0  0  0  0  0  0  0  0
   12.7661  -11.8619   -2.5329 H   0  0  0  0  0  0  0  0  0  0  0  0
    9.5580  -12.9183    0.1731 H   0  0  0  0  0  0  0  0  0  0  0  0
    5.2620  -13.9960   -1.9090 H   0  0  0  0  0  0  0  0  0  0  0  0
    4.6576  -11.5869   -3.9502 H   0  0  0  0  0  0  0  0  0  0  0  0
    2.5858  -10.2309   -4.2142 H   0  0  0  0  0  0  0  0  0  0  0  0
    0.9234  -10.1214   -2.3655 H   0  0  0  0  0  0  0  0  0  0  0  0
    0.2757   -9.4611   -0.6338 H   0  0  0  0  0  0  0  0  0  0  0  0
   -1.8797   -8.3477    0.9692 H   0  0  0  0  0  0  0  0  0  0  0  0
   -3.0500   -9.2974    3.1738 H   0  0  0  0  0  0  0  0  0  0  0  0
   -0.5670  -13.2660    3.6330 H   0  0  0  0  0  0  0  0  0  0  0  0
    1.7708  -14.3507    2.1167 H   0  0  0  0  0  0  0  0  0  0  0  0
    1.4047  -14.6776    3.8458 H   0  0  0  0  0  0  0  0  0  0  0  0
   -1.0545  -15.7314    4.2619 H   0  0  0  0  0  0  0  0  0  0  0  0
   -2.3797  -17.6786    3.5324 H   0  0  0  0  0  0  0  0  0  0  0  0
   -0.2723  -17.8998   -0.0925 H   0  0  0  0  0  0  0  0  0  0  0  0
    1.1221  -15.9626    0.5198 H   0  0  0  0  0  0  0  0  0  0  0  0
    3.4228  -12.7132    0.0290 H   0  0  0  0  0  0  0  0  0  0  0  0
  1  2  2  0
  2  3  1  0
  3  4  1  0
  4  5  2  0
  5  6  1  0
  6  7  2  0
  7  8  1  0
  8  9  1  0
  9 10  1  0
  9 11  1  0
  9 12  1  0
  8 13  2  0
  2 14  1  0
 14 15  1  0
 15 16  2  0
 16 17  1  0
 17 18  2  0
 18 19  1  0
 19 20  1  0
 20 21  2  0
 21 22  1  0
 22 23  1  0
 23 24  2  0
 24 25  1  0
 25 26  2  0
 26 27  1  0
 27 28  1  0
 28 29  1  0
 29 30  1  0
 30 31  2  0
 31 32  1  0
 32 33  2  0
 33 34  1  0
 34 35  2  0
 27 36  2  0
 19 37  2  0
 13  4  1  0
 37 15  1  0
 36 20  1  0
 26 22  1  0
 35 30  1  0
  3 38  1  0
  3 39  1  0
  5 40  1  0
  6 41  1  0
  7 42  1  0
 13 43  1  0
 14 44  1  0
 16 45  1  0
 17 46  1  0
 18 47  1  0
 21 48  1  0
 23 49  1  0
 24 50  1  0
 28 51  1  0
 29 52  1  0
 29 53  1  0
 31 54  1  0
 32 55  1  0
 34 56  1  0
 35 57  1  0
 37 58  1  0
M  END
>  <meeko>  (4) 
{"is_sidechain": [false], "free_energy": -8.775, "intermolecular_energy": -12.435, "internal_energy": -1.14}

$$$$
LIB_HLVJLTDUBJMRSP__M_PUB_ALL__e8__s20260927
     RDKit          3D

 58 62  0  0  0  0  0  0  0  0999 V2000
    7.2150  -11.0550   -0.8520 O   0  0  0  0  0  0  0  0  0  0  0  0
    6.9720  -12.2520   -0.7230 C   0  0  0  0  0  0  0  0  0  0  0  0
    8.0470  -13.2100   -0.2280 C   0  0  0  0  0  0  0  0  0  0  0  0
    9.4210  -12.5870   -0.1380 C   0  0  0  0  0  0  0  0  0  0  0  0
    9.8200  -11.9120    1.0230 C   0  0  0  0  0  0  0  0  0  0  0  0
   11.0890  -11.3420    1.1110 C   0  0  0  0  0  0  0  0  0  0  0  0
   11.9780  -11.4430    0.0410 C   0  0  0  0  0  0  0  0  0  0  0  0
   11.6040  -12.1160   -1.1310 C   0  0  0  0  0  0  0  0  0  0  0  0
   12.5700  -12.2540   -2.2830 C   0  0  0  0  0  0  0  0  0  0  0  0
   12.9620  -13.5380   -2.5120 F   0  0  0  0  0  0  0  0  0  0  0  0
   13.7180  -11.5450   -2.0910 F   0  0  0  0  0  0  0  0  0  0  0  0
   12.0460  -11.8050   -3.4560 F   0  0  0  0  0  0  0  0  0  0  0  0
   10.3250  -12.6940   -1.2060 C   0  0  0  0  0  0  0  0  0  0  0  0
    5.7550  -12.8750   -0.9460 N   0  0  0  0  0  0  0  0  0  0  0  0
    4.5510  -12.2880   -1.3890 C   0  0  0  0  0  0  0  0  0  0  0  0
    4.5290  -11.7910   -2.6960 C   0  0  0  0  0  0  0  0  0  0  0  0
    3.3780  -11.1950   -3.2090 C   0  0  0  0  0  0  0  0  0  0  0  0
    2.2350  -11.0940   -2.4180 C   0  0  0  0  0  0  0  0  0  0  0  0
    2.2250  -11.5890   -1.1070 C   0  0  0  0  0  0  0  0  0  0  0  0
    0.9970  -11.4530   -0.2820 C   0  0  0  0  0  0  0  0  0  0  0  0
    0.7710  -10.3170    0.4110 C   0  0  0  0  0  0  0  0  0  0  0  0
   -0.3730  -10.2320    1.1740 N   0  0  0  0  0  0  0  0  0  0  0  0
   -0.8800   -9.2410    1.9700 C   0  0  0  0  0  0  0  0  0  0  0  0
   -2.0590   -9.7540    2.4700 C   0  0  0  0  0  0  0  0  0  0  0  0
   -2.2870  -11.0280    2.0060 N   0  0  0  0  0  0  0  0  0  0  0  0
   -1.2510  -11.2760    1.2310 C   0  0  0  0  0  0  0  0  0  0  0  0
   -0.9640  -12.4840    0.4790 C   0  0  0  0  0  0  0  0  0  0  0  0
   -1.8280  -13.5500    0.5210 N   0  0  0  0  0  0  0  0  0  0  0  0
   -1.6390  -14.7720   -0.2080 C   0  0  0  0  0  0  0  0  0  0  0  0
   -1.3870  -15.9020    0.7570 C   0  0  0  0  0  0  0  0  0  0  0  0
   -0.1030  -16.1460    1.2520 C   0  0  0  0  0  0  0  0  0  0  0  0
    0.0750  -17.1800    2.1570 C   0  0  0  0  0  0  0  0  0  0  0  0
   -0.9260  -17.9700    2.6000 N   0  0  0  0  0  0  0  0  0  0  0  0
   -2.1620  -17.7090    2.1220 C   0  0  0  0  0  0  0  0  0  0  0  0
   -2.4400  -16.6990    1.2160 C   0  0  0  0  0  0  0  0  0  0  0  0
    0.1340  -12.5460   -0.2410 N   0  0  0  0  0  0  0  0  0  0  0  0
    3.4010  -12.1740   -0.6010 C   0  0  0  0  0  0  0  0  0  0  0  0
    7.7609  -13.5660    0.7727 H   0  0  0  0  0  0  0  0  0  0  0  0
    8.1119  -14.0272   -0.9615 H   0  0  0  0  0  0  0  0  0  0  0  0
    9.1259  -11.8311    1.8725 H   0  0  0  0  0  0  0  0  0  0  0  0
   11.3900  -10.8114    2.0263 H   0  0  0  0  0  0  0  0  0  0  0  0
   12.9784  -10.9920    0.1170 H   0  0  0  0  0  0  0  0  0  0  0  0
   10.0284  -13.2380   -2.1149 H   0  0  0  0  0  0  0  0  0  0  0  0
    5.7260  -13.8750   -0.7920 H   0  0  0  0  0  0  0  0  0  0  0  0
    5.4280  -11.8711   -3.3248 H   0  0  0  0  0  0  0  0  0  0  0  0
    3.3719  -10.8047   -4.2374 H   0  0  0  0  0  0  0  0  0  0  0  0
    1.3305  -10.6204   -2.8274 H   0  0  0  0  0  0  0  0  0  0  0  0
    1.4828   -9.4795    0.3676 H   0  0  0  0  0  0  0  0  0  0  0  0
   -0.4428   -8.2512    2.1680 H   0  0  0  0  0  0  0  0  0  0  0  0
   -2.7308   -9.2129    3.1526 H   0  0  0  0  0  0  0  0  0  0  0  0
   -2.6620  -13.4400    1.0910 H   0  0  0  0  0  0  0  0  0  0  0  0
   -2.5411  -14.9893   -0.7987 H   0  0  0  0  0  0  0  0  0  0  0  0
   -0.7752  -14.6664   -0.8808 H   0  0  0  0  0  0  0  0  0  0  0  0
    0.7491  -15.5296    0.9296 H   0  0  0  0  0  0  0  0  0  0  0  0
    1.0903  -17.3679    2.5363 H   0  0  0  0  0  0  0  0  0  0  0  0
   -2.9960  -18.3348    2.4725 H   0  0  0  0  0  0  0  0  0  0  0  0
   -3.4682  -16.5274    0.8648 H   0  0  0  0  0  0  0  0  0  0  0  0
    3.4159  -12.5484    0.4332 H   0  0  0  0  0  0  0  0  0  0  0  0
  1  2  2  0
  2  3  1  0
  3  4  1  0
  4  5  2  0
  5  6  1  0
  6  7  2  0
  7  8  1  0
  8  9  1  0
  9 10  1  0
  9 11  1  0
  9 12  1  0
  8 13  2  0
  2 14  1  0
 14 15  1  0
 15 16  2  0
 16 17  1  0
 17 18  2  0
 18 19  1  0
 19 20  1  0
 20 21  2  0
 21 22  1  0
 22 23  1  0
 23 24  2  0
 24 25  1  0
 25 26  2  0
 26 27  1  0
 27 28  1  0
 28 29  1  0
 29 30  1  0
 30 31  2  0
 31 32  1  0
 32 33  2  0
 33 34  1  0
 34 35  2  0
 27 36  2  0
 19 37  2  0
 13  4  1  0
 37 15  1  0
 36 20  1  0
 26 22  1  0
 35 30  1  0
  3 38  1  0
  3 39  1  0
  5 40  1  0
  6 41  1  0
  7 42  1  0
 13 43  1  0
 14 44  1  0
 16 45  1  0
 17 46  1  0
 18 47  1  0
 21 48  1  0
 23 49  1  0
 24 50  1  0
 28 51  1  0
 29 52  1  0
 29 53  1  0
 31 54  1  0
 32 55  1  0
 34 56  1  0
 35 57  1  0
 37 58  1  0
M  END
>  <meeko>  (5) 
{"is_sidechain": [false], "free_energy": -8.736, "intermolecular_energy": -12.458, "internal_energy": -1.062}

$$$$
LIB_HLVJLTDUBJMRSP__M_PUB_ALL__e8__s20260927
     RDKit          3D

 58 62  0  0  0  0  0  0  0  0999 V2000
    6.7690  -10.5590    0.8700 O   0  0  0  0  0  0  0  0  0  0  0  0
    6.9550  -11.7550    0.6680 C   0  0  0  0  0  0  0  0  0  0  0  0
    8.2420  -12.4280    1.1280 C   0  0  0  0  0  0  0  0  0  0  0  0
    9.3330  -12.4280    0.0830 C   0  0  0  0  0  0  0  0  0  0  0  0
    9.1180  -13.0200   -1.1690 C   0  0  0  0  0  0  0  0  0  0  0  0
   10.1210  -13.0160   -2.1370 C   0  0  0  0  0  0  0  0  0  0  0  0
   11.3500  -12.4140   -1.8690 C   0  0  0  0  0  0  0  0  0  0  0  0
   11.5890  -11.8120   -0.6260 C   0  0  0  0  0  0  0  0  0  0  0  0
   12.9080  -11.1340   -0.3370 C   0  0  0  0  0  0  0  0  0  0  0  0
   12.7730   -9.8650    0.1350 F   0  0  0  0  0  0  0  0  0  0  0  0
   13.6990  -11.0360   -1.4430 F   0  0  0  0  0  0  0  0  0  0  0  0
   13.6440  -11.8060    0.5890 F   0  0  0  0  0  0  0  0  0  0  0  0
   10.5680  -11.8150    0.3410 C   0  0  0  0  0  0  0  0  0  0  0  0
    6.0680  -12.6380    0.0720 N   0  0  0  0  0  0  0  0  0  0  0  0
    4.7880  -12.3570   -0.4500 C   0  0  0  0  0  0  0  0  0  0  0  0
    4.6770  -12.2480   -1.8400 C   0  0  0  0  0  0  0  0  0  0  0  0
    3.4480  -11.9710   -2.4350 C   0  0  0  0  0  0  0  0  0  0  0  0
    2.3130  -11.8040   -1.6420 C   0  0  0  0  0  0  0  0  0  0  0  0
    2.3920  -11.9150   -0.2470 C   0  0  0  0  0  0  0  0  0  0  0  0
    1.1690  -11.7180    0.5730 C   0  0  0  0  0  0  0  0  0  0  0  0
    0.6290  -10.4860    0.6950 C   0  0  0  0  0  0  0  0  0  0  0  0
   -0.4980  -10.3400    1.4730 N   0  0  0  0  0  0  0  0  0  0  0  0
   -1.2680   -9.2530    1.7870 C   0  0  0  0  0  0  0  0  0  0  0  0
   -2.2600   -9.7440    2.6100 C   0  0  0  0  0  0  0  0  0  0  0  0
   -2.1190  -11.0970    2.8100 N   0  0  0  0  0  0  0  0  0  0  0  0
   -1.0500  -11.4140    2.1100 C   0  0  0  0  0  0  0  0  0  0  0  0
   -0.4310  -12.7190    1.9610 C   0  0  0  0  0  0  0  0  0  0  0  0
   -0.9620  -13.8160    2.5920 N   0  0  0  0  0  0  0  0  0  0  0  0
   -0.4340  -15.1460    2.4830 C   0  0  0  0  0  0  0  0  0  0  0  0
    0.0950  -15.5910    3.8210 C   0  0  0  0  0  0  0  0  0  0  0  0
    0.7810  -16.8020    3.9520 C   0  0  0  0  0  0  0  0  0  0  0  0
    1.2710  -17.1560    5.1990 C   0  0  0  0  0  0  0  0  0  0  0  0
    1.1320  -16.3940    6.3050 N   0  0  0  0  0  0  0  0  0  0  0  0
    0.4810  -15.2210    6.1550 C   0  0  0  0  0  0  0  0  0  0  0  0
   -0.0460  -14.7800    4.9520 C   0  0  0  0  0  0  0  0  0  0  0  0
    0.6450  -12.8370    1.2160 N   0  0  0  0  0  0  0  0  0  0  0  0
    3.6450  -12.1800    0.3360 C   0  0  0  0  0  0  0  0  0  0  0  0
    8.6128  -11.8976    2.0175 H   0  0  0  0  0  0  0  0  0  0  0  0
    7.9979  -13.4797    1.3386 H   0  0  0  0  0  0  0  0  0  0  0  0
    8.1492  -13.4920   -1.3897 H   0  0  0  0  0  0  0  0  0  0  0  0
    9.9427  -13.4886   -3.1142 H   0  0  0  0  0  0  0  0  0  0  0  0
   12.1367  -12.4116   -2.6378 H   0  0  0  0  0  0  0  0  0  0  0  0
   10.7402  -11.3299    1.3131 H   0  0  0  0  0  0  0  0  0  0  0  0
    6.3800  -13.5970   -0.0200 H   0  0  0  0  0  0  0  0  0  0  0  0
    5.5689  -12.3823   -2.4697 H   0  0  0  0  0  0  0  0  0  0  0  0
    3.3730  -11.8841   -3.5290 H   0  0  0  0  0  0  0  0  0  0  0  0
    1.3455  -11.5828   -2.1164 H   0  0  0  0  0  0  0  0  0  0  0  0
    1.0782   -9.6207    0.1856 H   0  0  0  0  0  0  0  0  0  0  0  0
   -1.1265   -8.2138    1.4552 H   0  0  0  0  0  0  0  0  0  0  0  0
   -3.0611   -9.1318    3.0499 H   0  0  0  0  0  0  0  0  0  0  0  0
   -1.7980  -13.6620    3.1500 H   0  0  0  0  0  0  0  0  0  0  0  0
   -1.2312  -15.8309    2.1584 H   0  0  0  0  0  0  0  0  0  0  0  0
    0.3825  -15.1555    1.7459 H   0  0  0  0  0  0  0  0  0  0  0  0
    0.9288  -17.4603    3.0832 H   0  0  0  0  0  0  0  0  0  0  0  0
    1.8042  -18.1135    5.2933 H   0  0  0  0  0  0  0  0  0  0  0  0
    0.3620  -14.5778    7.0394 H   0  0  0  0  0  0  0  0  0  0  0  0
   -0.5646  -13.8121    4.8876 H   0  0  0  0  0  0  0  0  0  0  0  0
    3.7270  -12.2492    1.4308 H   0  0  0  0  0  0  0  0  0  0  0  0
  1  2  2  0
  2  3  1  0
  3  4  1  0
  4  5  2  0
  5  6  1  0
  6  7  2  0
  7  8  1  0
  8  9  1  0
  9 10  1  0
  9 11  1  0
  9 12  1  0
  8 13  2  0
  2 14  1  0
 14 15  1  0
 15 16  2  0
 16 17  1  0
 17 18  2  0
 18 19  1  0
 19 20  1  0
 20 21  2  0
 21 22  1  0
 22 23  1  0
 23 24  2  0
 24 25  1  0
 25 26  2  0
 26 27  1  0
 27 28  1  0
 28 29  1  0
 29 30  1  0
 30 31  2  0
 31 32  1  0
 32 33  2  0
 33 34  1  0
 34 35  2  0
 27 36  2  0
 19 37  2  0
 13  4  1  0
 37 15  1  0
 36 20  1  0
 26 22  1  0
 35 30  1  0
  3 38  1  0
  3 39  1  0
  5 40  1  0
  6 41  1  0
  7 42  1  0
 13 43  1  0
 14 44  1  0
 16 45  1  0
 17 46  1  0
 18 47  1  0
 21 48  1  0
 23 49  1  0
 24 50  1  0
 28 51  1  0
 29 52  1  0
 29 53  1  0
 31 54  1  0
 32 55  1  0
 34 56  1  0
 35 57  1  0
 37 58  1  0
M  END
>  <meeko>  (6) 
{"is_sidechain": [false], "free_energy": -8.711, "intermolecular_energy": -12.387, "internal_energy": -1.098}

$$$$
LIB_HLVJLTDUBJMRSP__M_PUB_ALL__e8__s20260927
     RDKit          3D

 58 62  0  0  0  0  0  0  0  0999 V2000
    1.4380  -11.2310   -1.3970 O   0  0  0  0  0  0  0  0  0  0  0  0
    1.5190  -11.0900   -0.1800 C   0  0  0  0  0  0  0  0  0  0  0  0
    0.6290  -10.0890    0.5440 C   0  0  0  0  0  0  0  0  0  0  0  0
   -0.6750  -10.6780    1.0310 C   0  0  0  0  0  0  0  0  0  0  0  0
   -0.8150  -11.0890    2.3640 C   0  0  0  0  0  0  0  0  0  0  0  0
   -2.0190  -11.6270    2.8160 C   0  0  0  0  0  0  0  0  0  0  0  0
   -3.1000  -11.7550    1.9450 C   0  0  0  0  0  0  0  0  0  0  0  0
   -2.9870  -11.3490    0.6080 C   0  0  0  0  0  0  0  0  0  0  0  0
   -4.1610  -11.4590   -0.3350 C   0  0  0  0  0  0  0  0  0  0  0  0
   -5.3110  -11.8560    0.2760 F   0  0  0  0  0  0  0  0  0  0  0  0
   -3.9440  -12.3580   -1.3360 F   0  0  0  0  0  0  0  0  0  0  0  0
   -4.4470  -10.2790   -0.9480 F   0  0  0  0  0  0  0  0  0  0  0  0
   -1.7710  -10.8010    0.1640 C   0  0  0  0  0  0  0  0  0  0  0  0
    2.3420  -11.8020    0.6790 N   0  0  0  0  0  0  0  0  0  0  0  0
    3.2720  -12.8090    0.3490 C   0  0  0  0  0  0  0  0  0  0  0  0
    2.9770  -14.1100    0.7700 C   0  0  0  0  0  0  0  0  0  0  0  0
    3.8460  -15.1620    0.4860 C   0  0  0  0  0  0  0  0  0  0  0  0
    5.0190  -14.9230   -0.2270 C   0  0  0  0  0  0  0  0  0  0  0  0
    5.3380  -13.6310   -0.6690 C   0  0  0  0  0  0  0  0  0  0  0  0
    6.6030  -13.4030   -1.4140 C   0  0  0  0  0  0  0  0  0  0  0  0
    7.7390  -13.1150   -0.7440 C   0  0  0  0  0  0  0  0  0  0  0  0
    8.8900  -12.8990   -1.4690 N   0  0  0  0  0  0  0  0  0  0  0  0
   10.1720  -12.5980   -1.0980 C   0  0  0  0  0  0  0  0  0  0  0  0
   10.8730  -12.5020   -2.2820 C   0  0  0  0  0  0  0  0  0  0  0  0
   10.0580  -12.7330   -3.3660 N   0  0  0  0  0  0  0  0  0  0  0  0
    8.8770  -12.9670   -2.8330 C   0  0  0  0  0  0  0  0  0  0  0  0
    7.6310  -13.2680   -3.5140 C   0  0  0  0  0  0  0  0  0  0  0  0
    7.5880  -13.3400   -4.8840 N   0  0  0  0  0  0  0  0  0  0  0  0
    6.4100  -13.6550   -5.6410 C   0  0  0  0  0  0  0  0  0  0  0  0
    6.6640  -14.8760   -6.4860 C   0  0  0  0  0  0  0  0  0  0  0  0
    6.3380  -16.1520   -6.0160 C   0  0  0  0  0  0  0  0  0  0  0  0
    6.5660  -17.2420   -6.8410 C   0  0  0  0  0  0  0  0  0  0  0  0
    7.0830  -17.1470   -8.0850 N   0  0  0  0  0  0  0  0  0  0  0  0
    7.3760  -15.9060   -8.5270 C   0  0  0  0  0  0  0  0  0  0  0  0
    7.1850  -14.7550   -7.7790 C   0  0  0  0  0  0  0  0  0  0  0  0
    6.5430  -13.4690   -2.8040 N   0  0  0  0  0  0  0  0  0  0  0  0
    4.4560  -12.5790   -0.3590 C   0  0  0  0  0  0  0  0  0  0  0  0
    1.1799   -9.6989    1.4125 H   0  0  0  0  0  0  0  0  0  0  0  0
    0.3756   -9.3008   -0.1802 H   0  0  0  0  0  0  0  0  0  0  0  0
    0.0317  -10.9862    3.0586 H   0  0  0  0  0  0  0  0  0  0  0  0
   -2.1164  -11.9514    3.8626 H   0  0  0  0  0  0  0  0  0  0  0  0
   -4.0480  -12.1774    2.3094 H   0  0  0  0  0  0  0  0  0  0  0  0
   -1.6775  -10.4636   -0.8788 H   0  0  0  0  0  0  0  0  0  0  0  0
    2.2850  -11.5590    1.6600 H   0  0  0  0  0  0  0  0  0  0  0  0
    2.0506  -14.3045    1.3304 H   0  0  0  0  0  0  0  0  0  0  0  0
    3.6059  -16.1807    0.8246 H   0  0  0  0  0  0  0  0  0  0  0  0
    5.7023  -15.7569   -0.4456 H   0  0  0  0  0  0  0  0  0  0  0  0
    7.7453  -13.0543    0.3543 H   0  0  0  0  0  0  0  0  0  0  0  0
   10.5594  -12.4621   -0.0775 H   0  0  0  0  0  0  0  0  0  0  0  0
   11.9462  -12.2704   -2.3507 H   0  0  0  0  0  0  0  0  0  0  0  0
    8.4620  -13.1800   -5.3780 H   0  0  0  0  0  0  0  0  0  0  0  0
    5.5748  -13.8531   -4.9531 H   0  0  0  0  0  0  0  0  0  0  0  0
    6.1566  -12.8059   -6.2927 H   0  0  0  0  0  0  0  0  0  0  0  0
    5.9094  -16.2878   -5.0121 H   0  0  0  0  0  0  0  0  0  0  0  0
    6.3112  -18.2422   -6.4606 H   0  0  0  0  0  0  0  0  0  0  0  0
    7.7908  -15.8019   -9.5405 H   0  0  0  0  0  0  0  0  0  0  0  0
    7.4375  -13.7676   -8.1929 H   0  0  0  0  0  0  0  0  0  0  0  0
    4.7026  -11.5561   -0.6798 H   0  0  0  0  0  0  0  0  0  0  0  0
  1  2  2  0
  2  3  1  0
  3  4  1  0
  4  5  2  0
  5  6  1  0
  6  7  2  0
  7  8  1  0
  8  9  1  0
  9 10  1  0
  9 11  1  0
  9 12  1  0
  8 13  2  0
  2 14  1  0
 14 15  1  0
 15 16  2  0
 16 17  1  0
 17 18  2  0
 18 19  1  0
 19 20  1  0
 20 21  2  0
 21 22  1  0
 22 23  1  0
 23 24  2  0
 24 25  1  0
 25 26  2  0
 26 27  1  0
 27 28  1  0
 28 29  1  0
 29 30  1  0
 30 31  2  0
 31 32  1  0
 32 33  2  0
 33 34  1  0
 34 35  2  0
 27 36  2  0
 19 37  2  0
 13  4  1  0
 37 15  1  0
 36 20  1  0
 26 22  1  0
 35 30  1  0
  3 38  1  0
  3 39  1  0
  5 40  1  0
  6 41  1  0
  7 42  1  0
 13 43  1  0
 14 44  1  0
 16 45  1  0
 17 46  1  0
 18 47  1  0
 21 48  1  0
 23 49  1  0
 24 50  1  0
 28 51  1  0
 29 52  1  0
 29 53  1  0
 31 54  1  0
 32 55  1  0
 34 56  1  0
 35 57  1  0
 37 58  1  0
M  END
>  <meeko>  (7) 
{"is_sidechain": [false], "free_energy": -8.652, "intermolecular_energy": -12.187, "internal_energy": -1.215}

$$$$
LIB_HLVJLTDUBJMRSP__M_PUB_ALL__e8__s20260927
     RDKit          3D

 58 62  0  0  0  0  0  0  0  0999 V2000
    2.6380  -11.9400   -0.4860 O   0  0  0  0  0  0  0  0  0  0  0  0
    1.8110  -11.2160   -1.0330 C   0  0  0  0  0  0  0  0  0  0  0  0
    2.0570  -10.6850   -2.4400 C   0  0  0  0  0  0  0  0  0  0  0  0
    2.4200  -11.7590   -3.4380 C   0  0  0  0  0  0  0  0  0  0  0  0
    1.7960  -13.0140   -3.3900 C   0  0  0  0  0  0  0  0  0  0  0  0
    2.1240  -14.0040   -4.3140 C   0  0  0  0  0  0  0  0  0  0  0  0
    3.0760  -13.7530   -5.3020 C   0  0  0  0  0  0  0  0  0  0  0  0
    3.7120  -12.5060   -5.3740 C   0  0  0  0  0  0  0  0  0  0  0  0
    4.7240  -12.2170   -6.4570 C   0  0  0  0  0  0  0  0  0  0  0  0
    5.9930  -12.0650   -5.9860 F   0  0  0  0  0  0  0  0  0  0  0  0
    4.4440  -11.0730   -7.1420 F   0  0  0  0  0  0  0  0  0  0  0  0
    4.7830  -13.2060   -7.3890 F   0  0  0  0  0  0  0  0  0  0  0  0
    3.3680  -11.5110   -4.4420 C   0  0  0  0  0  0  0  0  0  0  0  0
    0.5850  -10.8280   -0.5180 N   0  0  0  0  0  0  0  0  0  0  0  0
    0.0340  -11.1510    0.7400 C   0  0  0  0  0  0  0  0  0  0  0  0
   -0.7040  -10.1540    1.3870 C   0  0  0  0  0  0  0  0  0  0  0  0
   -1.2800  -10.3930    2.6330 C   0  0  0  0  0  0  0  0  0  0  0  0
   -1.1250  -11.6360    3.2450 C   0  0  0  0  0  0  0  0  0  0  0  0
   -0.3980  -12.6570    2.6170 C   0  0  0  0  0  0  0  0  0  0  0  0
   -0.2370  -13.9670    3.2990 C   0  0  0  0  0  0  0  0  0  0  0  0
   -0.0040  -14.0120    4.6290 C   0  0  0  0  0  0  0  0  0  0  0  0
    0.1510  -15.2450    5.2240 N   0  0  0  0  0  0  0  0  0  0  0  0
    0.3890  -15.6210    6.5180 C   0  0  0  0  0  0  0  0  0  0  0  0
    0.4440  -16.9990    6.4850 C   0  0  0  0  0  0  0  0  0  0  0  0
    0.2490  -17.4760    5.2100 N   0  0  0  0  0  0  0  0  0  0  0  0
    0.0770  -16.3900    4.4850 C   0  0  0  0  0  0  0  0  0  0  0  0
   -0.1650  -16.2960    3.0570 C   0  0  0  0  0  0  0  0  0  0  0  0
   -0.2410  -17.4310    2.2890 N   0  0  0  0  0  0  0  0  0  0  0  0
   -0.5010  -17.4360    0.8770 C   0  0  0  0  0  0  0  0  0  0  0  0
    0.7920  -17.2660    0.1240 C   0  0  0  0  0  0  0  0  0  0  0  0
    1.8060  -18.2230    0.2190 C   0  0  0  0  0  0  0  0  0  0  0  0
    2.9680  -18.0350   -0.5130 C   0  0  0  0  0  0  0  0  0  0  0  0
    3.1810  -16.9780   -1.3240 N   0  0  0  0  0  0  0  0  0  0  0  0
    2.1850  -16.0720   -1.4150 C   0  0  0  0  0  0  0  0  0  0  0  0
    0.9880  -16.1700   -0.7240 C   0  0  0  0  0  0  0  0  0  0  0  0
   -0.3080  -15.1110    2.5070 N   0  0  0  0  0  0  0  0  0  0  0  0
    0.1890  -12.3920    1.3660 C   0  0  0  0  0  0  0  0  0  0  0  0
    1.1417  -10.1832   -2.7870 H   0  0  0  0  0  0  0  0  0  0  0  0
    2.9142   -9.9983   -2.3798 H   0  0  0  0  0  0  0  0  0  0  0  0
    1.0412  -13.2186   -2.6164 H   0  0  0  0  0  0  0  0  0  0  0  0
    1.6309  -14.9860   -4.2641 H   0  0  0  0  0  0  0  0  0  0  0  0
    3.3292  -14.5385   -6.0292 H   0  0  0  0  0  0  0  0  0  0  0  0
    3.8493  -10.5236   -4.5009 H   0  0  0  0  0  0  0  0  0  0  0  0
    0.0200  -10.2240   -1.1030 H   0  0  0  0  0  0  0  0  0  0  0  0
   -0.8307   -9.1721    0.9075 H   0  0  0  0  0  0  0  0  0  0  0  0
   -1.8568   -9.6013    3.1336 H   0  0  0  0  0  0  0  0  0  0  0  0
   -1.5778  -11.8175    4.2309 H   0  0  0  0  0  0  0  0  0  0  0  0
    0.0603  -13.0877    5.2218 H   0  0  0  0  0  0  0  0  0  0  0  0
    0.5101  -14.9668    7.3940 H   0  0  0  0  0  0  0  0  0  0  0  0
    0.6210  -17.6345    7.3652 H   0  0  0  0  0  0  0  0  0  0  0  0
   -0.1280  -18.3180    2.7720 H   0  0  0  0  0  0  0  0  0  0  0  0
   -0.9664  -18.3917    0.5940 H   0  0  0  0  0  0  0  0  0  0  0  0
   -1.1801  -16.6073    0.6279 H   0  0  0  0  0  0  0  0  0  0  0  0
    1.6845  -19.1075    0.8616 H   0  0  0  0  0  0  0  0  0  0  0  0
    3.7623  -18.7912   -0.4278 H   0  0  0  0  0  0  0  0  0  0  0  0
    2.3320  -15.2053   -2.0762 H   0  0  0  0  0  0  0  0  0  0  0  0
    0.2083  -15.4027   -0.8395 H   0  0  0  0  0  0  0  0  0  0  0  0
    0.7811  -13.1758    0.8709 H   0  0  0  0  0  0  0  0  0  0  0  0
  1  2  2  0
  2  3  1  0
  3  4  1  0
  4  5  2  0
  5  6  1  0
  6  7  2  0
  7  8  1  0
  8  9  1  0
  9 10  1  0
  9 11  1  0
  9 12  1  0
  8 13  2  0
  2 14  1  0
 14 15  1  0
 15 16  2  0
 16 17  1  0
 17 18  2  0
 18 19  1  0
 19 20  1  0
 20 21  2  0
 21 22  1  0
 22 23  1  0
 23 24  2  0
 24 25  1  0
 25 26  2  0
 26 27  1  0
 27 28  1  0
 28 29  1  0
 29 30  1  0
 30 31  2  0
 31 32  1  0
 32 33  2  0
 33 34  1  0
 34 35  2  0
 27 36  2  0
 19 37  2  0
 13  4  1  0
 37 15  1  0
 36 20  1  0
 26 22  1  0
 35 30  1  0
  3 38  1  0
  3 39  1  0
  5 40  1  0
  6 41  1  0
  7 42  1  0
 13 43  1  0
 14 44  1  0
 16 45  1  0
 17 46  1  0
 18 47  1  0
 21 48  1  0
 23 49  1  0
 24 50  1  0
 28 51  1  0
 29 52  1  0
 29 53  1  0
 31 54  1  0
 32 55  1  0
 34 56  1  0
 35 57  1  0
 37 58  1  0
M  END
>  <meeko>  (8) 
{"is_sidechain": [false], "free_energy": -8.603, "intermolecular_energy": -11.987, "internal_energy": -1.345}

$$$$
LIB_HLVJLTDUBJMRSP__M_PUB_ALL__e8__s20260927
     RDKit          3D

 58 62  0  0  0  0  0  0  0  0999 V2000
    7.0600  -16.8980   -6.3500 O   0  0  0  0  0  0  0  0  0  0  0  0
    6.5600  -15.7970   -6.1380 C   0  0  0  0  0  0  0  0  0  0  0  0
    5.3860  -15.6520   -5.1790 C   0  0  0  0  0  0  0  0  0  0  0  0
    5.3560  -14.3270   -4.4520 C   0  0  0  0  0  0  0  0  0  0  0  0
    6.3250  -14.0260   -3.4850 C   0  0  0  0  0  0  0  0  0  0  0  0
    6.3030  -12.8020   -2.8180 C   0  0  0  0  0  0  0  0  0  0  0  0
    5.3170  -11.8610   -3.1120 C   0  0  0  0  0  0  0  0  0  0  0  0
    4.3400  -12.1360   -4.0780 C   0  0  0  0  0  0  0  0  0  0  0  0
    3.2850  -11.1120   -4.4220 C   0  0  0  0  0  0  0  0  0  0  0  0
    2.0600  -11.6560   -4.6630 F   0  0  0  0  0  0  0  0  0  0  0  0
    3.5970  -10.3940   -5.5370 F   0  0  0  0  0  0  0  0  0  0  0  0
    3.1040  -10.2000   -3.4290 F   0  0  0  0  0  0  0  0  0  0  0  0
    4.3740  -13.3700   -4.7500 C   0  0  0  0  0  0  0  0  0  0  0  0
    6.9820  -14.5850   -6.6610 N   0  0  0  0  0  0  0  0  0  0  0  0
    8.0440  -14.3540   -7.5610 C   0  0  0  0  0  0  0  0  0  0  0  0
    7.7140  -13.8220   -8.8120 C   0  0  0  0  0  0  0  0  0  0  0  0
    8.7040  -13.5660   -9.7580 C   0  0  0  0  0  0  0  0  0  0  0  0
   10.0390  -13.8370   -9.4590 C   0  0  0  0  0  0  0  0  0  0  0  0
   10.4010  -14.3640   -8.2110 C   0  0  0  0  0  0  0  0  0  0  0  0
   11.8290  -14.6560   -7.9270 C   0  0  0  0  0  0  0  0  0  0  0  0
   12.7160  -14.7390   -8.9410 C   0  0  0  0  0  0  0  0  0  0  0  0
   14.0300  -15.0240   -8.6390 N   0  0  0  0  0  0  0  0  0  0  0  0
   15.1450  -15.1700   -9.4190 C   0  0  0  0  0  0  0  0  0  0  0  0
   16.1650  -15.4520   -8.5340 C   0  0  0  0  0  0  0  0  0  0  0  0
   15.7070  -15.4870   -7.2380 N   0  0  0  0  0  0  0  0  0  0  0  0
   14.4200  -15.2240   -7.3460 C   0  0  0  0  0  0  0  0  0  0  0  0
   13.4320  -15.1370   -6.2870 C   0  0  0  0  0  0  0  0  0  0  0  0
   13.7960  -15.3360   -4.9790 N   0  0  0  0  0  0  0  0  0  0  0  0
   12.8930  -15.2450   -3.8660 C   0  0  0  0  0  0  0  0  0  0  0  0
   12.9950  -13.8770   -3.2440 C   0  0  0  0  0  0  0  0  0  0  0  0
   13.9120  -12.9380   -3.7250 C   0  0  0  0  0  0  0  0  0  0  0  0
   13.9490  -11.6840   -3.1370 C   0  0  0  0  0  0  0  0  0  0  0  0
   13.1440  -11.3070   -2.1220 N   0  0  0  0  0  0  0  0  0  0  0  0
   12.2550  -12.2220   -1.6800 C   0  0  0  0  0  0  0  0  0  0  0  0
   12.1400  -13.5000   -2.2020 C   0  0  0  0  0  0  0  0  0  0  0  0
   12.1830  -14.8660   -6.5960 N   0  0  0  0  0  0  0  0  0  0  0  0
    9.3840  -14.6300   -7.2750 C   0  0  0  0  0  0  0  0  0  0  0  0
    4.4535  -15.7542   -5.7535 H   0  0  0  0  0  0  0  0  0  0  0  0
    5.4960  -16.4357   -4.4150 H   0  0  0  0  0  0  0  0  0  0  0  0
    7.1089  -14.7612   -3.2506 H   0  0  0  0  0  0  0  0  0  0  0  0
    7.0657  -12.5780   -2.0576 H   0  0  0  0  0  0  0  0  0  0  0  0
    5.3061  -10.8969   -2.5824 H   0  0  0  0  0  0  0  0  0  0  0  0
    3.6200  -13.5887   -5.5205 H   0  0  0  0  0  0  0  0  0  0  0  0
    6.4550  -13.7660   -6.3830 H   0  0  0  0  0  0  0  0  0  0  0  0
    6.6627  -13.6037   -9.0510 H   0  0  0  0  0  0  0  0  0  0  0  0
    8.4331  -13.1505  -10.7398 H   0  0  0  0  0  0  0  0  0  0  0  0
   10.8165  -13.6351  -10.2105 H   0  0  0  0  0  0  0  0  0  0  0  0
   12.3979  -14.5830   -9.9824 H   0  0  0  0  0  0  0  0  0  0  0  0
   15.2131  -15.0817  -10.5133 H   0  0  0  0  0  0  0  0  0  0  0  0
   17.2107  -15.6265   -8.8275 H   0  0  0  0  0  0  0  0  0  0  0  0
   14.7760  -15.5370   -4.8030 H   0  0  0  0  0  0  0  0  0  0  0  0
   11.8634  -15.4127   -4.2151 H   0  0  0  0  0  0  0  0  0  0  0  0
   13.1566  -16.0073   -3.1180 H   0  0  0  0  0  0  0  0  0  0  0  0
   14.5904  -13.1896   -4.5535 H   0  0  0  0  0  0  0  0  0  0  0  0
   14.6768  -10.9535   -3.5199 H   0  0  0  0  0  0  0  0  0  0  0  0
   11.5829  -11.9360   -0.8575 H   0  0  0  0  0  0  0  0  0  0  0  0
   11.3927  -14.2034   -1.8061 H   0  0  0  0  0  0  0  0  0  0  0  0
    9.6490  -15.0636   -6.2994 H   0  0  0  0  0  0  0  0  0  0  0  0
  1  2  2  0
  2  3  1  0
  3  4  1  0
  4  5  2  0
  5  6  1  0
  6  7  2  0
  7  8  1  0
  8  9  1  0
  9 10  1  0
  9 11  1  0
  9 12  1  0
  8 13  2  0
  2 14  1  0
 14 15  1  0
 15 16  2  0
 16 17  1  0
 17 18  2  0
 18 19  1  0
 19 20  1  0
 20 21  2  0
 21 22  1  0
 22 23  1  0
 23 24  2  0
 24 25  1  0
 25 26  2  0
 26 27  1  0
 27 28  1  0
 28 29  1  0
 29 30  1  0
 30 31  2  0
 31 32  1  0
 32 33  2  0
 33 34  1  0
 34 35  2  0
 27 36  2  0
 19 37  2  0
 13  4  1  0
 37 15  1  0
 36 20  1  0
 26 22  1  0
 35 30  1  0
  3 38  1  0
  3 39  1  0
  5 40  1  0
  6 41  1  0
  7 42  1  0
 13 43  1  0
 14 44  1  0
 16 45  1  0
 17 46  1  0
 18 47  1  0
 21 48  1  0
 23 49  1  0
 24 50  1  0
 28 51  1  0
 29 52  1  0
 29 53  1  0
 31 54  1  0
 32 55  1  0
 34 56  1  0
 35 57  1  0
 37 58  1  0
M  END
>  <meeko>  (9) 
{"is_sidechain": [false], "free_energy": -8.532, "intermolecular_energy": -11.991, "internal_energy": -1.241}

$$$$
