LIB_CNAMYLDNIIXYMW__M_PUB_ALL__e8__s20260927
     RDKit          3D

 67 72  0  0  0  0  0  0  0  0999 V2000
    9.7840  -14.8040   -2.9470 O   0  0  0  0  0  0  0  0  0  0  0  0
    9.8760  -13.6250   -3.2640 C   0  0  0  0  0  0  0  0  0  0  0  0
    8.8840  -12.8370   -3.8200 N   0  0  0  0  0  0  0  0  0  0  0  0
    7.6030  -13.2520   -4.2430 C   0  0  0  0  0  0  0  0  0  0  0  0
    7.5350  -14.0750   -5.3720 C   0  0  0  0  0  0  0  0  0  0  0  0
    6.3030  -14.5220   -5.8510 C   0  0  0  0  0  0  0  0  0  0  0  0
    5.1240  -14.1490   -5.2060 C   0  0  0  0  0  0  0  0  0  0  0  0
    5.1660  -13.3300   -4.0720 C   0  0  0  0  0  0  0  0  0  0  0  0
    3.9220  -12.9220   -3.3850 C   0  0  0  0  0  0  0  0  0  0  0  0
    3.5450  -11.6300   -3.4390 C   0  0  0  0  0  0  0  0  0  0  0  0
    2.2880  -11.2820   -2.7340 C   0  0  0  0  0  0  0  0  0  0  0  0
    1.5210  -12.0990   -2.0770 N   0  0  0  0  0  0  0  0  0  0  0  0
    1.9340  -13.4070   -2.0400 C   0  0  0  0  0  0  0  0  0  0  0  0
    1.3980  -14.5250   -1.4360 C   0  0  0  0  0  0  0  0  0  0  0  0
    0.1940  -14.6400   -0.6290 C   0  0  0  0  0  0  0  0  0  0  0  0
   -1.0350  -15.1920   -1.0440 C   0  0  0  0  0  0  0  0  0  0  0  0
   -1.9620  -15.1600   -0.0760 N   0  0  0  0  0  0  0  0  0  0  0  0
   -1.3110  -14.5660    0.9530 N   0  0  0  0  0  0  0  0  0  0  0  0
   -2.0270  -14.3390    2.1950 C   0  0  0  0  0  0  0  0  0  0  0  0
   -2.7560  -12.9890    2.2120 C   0  0  0  0  0  0  0  0  0  0  0  0
   -2.9590  -12.4350    0.8210 N   0  0  0  0  0  0  0  0  0  0  0  0
   -4.3960  -12.2820    0.4000 C   0  0  0  0  0  0  0  0  0  0  0  0
   -4.3220  -11.2420   -0.6960 C   0  0  0  0  0  0  0  0  0  0  0  0
   -3.2920  -10.2680   -0.1600 C   0  0  0  0  0  0  0  0  0  0  0  0
   -2.2360  -11.1520    0.4820 C   0  0  0  0  0  0  0  0  0  0  0  0
   -0.0190  -14.2440    0.6730 C   0  0  0  0  0  0  0  0  0  0  0  0
    2.2720  -15.5730   -1.7610 C   0  0  0  0  0  0  0  0  0  0  0  0
    3.2960  -15.1790   -2.5140 N   0  0  0  0  0  0  0  0  0  0  0  0
    3.1110  -13.8370   -2.6840 N   0  0  0  0  0  0  0  0  0  0  0  0
    6.4170  -12.8950   -3.5950 C   0  0  0  0  0  0  0  0  0  0  0  0
   11.1610  -12.9200   -2.9870 C   0  0  0  0  0  0  0  0  0  0  0  0
   12.1890  -12.8620   -3.9350 C   0  0  0  0  0  0  0  0  0  0  0  0
   13.3810  -12.2010   -3.6310 C   0  0  0  0  0  0  0  0  0  0  0  0
   13.5510  -11.6030   -2.3810 C   0  0  0  0  0  0  0  0  0  0  0  0
   12.5350  -11.6600   -1.4160 C   0  0  0  0  0  0  0  0  0  0  0  0
   12.7290  -11.0470   -0.0500 C   0  0  0  0  0  0  0  0  0  0  0  0
   12.7150   -9.6860   -0.0730 F   0  0  0  0  0  0  0  0  0  0  0  0
   11.7580  -11.4210    0.8270 F   0  0  0  0  0  0  0  0  0  0  0  0
   13.9120  -11.3960    0.5280 F   0  0  0  0  0  0  0  0  0  0  0  0
   11.3420  -12.3350   -1.7270 C   0  0  0  0  0  0  0  0  0  0  0  0
    9.0670  -11.8440   -3.8890 H   0  0  0  0  0  0  0  0  0  0  0  0
    8.4606  -14.3724   -5.8866 H   0  0  0  0  0  0  0  0  0  0  0  0
    6.2616  -15.1698   -6.7390 H   0  0  0  0  0  0  0  0  0  0  0  0
    4.1554  -14.5006   -5.5909 H   0  0  0  0  0  0  0  0  0  0  0  0
    4.1371  -10.8747   -3.9765 H   0  0  0  0  0  0  0  0  0  0  0  0
    1.9740  -10.2284   -2.7709 H   0  0  0  0  0  0  0  0  0  0  0  0
   -1.2133  -15.6027   -2.0488 H   0  0  0  0  0  0  0  0  0  0  0  0
   -2.7672  -15.1418    2.3278 H   0  0  0  0  0  0  0  0  0  0  0  0
   -1.2892  -14.3318    3.0108 H   0  0  0  0  0  0  0  0  0  0  0  0
   -3.7389  -13.1226    2.6875 H   0  0  0  0  0  0  0  0  0  0  0  0
   -2.1347  -12.2756    2.7733 H   0  0  0  0  0  0  0  0  0  0  0  0
   -2.5490  -13.1680    0.1910 H   0  0  0  0  0  0  0  0  0  0  0  0
   -4.7988  -13.2314    0.0173 H   0  0  0  0  0  0  0  0  0  0  0  0
   -5.0610  -11.9928    1.2271 H   0  0  0  0  0  0  0  0  0  0  0  0
   -3.9901  -11.6884   -1.6450 H   0  0  0  0  0  0  0  0  0  0  0  0
   -5.2916  -10.7734   -0.9201 H   0  0  0  0  0  0  0  0  0  0  0  0
   -2.8575   -9.6723   -0.9763 H   0  0  0  0  0  0  0  0  0  0  0  0
   -3.7248   -9.5478    0.5500 H   0  0  0  0  0  0  0  0  0  0  0  0
   -1.4130  -11.3455   -0.2217 H   0  0  0  0  0  0  0  0  0  0  0  0
   -1.7858  -10.6828    1.3692 H   0  0  0  0  0  0  0  0  0  0  0  0
    0.7063  -13.7658    1.3477 H   0  0  0  0  0  0  0  0  0  0  0  0
    2.1262  -16.6113   -1.4284 H   0  0  0  0  0  0  0  0  0  0  0  0
    6.4620  -12.2627   -2.6960 H   0  0  0  0  0  0  0  0  0  0  0  0
   12.0581  -13.3367   -4.9187 H   0  0  0  0  0  0  0  0  0  0  0  0
   14.1873  -12.1514   -4.3776 H   0  0  0  0  0  0  0  0  0  0  0  0
   14.4918  -11.0816   -2.1506 H   0  0  0  0  0  0  0  0  0  0  0  0
   10.5431  -12.4046   -0.9741 H   0  0  0  0  0  0  0  0  0  0  0  0
  1  2  2  0
  2  3  1  0
  3  4  1  0
  4  5  2  0
  5  6  1  0
  6  7  2  0
  7  8  1  0
  8  9  1  0
  9 10  2  0
 10 11  1  0
 11 12  2  0
 12 13  1  0
 13 14  2  0
 14 15  1  0
 15 16  1  0
 16 17  2  0
 17 18  1  0
 18 19  1  0
 19 20  1  0
 20 21  1  0
 21 22  1  0
 22 23  1  0
 23 24  1  0
 24 25  1  0
 18 26  1  0
 14 27  1  0
 27 28  2  0
 28 29  1  0
  8 30  2  0
  2 31  1  0
 31 32  2  0
 32 33  1  0
 33 34  2  0
 34 35  1  0
 35 36  1  0
 36 37  1  0
 36 38  1  0
 36 39  1  0
 35 40  2  0
 30  4  1  0
 40 31  1  0
 29  9  1  0
 29 13  1  0
 26 15  2  0
 25 21  1  0
  3 41  1  0
  5 42  1  0
  6 43  1  0
  7 44  1  0
 10 45  1  0
 11 46  1  0
 16 47  1  0
 19 48  1  0
 19 49  1  0
 20 50  1  0
 20 51  1  0
 21 52  1  0
 22 53  1  0
 22 54  1  0
 23 55  1  0
 23 56  1  0
 24 57  1  0
 24 58  1  0
 25 59  1  0
 25 60  1  0
 26 61  1  0
 27 62  1  0
 30 63  1  0
 32 64  1  0
 33 65  1  0
 34 66  1  0
 40 67  1  0
M  CHG  1  21   1
M  END
>  <meeko>  (1) 
{"is_sidechain": [false], "free_energy": -8.989, "intermolecular_energy": -13.194, "internal_energy": -1.541}

$$$$
LIB_CNAMYLDNIIXYMW__M_PUB_ALL__e8__s20260927
     RDKit          3D

 67 72  0  0  0  0  0  0  0  0999 V2000
   10.7370  -15.3990   -4.3980 O   0  0  0  0  0  0  0  0  0  0  0  0
   10.4280  -14.2840   -3.9960 C   0  0  0  0  0  0  0  0  0  0  0  0
    9.1480  -13.7690   -3.8840 N   0  0  0  0  0  0  0  0  0  0  0  0
    7.9460  -14.3730   -4.3130 C   0  0  0  0  0  0  0  0  0  0  0  0
    7.7360  -14.4770   -5.6920 C   0  0  0  0  0  0  0  0  0  0  0  0
    6.5700  -15.0570   -6.1900 C   0  0  0  0  0  0  0  0  0  0  0  0
    5.5990  -15.5410   -5.3130 C   0  0  0  0  0  0  0  0  0  0  0  0
    5.7880  -15.4530   -3.9290 C   0  0  0  0  0  0  0  0  0  0  0  0
    4.7610  -15.9550   -2.9910 C   0  0  0  0  0  0  0  0  0  0  0  0
    4.9650  -17.1370   -2.3800 C   0  0  0  0  0  0  0  0  0  0  0  0
    3.9020  -17.5870   -1.4480 C   0  0  0  0  0  0  0  0  0  0  0  0
    2.8050  -16.9520   -1.1660 N   0  0  0  0  0  0  0  0  0  0  0  0
    2.6280  -15.7520   -1.8070 C   0  0  0  0  0  0  0  0  0  0  0  0
    1.6010  -14.8310   -1.7710 C   0  0  0  0  0  0  0  0  0  0  0  0
    0.3590  -14.8750   -1.0170 C   0  0  0  0  0  0  0  0  0  0  0  0
   -0.8950  -15.2950   -1.5060 C   0  0  0  0  0  0  0  0  0  0  0  0
   -1.8560  -15.2240   -0.5740 N   0  0  0  0  0  0  0  0  0  0  0  0
   -1.2000  -14.7400    0.5080 N   0  0  0  0  0  0  0  0  0  0  0  0
   -1.9460  -14.5080    1.7310 C   0  0  0  0  0  0  0  0  0  0  0  0
   -2.3080  -13.0290    1.9230 C   0  0  0  0  0  0  0  0  0  0  0  0
   -2.6770  -12.3590    0.6200 N   0  0  0  0  0  0  0  0  0  0  0  0
   -4.1510  -12.3080    0.3250 C   0  0  0  0  0  0  0  0  0  0  0  0
   -4.2650  -11.1600   -0.6530 C   0  0  0  0  0  0  0  0  0  0  0  0
   -3.2860  -10.1470   -0.0910 C   0  0  0  0  0  0  0  0  0  0  0  0
   -2.1040  -10.9830    0.3710 C   0  0  0  0  0  0  0  0  0  0  0  0
    0.1260  -14.5230    0.2930 C   0  0  0  0  0  0  0  0  0  0  0  0
    1.9990  -13.8030   -2.6390 C   0  0  0  0  0  0  0  0  0  0  0  0
    3.1860  -14.0270   -3.1970 N   0  0  0  0  0  0  0  0  0  0  0  0
    3.5830  -15.2360   -2.7060 N   0  0  0  0  0  0  0  0  0  0  0  0
    6.9740  -14.8720   -3.4420 C   0  0  0  0  0  0  0  0  0  0  0  0
   11.5150  -13.3800   -3.5220 C   0  0  0  0  0  0  0  0  0  0  0  0
   12.6080  -13.0530   -4.3330 C   0  0  0  0  0  0  0  0  0  0  0  0
   13.6110  -12.2120   -3.8450 C   0  0  0  0  0  0  0  0  0  0  0  0
   13.5270  -11.7010   -2.5490 C   0  0  0  0  0  0  0  0  0  0  0  0
   12.4440  -12.0270   -1.7190 C   0  0  0  0  0  0  0  0  0  0  0  0
   12.3690  -11.5070   -0.3040 C   0  0  0  0  0  0  0  0  0  0  0  0
   13.1770  -12.1870    0.5550 F   0  0  0  0  0  0  0  0  0  0  0  0
   12.7350  -10.2000   -0.2140 F   0  0  0  0  0  0  0  0  0  0  0  0
   11.1170  -11.5840    0.2270 F   0  0  0  0  0  0  0  0  0  0  0  0
   11.4450  -12.8810   -2.2150 C   0  0  0  0  0  0  0  0  0  0  0  0
    9.0460  -12.8880   -3.3970 H   0  0  0  0  0  0  0  0  0  0  0  0
    8.4974  -14.0979   -6.3896 H   0  0  0  0  0  0  0  0  0  0  0  0
    6.4154  -15.1331   -7.2764 H   0  0  0  0  0  0  0  0  0  0  0  0
    4.6795  -15.9944   -5.7116 H   0  0  0  0  0  0  0  0  0  0  0  0
    5.8696  -17.7360   -2.5616 H   0  0  0  0  0  0  0  0  0  0  0  0
    4.0585  -18.5535   -0.9466 H   0  0  0  0  0  0  0  0  0  0  0  0
   -1.0655  -15.6418   -2.5359 H   0  0  0  0  0  0  0  0  0  0  0  0
   -2.8742  -15.0973    1.6960 H   0  0  0  0  0  0  0  0  0  0  0  0
   -1.3088  -14.8100    2.5753 H   0  0  0  0  0  0  0  0  0  0  0  0
   -3.1630  -12.9599    2.6117 H   0  0  0  0  0  0  0  0  0  0  0  0
   -1.4247  -12.5147    2.3294 H   0  0  0  0  0  0  0  0  0  0  0  0
   -2.2560  -12.9800   -0.1140 H   0  0  0  0  0  0  0  0  0  0  0  0
   -4.4958  -13.2490   -0.1285 H   0  0  0  0  0  0  0  0  0  0  0  0
   -4.7679  -12.1720    1.2255 H   0  0  0  0  0  0  0  0  0  0  0  0
   -3.9748  -11.4722   -1.6671 H   0  0  0  0  0  0  0  0  0  0  0  0
   -5.2888  -10.7701   -0.7521 H   0  0  0  0  0  0  0  0  0  0  0  0
   -2.9773   -9.4313   -0.8672 H   0  0  0  0  0  0  0  0  0  0  0  0
   -3.7213   -9.5489    0.7231 H   0  0  0  0  0  0  0  0  0  0  0  0
   -1.3286  -11.0215   -0.4083 H   0  0  0  0  0  0  0  0  0  0  0  0
   -1.6253  -10.5643    1.2685 H   0  0  0  0  0  0  0  0  0  0  0  0
    0.8613  -14.1438    1.0179 H   0  0  0  0  0  0  0  0  0  0  0  0
    1.3935  -12.9063   -2.8373 H   0  0  0  0  0  0  0  0  0  0  0  0
    7.1386  -14.8097   -2.3562 H   0  0  0  0  0  0  0  0  0  0  0  0
   12.6771  -13.4578   -5.3535 H   0  0  0  0  0  0  0  0  0  0  0  0
   14.4684  -11.9521   -4.4832 H   0  0  0  0  0  0  0  0  0  0  0  0
   14.3186  -11.0354   -2.1743 H   0  0  0  0  0  0  0  0  0  0  0  0
   10.5988  -13.1608   -1.5702 H   0  0  0  0  0  0  0  0  0  0  0  0
  1  2  2  0
  2  3  1  0
  3  4  1  0
  4  5  2  0
  5  6  1  0
  6  7  2  0
  7  8  1  0
  8  9  1  0
  9 10  2  0
 10 11  1  0
 11 12  2  0
 12 13  1  0
 13 14  2  0
 14 15  1  0
 15 16  1  0
 16 17  2  0
 17 18  1  0
 18 19  1  0
 19 20  1  0
 20 21  1  0
 21 22  1  0
 22 23  1  0
 23 24  1  0
 24 25  1  0
 18 26  1  0
 14 27  1  0
 27 28  2  0
 28 29  1  0
  8 30  2  0
  2 31  1  0
 31 32  2  0
 32 33  1  0
 33 34  2  0
 34 35  1  0
 35 36  1  0
 36 37  1  0
 36 38  1  0
 36 39  1  0
 35 40  2  0
 30  4  1  0
 40 31  1  0
 29  9  1  0
 29 13  1  0
 26 15  2  0
 25 21  1  0
  3 41  1  0
  5 42  1  0
  6 43  1  0
  7 44  1  0
 10 45  1  0
 11 46  1  0
 16 47  1  0
 19 48  1  0
 19 49  1  0
 20 50  1  0
 20 51  1  0
 21 52  1  0
 22 53  1  0
 22 54  1  0
 23 55  1  0
 23 56  1  0
 24 57  1  0
 24 58  1  0
 25 59  1  0
 25 60  1  0
 26 61  1  0
 27 62  1  0
 30 63  1  0
 32 64  1  0
 33 65  1  0
 34 66  1  0
 40 67  1  0
M  CHG  1  21   1
M  END
>  <meeko>  (2) 
{"is_sidechain": [false], "free_energy": -8.895, "intermolecular_energy": -13.028, "internal_energy": -1.569}

$$$$
LIB_CNAMYLDNIIXYMW__M_PUB_ALL__e8__s20260927
     RDKit          3D

 67 72  0  0  0  0  0  0  0  0999 V2000
   -3.6350  -12.9890    0.9500 O   0  0  0  0  0  0  0  0  0  0  0  0
   -2.9530  -13.3650    1.8960 C   0  0  0  0  0  0  0  0  0  0  0  0
   -1.7330  -12.8480    2.2950 N   0  0  0  0  0  0  0  0  0  0  0  0
   -0.9670  -11.8640    1.6330 C   0  0  0  0  0  0  0  0  0  0  0  0
   -1.3070  -10.5260    1.8610 C   0  0  0  0  0  0  0  0  0  0  0  0
   -0.5970   -9.4980    1.2390 C   0  0  0  0  0  0  0  0  0  0  0  0
    0.4610   -9.7980    0.3810 C   0  0  0  0  0  0  0  0  0  0  0  0
    0.8230  -11.1290    0.1410 C   0  0  0  0  0  0  0  0  0  0  0  0
    1.9380  -11.4580   -0.7730 C   0  0  0  0  0  0  0  0  0  0  0  0
    1.8330  -11.1180   -2.0710 C   0  0  0  0  0  0  0  0  0  0  0  0
    2.9830  -11.4710   -2.9380 C   0  0  0  0  0  0  0  0  0  0  0  0
    4.0730  -12.0700   -2.5660 N   0  0  0  0  0  0  0  0  0  0  0  0
    4.1470  -12.4040   -1.2370 C   0  0  0  0  0  0  0  0  0  0  0  0
    5.1200  -13.0500   -0.5020 C   0  0  0  0  0  0  0  0  0  0  0  0
    6.3960  -13.5880   -0.9470 C   0  0  0  0  0  0  0  0  0  0  0  0
    6.6900  -14.9480   -1.1730 C   0  0  0  0  0  0  0  0  0  0  0  0
    7.9550  -15.1360   -1.5780 N   0  0  0  0  0  0  0  0  0  0  0  0
    8.4620  -13.8800   -1.5930 N   0  0  0  0  0  0  0  0  0  0  0  0
    9.8510  -13.6930   -1.9720 C   0  0  0  0  0  0  0  0  0  0  0  0
   10.7620  -13.4570   -0.7610 C   0  0  0  0  0  0  0  0  0  0  0  0
   11.2760  -12.0360   -0.7030 N   0  0  0  0  0  0  0  0  0  0  0  0
   11.3440  -11.4410    0.6770 C   0  0  0  0  0  0  0  0  0  0  0  0
   12.3630  -10.3330    0.5210 C   0  0  0  0  0  0  0  0  0  0  0  0
   13.4010  -10.9640   -0.3870 C   0  0  0  0  0  0  0  0  0  0  0  0
   12.5870  -11.7540   -1.3980 C   0  0  0  0  0  0  0  0  0  0  0  0
    7.5670  -12.9220   -1.2300 C   0  0  0  0  0  0  0  0  0  0  0  0
    4.6230  -13.0930    0.8080 C   0  0  0  0  0  0  0  0  0  0  0  0
    3.4260  -12.5240    0.9280 N   0  0  0  0  0  0  0  0  0  0  0  0
    3.1090  -12.1060   -0.3320 N   0  0  0  0  0  0  0  0  0  0  0  0
    0.1030  -12.1540    0.7830 C   0  0  0  0  0  0  0  0  0  0  0  0
   -3.4890  -14.4560    2.7600 C   0  0  0  0  0  0  0  0  0  0  0  0
   -2.8660  -15.7070    2.8380 C   0  0  0  0  0  0  0  0  0  0  0  0
   -3.4080  -16.7060    3.6510 C   0  0  0  0  0  0  0  0  0  0  0  0
   -4.5730  -16.4600    4.3800 C   0  0  0  0  0  0  0  0  0  0  0  0
   -5.2150  -15.2150    4.3040 C   0  0  0  0  0  0  0  0  0  0  0  0
   -6.4960  -14.9580    5.0620 C   0  0  0  0  0  0  0  0  0  0  0  0
   -7.6090  -15.1480    4.3020 F   0  0  0  0  0  0  0  0  0  0  0  0
   -6.6300  -15.7740    6.1420 F   0  0  0  0  0  0  0  0  0  0  0  0
   -6.5860  -13.6850    5.5390 F   0  0  0  0  0  0  0  0  0  0  0  0
   -4.6680  -14.2200    3.4780 C   0  0  0  0  0  0  0  0  0  0  0  0
   -1.3650  -13.1670    3.1820 H   0  0  0  0  0  0  0  0  0  0  0  0
   -2.1407  -10.2824    2.5360 H   0  0  0  0  0  0  0  0  0  0  0  0
   -0.8722   -8.4495    1.4257 H   0  0  0  0  0  0  0  0  0  0  0  0
    1.0143   -8.9839   -0.1101 H   0  0  0  0  0  0  0  0  0  0  0  0
    0.9432  -10.6065   -2.4668 H   0  0  0  0  0  0  0  0  0  0  0  0
    2.9048  -11.1985   -4.0008 H   0  0  0  0  0  0  0  0  0  0  0  0
    5.9644  -15.7628   -1.0331 H   0  0  0  0  0  0  0  0  0  0  0  0
   10.1961  -14.5922   -2.5035 H   0  0  0  0  0  0  0  0  0  0  0  0
    9.9062  -12.7999   -2.6117 H   0  0  0  0  0  0  0  0  0  0  0  0
   10.1928  -13.6659    0.1568 H   0  0  0  0  0  0  0  0  0  0  0  0
   11.6294  -14.1270   -0.8545 H   0  0  0  0  0  0  0  0  0  0  0  0
   10.5520  -11.4820   -1.2220 H   0  0  0  0  0  0  0  0  0  0  0  0
   10.3668  -11.0390    0.9827 H   0  0  0  0  0  0  0  0  0  0  0  0
   11.6155  -12.1733    1.4516 H   0  0  0  0  0  0  0  0  0  0  0  0
   11.9145   -9.4439    0.0537 H   0  0  0  0  0  0  0  0  0  0  0  0
   12.7752   -9.9797    1.4777 H   0  0  0  0  0  0  0  0  0  0  0  0
   14.0009  -10.1907   -0.8890 H   0  0  0  0  0  0  0  0  0  0  0  0
   14.1126  -11.5959    0.1646 H   0  0  0  0  0  0  0  0  0  0  0  0
   12.4223  -11.1619   -2.3103 H   0  0  0  0  0  0  0  0  0  0  0  0
   13.0973  -12.6767   -1.7115 H   0  0  0  0  0  0  0  0  0  0  0  0
    7.7429  -11.8376   -1.1741 H   0  0  0  0  0  0  0  0  0  0  0  0
    5.1657  -13.5494    1.6489 H   0  0  0  0  0  0  0  0  0  0  0  0
    0.3881  -13.2026    0.6123 H   0  0  0  0  0  0  0  0  0  0  0  0
   -1.9509  -15.9035    2.2601 H   0  0  0  0  0  0  0  0  0  0  0  0
   -2.9160  -17.6877    3.7167 H   0  0  0  0  0  0  0  0  0  0  0  0
   -4.9917  -17.2503    5.0204 H   0  0  0  0  0  0  0  0  0  0  0  0
   -5.1707  -13.2452    3.3940 H   0  0  0  0  0  0  0  0  0  0  0  0
  1  2  2  0
  2  3  1  0
  3  4  1  0
  4  5  2  0
  5  6  1  0
  6  7  2  0
  7  8  1  0
  8  9  1  0
  9 10  2  0
 10 11  1  0
 11 12  2  0
 12 13  1  0
 13 14  2  0
 14 15  1  0
 15 16  1  0
 16 17  2  0
 17 18  1  0
 18 19  1  0
 19 20  1  0
 20 21  1  0
 21 22  1  0
 22 23  1  0
 23 24  1  0
 24 25  1  0
 18 26  1  0
 14 27  1  0
 27 28  2  0
 28 29  1  0
  8 30  2  0
  2 31  1  0
 31 32  2  0
 32 33  1  0
 33 34  2  0
 34 35  1  0
 35 36  1  0
 36 37  1  0
 36 38  1  0
 36 39  1  0
 35 40  2  0
 30  4  1  0
 40 31  1  0
 29  9  1  0
 29 13  1  0
 26 15  2  0
 25 21  1  0
  3 41  1  0
  5 42  1  0
  6 43  1  0
  7 44  1  0
 10 45  1  0
 11 46  1  0
 16 47  1  0
 19 48  1  0
 19 49  1  0
 20 50  1  0
 20 51  1  0
 21 52  1  0
 22 53  1  0
 22 54  1  0
 23 55  1  0
 23 56  1  0
 24 57  1  0
 24 58  1  0
 25 59  1  0
 25 60  1  0
 26 61  1  0
 27 62  1  0
 30 63  1  0
 32 64  1  0
 33 65  1  0
 34 66  1  0
 40 67  1  0
M  CHG  1  21   1
M  END
>  <meeko>  (3) 
{"is_sidechain": [false], "free_energy": -8.786, "intermolecular_energy": -13.278, "internal_energy": -1.159}

$$$$
LIB_CNAMYLDNIIXYMW__M_PUB_ALL__e8__s20260927
     RDKit          3D

 67 72  0  0  0  0  0  0  0  0999 V2000
   10.2020  -13.8090   -4.8510 O   0  0  0  0  0  0  0  0  0  0  0  0
   10.2920  -13.3030   -3.7390 C   0  0  0  0  0  0  0  0  0  0  0  0
    9.3080  -13.2580   -2.7670 N   0  0  0  0  0  0  0  0  0  0  0  0
    7.9670  -13.6810   -2.8930 C   0  0  0  0  0  0  0  0  0  0  0  0
    7.7420  -15.0370   -3.1510 C   0  0  0  0  0  0  0  0  0  0  0  0
    6.4440  -15.5270   -3.2920 C   0  0  0  0  0  0  0  0  0  0  0  0
    5.3540  -14.6650   -3.1750 C   0  0  0  0  0  0  0  0  0  0  0  0
    5.5520  -13.3050   -2.9120 C   0  0  0  0  0  0  0  0  0  0  0  0
    4.4040  -12.3800   -2.7950 C   0  0  0  0  0  0  0  0  0  0  0  0
    4.1210  -11.5640   -3.8280 C   0  0  0  0  0  0  0  0  0  0  0  0
    2.9570  -10.6620   -3.6530 C   0  0  0  0  0  0  0  0  0  0  0  0
    2.1900  -10.5870   -2.6080 N   0  0  0  0  0  0  0  0  0  0  0  0
    2.5070  -11.4310   -1.5730 C   0  0  0  0  0  0  0  0  0  0  0  0
    1.9420  -11.6140   -0.3270 C   0  0  0  0  0  0  0  0  0  0  0  0
    0.8060  -10.9320    0.2700 C   0  0  0  0  0  0  0  0  0  0  0  0
    0.7720   -9.5870    0.6940 C   0  0  0  0  0  0  0  0  0  0  0  0
   -0.4170   -9.2430    1.2080 N   0  0  0  0  0  0  0  0  0  0  0  0
   -1.1340  -10.3890    1.1180 N   0  0  0  0  0  0  0  0  0  0  0  0
   -2.4990  -10.3990    1.6110 C   0  0  0  0  0  0  0  0  0  0  0  0
   -3.4960  -10.9050    0.5600 C   0  0  0  0  0  0  0  0  0  0  0  0
   -3.9080  -12.3380    0.8090 N   0  0  0  0  0  0  0  0  0  0  0  0
   -3.3500  -13.3390   -0.1650 C   0  0  0  0  0  0  0  0  0  0  0  0
   -3.4250  -14.6410    0.6010 C   0  0  0  0  0  0  0  0  0  0  0  0
   -3.0200  -14.2240    2.0020 C   0  0  0  0  0  0  0  0  0  0  0  0
   -3.6970  -12.8790    2.2040 C   0  0  0  0  0  0  0  0  0  0  0  0
   -0.4480  -11.4230    0.5590 C   0  0  0  0  0  0  0  0  0  0  0  0
    2.7050  -12.6220    0.2780 C   0  0  0  0  0  0  0  0  0  0  0  0
    3.6880  -13.0670   -0.5010 N   0  0  0  0  0  0  0  0  0  0  0  0
    3.5900  -12.3290   -1.6450 N   0  0  0  0  0  0  0  0  0  0  0  0
    6.8680  -12.8270   -2.7640 C   0  0  0  0  0  0  0  0  0  0  0  0
   11.6010  -12.7100   -3.3390 C   0  0  0  0  0  0  0  0  0  0  0  0
   12.6900  -12.6660   -4.2170 C   0  0  0  0  0  0  0  0  0  0  0  0
   13.9010  -12.1130   -3.7980 C   0  0  0  0  0  0  0  0  0  0  0  0
   14.0300  -11.6090   -2.5020 C   0  0  0  0  0  0  0  0  0  0  0  0
   12.9520  -11.6540   -1.6060 C   0  0  0  0  0  0  0  0  0  0  0  0
   13.0980  -11.1440   -0.1920 C   0  0  0  0  0  0  0  0  0  0  0  0
   14.3330  -10.6290    0.0600 F   0  0  0  0  0  0  0  0  0  0  0  0
   12.2100  -10.1550    0.0940 F   0  0  0  0  0  0  0  0  0  0  0  0
   12.9010  -12.1110    0.7460 F   0  0  0  0  0  0  0  0  0  0  0  0
   11.7400  -12.2210   -2.0330 C   0  0  0  0  0  0  0  0  0  0  0  0
    9.5820  -12.9370   -1.8480 H   0  0  0  0  0  0  0  0  0  0  0  0
    8.5967  -15.7233   -3.2436 H   0  0  0  0  0  0  0  0  0  0  0  0
    6.2796  -16.5954   -3.4959 H   0  0  0  0  0  0  0  0  0  0  0  0
    4.3325  -15.0565   -3.2901 H   0  0  0  0  0  0  0  0  0  0  0  0
    4.7200  -11.5663   -4.7506 H   0  0  0  0  0  0  0  0  0  0  0  0
    2.7200   -9.9902   -4.4912 H   0  0  0  0  0  0  0  0  0  0  0  0
    1.6255   -8.8979    0.6120 H   0  0  0  0  0  0  0  0  0  0  0  0
   -2.5516  -11.0548    2.4926 H   0  0  0  0  0  0  0  0  0  0  0  0
   -2.7727   -9.3637    1.8624 H   0  0  0  0  0  0  0  0  0  0  0  0
   -4.3928  -10.2686    0.5867 H   0  0  0  0  0  0  0  0  0  0  0  0
   -3.0035  -10.8605   -0.4226 H   0  0  0  0  0  0  0  0  0  0  0  0
   -4.9470  -12.3350    0.6580 H   0  0  0  0  0  0  0  0  0  0  0  0
   -3.9601  -13.3829   -1.0792 H   0  0  0  0  0  0  0  0  0  0  0  0
   -2.3321  -13.0935   -0.5021 H   0  0  0  0  0  0  0  0  0  0  0  0
   -4.4456  -15.0511    0.5881 H   0  0  0  0  0  0  0  0  0  0  0  0
   -2.7897  -15.4340    0.1795 H   0  0  0  0  0  0  0  0  0  0  0  0
   -3.3752  -14.9543    2.7439 H   0  0  0  0  0  0  0  0  0  0  0  0
   -1.9283  -14.1675    2.1245 H   0  0  0  0  0  0  0  0  0  0  0  0
   -4.6600  -13.0039    2.7207 H   0  0  0  0  0  0  0  0  0  0  0  0
   -3.0939  -12.2004    2.8251 H   0  0  0  0  0  0  0  0  0  0  0  0
   -0.8190  -12.4422    0.3756 H   0  0  0  0  0  0  0  0  0  0  0  0
    2.5116  -13.0052    1.2908 H   0  0  0  0  0  0  0  0  0  0  0  0
    7.0343  -11.7624   -2.5429 H   0  0  0  0  0  0  0  0  0  0  0  0
   12.5915  -13.0670   -5.2366 H   0  0  0  0  0  0  0  0  0  0  0  0
   14.7553  -12.0741   -4.4898 H   0  0  0  0  0  0  0  0  0  0  0  0
   14.9870  -11.1722   -2.1806 H   0  0  0  0  0  0  0  0  0  0  0  0
   10.8916  -12.2818   -1.3355 H   0  0  0  0  0  0  0  0  0  0  0  0
  1  2  2  0
  2  3  1  0
  3  4  1  0
  4  5  2  0
  5  6  1  0
  6  7  2  0
  7  8  1  0
  8  9  1  0
  9 10  2  0
 10 11  1  0
 11 12  2  0
 12 13  1  0
 13 14  2  0
 14 15  1  0
 15 16  1  0
 16 17  2  0
 17 18  1  0
 18 19  1  0
 19 20  1  0
 20 21  1  0
 21 22  1  0
 22 23  1  0
 23 24  1  0
 24 25  1  0
 18 26  1  0
 14 27  1  0
 27 28  2  0
 28 29  1  0
  8 30  2  0
  2 31  1  0
 31 32  2  0
 32 33  1  0
 33 34  2  0
 34 35  1  0
 35 36  1  0
 36 37  1  0
 36 38  1  0
 36 39  1  0
 35 40  2  0
 30  4  1  0
 40 31  1  0
 29  9  1  0
 29 13  1  0
 26 15  2  0
 25 21  1  0
  3 41  1  0
  5 42  1  0
  6 43  1  0
  7 44  1  0
 10 45  1  0
 11 46  1  0
 16 47  1  0
 19 48  1  0
 19 49  1  0
 20 50  1  0
 20 51  1  0
 21 52  1  0
 22 53  1  0
 22 54  1  0
 23 55  1  0
 23 56  1  0
 24 57  1  0
 24 58  1  0
 25 59  1  0
 25 60  1  0
 26 61  1  0
 27 62  1  0
 30 63  1  0
 32 64  1  0
 33 65  1  0
 34 66  1  0
 40 67  1  0
M  CHG  1  21   1
M  END
>  <meeko>  (4) 
{"is_sidechain": [false], "free_energy": -8.628, "intermolecular_energy": -12.856, "internal_energy": -1.348}

$$$$
LIB_CNAMYLDNIIXYMW__M_PUB_ALL__e8__s20260927
     RDKit          3D

 67 72  0  0  0  0  0  0  0  0999 V2000
    6.7300  -13.1560   -5.3320 O   0  0  0  0  0  0  0  0  0  0  0  0
    5.9380  -13.4160   -6.2310 C   0  0  0  0  0  0  0  0  0  0  0  0
    4.5760  -13.1710   -6.2310 N   0  0  0  0  0  0  0  0  0  0  0  0
    3.7980  -12.6800   -5.1600 C   0  0  0  0  0  0  0  0  0  0  0  0
    3.6630  -11.2920   -5.0490 C   0  0  0  0  0  0  0  0  0  0  0  0
    2.9130  -10.7330   -4.0140 C   0  0  0  0  0  0  0  0  0  0  0  0
    2.2890  -11.5570   -3.0780 C   0  0  0  0  0  0  0  0  0  0  0  0
    2.4050  -12.9490   -3.1700 C   0  0  0  0  0  0  0  0  0  0  0  0
    1.7550  -13.8310   -2.1780 C   0  0  0  0  0  0  0  0  0  0  0  0
    0.6820  -14.5500   -2.5560 C   0  0  0  0  0  0  0  0  0  0  0  0
    0.0740  -15.4190   -1.5180 C   0  0  0  0  0  0  0  0  0  0  0  0
    0.4780  -15.5520   -0.2920 N   0  0  0  0  0  0  0  0  0  0  0  0
    1.5730  -14.8040    0.0610 C   0  0  0  0  0  0  0  0  0  0  0  0
    2.2560  -14.6770    1.2530 C   0  0  0  0  0  0  0  0  0  0  0  0
    1.9960  -15.3210    2.5300 C   0  0  0  0  0  0  0  0  0  0  0  0
    1.7840  -14.6680    3.7620 C   0  0  0  0  0  0  0  0  0  0  0  0
    1.5680  -15.5300    4.7660 N   0  0  0  0  0  0  0  0  0  0  0  0
    1.6610  -16.7370    4.1590 N   0  0  0  0  0  0  0  0  0  0  0  0
    1.4990  -17.9370    4.9620 C   0  0  0  0  0  0  0  0  0  0  0  0
    0.0300  -18.3630    5.0860 C   0  0  0  0  0  0  0  0  0  0  0  0
   -0.9170  -17.1950    4.9330 N   0  0  0  0  0  0  0  0  0  0  0  0
   -1.8880  -17.3100    3.7900 C   0  0  0  0  0  0  0  0  0  0  0  0
   -3.0070  -16.3760    4.1970 C   0  0  0  0  0  0  0  0  0  0  0  0
   -3.1270  -16.6320    5.6870 C   0  0  0  0  0  0  0  0  0  0  0  0
   -1.6900  -16.7740    6.1610 C   0  0  0  0  0  0  0  0  0  0  0  0
    1.9080  -16.6630    2.8230 C   0  0  0  0  0  0  0  0  0  0  0  0
    3.2910  -13.7680    0.9880 C   0  0  0  0  0  0  0  0  0  0  0  0
    3.2900  -13.3350   -0.2700 N   0  0  0  0  0  0  0  0  0  0  0  0
    2.2240  -13.9540   -0.8550 N   0  0  0  0  0  0  0  0  0  0  0  0
    3.1590  -13.4980   -4.2250 C   0  0  0  0  0  0  0  0  0  0  0  0
    6.4720  -14.0110   -7.4890 C   0  0  0  0  0  0  0  0  0  0  0  0
    6.8680  -15.3520   -7.5610 C   0  0  0  0  0  0  0  0  0  0  0  0
    7.3740  -15.8660   -8.7570 C   0  0  0  0  0  0  0  0  0  0  0  0
    7.4910  -15.0440   -9.8790 C   0  0  0  0  0  0  0  0  0  0  0  0
    7.1090  -13.6960   -9.8210 C   0  0  0  0  0  0  0  0  0  0  0  0
    7.2680  -12.7930  -11.0220 C   0  0  0  0  0  0  0  0  0  0  0  0
    8.4420  -12.1050  -11.0150 F   0  0  0  0  0  0  0  0  0  0  0  0
    7.2400  -13.4830  -12.1940 F   0  0  0  0  0  0  0  0  0  0  0  0
    6.2870  -11.8530  -11.1160 F   0  0  0  0  0  0  0  0  0  0  0  0
    6.6090  -13.1840   -8.6120 C   0  0  0  0  0  0  0  0  0  0  0  0
    4.0830  -13.3070   -7.1040 H   0  0  0  0  0  0  0  0  0  0  0  0
    4.1523  -10.6359   -5.7839 H   0  0  0  0  0  0  0  0  0  0  0  0
    2.8137   -9.6403   -3.9361 H   0  0  0  0  0  0  0  0  0  0  0  0
    1.7018  -11.1103   -2.2621 H   0  0  0  0  0  0  0  0  0  0  0  0
    0.2780  -14.4965   -3.5777 H   0  0  0  0  0  0  0  0  0  0  0  0
   -0.8054  -16.0082   -1.8172 H   0  0  0  0  0  0  0  0  0  0  0  0
    1.7947  -13.5750    3.8853 H   0  0  0  0  0  0  0  0  0  0  0  0
    2.0658  -18.7550    4.4934 H   0  0  0  0  0  0  0  0  0  0  0  0
    1.8713  -17.7170    5.9734 H   0  0  0  0  0  0  0  0  0  0  0  0
   -0.1915  -19.1037    4.3035 H   0  0  0  0  0  0  0  0  0  0  0  0
   -0.1155  -18.7869    6.0906 H   0  0  0  0  0  0  0  0  0  0  0  0
   -0.2900  -16.3870    4.7000 H   0  0  0  0  0  0  0  0  0  0  0  0
   -1.4267  -16.9859    2.8455 H   0  0  0  0  0  0  0  0  0  0  0  0
   -2.2276  -18.3411    3.6125 H   0  0  0  0  0  0  0  0  0  0  0  0
   -2.7426  -15.3277    3.9944 H   0  0  0  0  0  0  0  0  0  0  0  0
   -3.9435  -16.5497    3.6467 H   0  0  0  0  0  0  0  0  0  0  0  0
   -3.6211  -15.7871    6.1889 H   0  0  0  0  0  0  0  0  0  0  0  0
   -3.7337  -17.5213    5.9129 H   0  0  0  0  0  0  0  0  0  0  0  0
   -1.3127  -15.8152    6.5463 H   0  0  0  0  0  0  0  0  0  0  0  0
   -1.5937  -17.5008    6.9810 H   0  0  0  0  0  0  0  0  0  0  0  0
    2.0153  -17.5032    2.1212 H   0  0  0  0  0  0  0  0  0  0  0  0
    4.0259  -13.4470    1.7409 H   0  0  0  0  0  0  0  0  0  0  0  0
    3.2464  -14.5909   -4.3145 H   0  0  0  0  0  0  0  0  0  0  0  0
    6.7807  -16.0001   -6.6765 H   0  0  0  0  0  0  0  0  0  0  0  0
    7.6809  -16.9207   -8.8149 H   0  0  0  0  0  0  0  0  0  0  0  0
    7.8869  -15.4578  -10.8182 H   0  0  0  0  0  0  0  0  0  0  0  0
    6.3224  -12.1240   -8.5463 H   0  0  0  0  0  0  0  0  0  0  0  0
  1  2  2  0
  2  3  1  0
  3  4  1  0
  4  5  2  0
  5  6  1  0
  6  7  2  0
  7  8  1  0
  8  9  1  0
  9 10  2  0
 10 11  1  0
 11 12  2  0
 12 13  1  0
 13 14  2  0
 14 15  1  0
 15 16  1  0
 16 17  2  0
 17 18  1  0
 18 19  1  0
 19 20  1  0
 20 21  1  0
 21 22  1  0
 22 23  1  0
 23 24  1  0
 24 25  1  0
 18 26  1  0
 14 27  1  0
 27 28  2  0
 28 29  1  0
  8 30  2  0
  2 31  1  0
 31 32  2  0
 32 33  1  0
 33 34  2  0
 34 35  1  0
 35 36  1  0
 36 37  1  0
 36 38  1  0
 36 39  1  0
 35 40  2  0
 30  4  1  0
 40 31  1  0
 29  9  1  0
 29 13  1  0
 26 15  2  0
 25 21  1  0
  3 41  1  0
  5 42  1  0
  6 43  1  0
  7 44  1  0
 10 45  1  0
 11 46  1  0
 16 47  1  0
 19 48  1  0
 19 49  1  0
 20 50  1  0
 20 51  1  0
 21 52  1  0
 22 53  1  0
 22 54  1  0
 23 55  1  0
 23 56  1  0
 24 57  1  0
 24 58  1  0
 25 59  1  0
 25 60  1  0
 26 61  1  0
 27 62  1  0
 30 63  1  0
 32 64  1  0
 33 65  1  0
 34 66  1  0
 40 67  1  0
M  CHG  1  21   1
M  END
>  <meeko>  (5) 
{"is_sidechain": [false], "free_energy": -8.619, "intermolecular_energy": -12.532, "internal_energy": -1.66}

$$$$
LIB_CNAMYLDNIIXYMW__M_PUB_ALL__e8__s20260927
     RDKit          3D

 67 72  0  0  0  0  0  0  0  0999 V2000
    9.2130  -15.0800   -0.9510 O   0  0  0  0  0  0  0  0  0  0  0  0
    9.3430  -14.0150   -1.5420 C   0  0  0  0  0  0  0  0  0  0  0  0
    8.5200  -13.5130   -2.5350 N   0  0  0  0  0  0  0  0  0  0  0  0
    7.4330  -14.1670   -3.1530 C   0  0  0  0  0  0  0  0  0  0  0  0
    7.4250  -14.2190   -4.5500 C   0  0  0  0  0  0  0  0  0  0  0  0
    6.3800  -14.8450   -5.2310 C   0  0  0  0  0  0  0  0  0  0  0  0
    5.3310  -15.4270   -4.5200 C   0  0  0  0  0  0  0  0  0  0  0  0
    5.3190  -15.3930   -3.1210 C   0  0  0  0  0  0  0  0  0  0  0  0
    4.2070  -16.0000   -2.3570 C   0  0  0  0  0  0  0  0  0  0  0  0
    4.3880  -17.2130   -1.8040 C   0  0  0  0  0  0  0  0  0  0  0  0
    3.2390  -17.7690   -1.0490 C   0  0  0  0  0  0  0  0  0  0  0  0
    2.0860  -17.1980   -0.8700 N   0  0  0  0  0  0  0  0  0  0  0  0
    1.9350  -15.9630   -1.4480 C   0  0  0  0  0  0  0  0  0  0  0  0
    0.8690  -15.0880   -1.4840 C   0  0  0  0  0  0  0  0  0  0  0  0
   -0.4550  -15.2330   -0.9020 C   0  0  0  0  0  0  0  0  0  0  0  0
   -1.3290  -16.3240   -1.0870 C   0  0  0  0  0  0  0  0  0  0  0  0
   -2.4820  -16.1730   -0.4200 N   0  0  0  0  0  0  0  0  0  0  0  0
   -2.3350  -14.9670    0.1780 N   0  0  0  0  0  0  0  0  0  0  0  0
   -3.4240  -14.4520    0.9890 C   0  0  0  0  0  0  0  0  0  0  0  0
   -2.9870  -13.2840    1.8830 C   0  0  0  0  0  0  0  0  0  0  0  0
   -3.4930  -11.9550    1.3710 N   0  0  0  0  0  0  0  0  0  0  0  0
   -2.4210  -10.9870    0.9470 C   0  0  0  0  0  0  0  0  0  0  0  0
   -3.1540  -10.0580    0.0040 C   0  0  0  0  0  0  0  0  0  0  0  0
   -4.0530  -11.0080   -0.7640 C   0  0  0  0  0  0  0  0  0  0  0  0
   -4.5420  -11.9930    0.2850 C   0  0  0  0  0  0  0  0  0  0  0  0
   -1.1380  -14.3710   -0.0740 C   0  0  0  0  0  0  0  0  0  0  0  0
    1.3240  -13.9860   -2.2240 C   0  0  0  0  0  0  0  0  0  0  0  0
    2.5810  -14.1240   -2.6390 N   0  0  0  0  0  0  0  0  0  0  0  0
    2.9700  -15.3490   -2.1800 N   0  0  0  0  0  0  0  0  0  0  0  0
    6.3840  -14.7650   -2.4490 C   0  0  0  0  0  0  0  0  0  0  0  0
   10.4640  -13.1180   -1.1380 C   0  0  0  0  0  0  0  0  0  0  0  0
   10.4870  -12.4840    0.1090 C   0  0  0  0  0  0  0  0  0  0  0  0
   11.5510  -11.6420    0.4430 C   0  0  0  0  0  0  0  0  0  0  0  0
   12.5870  -11.4280   -0.4670 C   0  0  0  0  0  0  0  0  0  0  0  0
   12.5740  -12.0470   -1.7260 C   0  0  0  0  0  0  0  0  0  0  0  0
   13.6740  -11.7890   -2.7280 C   0  0  0  0  0  0  0  0  0  0  0  0
   14.2180  -12.9340   -3.2240 F   0  0  0  0  0  0  0  0  0  0  0  0
   13.2360  -11.0800   -3.8030 F   0  0  0  0  0  0  0  0  0  0  0  0
   14.7130  -11.0800   -2.2070 F   0  0  0  0  0  0  0  0  0  0  0  0
   11.4960  -12.8850   -2.0570 C   0  0  0  0  0  0  0  0  0  0  0  0
    8.6750  -12.5540   -2.8210 H   0  0  0  0  0  0  0  0  0  0  0  0
    8.2495  -13.7626   -5.1174 H   0  0  0  0  0  0  0  0  0  0  0  0
    6.3838  -14.8794   -6.3305 H   0  0  0  0  0  0  0  0  0  0  0  0
    4.5080  -15.9158   -5.0621 H   0  0  0  0  0  0  0  0  0  0  0  0
    5.3357  -17.7620   -1.9062 H   0  0  0  0  0  0  0  0  0  0  0  0
    3.3765  -18.7620   -0.5963 H   0  0  0  0  0  0  0  0  0  0  0  0
   -1.0915  -17.2000   -1.7084 H   0  0  0  0  0  0  0  0  0  0  0  0
   -4.2273  -14.1051    0.3224 H   0  0  0  0  0  0  0  0  0  0  0  0
   -3.7672  -15.2657    1.6448 H   0  0  0  0  0  0  0  0  0  0  0  0
   -3.3813  -13.4467    2.8969 H   0  0  0  0  0  0  0  0  0  0  0  0
   -1.8875  -13.2504    1.8826 H   0  0  0  0  0  0  0  0  0  0  0  0
   -3.9610  -11.5220    2.2050 H   0  0  0  0  0  0  0  0  0  0  0  0
   -2.0205  -10.4372    1.8115 H   0  0  0  0  0  0  0  0  0  0  0  0
   -1.5526  -11.4780    0.4835 H   0  0  0  0  0  0  0  0  0  0  0  0
   -3.7443   -9.3139    0.5588 H   0  0  0  0  0  0  0  0  0  0  0  0
   -2.4836   -9.4719   -0.6418 H   0  0  0  0  0  0  0  0  0  0  0  0
   -4.8981  -10.4665   -1.2140 H   0  0  0  0  0  0  0  0  0  0  0  0
   -3.5287  -11.5040   -1.5941 H   0  0  0  0  0  0  0  0  0  0  0  0
   -5.5205  -11.6832    0.6808 H   0  0  0  0  0  0  0  0  0  0  0  0
   -4.6762  -13.0043   -0.1265 H   0  0  0  0  0  0  0  0  0  0  0  0
   -0.7880  -13.3998    0.3059 H   0  0  0  0  0  0  0  0  0  0  0  0
    0.7067  -13.1012   -2.4385 H   0  0  0  0  0  0  0  0  0  0  0  0
    6.3911  -14.7443   -1.3492 H   0  0  0  0  0  0  0  0  0  0  0  0
    9.6686  -12.6481    0.8255 H   0  0  0  0  0  0  0  0  0  0  0  0
   11.5719  -11.1470    1.4251 H   0  0  0  0  0  0  0  0  0  0  0  0
   13.4228  -10.7669   -0.1943 H   0  0  0  0  0  0  0  0  0  0  0  0
   11.4617  -13.3629   -3.0472 H   0  0  0  0  0  0  0  0  0  0  0  0
  1  2  2  0
  2  3  1  0
  3  4  1  0
  4  5  2  0
  5  6  1  0
  6  7  2  0
  7  8  1  0
  8  9  1  0
  9 10  2  0
 10 11  1  0
 11 12  2  0
 12 13  1  0
 13 14  2  0
 14 15  1  0
 15 16  1  0
 16 17  2  0
 17 18  1  0
 18 19  1  0
 19 20  1  0
 20 21  1  0
 21 22  1  0
 22 23  1  0
 23 24  1  0
 24 25  1  0
 18 26  1  0
 14 27  1  0
 27 28  2  0
 28 29  1  0
  8 30  2  0
  2 31  1  0
 31 32  2  0
 32 33  1  0
 33 34  2  0
 34 35  1  0
 35 36  1  0
 36 37  1  0
 36 38  1  0
 36 39  1  0
 35 40  2  0
 30  4  1  0
 40 31  1  0
 29  9  1  0
 29 13  1  0
 26 15  2  0
 25 21  1  0
  3 41  1  0
  5 42  1  0
  6 43  1  0
  7 44  1  0
 10 45  1  0
 11 46  1  0
 16 47  1  0
 19 48  1  0
 19 49  1  0
 20 50  1  0
 20 51  1  0
 21 52  1  0
 22 53  1  0
 22 54  1  0
 23 55  1  0
 23 56  1  0
 24 57  1  0
 24 58  1  0
 25 59  1  0
 25 60  1  0
 26 61  1  0
 27 62  1  0
 30 63  1  0
 32 64  1  0
 33 65  1  0
 34 66  1  0
 40 67  1  0
M  CHG  1  21   1
M  END
>  <meeko>  (6) 
{"is_sidechain": [false], "free_energy": -8.587, "intermolecular_energy": -12.871, "internal_energy": -1.273}

$$$$
LIB_CNAMYLDNIIXYMW__M_PUB_ALL__e8__s20260927
     RDKit          3D

 67 72  0  0  0  0  0  0  0  0999 V2000
    6.8930  -13.4350   -5.0720 O   0  0  0  0  0  0  0  0  0  0  0  0
    6.1070  -13.5390   -6.0060 C   0  0  0  0  0  0  0  0  0  0  0  0
    4.8250  -13.0240   -6.0700 N   0  0  0  0  0  0  0  0  0  0  0  0
    4.1140  -12.3740   -5.0380 C   0  0  0  0  0  0  0  0  0  0  0  0
    3.6560  -11.0770   -5.2910 C   0  0  0  0  0  0  0  0  0  0  0  0
    2.9500  -10.3700   -4.3170 C   0  0  0  0  0  0  0  0  0  0  0  0
    2.6950  -10.9540   -3.0770 C   0  0  0  0  0  0  0  0  0  0  0  0
    3.1390  -12.2530   -2.8000 C   0  0  0  0  0  0  0  0  0  0  0  0
    2.8800  -12.8780   -1.4850 C   0  0  0  0  0  0  0  0  0  0  0  0
    3.7270  -12.6250   -0.4700 C   0  0  0  0  0  0  0  0  0  0  0  0
    3.4160  -13.2780    0.8240 C   0  0  0  0  0  0  0  0  0  0  0  0
    2.4100  -14.0620    1.0690 N   0  0  0  0  0  0  0  0  0  0  0  0
    1.5670  -14.3000    0.0130 C   0  0  0  0  0  0  0  0  0  0  0  0
    0.4320  -15.0760   -0.1030 C   0  0  0  0  0  0  0  0  0  0  0  0
   -0.2180  -15.9020    0.9010 C   0  0  0  0  0  0  0  0  0  0  0  0
   -0.3040  -17.3090    0.8910 C   0  0  0  0  0  0  0  0  0  0  0  0
   -0.9660  -17.7880    1.9540 N   0  0  0  0  0  0  0  0  0  0  0  0
   -1.3120  -16.6670    2.6310 N   0  0  0  0  0  0  0  0  0  0  0  0
   -2.0780  -16.8000    3.8570 C   0  0  0  0  0  0  0  0  0  0  0  0
   -3.5890  -16.8680    3.5980 C   0  0  0  0  0  0  0  0  0  0  0  0
   -4.3390  -15.7670    4.3130 N   0  0  0  0  0  0  0  0  0  0  0  0
   -4.7310  -14.6000    3.4490 C   0  0  0  0  0  0  0  0  0  0  0  0
   -5.8840  -13.9830    4.2100 C   0  0  0  0  0  0  0  0  0  0  0  0
   -6.6390  -15.2000    4.7110 C   0  0  0  0  0  0  0  0  0  0  0  0
   -5.5490  -16.1760    5.1210 C   0  0  0  0  0  0  0  0  0  0  0  0
   -0.8820  -15.5170    2.0450 C   0  0  0  0  0  0  0  0  0  0  0  0
    0.0080  -14.9120   -1.4300 C   0  0  0  0  0  0  0  0  0  0  0  0
    0.7960  -14.0970   -2.1280 N   0  0  0  0  0  0  0  0  0  0  0  0
    1.7740  -13.7210   -1.2550 N   0  0  0  0  0  0  0  0  0  0  0  0
    3.8420  -12.9560   -3.7970 C   0  0  0  0  0  0  0  0  0  0  0  0
    6.5670  -14.2430   -7.2370 C   0  0  0  0  0  0  0  0  0  0  0  0
    7.0140  -15.5690   -7.2050 C   0  0  0  0  0  0  0  0  0  0  0  0
    7.4470  -16.1870   -8.3800 C   0  0  0  0  0  0  0  0  0  0  0  0
    7.4400  -15.4830   -9.5860 C   0  0  0  0  0  0  0  0  0  0  0  0
    7.0060  -14.1500   -9.6340 C   0  0  0  0  0  0  0  0  0  0  0  0
    7.0320  -13.3730  -10.9280 C   0  0  0  0  0  0  0  0  0  0  0  0
    8.2740  -13.3090  -11.4830 F   0  0  0  0  0  0  0  0  0  0  0  0
    6.2220  -13.9190  -11.8750 F   0  0  0  0  0  0  0  0  0  0  0  0
    6.6230  -12.0820  -10.7830 F   0  0  0  0  0  0  0  0  0  0  0  0
    6.5800  -13.5330   -8.4450 C   0  0  0  0  0  0  0  0  0  0  0  0
    4.3550  -13.0670   -6.9650 H   0  0  0  0  0  0  0  0  0  0  0  0
    3.8542  -10.6099   -6.2670 H   0  0  0  0  0  0  0  0  0  0  0  0
    2.5942   -9.3507   -4.5278 H   0  0  0  0  0  0  0  0  0  0  0  0
    2.1415  -10.3908   -2.3112 H   0  0  0  0  0  0  0  0  0  0  0  0
    4.6018  -11.9698   -0.5939 H   0  0  0  0  0  0  0  0  0  0  0  0
    4.1047  -13.0790    1.6583 H   0  0  0  0  0  0  0  0  0  0  0  0
    0.1238  -17.9426    0.1001 H   0  0  0  0  0  0  0  0  0  0  0  0
   -1.7658  -17.7213    4.3705 H   0  0  0  0  0  0  0  0  0  0  0  0
   -1.8829  -15.9096    4.4727 H   0  0  0  0  0  0  0  0  0  0  0  0
   -3.7680  -16.7747    2.5167 H   0  0  0  0  0  0  0  0  0  0  0  0
   -3.9553  -17.8317    3.9817 H   0  0  0  0  0  0  0  0  0  0  0  0
   -3.6450  -15.3950    5.0070 H   0  0  0  0  0  0  0  0  0  0  0  0
   -3.8992  -13.8876    3.3462 H   0  0  0  0  0  0  0  0  0  0  0  0
   -4.9968  -14.8917    2.4222 H   0  0  0  0  0  0  0  0  0  0  0  0
   -5.5231  -13.3673    5.0470 H   0  0  0  0  0  0  0  0  0  0  0  0
   -6.5000  -13.3072    3.5986 H   0  0  0  0  0  0  0  0  0  0  0  0
   -7.2719  -14.9387    5.5719 H   0  0  0  0  0  0  0  0  0  0  0  0
   -7.3133  -15.6189    3.9495 H   0  0  0  0  0  0  0  0  0  0  0  0
   -5.3411  -16.0943    6.1981 H   0  0  0  0  0  0  0  0  0  0  0  0
   -5.8372  -17.2213    4.9360 H   0  0  0  0  0  0  0  0  0  0  0  0
   -1.0334  -14.4904    2.4098 H   0  0  0  0  0  0  0  0  0  0  0  0
   -0.8815  -15.4047   -1.8495 H   0  0  0  0  0  0  0  0  0  0  0  0
    4.1833  -13.9821   -3.5954 H   0  0  0  0  0  0  0  0  0  0  0  0
    7.0242  -16.1238   -6.2552 H   0  0  0  0  0  0  0  0  0  0  0  0
    7.7943  -17.2305   -8.3555 H   0  0  0  0  0  0  0  0  0  0  0  0
    7.7783  -15.9789  -10.5078 H   0  0  0  0  0  0  0  0  0  0  0  0
    6.2537  -12.4827   -8.4630 H   0  0  0  0  0  0  0  0  0  0  0  0
  1  2  2  0
  2  3  1  0
  3  4  1  0
  4  5  2  0
  5  6  1  0
  6  7  2  0
  7  8  1  0
  8  9  1  0
  9 10  2  0
 10 11  1  0
 11 12  2  0
 12 13  1  0
 13 14  2  0
 14 15  1  0
 15 16  1  0
 16 17  2  0
 17 18  1  0
 18 19  1  0
 19 20  1  0
 20 21  1  0
 21 22  1  0
 22 23  1  0
 23 24  1  0
 24 25  1  0
 18 26  1  0
 14 27  1  0
 27 28  2  0
 28 29  1  0
  8 30  2  0
  2 31  1  0
 31 32  2  0
 32 33  1  0
 33 34  2  0
 34 35  1  0
 35 36  1  0
 36 37  1  0
 36 38  1  0
 36 39  1  0
 35 40  2  0
 30  4  1  0
 40 31  1  0
 29  9  1  0
 29 13  1  0
 26 15  2  0
 25 21  1  0
  3 41  1  0
  5 42  1  0
  6 43  1  0
  7 44  1  0
 10 45  1  0
 11 46  1  0
 16 47  1  0
 19 48  1  0
 19 49  1  0
 20 50  1  0
 20 51  1  0
 21 52  1  0
 22 53  1  0
 22 54  1  0
 23 55  1  0
 23 56  1  0
 24 57  1  0
 24 58  1  0
 25 59  1  0
 25 60  1  0
 26 61  1  0
 27 62  1  0
 30 63  1  0
 32 64  1  0
 33 65  1  0
 34 66  1  0
 40 67  1  0
M  CHG  1  21   1
M  END
>  <meeko>  (7) 
{"is_sidechain": [false], "free_energy": -8.512, "intermolecular_energy": -12.793, "internal_energy": -1.242}

$$$$
LIB_CNAMYLDNIIXYMW__M_PUB_ALL__e8__s20260927
     RDKit          3D

 67 72  0  0  0  0  0  0  0  0999 V2000
    7.2400  -15.5710   -7.4590 O   0  0  0  0  0  0  0  0  0  0  0  0
    6.7030  -14.4760   -7.3370 C   0  0  0  0  0  0  0  0  0  0  0  0
    6.7490  -13.4260   -8.2370 N   0  0  0  0  0  0  0  0  0  0  0  0
    7.5110  -13.3530   -9.4230 C   0  0  0  0  0  0  0  0  0  0  0  0
    6.8150  -13.3820  -10.6360 C   0  0  0  0  0  0  0  0  0  0  0  0
    7.5010  -13.3170  -11.8490 C   0  0  0  0  0  0  0  0  0  0  0  0
    8.8920  -13.2230  -11.8620 C   0  0  0  0  0  0  0  0  0  0  0  0
    9.6110  -13.1880  -10.6620 C   0  0  0  0  0  0  0  0  0  0  0  0
   11.0870  -13.0970  -10.6640 C   0  0  0  0  0  0  0  0  0  0  0  0
   11.6620  -11.9020  -10.8980 C   0  0  0  0  0  0  0  0  0  0  0  0
   13.1450  -11.8730  -10.8860 C   0  0  0  0  0  0  0  0  0  0  0  0
   13.9330  -12.8810  -10.6690 N   0  0  0  0  0  0  0  0  0  0  0  0
   13.3150  -14.0840  -10.4360 C   0  0  0  0  0  0  0  0  0  0  0  0
   13.8180  -15.3450  -10.1910 C   0  0  0  0  0  0  0  0  0  0  0  0
   15.2030  -15.7790  -10.1140 C   0  0  0  0  0  0  0  0  0  0  0  0
   16.0370  -15.6990   -8.9800 C   0  0  0  0  0  0  0  0  0  0  0  0
   17.2670  -16.1790   -9.2150 N   0  0  0  0  0  0  0  0  0  0  0  0
   17.2070  -16.5520  -10.5160 N   0  0  0  0  0  0  0  0  0  0  0  0
   18.3940  -17.1110  -11.1370 C   0  0  0  0  0  0  0  0  0  0  0  0
   18.3790  -16.9650  -12.6640 C   0  0  0  0  0  0  0  0  0  0  0  0
   18.5000  -18.2990  -13.3650 N   0  0  0  0  0  0  0  0  0  0  0  0
   19.9060  -18.7160  -13.7000 C   0  0  0  0  0  0  0  0  0  0  0  0
   19.7930  -20.2180  -13.8400 C   0  0  0  0  0  0  0  0  0  0  0  0
   18.8450  -20.5850  -12.7140 C   0  0  0  0  0  0  0  0  0  0  0  0
   17.8060  -19.4760  -12.7210 C   0  0  0  0  0  0  0  0  0  0  0  0
   15.9930  -16.3390  -11.0930 C   0  0  0  0  0  0  0  0  0  0  0  0
   12.6910  -16.1640  -10.0280 C   0  0  0  0  0  0  0  0  0  0  0  0
   11.5450  -15.4990  -10.1530 N   0  0  0  0  0  0  0  0  0  0  0  0
   11.9120  -14.2130  -10.4210 N   0  0  0  0  0  0  0  0  0  0  0  0
    8.9040  -13.2450   -9.4460 C   0  0  0  0  0  0  0  0  0  0  0  0
    5.8640  -14.2350   -6.1280 C   0  0  0  0  0  0  0  0  0  0  0  0
    5.7600  -15.1810   -5.1020 C   0  0  0  0  0  0  0  0  0  0  0  0
    4.9530  -14.9200   -3.9920 C   0  0  0  0  0  0  0  0  0  0  0  0
    4.2450  -13.7200   -3.9080 C   0  0  0  0  0  0  0  0  0  0  0  0
    4.3290  -12.7660   -4.9330 C   0  0  0  0  0  0  0  0  0  0  0  0
    3.5350  -11.4830   -4.8630 C   0  0  0  0  0  0  0  0  0  0  0  0
    3.6900  -10.7030   -5.9690 F   0  0  0  0  0  0  0  0  0  0  0  0
    2.1990  -11.7080   -4.7430 F   0  0  0  0  0  0  0  0  0  0  0  0
    3.8810  -10.6990   -3.8050 F   0  0  0  0  0  0  0  0  0  0  0  0
    5.1360  -13.0410   -6.0490 C   0  0  0  0  0  0  0  0  0  0  0  0
    6.1340  -12.6420   -8.0620 H   0  0  0  0  0  0  0  0  0  0  0  0
    5.7175  -13.4567  -10.6334 H   0  0  0  0  0  0  0  0  0  0  0  0
    6.9434  -13.3400  -12.7969 H   0  0  0  0  0  0  0  0  0  0  0  0
    9.4276  -13.1761  -12.8216 H   0  0  0  0  0  0  0  0  0  0  0  0
   11.0651  -10.9977  -11.0875 H   0  0  0  0  0  0  0  0  0  0  0  0
   13.6238  -10.9019  -11.0801 H   0  0  0  0  0  0  0  0  0  0  0  0
   15.7150  -15.2890   -8.0114 H   0  0  0  0  0  0  0  0  0  0  0  0
   19.2784  -16.5903  -10.7410 H   0  0  0  0  0  0  0  0  0  0  0  0
   18.4205  -18.1855  -10.9031 H   0  0  0  0  0  0  0  0  0  0  0  0
   17.4335  -16.4906  -12.9655 H   0  0  0  0  0  0  0  0  0  0  0  0
   19.2444  -16.3509  -12.9537 H   0  0  0  0  0  0  0  0  0  0  0  0
   18.0160  -18.1490  -14.2840 H   0  0  0  0  0  0  0  0  0  0  0  0
   20.2410  -18.2556  -14.6412 H   0  0  0  0  0  0  0  0  0  0  0  0
   20.6414  -18.4060  -12.9430 H   0  0  0  0  0  0  0  0  0  0  0  0
   19.3736  -20.4952  -14.8184 H   0  0  0  0  0  0  0  0  0  0  0  0
   20.7613  -20.7367  -13.7832 H   0  0  0  0  0  0  0  0  0  0  0  0
   18.3744  -21.5610  -12.9034 H   0  0  0  0  0  0  0  0  0  0  0  0
   19.3580  -20.6740  -11.7450 H   0  0  0  0  0  0  0  0  0  0  0  0
   16.9249  -19.7746  -13.3079 H   0  0  0  0  0  0  0  0  0  0  0  0
   17.4437  -19.2409  -11.7093 H   0  0  0  0  0  0  0  0  0  0  0  0
   15.7024  -16.5674  -12.1291 H   0  0  0  0  0  0  0  0  0  0  0  0
   12.7484  -17.2424   -9.8189 H   0  0  0  0  0  0  0  0  0  0  0  0
    9.4582  -13.2038   -8.4967 H   0  0  0  0  0  0  0  0  0  0  0  0
    6.3133  -16.1293   -5.1695 H   0  0  0  0  0  0  0  0  0  0  0  0
    4.8754  -15.6612   -3.1830 H   0  0  0  0  0  0  0  0  0  0  0  0
    3.6146  -13.5203   -3.0289 H   0  0  0  0  0  0  0  0  0  0  0  0
    5.1970  -12.3111   -6.8697 H   0  0  0  0  0  0  0  0  0  0  0  0
  1  2  2  0
  2  3  1  0
  3  4  1  0
  4  5  2  0
  5  6  1  0
  6  7  2  0
  7  8  1  0
  8  9  1  0
  9 10  2  0
 10 11  1  0
 11 12  2  0
 12 13  1  0
 13 14  2  0
 14 15  1  0
 15 16  1  0
 16 17  2  0
 17 18  1  0
 18 19  1  0
 19 20  1  0
 20 21  1  0
 21 22  1  0
 22 23  1  0
 23 24  1  0
 24 25  1  0
 18 26  1  0
 14 27  1  0
 27 28  2  0
 28 29  1  0
  8 30  2  0
  2 31  1  0
 31 32  2  0
 32 33  1  0
 33 34  2  0
 34 35  1  0
 35 36  1  0
 36 37  1  0
 36 38  1  0
 36 39  1  0
 35 40  2  0
 30  4  1  0
 40 31  1  0
 29  9  1  0
 29 13  1  0
 26 15  2  0
 25 21  1  0
  3 41  1  0
  5 42  1  0
  6 43  1  0
  7 44  1  0
 10 45  1  0
 11 46  1  0
 16 47  1  0
 19 48  1  0
 19 49  1  0
 20 50  1  0
 20 51  1  0
 21 52  1  0
 22 53  1  0
 22 54  1  0
 23 55  1  0
 23 56  1  0
 24 57  1  0
 24 58  1  0
 25 59  1  0
 25 60  1  0
 26 61  1  0
 27 62  1  0
 30 63  1  0
 32 64  1  0
 33 65  1  0
 34 66  1  0
 40 67  1  0
M  CHG  1  21   1
M  END
>  <meeko>  (8) 
{"is_sidechain": [false], "free_energy": -8.504, "intermolecular_energy": -12.595, "internal_energy": -1.429}

$$$$
LIB_CNAMYLDNIIXYMW__M_PUB_ALL__e8__s20260927
     RDKit          3D

 67 72  0  0  0  0  0  0  0  0999 V2000
   -1.7130  -14.6350    0.2640 O   0  0  0  0  0  0  0  0  0  0  0  0
   -1.0760  -14.4360    1.2910 C   0  0  0  0  0  0  0  0  0  0  0  0
   -0.1760  -13.4110    1.5220 N   0  0  0  0  0  0  0  0  0  0  0  0
    0.2810  -12.4520    0.5920 C   0  0  0  0  0  0  0  0  0  0  0  0
   -0.3850  -11.2230    0.5560 C   0  0  0  0  0  0  0  0  0  0  0  0
    0.0070  -10.2280   -0.3400 C   0  0  0  0  0  0  0  0  0  0  0  0
    1.0720  -10.4530   -1.2110 C   0  0  0  0  0  0  0  0  0  0  0  0
    1.7590  -11.6730   -1.1920 C   0  0  0  0  0  0  0  0  0  0  0  0
    2.8840  -11.9240   -2.1180 C   0  0  0  0  0  0  0  0  0  0  0  0
    2.6180  -12.1250   -3.4220 C   0  0  0  0  0  0  0  0  0  0  0  0
    3.7870  -12.3700   -4.3010 C   0  0  0  0  0  0  0  0  0  0  0  0
    5.0320  -12.4050   -3.9350 N   0  0  0  0  0  0  0  0  0  0  0  0
    5.2690  -12.1980   -2.6000 C   0  0  0  0  0  0  0  0  0  0  0  0
    6.4350  -12.1830   -1.8620 C   0  0  0  0  0  0  0  0  0  0  0  0
    7.8020  -12.3970   -2.3080 C   0  0  0  0  0  0  0  0  0  0  0  0
    8.5350  -11.5580   -3.1720 C   0  0  0  0  0  0  0  0  0  0  0  0
    9.7730  -12.0180   -3.4010 N   0  0  0  0  0  0  0  0  0  0  0  0
    9.8110  -13.1670   -2.6850 N   0  0  0  0  0  0  0  0  0  0  0  0
   11.0220  -13.9670   -2.7120 C   0  0  0  0  0  0  0  0  0  0  0  0
   11.9530  -13.6610   -1.5320 C   0  0  0  0  0  0  0  0  0  0  0  0
   11.9080  -12.2040   -1.1340 N   0  0  0  0  0  0  0  0  0  0  0  0
   11.5250  -11.9460    0.2980 C   0  0  0  0  0  0  0  0  0  0  0  0
   12.0930  -10.5690    0.5610 C   0  0  0  0  0  0  0  0  0  0  0  0
   13.4250  -10.6160   -0.1610 C   0  0  0  0  0  0  0  0  0  0  0  0
   13.1300  -11.3710   -1.4460 C   0  0  0  0  0  0  0  0  0  0  0  0
    8.6600  -13.4310   -2.0100 C   0  0  0  0  0  0  0  0  0  0  0  0
    6.0330  -11.9130   -0.5460 C   0  0  0  0  0  0  0  0  0  0  0  0
    4.7160  -11.7630   -0.4260 N   0  0  0  0  0  0  0  0  0  0  0  0
    4.2250  -11.9510   -1.6850 N   0  0  0  0  0  0  0  0  0  0  0  0
    1.3560  -12.6630   -0.2760 C   0  0  0  0  0  0  0  0  0  0  0  0
   -1.3090  -15.3440    2.4510 C   0  0  0  0  0  0  0  0  0  0  0  0
   -0.2870  -16.1420    2.9800 C   0  0  0  0  0  0  0  0  0  0  0  0
   -0.5520  -16.9870    4.0600 C   0  0  0  0  0  0  0  0  0  0  0  0
   -1.8340  -17.0420    4.6090 C   0  0  0  0  0  0  0  0  0  0  0  0
   -2.8710  -16.2570    4.0850 C   0  0  0  0  0  0  0  0  0  0  0  0
   -4.2680  -16.3410    4.6520 C   0  0  0  0  0  0  0  0  0  0  0  0
   -4.2890  -16.3420    6.0130 F   0  0  0  0  0  0  0  0  0  0  0  0
   -5.0470  -15.2950    4.2630 F   0  0  0  0  0  0  0  0  0  0  0  0
   -4.9320  -17.4670    4.2700 F   0  0  0  0  0  0  0  0  0  0  0  0
   -2.5990  -15.4160    2.9930 C   0  0  0  0  0  0  0  0  0  0  0  0
    0.1580  -13.2950    2.4700 H   0  0  0  0  0  0  0  0  0  0  0  0
   -1.2260  -11.0389    1.2407 H   0  0  0  0  0  0  0  0  0  0  0  0
   -0.5247   -9.2652   -0.3592 H   0  0  0  0  0  0  0  0  0  0  0  0
    1.3748   -9.6667   -1.9181 H   0  0  0  0  0  0  0  0  0  0  0  0
    1.5904  -12.1085   -3.8140 H   0  0  0  0  0  0  0  0  0  0  0  0
    3.5787  -12.5386   -5.3679 H   0  0  0  0  0  0  0  0  0  0  0  0
    8.1360  -10.6306   -3.6088 H   0  0  0  0  0  0  0  0  0  0  0  0
   10.7434  -15.0305   -2.6753 H   0  0  0  0  0  0  0  0  0  0  0  0
   11.5637  -13.7233   -3.6378 H   0  0  0  0  0  0  0  0  0  0  0  0
   11.6469  -14.2733   -0.6709 H   0  0  0  0  0  0  0  0  0  0  0  0
   12.9818  -13.8950   -1.8433 H   0  0  0  0  0  0  0  0  0  0  0  0
   11.1330  -11.8040   -1.7180 H   0  0  0  0  0  0  0  0  0  0  0  0
   10.4320  -11.9528    0.4220 H   0  0  0  0  0  0  0  0  0  0  0  0
   11.9043  -12.7105    0.9920 H   0  0  0  0  0  0  0  0  0  0  0  0
   11.4431   -9.7854    0.1443 H   0  0  0  0  0  0  0  0  0  0  0  0
   12.1841  -10.3309    1.6310 H   0  0  0  0  0  0  0  0  0  0  0  0
   13.7854   -9.6001   -0.3801 H   0  0  0  0  0  0  0  0  0  0  0  0
   14.2109  -11.0986    0.4386 H   0  0  0  0  0  0  0  0  0  0  0  0
   12.9215  -10.6702   -2.2678 H   0  0  0  0  0  0  0  0  0  0  0  0
   13.9812  -11.9883   -1.7691 H   0  0  0  0  0  0  0  0  0  0  0  0
    8.4566  -14.2942   -1.3592 H   0  0  0  0  0  0  0  0  0  0  0  0
    6.7330  -11.8335    0.2988 H   0  0  0  0  0  0  0  0  0  0  0  0
    1.8970  -13.6202   -0.2427 H   0  0  0  0  0  0  0  0  0  0  0  0
    0.7229  -16.1034    2.5456 H   0  0  0  0  0  0  0  0  0  0  0  0
    0.2515  -17.6106    4.4789 H   0  0  0  0  0  0  0  0  0  0  0  0
   -2.0329  -17.7080    5.4615 H   0  0  0  0  0  0  0  0  0  0  0  0
   -3.4067  -14.8081    2.5593 H   0  0  0  0  0  0  0  0  0  0  0  0
  1  2  2  0
  2  3  1  0
  3  4  1  0
  4  5  2  0
  5  6  1  0
  6  7  2  0
  7  8  1  0
  8  9  1  0
  9 10  2  0
 10 11  1  0
 11 12  2  0
 12 13  1  0
 13 14  2  0
 14 15  1  0
 15 16  1  0
 16 17  2  0
 17 18  1  0
 18 19  1  0
 19 20  1  0
 20 21  1  0
 21 22  1  0
 22 23  1  0
 23 24  1  0
 24 25  1  0
 18 26  1  0
 14 27  1  0
 27 28  2  0
 28 29  1  0
  8 30  2  0
  2 31  1  0
 31 32  2  0
 32 33  1  0
 33 34  2  0
 34 35  1  0
 35 36  1  0
 36 37  1  0
 36 38  1  0
 36 39  1  0
 35 40  2  0
 30  4  1  0
 40 31  1  0
 29  9  1  0
 29 13  1  0
 26 15  2  0
 25 21  1  0
  3 41  1  0
  5 42  1  0
  6 43  1  0
  7 44  1  0
 10 45  1  0
 11 46  1  0
 16 47  1  0
 19 48  1  0
 19 49  1  0
 20 50  1  0
 20 51  1  0
 21 52  1  0
 22 53  1  0
 22 54  1  0
 23 55  1  0
 23 56  1  0
 24 57  1  0
 24 58  1  0
 25 59  1  0
 25 60  1  0
 26 61  1  0
 27 62  1  0
 30 63  1  0
 32 64  1  0
 33 65  1  0
 34 66  1  0
 40 67  1  0
M  CHG  1  21   1
M  END
>  <meeko>  (9) 
{"is_sidechain": [false], "free_energy": -8.412, "intermolecular_energy": -12.271, "internal_energy": -1.617}

$$$$
