LIB_YIICPBQWCOBAJU__M_PUB_ALL__e8__s20260927
     RDKit          3D

 71 75  0  0  0  0  0  0  0  0999 V2000
   -0.0620   -9.9400    1.0100 C   0  0  0  0  0  0  0  0  0  0  0  0
   -1.4770  -10.3550    1.3080 N   0  0  0  0  0  0  0  0  0  0  0  0
   -1.9180  -11.6280    0.6170 C   0  0  0  0  0  0  0  0  0  0  0  0
   -1.3550  -12.8870    1.3240 C   0  0  0  0  0  0  0  0  0  0  0  0
   -1.6860  -12.9050    2.8240 N   0  0  0  0  0  0  0  0  0  0  0  0
   -1.0960  -14.1540    3.4910 C   0  0  0  0  0  0  0  0  0  0  0  0
    0.0800  -13.8690    4.4350 C   0  0  0  0  0  0  0  0  0  0  0  0
    1.1610  -14.9620    4.4850 C   0  0  0  0  0  0  0  0  0  0  0  0
    1.8160  -15.1130    3.1840 C   0  0  0  0  0  0  0  0  0  0  0  0
    2.2730  -15.0920    2.0740 C   0  0  0  0  0  0  0  0  0  0  0  0
    2.6900  -14.7490    0.7640 C   0  0  0  0  0  0  0  0  0  0  0  0
    3.8960  -14.1610    0.3750 C   0  0  0  0  0  0  0  0  0  0  0  0
    3.8290  -13.6640   -0.8580 N   0  0  0  0  0  0  0  0  0  0  0  0
    2.6560  -14.1430   -1.3680 N   0  0  0  0  0  0  0  0  0  0  0  0
    2.1070  -13.9410   -2.6470 C   0  0  0  0  0  0  0  0  0  0  0  0
    2.7350  -13.0170   -3.6040 C   0  0  0  0  0  0  0  0  0  0  0  0
    2.5870  -11.6320   -3.5380 C   0  0  0  0  0  0  0  0  0  0  0  0
    3.2440  -10.8250   -4.4680 C   0  0  0  0  0  0  0  0  0  0  0  0
    4.0530  -11.3940   -5.4590 C   0  0  0  0  0  0  0  0  0  0  0  0
    4.2150  -12.7810   -5.5320 C   0  0  0  0  0  0  0  0  0  0  0  0
    5.0400  -13.3070   -6.5510 N   0  0  0  0  0  0  0  0  0  0  0  0
    6.2820  -13.8970   -6.4130 C   0  0  0  0  0  0  0  0  0  0  0  0
    6.9440  -14.0330   -5.3810 O   0  0  0  0  0  0  0  0  0  0  0  0
    6.8740  -14.3970   -7.6820 C   0  0  0  0  0  0  0  0  0  0  0  0
    7.7250  -15.5060   -7.7090 C   0  0  0  0  0  0  0  0  0  0  0  0
    8.2870  -15.9180   -8.9190 C   0  0  0  0  0  0  0  0  0  0  0  0
    8.0150  -15.2180  -10.0980 C   0  0  0  0  0  0  0  0  0  0  0  0
    7.1810  -14.0920  -10.0800 C   0  0  0  0  0  0  0  0  0  0  0  0
    6.8840  -13.3110  -11.3380 C   0  0  0  0  0  0  0  0  0  0  0  0
    7.8790  -13.4120  -12.2570 F   0  0  0  0  0  0  0  0  0  0  0  0
    6.6700  -11.9890  -11.1280 F   0  0  0  0  0  0  0  0  0  0  0  0
    5.7590  -13.7820  -11.9550 F   0  0  0  0  0  0  0  0  0  0  0  0
    6.6020  -13.6960   -8.8630 C   0  0  0  0  0  0  0  0  0  0  0  0
    3.5550  -13.5760   -4.6030 C   0  0  0  0  0  0  0  0  0  0  0  0
    0.9010  -14.4650   -2.9390 C   0  0  0  0  0  0  0  0  0  0  0  0
    0.2040  -15.1440   -1.8150 C   0  0  0  0  0  0  0  0  0  0  0  0
    0.6320  -15.2290   -0.5890 N   0  0  0  0  0  0  0  0  0  0  0  0
    1.9030  -14.7730   -0.3650 C   0  0  0  0  0  0  0  0  0  0  0  0
   -1.2920  -11.5970    3.5230 C   0  0  0  0  0  0  0  0  0  0  0  0
   -1.8370  -10.3480    2.7800 C   0  0  0  0  0  0  0  0  0  0  0  0
    0.4800   -9.7810    1.9539 H   0  0  0  0  0  0  0  0  0  0  0  0
    0.4371  -10.7296    0.4291 H   0  0  0  0  0  0  0  0  0  0  0  0
   -0.0685   -9.0059    0.4291 H   0  0  0  0  0  0  0  0  0  0  0  0
   -2.0420   -9.5910    0.8560 H   0  0  0  0  0  0  0  0  0  0  0  0
   -3.0169  -11.6759    0.6249 H   0  0  0  0  0  0  0  0  0  0  0  0
   -1.5322  -11.6111   -0.4130 H   0  0  0  0  0  0  0  0  0  0  0  0
   -1.7897  -13.7816    0.8542 H   0  0  0  0  0  0  0  0  0  0  0  0
   -0.2601  -12.8728    1.2192 H   0  0  0  0  0  0  0  0  0  0  0  0
   -2.7070  -12.9930    2.9010 H   0  0  0  0  0  0  0  0  0  0  0  0
   -1.8923  -14.6439    4.0706 H   0  0  0  0  0  0  0  0  0  0  0  0
   -0.7045  -14.7884    2.6821 H   0  0  0  0  0  0  0  0  0  0  0  0
    0.5577  -12.9329    4.1102 H   0  0  0  0  0  0  0  0  0  0  0  0
   -0.3475  -13.8168    5.4472 H   0  0  0  0  0  0  0  0  0  0  0  0
    1.9150  -14.6879    5.2376 H   0  0  0  0  0  0  0  0  0  0  0  0
    0.6820  -15.9165    4.7488 H   0  0  0  0  0  0  0  0  0  0  0  0
    4.7925  -14.1144    1.0107 H   0  0  0  0  0  0  0  0  0  0  0  0
    1.9569  -11.1788   -2.7585 H   0  0  0  0  0  0  0  0  0  0  0  0
    3.1252   -9.7324   -4.4220 H   0  0  0  0  0  0  0  0  0  0  0  0
    4.5647  -10.7454   -6.1852 H   0  0  0  0  0  0  0  0  0  0  0  0
    4.6730  -13.2030   -7.4930 H   0  0  0  0  0  0  0  0  0  0  0  0
    7.9508  -16.0516   -6.7809 H   0  0  0  0  0  0  0  0  0  0  0  0
    8.9470  -16.7977   -8.9446 H   0  0  0  0  0  0  0  0  0  0  0  0
    8.4589  -15.5535  -11.0469 H   0  0  0  0  0  0  0  0  0  0  0  0
    5.9284  -12.8267   -8.8376 H   0  0  0  0  0  0  0  0  0  0  0  0
    3.6760  -14.6684   -4.6490 H   0  0  0  0  0  0  0  0  0  0  0  0
    0.4602  -14.3950   -3.9444 H   0  0  0  0  0  0  0  0  0  0  0  0
   -0.7626  -15.6183   -2.0404 H   0  0  0  0  0  0  0  0  0  0  0  0
   -1.6973  -11.6058    4.5456 H   0  0  0  0  0  0  0  0  0  0  0  0
   -0.1938  -11.5344    3.5282 H   0  0  0  0  0  0  0  0  0  0  0  0
   -2.9326  -10.3284    2.8766 H   0  0  0  0  0  0  0  0  0  0  0  0
   -1.3789   -9.4576    3.2354 H   0  0  0  0  0  0  0  0  0  0  0  0
  1  2  1  0
  2  3  1  0
  3  4  1  0
  4  5  1  0
  5  6  1  0
  6  7  1  0
  7  8  1  0
  8  9  1  0
  9 10  3  0
 10 11  1  0
 11 12  1  0
 12 13  2  0
 13 14  1  0
 14 15  1  0
 15 16  1  0
 16 17  2  0
 17 18  1  0
 18 19  2  0
 19 20  1  0
 20 21  1  0
 21 22  1  0
 22 23  2  0
 22 24  1  0
 24 25  2  0
 25 26  1  0
 26 27  2  0
 27 28  1  0
 28 29  1  0
 29 30  1  0
 29 31  1  0
 29 32  1  0
 28 33  2  0
 20 34  2  0
 15 35  2  0
 35 36  1  0
 36 37  2  0
 37 38  1  0
  5 39  1  0
 39 40  1  0
 40  2  1  0
 38 11  2  0
 38 14  1  0
 34 16  1  0
 33 24  1  0
  1 41  1  0
  1 42  1  0
  1 43  1  0
  2 44  1  0
  3 45  1  0
  3 46  1  0
  4 47  1  0
  4 48  1  0
  5 49  1  0
  6 50  1  0
  6 51  1  0
  7 52  1  0
  7 53  1  0
  8 54  1  0
  8 55  1  0
 12 56  1  0
 17 57  1  0
 18 58  1  0
 19 59  1  0
 21 60  1  0
 25 61  1  0
 26 62  1  0
 27 63  1  0
 33 64  1  0
 34 65  1  0
 35 66  1  0
 36 67  1  0
 39 68  1  0
 39 69  1  0
 40 70  1  0
 40 71  1  0
M  CHG  2   2   1   5   1
M  END
>  <meeko>  (1) 
{"is_sidechain": [false], "free_energy": -8.921, "intermolecular_energy": -13.093, "internal_energy": -1.619}

$$$$
LIB_YIICPBQWCOBAJU__M_PUB_ALL__e8__s20260927
     RDKit          3D

 71 75  0  0  0  0  0  0  0  0999 V2000
   -1.7750  -14.9310    3.1090 C   0  0  0  0  0  0  0  0  0  0  0  0
   -2.8480  -14.6680    2.0880 N   0  0  0  0  0  0  0  0  0  0  0  0
   -3.9120  -13.6860    2.5340 C   0  0  0  0  0  0  0  0  0  0  0  0
   -3.4120  -12.2220    2.4470 C   0  0  0  0  0  0  0  0  0  0  0  0
   -2.8630  -11.8790    1.0550 N   0  0  0  0  0  0  0  0  0  0  0  0
   -2.3610  -10.4300    1.0150 C   0  0  0  0  0  0  0  0  0  0  0  0
   -1.0530  -10.1950    1.7820 C   0  0  0  0  0  0  0  0  0  0  0  0
    0.0190   -9.3950    1.0220 C   0  0  0  0  0  0  0  0  0  0  0  0
    0.7050  -10.2380    0.0400 C   0  0  0  0  0  0  0  0  0  0  0  0
    1.1440  -11.0430   -0.7340 C   0  0  0  0  0  0  0  0  0  0  0  0
    1.9630  -11.8830   -1.5300 C   0  0  0  0  0  0  0  0  0  0  0  0
    2.4460  -13.1560   -1.2160 C   0  0  0  0  0  0  0  0  0  0  0  0
    3.4480  -13.5150   -2.0150 N   0  0  0  0  0  0  0  0  0  0  0  0
    3.4590  -12.5780   -3.0090 N   0  0  0  0  0  0  0  0  0  0  0  0
    4.3070  -12.4970   -4.1290 C   0  0  0  0  0  0  0  0  0  0  0  0
    5.4400  -13.4220   -4.2910 C   0  0  0  0  0  0  0  0  0  0  0  0
    5.3080  -14.7050   -4.8210 C   0  0  0  0  0  0  0  0  0  0  0  0
    6.4410  -15.5080   -4.9680 C   0  0  0  0  0  0  0  0  0  0  0  0
    7.7040  -15.0320   -4.5940 C   0  0  0  0  0  0  0  0  0  0  0  0
    7.8500  -13.7450   -4.0680 C   0  0  0  0  0  0  0  0  0  0  0  0
    9.1440  -13.3130   -3.7040 N   0  0  0  0  0  0  0  0  0  0  0  0
   10.3350  -13.5690   -4.3560 C   0  0  0  0  0  0  0  0  0  0  0  0
   10.5160  -14.2720   -5.3530 O   0  0  0  0  0  0  0  0  0  0  0  0
   11.5270  -12.9240   -3.7430 C   0  0  0  0  0  0  0  0  0  0  0  0
   12.7370  -12.8070   -4.4350 C   0  0  0  0  0  0  0  0  0  0  0  0
   13.8400  -12.2260   -3.8080 C   0  0  0  0  0  0  0  0  0  0  0  0
   13.7450  -11.7780   -2.4870 C   0  0  0  0  0  0  0  0  0  0  0  0
   12.5450  -11.9080   -1.7750 C   0  0  0  0  0  0  0  0  0  0  0  0
   12.4230  -11.4440   -0.3440 C   0  0  0  0  0  0  0  0  0  0  0  0
   11.1600  -11.5720    0.1380 F   0  0  0  0  0  0  0  0  0  0  0  0
   12.7940  -10.1540   -0.1500 F   0  0  0  0  0  0  0  0  0  0  0  0
   13.2140  -12.1910    0.4840 F   0  0  0  0  0  0  0  0  0  0  0  0
   11.4330  -12.4740   -2.4210 C   0  0  0  0  0  0  0  0  0  0  0  0
    6.7150  -12.9550   -3.9220 C   0  0  0  0  0  0  0  0  0  0  0  0
    4.1870  -11.4550   -4.9740 C   0  0  0  0  0  0  0  0  0  0  0  0
    3.2060  -10.4110   -4.5750 C   0  0  0  0  0  0  0  0  0  0  0  0
    2.5070  -10.3990   -3.4790 N   0  0  0  0  0  0  0  0  0  0  0  0
    2.5850  -11.5240   -2.7040 C   0  0  0  0  0  0  0  0  0  0  0  0
   -1.8230  -12.8980    0.5710 C   0  0  0  0  0  0  0  0  0  0  0  0
   -2.3310  -14.3590    0.6970 C   0  0  0  0  0  0  0  0  0  0  0  0
   -2.1971  -14.8275    4.1195 H   0  0  0  0  0  0  0  0  0  0  0  0
   -1.3854  -15.9512    2.9770 H   0  0  0  0  0  0  0  0  0  0  0  0
   -0.9578  -14.2066    2.9770 H   0  0  0  0  0  0  0  0  0  0  0  0
   -3.3420  -15.5940    2.0270 H   0  0  0  0  0  0  0  0  0  0  0  0
   -4.7956  -13.8001    1.8888 H   0  0  0  0  0  0  0  0  0  0  0  0
   -4.1604  -13.9021    3.5836 H   0  0  0  0  0  0  0  0  0  0  0  0
   -4.2506  -11.5471    2.6733 H   0  0  0  0  0  0  0  0  0  0  0  0
   -2.5939  -12.1007    3.1722 H   0  0  0  0  0  0  0  0  0  0  0  0
   -3.6580  -11.9260    0.4040 H   0  0  0  0  0  0  0  0  0  0  0  0
   -2.1992  -10.1501   -0.0364 H   0  0  0  0  0  0  0  0  0  0  0  0
   -3.1299   -9.8159    1.5066 H   0  0  0  0  0  0  0  0  0  0  0  0
   -1.2940   -9.6485    2.7057 H   0  0  0  0  0  0  0  0  0  0  0  0
   -0.6210  -11.1909    1.9597 H   0  0  0  0  0  0  0  0  0  0  0  0
   -0.4618   -8.5540    0.5008 H   0  0  0  0  0  0  0  0  0  0  0  0
    0.7603   -9.0263    1.7462 H   0  0  0  0  0  0  0  0  0  0  0  0
    2.0466  -13.7850   -0.4068 H   0  0  0  0  0  0  0  0  0  0  0  0
    4.3190  -15.0817   -5.1210 H   0  0  0  0  0  0  0  0  0  0  0  0
    6.3407  -16.5226   -5.3809 H   0  0  0  0  0  0  0  0  0  0  0  0
    8.5877  -15.6757   -4.7151 H   0  0  0  0  0  0  0  0  0  0  0  0
    9.1880  -12.7760   -2.8420 H   0  0  0  0  0  0  0  0  0  0  0  0
   12.8188  -13.1716   -5.4696 H   0  0  0  0  0  0  0  0  0  0  0  0
   14.7882  -12.1200   -4.3554 H   0  0  0  0  0  0  0  0  0  0  0  0
   14.6197  -11.3196   -2.0024 H   0  0  0  0  0  0  0  0  0  0  0  0
   10.4784  -12.5644   -1.8820 H   0  0  0  0  0  0  0  0  0  0  0  0
    6.8163  -11.9409   -3.5082 H   0  0  0  0  0  0  0  0  0  0  0  0
    4.7767  -11.3810   -5.8996 H   0  0  0  0  0  0  0  0  0  0  0  0
    3.0583   -9.5721   -5.2710 H   0  0  0  0  0  0  0  0  0  0  0  0
   -1.5911  -12.6934   -0.4846 H   0  0  0  0  0  0  0  0  0  0  0  0
   -0.9295  -12.7954    1.2043 H   0  0  0  0  0  0  0  0  0  0  0  0
   -3.1452  -14.5144   -0.0261 H   0  0  0  0  0  0  0  0  0  0  0  0
   -1.4828  -15.0298    0.4955 H   0  0  0  0  0  0  0  0  0  0  0  0
  1  2  1  0
  2  3  1  0
  3  4  1  0
  4  5  1  0
  5  6  1  0
  6  7  1  0
  7  8  1  0
  8  9  1  0
  9 10  3  0
 10 11  1  0
 11 12  1  0
 12 13  2  0
 13 14  1  0
 14 15  1  0
 15 16  1  0
 16 17  2  0
 17 18  1  0
 18 19  2  0
 19 20  1  0
 20 21  1  0
 21 22  1  0
 22 23  2  0
 22 24  1  0
 24 25  2  0
 25 26  1  0
 26 27  2  0
 27 28  1  0
 28 29  1  0
 29 30  1  0
 29 31  1  0
 29 32  1  0
 28 33  2  0
 20 34  2  0
 15 35  2  0
 35 36  1  0
 36 37  2  0
 37 38  1  0
  5 39  1  0
 39 40  1  0
 40  2  1  0
 38 11  2  0
 38 14  1  0
 34 16  1  0
 33 24  1  0
  1 41  1  0
  1 42  1  0
  1 43  1  0
  2 44  1  0
  3 45  1  0
  3 46  1  0
  4 47  1  0
  4 48  1  0
  5 49  1  0
  6 50  1  0
  6 51  1  0
  7 52  1  0
  7 53  1  0
  8 54  1  0
  8 55  1  0
 12 56  1  0
 17 57  1  0
 18 58  1  0
 19 59  1  0
 21 60  1  0
 25 61  1  0
 26 62  1  0
 27 63  1  0
 33 64  1  0
 34 65  1  0
 35 66  1  0
 36 67  1  0
 39 68  1  0
 39 69  1  0
 40 70  1  0
 40 71  1  0
M  CHG  2   2   1   5   1
M  END
>  <meeko>  (2) 
{"is_sidechain": [false], "free_energy": -8.871, "intermolecular_energy": -13.594, "internal_energy": -1.045}

$$$$
LIB_YIICPBQWCOBAJU__M_PUB_ALL__e8__s20260927
     RDKit          3D

 71 75  0  0  0  0  0  0  0  0999 V2000
   -1.6860   -9.1230    2.6460 C   0  0  0  0  0  0  0  0  0  0  0  0
   -1.1210  -10.2250    1.7910 N   0  0  0  0  0  0  0  0  0  0  0  0
   -0.9250  -11.5420    2.5130 C   0  0  0  0  0  0  0  0  0  0  0  0
   -2.2620  -12.3050    2.6860 C   0  0  0  0  0  0  0  0  0  0  0  0
   -3.0020  -12.4870    1.3530 N   0  0  0  0  0  0  0  0  0  0  0  0
   -4.3280  -13.2260    1.5690 C   0  0  0  0  0  0  0  0  0  0  0  0
   -4.6660  -13.4990    3.0400 C   0  0  0  0  0  0  0  0  0  0  0  0
   -6.1680  -13.5660    3.3670 C   0  0  0  0  0  0  0  0  0  0  0  0
   -6.3950  -14.2070    4.6650 C   0  0  0  0  0  0  0  0  0  0  0  0
   -6.4130  -14.7170    5.7500 C   0  0  0  0  0  0  0  0  0  0  0  0
   -6.4620  -15.6090    6.8510 C   0  0  0  0  0  0  0  0  0  0  0  0
   -5.3920  -16.2500    7.4830 C   0  0  0  0  0  0  0  0  0  0  0  0
   -5.8030  -17.2650    8.2400 N   0  0  0  0  0  0  0  0  0  0  0  0
   -7.1620  -17.1350    8.2980 N   0  0  0  0  0  0  0  0  0  0  0  0
   -8.0920  -17.9340    8.9870 C   0  0  0  0  0  0  0  0  0  0  0  0
   -7.6700  -19.1650    9.6750 C   0  0  0  0  0  0  0  0  0  0  0  0
   -6.3920  -19.3470   10.1990 C   0  0  0  0  0  0  0  0  0  0  0  0
   -6.0830  -20.5350   10.8640 C   0  0  0  0  0  0  0  0  0  0  0  0
   -7.0490  -21.5380   11.0130 C   0  0  0  0  0  0  0  0  0  0  0  0
   -8.3370  -21.3650   10.4980 C   0  0  0  0  0  0  0  0  0  0  0  0
   -9.2750  -22.4070   10.6720 N   0  0  0  0  0  0  0  0  0  0  0  0
  -10.0710  -22.6520   11.7740 C   0  0  0  0  0  0  0  0  0  0  0  0
  -10.0830  -22.0450   12.8480 O   0  0  0  0  0  0  0  0  0  0  0  0
  -10.9960  -23.8060   11.6260 C   0  0  0  0  0  0  0  0  0  0  0  0
  -11.5230  -24.4740   12.7360 C   0  0  0  0  0  0  0  0  0  0  0  0
  -12.3590  -25.5760   12.5480 C   0  0  0  0  0  0  0  0  0  0  0  0
  -12.6600  -26.0220   11.2580 C   0  0  0  0  0  0  0  0  0  0  0  0
  -12.1220  -25.3740   10.1380 C   0  0  0  0  0  0  0  0  0  0  0  0
  -12.4210  -25.8470    8.7350 C   0  0  0  0  0  0  0  0  0  0  0  0
  -12.4230  -27.2010    8.6330 F   0  0  0  0  0  0  0  0  0  0  0  0
  -11.5560  -25.3790    7.8010 F   0  0  0  0  0  0  0  0  0  0  0  0
  -13.6640  -25.4420    8.3340 F   0  0  0  0  0  0  0  0  0  0  0  0
  -11.2980  -24.2530   10.3340 C   0  0  0  0  0  0  0  0  0  0  0  0
   -8.6330  -20.1800    9.8350 C   0  0  0  0  0  0  0  0  0  0  0  0
   -9.4060  -17.6650    8.8740 C   0  0  0  0  0  0  0  0  0  0  0  0
   -9.7620  -16.5770    7.9250 C   0  0  0  0  0  0  0  0  0  0  0  0
   -8.9310  -15.9130    7.1770 N   0  0  0  0  0  0  0  0  0  0  0  0
   -7.6020  -16.1490    7.4010 C   0  0  0  0  0  0  0  0  0  0  0  0
   -3.1590  -11.1650    0.5890 C   0  0  0  0  0  0  0  0  0  0  0  0
   -1.8140  -10.4010    0.4550 C   0  0  0  0  0  0  0  0  0  0  0  0
   -1.5548   -9.3788    3.7078 H   0  0  0  0  0  0  0  0  0  0  0  0
   -1.1589   -8.1826    2.4276 H   0  0  0  0  0  0  0  0  0  0  0  0
   -2.7573   -9.0021    2.4276 H   0  0  0  0  0  0  0  0  0  0  0  0
   -0.1490   -9.8820    1.5830 H   0  0  0  0  0  0  0  0  0  0  0  0
   -0.2305  -12.1669    1.9324 H   0  0  0  0  0  0  0  0  0  0  0  0
   -0.5205  -11.3278    3.5132 H   0  0  0  0  0  0  0  0  0  0  0  0
   -2.0514  -13.2968    3.1126 H   0  0  0  0  0  0  0  0  0  0  0  0
   -2.9060  -11.7117    3.3517 H   0  0  0  0  0  0  0  0  0  0  0  0
   -2.4190  -13.1040    0.7730 H   0  0  0  0  0  0  0  0  0  0  0  0
   -5.1360  -12.6172    1.1371 H   0  0  0  0  0  0  0  0  0  0  0  0
   -4.2249  -14.2070    1.0821 H   0  0  0  0  0  0  0  0  0  0  0  0
   -4.2138  -14.4620    3.3197 H   0  0  0  0  0  0  0  0  0  0  0  0
   -4.2685  -12.6447    3.6075 H   0  0  0  0  0  0  0  0  0  0  0  0
   -6.5762  -12.5449    3.3938 H   0  0  0  0  0  0  0  0  0  0  0  0
   -6.6695  -14.1613    2.5898 H   0  0  0  0  0  0  0  0  0  0  0  0
   -4.3393  -15.9520    7.3687 H   0  0  0  0  0  0  0  0  0  0  0  0
   -5.6315  -18.5599   10.0895 H   0  0  0  0  0  0  0  0  0  0  0  0
   -5.0733  -20.6844   11.2740 H   0  0  0  0  0  0  0  0  0  0  0  0
   -6.7922  -22.4691   11.5394 H   0  0  0  0  0  0  0  0  0  0  0  0
   -9.3350  -23.0610    9.8960 H   0  0  0  0  0  0  0  0  0  0  0  0
  -11.2797  -24.1324   13.7529 H   0  0  0  0  0  0  0  0  0  0  0  0
  -12.7831  -26.0961   13.4196 H   0  0  0  0  0  0  0  0  0  0  0  0
  -13.3241  -26.8881   11.1209 H   0  0  0  0  0  0  0  0  0  0  0  0
  -10.8860  -23.7212    9.4637 H   0  0  0  0  0  0  0  0  0  0  0  0
   -9.6431  -20.0314    9.4256 H   0  0  0  0  0  0  0  0  0  0  0  0
  -10.1675  -18.2146    9.4468 H   0  0  0  0  0  0  0  0  0  0  0  0
  -10.8262  -16.3092    7.8487 H   0  0  0  0  0  0  0  0  0  0  0  0
   -3.5451  -11.3816   -0.4180 H   0  0  0  0  0  0  0  0  0  0  0  0
   -3.8538  -10.5281    1.1560 H   0  0  0  0  0  0  0  0  0  0  0  0
   -1.1508  -10.9661   -0.2165 H   0  0  0  0  0  0  0  0  0  0  0  0
   -2.0321   -9.4006    0.0530 H   0  0  0  0  0  0  0  0  0  0  0  0
  1  2  1  0
  2  3  1  0
  3  4  1  0
  4  5  1  0
  5  6  1  0
  6  7  1  0
  7  8  1  0
  8  9  1  0
  9 10  3  0
 10 11  1  0
 11 12  1  0
 12 13  2  0
 13 14  1  0
 14 15  1  0
 15 16  1  0
 16 17  2  0
 17 18  1  0
 18 19  2  0
 19 20  1  0
 20 21  1  0
 21 22  1  0
 22 23  2  0
 22 24  1  0
 24 25  2  0
 25 26  1  0
 26 27  2  0
 27 28  1  0
 28 29  1  0
 29 30  1  0
 29 31  1  0
 29 32  1  0
 28 33  2  0
 20 34  2  0
 15 35  2  0
 35 36  1  0
 36 37  2  0
 37 38  1  0
  5 39  1  0
 39 40  1  0
 40  2  1  0
 38 11  2  0
 38 14  1  0
 34 16  1  0
 33 24  1  0
  1 41  1  0
  1 42  1  0
  1 43  1  0
  2 44  1  0
  3 45  1  0
  3 46  1  0
  4 47  1  0
  4 48  1  0
  5 49  1  0
  6 50  1  0
  6 51  1  0
  7 52  1  0
  7 53  1  0
  8 54  1  0
  8 55  1  0
 12 56  1  0
 17 57  1  0
 18 58  1  0
 19 59  1  0
 21 60  1  0
 25 61  1  0
 26 62  1  0
 27 63  1  0
 33 64  1  0
 34 65  1  0
 35 66  1  0
 36 67  1  0
 39 68  1  0
 39 69  1  0
 40 70  1  0
 40 71  1  0
M  CHG  2   2   1   5   1
M  END
>  <meeko>  (3) 
{"is_sidechain": [false], "free_energy": -8.7, "intermolecular_energy": -13.76, "internal_energy": -0.627}

$$$$
LIB_YIICPBQWCOBAJU__M_PUB_ALL__e8__s20260927
     RDKit          3D

 71 75  0  0  0  0  0  0  0  0999 V2000
   14.4730  -13.2870  -10.5870 C   0  0  0  0  0  0  0  0  0  0  0  0
   13.7660  -12.4900   -9.5250 N   0  0  0  0  0  0  0  0  0  0  0  0
   13.3790  -11.0880   -9.9450 C   0  0  0  0  0  0  0  0  0  0  0  0
   12.1180  -11.0870  -10.8440 C   0  0  0  0  0  0  0  0  0  0  0  0
   10.9440  -11.8350  -10.1950 N   0  0  0  0  0  0  0  0  0  0  0  0
    9.7230  -11.8300  -11.1220 C   0  0  0  0  0  0  0  0  0  0  0  0
    9.2570  -13.2250  -11.5610 C   0  0  0  0  0  0  0  0  0  0  0  0
    7.7490  -13.3570  -11.8370 C   0  0  0  0  0  0  0  0  0  0  0  0
    6.9930  -13.4620  -10.5880 C   0  0  0  0  0  0  0  0  0  0  0  0
    6.5190  -13.5040   -9.4860 C   0  0  0  0  0  0  0  0  0  0  0  0
    6.2040  -13.3260   -8.1160 C   0  0  0  0  0  0  0  0  0  0  0  0
    5.3340  -12.3890   -7.5510 C   0  0  0  0  0  0  0  0  0  0  0  0
    5.5260  -12.2630   -6.2400 N   0  0  0  0  0  0  0  0  0  0  0  0
    6.3560  -13.2960   -5.9050 N   0  0  0  0  0  0  0  0  0  0  0  0
    6.8570  -13.6440   -4.6380 C   0  0  0  0  0  0  0  0  0  0  0  0
    6.6170  -12.7850   -3.4660 C   0  0  0  0  0  0  0  0  0  0  0  0
    7.5600  -11.8860   -2.9720 C   0  0  0  0  0  0  0  0  0  0  0  0
    7.2380  -11.0860   -1.8740 C   0  0  0  0  0  0  0  0  0  0  0  0
    5.9770  -11.1770   -1.2730 C   0  0  0  0  0  0  0  0  0  0  0  0
    5.0200  -12.0700   -1.7630 C   0  0  0  0  0  0  0  0  0  0  0  0
    3.7640  -12.1260   -1.1200 N   0  0  0  0  0  0  0  0  0  0  0  0
    2.5320  -11.7740   -1.6390 C   0  0  0  0  0  0  0  0  0  0  0  0
    2.2890  -11.2880   -2.7460 O   0  0  0  0  0  0  0  0  0  0  0  0
    1.3850  -11.9980   -0.7190 C   0  0  0  0  0  0  0  0  0  0  0  0
    0.8170  -13.2640   -0.5470 C   0  0  0  0  0  0  0  0  0  0  0  0
   -0.2810  -13.4200    0.3000 C   0  0  0  0  0  0  0  0  0  0  0  0
   -0.8240  -12.3150    0.9630 C   0  0  0  0  0  0  0  0  0  0  0  0
   -0.2770  -11.0380    0.7830 C   0  0  0  0  0  0  0  0  0  0  0  0
   -0.8550   -9.8280    1.4770 C   0  0  0  0  0  0  0  0  0  0  0  0
   -0.0910   -8.7190    1.3090 F   0  0  0  0  0  0  0  0  0  0  0  0
   -1.0310   -9.9910    2.8110 F   0  0  0  0  0  0  0  0  0  0  0  0
   -2.0850   -9.5120    0.9700 F   0  0  0  0  0  0  0  0  0  0  0  0
    0.8420  -10.8920   -0.0540 C   0  0  0  0  0  0  0  0  0  0  0  0
    5.3510  -12.8640   -2.8550 C   0  0  0  0  0  0  0  0  0  0  0  0
    7.7100  -14.6790   -4.5250 C   0  0  0  0  0  0  0  0  0  0  0  0
    8.1270  -15.3130   -5.8050 C   0  0  0  0  0  0  0  0  0  0  0  0
    7.7800  -14.9260   -6.9980 N   0  0  0  0  0  0  0  0  0  0  0  0
    6.8350  -13.9380   -7.0570 C   0  0  0  0  0  0  0  0  0  0  0  0
   11.3400  -13.2380   -9.7170 C   0  0  0  0  0  0  0  0  0  0  0  0
   12.6250  -13.2210   -8.8460 C   0  0  0  0  0  0  0  0  0  0  0  0
   15.1312  -14.0290  -10.1114 H   0  0  0  0  0  0  0  0  0  0  0  0
   13.7305  -13.8034  -11.2131 H   0  0  0  0  0  0  0  0  0  0  0  0
   15.0743  -12.6114  -11.2131 H   0  0  0  0  0  0  0  0  0  0  0  0
   14.5150  -12.3590   -8.7970 H   0  0  0  0  0  0  0  0  0  0  0  0
   13.1755  -10.4895   -9.0448 H   0  0  0  0  0  0  0  0  0  0  0  0
   14.2121  -10.6607  -10.5223 H   0  0  0  0  0  0  0  0  0  0  0  0
   11.8158  -10.0457  -11.0296 H   0  0  0  0  0  0  0  0  0  0  0  0
   12.3708  -11.6030  -11.7820 H   0  0  0  0  0  0  0  0  0  0  0  0
   10.6750  -11.2970   -9.3610 H   0  0  0  0  0  0  0  0  0  0  0  0
    8.8918  -11.3395  -10.5942 H   0  0  0  0  0  0  0  0  0  0  0  0
   10.0237  -11.2965  -12.0358 H   0  0  0  0  0  0  0  0  0  0  0  0
    9.7958  -13.4889  -12.4830 H   0  0  0  0  0  0  0  0  0  0  0  0
    9.4722  -13.8974  -10.7175 H   0  0  0  0  0  0  0  0  0  0  0  0
    7.4061  -12.4709  -12.3913 H   0  0  0  0  0  0  0  0  0  0  0  0
    7.5798  -14.2703  -12.4262 H   0  0  0  0  0  0  0  0  0  0  0  0
    4.5817  -11.8241   -8.1210 H   0  0  0  0  0  0  0  0  0  0  0  0
    8.5507  -11.8072   -3.4435 H   0  0  0  0  0  0  0  0  0  0  0  0
    7.9813  -10.3784   -1.4779 H   0  0  0  0  0  0  0  0  0  0  0  0
    5.7374  -10.5407   -0.4083 H   0  0  0  0  0  0  0  0  0  0  0  0
    3.7930  -12.4370   -0.1520 H   0  0  0  0  0  0  0  0  0  0  0  0
    1.2338  -14.1331   -1.0770 H   0  0  0  0  0  0  0  0  0  0  0  0
   -0.7216  -14.4172    0.4469 H   0  0  0  0  0  0  0  0  0  0  0  0
   -1.6874  -12.4496    1.6311 H   0  0  0  0  0  0  0  0  0  0  0  0
    1.2959   -9.8990   -0.1882 H   0  0  0  0  0  0  0  0  0  0  0  0
    4.6065  -13.5704   -3.2509 H   0  0  0  0  0  0  0  0  0  0  0  0
    8.0752  -15.0332   -3.5497 H   0  0  0  0  0  0  0  0  0  0  0  0
    8.7890  -16.1888   -5.7365 H   0  0  0  0  0  0  0  0  0  0  0  0
   10.5144  -13.6554   -9.1219 H   0  0  0  0  0  0  0  0  0  0  0  0
   11.5436  -13.8523  -10.6065 H   0  0  0  0  0  0  0  0  0  0  0  0
   12.4005  -12.7200   -7.8928 H   0  0  0  0  0  0  0  0  0  0  0  0
   12.9387  -14.2631   -8.6858 H   0  0  0  0  0  0  0  0  0  0  0  0
  1  2  1  0
  2  3  1  0
  3  4  1  0
  4  5  1  0
  5  6  1  0
  6  7  1  0
  7  8  1  0
  8  9  1  0
  9 10  3  0
 10 11  1  0
 11 12  1  0
 12 13  2  0
 13 14  1  0
 14 15  1  0
 15 16  1  0
 16 17  2  0
 17 18  1  0
 18 19  2  0
 19 20  1  0
 20 21  1  0
 21 22  1  0
 22 23  2  0
 22 24  1  0
 24 25  2  0
 25 26  1  0
 26 27  2  0
 27 28  1  0
 28 29  1  0
 29 30  1  0
 29 31  1  0
 29 32  1  0
 28 33  2  0
 20 34  2  0
 15 35  2  0
 35 36  1  0
 36 37  2  0
 37 38  1  0
  5 39  1  0
 39 40  1  0
 40  2  1  0
 38 11  2  0
 38 14  1  0
 34 16  1  0
 33 24  1  0
  1 41  1  0
  1 42  1  0
  1 43  1  0
  2 44  1  0
  3 45  1  0
  3 46  1  0
  4 47  1  0
  4 48  1  0
  5 49  1  0
  6 50  1  0
  6 51  1  0
  7 52  1  0
  7 53  1  0
  8 54  1  0
  8 55  1  0
 12 56  1  0
 17 57  1  0
 18 58  1  0
 19 59  1  0
 21 60  1  0
 25 61  1  0
 26 62  1  0
 27 63  1  0
 33 64  1  0
 34 65  1  0
 35 66  1  0
 36 67  1  0
 39 68  1  0
 39 69  1  0
 40 70  1  0
 40 71  1  0
M  CHG  2   2   1   5   1
M  END
>  <meeko>  (4) 
{"is_sidechain": [false], "free_energy": -8.68, "intermolecular_energy": -13.082, "internal_energy": -1.278}

$$$$
LIB_YIICPBQWCOBAJU__M_PUB_ALL__e8__s20260927
     RDKit          3D

 71 75  0  0  0  0  0  0  0  0999 V2000
   -2.9830  -17.8950    3.0130 C   0  0  0  0  0  0  0  0  0  0  0  0
   -1.4990  -18.0950    2.8640 N   0  0  0  0  0  0  0  0  0  0  0  0
   -0.8900  -17.4130    1.6570 C   0  0  0  0  0  0  0  0  0  0  0  0
   -0.7040  -15.8930    1.8920 C   0  0  0  0  0  0  0  0  0  0  0  0
    0.0860  -15.5970    3.1750 N   0  0  0  0  0  0  0  0  0  0  0  0
    0.2310  -14.0850    3.3820 C   0  0  0  0  0  0  0  0  0  0  0  0
   -0.8760  -13.2490    2.7260 C   0  0  0  0  0  0  0  0  0  0  0  0
   -0.4030  -11.9520    2.0470 C   0  0  0  0  0  0  0  0  0  0  0  0
    0.2460  -12.2360    0.7650 C   0  0  0  0  0  0  0  0  0  0  0  0
    0.7170  -12.6280   -0.2670 C   0  0  0  0  0  0  0  0  0  0  0  0
    1.5680  -13.0200   -1.3300 C   0  0  0  0  0  0  0  0  0  0  0  0
    2.1280  -14.2800   -1.5600 C   0  0  0  0  0  0  0  0  0  0  0  0
    3.1350  -14.2220   -2.4280 N   0  0  0  0  0  0  0  0  0  0  0  0
    3.0760  -12.9610   -2.9530 N   0  0  0  0  0  0  0  0  0  0  0  0
    3.8980  -12.3800   -3.9360 C   0  0  0  0  0  0  0  0  0  0  0  0
    5.0790  -13.0900   -4.4530 C   0  0  0  0  0  0  0  0  0  0  0  0
    5.0010  -14.1200   -5.3890 C   0  0  0  0  0  0  0  0  0  0  0  0
    6.1740  -14.7210   -5.8500 C   0  0  0  0  0  0  0  0  0  0  0  0
    7.4230  -14.2920   -5.3850 C   0  0  0  0  0  0  0  0  0  0  0  0
    7.5150  -13.2560   -4.4510 C   0  0  0  0  0  0  0  0  0  0  0  0
    8.7980  -12.8620   -4.0110 N   0  0  0  0  0  0  0  0  0  0  0  0
    9.6250  -13.5180   -3.1200 C   0  0  0  0  0  0  0  0  0  0  0  0
    9.3870  -14.5500   -2.4860 O   0  0  0  0  0  0  0  0  0  0  0  0
   10.9430  -12.8650   -2.9020 C   0  0  0  0  0  0  0  0  0  0  0  0
   11.9500  -12.8980   -3.8720 C   0  0  0  0  0  0  0  0  0  0  0  0
   13.1840  -12.3020   -3.6090 C   0  0  0  0  0  0  0  0  0  0  0  0
   13.4230  -11.6880   -2.3760 C   0  0  0  0  0  0  0  0  0  0  0  0
   12.4290  -11.6650   -1.3880 C   0  0  0  0  0  0  0  0  0  0  0  0
   12.6690  -11.0200   -0.0440 C   0  0  0  0  0  0  0  0  0  0  0  0
   11.7110  -11.3400    0.8630 F   0  0  0  0  0  0  0  0  0  0  0  0
   12.7390   -9.6670   -0.0880 F   0  0  0  0  0  0  0  0  0  0  0  0
   13.8510  -11.4410    0.4990 F   0  0  0  0  0  0  0  0  0  0  0  0
   11.1820  -12.2480   -1.6680 C   0  0  0  0  0  0  0  0  0  0  0  0
    6.3410  -12.6670   -3.9960 C   0  0  0  0  0  0  0  0  0  0  0  0
    3.7040  -11.0930   -4.2820 C   0  0  0  0  0  0  0  0  0  0  0  0
    2.6730  -10.3630   -3.4990 C   0  0  0  0  0  0  0  0  0  0  0  0
    1.9930  -10.8410   -2.4980 N   0  0  0  0  0  0  0  0  0  0  0  0
    2.1490  -12.1770   -2.2500 C   0  0  0  0  0  0  0  0  0  0  0  0
   -0.4910  -16.3270    4.3950 C   0  0  0  0  0  0  0  0  0  0  0  0
   -0.7020  -17.8420    4.1280 C   0  0  0  0  0  0  0  0  0  0  0  0
   -3.2428  -17.8600    4.0813 H   0  0  0  0  0  0  0  0  0  0  0  0
   -3.2755  -16.9493    2.5333 H   0  0  0  0  0  0  0  0  0  0  0  0
   -3.5154  -18.7295    2.5333 H   0  0  0  0  0  0  0  0  0  0  0  0
   -1.4230  -19.1250    2.6610 H   0  0  0  0  0  0  0  0  0  0  0  0
    0.0914  -17.8645    1.4496 H   0  0  0  0  0  0  0  0  0  0  0  0
   -1.5732  -17.5477    0.8055 H   0  0  0  0  0  0  0  0  0  0  0  0
   -0.1617  -15.4658    1.0356 H   0  0  0  0  0  0  0  0  0  0  0  0
   -1.7021  -15.4431    1.9985 H   0  0  0  0  0  0  0  0  0  0  0  0
    1.0360  -15.9610    3.0270 H   0  0  0  0  0  0  0  0  0  0  0  0
    0.2206  -13.8827    4.4632 H   0  0  0  0  0  0  0  0  0  0  0  0
    1.1754  -13.7903    2.9011 H   0  0  0  0  0  0  0  0  0  0  0  0
   -1.3668  -13.8724    1.9641 H   0  0  0  0  0  0  0  0  0  0  0  0
   -1.5476  -12.9395    3.5403 H   0  0  0  0  0  0  0  0  0  0  0  0
   -1.2715  -11.2996    1.8736 H   0  0  0  0  0  0  0  0  0  0  0  0
    0.3256  -11.4575    2.7062 H   0  0  0  0  0  0  0  0  0  0  0  0
    1.7787  -15.2069   -1.0816 H   0  0  0  0  0  0  0  0  0  0  0  0
    4.0225  -14.4569   -5.7617 H   0  0  0  0  0  0  0  0  0  0  0  0
    6.1163  -15.5380   -6.5843 H   0  0  0  0  0  0  0  0  0  0  0  0
    8.3390  -14.7739   -5.7575 H   0  0  0  0  0  0  0  0  0  0  0  0
    9.1220  -11.9730   -4.3830 H   0  0  0  0  0  0  0  0  0  0  0  0
   11.7700  -13.3918   -4.8383 H   0  0  0  0  0  0  0  0  0  0  0  0
   13.9727  -12.3154   -4.3757 H   0  0  0  0  0  0  0  0  0  0  0  0
   14.3986  -11.2193   -2.1797 H   0  0  0  0  0  0  0  0  0  0  0  0
   10.3852  -12.2195   -0.9102 H   0  0  0  0  0  0  0  0  0  0  0  0
    6.3998  -11.8507   -3.2611 H   0  0  0  0  0  0  0  0  0  0  0  0
    4.2722  -10.6128   -5.0923 H   0  0  0  0  0  0  0  0  0  0  0  0
    2.4659   -9.3234   -3.7927 H   0  0  0  0  0  0  0  0  0  0  0  0
    0.2044  -16.2098    5.2392 H   0  0  0  0  0  0  0  0  0  0  0  0
   -1.4726  -15.8843    4.6196 H   0  0  0  0  0  0  0  0  0  0  0  0
    0.2815  -18.3246    4.0292 H   0  0  0  0  0  0  0  0  0  0  0  0
   -1.2690  -18.2582    4.9737 H   0  0  0  0  0  0  0  0  0  0  0  0
  1  2  1  0
  2  3  1  0
  3  4  1  0
  4  5  1  0
  5  6  1  0
  6  7  1  0
  7  8  1  0
  8  9  1  0
  9 10  3  0
 10 11  1  0
 11 12  1  0
 12 13  2  0
 13 14  1  0
 14 15  1  0
 15 16  1  0
 16 17  2  0
 17 18  1  0
 18 19  2  0
 19 20  1  0
 20 21  1  0
 21 22  1  0
 22 23  2  0
 22 24  1  0
 24 25  2  0
 25 26  1  0
 26 27  2  0
 27 28  1  0
 28 29  1  0
 29 30  1  0
 29 31  1  0
 29 32  1  0
 28 33  2  0
 20 34  2  0
 15 35  2  0
 35 36  1  0
 36 37  2  0
 37 38  1  0
  5 39  1  0
 39 40  1  0
 40  2  1  0
 38 11  2  0
 38 14  1  0
 34 16  1  0
 33 24  1  0
  1 41  1  0
  1 42  1  0
  1 43  1  0
  2 44  1  0
  3 45  1  0
  3 46  1  0
  4 47  1  0
  4 48  1  0
  5 49  1  0
  6 50  1  0
  6 51  1  0
  7 52  1  0
  7 53  1  0
  8 54  1  0
  8 55  1  0
 12 56  1  0
 17 57  1  0
 18 58  1  0
 19 59  1  0
 21 60  1  0
 25 61  1  0
 26 62  1  0
 27 63  1  0
 33 64  1  0
 34 65  1  0
 35 66  1  0
 36 67  1  0
 39 68  1  0
 39 69  1  0
 40 70  1  0
 40 71  1  0
M  CHG  2   2   1   5   1
M  END
>  <meeko>  (5) 
{"is_sidechain": [false], "free_energy": -8.658, "intermolecular_energy": -13.08, "internal_energy": -1.247}

$$$$
LIB_YIICPBQWCOBAJU__M_PUB_ALL__e8__s20260927
     RDKit          3D

 71 75  0  0  0  0  0  0  0  0999 V2000
   13.9350  -11.6950   -2.9220 C   0  0  0  0  0  0  0  0  0  0  0  0
   12.4570  -11.9520   -2.8090 N   0  0  0  0  0  0  0  0  0  0  0  0
   11.9460  -13.0780   -3.6840 C   0  0  0  0  0  0  0  0  0  0  0  0
   12.2760  -14.4660   -3.0810 C   0  0  0  0  0  0  0  0  0  0  0  0
   11.7860  -14.6000   -1.6320 N   0  0  0  0  0  0  0  0  0  0  0  0
   12.1490  -15.9780   -1.0650 C   0  0  0  0  0  0  0  0  0  0  0  0
   12.2220  -17.0930   -2.1160 C   0  0  0  0  0  0  0  0  0  0  0  0
   11.1370  -18.1770   -2.0000 C   0  0  0  0  0  0  0  0  0  0  0  0
    9.8550  -17.5960   -1.5930 C   0  0  0  0  0  0  0  0  0  0  0  0
    8.8780  -16.9680   -1.2910 C   0  0  0  0  0  0  0  0  0  0  0  0
    7.7640  -16.0930   -1.2450 C   0  0  0  0  0  0  0  0  0  0  0  0
    6.4530  -16.3540   -1.6520 C   0  0  0  0  0  0  0  0  0  0  0  0
    5.7480  -15.2340   -1.7960 N   0  0  0  0  0  0  0  0  0  0  0  0
    6.5270  -14.2540   -1.2470 N   0  0  0  0  0  0  0  0  0  0  0  0
    6.2490  -12.8820   -1.1160 C   0  0  0  0  0  0  0  0  0  0  0  0
    5.0410  -12.2930   -1.7170 C   0  0  0  0  0  0  0  0  0  0  0  0
    5.0100  -11.7610   -3.0050 C   0  0  0  0  0  0  0  0  0  0  0  0
    3.8130  -11.2500   -3.5100 C   0  0  0  0  0  0  0  0  0  0  0  0
    2.6470  -11.2730   -2.7350 C   0  0  0  0  0  0  0  0  0  0  0  0
    2.6630  -11.8090   -1.4440 C   0  0  0  0  0  0  0  0  0  0  0  0
    1.4620  -11.8070   -0.7020 N   0  0  0  0  0  0  0  0  0  0  0  0
    0.6330  -12.8790   -0.4320 C   0  0  0  0  0  0  0  0  0  0  0  0
    0.7460  -14.0410   -0.8310 O   0  0  0  0  0  0  0  0  0  0  0  0
   -0.5380  -12.5570    0.4260 C   0  0  0  0  0  0  0  0  0  0  0  0
   -1.5400  -13.4970    0.6860 C   0  0  0  0  0  0  0  0  0  0  0  0
   -2.6400  -13.1380    1.4670 C   0  0  0  0  0  0  0  0  0  0  0  0
   -2.7510  -11.8410    1.9760 C   0  0  0  0  0  0  0  0  0  0  0  0
   -1.7640  -10.8840    1.7050 C   0  0  0  0  0  0  0  0  0  0  0  0
   -1.8700   -9.4720    2.2320 C   0  0  0  0  0  0  0  0  0  0  0  0
   -2.6700   -8.6900    1.4640 F   0  0  0  0  0  0  0  0  0  0  0  0
   -0.6780   -8.8350    2.3410 F   0  0  0  0  0  0  0  0  0  0  0  0
   -2.4220   -9.4550    3.4830 F   0  0  0  0  0  0  0  0  0  0  0  0
   -0.6500  -11.2580    0.9360 C   0  0  0  0  0  0  0  0  0  0  0  0
    3.8610  -12.3130   -0.9500 C   0  0  0  0  0  0  0  0  0  0  0  0
    7.1800  -12.0660   -0.5860 C   0  0  0  0  0  0  0  0  0  0  0  0
    8.4880  -12.7000   -0.2710 C   0  0  0  0  0  0  0  0  0  0  0  0
    8.8130  -13.9380   -0.5050 N   0  0  0  0  0  0  0  0  0  0  0  0
    7.8060  -14.7500   -0.9480 C   0  0  0  0  0  0  0  0  0  0  0  0
   12.2550  -13.4360   -0.7490 C   0  0  0  0  0  0  0  0  0  0  0  0
   11.9450  -12.0540   -1.3860 C   0  0  0  0  0  0  0  0  0  0  0  0
   14.3720  -11.6190   -1.9154 H   0  0  0  0  0  0  0  0  0  0  0  0
   14.4107  -12.5239   -3.4666 H   0  0  0  0  0  0  0  0  0  0  0  0
   14.1030  -10.7542   -3.4666 H   0  0  0  0  0  0  0  0  0  0  0  0
   12.0380  -11.0780   -3.2180 H   0  0  0  0  0  0  0  0  0  0  0  0
   10.8548  -12.9836   -3.7856 H   0  0  0  0  0  0  0  0  0  0  0  0
   12.4407  -13.0030   -4.6636 H   0  0  0  0  0  0  0  0  0  0  0  0
   11.7916  -15.2419   -3.6920 H   0  0  0  0  0  0  0  0  0  0  0  0
   13.3698  -14.5824   -3.0798 H   0  0  0  0  0  0  0  0  0  0  0  0
   10.7590  -14.5620   -1.6620 H   0  0  0  0  0  0  0  0  0  0  0  0
   13.1309  -15.9013   -0.5751 H   0  0  0  0  0  0  0  0  0  0  0  0
   11.3442  -16.2541   -0.3678 H   0  0  0  0  0  0  0  0  0  0  0  0
   12.1347  -16.6296   -3.1098 H   0  0  0  0  0  0  0  0  0  0  0  0
   13.1819  -17.6043   -1.9512 H   0  0  0  0  0  0  0  0  0  0  0  0
   11.0149  -18.6695   -2.9760 H   0  0  0  0  0  0  0  0  0  0  0  0
   11.4495  -18.9051   -1.2370 H   0  0  0  0  0  0  0  0  0  0  0  0
    6.0522  -17.3625   -1.8316 H   0  0  0  0  0  0  0  0  0  0  0  0
    5.9224  -11.7439   -3.6193 H   0  0  0  0  0  0  0  0  0  0  0  0
    3.7856  -10.8260   -4.5246 H   0  0  0  0  0  0  0  0  0  0  0  0
    1.7110  -10.8661   -3.1453 H   0  0  0  0  0  0  0  0  0  0  0  0
    1.1730  -10.8940   -0.3590 H   0  0  0  0  0  0  0  0  0  0  0  0
   -1.4618  -14.5151    0.2769 H   0  0  0  0  0  0  0  0  0  0  0  0
   -3.4233  -13.8795    1.6829 H   0  0  0  0  0  0  0  0  0  0  0  0
   -3.6196  -11.5695    2.5939 H   0  0  0  0  0  0  0  0  0  0  0  0
    0.1426  -10.5229    0.7323 H   0  0  0  0  0  0  0  0  0  0  0  0
    3.8872  -12.7375    0.0645 H   0  0  0  0  0  0  0  0  0  0  0  0
    6.9857  -10.9997   -0.3982 H   0  0  0  0  0  0  0  0  0  0  0  0
    9.2503  -12.0642    0.2031 H   0  0  0  0  0  0  0  0  0  0  0  0
   11.7441  -13.5006    0.2230 H   0  0  0  0  0  0  0  0  0  0  0  0
   13.3459  -13.5177   -0.6343 H   0  0  0  0  0  0  0  0  0  0  0  0
   10.8556  -11.9019   -1.3897 H   0  0  0  0  0  0  0  0  0  0  0  0
   12.4545  -11.2843   -0.7877 H   0  0  0  0  0  0  0  0  0  0  0  0
  1  2  1  0
  2  3  1  0
  3  4  1  0
  4  5  1  0
  5  6  1  0
  6  7  1  0
  7  8  1  0
  8  9  1  0
  9 10  3  0
 10 11  1  0
 11 12  1  0
 12 13  2  0
 13 14  1  0
 14 15  1  0
 15 16  1  0
 16 17  2  0
 17 18  1  0
 18 19  2  0
 19 20  1  0
 20 21  1  0
 21 22  1  0
 22 23  2  0
 22 24  1  0
 24 25  2  0
 25 26  1  0
 26 27  2  0
 27 28  1  0
 28 29  1  0
 29 30  1  0
 29 31  1  0
 29 32  1  0
 28 33  2  0
 20 34  2  0
 15 35  2  0
 35 36  1  0
 36 37  2  0
 37 38  1  0
  5 39  1  0
 39 40  1  0
 40  2  1  0
 38 11  2  0
 38 14  1  0
 34 16  1  0
 33 24  1  0
  1 41  1  0
  1 42  1  0
  1 43  1  0
  2 44  1  0
  3 45  1  0
  3 46  1  0
  4 47  1  0
  4 48  1  0
  5 49  1  0
  6 50  1  0
  6 51  1  0
  7 52  1  0
  7 53  1  0
  8 54  1  0
  8 55  1  0
 12 56  1  0
 17 57  1  0
 18 58  1  0
 19 59  1  0
 21 60  1  0
 25 61  1  0
 26 62  1  0
 27 63  1  0
 33 64  1  0
 34 65  1  0
 35 66  1  0
 36 67  1  0
 39 68  1  0
 39 69  1  0
 40 70  1  0
 40 71  1  0
M  CHG  2   2   1   5   1
M  END
>  <meeko>  (6) 
{"is_sidechain": [false], "free_energy": -8.497, "intermolecular_energy": -12.291, "internal_energy": -1.799}

$$$$
LIB_YIICPBQWCOBAJU__M_PUB_ALL__e8__s20260927
     RDKit          3D

 71 75  0  0  0  0  0  0  0  0999 V2000
   13.0690  -11.3760   -1.1340 C   0  0  0  0  0  0  0  0  0  0  0  0
   11.7090  -11.9190   -0.7870 N   0  0  0  0  0  0  0  0  0  0  0  0
   10.8110  -12.1740   -1.9800 C   0  0  0  0  0  0  0  0  0  0  0  0
   11.1940  -13.4830   -2.7150 C   0  0  0  0  0  0  0  0  0  0  0  0
   11.2400  -14.6890   -1.7650 N   0  0  0  0  0  0  0  0  0  0  0  0
   11.6410  -15.9590   -2.5250 C   0  0  0  0  0  0  0  0  0  0  0  0
   11.8490  -17.1890   -1.6320 C   0  0  0  0  0  0  0  0  0  0  0  0
   10.7470  -18.2600   -1.7230 C   0  0  0  0  0  0  0  0  0  0  0  0
    9.4430  -17.7030   -1.3580 C   0  0  0  0  0  0  0  0  0  0  0  0
    8.4500  -17.0940   -1.0680 C   0  0  0  0  0  0  0  0  0  0  0  0
    7.3320  -16.2250   -1.0260 C   0  0  0  0  0  0  0  0  0  0  0  0
    6.0420  -16.4640   -1.5090 C   0  0  0  0  0  0  0  0  0  0  0  0
    5.3410  -15.3390   -1.6230 N   0  0  0  0  0  0  0  0  0  0  0  0
    6.0890  -14.3900   -0.9850 N   0  0  0  0  0  0  0  0  0  0  0  0
    5.8000  -13.0270   -0.7900 C   0  0  0  0  0  0  0  0  0  0  0  0
    4.6190  -12.4080   -1.4140 C   0  0  0  0  0  0  0  0  0  0  0  0
    4.5940  -11.9740   -2.7380 C   0  0  0  0  0  0  0  0  0  0  0  0
    3.4210  -11.4240   -3.2600 C   0  0  0  0  0  0  0  0  0  0  0  0
    2.2730  -11.3120   -2.4660 C   0  0  0  0  0  0  0  0  0  0  0  0
    2.2840  -11.7490   -1.1380 C   0  0  0  0  0  0  0  0  0  0  0  0
    1.1010  -11.6130   -0.3780 N   0  0  0  0  0  0  0  0  0  0  0  0
    0.1690  -12.5880   -0.0830 C   0  0  0  0  0  0  0  0  0  0  0  0
    0.1510  -13.7600   -0.4700 O   0  0  0  0  0  0  0  0  0  0  0  0
   -0.9480  -12.1350    0.7880 C   0  0  0  0  0  0  0  0  0  0  0  0
   -0.7330  -11.2820    1.8750 C   0  0  0  0  0  0  0  0  0  0  0  0
   -1.8070  -10.9110    2.6870 C   0  0  0  0  0  0  0  0  0  0  0  0
   -3.0900  -11.4010    2.4270 C   0  0  0  0  0  0  0  0  0  0  0  0
   -3.3150  -12.2720    1.3530 C   0  0  0  0  0  0  0  0  0  0  0  0
   -4.6900  -12.8250    1.0610 C   0  0  0  0  0  0  0  0  0  0  0  0
   -5.4270  -11.9970    0.2780 F   0  0  0  0  0  0  0  0  0  0  0  0
   -5.4260  -13.0820    2.1710 F   0  0  0  0  0  0  0  0  0  0  0  0
   -4.6090  -14.0080    0.3800 F   0  0  0  0  0  0  0  0  0  0  0  0
   -2.2340  -12.6240    0.5280 C   0  0  0  0  0  0  0  0  0  0  0  0
    3.4570  -12.2930   -0.6270 C   0  0  0  0  0  0  0  0  0  0  0  0
    6.7010  -12.2420   -0.1720 C   0  0  0  0  0  0  0  0  0  0  0  0
    7.9950  -12.8910    0.1690 C   0  0  0  0  0  0  0  0  0  0  0  0
    8.3360  -14.1130   -0.1190 N   0  0  0  0  0  0  0  0  0  0  0  0
    7.3540  -14.9000   -0.6530 C   0  0  0  0  0  0  0  0  0  0  0  0
   12.1050  -14.4210   -0.5260 C   0  0  0  0  0  0  0  0  0  0  0  0
   11.7280  -13.0890    0.1760 C   0  0  0  0  0  0  0  0  0  0  0  0
   13.6224  -11.1550   -0.2094 H   0  0  0  0  0  0  0  0  0  0  0  0
   13.6223  -12.1222   -1.7231 H   0  0  0  0  0  0  0  0  0  0  0  0
   12.9563  -10.4539   -1.7231 H   0  0  0  0  0  0  0  0  0  0  0  0
   11.2610  -11.1160   -0.2770 H   0  0  0  0  0  0  0  0  0  0  0  0
    9.7701  -12.2514   -1.6328 H   0  0  0  0  0  0  0  0  0  0  0  0
   10.9300  -11.3374   -2.6843 H   0  0  0  0  0  0  0  0  0  0  0  0
   10.4495  -13.6790   -3.5007 H   0  0  0  0  0  0  0  0  0  0  0  0
   12.1994  -13.3497   -3.1408 H   0  0  0  0  0  0  0  0  0  0  0  0
   10.2780  -14.8420   -1.4350 H   0  0  0  0  0  0  0  0  0  0  0  0
   10.8482  -16.1907   -3.2515 H   0  0  0  0  0  0  0  0  0  0  0  0
   12.6094  -15.7484   -3.0023 H   0  0  0  0  0  0  0  0  0  0  0  0
   12.8030  -17.6576   -1.9154 H   0  0  0  0  0  0  0  0  0  0  0  0
   11.8308  -16.8201   -0.5959 H   0  0  0  0  0  0  0  0  0  0  0  0
   10.6997  -18.6409   -2.7539 H   0  0  0  0  0  0  0  0  0  0  0  0
   10.9895  -19.0729   -1.0227 H   0  0  0  0  0  0  0  0  0  0  0  0
    5.6537  -17.4611   -1.7638 H   0  0  0  0  0  0  0  0  0  0  0  0
    5.4916  -12.0639   -3.3675 H   0  0  0  0  0  0  0  0  0  0  0  0
    3.3988  -11.0760   -4.3033 H   0  0  0  0  0  0  0  0  0  0  0  0
    1.3560  -10.8771   -2.8902 H   0  0  0  0  0  0  0  0  0  0  0  0
    0.9170  -10.6710   -0.0410 H   0  0  0  0  0  0  0  0  0  0  0  0
    0.2778  -10.9048    2.0896 H   0  0  0  0  0  0  0  0  0  0  0  0
   -1.6425  -10.2300    3.5351 H   0  0  0  0  0  0  0  0  0  0  0  0
   -3.9297  -11.1003    3.0708 H   0  0  0  0  0  0  0  0  0  0  0  0
   -2.3995  -13.2907   -0.3312 H   0  0  0  0  0  0  0  0  0  0  0  0
    3.4778  -12.6416    0.4161 H   0  0  0  0  0  0  0  0  0  0  0  0
    6.4940  -11.1881    0.0657 H   0  0  0  0  0  0  0  0  0  0  0  0
    8.7310  -12.2822    0.7146 H   0  0  0  0  0  0  0  0  0  0  0  0
   11.9687  -15.2478    0.1866 H   0  0  0  0  0  0  0  0  0  0  0  0
   13.1517  -14.3444   -0.8554 H   0  0  0  0  0  0  0  0  0  0  0  0
   10.7290  -13.1952    0.6240 H   0  0  0  0  0  0  0  0  0  0  0  0
   12.4906  -12.8835    0.9416 H   0  0  0  0  0  0  0  0  0  0  0  0
  1  2  1  0
  2  3  1  0
  3  4  1  0
  4  5  1  0
  5  6  1  0
  6  7  1  0
  7  8  1  0
  8  9  1  0
  9 10  3  0
 10 11  1  0
 11 12  1  0
 12 13  2  0
 13 14  1  0
 14 15  1  0
 15 16  1  0
 16 17  2  0
 17 18  1  0
 18 19  2  0
 19 20  1  0
 20 21  1  0
 21 22  1  0
 22 23  2  0
 22 24  1  0
 24 25  2  0
 25 26  1  0
 26 27  2  0
 27 28  1  0
 28 29  1  0
 29 30  1  0
 29 31  1  0
 29 32  1  0
 28 33  2  0
 20 34  2  0
 15 35  2  0
 35 36  1  0
 36 37  2  0
 37 38  1  0
  5 39  1  0
 39 40  1  0
 40  2  1  0
 38 11  2  0
 38 14  1  0
 34 16  1  0
 33 24  1  0
  1 41  1  0
  1 42  1  0
  1 43  1  0
  2 44  1  0
  3 45  1  0
  3 46  1  0
  4 47  1  0
  4 48  1  0
  5 49  1  0
  6 50  1  0
  6 51  1  0
  7 52  1  0
  7 53  1  0
  8 54  1  0
  8 55  1  0
 12 56  1  0
 17 57  1  0
 18 58  1  0
 19 59  1  0
 21 60  1  0
 25 61  1  0
 26 62  1  0
 27 63  1  0
 33 64  1  0
 34 65  1  0
 35 66  1  0
 36 67  1  0
 39 68  1  0
 39 69  1  0
 40 70  1  0
 40 71  1  0
M  CHG  2   2   1   5   1
M  END
>  <meeko>  (7) 
{"is_sidechain": [false], "free_energy": -8.457, "intermolecular_energy": -12.163, "internal_energy": -1.868}

$$$$
LIB_YIICPBQWCOBAJU__M_PUB_ALL__e8__s20260927
     RDKit          3D

 71 75  0  0  0  0  0  0  0  0999 V2000
   13.4980  -10.9820   -9.9500 C   0  0  0  0  0  0  0  0  0  0  0  0
   12.8300  -11.4770  -11.2050 N   0  0  0  0  0  0  0  0  0  0  0  0
   13.6040  -12.5450  -11.9490 C   0  0  0  0  0  0  0  0  0  0  0  0
   13.4580  -13.9320  -11.2740 C   0  0  0  0  0  0  0  0  0  0  0  0
   11.9880  -14.3260  -11.0710 N   0  0  0  0  0  0  0  0  0  0  0  0
   11.8860  -15.6930  -10.3840 C   0  0  0  0  0  0  0  0  0  0  0  0
   11.9960  -15.6400   -8.8550 C   0  0  0  0  0  0  0  0  0  0  0  0
   13.2810  -16.2490   -8.2670 C   0  0  0  0  0  0  0  0  0  0  0  0
   13.3740  -15.9930   -6.8280 C   0  0  0  0  0  0  0  0  0  0  0  0
   13.2870  -15.7320   -5.6600 C   0  0  0  0  0  0  0  0  0  0  0  0
   12.9080  -15.2510   -4.3820 C   0  0  0  0  0  0  0  0  0  0  0  0
   12.0480  -15.8540   -3.4600 C   0  0  0  0  0  0  0  0  0  0  0  0
   11.6410  -14.9950   -2.5280 N   0  0  0  0  0  0  0  0  0  0  0  0
   12.4280  -13.8910   -2.6990 N   0  0  0  0  0  0  0  0  0  0  0  0
   12.4320  -12.6920   -1.9630 C   0  0  0  0  0  0  0  0  0  0  0  0
   11.4220  -12.4390   -0.9230 C   0  0  0  0  0  0  0  0  0  0  0  0
   11.7430  -12.0420    0.3740 C   0  0  0  0  0  0  0  0  0  0  0  0
   10.7190  -11.7920    1.2900 C   0  0  0  0  0  0  0  0  0  0  0  0
    9.3780  -11.9320    0.9140 C   0  0  0  0  0  0  0  0  0  0  0  0
    9.0420  -12.3240   -0.3850 C   0  0  0  0  0  0  0  0  0  0  0  0
    7.6750  -12.4520   -0.7150 N   0  0  0  0  0  0  0  0  0  0  0  0
    6.7860  -11.4470   -1.0410 C   0  0  0  0  0  0  0  0  0  0  0  0
    6.9920  -10.2300   -1.0570 O   0  0  0  0  0  0  0  0  0  0  0  0
    5.4180  -11.9170   -1.3890 C   0  0  0  0  0  0  0  0  0  0  0  0
    4.7060  -12.7850   -0.5560 C   0  0  0  0  0  0  0  0  0  0  0  0
    3.4390  -13.2290   -0.9400 C   0  0  0  0  0  0  0  0  0  0  0  0
    2.8890  -12.8230   -2.1590 C   0  0  0  0  0  0  0  0  0  0  0  0
    3.6020  -11.9700   -3.0130 C   0  0  0  0  0  0  0  0  0  0  0  0
    3.0340  -11.5290   -4.3410 C   0  0  0  0  0  0  0  0  0  0  0  0
    1.8980  -12.1970   -4.6660 F   0  0  0  0  0  0  0  0  0  0  0  0
    3.8920  -11.6740   -5.3810 F   0  0  0  0  0  0  0  0  0  0  0  0
    2.6930  -10.2060   -4.3150 F   0  0  0  0  0  0  0  0  0  0  0  0
    4.8670  -11.5100   -2.6100 C   0  0  0  0  0  0  0  0  0  0  0  0
   10.0690  -12.5720   -1.2890 C   0  0  0  0  0  0  0  0  0  0  0  0
   13.2600  -11.6950   -2.3270 C   0  0  0  0  0  0  0  0  0  0  0  0
   14.0440  -11.9290   -3.5700 C   0  0  0  0  0  0  0  0  0  0  0  0
   13.9600  -12.9740   -4.3400 N   0  0  0  0  0  0  0  0  0  0  0  0
   13.1840  -14.0010   -3.8770 C   0  0  0  0  0  0  0  0  0  0  0  0
   11.1820  -13.2270  -10.3650 C   0  0  0  0  0  0  0  0  0  0  0  0
   11.3690  -11.8400  -11.0370 C   0  0  0  0  0  0  0  0  0  0  0  0
   12.9661  -11.3762   -9.0716 H   0  0  0  0  0  0  0  0  0  0  0  0
   14.5428  -11.3257   -9.9307 H   0  0  0  0  0  0  0  0  0  0  0  0
   13.4733   -9.8824   -9.9307 H   0  0  0  0  0  0  0  0  0  0  0  0
   12.8610  -10.6330  -11.8310 H   0  0  0  0  0  0  0  0  0  0  0  0
   13.2243  -12.6081  -12.9795 H   0  0  0  0  0  0  0  0  0  0  0  0
   14.6685  -12.2681  -11.9380 H   0  0  0  0  0  0  0  0  0  0  0  0
   13.9430  -14.6879  -11.9091 H   0  0  0  0  0  0  0  0  0  0  0  0
   13.9330  -13.8773  -10.2833 H   0  0  0  0  0  0  0  0  0  0  0  0
   11.5820  -14.4440  -12.0080 H   0  0  0  0  0  0  0  0  0  0  0  0
   10.9143  -16.1379  -10.6444 H   0  0  0  0  0  0  0  0  0  0  0  0
   12.7384  -16.2897  -10.7410 H   0  0  0  0  0  0  0  0  0  0  0  0
   11.9481  -14.5850   -8.5471 H   0  0  0  0  0  0  0  0  0  0  0  0
   11.1659  -16.2498   -8.4688 H   0  0  0  0  0  0  0  0  0  0  0  0
   13.2754  -17.3354   -8.4392 H   0  0  0  0  0  0  0  0  0  0  0  0
   14.1466  -15.7842   -8.7617 H   0  0  0  0  0  0  0  0  0  0  0  0
   11.7442  -16.9105   -3.4996 H   0  0  0  0  0  0  0  0  0  0  0  0
   12.7950  -11.9265    0.6738 H   0  0  0  0  0  0  0  0  0  0  0  0
   10.9683  -11.4824    2.3157 H   0  0  0  0  0  0  0  0  0  0  0  0
    8.5822  -11.7319    1.6466 H   0  0  0  0  0  0  0  0  0  0  0  0
    7.3140  -13.4020   -0.6720 H   0  0  0  0  0  0  0  0  0  0  0  0
    5.1420  -13.1168    0.3979 H   0  0  0  0  0  0  0  0  0  0  0  0
    2.8712  -13.9014   -0.2801 H   0  0  0  0  0  0  0  0  0  0  0  0
    1.8887  -13.1756   -2.4507 H   0  0  0  0  0  0  0  0  0  0  0  0
    5.4297  -10.8237   -3.2599 H   0  0  0  0  0  0  0  0  0  0  0  0
    9.8183  -12.8795   -2.3149 H   0  0  0  0  0  0  0  0  0  0  0  0
   13.3512  -10.7671   -1.7433 H   0  0  0  0  0  0  0  0  0  0  0  0
   14.7596  -11.1472   -3.8644 H   0  0  0  0  0  0  0  0  0  0  0  0
   10.1155  -13.4947  -10.3955 H   0  0  0  0  0  0  0  0  0  0  0  0
   11.5463  -13.1528   -9.3297 H   0  0  0  0  0  0  0  0  0  0  0  0
   10.8928  -11.8598  -12.0284 H   0  0  0  0  0  0  0  0  0  0  0  0
   10.9064  -11.0842  -10.3852 H   0  0  0  0  0  0  0  0  0  0  0  0
  1  2  1  0
  2  3  1  0
  3  4  1  0
  4  5  1  0
  5  6  1  0
  6  7  1  0
  7  8  1  0
  8  9  1  0
  9 10  3  0
 10 11  1  0
 11 12  1  0
 12 13  2  0
 13 14  1  0
 14 15  1  0
 15 16  1  0
 16 17  2  0
 17 18  1  0
 18 19  2  0
 19 20  1  0
 20 21  1  0
 21 22  1  0
 22 23  2  0
 22 24  1  0
 24 25  2  0
 25 26  1  0
 26 27  2  0
 27 28  1  0
 28 29  1  0
 29 30  1  0
 29 31  1  0
 29 32  1  0
 28 33  2  0
 20 34  2  0
 15 35  2  0
 35 36  1  0
 36 37  2  0
 37 38  1  0
  5 39  1  0
 39 40  1  0
 40  2  1  0
 38 11  2  0
 38 14  1  0
 34 16  1  0
 33 24  1  0
  1 41  1  0
  1 42  1  0
  1 43  1  0
  2 44  1  0
  3 45  1  0
  3 46  1  0
  4 47  1  0
  4 48  1  0
  5 49  1  0
  6 50  1  0
  6 51  1  0
  7 52  1  0
  7 53  1  0
  8 54  1  0
  8 55  1  0
 12 56  1  0
 17 57  1  0
 18 58  1  0
 19 59  1  0
 21 60  1  0
 25 61  1  0
 26 62  1  0
 27 63  1  0
 33 64  1  0
 34 65  1  0
 35 66  1  0
 36 67  1  0
 39 68  1  0
 39 69  1  0
 40 70  1  0
 40 71  1  0
M  CHG  2   2   1   5   1
M  END
>  <meeko>  (8) 
{"is_sidechain": [false], "free_energy": -8.426, "intermolecular_energy": -12.971, "internal_energy": -1.015}

$$$$
LIB_YIICPBQWCOBAJU__M_PUB_ALL__e8__s20260927
     RDKit          3D

 71 75  0  0  0  0  0  0  0  0999 V2000
   -2.8700  -10.3170    0.2160 C   0  0  0  0  0  0  0  0  0  0  0  0
   -1.5750   -9.8370    0.8120 N   0  0  0  0  0  0  0  0  0  0  0  0
   -1.6450   -9.5130    2.2890 C   0  0  0  0  0  0  0  0  0  0  0  0
   -1.6200  -10.7950    3.1590 C   0  0  0  0  0  0  0  0  0  0  0  0
   -0.4220  -11.6960    2.8270 N   0  0  0  0  0  0  0  0  0  0  0  0
   -0.4430  -12.9610    3.6930 C   0  0  0  0  0  0  0  0  0  0  0  0
   -0.6480  -14.2620    2.9050 C   0  0  0  0  0  0  0  0  0  0  0  0
    0.5580  -15.2170    2.8890 C   0  0  0  0  0  0  0  0  0  0  0  0
    1.1010  -15.3560    1.5360 C   0  0  0  0  0  0  0  0  0  0  0  0
    1.4440  -15.3380    0.3870 C   0  0  0  0  0  0  0  0  0  0  0  0
    2.1540  -15.2370   -0.8370 C   0  0  0  0  0  0  0  0  0  0  0  0
    2.8480  -16.2460   -1.5100 C   0  0  0  0  0  0  0  0  0  0  0  0
    3.6750  -15.7490   -2.4270 N   0  0  0  0  0  0  0  0  0  0  0  0
    3.3410  -14.4270   -2.5230 N   0  0  0  0  0  0  0  0  0  0  0  0
    3.8900  -13.4420   -3.3640 C   0  0  0  0  0  0  0  0  0  0  0  0
    5.0600  -13.7330   -4.2090 C   0  0  0  0  0  0  0  0  0  0  0  0
    4.9700  -14.3810   -5.4400 C   0  0  0  0  0  0  0  0  0  0  0  0
    6.1270  -14.5910   -6.1930 C   0  0  0  0  0  0  0  0  0  0  0  0
    7.3700  -14.1510   -5.7240 C   0  0  0  0  0  0  0  0  0  0  0  0
    7.4730  -13.4940   -4.4940 C   0  0  0  0  0  0  0  0  0  0  0  0
    8.7500  -13.0710   -4.0640 N   0  0  0  0  0  0  0  0  0  0  0  0
    9.7220  -13.8240   -3.4330 C   0  0  0  0  0  0  0  0  0  0  0  0
    9.6490  -15.0000   -3.0680 O   0  0  0  0  0  0  0  0  0  0  0  0
   10.9870  -13.0940   -3.1530 C   0  0  0  0  0  0  0  0  0  0  0  0
   12.0190  -13.0240   -4.0950 C   0  0  0  0  0  0  0  0  0  0  0  0
   13.2030  -12.3580   -3.7750 C   0  0  0  0  0  0  0  0  0  0  0  0
   13.3670  -11.7760   -2.5140 C   0  0  0  0  0  0  0  0  0  0  0  0
   12.3490  -11.8580   -1.5550 C   0  0  0  0  0  0  0  0  0  0  0  0
   12.5090  -11.2500   -0.1820 C   0  0  0  0  0  0  0  0  0  0  0  0
   11.3670  -11.3120    0.5500 F   0  0  0  0  0  0  0  0  0  0  0  0
   12.9010   -9.9520   -0.1970 F   0  0  0  0  0  0  0  0  0  0  0  0
   13.4540  -11.9200    0.5450 F   0  0  0  0  0  0  0  0  0  0  0  0
   11.1520  -12.5110   -1.8910 C   0  0  0  0  0  0  0  0  0  0  0  0
    6.3160  -13.2930   -3.7510 C   0  0  0  0  0  0  0  0  0  0  0  0
    3.4520  -12.1730   -3.2690 C   0  0  0  0  0  0  0  0  0  0  0  0
    2.4690  -11.9100   -2.1840 C   0  0  0  0  0  0  0  0  0  0  0  0
    2.0460  -12.7760   -1.3100 N   0  0  0  0  0  0  0  0  0  0  0  0
    2.4390  -14.0710   -1.5090 C   0  0  0  0  0  0  0  0  0  0  0  0
   -0.3100  -11.9870    1.3250 C   0  0  0  0  0  0  0  0  0  0  0  0
   -0.3720  -10.6930    0.4700 C   0  0  0  0  0  0  0  0  0  0  0  0
   -3.5710  -10.5768    1.0229 H   0  0  0  0  0  0  0  0  0  0  0  0
   -3.3052   -9.5204   -0.4054 H   0  0  0  0  0  0  0  0  0  0  0  0
   -2.6809  -11.2048   -0.4054 H   0  0  0  0  0  0  0  0  0  0  0  0
   -1.4310   -8.9100    0.3370 H   0  0  0  0  0  0  0  0  0  0  0  0
   -0.7837   -8.8835    2.5570 H   0  0  0  0  0  0  0  0  0  0  0  0
   -2.5922   -8.9874    2.4801 H   0  0  0  0  0  0  0  0  0  0  0  0
   -1.5617  -10.5036    4.2181 H   0  0  0  0  0  0  0  0  0  0  0  0
   -2.5386  -11.3631    2.9509 H   0  0  0  0  0  0  0  0  0  0  0  0
    0.4230  -11.1760    3.0980 H   0  0  0  0  0  0  0  0  0  0  0  0
    0.5163  -13.0290    4.2269 H   0  0  0  0  0  0  0  0  0  0  0  0
   -1.3036  -12.8644    4.3713 H   0  0  0  0  0  0  0  0  0  0  0  0
   -1.5000  -14.7977    3.3489 H   0  0  0  0  0  0  0  0  0  0  0  0
   -0.8128  -13.9621    1.8596 H   0  0  0  0  0  0  0  0  0  0  0  0
    1.3407  -14.8187    3.5513 H   0  0  0  0  0  0  0  0  0  0  0  0
    0.2254  -16.2065    3.2359 H   0  0  0  0  0  0  0  0  0  0  0  0
    2.7258  -17.3201   -1.3067 H   0  0  0  0  0  0  0  0  0  0  0  0
    3.9947  -14.7244   -5.8154 H   0  0  0  0  0  0  0  0  0  0  0  0
    6.0609  -15.1064   -7.1625 H   0  0  0  0  0  0  0  0  0  0  0  0
    8.2732  -14.3234   -6.3278 H   0  0  0  0  0  0  0  0  0  0  0  0
    8.9480  -12.0860   -4.2200 H   0  0  0  0  0  0  0  0  0  0  0  0
   11.8978  -13.4917   -5.0832 H   0  0  0  0  0  0  0  0  0  0  0  0
   14.0111  -12.2905   -4.5182 H   0  0  0  0  0  0  0  0  0  0  0  0
   14.3025  -11.2498   -2.2733 H   0  0  0  0  0  0  0  0  0  0  0  0
   10.3360  -12.5649   -1.1553 H   0  0  0  0  0  0  0  0  0  0  0  0
    6.3834  -12.7776   -2.7816 H   0  0  0  0  0  0  0  0  0  0  0  0
    3.7985  -11.3814   -3.9497 H   0  0  0  0  0  0  0  0  0  0  0  0
    2.0626  -10.8902   -2.1142 H   0  0  0  0  0  0  0  0  0  0  0  0
    0.6477  -12.4929    1.1328 H   0  0  0  0  0  0  0  0  0  0  0  0
   -1.1625  -12.6210    1.0397 H   0  0  0  0  0  0  0  0  0  0  0  0
    0.5417  -10.1069    0.6479 H   0  0  0  0  0  0  0  0  0  0  0  0
   -0.4584  -10.9900   -0.5856 H   0  0  0  0  0  0  0  0  0  0  0  0
  1  2  1  0
  2  3  1  0
  3  4  1  0
  4  5  1  0
  5  6  1  0
  6  7  1  0
  7  8  1  0
  8  9  1  0
  9 10  3  0
 10 11  1  0
 11 12  1  0
 12 13  2  0
 13 14  1  0
 14 15  1  0
 15 16  1  0
 16 17  2  0
 17 18  1  0
 18 19  2  0
 19 20  1  0
 20 21  1  0
 21 22  1  0
 22 23  2  0
 22 24  1  0
 24 25  2  0
 25 26  1  0
 26 27  2  0
 27 28  1  0
 28 29  1  0
 29 30  1  0
 29 31  1  0
 29 32  1  0
 28 33  2  0
 20 34  2  0
 15 35  2  0
 35 36  1  0
 36 37  2  0
 37 38  1  0
  5 39  1  0
 39 40  1  0
 40  2  1  0
 38 11  2  0
 38 14  1  0
 34 16  1  0
 33 24  1  0
  1 41  1  0
  1 42  1  0
  1 43  1  0
  2 44  1  0
  3 45  1  0
  3 46  1  0
  4 47  1  0
  4 48  1  0
  5 49  1  0
  6 50  1  0
  6 51  1  0
  7 52  1  0
  7 53  1  0
  8 54  1  0
  8 55  1  0
 12 56  1  0
 17 57  1  0
 18 58  1  0
 19 59  1  0
 21 60  1  0
 25 61  1  0
 26 62  1  0
 27 63  1  0
 33 64  1  0
 34 65  1  0
 35 66  1  0
 36 67  1  0
 39 68  1  0
 39 69  1  0
 40 70  1  0
 40 71  1  0
M  CHG  2   2   1   5   1
M  END
>  <meeko>  (9) 
{"is_sidechain": [false], "free_energy": -8.366, "intermolecular_energy": -12.437, "internal_energy": -1.46}

$$$$
