LIB_MSOIEDXPFWQELX__M_PUB_ALL__e8__s20260927
     RDKit          3D

 55 59  0  0  0  0  0  0  0  0999 V2000
    6.7640  -12.8130   -4.8530 O   0  0  0  0  0  0  0  0  0  0  0  0
    5.9310  -13.2140   -5.6560 C   0  0  0  0  0  0  0  0  0  0  0  0
    4.5600  -13.0550   -5.5850 N   0  0  0  0  0  0  0  0  0  0  0  0
    3.8250  -12.3490   -4.6080 C   0  0  0  0  0  0  0  0  0  0  0  0
    3.5010  -11.0180   -4.8920 C   0  0  0  0  0  0  0  0  0  0  0  0
    2.7800  -10.2520   -3.9760 C   0  0  0  0  0  0  0  0  0  0  0  0
    2.3800  -10.8120   -2.7640 C   0  0  0  0  0  0  0  0  0  0  0  0
    2.6980  -12.1400   -2.4470 C   0  0  0  0  0  0  0  0  0  0  0  0
    2.2460  -12.7120   -1.1520 C   0  0  0  0  0  0  0  0  0  0  0  0
    2.8450  -13.8150   -0.6550 C   0  0  0  0  0  0  0  0  0  0  0  0
    2.4050  -14.3100    0.5530 N   0  0  0  0  0  0  0  0  0  0  0  0
    2.7900  -15.3860    1.3050 C   0  0  0  0  0  0  0  0  0  0  0  0
    1.9730  -15.3570    2.4160 C   0  0  0  0  0  0  0  0  0  0  0  0
    1.1010  -14.2950    2.3680 N   0  0  0  0  0  0  0  0  0  0  0  0
    1.3930  -13.6930    1.2320 C   0  0  0  0  0  0  0  0  0  0  0  0
    0.7840  -12.5030    0.6660 C   0  0  0  0  0  0  0  0  0  0  0  0
   -0.2330  -11.8620    1.3300 N   0  0  0  0  0  0  0  0  0  0  0  0
   -0.9120  -10.6990    0.8330 C   0  0  0  0  0  0  0  0  0  0  0  0
   -2.3360  -11.0530    0.4920 C   0  0  0  0  0  0  0  0  0  0  0  0
   -3.0920  -10.2390   -0.3550 C   0  0  0  0  0  0  0  0  0  0  0  0
   -4.3900  -10.6210   -0.6600 C   0  0  0  0  0  0  0  0  0  0  0  0
   -4.9720  -11.7450   -0.1900 N   0  0  0  0  0  0  0  0  0  0  0  0
   -4.2200  -12.5260    0.6140 C   0  0  0  0  0  0  0  0  0  0  0  0
   -2.9160  -12.2310    0.9770 C   0  0  0  0  0  0  0  0  0  0  0  0
    1.2190  -12.0460   -0.4860 N   0  0  0  0  0  0  0  0  0  0  0  0
    3.4140  -12.9020   -3.3900 C   0  0  0  0  0  0  0  0  0  0  0  0
    6.4150  -13.9840   -6.8370 C   0  0  0  0  0  0  0  0  0  0  0  0
    6.8340  -15.3150   -6.7270 C   0  0  0  0  0  0  0  0  0  0  0  0
    7.2690  -16.0030   -7.8610 C   0  0  0  0  0  0  0  0  0  0  0  0
    7.2790  -15.3700   -9.1060 C   0  0  0  0  0  0  0  0  0  0  0  0
    6.8510  -14.0390   -9.2340 C   0  0  0  0  0  0  0  0  0  0  0  0
    6.8270  -13.3640  -10.5850 C   0  0  0  0  0  0  0  0  0  0  0  0
    7.9270  -13.6380  -11.3370 F   0  0  0  0  0  0  0  0  0  0  0  0
    6.7650  -12.0080  -10.4840 F   0  0  0  0  0  0  0  0  0  0  0  0
    5.7570  -13.7320  -11.3440 F   0  0  0  0  0  0  0  0  0  0  0  0
    6.4070  -13.3560   -8.0910 C   0  0  0  0  0  0  0  0  0  0  0  0
    4.0040  -13.5180   -6.2940 H   0  0  0  0  0  0  0  0  0  0  0  0
    3.8177  -10.5716   -5.8462 H   0  0  0  0  0  0  0  0  0  0  0  0
    2.5274   -9.2073   -4.2099 H   0  0  0  0  0  0  0  0  0  0  0  0
    1.8078  -10.2045   -2.0474 H   0  0  0  0  0  0  0  0  0  0  0  0
    3.6639  -14.3062   -1.2009 H   0  0  0  0  0  0  0  0  0  0  0  0
    3.5798  -16.1160    1.0738 H   0  0  0  0  0  0  0  0  0  0  0  0
    2.0139  -16.0897    3.2355 H   0  0  0  0  0  0  0  0  0  0  0  0
   -0.5290  -12.2660    2.2120 H   0  0  0  0  0  0  0  0  0  0  0  0
   -0.9043   -9.9135    1.6030 H   0  0  0  0  0  0  0  0  0  0  0  0
   -0.3998  -10.3345   -0.0696 H   0  0  0  0  0  0  0  0  0  0  0  0
   -2.6666   -9.3140   -0.7715 H   0  0  0  0  0  0  0  0  0  0  0  0
   -4.9793   -9.9706   -1.3231 H   0  0  0  0  0  0  0  0  0  0  0  0
   -4.6691  -13.4513    1.0040 H   0  0  0  0  0  0  0  0  0  0  0  0
   -2.3485  -12.9081    1.6324 H   0  0  0  0  0  0  0  0  0  0  0  0
    3.6548  -13.9515   -3.1651 H   0  0  0  0  0  0  0  0  0  0  0  0
    6.8205  -15.8179   -5.7488 H   0  0  0  0  0  0  0  0  0  0  0  0
    7.6049  -17.0468   -7.7738 H   0  0  0  0  0  0  0  0  0  0  0  0
    7.6252  -15.9191   -9.9940 H   0  0  0  0  0  0  0  0  0  0  0  0
    6.0497  -12.3194   -8.1795 H   0  0  0  0  0  0  0  0  0  0  0  0
  1  2  2  0
  2  3  1  0
  3  4  1  0
  4  5  2  0
  5  6  1  0
  6  7  2  0
  7  8  1  0
  8  9  1  0
  9 10  2  0
 10 11  1  0
 11 12  1  0
 12 13  2  0
 13 14  1  0
 14 15  2  0
 15 16  1  0
 16 17  1  0
 17 18  1  0
 18 19  1  0
 19 20  2  0
 20 21  1  0
 21 22  2  0
 22 23  1  0
 23 24  2  0
 16 25  2  0
  8 26  2  0
  2 27  1  0
 27 28  2  0
 28 29  1  0
 29 30  2  0
 30 31  1  0
 31 32  1  0
 32 33  1  0
 32 34  1  0
 32 35  1  0
 31 36  2  0
 26  4  1  0
 36 27  1  0
 25  9  1  0
 15 11  1  0
 24 19  1  0
  3 37  1  0
  5 38  1  0
  6 39  1  0
  7 40  1  0
 10 41  1  0
 12 42  1  0
 13 43  1  0
 17 44  1  0
 18 45  1  0
 18 46  1  0
 20 47  1  0
 21 48  1  0
 23 49  1  0
 24 50  1  0
 26 51  1  0
 28 52  1  0
 29 53  1  0
 30 54  1  0
 36 55  1  0
M  END
>  <meeko>  (1) 
{"is_sidechain": [false], "free_energy": -9.407, "intermolecular_energy": -12.706, "internal_energy": -1.175}

$$$$
LIB_MSOIEDXPFWQELX__M_PUB_ALL__e8__s20260927
     RDKit          3D

 55 59  0  0  0  0  0  0  0  0999 V2000
    7.2860  -14.0240   -5.4190 O   0  0  0  0  0  0  0  0  0  0  0  0
    6.5360  -13.8810   -6.3760 C   0  0  0  0  0  0  0  0  0  0  0  0
    5.3190  -13.2250   -6.3920 N   0  0  0  0  0  0  0  0  0  0  0  0
    4.7050  -12.5280   -5.3290 C   0  0  0  0  0  0  0  0  0  0  0  0
    3.9340  -11.4080   -5.6620 C   0  0  0  0  0  0  0  0  0  0  0  0
    3.2970  -10.6640   -4.6690 C   0  0  0  0  0  0  0  0  0  0  0  0
    3.4300  -11.0320   -3.3310 C   0  0  0  0  0  0  0  0  0  0  0  0
    4.2040  -12.1420   -2.9660 C   0  0  0  0  0  0  0  0  0  0  0  0
    4.3160  -12.5170   -1.5320 C   0  0  0  0  0  0  0  0  0  0  0  0
    5.5310  -12.7240   -0.9800 C   0  0  0  0  0  0  0  0  0  0  0  0
    5.5950  -13.0590    0.3540 N   0  0  0  0  0  0  0  0  0  0  0  0
    6.6440  -13.3310    1.1880 C   0  0  0  0  0  0  0  0  0  0  0  0
    6.0690  -13.5980    2.4130 C   0  0  0  0  0  0  0  0  0  0  0  0
    4.6980  -13.4960    2.3540 N   0  0  0  0  0  0  0  0  0  0  0  0
    4.4560  -13.1720    1.1000 C   0  0  0  0  0  0  0  0  0  0  0  0
    3.1700  -12.9310    0.4690 C   0  0  0  0  0  0  0  0  0  0  0  0
    2.0110  -13.0360    1.1960 N   0  0  0  0  0  0  0  0  0  0  0  0
    0.6970  -12.8440    0.6510 C   0  0  0  0  0  0  0  0  0  0  0  0
    0.1740  -11.4900    1.0550 C   0  0  0  0  0  0  0  0  0  0  0  0
   -0.7830  -11.3660    2.0650 C   0  0  0  0  0  0  0  0  0  0  0  0
   -1.2130  -10.0960    2.4190 C   0  0  0  0  0  0  0  0  0  0  0  0
   -0.7560   -8.9620    1.8490 N   0  0  0  0  0  0  0  0  0  0  0  0
    0.1800   -9.1020    0.8870 C   0  0  0  0  0  0  0  0  0  0  0  0
    0.6730  -10.3260    0.4620 C   0  0  0  0  0  0  0  0  0  0  0  0
    3.1310  -12.6100   -0.8040 N   0  0  0  0  0  0  0  0  0  0  0  0
    4.8270  -12.8900   -3.9830 C   0  0  0  0  0  0  0  0  0  0  0  0
    6.9360  -14.4930   -7.6740 C   0  0  0  0  0  0  0  0  0  0  0  0
    7.3470  -15.8290   -7.7640 C   0  0  0  0  0  0  0  0  0  0  0  0
    7.7020  -16.3660   -9.0020 C   0  0  0  0  0  0  0  0  0  0  0  0
    7.6410  -15.5780  -10.1530 C   0  0  0  0  0  0  0  0  0  0  0  0
    7.2210  -14.2400  -10.0820 C   0  0  0  0  0  0  0  0  0  0  0  0
    7.1200  -13.3950  -11.3300 C   0  0  0  0  0  0  0  0  0  0  0  0
    8.2850  -13.3390  -12.0300 F   0  0  0  0  0  0  0  0  0  0  0  0
    6.7800  -12.1070  -11.0550 F   0  0  0  0  0  0  0  0  0  0  0  0
    6.1830  -13.8530  -12.2060 F   0  0  0  0  0  0  0  0  0  0  0  0
    6.8570  -13.7090   -8.8340 C   0  0  0  0  0  0  0  0  0  0  0  0
    4.7830  -13.2660   -7.2490 H   0  0  0  0  0  0  0  0  0  0  0  0
    3.8296  -11.1120   -6.7163 H   0  0  0  0  0  0  0  0  0  0  0  0
    2.6903   -9.7878   -4.9413 H   0  0  0  0  0  0  0  0  0  0  0  0
    2.9215  -10.4443   -2.5525 H   0  0  0  0  0  0  0  0  0  0  0  0
    6.4470  -12.6274   -1.5813 H   0  0  0  0  0  0  0  0  0  0  0  0
    7.7148  -13.3358    0.9364 H   0  0  0  0  0  0  0  0  0  0  0  0
    6.6337  -13.8589    3.3202 H   0  0  0  0  0  0  0  0  0  0  0  0
    2.1060  -13.2930    2.1740 H   0  0  0  0  0  0  0  0  0  0  0  0
    0.7434  -12.9058   -0.4463 H   0  0  0  0  0  0  0  0  0  0  0  0
    0.0246  -13.6247    1.0362 H   0  0  0  0  0  0  0  0  0  0  0  0
   -1.1868  -12.2566    2.5687 H   0  0  0  0  0  0  0  0  0  0  0  0
   -1.9712  -10.0082    3.2111 H   0  0  0  0  0  0  0  0  0  0  0  0
    0.5749   -8.1916    0.4123 H   0  0  0  0  0  0  0  0  0  0  0  0
    1.4400  -10.3804   -0.3246 H   0  0  0  0  0  0  0  0  0  0  0  0
    5.4210  -13.7760   -3.7143 H   0  0  0  0  0  0  0  0  0  0  0  0
    7.3899  -16.4541   -6.8599 H   0  0  0  0  0  0  0  0  0  0  0  0
    8.0309  -17.4134   -9.0714 H   0  0  0  0  0  0  0  0  0  0  0  0
    7.9246  -16.0093  -11.1244 H   0  0  0  0  0  0  0  0  0  0  0  0
    6.5067  -12.6685   -8.7657 H   0  0  0  0  0  0  0  0  0  0  0  0
  1  2  2  0
  2  3  1  0
  3  4  1  0
  4  5  2  0
  5  6  1  0
  6  7  2  0
  7  8  1  0
  8  9  1  0
  9 10  2  0
 10 11  1  0
 11 12  1  0
 12 13  2  0
 13 14  1  0
 14 15  2  0
 15 16  1  0
 16 17  1  0
 17 18  1  0
 18 19  1  0
 19 20  2  0
 20 21  1  0
 21 22  2  0
 22 23  1  0
 23 24  2  0
 16 25  2  0
  8 26  2  0
  2 27  1  0
 27 28  2  0
 28 29  1  0
 29 30  2  0
 30 31  1  0
 31 32  1  0
 32 33  1  0
 32 34  1  0
 32 35  1  0
 31 36  2  0
 26  4  1  0
 36 27  1  0
 25  9  1  0
 15 11  1  0
 24 19  1  0
  3 37  1  0
  5 38  1  0
  6 39  1  0
  7 40  1  0
 10 41  1  0
 12 42  1  0
 13 43  1  0
 17 44  1  0
 18 45  1  0
 18 46  1  0
 20 47  1  0
 21 48  1  0
 23 49  1  0
 24 50  1  0
 26 51  1  0
 28 52  1  0
 29 53  1  0
 30 54  1  0
 36 55  1  0
M  END
>  <meeko>  (2) 
{"is_sidechain": [false], "free_energy": -9.221, "intermolecular_energy": -12.694, "internal_energy": -0.937}

$$$$
LIB_MSOIEDXPFWQELX__M_PUB_ALL__e8__s20260927
     RDKit          3D

 55 59  0  0  0  0  0  0  0  0999 V2000
    0.8180  -14.5380   -3.8430 O   0  0  0  0  0  0  0  0  0  0  0  0
    1.7870  -14.0550   -3.2720 C   0  0  0  0  0  0  0  0  0  0  0  0
    2.3150  -14.4410   -2.0540 N   0  0  0  0  0  0  0  0  0  0  0  0
    1.8930  -15.5100   -1.2330 C   0  0  0  0  0  0  0  0  0  0  0  0
    2.6220  -16.7010   -1.3130 C   0  0  0  0  0  0  0  0  0  0  0  0
    2.2660  -17.8040   -0.5360 C   0  0  0  0  0  0  0  0  0  0  0  0
    1.1720  -17.7250    0.3240 C   0  0  0  0  0  0  0  0  0  0  0  0
    0.4160  -16.5490    0.4170 C   0  0  0  0  0  0  0  0  0  0  0  0
   -0.7360  -16.4910    1.3530 C   0  0  0  0  0  0  0  0  0  0  0  0
   -1.3140  -17.6320    1.7850 C   0  0  0  0  0  0  0  0  0  0  0  0
   -2.3740  -17.5390    2.6600 N   0  0  0  0  0  0  0  0  0  0  0  0
   -3.1590  -18.4820    3.2640 C   0  0  0  0  0  0  0  0  0  0  0  0
   -4.0530  -17.7670    4.0330 C   0  0  0  0  0  0  0  0  0  0  0  0
   -3.8370  -16.4130    3.9200 N   0  0  0  0  0  0  0  0  0  0  0  0
   -2.8220  -16.3200    3.0850 C   0  0  0  0  0  0  0  0  0  0  0  0
   -2.1640  -15.1180    2.6040 C   0  0  0  0  0  0  0  0  0  0  0  0
   -2.5920  -13.8810    3.0180 N   0  0  0  0  0  0  0  0  0  0  0  0
   -2.0220  -12.6400    2.5730 C   0  0  0  0  0  0  0  0  0  0  0  0
   -2.8910  -12.0430    1.4970 C   0  0  0  0  0  0  0  0  0  0  0  0
   -2.4690  -10.9230    0.7760 C   0  0  0  0  0  0  0  0  0  0  0  0
   -3.2930  -10.4260   -0.2220 C   0  0  0  0  0  0  0  0  0  0  0  0
   -4.4860  -10.9650   -0.5490 N   0  0  0  0  0  0  0  0  0  0  0  0
   -4.8690  -12.0560    0.1480 C   0  0  0  0  0  0  0  0  0  0  0  0
   -4.1180  -12.6270    1.1630 C   0  0  0  0  0  0  0  0  0  0  0  0
   -1.1540  -15.2290    1.7720 N   0  0  0  0  0  0  0  0  0  0  0  0
    0.8000  -15.4410   -0.3630 C   0  0  0  0  0  0  0  0  0  0  0  0
    2.4790  -12.9060   -3.9210 C   0  0  0  0  0  0  0  0  0  0  0  0
    2.2920  -11.5890   -3.4820 C   0  0  0  0  0  0  0  0  0  0  0  0
    2.9690  -10.5430   -4.1110 C   0  0  0  0  0  0  0  0  0  0  0  0
    3.8390  -10.8070   -5.1710 C   0  0  0  0  0  0  0  0  0  0  0  0
    4.0450  -12.1230   -5.6160 C   0  0  0  0  0  0  0  0  0  0  0  0
    5.0120  -12.4150   -6.7390 C   0  0  0  0  0  0  0  0  0  0  0  0
    4.5480  -13.3500   -7.6120 F   0  0  0  0  0  0  0  0  0  0  0  0
    6.2070  -12.8800   -6.2840 F   0  0  0  0  0  0  0  0  0  0  0  0
    5.2990  -11.3160   -7.4920 F   0  0  0  0  0  0  0  0  0  0  0  0
    3.3670  -13.1700   -4.9730 C   0  0  0  0  0  0  0  0  0  0  0  0
    3.0740  -13.8840   -1.6820 H   0  0  0  0  0  0  0  0  0  0  0  0
    3.4831  -16.7687   -1.9941 H   0  0  0  0  0  0  0  0  0  0  0  0
    2.8482  -18.7350   -0.6021 H   0  0  0  0  0  0  0  0  0  0  0  0
    0.8988  -18.5965    0.9371 H   0  0  0  0  0  0  0  0  0  0  0  0
   -0.9474  -18.6123    1.4465 H   0  0  0  0  0  0  0  0  0  0  0  0
   -3.0918  -19.5749    3.1591 H   0  0  0  0  0  0  0  0  0  0  0  0
   -4.8376  -18.2207    4.6563 H   0  0  0  0  0  0  0  0  0  0  0  0
   -3.3810  -13.8600    3.6570 H   0  0  0  0  0  0  0  0  0  0  0  0
   -1.9571  -11.9420    3.4207 H   0  0  0  0  0  0  0  0  0  0  0  0
   -1.0151  -12.8237    2.1699 H   0  0  0  0  0  0  0  0  0  0  0  0
   -1.5028  -10.4454    0.9957 H   0  0  0  0  0  0  0  0  0  0  0  0
   -2.9545   -9.5405   -0.7799 H   0  0  0  0  0  0  0  0  0  0  0  0
   -5.8343  -12.5190   -0.1048 H   0  0  0  0  0  0  0  0  0  0  0  0
   -4.4786  -13.5200    1.6946 H   0  0  0  0  0  0  0  0  0  0  0  0
    0.2295  -14.5036   -0.2866 H   0  0  0  0  0  0  0  0  0  0  0  0
    1.6125  -11.3794   -2.6427 H   0  0  0  0  0  0  0  0  0  0  0  0
    2.8169   -9.5080   -3.7709 H   0  0  0  0  0  0  0  0  0  0  0  0
    4.3677   -9.9766   -5.6619 H   0  0  0  0  0  0  0  0  0  0  0  0
    3.5340  -14.2077   -5.2976 H   0  0  0  0  0  0  0  0  0  0  0  0
  1  2  2  0
  2  3  1  0
  3  4  1  0
  4  5  2  0
  5  6  1  0
  6  7  2  0
  7  8  1  0
  8  9  1  0
  9 10  2  0
 10 11  1  0
 11 12  1  0
 12 13  2  0
 13 14  1  0
 14 15  2  0
 15 16  1  0
 16 17  1  0
 17 18  1  0
 18 19  1  0
 19 20  2  0
 20 21  1  0
 21 22  2  0
 22 23  1  0
 23 24  2  0
 16 25  2  0
  8 26  2  0
  2 27  1  0
 27 28  2  0
 28 29  1  0
 29 30  2  0
 30 31  1  0
 31 32  1  0
 32 33  1  0
 32 34  1  0
 32 35  1  0
 31 36  2  0
 26  4  1  0
 36 27  1  0
 25  9  1  0
 15 11  1  0
 24 19  1  0
  3 37  1  0
  5 38  1  0
  6 39  1  0
  7 40  1  0
 10 41  1  0
 12 42  1  0
 13 43  1  0
 17 44  1  0
 18 45  1  0
 18 46  1  0
 20 47  1  0
 21 48  1  0
 23 49  1  0
 24 50  1  0
 26 51  1  0
 28 52  1  0
 29 53  1  0
 30 54  1  0
 36 55  1  0
M  END
>  <meeko>  (3) 
{"is_sidechain": [false], "free_energy": -9.125, "intermolecular_energy": -12.227, "internal_energy": -1.274}

$$$$
LIB_MSOIEDXPFWQELX__M_PUB_ALL__e8__s20260927
     RDKit          3D

 55 59  0  0  0  0  0  0  0  0999 V2000
    9.5070  -13.9040   -0.2020 O   0  0  0  0  0  0  0  0  0  0  0  0
    9.5850  -12.6950   -0.3820 C   0  0  0  0  0  0  0  0  0  0  0  0
    8.5390  -11.7930   -0.4530 N   0  0  0  0  0  0  0  0  0  0  0  0
    7.1640  -12.0550   -0.2760 C   0  0  0  0  0  0  0  0  0  0  0  0
    6.6520  -11.9260    1.0200 C   0  0  0  0  0  0  0  0  0  0  0  0
    5.3030  -12.1710    1.2770 C   0  0  0  0  0  0  0  0  0  0  0  0
    4.4550  -12.5530    0.2400 C   0  0  0  0  0  0  0  0  0  0  0  0
    4.9400  -12.7000   -1.0670 C   0  0  0  0  0  0  0  0  0  0  0  0
    4.0080  -13.0950   -2.1540 C   0  0  0  0  0  0  0  0  0  0  0  0
    2.8000  -13.6160   -1.8530 C   0  0  0  0  0  0  0  0  0  0  0  0
    1.9590  -13.9610   -2.8890 N   0  0  0  0  0  0  0  0  0  0  0  0
    0.7030  -14.5020   -2.9170 C   0  0  0  0  0  0  0  0  0  0  0  0
    0.3900  -14.6120   -4.2560 C   0  0  0  0  0  0  0  0  0  0  0  0
    1.4160  -14.1520   -5.0480 N   0  0  0  0  0  0  0  0  0  0  0  0
    2.3390  -13.7720   -4.1870 C   0  0  0  0  0  0  0  0  0  0  0  0
    3.6430  -13.1990   -4.4660 C   0  0  0  0  0  0  0  0  0  0  0  0
    4.0480  -12.9960   -5.7620 N   0  0  0  0  0  0  0  0  0  0  0  0
    5.3290  -12.4640   -6.1330 C   0  0  0  0  0  0  0  0  0  0  0  0
    6.0630  -13.4630   -6.9890 C   0  0  0  0  0  0  0  0  0  0  0  0
    6.4530  -14.7000   -6.4690 C   0  0  0  0  0  0  0  0  0  0  0  0
    7.1030  -15.5960   -7.3050 C   0  0  0  0  0  0  0  0  0  0  0  0
    7.3780  -15.3480   -8.6030 N   0  0  0  0  0  0  0  0  0  0  0  0
    6.9790  -14.1550   -9.0910 C   0  0  0  0  0  0  0  0  0  0  0  0
    6.3240  -13.1930   -8.3370 C   0  0  0  0  0  0  0  0  0  0  0  0
    4.4290  -12.8750   -3.4650 N   0  0  0  0  0  0  0  0  0  0  0  0
    6.3010  -12.4340   -1.3110 C   0  0  0  0  0  0  0  0  0  0  0  0
   10.9390  -12.1040   -0.5760 C   0  0  0  0  0  0  0  0  0  0  0  0
   11.5180  -11.2590    0.3780 C   0  0  0  0  0  0  0  0  0  0  0  0
   12.7940  -10.7370    0.1620 C   0  0  0  0  0  0  0  0  0  0  0  0
   13.4980  -11.0610   -1.0000 C   0  0  0  0  0  0  0  0  0  0  0  0
   12.9350  -11.9150   -1.9620 C   0  0  0  0  0  0  0  0  0  0  0  0
   13.7080  -12.2960   -3.2020 C   0  0  0  0  0  0  0  0  0  0  0  0
   13.8890  -13.6390   -3.3250 F   0  0  0  0  0  0  0  0  0  0  0  0
   14.9510  -11.7430   -3.2260 F   0  0  0  0  0  0  0  0  0  0  0  0
   13.0970  -11.8980   -4.3520 F   0  0  0  0  0  0  0  0  0  0  0  0
   11.6550  -12.4440   -1.7330 C   0  0  0  0  0  0  0  0  0  0  0  0
    8.7710  -10.8360   -0.6870 H   0  0  0  0  0  0  0  0  0  0  0  0
    7.3188  -11.6289    1.8429 H   0  0  0  0  0  0  0  0  0  0  0  0
    4.9090  -12.0626    2.2983 H   0  0  0  0  0  0  0  0  0  0  0  0
    3.3917  -12.7416    0.4493 H   0  0  0  0  0  0  0  0  0  0  0  0
    2.4941  -13.7617   -0.8065 H   0  0  0  0  0  0  0  0  0  0  0  0
    0.0780  -14.7875   -2.0580 H   0  0  0  0  0  0  0  0  0  0  0  0
   -0.5582  -15.0157   -4.6408 H   0  0  0  0  0  0  0  0  0  0  0  0
    3.4000  -13.2720   -6.4930 H   0  0  0  0  0  0  0  0  0  0  0  0
    5.1880  -11.5311   -6.6985 H   0  0  0  0  0  0  0  0  0  0  0  0
    5.9161  -12.2596   -5.2255 H   0  0  0  0  0  0  0  0  0  0  0  0
    6.2489  -14.9577   -5.4193 H   0  0  0  0  0  0  0  0  0  0  0  0
    7.4123  -16.5648   -6.8858 H   0  0  0  0  0  0  0  0  0  0  0  0
    7.1853  -13.9326  -10.1483 H   0  0  0  0  0  0  0  0  0  0  0  0
    6.0163  -12.2384   -8.7887 H   0  0  0  0  0  0  0  0  0  0  0  0
    6.6936  -12.5258   -2.3344 H   0  0  0  0  0  0  0  0  0  0  0  0
   10.9680  -11.0068    1.2966 H   0  0  0  0  0  0  0  0  0  0  0  0
   13.2467  -10.0684    0.9090 H   0  0  0  0  0  0  0  0  0  0  0  0
   14.5025  -10.6434   -1.1630 H   0  0  0  0  0  0  0  0  0  0  0  0
   11.2097  -13.1312   -2.4675 H   0  0  0  0  0  0  0  0  0  0  0  0
  1  2  2  0
  2  3  1  0
  3  4  1  0
  4  5  2  0
  5  6  1  0
  6  7  2  0
  7  8  1  0
  8  9  1  0
  9 10  2  0
 10 11  1  0
 11 12  1  0
 12 13  2  0
 13 14  1  0
 14 15  2  0
 15 16  1  0
 16 17  1  0
 17 18  1  0
 18 19  1  0
 19 20  2  0
 20 21  1  0
 21 22  2  0
 22 23  1  0
 23 24  2  0
 16 25  2  0
  8 26  2  0
  2 27  1  0
 27 28  2  0
 28 29  1  0
 29 30  2  0
 30 31  1  0
 31 32  1  0
 32 33  1  0
 32 34  1  0
 32 35  1  0
 31 36  2  0
 26  4  1  0
 36 27  1  0
 25  9  1  0
 15 11  1  0
 24 19  1  0
  3 37  1  0
  5 38  1  0
  6 39  1  0
  7 40  1  0
 10 41  1  0
 12 42  1  0
 13 43  1  0
 17 44  1  0
 18 45  1  0
 18 46  1  0
 20 47  1  0
 21 48  1  0
 23 49  1  0
 24 50  1  0
 26 51  1  0
 28 52  1  0
 29 53  1  0
 30 54  1  0
 36 55  1  0
M  END
>  <meeko>  (4) 
{"is_sidechain": [false], "free_energy": -9.077, "intermolecular_energy": -12.194, "internal_energy": -1.243}

$$$$
LIB_MSOIEDXPFWQELX__M_PUB_ALL__e8__s20260927
     RDKit          3D

 55 59  0  0  0  0  0  0  0  0999 V2000
   10.4840  -14.1240   -0.4890 O   0  0  0  0  0  0  0  0  0  0  0  0
   10.5140  -13.1460   -1.2250 C   0  0  0  0  0  0  0  0  0  0  0  0
    9.4980  -12.2330   -1.4410 N   0  0  0  0  0  0  0  0  0  0  0  0
    8.2310  -12.1930   -0.8190 C   0  0  0  0  0  0  0  0  0  0  0  0
    8.1900  -11.7830    0.5180 C   0  0  0  0  0  0  0  0  0  0  0  0
    6.9770  -11.7200    1.2030 C   0  0  0  0  0  0  0  0  0  0  0  0
    5.7930  -12.0720    0.5570 C   0  0  0  0  0  0  0  0  0  0  0  0
    5.8040  -12.4960   -0.7790 C   0  0  0  0  0  0  0  0  0  0  0  0
    4.5240  -12.8520   -1.4450 C   0  0  0  0  0  0  0  0  0  0  0  0
    4.5080  -13.1520   -2.7610 C   0  0  0  0  0  0  0  0  0  0  0  0
    3.3040  -13.4870   -3.3410 N   0  0  0  0  0  0  0  0  0  0  0  0
    2.9590  -13.8300   -4.6190 C   0  0  0  0  0  0  0  0  0  0  0  0
    1.5990  -14.0560   -4.5750 C   0  0  0  0  0  0  0  0  0  0  0  0
    1.1010  -13.8630   -3.3070 N   0  0  0  0  0  0  0  0  0  0  0  0
    2.1580  -13.5210   -2.5980 C   0  0  0  0  0  0  0  0  0  0  0  0
    2.2230  -13.2020   -1.1830 C   0  0  0  0  0  0  0  0  0  0  0  0
    1.0870  -13.2310   -0.4130 N   0  0  0  0  0  0  0  0  0  0  0  0
    1.0510  -12.9020    0.9840 C   0  0  0  0  0  0  0  0  0  0  0  0
    0.3910  -11.5600    1.1700 C   0  0  0  0  0  0  0  0  0  0  0  0
   -0.7830  -11.4380    1.9180 C   0  0  0  0  0  0  0  0  0  0  0  0
   -1.3370  -10.1770    2.0820 C   0  0  0  0  0  0  0  0  0  0  0  0
   -0.8070   -9.0500    1.5630 N   0  0  0  0  0  0  0  0  0  0  0  0
    0.3350   -9.1870    0.8570 C   0  0  0  0  0  0  0  0  0  0  0  0
    0.9660  -10.4010    0.6370 C   0  0  0  0  0  0  0  0  0  0  0  0
    3.3810  -12.8860   -0.6490 N   0  0  0  0  0  0  0  0  0  0  0  0
    7.0360  -12.5390   -1.4590 C   0  0  0  0  0  0  0  0  0  0  0  0
   11.7570  -12.8990   -2.0080 C   0  0  0  0  0  0  0  0  0  0  0  0
   12.5820  -11.7960   -1.7550 C   0  0  0  0  0  0  0  0  0  0  0  0
   13.7440  -11.6100   -2.5050 C   0  0  0  0  0  0  0  0  0  0  0  0
   14.0910  -12.5240   -3.5020 C   0  0  0  0  0  0  0  0  0  0  0  0
   13.2800  -13.6410   -3.7610 C   0  0  0  0  0  0  0  0  0  0  0  0
   13.6720  -14.6510   -4.8140 C   0  0  0  0  0  0  0  0  0  0  0  0
   12.6470  -14.9740   -5.6480 F   0  0  0  0  0  0  0  0  0  0  0  0
   14.1020  -15.8220   -4.2720 F   0  0  0  0  0  0  0  0  0  0  0  0
   14.6810  -14.2160   -5.6180 F   0  0  0  0  0  0  0  0  0  0  0  0
   12.1170  -13.8260   -2.9970 C   0  0  0  0  0  0  0  0  0  0  0  0
    9.6580  -11.5230   -2.1440 H   0  0  0  0  0  0  0  0  0  0  0  0
    9.1223  -11.5081    1.0331 H   0  0  0  0  0  0  0  0  0  0  0  0
    6.9545  -11.3926    2.2529 H   0  0  0  0  0  0  0  0  0  0  0  0
    4.8391  -12.0164    1.1019 H   0  0  0  0  0  0  0  0  0  0  0  0
    5.4332  -13.1296   -3.3555 H   0  0  0  0  0  0  0  0  0  0  0  0
    3.6224  -13.9087   -5.4929 H   0  0  0  0  0  0  0  0  0  0  0  0
    0.9907  -14.3524   -5.4422 H   0  0  0  0  0  0  0  0  0  0  0  0
    0.2210  -13.4760   -0.8840 H   0  0  0  0  0  0  0  0  0  0  0  0
    0.4793  -13.6695    1.5263 H   0  0  0  0  0  0  0  0  0  0  0  0
    2.0778  -12.8619    1.3766 H   0  0  0  0  0  0  0  0  0  0  0  0
   -1.2576  -12.3229    2.3671 H   0  0  0  0  0  0  0  0  0  0  0  0
   -2.2628  -10.0907    2.6697 H   0  0  0  0  0  0  0  0  0  0  0  0
    0.7919   -8.2816    0.4311 H   0  0  0  0  0  0  0  0  0  0  0  0
    1.8986  -10.4524    0.0560 H   0  0  0  0  0  0  0  0  0  0  0  0
    7.0595  -12.8506   -2.5137 H   0  0  0  0  0  0  0  0  0  0  0  0
   12.3145  -11.0774   -0.9663 H   0  0  0  0  0  0  0  0  0  0  0  0
   14.3888  -10.7404   -2.3101 H   0  0  0  0  0  0  0  0  0  0  0  0
   15.0076  -12.3678   -4.0897 H   0  0  0  0  0  0  0  0  0  0  0  0
   11.4820  -14.7063   -3.1757 H   0  0  0  0  0  0  0  0  0  0  0  0
  1  2  2  0
  2  3  1  0
  3  4  1  0
  4  5  2  0
  5  6  1  0
  6  7  2  0
  7  8  1  0
  8  9  1  0
  9 10  2  0
 10 11  1  0
 11 12  1  0
 12 13  2  0
 13 14  1  0
 14 15  2  0
 15 16  1  0
 16 17  1  0
 17 18  1  0
 18 19  1  0
 19 20  2  0
 20 21  1  0
 21 22  2  0
 22 23  1  0
 23 24  2  0
 16 25  2  0
  8 26  2  0
  2 27  1  0
 27 28  2  0
 28 29  1  0
 29 30  2  0
 30 31  1  0
 31 32  1  0
 32 33  1  0
 32 34  1  0
 32 35  1  0
 31 36  2  0
 26  4  1  0
 36 27  1  0
 25  9  1  0
 15 11  1  0
 24 19  1  0
  3 37  1  0
  5 38  1  0
  6 39  1  0
  7 40  1  0
 10 41  1  0
 12 42  1  0
 13 43  1  0
 17 44  1  0
 18 45  1  0
 18 46  1  0
 20 47  1  0
 21 48  1  0
 23 49  1  0
 24 50  1  0
 26 51  1  0
 28 52  1  0
 29 53  1  0
 30 54  1  0
 36 55  1  0
M  END
>  <meeko>  (5) 
{"is_sidechain": [false], "free_energy": -8.842, "intermolecular_energy": -12.018, "internal_energy": -1.1}

$$$$
LIB_MSOIEDXPFWQELX__M_PUB_ALL__e8__s20260927
     RDKit          3D

 55 59  0  0  0  0  0  0  0  0999 V2000
  -15.3120   -7.8720   -7.2280 O   0  0  0  0  0  0  0  0  0  0  0  0
  -14.3700   -8.0030   -6.4570 C   0  0  0  0  0  0  0  0  0  0  0  0
  -13.3400   -8.9210   -6.5460 N   0  0  0  0  0  0  0  0  0  0  0  0
  -13.1160   -9.8650   -7.5730 C   0  0  0  0  0  0  0  0  0  0  0  0
  -12.5260   -9.3960   -8.7520 C   0  0  0  0  0  0  0  0  0  0  0  0
  -12.2740  -10.2660   -9.8130 C   0  0  0  0  0  0  0  0  0  0  0  0
  -12.6170  -11.6120   -9.7060 C   0  0  0  0  0  0  0  0  0  0  0  0
  -13.2180  -12.1090   -8.5410 C   0  0  0  0  0  0  0  0  0  0  0  0
  -13.5590  -13.5520   -8.4510 C   0  0  0  0  0  0  0  0  0  0  0  0
  -14.6770  -14.0210   -9.0460 C   0  0  0  0  0  0  0  0  0  0  0  0
  -14.9540  -15.3670   -8.9490 N   0  0  0  0  0  0  0  0  0  0  0  0
  -15.9820  -16.1340   -9.4250 C   0  0  0  0  0  0  0  0  0  0  0  0
  -15.6980  -17.4160   -9.0010 C   0  0  0  0  0  0  0  0  0  0  0  0
  -14.5250  -17.4570   -8.2830 N   0  0  0  0  0  0  0  0  0  0  0  0
  -14.1130  -16.2050   -8.2740 C   0  0  0  0  0  0  0  0  0  0  0  0
  -12.9160  -15.6610   -7.6580 C   0  0  0  0  0  0  0  0  0  0  0  0
  -12.0520  -16.4820   -6.9760 N   0  0  0  0  0  0  0  0  0  0  0  0
  -10.8630  -16.0270   -6.3120 C   0  0  0  0  0  0  0  0  0  0  0  0
   -9.6790  -16.1940   -7.2280 C   0  0  0  0  0  0  0  0  0  0  0  0
   -9.7090  -15.6940   -8.5330 C   0  0  0  0  0  0  0  0  0  0  0  0
   -8.5840  -15.8490   -9.3290 C   0  0  0  0  0  0  0  0  0  0  0  0
   -7.4490  -16.4520   -8.9170 N   0  0  0  0  0  0  0  0  0  0  0  0
   -7.4340  -16.9130   -7.6490 C   0  0  0  0  0  0  0  0  0  0  0  0
   -8.5060  -16.8070   -6.7760 C   0  0  0  0  0  0  0  0  0  0  0  0
  -12.6690  -14.3750   -7.7630 N   0  0  0  0  0  0  0  0  0  0  0  0
  -13.4500  -11.2200   -7.4740 C   0  0  0  0  0  0  0  0  0  0  0  0
  -14.3130   -7.1090   -5.2670 C   0  0  0  0  0  0  0  0  0  0  0  0
  -14.1670   -5.7220   -5.3930 C   0  0  0  0  0  0  0  0  0  0  0  0
  -14.1290   -4.9190   -4.2520 C   0  0  0  0  0  0  0  0  0  0  0  0
  -14.2450   -5.4940   -2.9850 C   0  0  0  0  0  0  0  0  0  0  0  0
  -14.4020   -6.8820   -2.8410 C   0  0  0  0  0  0  0  0  0  0  0  0
  -14.5630   -7.5030   -1.4740 C   0  0  0  0  0  0  0  0  0  0  0  0
  -13.4630   -7.3530   -0.6880 F   0  0  0  0  0  0  0  0  0  0  0  0
  -14.8020   -8.8410   -1.5390 F   0  0  0  0  0  0  0  0  0  0  0  0
  -15.5990   -6.9710   -0.7680 F   0  0  0  0  0  0  0  0  0  0  0  0
  -14.4480   -7.6820   -3.9940 C   0  0  0  0  0  0  0  0  0  0  0  0
  -12.6790   -8.9500   -5.7800 H   0  0  0  0  0  0  0  0  0  0  0  0
  -12.2588   -8.3328   -8.8429 H   0  0  0  0  0  0  0  0  0  0  0  0
  -11.8046   -9.8893  -10.7338 H   0  0  0  0  0  0  0  0  0  0  0  0
  -12.4138  -12.2930  -10.5456 H   0  0  0  0  0  0  0  0  0  0  0  0
  -15.3496  -13.3451   -9.5944 H   0  0  0  0  0  0  0  0  0  0  0  0
  -16.8471  -15.8010  -10.0172 H   0  0  0  0  0  0  0  0  0  0  0  0
  -16.3285  -18.2928   -9.2102 H   0  0  0  0  0  0  0  0  0  0  0  0
  -12.3010  -17.4650   -6.9240 H   0  0  0  0  0  0  0  0  0  0  0  0
  -10.9747  -14.9651   -6.0475 H   0  0  0  0  0  0  0  0  0  0  0  0
  -10.7050  -16.6187   -5.3983 H   0  0  0  0  0  0  0  0  0  0  0  0
  -10.6058  -15.1884   -8.9203 H   0  0  0  0  0  0  0  0  0  0  0  0
   -8.6188  -15.4575  -10.3564 H   0  0  0  0  0  0  0  0  0  0  0  0
   -6.5175  -17.4016   -7.2866 H   0  0  0  0  0  0  0  0  0  0  0  0
   -8.4354  -17.1967   -5.7498 H   0  0  0  0  0  0  0  0  0  0  0  0
  -13.9023  -11.5979   -6.5452 H   0  0  0  0  0  0  0  0  0  0  0  0
  -14.0823   -5.2657   -6.3903 H   0  0  0  0  0  0  0  0  0  0  0  0
  -14.0073   -3.8303   -4.3512 H   0  0  0  0  0  0  0  0  0  0  0  0
  -14.2131   -4.8537   -2.0911 H   0  0  0  0  0  0  0  0  0  0  0  0
  -14.5913   -8.7684   -3.8980 H   0  0  0  0  0  0  0  0  0  0  0  0
  1  2  2  0
  2  3  1  0
  3  4  1  0
  4  5  2  0
  5  6  1  0
  6  7  2  0
  7  8  1  0
  8  9  1  0
  9 10  2  0
 10 11  1  0
 11 12  1  0
 12 13  2  0
 13 14  1  0
 14 15  2  0
 15 16  1  0
 16 17  1  0
 17 18  1  0
 18 19  1  0
 19 20  2  0
 20 21  1  0
 21 22  2  0
 22 23  1  0
 23 24  2  0
 16 25  2  0
  8 26  2  0
  2 27  1  0
 27 28  2  0
 28 29  1  0
 29 30  2  0
 30 31  1  0
 31 32  1  0
 32 33  1  0
 32 34  1  0
 32 35  1  0
 31 36  2  0
 26  4  1  0
 36 27  1  0
 25  9  1  0
 15 11  1  0
 24 19  1  0
  3 37  1  0
  5 38  1  0
  6 39  1  0
  7 40  1  0
 10 41  1  0
 12 42  1  0
 13 43  1  0
 17 44  1  0
 18 45  1  0
 18 46  1  0
 20 47  1  0
 21 48  1  0
 23 49  1  0
 24 50  1  0
 26 51  1  0
 28 52  1  0
 29 53  1  0
 30 54  1  0
 36 55  1  0
M  END
>  <meeko>  (6) 
{"is_sidechain": [false], "free_energy": -8.836, "intermolecular_energy": -12.243, "internal_energy": -0.868}

$$$$
LIB_MSOIEDXPFWQELX__M_PUB_ALL__e8__s20260927
     RDKit          3D

 55 59  0  0  0  0  0  0  0  0999 V2000
    6.0200  -15.8780   -5.7280 O   0  0  0  0  0  0  0  0  0  0  0  0
    6.0240  -14.7570   -6.2200 C   0  0  0  0  0  0  0  0  0  0  0  0
    6.8700  -14.2790   -7.2040 N   0  0  0  0  0  0  0  0  0  0  0  0
    7.8720  -14.9930   -7.8960 C   0  0  0  0  0  0  0  0  0  0  0  0
    7.4580  -15.8060   -8.9570 C   0  0  0  0  0  0  0  0  0  0  0  0
    8.3870  -16.5460   -9.6890 C   0  0  0  0  0  0  0  0  0  0  0  0
    9.7400  -16.4810   -9.3620 C   0  0  0  0  0  0  0  0  0  0  0  0
   10.1840  -15.6830   -8.2980 C   0  0  0  0  0  0  0  0  0  0  0  0
   11.6350  -15.6250   -7.9820 C   0  0  0  0  0  0  0  0  0  0  0  0
   12.5470  -15.7200   -8.9730 C   0  0  0  0  0  0  0  0  0  0  0  0
   13.8830  -15.6510   -8.6420 N   0  0  0  0  0  0  0  0  0  0  0  0
   15.0240  -15.7170   -9.3930 C   0  0  0  0  0  0  0  0  0  0  0  0
   16.0560  -15.5830   -8.4880 C   0  0  0  0  0  0  0  0  0  0  0  0
   15.5810  -15.4340   -7.2060 N   0  0  0  0  0  0  0  0  0  0  0  0
   14.2710  -15.4830   -7.3440 C   0  0  0  0  0  0  0  0  0  0  0  0
   13.2570  -15.3740   -6.3100 C   0  0  0  0  0  0  0  0  0  0  0  0
   13.6200  -15.2010   -4.9980 N   0  0  0  0  0  0  0  0  0  0  0  0
   12.6890  -15.1140   -3.9080 C   0  0  0  0  0  0  0  0  0  0  0  0
   12.7940  -13.7570   -3.2620 C   0  0  0  0  0  0  0  0  0  0  0  0
   11.9360  -13.3920   -2.2220 C   0  0  0  0  0  0  0  0  0  0  0  0
   12.0900  -12.1410   -1.6420 C   0  0  0  0  0  0  0  0  0  0  0  0
   13.0290  -11.2490   -2.0200 N   0  0  0  0  0  0  0  0  0  0  0  0
   13.8590  -11.6260   -3.0150 C   0  0  0  0  0  0  0  0  0  0  0  0
   13.7850  -12.8520   -3.6570 C   0  0  0  0  0  0  0  0  0  0  0  0
   11.9890  -15.4400   -6.6470 N   0  0  0  0  0  0  0  0  0  0  0  0
    9.2340  -14.9320   -7.5810 C   0  0  0  0  0  0  0  0  0  0  0  0
    5.0370  -13.7660   -5.7050 C   0  0  0  0  0  0  0  0  0  0  0  0
    5.1400  -12.4010   -6.0010 C   0  0  0  0  0  0  0  0  0  0  0  0
    4.1870  -11.5080   -5.5070 C   0  0  0  0  0  0  0  0  0  0  0  0
    3.1280  -11.9730   -4.7250 C   0  0  0  0  0  0  0  0  0  0  0  0
    3.0050  -13.3400   -4.4280 C   0  0  0  0  0  0  0  0  0  0  0  0
    1.8410  -13.8510   -3.6130 C   0  0  0  0  0  0  0  0  0  0  0  0
    0.7320  -14.0950   -4.3630 F   0  0  0  0  0  0  0  0  0  0  0  0
    1.4590  -12.9690   -2.6490 F   0  0  0  0  0  0  0  0  0  0  0  0
    2.1160  -15.0180   -2.9670 F   0  0  0  0  0  0  0  0  0  0  0  0
    3.9620  -14.2330   -4.9360 C   0  0  0  0  0  0  0  0  0  0  0  0
    6.7920  -13.2990   -7.4440 H   0  0  0  0  0  0  0  0  0  0  0  0
    6.3905  -15.8622   -9.2162 H   0  0  0  0  0  0  0  0  0  0  0  0
    8.0519  -17.1799  -10.5232 H   0  0  0  0  0  0  0  0  0  0  0  0
   10.4686  -17.0628   -9.9457 H   0  0  0  0  0  0  0  0  0  0  0  0
   12.2314  -15.8493  -10.0188 H   0  0  0  0  0  0  0  0  0  0  0  0
   15.1018  -15.8484  -10.4823 H   0  0  0  0  0  0  0  0  0  0  0  0
   17.1225  -15.5939   -8.7571 H   0  0  0  0  0  0  0  0  0  0  0  0
   14.6150  -15.1640   -4.8000 H   0  0  0  0  0  0  0  0  0  0  0  0
   11.6668  -15.2612   -4.2868 H   0  0  0  0  0  0  0  0  0  0  0  0
   12.9216  -15.8915   -3.1654 H   0  0  0  0  0  0  0  0  0  0  0  0
   11.1547  -14.0818   -1.8702 H   0  0  0  0  0  0  0  0  0  0  0  0
   11.4070  -11.8602   -0.8268 H   0  0  0  0  0  0  0  0  0  0  0  0
   14.6392  -10.9196   -3.3349 H   0  0  0  0  0  0  0  0  0  0  0  0
   14.4910  -13.1082   -4.4607 H   0  0  0  0  0  0  0  0  0  0  0  0
    9.5686  -14.2846   -6.7571 H   0  0  0  0  0  0  0  0  0  0  0  0
    5.9703  -12.0330   -6.6216 H   0  0  0  0  0  0  0  0  0  0  0  0
    4.2708  -10.4351   -5.7346 H   0  0  0  0  0  0  0  0  0  0  0  0
    2.3832  -11.2621   -4.3380 H   0  0  0  0  0  0  0  0  0  0  0  0
    3.8673  -15.3091   -4.7286 H   0  0  0  0  0  0  0  0  0  0  0  0
  1  2  2  0
  2  3  1  0
  3  4  1  0
  4  5  2  0
  5  6  1  0
  6  7  2  0
  7  8  1  0
  8  9  1  0
  9 10  2  0
 10 11  1  0
 11 12  1  0
 12 13  2  0
 13 14  1  0
 14 15  2  0
 15 16  1  0
 16 17  1  0
 17 18  1  0
 18 19  1  0
 19 20  2  0
 20 21  1  0
 21 22  2  0
 22 23  1  0
 23 24  2  0
 16 25  2  0
  8 26  2  0
  2 27  1  0
 27 28  2  0
 28 29  1  0
 29 30  2  0
 30 31  1  0
 31 32  1  0
 32 33  1  0
 32 34  1  0
 32 35  1  0
 31 36  2  0
 26  4  1  0
 36 27  1  0
 25  9  1  0
 15 11  1  0
 24 19  1  0
  3 37  1  0
  5 38  1  0
  6 39  1  0
  7 40  1  0
 10 41  1  0
 12 42  1  0
 13 43  1  0
 17 44  1  0
 18 45  1  0
 18 46  1  0
 20 47  1  0
 21 48  1  0
 23 49  1  0
 24 50  1  0
 26 51  1  0
 28 52  1  0
 29 53  1  0
 30 54  1  0
 36 55  1  0
M  END
>  <meeko>  (7) 
{"is_sidechain": [false], "free_energy": -8.785, "intermolecular_energy": -11.847, "internal_energy": -1.194}

$$$$
LIB_MSOIEDXPFWQELX__M_PUB_ALL__e8__s20260927
     RDKit          3D

 55 59  0  0  0  0  0  0  0  0999 V2000
    6.8970  -11.8410    0.2640 O   0  0  0  0  0  0  0  0  0  0  0  0
    7.0640  -12.1200   -0.9160 C   0  0  0  0  0  0  0  0  0  0  0  0
    6.0860  -12.3300   -1.8710 N   0  0  0  0  0  0  0  0  0  0  0  0
    4.6890  -12.2100   -1.7100 C   0  0  0  0  0  0  0  0  0  0  0  0
    3.9930  -11.4940   -2.6910 C   0  0  0  0  0  0  0  0  0  0  0  0
    2.6110  -11.3290   -2.6020 C   0  0  0  0  0  0  0  0  0  0  0  0
    1.9120  -11.8760   -1.5280 C   0  0  0  0  0  0  0  0  0  0  0  0
    2.5830  -12.5910   -0.5260 C   0  0  0  0  0  0  0  0  0  0  0  0
    1.8080  -13.1750    0.6000 C   0  0  0  0  0  0  0  0  0  0  0  0
    2.1710  -14.3640    1.1250 C   0  0  0  0  0  0  0  0  0  0  0  0
    1.4350  -14.8680    2.1750 N   0  0  0  0  0  0  0  0  0  0  0  0
    1.5380  -16.0190    2.9070 C   0  0  0  0  0  0  0  0  0  0  0  0
    0.5100  -15.9550    3.8240 C   0  0  0  0  0  0  0  0  0  0  0  0
   -0.2190  -14.7970    3.6780 N   0  0  0  0  0  0  0  0  0  0  0  0
    0.3700  -14.1750    2.6750 C   0  0  0  0  0  0  0  0  0  0  0  0
    0.0200  -12.8930    2.0880 C   0  0  0  0  0  0  0  0  0  0  0  0
   -1.0440  -12.1750    2.5740 N   0  0  0  0  0  0  0  0  0  0  0  0
   -1.4790  -10.9160    2.0370 C   0  0  0  0  0  0  0  0  0  0  0  0
   -2.6920  -11.1290    1.1700 C   0  0  0  0  0  0  0  0  0  0  0  0
   -2.9440  -10.2960    0.0760 C   0  0  0  0  0  0  0  0  0  0  0  0
   -4.0600  -10.5490   -0.7070 C   0  0  0  0  0  0  0  0  0  0  0  0
   -4.9220  -11.5630   -0.4820 N   0  0  0  0  0  0  0  0  0  0  0  0
   -4.6520  -12.3660    0.5690 C   0  0  0  0  0  0  0  0  0  0  0  0
   -3.5640  -12.1960    1.4110 C   0  0  0  0  0  0  0  0  0  0  0  0
    0.7360  -12.4300    1.0890 N   0  0  0  0  0  0  0  0  0  0  0  0
    3.9760  -12.7600   -0.6400 C   0  0  0  0  0  0  0  0  0  0  0  0
    8.4630  -12.2860   -1.4030 C   0  0  0  0  0  0  0  0  0  0  0  0
    8.7900  -12.1740   -2.7600 C   0  0  0  0  0  0  0  0  0  0  0  0
   10.1150  -12.3240   -3.1710 C   0  0  0  0  0  0  0  0  0  0  0  0
   11.1170  -12.5790   -2.2320 C   0  0  0  0  0  0  0  0  0  0  0  0
   10.8070  -12.6850   -0.8670 C   0  0  0  0  0  0  0  0  0  0  0  0
   11.8930  -12.9240    0.1540 C   0  0  0  0  0  0  0  0  0  0  0  0
   12.3850  -14.1920    0.1210 F   0  0  0  0  0  0  0  0  0  0  0  0
   11.4600  -12.7200    1.4280 F   0  0  0  0  0  0  0  0  0  0  0  0
   12.9690  -12.1050   -0.0120 F   0  0  0  0  0  0  0  0  0  0  0  0
    9.4730  -12.5230   -0.4600 C   0  0  0  0  0  0  0  0  0  0  0  0
    6.3930  -12.6320   -2.7870 H   0  0  0  0  0  0  0  0  0  0  0  0
    4.5408  -11.0578   -3.5393 H   0  0  0  0  0  0  0  0  0  0  0  0
    2.0729  -10.7671   -3.3796 H   0  0  0  0  0  0  0  0  0  0  0  0
    0.8216  -11.7454   -1.4656 H   0  0  0  0  0  0  0  0  0  0  0  0
    3.0333  -14.9172    0.7245 H   0  0  0  0  0  0  0  0  0  0  0  0
    2.2804  -16.8221    2.7896 H   0  0  0  0  0  0  0  0  0  0  0  0
    0.2997  -16.7301    4.5757 H   0  0  0  0  0  0  0  0  0  0  0  0
   -1.5620  -12.5880    3.3430 H   0  0  0  0  0  0  0  0  0  0  0  0
   -1.7337  -10.2344    2.8620 H   0  0  0  0  0  0  0  0  0  0  0  0
   -0.6708  -10.4773    1.4334 H   0  0  0  0  0  0  0  0  0  0  0  0
   -2.2714   -9.4578   -0.1586 H   0  0  0  0  0  0  0  0  0  0  0  0
   -4.2543   -9.8843   -1.5617 H   0  0  0  0  0  0  0  0  0  0  0  0
   -5.3354  -13.2044    0.7690 H   0  0  0  0  0  0  0  0  0  0  0  0
   -3.3901  -12.8852    2.2505 H   0  0  0  0  0  0  0  0  0  0  0  0
    4.5140  -13.3358    0.1274 H   0  0  0  0  0  0  0  0  0  0  0  0
    8.0035  -11.9681   -3.5009 H   0  0  0  0  0  0  0  0  0  0  0  0
   10.3711  -12.2412   -4.2376 H   0  0  0  0  0  0  0  0  0  0  0  0
   12.1586  -12.6979   -2.5651 H   0  0  0  0  0  0  0  0  0  0  0  0
    9.2181  -12.5826    0.6084 H   0  0  0  0  0  0  0  0  0  0  0  0
  1  2  2  0
  2  3  1  0
  3  4  1  0
  4  5  2  0
  5  6  1  0
  6  7  2  0
  7  8  1  0
  8  9  1  0
  9 10  2  0
 10 11  1  0
 11 12  1  0
 12 13  2  0
 13 14  1  0
 14 15  2  0
 15 16  1  0
 16 17  1  0
 17 18  1  0
 18 19  1  0
 19 20  2  0
 20 21  1  0
 21 22  2  0
 22 23  1  0
 23 24  2  0
 16 25  2  0
  8 26  2  0
  2 27  1  0
 27 28  2  0
 28 29  1  0
 29 30  2  0
 30 31  1  0
 31 32  1  0
 32 33  1  0
 32 34  1  0
 32 35  1  0
 31 36  2  0
 26  4  1  0
 36 27  1  0
 25  9  1  0
 15 11  1  0
 24 19  1  0
  3 37  1  0
  5 38  1  0
  6 39  1  0
  7 40  1  0
 10 41  1  0
 12 42  1  0
 13 43  1  0
 17 44  1  0
 18 45  1  0
 18 46  1  0
 20 47  1  0
 21 48  1  0
 23 49  1  0
 24 50  1  0
 26 51  1  0
 28 52  1  0
 29 53  1  0
 30 54  1  0
 36 55  1  0
M  END
>  <meeko>  (8) 
{"is_sidechain": [false], "free_energy": -8.767, "intermolecular_energy": -11.967, "internal_energy": -1.05}

$$$$
LIB_MSOIEDXPFWQELX__M_PUB_ALL__e8__s20260927
     RDKit          3D

 55 59  0  0  0  0  0  0  0  0999 V2000
    6.6930  -10.9410   -0.2820 O   0  0  0  0  0  0  0  0  0  0  0  0
    6.7200  -11.9700   -0.9460 C   0  0  0  0  0  0  0  0  0  0  0  0
    5.6750  -12.5310   -1.6570 N   0  0  0  0  0  0  0  0  0  0  0  0
    4.3720  -12.0130   -1.8230 C   0  0  0  0  0  0  0  0  0  0  0  0
    4.0400  -11.5170   -3.0880 C   0  0  0  0  0  0  0  0  0  0  0  0
    2.7730  -10.9860   -3.3320 C   0  0  0  0  0  0  0  0  0  0  0  0
    1.8280  -10.9430   -2.3080 C   0  0  0  0  0  0  0  0  0  0  0  0
    2.1350  -11.4240   -1.0280 C   0  0  0  0  0  0  0  0  0  0  0  0
    1.1020  -11.3780    0.0400 C   0  0  0  0  0  0  0  0  0  0  0  0
    0.3510  -10.2680    0.2050 C   0  0  0  0  0  0  0  0  0  0  0  0
   -0.6040  -10.2670    1.1990 N   0  0  0  0  0  0  0  0  0  0  0  0
   -1.5010   -9.3220    1.6150 C   0  0  0  0  0  0  0  0  0  0  0  0
   -2.1890   -9.9140    2.6530 C   0  0  0  0  0  0  0  0  0  0  0  0
   -1.7410  -11.1940    2.8840 N   0  0  0  0  0  0  0  0  0  0  0  0
   -0.7880  -11.3640    1.9900 C   0  0  0  0  0  0  0  0  0  0  0  0
    0.0350  -12.5410    1.7710 C   0  0  0  0  0  0  0  0  0  0  0  0
   -0.1320  -13.6590    2.5500 N   0  0  0  0  0  0  0  0  0  0  0  0
    0.6540  -14.8540    2.4250 C   0  0  0  0  0  0  0  0  0  0  0  0
    0.8370  -15.4820    3.7820 C   0  0  0  0  0  0  0  0  0  0  0  0
    0.5780  -14.7550    4.9470 C   0  0  0  0  0  0  0  0  0  0  0  0
    0.7360  -15.3860    6.1710 C   0  0  0  0  0  0  0  0  0  0  0  0
    1.1230  -16.6710    6.3100 N   0  0  0  0  0  0  0  0  0  0  0  0
    1.3530  -17.3610    5.1730 C   0  0  0  0  0  0  0  0  0  0  0  0
    1.2240  -16.8210    3.9040 C   0  0  0  0  0  0  0  0  0  0  0  0
    0.9380  -12.5230    0.8170 N   0  0  0  0  0  0  0  0  0  0  0  0
    3.4140  -11.9700   -0.8050 C   0  0  0  0  0  0  0  0  0  0  0  0
    7.9950  -12.7390   -0.9900 C   0  0  0  0  0  0  0  0  0  0  0  0
    8.1280  -13.9030   -1.7580 C   0  0  0  0  0  0  0  0  0  0  0  0
    9.3440  -14.5870   -1.7810 C   0  0  0  0  0  0  0  0  0  0  0  0
   10.4320  -14.1090   -1.0460 C   0  0  0  0  0  0  0  0  0  0  0  0
   10.3180  -12.9380   -0.2800 C   0  0  0  0  0  0  0  0  0  0  0  0
   11.5030  -12.4000    0.4870 C   0  0  0  0  0  0  0  0  0  0  0  0
   12.0910  -11.3350   -0.1220 F   0  0  0  0  0  0  0  0  0  0  0  0
   12.4810  -13.3320    0.6480 F   0  0  0  0  0  0  0  0  0  0  0  0
   11.1770  -11.9770    1.7400 F   0  0  0  0  0  0  0  0  0  0  0  0
    9.0940  -12.2510   -0.2690 C   0  0  0  0  0  0  0  0  0  0  0  0
    5.8420  -13.4300   -2.0900 H   0  0  0  0  0  0  0  0  0  0  0  0
    4.7842  -11.5458   -3.8975 H   0  0  0  0  0  0  0  0  0  0  0  0
    2.5201  -10.6017   -4.3312 H   0  0  0  0  0  0  0  0  0  0  0  0
    0.8295  -10.5266   -2.5071 H   0  0  0  0  0  0  0  0  0  0  0  0
    0.4976   -9.3871   -0.4373 H   0  0  0  0  0  0  0  0  0  0  0  0
   -1.6428   -8.3094    1.2095 H   0  0  0  0  0  0  0  0  0  0  0  0
   -2.9929   -9.4255    3.2232 H   0  0  0  0  0  0  0  0  0  0  0  0
   -0.8420  -13.6100    3.2740 H   0  0  0  0  0  0  0  0  0  0  0  0
    0.1393  -15.5629    1.7598 H   0  0  0  0  0  0  0  0  0  0  0  0
    1.6381  -14.6018    2.0032 H   0  0  0  0  0  0  0  0  0  0  0  0
    0.2557  -13.7046    4.8938 H   0  0  0  0  0  0  0  0  0  0  0  0
    0.5339  -14.8048    7.0828 H   0  0  0  0  0  0  0  0  0  0  0  0
    1.6608  -18.4135    5.2592 H   0  0  0  0  0  0  0  0  0  0  0  0
    1.4217  -17.4320    3.0109 H   0  0  0  0  0  0  0  0  0  0  0  0
    3.6641  -12.3702    0.1886 H   0  0  0  0  0  0  0  0  0  0  0  0
    7.2746  -14.2775   -2.3424 H   0  0  0  0  0  0  0  0  0  0  0  0
    9.4463  -15.5045   -2.3791 H   0  0  0  0  0  0  0  0  0  0  0  0
   11.3866  -14.6552   -1.0678 H   0  0  0  0  0  0  0  0  0  0  0  0
    8.9961  -11.3212    0.3106 H   0  0  0  0  0  0  0  0  0  0  0  0
  1  2  2  0
  2  3  1  0
  3  4  1  0
  4  5  2  0
  5  6  1  0
  6  7  2  0
  7  8  1  0
  8  9  1  0
  9 10  2  0
 10 11  1  0
 11 12  1  0
 12 13  2  0
 13 14  1  0
 14 15  2  0
 15 16  1  0
 16 17  1  0
 17 18  1  0
 18 19  1  0
 19 20  2  0
 20 21  1  0
 21 22  2  0
 22 23  1  0
 23 24  2  0
 16 25  2  0
  8 26  2  0
  2 27  1  0
 27 28  2  0
 28 29  1  0
 29 30  2  0
 30 31  1  0
 31 32  1  0
 32 33  1  0
 32 34  1  0
 32 35  1  0
 31 36  2  0
 26  4  1  0
 36 27  1  0
 25  9  1  0
 15 11  1  0
 24 19  1  0
  3 37  1  0
  5 38  1  0
  6 39  1  0
  7 40  1  0
 10 41  1  0
 12 42  1  0
 13 43  1  0
 17 44  1  0
 18 45  1  0
 18 46  1  0
 20 47  1  0
 21 48  1  0
 23 49  1  0
 24 50  1  0
 26 51  1  0
 28 52  1  0
 29 53  1  0
 30 54  1  0
 36 55  1  0
M  END
>  <meeko>  (9) 
{"is_sidechain": [false], "free_energy": -8.577, "intermolecular_energy": -11.68, "internal_energy": -1.081}

$$$$
