LIB_YFXAKRSCLHWERK__M_PUB_ALL__e8__s20260927
     RDKit          3D

 57 61  0  0  0  0  0  0  0  0999 V2000
    4.0690  -13.6890   -5.5160 O   0  0  0  0  0  0  0  0  0  0  0  0
    4.8920  -12.7920   -5.3930 C   0  0  0  0  0  0  0  0  0  0  0  0
    4.8240  -11.7720   -4.4520 N   0  0  0  0  0  0  0  0  0  0  0  0
    3.8710  -11.6090   -3.4250 C   0  0  0  0  0  0  0  0  0  0  0  0
    2.7480  -10.7860   -3.5210 C   0  0  0  0  0  0  0  0  0  0  0  0
    1.8460  -10.6830   -2.4520 C   0  0  0  0  0  0  0  0  0  0  0  0
    2.0510  -11.3940   -1.2620 C   0  0  0  0  0  0  0  0  0  0  0  0
    1.1100  -11.3070   -0.1200 C   0  0  0  0  0  0  0  0  0  0  0  0
    0.3520  -10.2030    0.0430 C   0  0  0  0  0  0  0  0  0  0  0  0
   -0.5000  -10.1490    1.1240 N   0  0  0  0  0  0  0  0  0  0  0  0
   -1.3810   -9.1970    1.5590 C   0  0  0  0  0  0  0  0  0  0  0  0
   -1.9440   -9.7260    2.7030 C   0  0  0  0  0  0  0  0  0  0  0  0
   -1.4320  -10.9720    2.9800 N   0  0  0  0  0  0  0  0  0  0  0  0
   -0.5690  -11.1870    2.0090 C   0  0  0  0  0  0  0  0  0  0  0  0
    0.2750  -12.3520    1.8020 C   0  0  0  0  0  0  0  0  0  0  0  0
    0.2280  -13.4070    2.6770 N   0  0  0  0  0  0  0  0  0  0  0  0
    1.0030  -14.6080    2.5380 C   0  0  0  0  0  0  0  0  0  0  0  0
    1.0180  -15.3540    3.8470 C   0  0  0  0  0  0  0  0  0  0  0  0
    1.4270  -16.6900    3.9020 C   0  0  0  0  0  0  0  0  0  0  0  0
    1.4480  -17.3270    5.1340 C   0  0  0  0  0  0  0  0  0  0  0  0
    1.1030  -16.7300    6.2940 N   0  0  0  0  0  0  0  0  0  0  0  0
    0.7260  -15.4350    6.2210 C   0  0  0  0  0  0  0  0  0  0  0  0
    0.6720  -14.7130    5.0400 C   0  0  0  0  0  0  0  0  0  0  0  0
    1.0830  -12.3800    0.7660 N   0  0  0  0  0  0  0  0  0  0  0  0
    3.1700  -12.2310   -1.1800 C   0  0  0  0  0  0  0  0  0  0  0  0
    4.0700  -12.3360   -2.2470 C   0  0  0  0  0  0  0  0  0  0  0  0
    6.0300  -12.6500   -6.1770 N   0  0  0  0  0  0  0  0  0  0  0  0
    6.4210  -13.4320   -7.2840 C   0  0  0  0  0  0  0  0  0  0  0  0
    6.8710  -14.7310   -7.0180 C   0  0  0  0  0  0  0  0  0  0  0  0
    7.2770  -15.5740   -8.0550 C   0  0  0  0  0  0  0  0  0  0  0  0
    7.2400  -15.1240   -9.3720 C   0  0  0  0  0  0  0  0  0  0  0  0
    6.8040  -13.8240   -9.6630 C   0  0  0  0  0  0  0  0  0  0  0  0
    6.7460  -13.3240  -11.0850 C   0  0  0  0  0  0  0  0  0  0  0  0
    6.6620  -11.9680  -11.1690 F   0  0  0  0  0  0  0  0  0  0  0  0
    5.6720  -13.8130  -11.7650 F   0  0  0  0  0  0  0  0  0  0  0  0
    7.8390  -13.6710  -11.8210 F   0  0  0  0  0  0  0  0  0  0  0  0
    6.3920  -12.9880   -8.6080 C   0  0  0  0  0  0  0  0  0  0  0  0
    5.5050  -11.0350   -4.5350 H   0  0  0  0  0  0  0  0  0  0  0  0
    2.5688  -10.2133   -4.4429 H   0  0  0  0  0  0  0  0  0  0  0  0
    0.9634  -10.0337   -2.5493 H   0  0  0  0  0  0  0  0  0  0  0  0
    0.4128   -9.3670   -0.6694 H   0  0  0  0  0  0  0  0  0  0  0  0
   -1.5944   -8.2216    1.0973 H   0  0  0  0  0  0  0  0  0  0  0  0
   -2.7039   -9.2168    3.3140 H   0  0  0  0  0  0  0  0  0  0  0  0
   -0.4210  -13.3280    3.4550 H   0  0  0  0  0  0  0  0  0  0  0  0
    0.5564  -15.2438    1.7593 H   0  0  0  0  0  0  0  0  0  0  0  0
    2.0333  -14.3472    2.2543 H   0  0  0  0  0  0  0  0  0  0  0  0
    1.7256  -17.2243    2.9880 H   0  0  0  0  0  0  0  0  0  0  0  0
    1.7643  -18.3800    5.1674 H   0  0  0  0  0  0  0  0  0  0  0  0
    0.4455  -14.9239    7.1538 H   0  0  0  0  0  0  0  0  0  0  0  0
    0.3633  -13.6572    5.0410 H   0  0  0  0  0  0  0  0  0  0  0  0
    3.3446  -12.8145   -0.2640 H   0  0  0  0  0  0  0  0  0  0  0  0
    4.9439  -12.9980   -2.1579 H   0  0  0  0  0  0  0  0  0  0  0  0
    6.6790  -11.9310   -5.8980 H   0  0  0  0  0  0  0  0  0  0  0  0
    6.9052  -15.0920   -5.9795 H   0  0  0  0  0  0  0  0  0  0  0  0
    7.6258  -16.5930   -7.8313 H   0  0  0  0  0  0  0  0  0  0  0  0
    7.5543  -15.7916  -10.1878 H   0  0  0  0  0  0  0  0  0  0  0  0
    6.0417  -11.9691   -8.8298 H   0  0  0  0  0  0  0  0  0  0  0  0
  1  2  2  0
  2  3  1  0
  3  4  1  0
  4  5  2  0
  5  6  1  0
  6  7  2  0
  7  8  1  0
  8  9  2  0
  9 10  1  0
 10 11  1  0
 11 12  2  0
 12 13  1  0
 13 14  2  0
 14 15  1  0
 15 16  1  0
 16 17  1  0
 17 18  1  0
 18 19  2  0
 19 20  1  0
 20 21  2  0
 21 22  1  0
 22 23  2  0
 15 24  2  0
  7 25  1  0
 25 26  2  0
  2 27  1  0
 27 28  1  0
 28 29  2  0
 29 30  1  0
 30 31  2  0
 31 32  1  0
 32 33  1  0
 33 34  1  0
 33 35  1  0
 33 36  1  0
 32 37  2  0
 26  4  1  0
 37 28  1  0
 24  8  1  0
 14 10  1  0
 23 18  1  0
  3 38  1  0
  5 39  1  0
  6 40  1  0
  9 41  1  0
 11 42  1  0
 12 43  1  0
 16 44  1  0
 17 45  1  0
 17 46  1  0
 19 47  1  0
 20 48  1  0
 22 49  1  0
 23 50  1  0
 25 51  1  0
 26 52  1  0
 27 53  1  0
 29 54  1  0
 30 55  1  0
 31 56  1  0
 37 57  1  0
M  END
>  <meeko>  (1) 
{"is_sidechain": [false], "free_energy": -9.668, "intermolecular_energy": -13.059, "internal_energy": -0.906}

$$$$
LIB_YFXAKRSCLHWERK__M_PUB_ALL__e8__s20260927
     RDKit          3D

 57 61  0  0  0  0  0  0  0  0999 V2000
    4.1030  -13.7080   -5.4900 O   0  0  0  0  0  0  0  0  0  0  0  0
    4.9540  -12.8430   -5.3310 C   0  0  0  0  0  0  0  0  0  0  0  0
    4.9060  -11.8480   -4.3650 N   0  0  0  0  0  0  0  0  0  0  0  0
    3.9430  -11.6780   -3.3480 C   0  0  0  0  0  0  0  0  0  0  0  0
    2.7780  -10.9230   -3.4890 C   0  0  0  0  0  0  0  0  0  0  0  0
    1.8690  -10.8090   -2.4280 C   0  0  0  0  0  0  0  0  0  0  0  0
    2.1080  -11.4390   -1.2000 C   0  0  0  0  0  0  0  0  0  0  0  0
    1.1610  -11.3390   -0.0640 C   0  0  0  0  0  0  0  0  0  0  0  0
    0.4090  -10.2290    0.0870 C   0  0  0  0  0  0  0  0  0  0  0  0
   -0.4490  -10.1630    1.1620 N   0  0  0  0  0  0  0  0  0  0  0  0
   -1.3280   -9.2030    1.5850 C   0  0  0  0  0  0  0  0  0  0  0  0
   -1.9000   -9.7200    2.7290 C   0  0  0  0  0  0  0  0  0  0  0  0
   -1.3980  -10.9670    3.0180 N   0  0  0  0  0  0  0  0  0  0  0  0
   -0.5300  -11.1940    2.0540 C   0  0  0  0  0  0  0  0  0  0  0  0
    0.3080  -12.3650    1.8600 C   0  0  0  0  0  0  0  0  0  0  0  0
    0.2490  -13.4140    2.7420 N   0  0  0  0  0  0  0  0  0  0  0  0
    1.0180  -14.6200    2.6160 C   0  0  0  0  0  0  0  0  0  0  0  0
    0.4670  -15.4550    1.4890 C   0  0  0  0  0  0  0  0  0  0  0  0
    1.3070  -15.9420    0.4830 C   0  0  0  0  0  0  0  0  0  0  0  0
    0.7570  -16.7270   -0.5180 C   0  0  0  0  0  0  0  0  0  0  0  0
   -0.5490  -17.0610   -0.5790 N   0  0  0  0  0  0  0  0  0  0  0  0
   -1.3410  -16.5950    0.4110 C   0  0  0  0  0  0  0  0  0  0  0  0
   -0.8870  -15.8040    1.4540 C   0  0  0  0  0  0  0  0  0  0  0  0
    1.1220  -12.4060    0.8290 N   0  0  0  0  0  0  0  0  0  0  0  0
    3.2700  -12.2090   -1.0710 C   0  0  0  0  0  0  0  0  0  0  0  0
    4.1780  -12.3260   -2.1310 C   0  0  0  0  0  0  0  0  0  0  0  0
    6.1090  -12.7210   -6.0930 N   0  0  0  0  0  0  0  0  0  0  0  0
    6.4900  -13.4870   -7.2150 C   0  0  0  0  0  0  0  0  0  0  0  0
    6.9770  -14.7770   -6.9690 C   0  0  0  0  0  0  0  0  0  0  0  0
    7.3760  -15.6040   -8.0210 C   0  0  0  0  0  0  0  0  0  0  0  0
    7.2960  -15.1470   -9.3340 C   0  0  0  0  0  0  0  0  0  0  0  0
    6.8240  -13.8560   -9.6050 C   0  0  0  0  0  0  0  0  0  0  0  0
    6.7190  -13.3490  -11.0220 C   0  0  0  0  0  0  0  0  0  0  0  0
    7.7370  -13.7780  -11.8180 F   0  0  0  0  0  0  0  0  0  0  0  0
    6.7340  -11.9890  -11.0910 F   0  0  0  0  0  0  0  0  0  0  0  0
    5.5730  -13.7380  -11.6490 F   0  0  0  0  0  0  0  0  0  0  0  0
    6.4190  -13.0360   -8.5350 C   0  0  0  0  0  0  0  0  0  0  0  0
    5.6130  -11.1330   -4.4180 H   0  0  0  0  0  0  0  0  0  0  0  0
    2.5711  -10.4127   -4.4413 H   0  0  0  0  0  0  0  0  0  0  0  0
    0.9529  -10.2150   -2.5620 H   0  0  0  0  0  0  0  0  0  0  0  0
    0.4795   -9.3980   -0.6303 H   0  0  0  0  0  0  0  0  0  0  0  0
   -1.5338   -8.2301    1.1147 H   0  0  0  0  0  0  0  0  0  0  0  0
   -2.6598   -9.2014    3.3322 H   0  0  0  0  0  0  0  0  0  0  0  0
   -0.4040  -13.3260    3.5150 H   0  0  0  0  0  0  0  0  0  0  0  0
    2.0668  -14.3650    2.4039 H   0  0  0  0  0  0  0  0  0  0  0  0
    0.9605  -15.1899    3.5551 H   0  0  0  0  0  0  0  0  0  0  0  0
    2.3816  -15.7071    0.4860 H   0  0  0  0  0  0  0  0  0  0  0  0
    1.4242  -17.0996   -1.3092 H   0  0  0  0  0  0  0  0  0  0  0  0
   -2.4086  -16.8589    0.3878 H   0  0  0  0  0  0  0  0  0  0  0  0
   -1.5767  -15.4578    2.2379 H   0  0  0  0  0  0  0  0  0  0  0  0
    3.4729  -12.7297   -0.1235 H   0  0  0  0  0  0  0  0  0  0  0  0
    5.0859  -12.9342   -2.0050 H   0  0  0  0  0  0  0  0  0  0  0  0
    6.7770  -12.0330   -5.7860 H   0  0  0  0  0  0  0  0  0  0  0  0
    7.0460  -15.1432   -5.9341 H   0  0  0  0  0  0  0  0  0  0  0  0
    7.7533  -16.6160   -7.8127 H   0  0  0  0  0  0  0  0  0  0  0  0
    7.6047  -15.8023  -10.1618 H   0  0  0  0  0  0  0  0  0  0  0  0
    6.0406  -12.0240   -8.7417 H   0  0  0  0  0  0  0  0  0  0  0  0
  1  2  2  0
  2  3  1  0
  3  4  1  0
  4  5  2  0
  5  6  1  0
  6  7  2  0
  7  8  1  0
  8  9  2  0
  9 10  1  0
 10 11  1  0
 11 12  2  0
 12 13  1  0
 13 14  2  0
 14 15  1  0
 15 16  1  0
 16 17  1  0
 17 18  1  0
 18 19  2  0
 19 20  1  0
 20 21  2  0
 21 22  1  0
 22 23  2  0
 15 24  2  0
  7 25  1  0
 25 26  2  0
  2 27  1  0
 27 28  1  0
 28 29  2  0
 29 30  1  0
 30 31  2  0
 31 32  1  0
 32 33  1  0
 33 34  1  0
 33 35  1  0
 33 36  1  0
 32 37  2  0
 26  4  1  0
 37 28  1  0
 24  8  1  0
 14 10  1  0
 23 18  1  0
  3 38  1  0
  5 39  1  0
  6 40  1  0
  9 41  1  0
 11 42  1  0
 12 43  1  0
 16 44  1  0
 17 45  1  0
 17 46  1  0
 19 47  1  0
 20 48  1  0
 22 49  1  0
 23 50  1  0
 25 51  1  0
 26 52  1  0
 27 53  1  0
 29 54  1  0
 30 55  1  0
 31 56  1  0
 37 57  1  0
M  END
>  <meeko>  (2) 
{"is_sidechain": [false], "free_energy": -9.21, "intermolecular_energy": -12.345, "internal_energy": -1.001}

$$$$
LIB_YFXAKRSCLHWERK__M_PUB_ALL__e8__s20260927
     RDKit          3D

 57 61  0  0  0  0  0  0  0  0999 V2000
    3.9750  -13.4230   -5.6110 O   0  0  0  0  0  0  0  0  0  0  0  0
    4.8790  -12.6390   -5.3550 C   0  0  0  0  0  0  0  0  0  0  0  0
    4.8700  -11.7310   -4.3040 N   0  0  0  0  0  0  0  0  0  0  0  0
    3.8910  -11.5840   -3.2990 C   0  0  0  0  0  0  0  0  0  0  0  0
    2.7820  -10.7440   -3.4020 C   0  0  0  0  0  0  0  0  0  0  0  0
    1.8520  -10.6590   -2.3560 C   0  0  0  0  0  0  0  0  0  0  0  0
    2.0150  -11.4060   -1.1820 C   0  0  0  0  0  0  0  0  0  0  0  0
    1.0430  -11.3390   -0.0640 C   0  0  0  0  0  0  0  0  0  0  0  0
    0.3100  -10.2220    0.1220 C   0  0  0  0  0  0  0  0  0  0  0  0
   -0.5720  -10.1880    1.1800 N   0  0  0  0  0  0  0  0  0  0  0  0
   -1.4400   -9.2310    1.6290 C   0  0  0  0  0  0  0  0  0  0  0  0
   -2.0490   -9.7900    2.7340 C   0  0  0  0  0  0  0  0  0  0  0  0
   -1.5780  -11.0590    2.9750 N   0  0  0  0  0  0  0  0  0  0  0  0
   -0.6930  -11.2580    2.0200 C   0  0  0  0  0  0  0  0  0  0  0  0
    0.1260  -12.4360    1.7900 C   0  0  0  0  0  0  0  0  0  0  0  0
    0.0260  -13.5240    2.6210 N   0  0  0  0  0  0  0  0  0  0  0  0
    0.7740  -14.7380    2.4550 C   0  0  0  0  0  0  0  0  0  0  0  0
   -0.1700  -15.9120    2.4150 C   0  0  0  0  0  0  0  0  0  0  0  0
   -0.7750  -16.3010    1.2160 C   0  0  0  0  0  0  0  0  0  0  0  0
   -1.6160  -17.4030    1.2260 C   0  0  0  0  0  0  0  0  0  0  0  0
   -1.8840  -18.1350    2.3270 N   0  0  0  0  0  0  0  0  0  0  0  0
   -1.2780  -17.7520    3.4720 C   0  0  0  0  0  0  0  0  0  0  0  0
   -0.4220  -16.6660    3.5650 C   0  0  0  0  0  0  0  0  0  0  0  0
    0.9630  -12.4460    0.7770 N   0  0  0  0  0  0  0  0  0  0  0  0
    3.1200  -12.2600   -1.0930 C   0  0  0  0  0  0  0  0  0  0  0  0
    4.0480  -12.3470   -2.1380 C   0  0  0  0  0  0  0  0  0  0  0  0
    6.0610  -12.5310   -6.0760 N   0  0  0  0  0  0  0  0  0  0  0  0
    6.4220  -13.2200   -7.2530 C   0  0  0  0  0  0  0  0  0  0  0  0
    6.3410  -12.5100   -8.4570 C   0  0  0  0  0  0  0  0  0  0  0  0
    6.6800  -13.1150   -9.6690 C   0  0  0  0  0  0  0  0  0  0  0  0
    7.1010  -14.4420   -9.6910 C   0  0  0  0  0  0  0  0  0  0  0  0
    7.1800  -15.1770   -8.5000 C   0  0  0  0  0  0  0  0  0  0  0  0
    7.6460  -16.6120   -8.5030 C   0  0  0  0  0  0  0  0  0  0  0  0
    6.7240  -17.4730   -7.9910 F   0  0  0  0  0  0  0  0  0  0  0  0
    8.7800  -16.7930   -7.7710 F   0  0  0  0  0  0  0  0  0  0  0  0
    7.9330  -17.0810   -9.7510 F   0  0  0  0  0  0  0  0  0  0  0  0
    6.8410  -14.5520   -7.2860 C   0  0  0  0  0  0  0  0  0  0  0  0
    5.6260  -11.0660   -4.2760 H   0  0  0  0  0  0  0  0  0  0  0  0
    2.6358  -10.1431   -4.3117 H   0  0  0  0  0  0  0  0  0  0  0  0
    0.9808   -9.9954   -2.4588 H   0  0  0  0  0  0  0  0  0  0  0  0
    0.4138   -9.3603   -0.5537 H   0  0  0  0  0  0  0  0  0  0  0  0
   -1.6147   -8.2324    1.2020 H   0  0  0  0  0  0  0  0  0  0  0  0
   -2.8130   -9.2852    3.3436 H   0  0  0  0  0  0  0  0  0  0  0  0
   -0.6430  -13.4580    3.3830 H   0  0  0  0  0  0  0  0  0  0  0  0
    1.3416  -14.6925    1.5139 H   0  0  0  0  0  0  0  0  0  0  0  0
    1.4693  -14.8570    3.2990 H   0  0  0  0  0  0  0  0  0  0  0  0
   -0.5878  -15.7450    0.2855 H   0  0  0  0  0  0  0  0  0  0  0  0
   -2.0932  -17.6981    0.2799 H   0  0  0  0  0  0  0  0  0  0  0  0
   -1.4754  -18.3358    4.3832 H   0  0  0  0  0  0  0  0  0  0  0  0
    0.0492  -16.4028    4.5235 H   0  0  0  0  0  0  0  0  0  0  0  0
    3.2616  -12.8714   -0.1896 H   0  0  0  0  0  0  0  0  0  0  0  0
    4.9104  -13.0234   -2.0444 H   0  0  0  0  0  0  0  0  0  0  0  0
    6.7660  -11.9220   -5.6930 H   0  0  0  0  0  0  0  0  0  0  0  0
    6.0061  -11.4623   -8.4481 H   0  0  0  0  0  0  0  0  0  0  0  0
    6.6144  -12.5432  -10.6064 H   0  0  0  0  0  0  0  0  0  0  0  0
    7.3725  -14.9152  -10.6462 H   0  0  0  0  0  0  0  0  0  0  0  0
    6.9070  -15.1217   -6.3474 H   0  0  0  0  0  0  0  0  0  0  0  0
  1  2  2  0
  2  3  1  0
  3  4  1  0
  4  5  2  0
  5  6  1  0
  6  7  2  0
  7  8  1  0
  8  9  2  0
  9 10  1  0
 10 11  1  0
 11 12  2  0
 12 13  1  0
 13 14  2  0
 14 15  1  0
 15 16  1  0
 16 17  1  0
 17 18  1  0
 18 19  2  0
 19 20  1  0
 20 21  2  0
 21 22  1  0
 22 23  2  0
 15 24  2  0
  7 25  1  0
 25 26  2  0
  2 27  1  0
 27 28  1  0
 28 29  2  0
 29 30  1  0
 30 31  2  0
 31 32  1  0
 32 33  1  0
 33 34  1  0
 33 35  1  0
 33 36  1  0
 32 37  2  0
 26  4  1  0
 37 28  1  0
 24  8  1  0
 14 10  1  0
 23 18  1  0
  3 38  1  0
  5 39  1  0
  6 40  1  0
  9 41  1  0
 11 42  1  0
 12 43  1  0
 16 44  1  0
 17 45  1  0
 17 46  1  0
 19 47  1  0
 20 48  1  0
 22 49  1  0
 23 50  1  0
 25 51  1  0
 26 52  1  0
 27 53  1  0
 29 54  1  0
 30 55  1  0
 31 56  1  0
 37 57  1  0
M  END
>  <meeko>  (3) 
{"is_sidechain": [false], "free_energy": -9.027, "intermolecular_energy": -12.091, "internal_energy": -1.009}

$$$$
LIB_YFXAKRSCLHWERK__M_PUB_ALL__e8__s20260927
     RDKit          3D

 57 61  0  0  0  0  0  0  0  0999 V2000
    1.9470  -11.6830   -1.0910 O   0  0  0  0  0  0  0  0  0  0  0  0
    2.1810  -11.9240    0.0850 C   0  0  0  0  0  0  0  0  0  0  0  0
    3.3500  -12.5010    0.5620 N   0  0  0  0  0  0  0  0  0  0  0  0
    4.5050  -12.8430   -0.1720 C   0  0  0  0  0  0  0  0  0  0  0  0
    4.6400  -14.0120   -0.9210 C   0  0  0  0  0  0  0  0  0  0  0  0
    5.8230  -14.2750   -1.6270 C   0  0  0  0  0  0  0  0  0  0  0  0
    6.9000  -13.3780   -1.5920 C   0  0  0  0  0  0  0  0  0  0  0  0
    8.1590  -13.6290   -2.3330 C   0  0  0  0  0  0  0  0  0  0  0  0
    8.1270  -13.8050   -3.6700 C   0  0  0  0  0  0  0  0  0  0  0  0
    9.3140  -14.0520   -4.3250 N   0  0  0  0  0  0  0  0  0  0  0  0
    9.6150  -14.2670   -5.6420 C   0  0  0  0  0  0  0  0  0  0  0  0
   10.9810  -14.4560   -5.6710 C   0  0  0  0  0  0  0  0  0  0  0  0
   11.5240  -14.3640   -4.4110 N   0  0  0  0  0  0  0  0  0  0  0  0
   10.4890  -14.1220   -3.6330 C   0  0  0  0  0  0  0  0  0  0  0  0
   10.4750  -13.9390   -2.1920 C   0  0  0  0  0  0  0  0  0  0  0  0
   11.6420  -14.0070   -1.4720 N   0  0  0  0  0  0  0  0  0  0  0  0
   11.7270  -13.8130   -0.0520 C   0  0  0  0  0  0  0  0  0  0  0  0
   11.9070  -12.3470    0.2470 C   0  0  0  0  0  0  0  0  0  0  0  0
   11.0000  -11.6690    1.0670 C   0  0  0  0  0  0  0  0  0  0  0  0
   11.2220  -10.3270    1.3340 C   0  0  0  0  0  0  0  0  0  0  0  0
   12.2730   -9.6290    0.8540 N   0  0  0  0  0  0  0  0  0  0  0  0
   13.1460  -10.3060    0.0770 C   0  0  0  0  0  0  0  0  0  0  0  0
   13.0120  -11.6460   -0.2470 C   0  0  0  0  0  0  0  0  0  0  0  0
    9.3320  -13.7080   -1.5870 N   0  0  0  0  0  0  0  0  0  0  0  0
    6.7500  -12.1990   -0.8530 C   0  0  0  0  0  0  0  0  0  0  0  0
    5.5690  -11.9350   -0.1490 C   0  0  0  0  0  0  0  0  0  0  0  0
    1.3110  -11.6560    1.1350 N   0  0  0  0  0  0  0  0  0  0  0  0
   -0.0020  -11.1440    1.0620 C   0  0  0  0  0  0  0  0  0  0  0  0
   -0.1960   -9.8280    1.4980 C   0  0  0  0  0  0  0  0  0  0  0  0
   -1.4630   -9.2410    1.4600 C   0  0  0  0  0  0  0  0  0  0  0  0
   -2.5520   -9.9680    0.9880 C   0  0  0  0  0  0  0  0  0  0  0  0
   -2.3850  -11.2910    0.5570 C   0  0  0  0  0  0  0  0  0  0  0  0
   -3.5520  -12.0900    0.0310 C   0  0  0  0  0  0  0  0  0  0  0  0
   -4.1600  -11.5040   -1.0370 F   0  0  0  0  0  0  0  0  0  0  0  0
   -4.5240  -12.2700    0.9670 F   0  0  0  0  0  0  0  0  0  0  0  0
   -3.2030  -13.3400   -0.3850 F   0  0  0  0  0  0  0  0  0  0  0  0
   -1.1020  -11.8670    0.5950 C   0  0  0  0  0  0  0  0  0  0  0  0
    3.3650  -12.7490    1.5380 H   0  0  0  0  0  0  0  0  0  0  0  0
    3.8111  -14.7342   -0.9583 H   0  0  0  0  0  0  0  0  0  0  0  0
    5.9072  -15.1994   -2.2173 H   0  0  0  0  0  0  0  0  0  0  0  0
    7.1777  -13.7527   -4.2233 H   0  0  0  0  0  0  0  0  0  0  0  0
    8.9186  -14.2852   -6.4933 H   0  0  0  0  0  0  0  0  0  0  0  0
   11.5611  -14.6547   -6.5842 H   0  0  0  0  0  0  0  0  0  0  0  0
   12.4940  -14.1820   -1.9970 H   0  0  0  0  0  0  0  0  0  0  0  0
   10.8023  -14.1728    0.4228 H   0  0  0  0  0  0  0  0  0  0  0  0
   12.5860  -14.3750    0.3432 H   0  0  0  0  0  0  0  0  0  0  0  0
   10.1287  -12.1895    1.4913 H   0  0  0  0  0  0  0  0  0  0  0  0
   10.4995   -9.8000    1.9745 H   0  0  0  0  0  0  0  0  0  0  0  0
   14.0144   -9.7612   -0.3219 H   0  0  0  0  0  0  0  0  0  0  0  0
   13.7588  -12.1483   -0.8794 H   0  0  0  0  0  0  0  0  0  0  0  0
    7.5723  -11.4689   -0.8249 H   0  0  0  0  0  0  0  0  0  0  0  0
    5.4767  -11.0034    0.4286 H   0  0  0  0  0  0  0  0  0  0  0  0
    1.6720  -11.8030    2.0640 H   0  0  0  0  0  0  0  0  0  0  0  0
    0.6598   -9.2490    1.8752 H   0  0  0  0  0  0  0  0  0  0  0  0
   -1.6000   -8.2048    1.8029 H   0  0  0  0  0  0  0  0  0  0  0  0
   -3.5479   -9.5022    0.9531 H   0  0  0  0  0  0  0  0  0  0  0  0
   -0.9630  -12.9027    0.2516 H   0  0  0  0  0  0  0  0  0  0  0  0
  1  2  2  0
  2  3  1  0
  3  4  1  0
  4  5  2  0
  5  6  1  0
  6  7  2  0
  7  8  1  0
  8  9  2  0
  9 10  1  0
 10 11  1  0
 11 12  2  0
 12 13  1  0
 13 14  2  0
 14 15  1  0
 15 16  1  0
 16 17  1  0
 17 18  1  0
 18 19  2  0
 19 20  1  0
 20 21  2  0
 21 22  1  0
 22 23  2  0
 15 24  2  0
  7 25  1  0
 25 26  2  0
  2 27  1  0
 27 28  1  0
 28 29  2  0
 29 30  1  0
 30 31  2  0
 31 32  1  0
 32 33  1  0
 33 34  1  0
 33 35  1  0
 33 36  1  0
 32 37  2  0
 26  4  1  0
 37 28  1  0
 24  8  1  0
 14 10  1  0
 23 18  1  0
  3 38  1  0
  5 39  1  0
  6 40  1  0
  9 41  1  0
 11 42  1  0
 12 43  1  0
 16 44  1  0
 17 45  1  0
 17 46  1  0
 19 47  1  0
 20 48  1  0
 22 49  1  0
 23 50  1  0
 25 51  1  0
 26 52  1  0
 27 53  1  0
 29 54  1  0
 30 55  1  0
 31 56  1  0
 37 57  1  0
M  END
>  <meeko>  (4) 
{"is_sidechain": [false], "free_energy": -8.997, "intermolecular_energy": -11.951, "internal_energy": -1.108}

$$$$
LIB_YFXAKRSCLHWERK__M_PUB_ALL__e8__s20260927
     RDKit          3D

 57 61  0  0  0  0  0  0  0  0999 V2000
    7.4910  -11.4600   -1.0130 O   0  0  0  0  0  0  0  0  0  0  0  0
    7.3840  -12.5090   -1.6350 C   0  0  0  0  0  0  0  0  0  0  0  0
    6.2040  -13.2200   -1.7980 N   0  0  0  0  0  0  0  0  0  0  0  0
    4.9100  -12.8560   -1.3670 C   0  0  0  0  0  0  0  0  0  0  0  0
    4.0210  -12.0880   -2.1170 C   0  0  0  0  0  0  0  0  0  0  0  0
    2.7500  -11.7740   -1.6150 C   0  0  0  0  0  0  0  0  0  0  0  0
    2.3430  -12.2150   -0.3490 C   0  0  0  0  0  0  0  0  0  0  0  0
    1.0040  -11.9020    0.2020 C   0  0  0  0  0  0  0  0  0  0  0  0
    0.8050  -10.7470    0.8700 C   0  0  0  0  0  0  0  0  0  0  0  0
   -0.4480  -10.4950    1.3820 N   0  0  0  0  0  0  0  0  0  0  0  0
   -0.9640   -9.4430    2.0880 C   0  0  0  0  0  0  0  0  0  0  0  0
   -2.2830   -9.7760    2.3160 C   0  0  0  0  0  0  0  0  0  0  0  0
   -2.5900  -11.0010    1.7710 N   0  0  0  0  0  0  0  0  0  0  0  0
   -1.4610  -11.3980    1.2210 C   0  0  0  0  0  0  0  0  0  0  0  0
   -1.1990  -12.6350    0.5060 C   0  0  0  0  0  0  0  0  0  0  0  0
   -2.1980  -13.5610    0.3330 N   0  0  0  0  0  0  0  0  0  0  0  0
   -2.0390  -14.7960   -0.3820 C   0  0  0  0  0  0  0  0  0  0  0  0
   -1.7700  -15.9130    0.5930 C   0  0  0  0  0  0  0  0  0  0  0  0
   -0.4960  -16.4810    0.6940 C   0  0  0  0  0  0  0  0  0  0  0  0
   -0.2920  -17.4890    1.6240 C   0  0  0  0  0  0  0  0  0  0  0  0
   -1.2510  -17.9540    2.4520 N   0  0  0  0  0  0  0  0  0  0  0  0
   -2.4700  -17.3810    2.3500 C   0  0  0  0  0  0  0  0  0  0  0  0
   -2.7730  -16.3690    1.4530 C   0  0  0  0  0  0  0  0  0  0  0  0
    0.0050  -12.8560    0.0280 N   0  0  0  0  0  0  0  0  0  0  0  0
    3.2340  -13.0010    0.3910 C   0  0  0  0  0  0  0  0  0  0  0  0
    4.5030  -13.3160   -0.1100 C   0  0  0  0  0  0  0  0  0  0  0  0
    8.4310  -13.1560   -2.2800 N   0  0  0  0  0  0  0  0  0  0  0  0
    9.7960  -12.7970   -2.2890 C   0  0  0  0  0  0  0  0  0  0  0  0
   10.4470  -12.8040   -3.5290 C   0  0  0  0  0  0  0  0  0  0  0  0
   11.7980  -12.4620   -3.6280 C   0  0  0  0  0  0  0  0  0  0  0  0
   12.5130  -12.1120   -2.4870 C   0  0  0  0  0  0  0  0  0  0  0  0
   11.8860  -12.1090   -1.2330 C   0  0  0  0  0  0  0  0  0  0  0  0
   12.6430  -11.7210    0.0130 C   0  0  0  0  0  0  0  0  0  0  0  0
   13.0920  -12.7960    0.7190 F   0  0  0  0  0  0  0  0  0  0  0  0
   11.8850  -10.9910    0.8760 F   0  0  0  0  0  0  0  0  0  0  0  0
   13.7470  -10.9630   -0.2430 F   0  0  0  0  0  0  0  0  0  0  0  0
   10.5230  -12.4500   -1.1490 C   0  0  0  0  0  0  0  0  0  0  0  0
    6.2780  -14.1250   -2.2340 H   0  0  0  0  0  0  0  0  0  0  0  0
    4.3192  -11.7250   -3.1116 H   0  0  0  0  0  0  0  0  0  0  0  0
    2.0611  -11.1715   -2.2252 H   0  0  0  0  0  0  0  0  0  0  0  0
    1.6237  -10.0243    1.0024 H   0  0  0  0  0  0  0  0  0  0  0  0
   -0.4403   -8.5292    2.4053 H   0  0  0  0  0  0  0  0  0  0  0  0
   -2.9974   -9.1434    2.8632 H   0  0  0  0  0  0  0  0  0  0  0  0
   -3.1080  -13.3290    0.7200 H   0  0  0  0  0  0  0  0  0  0  0  0
   -2.9587  -15.0145   -0.9445 H   0  0  0  0  0  0  0  0  0  0  0  0
   -1.1931  -14.7082   -1.0796 H   0  0  0  0  0  0  0  0  0  0  0  0
    0.3261  -16.1357    0.0498 H   0  0  0  0  0  0  0  0  0  0  0  0
    0.7108  -17.9361    1.6909 H   0  0  0  0  0  0  0  0  0  0  0  0
   -3.2681  -17.7382    3.0174 H   0  0  0  0  0  0  0  0  0  0  0  0
   -3.7825  -15.9334    1.4185 H   0  0  0  0  0  0  0  0  0  0  0  0
    2.9330  -13.3765    1.3801 H   0  0  0  0  0  0  0  0  0  0  0  0
    5.1876  -13.9321    0.4915 H   0  0  0  0  0  0  0  0  0  0  0  0
    8.1840  -13.9510   -2.8460 H   0  0  0  0  0  0  0  0  0  0  0  0
    9.8885  -13.0818   -4.4350 H   0  0  0  0  0  0  0  0  0  0  0  0
   12.2966  -12.4695   -4.6085 H   0  0  0  0  0  0  0  0  0  0  0  0
   13.5748  -11.8365   -2.5691 H   0  0  0  0  0  0  0  0  0  0  0  0
   10.0227  -12.4429   -0.1694 H   0  0  0  0  0  0  0  0  0  0  0  0
  1  2  2  0
  2  3  1  0
  3  4  1  0
  4  5  2  0
  5  6  1  0
  6  7  2  0
  7  8  1  0
  8  9  2  0
  9 10  1  0
 10 11  1  0
 11 12  2  0
 12 13  1  0
 13 14  2  0
 14 15  1  0
 15 16  1  0
 16 17  1  0
 17 18  1  0
 18 19  2  0
 19 20  1  0
 20 21  2  0
 21 22  1  0
 22 23  2  0
 15 24  2  0
  7 25  1  0
 25 26  2  0
  2 27  1  0
 27 28  1  0
 28 29  2  0
 29 30  1  0
 30 31  2  0
 31 32  1  0
 32 33  1  0
 33 34  1  0
 33 35  1  0
 33 36  1  0
 32 37  2  0
 26  4  1  0
 37 28  1  0
 24  8  1  0
 14 10  1  0
 23 18  1  0
  3 38  1  0
  5 39  1  0
  6 40  1  0
  9 41  1  0
 11 42  1  0
 12 43  1  0
 16 44  1  0
 17 45  1  0
 17 46  1  0
 19 47  1  0
 20 48  1  0
 22 49  1  0
 23 50  1  0
 25 51  1  0
 26 52  1  0
 27 53  1  0
 29 54  1  0
 30 55  1  0
 31 56  1  0
 37 57  1  0
M  END
>  <meeko>  (5) 
{"is_sidechain": [false], "free_energy": -8.921, "intermolecular_energy": -12.001, "internal_energy": -0.956}

$$$$
LIB_YFXAKRSCLHWERK__M_PUB_ALL__e8__s20260927
     RDKit          3D

 57 61  0  0  0  0  0  0  0  0999 V2000
   -7.9840  -16.6100    4.8930 O   0  0  0  0  0  0  0  0  0  0  0  0
   -7.3650  -17.0970    5.8300 C   0  0  0  0  0  0  0  0  0  0  0  0
   -5.9920  -17.3010    5.8560 N   0  0  0  0  0  0  0  0  0  0  0  0
   -5.0450  -16.9280    4.8790 C   0  0  0  0  0  0  0  0  0  0  0  0
   -4.7540  -15.6090    4.5330 C   0  0  0  0  0  0  0  0  0  0  0  0
   -3.7940  -15.3240    3.5510 C   0  0  0  0  0  0  0  0  0  0  0  0
   -3.1100  -16.3520    2.8890 C   0  0  0  0  0  0  0  0  0  0  0  0
   -2.0860  -16.0780    1.8530 C   0  0  0  0  0  0  0  0  0  0  0  0
   -1.1730  -17.0210    1.5450 C   0  0  0  0  0  0  0  0  0  0  0  0
   -0.2270  -16.7270    0.5880 N   0  0  0  0  0  0  0  0  0  0  0  0
    0.8090  -17.4490    0.0600 C   0  0  0  0  0  0  0  0  0  0  0  0
    1.3980  -16.6080   -0.8620 C   0  0  0  0  0  0  0  0  0  0  0  0
    0.7540  -15.3940   -0.9130 N   0  0  0  0  0  0  0  0  0  0  0  0
   -0.2140  -15.5070   -0.0270 C   0  0  0  0  0  0  0  0  0  0  0  0
   -1.2080  -14.5160    0.3450 C   0  0  0  0  0  0  0  0  0  0  0  0
   -1.2160  -13.2820   -0.2550 N   0  0  0  0  0  0  0  0  0  0  0  0
   -2.1750  -12.2520    0.0290 C   0  0  0  0  0  0  0  0  0  0  0  0
   -1.4720  -11.0530    0.6110 C   0  0  0  0  0  0  0  0  0  0  0  0
   -0.1970  -10.6880    0.1680 C   0  0  0  0  0  0  0  0  0  0  0  0
    0.3990   -9.5620    0.7150 C   0  0  0  0  0  0  0  0  0  0  0  0
   -0.1830   -8.7840    1.6520 N   0  0  0  0  0  0  0  0  0  0  0  0
   -1.4210   -9.1440    2.0550 C   0  0  0  0  0  0  0  0  0  0  0  0
   -2.0990  -10.2500    1.5690 C   0  0  0  0  0  0  0  0  0  0  0  0
   -2.1000  -14.8170    1.2630 N   0  0  0  0  0  0  0  0  0  0  0  0
   -3.3940  -17.6730    3.2550 C   0  0  0  0  0  0  0  0  0  0  0  0
   -4.3510  -17.9580    4.2360 C   0  0  0  0  0  0  0  0  0  0  0  0
   -7.9400  -17.5250    7.0200 N   0  0  0  0  0  0  0  0  0  0  0  0
   -9.3100  -17.5590    7.3560 C   0  0  0  0  0  0  0  0  0  0  0  0
  -10.0290  -18.7000    6.9810 C   0  0  0  0  0  0  0  0  0  0  0  0
  -11.3900  -18.8170    7.2740 C   0  0  0  0  0  0  0  0  0  0  0  0
  -12.0470  -17.7890    7.9440 C   0  0  0  0  0  0  0  0  0  0  0  0
  -11.3520  -16.6310    8.3190 C   0  0  0  0  0  0  0  0  0  0  0  0
  -12.0460  -15.5130    9.0560 C   0  0  0  0  0  0  0  0  0  0  0  0
  -13.2210  -15.1420    8.4770 F   0  0  0  0  0  0  0  0  0  0  0  0
  -11.2870  -14.3850    9.1260 F   0  0  0  0  0  0  0  0  0  0  0  0
  -12.3550  -15.8300   10.3460 F   0  0  0  0  0  0  0  0  0  0  0  0
   -9.9800  -16.5310    8.0230 C   0  0  0  0  0  0  0  0  0  0  0  0
   -5.6270  -17.8160    6.6410 H   0  0  0  0  0  0  0  0  0  0  0  0
   -5.2820  -14.7847    5.0346 H   0  0  0  0  0  0  0  0  0  0  0  0
   -3.5746  -14.2766    3.2965 H   0  0  0  0  0  0  0  0  0  0  0  0
   -1.1833  -18.0005    2.0454 H   0  0  0  0  0  0  0  0  0  0  0  0
    1.1073  -18.4766    0.3152 H   0  0  0  0  0  0  0  0  0  0  0  0
    2.2703  -16.8744   -1.4769 H   0  0  0  0  0  0  0  0  0  0  0  0
   -0.5050  -13.1120   -0.9610 H   0  0  0  0  0  0  0  0  0  0  0  0
   -2.6859  -11.9612   -0.9007 H   0  0  0  0  0  0  0  0  0  0  0  0
   -2.9129  -12.6294    0.7523 H   0  0  0  0  0  0  0  0  0  0  0  0
    0.3224  -11.2818   -0.5985 H   0  0  0  0  0  0  0  0  0  0  0  0
    1.4048   -9.2866    0.3650 H   0  0  0  0  0  0  0  0  0  0  0  0
   -1.9199   -8.5227    2.8133 H   0  0  0  0  0  0  0  0  0  0  0  0
   -3.1099  -10.4916    1.9293 H   0  0  0  0  0  0  0  0  0  0  0  0
   -2.8575  -18.4988    2.7648 H   0  0  0  0  0  0  0  0  0  0  0  0
   -4.5596  -19.0042    4.5043 H   0  0  0  0  0  0  0  0  0  0  0  0
   -7.3040  -17.8050    7.7490 H   0  0  0  0  0  0  0  0  0  0  0  0
   -9.5160  -19.5147    6.4490 H   0  0  0  0  0  0  0  0  0  0  0  0
  -11.9418  -19.7206    6.9755 H   0  0  0  0  0  0  0  0  0  0  0  0
  -13.1169  -17.8858    8.1804 H   0  0  0  0  0  0  0  0  0  0  0  0
   -9.4263  -15.6287    8.3217 H   0  0  0  0  0  0  0  0  0  0  0  0
  1  2  2  0
  2  3  1  0
  3  4  1  0
  4  5  2  0
  5  6  1  0
  6  7  2  0
  7  8  1  0
  8  9  2  0
  9 10  1  0
 10 11  1  0
 11 12  2  0
 12 13  1  0
 13 14  2  0
 14 15  1  0
 15 16  1  0
 16 17  1  0
 17 18  1  0
 18 19  2  0
 19 20  1  0
 20 21  2  0
 21 22  1  0
 22 23  2  0
 15 24  2  0
  7 25  1  0
 25 26  2  0
  2 27  1  0
 27 28  1  0
 28 29  2  0
 29 30  1  0
 30 31  2  0
 31 32  1  0
 32 33  1  0
 33 34  1  0
 33 35  1  0
 33 36  1  0
 32 37  2  0
 26  4  1  0
 37 28  1  0
 24  8  1  0
 14 10  1  0
 23 18  1  0
  3 38  1  0
  5 39  1  0
  6 40  1  0
  9 41  1  0
 11 42  1  0
 12 43  1  0
 16 44  1  0
 17 45  1  0
 17 46  1  0
 19 47  1  0
 20 48  1  0
 22 49  1  0
 23 50  1  0
 25 51  1  0
 26 52  1  0
 27 53  1  0
 29 54  1  0
 30 55  1  0
 31 56  1  0
 37 57  1  0
M  END
>  <meeko>  (6) 
{"is_sidechain": [false], "free_energy": -8.87, "intermolecular_energy": -11.868, "internal_energy": -1.02}

$$$$
LIB_YFXAKRSCLHWERK__M_PUB_ALL__e8__s20260927
     RDKit          3D

 57 61  0  0  0  0  0  0  0  0999 V2000
    7.9610  -11.4730   -0.0130 O   0  0  0  0  0  0  0  0  0  0  0  0
    8.2440  -12.6530    0.1510 C   0  0  0  0  0  0  0  0  0  0  0  0
    7.3390  -13.6470    0.4960 N   0  0  0  0  0  0  0  0  0  0  0  0
    5.9410  -13.5290    0.6440 C   0  0  0  0  0  0  0  0  0  0  0  0
    5.2590  -13.7340    1.8440 C   0  0  0  0  0  0  0  0  0  0  0  0
    3.8660  -13.5910    1.9050 C   0  0  0  0  0  0  0  0  0  0  0  0
    3.1230  -13.2490    0.7680 C   0  0  0  0  0  0  0  0  0  0  0  0
    1.6500  -13.0860    0.8080 C   0  0  0  0  0  0  0  0  0  0  0  0
    1.1010  -11.8770    0.5690 C   0  0  0  0  0  0  0  0  0  0  0  0
   -0.2700  -11.7590    0.6290 N   0  0  0  0  0  0  0  0  0  0  0  0
   -1.1150  -10.7000    0.4400 C   0  0  0  0  0  0  0  0  0  0  0  0
   -2.3810  -11.2110    0.6390 C   0  0  0  0  0  0  0  0  0  0  0  0
   -2.3350  -12.5510    0.9460 N   0  0  0  0  0  0  0  0  0  0  0  0
   -1.0500  -12.8390    0.9300 C   0  0  0  0  0  0  0  0  0  0  0  0
   -0.4160  -14.1190    1.1930 C   0  0  0  0  0  0  0  0  0  0  0  0
   -1.1750  -15.2200    1.5000 N   0  0  0  0  0  0  0  0  0  0  0  0
   -0.6390  -16.5280    1.7480 C   0  0  0  0  0  0  0  0  0  0  0  0
   -1.3160  -17.1330    2.9510 C   0  0  0  0  0  0  0  0  0  0  0  0
   -0.9490  -16.7510    4.2450 C   0  0  0  0  0  0  0  0  0  0  0  0
   -1.6190  -17.3170    5.3180 C   0  0  0  0  0  0  0  0  0  0  0  0
   -2.6180  -18.2150    5.1920 N   0  0  0  0  0  0  0  0  0  0  0  0
   -2.9680  -18.5590    3.9340 C   0  0  0  0  0  0  0  0  0  0  0  0
   -2.3600  -18.0500    2.7980 C   0  0  0  0  0  0  0  0  0  0  0  0
    0.8940  -14.2090    1.1330 N   0  0  0  0  0  0  0  0  0  0  0  0
    3.8160  -13.0270   -0.4280 C   0  0  0  0  0  0  0  0  0  0  0  0
    5.2070  -13.1670   -0.4900 C   0  0  0  0  0  0  0  0  0  0  0  0
    9.5200  -13.1850    0.0180 N   0  0  0  0  0  0  0  0  0  0  0  0
   10.7220  -12.4960   -0.2480 C   0  0  0  0  0  0  0  0  0  0  0  0
   11.1820  -11.6150    0.7380 C   0  0  0  0  0  0  0  0  0  0  0  0
   12.3630  -10.8920    0.5570 C   0  0  0  0  0  0  0  0  0  0  0  0
   13.0970  -11.0400   -0.6160 C   0  0  0  0  0  0  0  0  0  0  0  0
   12.6510  -11.9070   -1.6230 C   0  0  0  0  0  0  0  0  0  0  0  0
   13.4400  -12.0890   -2.8970 C   0  0  0  0  0  0  0  0  0  0  0  0
   13.6830  -13.3960   -3.1900 F   0  0  0  0  0  0  0  0  0  0  0  0
   14.6560  -11.4800   -2.8470 F   0  0  0  0  0  0  0  0  0  0  0  0
   12.8140  -11.5760   -3.9940 F   0  0  0  0  0  0  0  0  0  0  0  0
   11.4620  -12.6340   -1.4250 C   0  0  0  0  0  0  0  0  0  0  0  0
    7.7240  -14.5520    0.7120 H   0  0  0  0  0  0  0  0  0  0  0  0
    5.8192  -14.0101    2.7495 H   0  0  0  0  0  0  0  0  0  0  0  0
    3.3475  -13.7501    2.8620 H   0  0  0  0  0  0  0  0  0  0  0  0
    1.7321  -11.0077    0.3323 H   0  0  0  0  0  0  0  0  0  0  0  0
   -0.8438   -9.6650    0.1846 H   0  0  0  0  0  0  0  0  0  0  0  0
   -3.3074  -10.6229    0.5621 H   0  0  0  0  0  0  0  0  0  0  0  0
   -2.1820  -15.0880    1.5250 H   0  0  0  0  0  0  0  0  0  0  0  0
   -0.8132  -17.1673    0.8700 H   0  0  0  0  0  0  0  0  0  0  0  0
    0.4416  -16.4495    1.9383 H   0  0  0  0  0  0  0  0  0  0  0  0
   -0.1459  -16.0171    4.4078 H   0  0  0  0  0  0  0  0  0  0  0  0
   -1.3185  -17.0163    6.3325 H   0  0  0  0  0  0  0  0  0  0  0  0
   -3.7834  -19.2857    3.8036 H   0  0  0  0  0  0  0  0  0  0  0  0
   -2.6918  -18.3610    1.7964 H   0  0  0  0  0  0  0  0  0  0  0  0
    3.2593  -12.7384   -1.3318 H   0  0  0  0  0  0  0  0  0  0  0  0
    5.7292  -12.9902   -1.4419 H   0  0  0  0  0  0  0  0  0  0  0  0
    9.5940  -14.1880    0.0730 H   0  0  0  0  0  0  0  0  0  0  0  0
   10.6060  -11.4907    1.6669 H   0  0  0  0  0  0  0  0  0  0  0  0
   12.7131  -10.2054    1.3418 H   0  0  0  0  0  0  0  0  0  0  0  0
   14.0305  -10.4746   -0.7534 H   0  0  0  0  0  0  0  0  0  0  0  0
   11.1102  -13.3211   -2.2087 H   0  0  0  0  0  0  0  0  0  0  0  0
  1  2  2  0
  2  3  1  0
  3  4  1  0
  4  5  2  0
  5  6  1  0
  6  7  2  0
  7  8  1  0
  8  9  2  0
  9 10  1  0
 10 11  1  0
 11 12  2  0
 12 13  1  0
 13 14  2  0
 14 15  1  0
 15 16  1  0
 16 17  1  0
 17 18  1  0
 18 19  2  0
 19 20  1  0
 20 21  2  0
 21 22  1  0
 22 23  2  0
 15 24  2  0
  7 25  1  0
 25 26  2  0
  2 27  1  0
 27 28  1  0
 28 29  2  0
 29 30  1  0
 30 31  2  0
 31 32  1  0
 32 33  1  0
 33 34  1  0
 33 35  1  0
 33 36  1  0
 32 37  2  0
 26  4  1  0
 37 28  1  0
 24  8  1  0
 14 10  1  0
 23 18  1  0
  3 38  1  0
  5 39  1  0
  6 40  1  0
  9 41  1  0
 11 42  1  0
 12 43  1  0
 16 44  1  0
 17 45  1  0
 17 46  1  0
 19 47  1  0
 20 48  1  0
 22 49  1  0
 23 50  1  0
 25 51  1  0
 26 52  1  0
 27 53  1  0
 29 54  1  0
 30 55  1  0
 31 56  1  0
 37 57  1  0
M  END
>  <meeko>  (7) 
{"is_sidechain": [false], "free_energy": -8.778, "intermolecular_energy": -11.975, "internal_energy": -0.788}

$$$$
LIB_YFXAKRSCLHWERK__M_PUB_ALL__e8__s20260927
     RDKit          3D

 57 61  0  0  0  0  0  0  0  0999 V2000
    4.7140  -14.8800   -5.2290 O   0  0  0  0  0  0  0  0  0  0  0  0
    5.2380  -13.7760   -5.1640 C   0  0  0  0  0  0  0  0  0  0  0  0
    5.0030  -12.8410   -4.1650 N   0  0  0  0  0  0  0  0  0  0  0  0
    4.2040  -12.9920   -3.0120 C   0  0  0  0  0  0  0  0  0  0  0  0
    2.8930  -12.5310   -2.9020 C   0  0  0  0  0  0  0  0  0  0  0  0
    2.1650  -12.7260   -1.7190 C   0  0  0  0  0  0  0  0  0  0  0  0
    2.7360  -13.3800   -0.6180 C   0  0  0  0  0  0  0  0  0  0  0  0
    1.9870  -13.6040    0.6410 C   0  0  0  0  0  0  0  0  0  0  0  0
    2.3110  -14.6420    1.4390 C   0  0  0  0  0  0  0  0  0  0  0  0
    1.5840  -14.8300    2.5940 N   0  0  0  0  0  0  0  0  0  0  0  0
    1.6610  -15.7620    3.5920 C   0  0  0  0  0  0  0  0  0  0  0  0
    0.6590  -15.4220    4.4780 C   0  0  0  0  0  0  0  0  0  0  0  0
   -0.0290  -14.3100    4.0500 N   0  0  0  0  0  0  0  0  0  0  0  0
    0.5580  -13.9880    2.9160 C   0  0  0  0  0  0  0  0  0  0  0  0
    0.2350  -12.8900    2.0210 C   0  0  0  0  0  0  0  0  0  0  0  0
   -0.7930  -12.0310    2.3180 N   0  0  0  0  0  0  0  0  0  0  0  0
   -1.1660  -10.9060    1.5080 C   0  0  0  0  0  0  0  0  0  0  0  0
   -2.5130  -11.1580    0.8820 C   0  0  0  0  0  0  0  0  0  0  0  0
   -2.9900  -10.3350   -0.1420 C   0  0  0  0  0  0  0  0  0  0  0  0
   -4.2240  -10.6230   -0.7040 C   0  0  0  0  0  0  0  0  0  0  0  0
   -4.9980  -11.6610   -0.3260 N   0  0  0  0  0  0  0  0  0  0  0  0
   -4.5130  -12.4540    0.6540 C   0  0  0  0  0  0  0  0  0  0  0  0
   -3.2920  -12.2500    1.2770 C   0  0  0  0  0  0  0  0  0  0  0  0
    0.9400  -12.7310    0.9230 N   0  0  0  0  0  0  0  0  0  0  0  0
    4.0470  -13.8550   -0.7430 C   0  0  0  0  0  0  0  0  0  0  0  0
    4.7730  -13.6620   -1.9240 C   0  0  0  0  0  0  0  0  0  0  0  0
    6.1550  -13.2810   -6.0830 N   0  0  0  0  0  0  0  0  0  0  0  0
    6.5980  -13.8900   -7.2770 C   0  0  0  0  0  0  0  0  0  0  0  0
    7.2110  -15.1430   -7.1620 C   0  0  0  0  0  0  0  0  0  0  0  0
    7.6790  -15.8170   -8.2920 C   0  0  0  0  0  0  0  0  0  0  0  0
    7.5420  -15.2410   -9.5520 C   0  0  0  0  0  0  0  0  0  0  0  0
    6.9420  -13.9820   -9.6920 C   0  0  0  0  0  0  0  0  0  0  0  0
    6.7740  -13.3480  -11.0500 C   0  0  0  0  0  0  0  0  0  0  0  0
    6.7540  -11.9870  -11.0040 F   0  0  0  0  0  0  0  0  0  0  0  0
    5.6160  -13.7220  -11.6600 F   0  0  0  0  0  0  0  0  0  0  0  0
    7.7720  -13.6710  -11.9210 F   0  0  0  0  0  0  0  0  0  0  0  0
    6.4690  -13.3170   -8.5440 C   0  0  0  0  0  0  0  0  0  0  0  0
    5.4120  -11.9300   -4.2950 H   0  0  0  0  0  0  0  0  0  0  0  0
    2.4254  -12.0098   -3.7503 H   0  0  0  0  0  0  0  0  0  0  0  0
    1.1297  -12.3600   -1.6540 H   0  0  0  0  0  0  0  0  0  0  0  0
    3.1348  -15.3212    1.1743 H   0  0  0  0  0  0  0  0  0  0  0  0
    2.3683  -16.6008    3.6713 H   0  0  0  0  0  0  0  0  0  0  0  0
    0.4388  -15.9693    5.4064 H   0  0  0  0  0  0  0  0  0  0  0  0
   -1.2960  -12.2030    3.1840 H   0  0  0  0  0  0  0  0  0  0  0  0
   -1.2170  -10.0040    2.1355 H   0  0  0  0  0  0  0  0  0  0  0  0
   -0.4164  -10.7618    0.7159 H   0  0  0  0  0  0  0  0  0  0  0  0
   -2.3988   -9.4770   -0.4945 H   0  0  0  0  0  0  0  0  0  0  0  0
   -4.5938   -9.9664   -1.5054 H   0  0  0  0  0  0  0  0  0  0  0  0
   -5.1224  -13.3112    0.9762 H   0  0  0  0  0  0  0  0  0  0  0  0
   -2.9430  -12.9328    2.0657 H   0  0  0  0  0  0  0  0  0  0  0  0
    4.5132  -14.3876    0.0990 H   0  0  0  0  0  0  0  0  0  0  0  0
    5.8028  -14.0416   -1.9973 H   0  0  0  0  0  0  0  0  0  0  0  0
    6.5910  -12.4030   -5.8520 H   0  0  0  0  0  0  0  0  0  0  0  0
    7.3256  -15.6026   -6.1692 H   0  0  0  0  0  0  0  0  0  0  0  0
    8.1557  -16.8027   -8.1866 H   0  0  0  0  0  0  0  0  0  0  0  0
    7.9061  -15.7761  -10.4414 H   0  0  0  0  0  0  0  0  0  0  0  0
    5.9909  -12.3317   -8.6469 H   0  0  0  0  0  0  0  0  0  0  0  0
  1  2  2  0
  2  3  1  0
  3  4  1  0
  4  5  2  0
  5  6  1  0
  6  7  2  0
  7  8  1  0
  8  9  2  0
  9 10  1  0
 10 11  1  0
 11 12  2  0
 12 13  1  0
 13 14  2  0
 14 15  1  0
 15 16  1  0
 16 17  1  0
 17 18  1  0
 18 19  2  0
 19 20  1  0
 20 21  2  0
 21 22  1  0
 22 23  2  0
 15 24  2  0
  7 25  1  0
 25 26  2  0
  2 27  1  0
 27 28  1  0
 28 29  2  0
 29 30  1  0
 30 31  2  0
 31 32  1  0
 32 33  1  0
 33 34  1  0
 33 35  1  0
 33 36  1  0
 32 37  2  0
 26  4  1  0
 37 28  1  0
 24  8  1  0
 14 10  1  0
 23 18  1  0
  3 38  1  0
  5 39  1  0
  6 40  1  0
  9 41  1  0
 11 42  1  0
 12 43  1  0
 16 44  1  0
 17 45  1  0
 17 46  1  0
 19 47  1  0
 20 48  1  0
 22 49  1  0
 23 50  1  0
 25 51  1  0
 26 52  1  0
 27 53  1  0
 29 54  1  0
 30 55  1  0
 31 56  1  0
 37 57  1  0
M  END
>  <meeko>  (8) 
{"is_sidechain": [false], "free_energy": -8.733, "intermolecular_energy": -11.829, "internal_energy": -0.873}

$$$$
LIB_YFXAKRSCLHWERK__M_PUB_ALL__e8__s20260927
     RDKit          3D

 57 61  0  0  0  0  0  0  0  0999 V2000
    7.3120  -12.8930   -0.2970 O   0  0  0  0  0  0  0  0  0  0  0  0
    7.7360  -14.0350   -0.1830 C   0  0  0  0  0  0  0  0  0  0  0  0
    7.0570  -15.0780    0.4330 N   0  0  0  0  0  0  0  0  0  0  0  0
    5.7490  -15.0620    0.9630 C   0  0  0  0  0  0  0  0  0  0  0  0
    5.2730  -14.0940    1.8470 C   0  0  0  0  0  0  0  0  0  0  0  0
    3.9560  -14.1500    2.3250 C   0  0  0  0  0  0  0  0  0  0  0  0
    3.0890  -15.1790    1.9350 C   0  0  0  0  0  0  0  0  0  0  0  0
    1.6910  -15.2580    2.4210 C   0  0  0  0  0  0  0  0  0  0  0  0
    1.3770  -16.0920    3.4340 C   0  0  0  0  0  0  0  0  0  0  0  0
    0.0660  -16.1520    3.8490 N   0  0  0  0  0  0  0  0  0  0  0  0
   -0.5620  -16.8750    4.8260 C   0  0  0  0  0  0  0  0  0  0  0  0
   -1.8880  -16.4980    4.7550 C   0  0  0  0  0  0  0  0  0  0  0  0
   -2.0890  -15.5670    3.7640 N   0  0  0  0  0  0  0  0  0  0  0  0
   -0.8920  -15.3880    3.2440 C   0  0  0  0  0  0  0  0  0  0  0  0
   -0.5130  -14.5130    2.1480 C   0  0  0  0  0  0  0  0  0  0  0  0
   -1.4550  -13.7380    1.5210 N   0  0  0  0  0  0  0  0  0  0  0  0
   -1.1680  -12.8260    0.4500 C   0  0  0  0  0  0  0  0  0  0  0  0
   -1.0730  -11.4230    0.9920 C   0  0  0  0  0  0  0  0  0  0  0  0
   -1.9510  -10.9810    1.9860 C   0  0  0  0  0  0  0  0  0  0  0  0
   -1.8070   -9.6900    2.4720 C   0  0  0  0  0  0  0  0  0  0  0  0
   -0.8600   -8.8280    2.0460 N   0  0  0  0  0  0  0  0  0  0  0  0
   -0.0120   -9.2800    1.0970 C   0  0  0  0  0  0  0  0  0  0  0  0
   -0.0730  -10.5510    0.5490 C   0  0  0  0  0  0  0  0  0  0  0  0
    0.7440  -14.4740    1.7660 N   0  0  0  0  0  0  0  0  0  0  0  0
    3.5680  -16.1370    1.0340 C   0  0  0  0  0  0  0  0  0  0  0  0
    4.8820  -16.0810    0.5550 C   0  0  0  0  0  0  0  0  0  0  0  0
    8.9680  -14.4720   -0.6520 N   0  0  0  0  0  0  0  0  0  0  0  0
    9.9820  -13.7060   -1.2660 C   0  0  0  0  0  0  0  0  0  0  0  0
   10.0510  -13.7450   -2.6640 C   0  0  0  0  0  0  0  0  0  0  0  0
   11.0230  -13.0160   -3.3530 C   0  0  0  0  0  0  0  0  0  0  0  0
   11.9400  -12.2410   -2.6490 C   0  0  0  0  0  0  0  0  0  0  0  0
   11.8980  -12.1950   -1.2490 C   0  0  0  0  0  0  0  0  0  0  0  0
   12.8770  -11.3510   -0.4700 C   0  0  0  0  0  0  0  0  0  0  0  0
   12.3060  -10.2420    0.0780 F   0  0  0  0  0  0  0  0  0  0  0  0
   13.9070  -10.9030   -1.2400 F   0  0  0  0  0  0  0  0  0  0  0  0
   13.4550  -12.0180    0.5690 F   0  0  0  0  0  0  0  0  0  0  0  0
   10.9100  -12.9290   -0.5680 C   0  0  0  0  0  0  0  0  0  0  0  0
    7.5670  -15.9370    0.5600 H   0  0  0  0  0  0  0  0  0  0  0  0
    5.9367  -13.2793    2.1722 H   0  0  0  0  0  0  0  0  0  0  0  0
    3.5979  -13.3737    3.0172 H   0  0  0  0  0  0  0  0  0  0  0  0
    2.1496  -16.7088    3.9163 H   0  0  0  0  0  0  0  0  0  0  0  0
   -0.1085  -17.5997    5.5182 H   0  0  0  0  0  0  0  0  0  0  0  0
   -2.6814  -16.8918    5.4073 H   0  0  0  0  0  0  0  0  0  0  0  0
   -2.4080  -13.8070    1.8660 H   0  0  0  0  0  0  0  0  0  0  0  0
   -0.2126  -13.1023   -0.0199 H   0  0  0  0  0  0  0  0  0  0  0  0
   -1.9738  -12.8750   -0.2972 H   0  0  0  0  0  0  0  0  0  0  0  0
   -2.7391  -11.6429    2.3743 H   0  0  0  0  0  0  0  0  0  0  0  0
   -2.5055   -9.3487    3.2502 H   0  0  0  0  0  0  0  0  0  0  0  0
    0.7735   -8.5988    0.7379 H   0  0  0  0  0  0  0  0  0  0  0  0
    0.6493  -10.8675   -0.2179 H   0  0  0  0  0  0  0  0  0  0  0  0
    2.9023  -16.9455    0.6975 H   0  0  0  0  0  0  0  0  0  0  0  0
    5.2368  -16.8470   -0.1502 H   0  0  0  0  0  0  0  0  0  0  0  0
    9.1460  -15.4620   -0.5890 H   0  0  0  0  0  0  0  0  0  0  0  0
    9.3308  -14.3573   -3.2266 H   0  0  0  0  0  0  0  0  0  0  0  0
   11.0637  -13.0544   -4.4516 H   0  0  0  0  0  0  0  0  0  0  0  0
   12.7006  -11.6624   -3.1936 H   0  0  0  0  0  0  0  0  0  0  0  0
   10.8674  -12.8907    0.5305 H   0  0  0  0  0  0  0  0  0  0  0  0
  1  2  2  0
  2  3  1  0
  3  4  1  0
  4  5  2  0
  5  6  1  0
  6  7  2  0
  7  8  1  0
  8  9  2  0
  9 10  1  0
 10 11  1  0
 11 12  2  0
 12 13  1  0
 13 14  2  0
 14 15  1  0
 15 16  1  0
 16 17  1  0
 17 18  1  0
 18 19  2  0
 19 20  1  0
 20 21  2  0
 21 22  1  0
 22 23  2  0
 15 24  2  0
  7 25  1  0
 25 26  2  0
  2 27  1  0
 27 28  1  0
 28 29  2  0
 29 30  1  0
 30 31  2  0
 31 32  1  0
 32 33  1  0
 33 34  1  0
 33 35  1  0
 33 36  1  0
 32 37  2  0
 26  4  1  0
 37 28  1  0
 24  8  1  0
 14 10  1  0
 23 18  1  0
  3 38  1  0
  5 39  1  0
  6 40  1  0
  9 41  1  0
 11 42  1  0
 12 43  1  0
 16 44  1  0
 17 45  1  0
 17 46  1  0
 19 47  1  0
 20 48  1  0
 22 49  1  0
 23 50  1  0
 25 51  1  0
 26 52  1  0
 27 53  1  0
 29 54  1  0
 30 55  1  0
 31 56  1  0
 37 57  1  0
M  END
>  <meeko>  (9) 
{"is_sidechain": [false], "free_energy": -8.729, "intermolecular_energy": -11.763, "internal_energy": -0.934}

$$$$
