LIB_VYPKGVPXECFUKL__M_PUB_ALL__e8__s20260927
     RDKit          3D

 56 60  0  0  0  0  0  0  0  0999 V2000
    4.3700  -13.2380   -6.9600 O   0  0  0  0  0  0  0  0  0  0  0  0
    5.3670  -13.1640   -6.2530 C   0  0  0  0  0  0  0  0  0  0  0  0
    5.4060  -12.5720   -5.0050 N   0  0  0  0  0  0  0  0  0  0  0  0
    4.3510  -12.0260   -4.2520 C   0  0  0  0  0  0  0  0  0  0  0  0
    3.8060  -10.7580   -4.4110 C   0  0  0  0  0  0  0  0  0  0  0  0
    2.7140  -10.3620   -3.6250 C   0  0  0  0  0  0  0  0  0  0  0  0
    2.1520  -11.2330   -2.6810 C   0  0  0  0  0  0  0  0  0  0  0  0
    2.6920  -12.5060   -2.5060 C   0  0  0  0  0  0  0  0  0  0  0  0
    2.1710  -13.5340   -1.5770 C   0  0  0  0  0  0  0  0  0  0  0  0
    2.4740  -14.8410   -1.7240 C   0  0  0  0  0  0  0  0  0  0  0  0
    1.7730  -15.7650   -0.9640 N   0  0  0  0  0  0  0  0  0  0  0  0
    1.8310  -17.1300   -0.9000 C   0  0  0  0  0  0  0  0  0  0  0  0
    0.8490  -17.4900   -0.0000 C   0  0  0  0  0  0  0  0  0  0  0  0
    0.1880  -16.3860    0.4850 N   0  0  0  0  0  0  0  0  0  0  0  0
    0.7680  -15.3670   -0.1160 C   0  0  0  0  0  0  0  0  0  0  0  0
    0.5230  -13.9560   -0.0120 C   0  0  0  0  0  0  0  0  0  0  0  0
   -0.5180  -13.6260    0.7960 O   0  0  0  0  0  0  0  0  0  0  0  0
   -0.2100  -13.0050    2.0600 C   0  0  0  0  0  0  0  0  0  0  0  0
   -0.5930  -11.5450    2.1940 C   0  0  0  0  0  0  0  0  0  0  0  0
   -0.0470  -10.6000    1.3180 C   0  0  0  0  0  0  0  0  0  0  0  0
   -0.4550   -9.2780    1.4110 C   0  0  0  0  0  0  0  0  0  0  0  0
   -1.3730   -8.8300    2.3000 N   0  0  0  0  0  0  0  0  0  0  0  0
   -1.8400   -9.7510    3.1810 C   0  0  0  0  0  0  0  0  0  0  0  0
   -1.4850  -11.0960    3.1700 C   0  0  0  0  0  0  0  0  0  0  0  0
    1.2260  -13.0810   -0.6630 N   0  0  0  0  0  0  0  0  0  0  0  0
    3.7990  -12.8700   -3.2900 C   0  0  0  0  0  0  0  0  0  0  0  0
    6.6230  -13.6700   -6.5680 N   0  0  0  0  0  0  0  0  0  0  0  0
    7.0240  -14.3220   -7.7510 C   0  0  0  0  0  0  0  0  0  0  0  0
    7.4960  -15.6340   -7.8010 C   0  0  0  0  0  0  0  0  0  0  0  0
    7.8680  -16.2070   -9.0200 C   0  0  0  0  0  0  0  0  0  0  0  0
    7.7750  -15.4730  -10.2010 C   0  0  0  0  0  0  0  0  0  0  0  0
    7.3110  -14.1520  -10.1740 C   0  0  0  0  0  0  0  0  0  0  0  0
    7.1840  -13.3510  -11.4440 C   0  0  0  0  0  0  0  0  0  0  0  0
    8.3000  -13.3910  -12.2240 F   0  0  0  0  0  0  0  0  0  0  0  0
    6.9380  -12.0310  -11.2160 F   0  0  0  0  0  0  0  0  0  0  0  0
    6.1620  -13.7900  -12.2330 F   0  0  0  0  0  0  0  0  0  0  0  0
    6.9310  -13.5910   -8.9430 C   0  0  0  0  0  0  0  0  0  0  0  0
    6.3170  -12.5450   -4.5590 H   0  0  0  0  0  0  0  0  0  0  0  0
    4.2305  -10.0653   -5.1526 H   0  0  0  0  0  0  0  0  0  0  0  0
    2.2925   -9.3538   -3.7510 H   0  0  0  0  0  0  0  0  0  0  0  0
    1.2878  -10.9128   -2.0805 H   0  0  0  0  0  0  0  0  0  0  0  0
    3.2555  -15.1643   -2.4273 H   0  0  0  0  0  0  0  0  0  0  0  0
    2.5132  -17.7968   -1.4477 H   0  0  0  0  0  0  0  0  0  0  0  0
    0.6239  -18.5264    0.2919 H   0  0  0  0  0  0  0  0  0  0  0  0
   -0.7367  -13.5646    2.8470 H   0  0  0  0  0  0  0  0  0  0  0  0
    0.8864  -13.0328    2.1445 H   0  0  0  0  0  0  0  0  0  0  0  0
    0.6962  -10.9020    0.5654 H   0  0  0  0  0  0  0  0  0  0  0  0
   -0.0057   -8.5489    0.7207 H   0  0  0  0  0  0  0  0  0  0  0  0
   -2.5452   -9.4117    3.9541 H   0  0  0  0  0  0  0  0  0  0  0  0
   -1.8985  -11.7917    3.9150 H   0  0  0  0  0  0  0  0  0  0  0  0
    4.2490  -13.8623   -3.1385 H   0  0  0  0  0  0  0  0  0  0  0  0
    7.3270  -13.5830   -5.8450 H   0  0  0  0  0  0  0  0  0  0  0  0
    7.5758  -16.2214   -6.8744 H   0  0  0  0  0  0  0  0  0  0  0  0
    8.2363  -17.2432   -9.0476 H   0  0  0  0  0  0  0  0  0  0  0  0
    8.0668  -15.9325  -11.1569 H   0  0  0  0  0  0  0  0  0  0  0  0
    6.5533  -12.5583   -8.9144 H   0  0  0  0  0  0  0  0  0  0  0  0
  1  2  2  0
  2  3  1  0
  3  4  1  0
  4  5  2  0
  5  6  1  0
  6  7  2  0
  7  8  1  0
  8  9  1  0
  9 10  2  0
 10 11  1  0
 11 12  1  0
 12 13  2  0
 13 14  1  0
 14 15  2  0
 15 16  1  0
 16 17  1  0
 17 18  1  0
 18 19  1  0
 19 20  2  0
 20 21  1  0
 21 22  2  0
 22 23  1  0
 23 24  2  0
 16 25  2  0
  8 26  2  0
  2 27  1  0
 27 28  1  0
 28 29  2  0
 29 30  1  0
 30 31  2  0
 31 32  1  0
 32 33  1  0
 33 34  1  0
 33 35  1  0
 33 36  1  0
 32 37  2  0
 26  4  1  0
 37 28  1  0
 25  9  1  0
 15 11  1  0
 24 19  1  0
  3 38  1  0
  5 39  1  0
  6 40  1  0
  7 41  1  0
 10 42  1  0
 12 43  1  0
 13 44  1  0
 18 45  1  0
 18 46  1  0
 20 47  1  0
 21 48  1  0
 23 49  1  0
 24 50  1  0
 26 51  1  0
 27 52  1  0
 29 53  1  0
 30 54  1  0
 31 55  1  0
 37 56  1  0
M  END
>  <meeko>  (1) 
{"is_sidechain": [false], "free_energy": -9.275, "intermolecular_energy": -13.07, "internal_energy": -1.053}

$$$$
LIB_VYPKGVPXECFUKL__M_PUB_ALL__e8__s20260927
     RDKit          3D

 56 60  0  0  0  0  0  0  0  0999 V2000
    7.0440  -10.8800   -0.9410 O   0  0  0  0  0  0  0  0  0  0  0  0
    7.0920  -11.9920   -1.4510 C   0  0  0  0  0  0  0  0  0  0  0  0
    6.0170  -12.6420   -2.0260 N   0  0  0  0  0  0  0  0  0  0  0  0
    4.7080  -12.1710   -2.2350 C   0  0  0  0  0  0  0  0  0  0  0  0
    4.3380  -11.1480   -3.0990 C   0  0  0  0  0  0  0  0  0  0  0  0
    2.9830  -10.8170   -3.2510 C   0  0  0  0  0  0  0  0  0  0  0  0
    1.9880  -11.5120   -2.5490 C   0  0  0  0  0  0  0  0  0  0  0  0
    2.3460  -12.5370   -1.6750 C   0  0  0  0  0  0  0  0  0  0  0  0
    1.3960  -13.3740   -0.9070 C   0  0  0  0  0  0  0  0  0  0  0  0
    0.8830  -14.5130   -1.4160 C   0  0  0  0  0  0  0  0  0  0  0  0
   -0.1660  -15.1190   -0.7410 N   0  0  0  0  0  0  0  0  0  0  0  0
   -0.8970  -16.2440   -1.0060 C   0  0  0  0  0  0  0  0  0  0  0  0
   -1.8420  -16.3030   -0.0030 C   0  0  0  0  0  0  0  0  0  0  0  0
   -1.7150  -15.2450    0.8660 N   0  0  0  0  0  0  0  0  0  0  0  0
   -0.6990  -14.5530    0.3920 C   0  0  0  0  0  0  0  0  0  0  0  0
   -0.0820  -13.3480    0.8710 C   0  0  0  0  0  0  0  0  0  0  0  0
   -0.6860  -12.8030    1.9580 O   0  0  0  0  0  0  0  0  0  0  0  0
   -1.3300  -11.5240    1.7920 C   0  0  0  0  0  0  0  0  0  0  0  0
   -2.6250  -11.5290    1.0050 C   0  0  0  0  0  0  0  0  0  0  0  0
   -3.6480  -12.4160    1.3570 C   0  0  0  0  0  0  0  0  0  0  0  0
   -4.8520  -12.3660    0.6690 C   0  0  0  0  0  0  0  0  0  0  0  0
   -5.1150  -11.4930   -0.3320 N   0  0  0  0  0  0  0  0  0  0  0  0
   -4.0850  -10.6890   -0.7000 C   0  0  0  0  0  0  0  0  0  0  0  0
   -2.8430  -10.6710   -0.0740 C   0  0  0  0  0  0  0  0  0  0  0  0
    0.9490  -12.8180    0.2870 N   0  0  0  0  0  0  0  0  0  0  0  0
    3.7100  -12.8340   -1.5240 C   0  0  0  0  0  0  0  0  0  0  0  0
    8.2270  -12.7870   -1.5550 N   0  0  0  0  0  0  0  0  0  0  0  0
    9.5240  -12.5160   -1.0740 C   0  0  0  0  0  0  0  0  0  0  0  0
    9.8280  -12.2700    0.2650 C   0  0  0  0  0  0  0  0  0  0  0  0
   11.1450  -12.0150    0.6580 C   0  0  0  0  0  0  0  0  0  0  0  0
   12.1710  -12.0010   -0.2860 C   0  0  0  0  0  0  0  0  0  0  0  0
   11.8890  -12.2370   -1.6370 C   0  0  0  0  0  0  0  0  0  0  0  0
   12.9890  -12.2470   -2.6660 C   0  0  0  0  0  0  0  0  0  0  0  0
   14.0380  -11.4400   -2.3450 F   0  0  0  0  0  0  0  0  0  0  0  0
   12.5680  -11.8360   -3.8950 F   0  0  0  0  0  0  0  0  0  0  0  0
   13.5160  -13.4900   -2.8490 F   0  0  0  0  0  0  0  0  0  0  0  0
   10.5610  -12.5020   -2.0170 C   0  0  0  0  0  0  0  0  0  0  0  0
    6.2010  -13.5810   -2.3640 H   0  0  0  0  0  0  0  0  0  0  0  0
    5.1060  -10.5984   -3.6630 H   0  0  0  0  0  0  0  0  0  0  0  0
    2.6973  -10.0006   -3.9306 H   0  0  0  0  0  0  0  0  0  0  0  0
    0.9288  -11.2493   -2.6875 H   0  0  0  0  0  0  0  0  0  0  0  0
    1.2860  -14.9495   -2.3418 H   0  0  0  0  0  0  0  0  0  0  0  0
   -0.7608  -16.9494   -1.8390 H   0  0  0  0  0  0  0  0  0  0  0  0
   -2.5999  -17.0948    0.0898 H   0  0  0  0  0  0  0  0  0  0  0  0
   -1.5464  -11.1238    2.7935 H   0  0  0  0  0  0  0  0  0  0  0  0
   -0.6287  -10.9131    1.2047 H   0  0  0  0  0  0  0  0  0  0  0  0
   -3.4998  -13.1436    2.1686 H   0  0  0  0  0  0  0  0  0  0  0  0
   -5.6402  -13.0784    0.9540 H   0  0  0  0  0  0  0  0  0  0  0  0
   -4.2429  -10.0072   -1.5487 H   0  0  0  0  0  0  0  0  0  0  0  0
   -2.0488   -9.9943   -0.4223 H   0  0  0  0  0  0  0  0  0  0  0  0
    4.0027  -13.6226   -0.8152 H   0  0  0  0  0  0  0  0  0  0  0  0
    8.1120  -13.6560   -2.0630 H   0  0  0  0  0  0  0  0  0  0  0  0
    9.0254  -12.2767    1.0172 H   0  0  0  0  0  0  0  0  0  0  0  0
   11.3730  -11.8245    1.7171 H   0  0  0  0  0  0  0  0  0  0  0  0
   13.2055  -11.8039    0.0317 H   0  0  0  0  0  0  0  0  0  0  0  0
   10.3319  -12.7020   -3.0741 H   0  0  0  0  0  0  0  0  0  0  0  0
  1  2  2  0
  2  3  1  0
  3  4  1  0
  4  5  2  0
  5  6  1  0
  6  7  2  0
  7  8  1  0
  8  9  1  0
  9 10  2  0
 10 11  1  0
 11 12  1  0
 12 13  2  0
 13 14  1  0
 14 15  2  0
 15 16  1  0
 16 17  1  0
 17 18  1  0
 18 19  1  0
 19 20  2  0
 20 21  1  0
 21 22  2  0
 22 23  1  0
 23 24  2  0
 16 25  2  0
  8 26  2  0
  2 27  1  0
 27 28  1  0
 28 29  2  0
 29 30  1  0
 30 31  2  0
 31 32  1  0
 32 33  1  0
 33 34  1  0
 33 35  1  0
 33 36  1  0
 32 37  2  0
 26  4  1  0
 37 28  1  0
 25  9  1  0
 15 11  1  0
 24 19  1  0
  3 38  1  0
  5 39  1  0
  6 40  1  0
  7 41  1  0
 10 42  1  0
 12 43  1  0
 13 44  1  0
 18 45  1  0
 18 46  1  0
 20 47  1  0
 21 48  1  0
 23 49  1  0
 24 50  1  0
 26 51  1  0
 27 52  1  0
 29 53  1  0
 30 54  1  0
 31 55  1  0
 37 56  1  0
M  END
>  <meeko>  (2) 
{"is_sidechain": [false], "free_energy": -8.974, "intermolecular_energy": -12.583, "internal_energy": -1.116}

$$$$
LIB_VYPKGVPXECFUKL__M_PUB_ALL__e8__s20260927
     RDKit          3D

 56 60  0  0  0  0  0  0  0  0999 V2000
    7.5990  -10.9890   -2.3400 O   0  0  0  0  0  0  0  0  0  0  0  0
    7.4830  -12.1030   -2.8360 C   0  0  0  0  0  0  0  0  0  0  0  0
    6.2830  -12.6850   -3.1940 N   0  0  0  0  0  0  0  0  0  0  0  0
    4.9890  -12.1340   -3.1630 C   0  0  0  0  0  0  0  0  0  0  0  0
    4.3730  -11.4390   -4.1970 C   0  0  0  0  0  0  0  0  0  0  0  0
    3.0520  -10.9910   -4.0490 C   0  0  0  0  0  0  0  0  0  0  0  0
    2.3330  -11.2420   -2.8720 C   0  0  0  0  0  0  0  0  0  0  0  0
    2.9410  -11.9340   -1.8240 C   0  0  0  0  0  0  0  0  0  0  0  0
    2.2830  -12.2990   -0.5490 C   0  0  0  0  0  0  0  0  0  0  0  0
    2.3290  -13.5580   -0.0640 C   0  0  0  0  0  0  0  0  0  0  0  0
    1.5060  -13.8770    1.0060 N   0  0  0  0  0  0  0  0  0  0  0  0
    1.3110  -15.0430    1.6940 C   0  0  0  0  0  0  0  0  0  0  0  0
    0.3250  -14.7560    2.6150 C   0  0  0  0  0  0  0  0  0  0  0  0
   -0.0930  -13.4510    2.5080 N   0  0  0  0  0  0  0  0  0  0  0  0
    0.6360  -12.9530    1.5310 C   0  0  0  0  0  0  0  0  0  0  0  0
    0.6650  -11.6350    0.9620 C   0  0  0  0  0  0  0  0  0  0  0  0
   -0.2550  -10.7800    1.4800 O   0  0  0  0  0  0  0  0  0  0  0  0
   -1.1770  -10.1570    0.5640 C   0  0  0  0  0  0  0  0  0  0  0  0
   -2.5430  -10.8030    0.4540 C   0  0  0  0  0  0  0  0  0  0  0  0
   -3.4290  -10.3890   -0.5470 C   0  0  0  0  0  0  0  0  0  0  0  0
   -4.6510  -11.0340   -0.6760 C   0  0  0  0  0  0  0  0  0  0  0  0
   -5.0510  -12.0630    0.1080 N   0  0  0  0  0  0  0  0  0  0  0  0
   -4.2040  -12.4020    1.1130 C   0  0  0  0  0  0  0  0  0  0  0  0
   -2.9620  -11.8120    1.3240 C   0  0  0  0  0  0  0  0  0  0  0  0
    1.4860  -11.3080    0.0120 N   0  0  0  0  0  0  0  0  0  0  0  0
    4.2700  -12.3520   -1.9890 C   0  0  0  0  0  0  0  0  0  0  0  0
    8.5290  -12.9670   -3.1390 N   0  0  0  0  0  0  0  0  0  0  0  0
    9.9060  -12.7760   -2.9100 C   0  0  0  0  0  0  0  0  0  0  0  0
   10.8760  -12.7940   -3.9120 C   0  0  0  0  0  0  0  0  0  0  0  0
   12.2230  -12.5900   -3.5990 C   0  0  0  0  0  0  0  0  0  0  0  0
   12.6140  -12.3680   -2.2790 C   0  0  0  0  0  0  0  0  0  0  0  0
   11.6580  -12.3530   -1.2560 C   0  0  0  0  0  0  0  0  0  0  0  0
   12.0600  -12.0930    0.1730 C   0  0  0  0  0  0  0  0  0  0  0  0
   11.1950  -11.2780    0.8390 F   0  0  0  0  0  0  0  0  0  0  0  0
   13.2820  -11.5030    0.2820 F   0  0  0  0  0  0  0  0  0  0  0  0
   12.1320  -13.2390    0.9070 F   0  0  0  0  0  0  0  0  0  0  0  0
   10.3060  -12.5500   -1.5860 C   0  0  0  0  0  0  0  0  0  0  0  0
    6.3430  -13.6340   -3.5490 H   0  0  0  0  0  0  0  0  0  0  0  0
    4.9206  -11.2405   -5.1301 H   0  0  0  0  0  0  0  0  0  0  0  0
    2.5733  -10.4347   -4.8684 H   0  0  0  0  0  0  0  0  0  0  0  0
    1.2937  -10.8948   -2.7751 H   0  0  0  0  0  0  0  0  0  0  0  0
    3.0002  -14.3097   -0.5049 H   0  0  0  0  0  0  0  0  0  0  0  0
    1.8285  -16.0022    1.5451 H   0  0  0  0  0  0  0  0  0  0  0  0
   -0.0752  -15.4785    3.3415 H   0  0  0  0  0  0  0  0  0  0  0  0
   -1.3222   -9.1161    0.8887 H   0  0  0  0  0  0  0  0  0  0  0  0
   -0.7200  -10.2586   -0.4314 H   0  0  0  0  0  0  0  0  0  0  0  0
   -3.1604   -9.5634   -1.2225 H   0  0  0  0  0  0  0  0  0  0  0  0
   -5.3367  -10.6881   -1.4635 H   0  0  0  0  0  0  0  0  0  0  0  0
   -4.5205  -13.1954    1.8061 H   0  0  0  0  0  0  0  0  0  0  0  0
   -2.3227  -12.1337    2.1593 H   0  0  0  0  0  0  0  0  0  0  0  0
    4.7654  -12.8737   -1.1569 H   0  0  0  0  0  0  0  0  0  0  0  0
    8.2690  -13.8270   -3.6060 H   0  0  0  0  0  0  0  0  0  0  0  0
   10.5788  -12.9700   -4.9564 H   0  0  0  0  0  0  0  0  0  0  0  0
   12.9786  -12.6047   -4.3983 H   0  0  0  0  0  0  0  0  0  0  0  0
   13.6754  -12.2044   -2.0410 H   0  0  0  0  0  0  0  0  0  0  0  0
    9.5474  -12.5263   -0.7898 H   0  0  0  0  0  0  0  0  0  0  0  0
  1  2  2  0
  2  3  1  0
  3  4  1  0
  4  5  2  0
  5  6  1  0
  6  7  2  0
  7  8  1  0
  8  9  1  0
  9 10  2  0
 10 11  1  0
 11 12  1  0
 12 13  2  0
 13 14  1  0
 14 15  2  0
 15 16  1  0
 16 17  1  0
 17 18  1  0
 18 19  1  0
 19 20  2  0
 20 21  1  0
 21 22  2  0
 22 23  1  0
 23 24  2  0
 16 25  2  0
  8 26  2  0
  2 27  1  0
 27 28  1  0
 28 29  2  0
 29 30  1  0
 30 31  2  0
 31 32  1  0
 32 33  1  0
 33 34  1  0
 33 35  1  0
 33 36  1  0
 32 37  2  0
 26  4  1  0
 37 28  1  0
 25  9  1  0
 15 11  1  0
 24 19  1  0
  3 38  1  0
  5 39  1  0
  6 40  1  0
  7 41  1  0
 10 42  1  0
 12 43  1  0
 13 44  1  0
 18 45  1  0
 18 46  1  0
 20 47  1  0
 21 48  1  0
 23 49  1  0
 24 50  1  0
 26 51  1  0
 27 52  1  0
 29 53  1  0
 30 54  1  0
 31 55  1  0
 37 56  1  0
M  END
>  <meeko>  (3) 
{"is_sidechain": [false], "free_energy": -8.965, "intermolecular_energy": -12.639, "internal_energy": -1.048}

$$$$
LIB_VYPKGVPXECFUKL__M_PUB_ALL__e8__s20260927
     RDKit          3D

 56 60  0  0  0  0  0  0  0  0999 V2000
    7.2400  -10.7560   -1.3620 O   0  0  0  0  0  0  0  0  0  0  0  0
    7.2060  -11.9390   -1.6760 C   0  0  0  0  0  0  0  0  0  0  0  0
    6.0950  -12.5910   -2.1750 N   0  0  0  0  0  0  0  0  0  0  0  0
    4.8350  -12.0610   -2.5090 C   0  0  0  0  0  0  0  0  0  0  0  0
    4.4970  -11.4630   -3.7170 C   0  0  0  0  0  0  0  0  0  0  0  0
    3.1810  -11.0260   -3.9360 C   0  0  0  0  0  0  0  0  0  0  0  0
    2.1940  -11.1930   -2.9550 C   0  0  0  0  0  0  0  0  0  0  0  0
    2.5210  -11.7860   -1.7370 C   0  0  0  0  0  0  0  0  0  0  0  0
    1.5680  -12.0570   -0.6370 C   0  0  0  0  0  0  0  0  0  0  0  0
    0.7620  -11.0930   -0.1440 C   0  0  0  0  0  0  0  0  0  0  0  0
    0.0680  -11.3550    1.0270 N   0  0  0  0  0  0  0  0  0  0  0  0
   -0.7920  -10.5940    1.7710 C   0  0  0  0  0  0  0  0  0  0  0  0
   -1.1160  -11.3790    2.8590 C   0  0  0  0  0  0  0  0  0  0  0  0
   -0.4770  -12.5950    2.8060 N   0  0  0  0  0  0  0  0  0  0  0  0
    0.2270  -12.5460    1.6930 C   0  0  0  0  0  0  0  0  0  0  0  0
    1.0920  -13.5190    1.0890 C   0  0  0  0  0  0  0  0  0  0  0  0
    1.2570  -14.6530    1.8190 O   0  0  0  0  0  0  0  0  0  0  0  0
    2.4400  -14.7530    2.6370 C   0  0  0  0  0  0  0  0  0  0  0  0
    3.7640  -14.6900    1.9020 C   0  0  0  0  0  0  0  0  0  0  0  0
    4.0780  -15.6690    0.9530 C   0  0  0  0  0  0  0  0  0  0  0  0
    5.2650  -15.5630    0.2410 C   0  0  0  0  0  0  0  0  0  0  0  0
    6.1520  -14.5520    0.3960 N   0  0  0  0  0  0  0  0  0  0  0  0
    5.8570  -13.6520    1.3680 C   0  0  0  0  0  0  0  0  0  0  0  0
    4.6970  -13.6780    2.1350 C   0  0  0  0  0  0  0  0  0  0  0  0
    1.6860  -13.3100   -0.0460 N   0  0  0  0  0  0  0  0  0  0  0  0
    3.8490  -12.1940   -1.5330 C   0  0  0  0  0  0  0  0  0  0  0  0
    8.2730  -12.8270   -1.6020 N   0  0  0  0  0  0  0  0  0  0  0  0
    9.5760  -12.5810   -1.1260 C   0  0  0  0  0  0  0  0  0  0  0  0
    9.8960  -12.3980    0.2190 C   0  0  0  0  0  0  0  0  0  0  0  0
   11.2190  -12.1640    0.6080 C   0  0  0  0  0  0  0  0  0  0  0  0
   12.2330  -12.1080   -0.3460 C   0  0  0  0  0  0  0  0  0  0  0  0
   11.9350  -12.2810   -1.7030 C   0  0  0  0  0  0  0  0  0  0  0  0
   13.0220  -12.2440   -2.7450 C   0  0  0  0  0  0  0  0  0  0  0  0
   12.5960  -11.7890   -3.9570 F   0  0  0  0  0  0  0  0  0  0  0  0
   13.5710  -13.4680   -2.9820 F   0  0  0  0  0  0  0  0  0  0  0  0
   14.0570  -11.4340   -2.3860 F   0  0  0  0  0  0  0  0  0  0  0  0
   10.6020  -12.5250   -2.0790 C   0  0  0  0  0  0  0  0  0  0  0  0
    6.2070  -13.5850   -2.3430 H   0  0  0  0  0  0  0  0  0  0  0  0
    5.2588  -11.3324   -4.4997 H   0  0  0  0  0  0  0  0  0  0  0  0
    2.9208  -10.5458   -4.8908 H   0  0  0  0  0  0  0  0  0  0  0  0
    1.1641  -10.8569   -3.1459 H   0  0  0  0  0  0  0  0  0  0  0  0
    0.6587  -10.1257   -0.6575 H   0  0  0  0  0  0  0  0  0  0  0  0
   -1.1480   -9.5770    1.5499 H   0  0  0  0  0  0  0  0  0  0  0  0
   -1.7981  -11.0711    3.6652 H   0  0  0  0  0  0  0  0  0  0  0  0
    2.4183  -13.9264    3.3624 H   0  0  0  0  0  0  0  0  0  0  0  0
    2.4014  -15.7534    3.0927 H   0  0  0  0  0  0  0  0  0  0  0  0
    3.3936  -16.5112    0.7735 H   0  0  0  0  0  0  0  0  0  0  0  0
    5.4990  -16.3478   -0.4934 H   0  0  0  0  0  0  0  0  0  0  0  0
    6.5832  -12.8489    1.5621 H   0  0  0  0  0  0  0  0  0  0  0  0
    4.5185  -12.9171    2.9090 H   0  0  0  0  0  0  0  0  0  0  0  0
    4.1222  -12.6365   -0.5637 H   0  0  0  0  0  0  0  0  0  0  0  0
    8.0980  -13.7570   -1.9620 H   0  0  0  0  0  0  0  0  0  0  0  0
    9.1022  -12.4380    0.9795 H   0  0  0  0  0  0  0  0  0  0  0  0
   11.4601  -12.0235    1.6720 H   0  0  0  0  0  0  0  0  0  0  0  0
   13.2715  -11.9272   -0.0318 H   0  0  0  0  0  0  0  0  0  0  0  0
   10.3600  -12.6748   -3.1416 H   0  0  0  0  0  0  0  0  0  0  0  0
  1  2  2  0
  2  3  1  0
  3  4  1  0
  4  5  2  0
  5  6  1  0
  6  7  2  0
  7  8  1  0
  8  9  1  0
  9 10  2  0
 10 11  1  0
 11 12  1  0
 12 13  2  0
 13 14  1  0
 14 15  2  0
 15 16  1  0
 16 17  1  0
 17 18  1  0
 18 19  1  0
 19 20  2  0
 20 21  1  0
 21 22  2  0
 22 23  1  0
 23 24  2  0
 16 25  2  0
  8 26  2  0
  2 27  1  0
 27 28  1  0
 28 29  2  0
 29 30  1  0
 30 31  2  0
 31 32  1  0
 32 33  1  0
 33 34  1  0
 33 35  1  0
 33 36  1  0
 32 37  2  0
 26  4  1  0
 37 28  1  0
 25  9  1  0
 15 11  1  0
 24 19  1  0
  3 38  1  0
  5 39  1  0
  6 40  1  0
  7 41  1  0
 10 42  1  0
 12 43  1  0
 13 44  1  0
 18 45  1  0
 18 46  1  0
 20 47  1  0
 21 48  1  0
 23 49  1  0
 24 50  1  0
 26 51  1  0
 27 52  1  0
 29 53  1  0
 30 54  1  0
 31 55  1  0
 37 56  1  0
M  END
>  <meeko>  (4) 
{"is_sidechain": [false], "free_energy": -8.904, "intermolecular_energy": -11.49, "internal_energy": -2.111}

$$$$
LIB_VYPKGVPXECFUKL__M_PUB_ALL__e8__s20260927
     RDKit          3D

 56 60  0  0  0  0  0  0  0  0999 V2000
    4.0040  -13.2710   -6.3340 O   0  0  0  0  0  0  0  0  0  0  0  0
    5.0400  -12.8970   -5.7990 C   0  0  0  0  0  0  0  0  0  0  0  0
    5.1010  -12.0810   -4.6860 N   0  0  0  0  0  0  0  0  0  0  0  0
    4.0500  -11.5900   -3.8910 C   0  0  0  0  0  0  0  0  0  0  0  0
    3.2610  -10.4820   -4.1760 C   0  0  0  0  0  0  0  0  0  0  0  0
    2.2060  -10.1350   -3.3180 C   0  0  0  0  0  0  0  0  0  0  0  0
    1.9260  -10.8980   -2.1760 C   0  0  0  0  0  0  0  0  0  0  0  0
    2.7130  -12.0090   -1.8750 C   0  0  0  0  0  0  0  0  0  0  0  0
    2.5010  -12.9190   -0.7260 C   0  0  0  0  0  0  0  0  0  0  0  0
    1.3040  -13.0140   -0.1100 C   0  0  0  0  0  0  0  0  0  0  0  0
    1.2380  -13.7050    1.0900 N   0  0  0  0  0  0  0  0  0  0  0  0
    0.2020  -13.9550    1.9470 C   0  0  0  0  0  0  0  0  0  0  0  0
    0.7660  -14.6460    3.0000 C   0  0  0  0  0  0  0  0  0  0  0  0
    2.1170  -14.8220    2.8160 N   0  0  0  0  0  0  0  0  0  0  0  0
    2.3670  -14.2430    1.6590 C   0  0  0  0  0  0  0  0  0  0  0  0
    3.5940  -14.1070    0.9270 C   0  0  0  0  0  0  0  0  0  0  0  0
    4.6850  -14.6060    1.5640 O   0  0  0  0  0  0  0  0  0  0  0  0
    5.6410  -13.6620    2.0890 C   0  0  0  0  0  0  0  0  0  0  0  0
    6.7750  -13.2790    1.1610 C   0  0  0  0  0  0  0  0  0  0  0  0
    7.4050  -12.0380    1.3090 C   0  0  0  0  0  0  0  0  0  0  0  0
    8.4840  -11.7270    0.4940 C   0  0  0  0  0  0  0  0  0  0  0  0
    8.9890  -12.5620   -0.4460 N   0  0  0  0  0  0  0  0  0  0  0  0
    8.3210  -13.7310   -0.6150 C   0  0  0  0  0  0  0  0  0  0  0  0
    7.2280  -14.1280    0.1480 C   0  0  0  0  0  0  0  0  0  0  0  0
    3.6490  -13.5270   -0.2330 N   0  0  0  0  0  0  0  0  0  0  0  0
    3.7760  -12.3210   -2.7370 C   0  0  0  0  0  0  0  0  0  0  0  0
    6.3270  -13.2330   -6.2030 N   0  0  0  0  0  0  0  0  0  0  0  0
    6.7130  -14.0190   -7.3060 C   0  0  0  0  0  0  0  0  0  0  0  0
    7.1300  -15.3470   -7.2130 C   0  0  0  0  0  0  0  0  0  0  0  0
    7.4910  -16.0590   -8.3610 C   0  0  0  0  0  0  0  0  0  0  0  0
    7.4420  -15.4480   -9.6130 C   0  0  0  0  0  0  0  0  0  0  0  0
    7.0340  -14.1130   -9.7300 C   0  0  0  0  0  0  0  0  0  0  0  0
    6.9540  -13.4430  -11.0770 C   0  0  0  0  0  0  0  0  0  0  0  0
    5.8680  -13.8230  -11.8070 F   0  0  0  0  0  0  0  0  0  0  0  0
    8.0360  -13.7020  -11.8620 F   0  0  0  0  0  0  0  0  0  0  0  0
    6.8810  -12.0860  -10.9770 F   0  0  0  0  0  0  0  0  0  0  0  0
    6.6640  -13.4120   -8.5680 C   0  0  0  0  0  0  0  0  0  0  0  0
    6.0340  -11.8150   -4.3860 H   0  0  0  0  0  0  0  0  0  0  0  0
    3.4631   -9.8779   -5.0728 H   0  0  0  0  0  0  0  0  0  0  0  0
    1.5904   -9.2521   -3.5448 H   0  0  0  0  0  0  0  0  0  0  0  0
    1.0881  -10.6212   -1.5193 H   0  0  0  0  0  0  0  0  0  0  0  0
    0.4052  -12.5556   -0.5482 H   0  0  0  0  0  0  0  0  0  0  0  0
   -0.8526  -13.6675    1.8237 H   0  0  0  0  0  0  0  0  0  0  0  0
    0.2063  -15.0094    3.8745 H   0  0  0  0  0  0  0  0  0  0  0  0
    5.0967  -12.7431    2.3522 H   0  0  0  0  0  0  0  0  0  0  0  0
    6.1153  -14.1653    2.9444 H   0  0  0  0  0  0  0  0  0  0  0  0
    7.0494  -11.3187    2.0615 H   0  0  0  0  0  0  0  0  0  0  0  0
    8.9584  -10.7424    0.6186 H   0  0  0  0  0  0  0  0  0  0  0  0
    8.6670  -14.4099   -1.4083 H   0  0  0  0  0  0  0  0  0  0  0  0
    6.7305  -15.0905   -0.0421 H   0  0  0  0  0  0  0  0  0  0  0  0
    4.4196  -13.1785   -2.4911 H   0  0  0  0  0  0  0  0  0  0  0  0
    7.0770  -12.8920   -5.6130 H   0  0  0  0  0  0  0  0  0  0  0  0
    7.1751  -15.8376   -6.2295 H   0  0  0  0  0  0  0  0  0  0  0  0
    7.8153  -17.1066   -8.2757 H   0  0  0  0  0  0  0  0  0  0  0  0
    7.7245  -16.0158  -10.5117 H   0  0  0  0  0  0  0  0  0  0  0  0
    6.3298  -12.3673   -8.6516 H   0  0  0  0  0  0  0  0  0  0  0  0
  1  2  2  0
  2  3  1  0
  3  4  1  0
  4  5  2  0
  5  6  1  0
  6  7  2  0
  7  8  1  0
  8  9  1  0
  9 10  2  0
 10 11  1  0
 11 12  1  0
 12 13  2  0
 13 14  1  0
 14 15  2  0
 15 16  1  0
 16 17  1  0
 17 18  1  0
 18 19  1  0
 19 20  2  0
 20 21  1  0
 21 22  2  0
 22 23  1  0
 23 24  2  0
 16 25  2  0
  8 26  2  0
  2 27  1  0
 27 28  1  0
 28 29  2  0
 29 30  1  0
 30 31  2  0
 31 32  1  0
 32 33  1  0
 33 34  1  0
 33 35  1  0
 33 36  1  0
 32 37  2  0
 26  4  1  0
 37 28  1  0
 25  9  1  0
 15 11  1  0
 24 19  1  0
  3 38  1  0
  5 39  1  0
  6 40  1  0
  7 41  1  0
 10 42  1  0
 12 43  1  0
 13 44  1  0
 18 45  1  0
 18 46  1  0
 20 47  1  0
 21 48  1  0
 23 49  1  0
 24 50  1  0
 26 51  1  0
 27 52  1  0
 29 53  1  0
 30 54  1  0
 31 55  1  0
 37 56  1  0
M  END
>  <meeko>  (5) 
{"is_sidechain": [false], "free_energy": -8.808, "intermolecular_energy": -12.085, "internal_energy": -1.381}

$$$$
LIB_VYPKGVPXECFUKL__M_PUB_ALL__e8__s20260927
     RDKit          3D

 56 60  0  0  0  0  0  0  0  0999 V2000
    7.9360  -14.1120   -3.5820 O   0  0  0  0  0  0  0  0  0  0  0  0
    8.0840  -12.9510   -3.9420 C   0  0  0  0  0  0  0  0  0  0  0  0
    7.0980  -12.1720   -4.5150 N   0  0  0  0  0  0  0  0  0  0  0  0
    5.7410  -12.4760   -4.7250 C   0  0  0  0  0  0  0  0  0  0  0  0
    5.2080  -13.0900   -5.8520 C   0  0  0  0  0  0  0  0  0  0  0  0
    3.8380  -13.3860   -5.9050 C   0  0  0  0  0  0  0  0  0  0  0  0
    2.9920  -13.0780   -4.8300 C   0  0  0  0  0  0  0  0  0  0  0  0
    3.5120  -12.4570   -3.6960 C   0  0  0  0  0  0  0  0  0  0  0  0
    2.7400  -12.1170   -2.4800 C   0  0  0  0  0  0  0  0  0  0  0  0
    1.8480  -11.1030   -2.4670 C   0  0  0  0  0  0  0  0  0  0  0  0
    1.3360  -10.6970   -1.2450 N   0  0  0  0  0  0  0  0  0  0  0  0
    0.4510   -9.7100   -0.9050 C   0  0  0  0  0  0  0  0  0  0  0  0
    0.3760   -9.7530    0.4720 C   0  0  0  0  0  0  0  0  0  0  0  0
    1.1920  -10.7330    0.9860 N   0  0  0  0  0  0  0  0  0  0  0  0
    1.7540  -11.2790   -0.0730 C   0  0  0  0  0  0  0  0  0  0  0  0
    2.6940  -12.3600   -0.1810 C   0  0  0  0  0  0  0  0  0  0  0  0
    3.1150  -12.8580    1.0100 O   0  0  0  0  0  0  0  0  0  0  0  0
    4.3090  -13.6660    1.0100 C   0  0  0  0  0  0  0  0  0  0  0  0
    5.6110  -12.9300    0.7680 C   0  0  0  0  0  0  0  0  0  0  0  0
    5.8300  -11.6890    1.3780 C   0  0  0  0  0  0  0  0  0  0  0  0
    7.0520  -11.0560    1.2000 C   0  0  0  0  0  0  0  0  0  0  0  0
    8.0720  -11.5700    0.4730 N   0  0  0  0  0  0  0  0  0  0  0  0
    7.8120  -12.7410   -0.1620 C   0  0  0  0  0  0  0  0  0  0  0  0
    6.6190  -13.4460   -0.0490 C   0  0  0  0  0  0  0  0  0  0  0  0
    3.1200  -12.7950   -1.3270 N   0  0  0  0  0  0  0  0  0  0  0  0
    4.8820  -12.1520   -3.6760 C   0  0  0  0  0  0  0  0  0  0  0  0
    9.2550  -12.2110   -3.8270 N   0  0  0  0  0  0  0  0  0  0  0  0
   10.5030  -12.6330   -3.3250 C   0  0  0  0  0  0  0  0  0  0  0  0
   11.4270  -13.3810   -4.0530 C   0  0  0  0  0  0  0  0  0  0  0  0
   12.6470  -13.7530   -3.4800 C   0  0  0  0  0  0  0  0  0  0  0  0
   12.9520  -13.3830   -2.1720 C   0  0  0  0  0  0  0  0  0  0  0  0
   12.0360  -12.6380   -1.4190 C   0  0  0  0  0  0  0  0  0  0  0  0
   12.3590  -12.2100   -0.0110 C   0  0  0  0  0  0  0  0  0  0  0  0
   11.3950  -11.4300    0.5530 F   0  0  0  0  0  0  0  0  0  0  0  0
   13.5130  -11.4920    0.0740 F   0  0  0  0  0  0  0  0  0  0  0  0
   12.5180  -13.2720    0.8290 F   0  0  0  0  0  0  0  0  0  0  0  0
   10.8170  -12.2620   -2.0110 C   0  0  0  0  0  0  0  0  0  0  0  0
    7.3850  -11.2430   -4.8060 H   0  0  0  0  0  0  0  0  0  0  0  0
    5.8596  -13.3435   -6.7012 H   0  0  0  0  0  0  0  0  0  0  0  0
    3.4214  -13.8665   -6.8025 H   0  0  0  0  0  0  0  0  0  0  0  0
    1.9215  -13.3257   -4.8816 H   0  0  0  0  0  0  0  0  0  0  0  0
    1.5364  -10.6127   -3.4011 H   0  0  0  0  0  0  0  0  0  0  0  0
   -0.0848   -9.0294   -1.5831 H   0  0  0  0  0  0  0  0  0  0  0  0
   -0.2554   -9.0887    1.0803 H   0  0  0  0  0  0  0  0  0  0  0  0
    4.3798  -14.1613    1.9896 H   0  0  0  0  0  0  0  0  0  0  0  0
    4.1981  -14.3576    0.1619 H   0  0  0  0  0  0  0  0  0  0  0  0
    5.0442  -11.2221    1.9900 H   0  0  0  0  0  0  0  0  0  0  0  0
    7.2011  -10.0769    1.6787 H   0  0  0  0  0  0  0  0  0  0  0  0
    8.5970  -13.1600   -0.8088 H   0  0  0  0  0  0  0  0  0  0  0  0
    6.4722  -14.3912   -0.5922 H   0  0  0  0  0  0  0  0  0  0  0  0
    5.2947  -11.6362   -2.7965 H   0  0  0  0  0  0  0  0  0  0  0  0
    9.1940  -11.2420   -4.1140 H   0  0  0  0  0  0  0  0  0  0  0  0
   11.1947  -13.6807   -5.0856 H   0  0  0  0  0  0  0  0  0  0  0  0
   13.3697  -14.3408   -4.0650 H   0  0  0  0  0  0  0  0  0  0  0  0
   13.9152  -13.6769   -1.7294 H   0  0  0  0  0  0  0  0  0  0  0  0
   10.0968  -11.6656   -1.4317 H   0  0  0  0  0  0  0  0  0  0  0  0
  1  2  2  0
  2  3  1  0
  3  4  1  0
  4  5  2  0
  5  6  1  0
  6  7  2  0
  7  8  1  0
  8  9  1  0
  9 10  2  0
 10 11  1  0
 11 12  1  0
 12 13  2  0
 13 14  1  0
 14 15  2  0
 15 16  1  0
 16 17  1  0
 17 18  1  0
 18 19  1  0
 19 20  2  0
 20 21  1  0
 21 22  2  0
 22 23  1  0
 23 24  2  0
 16 25  2  0
  8 26  2  0
  2 27  1  0
 27 28  1  0
 28 29  2  0
 29 30  1  0
 30 31  2  0
 31 32  1  0
 32 33  1  0
 33 34  1  0
 33 35  1  0
 33 36  1  0
 32 37  2  0
 26  4  1  0
 37 28  1  0
 25  9  1  0
 15 11  1  0
 24 19  1  0
  3 38  1  0
  5 39  1  0
  6 40  1  0
  7 41  1  0
 10 42  1  0
 12 43  1  0
 13 44  1  0
 18 45  1  0
 18 46  1  0
 20 47  1  0
 21 48  1  0
 23 49  1  0
 24 50  1  0
 26 51  1  0
 27 52  1  0
 29 53  1  0
 30 54  1  0
 31 55  1  0
 37 56  1  0
M  END
>  <meeko>  (6) 
{"is_sidechain": [false], "free_energy": -8.71, "intermolecular_energy": -11.514, "internal_energy": -1.813}

$$$$
LIB_VYPKGVPXECFUKL__M_PUB_ALL__e8__s20260927
     RDKit          3D

 56 60  0  0  0  0  0  0  0  0999 V2000
   10.5930  -14.5050   -7.7380 O   0  0  0  0  0  0  0  0  0  0  0  0
   11.6190  -13.9180   -8.0550 C   0  0  0  0  0  0  0  0  0  0  0  0
   12.7460  -13.8170   -7.2620 N   0  0  0  0  0  0  0  0  0  0  0  0
   13.0040  -14.4080   -6.0120 C   0  0  0  0  0  0  0  0  0  0  0  0
   13.7090  -15.5860   -5.7970 C   0  0  0  0  0  0  0  0  0  0  0  0
   13.9400  -16.0330   -4.4880 C   0  0  0  0  0  0  0  0  0  0  0  0
   13.4770  -15.3030   -3.3840 C   0  0  0  0  0  0  0  0  0  0  0  0
   12.7630  -14.1220   -3.5850 C   0  0  0  0  0  0  0  0  0  0  0  0
   12.2550  -13.2390   -2.5120 C   0  0  0  0  0  0  0  0  0  0  0  0
   12.9670  -12.1810   -2.0690 C   0  0  0  0  0  0  0  0  0  0  0  0
   12.5400  -11.5410   -0.9160 N   0  0  0  0  0  0  0  0  0  0  0  0
   13.0450  -10.4770   -0.2190 C   0  0  0  0  0  0  0  0  0  0  0  0
   12.2160  -10.3390    0.8760 C   0  0  0  0  0  0  0  0  0  0  0  0
   11.2220  -11.2890    0.8730 N   0  0  0  0  0  0  0  0  0  0  0  0
   11.4480  -11.9950   -0.2170 C   0  0  0  0  0  0  0  0  0  0  0  0
   10.7420  -13.1170   -0.7680 C   0  0  0  0  0  0  0  0  0  0  0  0
    9.7080  -13.5580   -0.0070 O   0  0  0  0  0  0  0  0  0  0  0  0
    8.3720  -13.3450   -0.5080 C   0  0  0  0  0  0  0  0  0  0  0  0
    7.4160  -12.6360    0.4290 C   0  0  0  0  0  0  0  0  0  0  0  0
    7.4120  -11.2380    0.4910 C   0  0  0  0  0  0  0  0  0  0  0  0
    6.4880  -10.6000    1.3050 C   0  0  0  0  0  0  0  0  0  0  0  0
    5.5610  -11.2490    2.0500 N   0  0  0  0  0  0  0  0  0  0  0  0
    5.6270  -12.6040    2.0250 C   0  0  0  0  0  0  0  0  0  0  0  0
    6.5210  -13.3310    1.2460 C   0  0  0  0  0  0  0  0  0  0  0  0
   11.0920  -13.6730   -1.8870 N   0  0  0  0  0  0  0  0  0  0  0  0
   12.5260  -13.7080   -4.9060 C   0  0  0  0  0  0  0  0  0  0  0  0
   11.8390  -13.2660   -9.2630 N   0  0  0  0  0  0  0  0  0  0  0  0
   10.9430  -13.1070  -10.3390 C   0  0  0  0  0  0  0  0  0  0  0  0
   11.3110  -13.1810  -11.6820 C   0  0  0  0  0  0  0  0  0  0  0  0
   10.3560  -13.0160  -12.6890 C   0  0  0  0  0  0  0  0  0  0  0  0
    9.0230  -12.7720  -12.3620 C   0  0  0  0  0  0  0  0  0  0  0  0
    8.6310  -12.6860  -11.0200 C   0  0  0  0  0  0  0  0  0  0  0  0
    7.1910  -12.4450  -10.6490 C   0  0  0  0  0  0  0  0  0  0  0  0
    6.7190  -11.2380  -11.0690 F   0  0  0  0  0  0  0  0  0  0  0  0
    6.9780  -12.4780   -9.3040 F   0  0  0  0  0  0  0  0  0  0  0  0
    6.3550  -13.3790  -11.1820 F   0  0  0  0  0  0  0  0  0  0  0  0
    9.6010  -12.8630  -10.0170 C   0  0  0  0  0  0  0  0  0  0  0  0
   13.5020  -13.2560   -7.6410 H   0  0  0  0  0  0  0  0  0  0  0  0
   14.0852  -16.1669   -6.6520 H   0  0  0  0  0  0  0  0  0  0  0  0
   14.4925  -16.9701   -4.3249 H   0  0  0  0  0  0  0  0  0  0  0  0
   13.6762  -15.6606   -2.3630 H   0  0  0  0  0  0  0  0  0  0  0  0
   13.8616  -11.8362   -2.6083 H   0  0  0  0  0  0  0  0  0  0  0  0
   13.9218   -9.8644   -0.4758 H   0  0  0  0  0  0  0  0  0  0  0  0
   12.3353   -9.5680    1.6515 H   0  0  0  0  0  0  0  0  0  0  0  0
    8.4489  -12.7455   -1.4270 H   0  0  0  0  0  0  0  0  0  0  0  0
    7.9487  -14.3490   -0.6592 H   0  0  0  0  0  0  0  0  0  0  0  0
    8.1328  -10.6524   -0.0986 H   0  0  0  0  0  0  0  0  0  0  0  0
    6.5090   -9.5011    1.3484 H   0  0  0  0  0  0  0  0  0  0  0  0
    4.9275  -13.1644    2.6627 H   0  0  0  0  0  0  0  0  0  0  0  0
    6.5232  -14.4307    1.2727 H   0  0  0  0  0  0  0  0  0  0  0  0
   11.9387  -12.7933   -5.0745 H   0  0  0  0  0  0  0  0  0  0  0  0
   12.7680  -12.8840   -9.3950 H   0  0  0  0  0  0  0  0  0  0  0  0
   12.3607  -13.3706  -11.9508 H   0  0  0  0  0  0  0  0  0  0  0  0
   10.6577  -13.0790  -13.7449 H   0  0  0  0  0  0  0  0  0  0  0  0
    8.2767  -12.6466  -13.1603 H   0  0  0  0  0  0  0  0  0  0  0  0
    9.3007  -12.8089   -8.9602 H   0  0  0  0  0  0  0  0  0  0  0  0
  1  2  2  0
  2  3  1  0
  3  4  1  0
  4  5  2  0
  5  6  1  0
  6  7  2  0
  7  8  1  0
  8  9  1  0
  9 10  2  0
 10 11  1  0
 11 12  1  0
 12 13  2  0
 13 14  1  0
 14 15  2  0
 15 16  1  0
 16 17  1  0
 17 18  1  0
 18 19  1  0
 19 20  2  0
 20 21  1  0
 21 22  2  0
 22 23  1  0
 23 24  2  0
 16 25  2  0
  8 26  2  0
  2 27  1  0
 27 28  1  0
 28 29  2  0
 29 30  1  0
 30 31  2  0
 31 32  1  0
 32 33  1  0
 33 34  1  0
 33 35  1  0
 33 36  1  0
 32 37  2  0
 26  4  1  0
 37 28  1  0
 25  9  1  0
 15 11  1  0
 24 19  1  0
  3 38  1  0
  5 39  1  0
  6 40  1  0
  7 41  1  0
 10 42  1  0
 12 43  1  0
 13 44  1  0
 18 45  1  0
 18 46  1  0
 20 47  1  0
 21 48  1  0
 23 49  1  0
 24 50  1  0
 26 51  1  0
 27 52  1  0
 29 53  1  0
 30 54  1  0
 31 55  1  0
 37 56  1  0
M  END
>  <meeko>  (7) 
{"is_sidechain": [false], "free_energy": -8.678, "intermolecular_energy": -12.499, "internal_energy": -0.783}

$$$$
LIB_VYPKGVPXECFUKL__M_PUB_ALL__e8__s20260927
     RDKit          3D

 56 60  0  0  0  0  0  0  0  0999 V2000
    4.0790  -13.5240   -6.1820 O   0  0  0  0  0  0  0  0  0  0  0  0
    5.1000  -12.9950   -5.7620 C   0  0  0  0  0  0  0  0  0  0  0  0
    5.1580  -12.1490   -4.6710 N   0  0  0  0  0  0  0  0  0  0  0  0
    4.1340  -11.7860   -3.7790 C   0  0  0  0  0  0  0  0  0  0  0  0
    3.2480  -10.7280   -3.9400 C   0  0  0  0  0  0  0  0  0  0  0  0
    2.2340  -10.5130   -2.9940 C   0  0  0  0  0  0  0  0  0  0  0  0
    2.0930  -11.3600   -1.8850 C   0  0  0  0  0  0  0  0  0  0  0  0
    2.9780  -12.4220   -1.7080 C   0  0  0  0  0  0  0  0  0  0  0  0
    2.9140  -13.4110   -0.6070 C   0  0  0  0  0  0  0  0  0  0  0  0
    3.7130  -14.4990   -0.5860 C   0  0  0  0  0  0  0  0  0  0  0  0
    3.4420  -15.4910    0.3440 N   0  0  0  0  0  0  0  0  0  0  0  0
    4.0410  -16.6940    0.5990 C   0  0  0  0  0  0  0  0  0  0  0  0
    3.2880  -17.2640    1.6050 C   0  0  0  0  0  0  0  0  0  0  0  0
    2.2440  -16.4480    1.9710 N   0  0  0  0  0  0  0  0  0  0  0  0
    2.3660  -15.3920    1.1920 C   0  0  0  0  0  0  0  0  0  0  0  0
    1.5800  -14.1940    1.1100 C   0  0  0  0  0  0  0  0  0  0  0  0
    0.4970  -14.1760    1.9300 O   0  0  0  0  0  0  0  0  0  0  0  0
   -0.2640  -12.9530    2.0040 C   0  0  0  0  0  0  0  0  0  0  0  0
   -1.7200  -13.0510    1.5980 C   0  0  0  0  0  0  0  0  0  0  0  0
   -2.7210  -12.6910    2.5080 C   0  0  0  0  0  0  0  0  0  0  0  0
   -4.0470  -12.7240    2.1020 C   0  0  0  0  0  0  0  0  0  0  0  0
   -4.4490  -13.0760    0.8570 N   0  0  0  0  0  0  0  0  0  0  0  0
   -3.4670  -13.4840    0.0140 C   0  0  0  0  0  0  0  0  0  0  0  0
   -2.1130  -13.4910    0.3320 C   0  0  0  0  0  0  0  0  0  0  0  0
    1.8720  -13.2280    0.2940 N   0  0  0  0  0  0  0  0  0  0  0  0
    3.9960  -12.6020   -2.6570 C   0  0  0  0  0  0  0  0  0  0  0  0
    6.3740  -13.1610   -6.2910 N   0  0  0  0  0  0  0  0  0  0  0  0
    6.7550  -13.9160   -7.4180 C   0  0  0  0  0  0  0  0  0  0  0  0
    7.2400  -15.2230   -7.3580 C   0  0  0  0  0  0  0  0  0  0  0  0
    7.5900  -15.9030   -8.5280 C   0  0  0  0  0  0  0  0  0  0  0  0
    7.4600  -15.2830   -9.7690 C   0  0  0  0  0  0  0  0  0  0  0  0
    6.9820  -13.9700   -9.8540 C   0  0  0  0  0  0  0  0  0  0  0  0
    6.8150  -13.2920  -11.1890 C   0  0  0  0  0  0  0  0  0  0  0  0
    5.7290  -13.7290  -11.8870 F   0  0  0  0  0  0  0  0  0  0  0  0
    7.8830  -13.4740  -12.0140 F   0  0  0  0  0  0  0  0  0  0  0  0
    6.6630  -11.9430  -11.0690 F   0  0  0  0  0  0  0  0  0  0  0  0
    6.6250  -13.3000   -8.6710 C   0  0  0  0  0  0  0  0  0  0  0  0
    6.0690  -11.7490   -4.4730 H   0  0  0  0  0  0  0  0  0  0  0  0
    3.3413  -10.0593   -4.8084 H   0  0  0  0  0  0  0  0  0  0  0  0
    1.5406   -9.6690   -3.1240 H   0  0  0  0  0  0  0  0  0  0  0  0
    1.2865  -11.1866   -1.1573 H   0  0  0  0  0  0  0  0  0  0  0  0
    4.5552  -14.5958   -1.2869 H   0  0  0  0  0  0  0  0  0  0  0  0
    4.9305  -17.1158    0.1083 H   0  0  0  0  0  0  0  0  0  0  0  0
    3.4964  -18.2453    2.0562 H   0  0  0  0  0  0  0  0  0  0  0  0
   -0.2279  -12.5967    3.0441 H   0  0  0  0  0  0  0  0  0  0  0  0
    0.2010  -12.2702    1.2777 H   0  0  0  0  0  0  0  0  0  0  0  0
   -2.4594  -12.3858    3.5319 H   0  0  0  0  0  0  0  0  0  0  0  0
   -4.8189  -12.4476    2.8353 H   0  0  0  0  0  0  0  0  0  0  0  0
   -3.7613  -13.8322   -0.9871 H   0  0  0  0  0  0  0  0  0  0  0  0
   -1.3668  -13.8361   -0.3988 H   0  0  0  0  0  0  0  0  0  0  0  0
    4.7152  -13.4212   -2.5095 H   0  0  0  0  0  0  0  0  0  0  0  0
    7.1240  -12.7030   -5.7870 H   0  0  0  0  0  0  0  0  0  0  0  0
    7.3476  -15.7216   -6.3834 H   0  0  0  0  0  0  0  0  0  0  0  0
    7.9702  -16.9335   -8.4687 H   0  0  0  0  0  0  0  0  0  0  0  0
    7.7339  -15.8271  -10.6850 H   0  0  0  0  0  0  0  0  0  0  0  0
    6.2362  -12.2727   -8.7293 H   0  0  0  0  0  0  0  0  0  0  0  0
  1  2  2  0
  2  3  1  0
  3  4  1  0
  4  5  2  0
  5  6  1  0
  6  7  2  0
  7  8  1  0
  8  9  1  0
  9 10  2  0
 10 11  1  0
 11 12  1  0
 12 13  2  0
 13 14  1  0
 14 15  2  0
 15 16  1  0
 16 17  1  0
 17 18  1  0
 18 19  1  0
 19 20  2  0
 20 21  1  0
 21 22  2  0
 22 23  1  0
 23 24  2  0
 16 25  2  0
  8 26  2  0
  2 27  1  0
 27 28  1  0
 28 29  2  0
 29 30  1  0
 30 31  2  0
 31 32  1  0
 32 33  1  0
 33 34  1  0
 33 35  1  0
 33 36  1  0
 32 37  2  0
 26  4  1  0
 37 28  1  0
 25  9  1  0
 15 11  1  0
 24 19  1  0
  3 38  1  0
  5 39  1  0
  6 40  1  0
  7 41  1  0
 10 42  1  0
 12 43  1  0
 13 44  1  0
 18 45  1  0
 18 46  1  0
 20 47  1  0
 21 48  1  0
 23 49  1  0
 24 50  1  0
 26 51  1  0
 27 52  1  0
 29 53  1  0
 30 54  1  0
 31 55  1  0
 37 56  1  0
M  END
>  <meeko>  (8) 
{"is_sidechain": [false], "free_energy": -8.614, "intermolecular_energy": -11.974, "internal_energy": -1.218}

$$$$
LIB_VYPKGVPXECFUKL__M_PUB_ALL__e8__s20260927
     RDKit          3D

 56 60  0  0  0  0  0  0  0  0999 V2000
    7.2320  -10.6170   -1.6000 O   0  0  0  0  0  0  0  0  0  0  0  0
    7.1280  -11.8300   -1.7290 C   0  0  0  0  0  0  0  0  0  0  0  0
    5.9900  -12.4820   -2.1640 N   0  0  0  0  0  0  0  0  0  0  0  0
    4.7800  -11.9350   -2.6250 C   0  0  0  0  0  0  0  0  0  0  0  0
    4.5250  -11.4900   -3.9170 C   0  0  0  0  0  0  0  0  0  0  0  0
    3.2490  -11.0170   -4.2550 C   0  0  0  0  0  0  0  0  0  0  0  0
    2.2150  -10.9920   -3.3080 C   0  0  0  0  0  0  0  0  0  0  0  0
    2.4580  -11.4290   -2.0070 C   0  0  0  0  0  0  0  0  0  0  0  0
    1.4480  -11.4930   -0.9260 C   0  0  0  0  0  0  0  0  0  0  0  0
    0.7260  -10.4100   -0.5660 C   0  0  0  0  0  0  0  0  0  0  0  0
   -0.0280  -10.4830    0.5950 N   0  0  0  0  0  0  0  0  0  0  0  0
   -0.8320   -9.5710    1.2230 C   0  0  0  0  0  0  0  0  0  0  0  0
   -1.2660  -10.2050    2.3690 C   0  0  0  0  0  0  0  0  0  0  0  0
   -0.7490  -11.4750    2.4640 N   0  0  0  0  0  0  0  0  0  0  0  0
   -0.0080  -11.6080    1.3830 C   0  0  0  0  0  0  0  0  0  0  0  0
    0.7760  -12.7170    0.9160 C   0  0  0  0  0  0  0  0  0  0  0  0
    0.8050  -13.7790    1.7620 O   0  0  0  0  0  0  0  0  0  0  0  0
    0.2670  -15.0280    1.2830 C   0  0  0  0  0  0  0  0  0  0  0  0
   -0.9100  -15.5860    2.0570 C   0  0  0  0  0  0  0  0  0  0  0  0
   -0.8110  -16.8450    2.6600 C   0  0  0  0  0  0  0  0  0  0  0  0
   -1.8730  -17.3160    3.4190 C   0  0  0  0  0  0  0  0  0  0  0  0
   -3.0160  -16.6230    3.6320 N   0  0  0  0  0  0  0  0  0  0  0  0
   -3.1150  -15.4340    2.9850 C   0  0  0  0  0  0  0  0  0  0  0  0
   -2.1090  -14.8830    2.1990 C   0  0  0  0  0  0  0  0  0  0  0  0
    1.4230  -12.6830   -0.2080 N   0  0  0  0  0  0  0  0  0  0  0  0
    3.7490  -11.8780   -1.6880 C   0  0  0  0  0  0  0  0  0  0  0  0
    8.1300  -12.7590   -1.4770 N   0  0  0  0  0  0  0  0  0  0  0  0
    9.4320  -12.5220   -0.9930 C   0  0  0  0  0  0  0  0  0  0  0  0
    9.7460  -12.3370    0.3530 C   0  0  0  0  0  0  0  0  0  0  0  0
   11.0680  -12.1120    0.7490 C   0  0  0  0  0  0  0  0  0  0  0  0
   12.0890  -12.0680   -0.1980 C   0  0  0  0  0  0  0  0  0  0  0  0
   11.7970  -12.2440   -1.5570 C   0  0  0  0  0  0  0  0  0  0  0  0
   12.8910  -12.2210   -2.5920 C   0  0  0  0  0  0  0  0  0  0  0  0
   12.4800  -11.7530   -3.8040 F   0  0  0  0  0  0  0  0  0  0  0  0
   13.4210  -13.4530   -2.8320 F   0  0  0  0  0  0  0  0  0  0  0  0
   13.9370  -11.4310   -2.2220 F   0  0  0  0  0  0  0  0  0  0  0  0
   10.4650  -12.4780   -1.9400 C   0  0  0  0  0  0  0  0  0  0  0  0
    6.0400  -13.4950   -2.1730 H   0  0  0  0  0  0  0  0  0  0  0  0
    5.3234  -11.5089   -4.6735 H   0  0  0  0  0  0  0  0  0  0  0  0
    3.0563  -10.6604   -5.2776 H   0  0  0  0  0  0  0  0  0  0  0  0
    1.2159  -10.6289   -3.5909 H   0  0  0  0  0  0  0  0  0  0  0  0
    0.7359   -9.4954   -1.1770 H   0  0  0  0  0  0  0  0  0  0  0  0
   -1.0788   -8.5531    0.8870 H   0  0  0  0  0  0  0  0  0  0  0  0
   -1.9395   -9.7521    3.1115 H   0  0  0  0  0  0  0  0  0  0  0  0
   -0.0556  -14.8781    0.2421 H   0  0  0  0  0  0  0  0  0  0  0  0
    1.0757  -15.7640    1.4028 H   0  0  0  0  0  0  0  0  0  0  0  0
    0.0968  -17.4533    2.5340 H   0  0  0  0  0  0  0  0  0  0  0  0
   -1.7803  -18.3127    3.8751 H   0  0  0  0  0  0  0  0  0  0  0  0
   -4.0530  -14.8690    3.0893 H   0  0  0  0  0  0  0  0  0  0  0  0
   -2.2541  -13.9138    1.6994 H   0  0  0  0  0  0  0  0  0  0  0  0
    3.9560  -12.1981   -0.6562 H   0  0  0  0  0  0  0  0  0  0  0  0
    7.9040  -13.7220   -1.6950 H   0  0  0  0  0  0  0  0  0  0  0  0
    8.9476  -12.3683    1.1090 H   0  0  0  0  0  0  0  0  0  0  0  0
   11.3032  -11.9690    1.8140 H   0  0  0  0  0  0  0  0  0  0  0  0
   13.1270  -11.8946    0.1221 H   0  0  0  0  0  0  0  0  0  0  0  0
   10.2284  -12.6296   -3.0035 H   0  0  0  0  0  0  0  0  0  0  0  0
  1  2  2  0
  2  3  1  0
  3  4  1  0
  4  5  2  0
  5  6  1  0
  6  7  2  0
  7  8  1  0
  8  9  1  0
  9 10  2  0
 10 11  1  0
 11 12  1  0
 12 13  2  0
 13 14  1  0
 14 15  2  0
 15 16  1  0
 16 17  1  0
 17 18  1  0
 18 19  1  0
 19 20  2  0
 20 21  1  0
 21 22  2  0
 22 23  1  0
 23 24  2  0
 16 25  2  0
  8 26  2  0
  2 27  1  0
 27 28  1  0
 28 29  2  0
 29 30  1  0
 30 31  2  0
 31 32  1  0
 32 33  1  0
 33 34  1  0
 33 35  1  0
 33 36  1  0
 32 37  2  0
 26  4  1  0
 37 28  1  0
 25  9  1  0
 15 11  1  0
 24 19  1  0
  3 38  1  0
  5 39  1  0
  6 40  1  0
  7 41  1  0
 10 42  1  0
 12 43  1  0
 13 44  1  0
 18 45  1  0
 18 46  1  0
 20 47  1  0
 21 48  1  0
 23 49  1  0
 24 50  1  0
 26 51  1  0
 27 52  1  0
 29 53  1  0
 30 54  1  0
 31 55  1  0
 37 56  1  0
M  END
>  <meeko>  (9) 
{"is_sidechain": [false], "free_energy": -8.451, "intermolecular_energy": -11.774, "internal_energy": -1.189}

$$$$
