LIB_OLQWTLPWZOPGNO__M_PUB_ALL__e8__s20260927
     RDKit          3D

 64 68  0  0  0  0  0  0  0  0999 V2000
    4.0350  -13.2800   -6.2010 O   0  0  0  0  0  0  0  0  0  0  0  0
    5.0660  -12.9320   -5.6340 C   0  0  0  0  0  0  0  0  0  0  0  0
    5.1230  -12.2650   -4.4210 N   0  0  0  0  0  0  0  0  0  0  0  0
    4.0390  -11.8250   -3.6260 C   0  0  0  0  0  0  0  0  0  0  0  0
    3.3440  -10.6910   -4.0600 C   0  0  0  0  0  0  0  0  0  0  0  0
    2.2480  -10.2080   -3.3390 C   0  0  0  0  0  0  0  0  0  0  0  0
    1.8370  -10.8530   -2.1720 C   0  0  0  0  0  0  0  0  0  0  0  0
    2.5250  -11.9810   -1.7080 C   0  0  0  0  0  0  0  0  0  0  0  0
    2.1210  -12.7020   -0.4760 C   0  0  0  0  0  0  0  0  0  0  0  0
    2.7530  -13.8410   -0.1260 C   0  0  0  0  0  0  0  0  0  0  0  0
    2.3100  -14.5160    0.9930 N   0  0  0  0  0  0  0  0  0  0  0  0
    2.7120  -15.6740    1.5960 C   0  0  0  0  0  0  0  0  0  0  0  0
    1.8560  -15.8390    2.6660 C   0  0  0  0  0  0  0  0  0  0  0  0
    0.9360  -14.8170    2.7320 N   0  0  0  0  0  0  0  0  0  0  0  0
    1.2520  -14.0410    1.7160 C   0  0  0  0  0  0  0  0  0  0  0  0
    0.6080  -12.8060    1.3090 C   0  0  0  0  0  0  0  0  0  0  0  0
   -0.4550  -12.3100    2.0330 N   0  0  0  0  0  0  0  0  0  0  0  0
   -1.0440  -11.0030    1.8640 C   0  0  0  0  0  0  0  0  0  0  0  0
   -2.4580  -11.0650    1.2590 C   0  0  0  0  0  0  0  0  0  0  0  0
   -2.9630  -12.5060    1.0780 C   0  0  0  0  0  0  0  0  0  0  0  0
   -4.3750  -12.5290    0.5070 C   0  0  0  0  0  0  0  0  0  0  0  0
   -4.4090  -11.7600   -0.7650 N   0  0  0  0  0  0  0  0  0  0  0  0
   -3.9740  -10.3380   -0.6350 C   0  0  0  0  0  0  0  0  0  0  0  0
   -2.5710  -10.2910   -0.0610 C   0  0  0  0  0  0  0  0  0  0  0  0
    1.0460  -12.1800    0.2410 N   0  0  0  0  0  0  0  0  0  0  0  0
    3.6210  -12.4560   -2.4510 C   0  0  0  0  0  0  0  0  0  0  0  0
    6.3370  -13.1380   -6.1520 N   0  0  0  0  0  0  0  0  0  0  0  0
    6.6670  -13.8660   -7.3160 C   0  0  0  0  0  0  0  0  0  0  0  0
    7.0510  -15.2020   -7.1670 C   0  0  0  0  0  0  0  0  0  0  0  0
    7.4220  -15.9620   -8.2810 C   0  0  0  0  0  0  0  0  0  0  0  0
    7.4140  -15.3950   -9.5550 C   0  0  0  0  0  0  0  0  0  0  0  0
    7.0210  -14.0630   -9.7280 C   0  0  0  0  0  0  0  0  0  0  0  0
    6.9920  -13.4200  -11.0900 C   0  0  0  0  0  0  0  0  0  0  0  0
    6.9320  -12.0620  -11.0570 F   0  0  0  0  0  0  0  0  0  0  0  0
    8.0710  -13.7390  -11.8530 F   0  0  0  0  0  0  0  0  0  0  0  0
    5.9000  -13.8090  -11.8320 F   0  0  0  0  0  0  0  0  0  0  0  0
    6.6240  -13.3210   -8.6030 C   0  0  0  0  0  0  0  0  0  0  0  0
    6.0400  -12.0850   -4.0430 H   0  0  0  0  0  0  0  0  0  0  0  0
    3.6630  -10.1745   -4.9773 H   0  0  0  0  0  0  0  0  0  0  0  0
    1.7082   -9.3172   -3.6926 H   0  0  0  0  0  0  0  0  0  0  0  0
    0.9684  -10.4736   -1.6138 H   0  0  0  0  0  0  0  0  0  0  0  0
    3.5991  -14.2217   -0.7169 H   0  0  0  0  0  0  0  0  0  0  0  0
    3.5395  -16.3328    1.2939 H   0  0  0  0  0  0  0  0  0  0  0  0
    1.9028  -16.6789    3.3748 H   0  0  0  0  0  0  0  0  0  0  0  0
   -0.6660  -12.8240    2.8860 H   0  0  0  0  0  0  0  0  0  0  0  0
   -1.1026  -10.5131    2.8472 H   0  0  0  0  0  0  0  0  0  0  0  0
   -0.4076  -10.4383    1.1668 H   0  0  0  0  0  0  0  0  0  0  0  0
   -3.1085  -10.5708    1.9956 H   0  0  0  0  0  0  0  0  0  0  0  0
   -2.2894  -13.0382    0.3902 H   0  0  0  0  0  0  0  0  0  0  0  0
   -2.9784  -12.9952    2.0631 H   0  0  0  0  0  0  0  0  0  0  0  0
   -4.6755  -13.5695    0.3143 H   0  0  0  0  0  0  0  0  0  0  0  0
   -5.0693  -12.0739    1.2287 H   0  0  0  0  0  0  0  0  0  0  0  0
   -3.8170  -12.2200   -1.4700 H   0  0  0  0  0  0  0  0  0  0  0  0
   -5.3630  -11.7610   -1.1580 H   0  0  0  0  0  0  0  0  0  0  0  0
   -3.9815   -9.8599   -1.6256 H   0  0  0  0  0  0  0  0  0  0  0  0
   -4.6632   -9.8027    0.0347 H   0  0  0  0  0  0  0  0  0  0  0  0
   -1.8751  -10.7312   -0.7903 H   0  0  0  0  0  0  0  0  0  0  0  0
   -2.3249   -9.2384    0.1429 H   0  0  0  0  0  0  0  0  0  0  0  0
    4.1625  -13.3462   -2.0985 H   0  0  0  0  0  0  0  0  0  0  0  0
    7.0960  -12.6400   -5.7090 H   0  0  0  0  0  0  0  0  0  0  0  0
    7.0614  -15.6588   -6.1664 H   0  0  0  0  0  0  0  0  0  0  0  0
    7.7217  -17.0124   -8.1515 H   0  0  0  0  0  0  0  0  0  0  0  0
    7.7170  -15.9956  -10.4253 H   0  0  0  0  0  0  0  0  0  0  0  0
    6.2713  -12.2878   -8.7377 H   0  0  0  0  0  0  0  0  0  0  0  0
  1  2  2  0
  2  3  1  0
  3  4  1  0
  4  5  2  0
  5  6  1  0
  6  7  2  0
  7  8  1  0
  8  9  1  0
  9 10  2  0
 10 11  1  0
 11 12  1  0
 12 13  2  0
 13 14  1  0
 14 15  2  0
 15 16  1  0
 16 17  1  0
 17 18  1  0
 18 19  1  0
 19 20  1  0
 20 21  1  0
 21 22  1  0
 22 23  1  0
 23 24  1  0
 16 25  2  0
  8 26  2  0
  2 27  1  0
 27 28  1  0
 28 29  2  0
 29 30  1  0
 30 31  2  0
 31 32  1  0
 32 33  1  0
 33 34  1  0
 33 35  1  0
 33 36  1  0
 32 37  2  0
 26  4  1  0
 37 28  1  0
 25  9  1  0
 15 11  1  0
 24 19  1  0
  3 38  1  0
  5 39  1  0
  6 40  1  0
  7 41  1  0
 10 42  1  0
 12 43  1  0
 13 44  1  0
 17 45  1  0
 18 46  1  0
 18 47  1  0
 19 48  1  0
 20 49  1  0
 20 50  1  0
 21 51  1  0
 21 52  1  0
 22 53  1  0
 22 54  1  0
 23 55  1  0
 23 56  1  0
 24 57  1  0
 24 58  1  0
 26 59  1  0
 27 60  1  0
 29 61  1  0
 30 62  1  0
 31 63  1  0
 37 64  1  0
M  CHG  1  22   1
M  END
>  <meeko>  (1) 
{"is_sidechain": [false], "free_energy": -9.544, "intermolecular_energy": -12.891, "internal_energy": -1.112}

$$$$
LIB_OLQWTLPWZOPGNO__M_PUB_ALL__e8__s20260927
     RDKit          3D

 64 68  0  0  0  0  0  0  0  0999 V2000
    7.4560  -10.9690   -2.4490 O   0  0  0  0  0  0  0  0  0  0  0  0
    7.2900  -12.1540   -2.7200 C   0  0  0  0  0  0  0  0  0  0  0  0
    6.0730  -12.7400   -3.0270 N   0  0  0  0  0  0  0  0  0  0  0  0
    4.8010  -12.1220   -3.0540 C   0  0  0  0  0  0  0  0  0  0  0  0
    4.4340  -11.4600   -4.2310 C   0  0  0  0  0  0  0  0  0  0  0  0
    3.1840  -10.8450   -4.3420 C   0  0  0  0  0  0  0  0  0  0  0  0
    2.2880  -10.8800   -3.2730 C   0  0  0  0  0  0  0  0  0  0  0  0
    2.6360  -11.5210   -2.0790 C   0  0  0  0  0  0  0  0  0  0  0  0
    1.7140  -11.5890   -0.9190 C   0  0  0  0  0  0  0  0  0  0  0  0
    0.7260  -10.6800   -0.7920 C   0  0  0  0  0  0  0  0  0  0  0  0
   -0.0730  -10.7380    0.3310 N   0  0  0  0  0  0  0  0  0  0  0  0
   -1.1250   -9.9790    0.7590 C   0  0  0  0  0  0  0  0  0  0  0  0
   -1.4890  -10.5210    1.9750 C   0  0  0  0  0  0  0  0  0  0  0  0
   -0.6850  -11.5880    2.3070 N   0  0  0  0  0  0  0  0  0  0  0  0
    0.1430  -11.6890    1.2880 C   0  0  0  0  0  0  0  0  0  0  0  0
    1.2100  -12.6540    1.1050 C   0  0  0  0  0  0  0  0  0  0  0  0
    1.4360  -13.6250    2.0590 N   0  0  0  0  0  0  0  0  0  0  0  0
    2.3160  -14.7580    1.9040 C   0  0  0  0  0  0  0  0  0  0  0  0
    1.5810  -16.0120    1.3960 C   0  0  0  0  0  0  0  0  0  0  0  0
    1.7180  -16.2060   -0.1220 C   0  0  0  0  0  0  0  0  0  0  0  0
    1.0050  -17.4700   -0.5850 C   0  0  0  0  0  0  0  0  0  0  0  0
   -0.4160  -17.4260   -0.1530 N   0  0  0  0  0  0  0  0  0  0  0  0
   -0.6060  -17.2870    1.3210 C   0  0  0  0  0  0  0  0  0  0  0  0
    0.1020  -16.0360    1.8050 C   0  0  0  0  0  0  0  0  0  0  0  0
    1.9600  -12.5800    0.0290 N   0  0  0  0  0  0  0  0  0  0  0  0
    3.8960  -12.1420   -1.9890 C   0  0  0  0  0  0  0  0  0  0  0  0
    8.3130  -13.0930   -2.7290 N   0  0  0  0  0  0  0  0  0  0  0  0
    9.6930  -12.8410   -2.5590 C   0  0  0  0  0  0  0  0  0  0  0  0
   10.5040  -12.8400   -3.6970 C   0  0  0  0  0  0  0  0  0  0  0  0
   11.8820  -12.6300   -3.5860 C   0  0  0  0  0  0  0  0  0  0  0  0
   12.4640  -12.4200   -2.3360 C   0  0  0  0  0  0  0  0  0  0  0  0
   11.6680  -12.4040   -1.1850 C   0  0  0  0  0  0  0  0  0  0  0  0
   12.2610  -12.1710    0.1800 C   0  0  0  0  0  0  0  0  0  0  0  0
   11.3900  -11.6270    1.0730 F   0  0  0  0  0  0  0  0  0  0  0  0
   12.7400  -13.3070    0.7540 F   0  0  0  0  0  0  0  0  0  0  0  0
   13.3290  -11.3050    0.1500 F   0  0  0  0  0  0  0  0  0  0  0  0
   10.2810  -12.5880   -1.3170 C   0  0  0  0  0  0  0  0  0  0  0  0
    6.0880  -13.7160   -3.2810 H   0  0  0  0  0  0  0  0  0  0  0  0
    5.1362  -11.4233   -5.0770 H   0  0  0  0  0  0  0  0  0  0  0  0
    2.9058  -10.3321   -5.2745 H   0  0  0  0  0  0  0  0  0  0  0  0
    1.3025  -10.4010   -3.3695 H   0  0  0  0  0  0  0  0  0  0  0  0
    0.5617   -9.9130   -1.5631 H   0  0  0  0  0  0  0  0  0  0  0  0
   -1.5832   -9.1210    0.2453 H   0  0  0  0  0  0  0  0  0  0  0  0
   -2.3151  -10.1484    2.5985 H   0  0  0  0  0  0  0  0  0  0  0  0
    0.7530  -13.6460    2.8130 H   0  0  0  0  0  0  0  0  0  0  0  0
    3.1049  -14.4957    1.1836 H   0  0  0  0  0  0  0  0  0  0  0  0
    2.7335  -14.9941    2.8939 H   0  0  0  0  0  0  0  0  0  0  0  0
    2.0811  -16.8587    1.8890 H   0  0  0  0  0  0  0  0  0  0  0  0
    1.2783  -15.3381   -0.6353 H   0  0  0  0  0  0  0  0  0  0  0  0
    2.7866  -16.3014   -0.3648 H   0  0  0  0  0  0  0  0  0  0  0  0
    1.0525  -17.5364   -1.6820 H   0  0  0  0  0  0  0  0  0  0  0  0
    1.4950  -18.3495   -0.1419 H   0  0  0  0  0  0  0  0  0  0  0  0
   -0.9010  -16.6470   -0.6200 H   0  0  0  0  0  0  0  0  0  0  0  0
   -0.9080  -18.2810   -0.4530 H   0  0  0  0  0  0  0  0  0  0  0  0
   -1.6799  -17.2115    1.5470 H   0  0  0  0  0  0  0  0  0  0  0  0
   -0.1858  -18.1670    1.8300 H   0  0  0  0  0  0  0  0  0  0  0  0
   -0.3989  -15.1564    1.3744 H   0  0  0  0  0  0  0  0  0  0  0  0
    0.0553  -16.0253    2.9040 H   0  0  0  0  0  0  0  0  0  0  0  0
    4.1754  -12.6558   -1.0574 H   0  0  0  0  0  0  0  0  0  0  0  0
    8.0400  -14.0640   -2.7650 H   0  0  0  0  0  0  0  0  0  0  0  0
   10.0551  -13.0056   -4.6875 H   0  0  0  0  0  0  0  0  0  0  0  0
   12.5101  -12.6304   -4.4890 H   0  0  0  0  0  0  0  0  0  0  0  0
   13.5502  -12.2667   -2.2547 H   0  0  0  0  0  0  0  0  0  0  0  0
    9.6438  -12.5316   -0.4222 H   0  0  0  0  0  0  0  0  0  0  0  0
  1  2  2  0
  2  3  1  0
  3  4  1  0
  4  5  2  0
  5  6  1  0
  6  7  2  0
  7  8  1  0
  8  9  1  0
  9 10  2  0
 10 11  1  0
 11 12  1  0
 12 13  2  0
 13 14  1  0
 14 15  2  0
 15 16  1  0
 16 17  1  0
 17 18  1  0
 18 19  1  0
 19 20  1  0
 20 21  1  0
 21 22  1  0
 22 23  1  0
 23 24  1  0
 16 25  2  0
  8 26  2  0
  2 27  1  0
 27 28  1  0
 28 29  2  0
 29 30  1  0
 30 31  2  0
 31 32  1  0
 32 33  1  0
 33 34  1  0
 33 35  1  0
 33 36  1  0
 32 37  2  0
 26  4  1  0
 37 28  1  0
 25  9  1  0
 15 11  1  0
 24 19  1  0
  3 38  1  0
  5 39  1  0
  6 40  1  0
  7 41  1  0
 10 42  1  0
 12 43  1  0
 13 44  1  0
 17 45  1  0
 18 46  1  0
 18 47  1  0
 19 48  1  0
 20 49  1  0
 20 50  1  0
 21 51  1  0
 21 52  1  0
 22 53  1  0
 22 54  1  0
 23 55  1  0
 23 56  1  0
 24 57  1  0
 24 58  1  0
 26 59  1  0
 27 60  1  0
 29 61  1  0
 30 62  1  0
 31 63  1  0
 37 64  1  0
M  CHG  1  22   1
M  END
>  <meeko>  (2) 
{"is_sidechain": [false], "free_energy": -9.206, "intermolecular_energy": -12.307, "internal_energy": -1.24}

$$$$
LIB_OLQWTLPWZOPGNO__M_PUB_ALL__e8__s20260927
     RDKit          3D

 64 68  0  0  0  0  0  0  0  0999 V2000
    7.4890  -10.9690   -2.4840 O   0  0  0  0  0  0  0  0  0  0  0  0
    7.3600  -12.1210   -2.8840 C   0  0  0  0  0  0  0  0  0  0  0  0
    6.1670  -12.6950   -3.2910 N   0  0  0  0  0  0  0  0  0  0  0  0
    4.8820  -12.1040   -3.2960 C   0  0  0  0  0  0  0  0  0  0  0  0
    4.4690  -11.4760   -4.4760 C   0  0  0  0  0  0  0  0  0  0  0  0
    3.2040  -10.8880   -4.5650 C   0  0  0  0  0  0  0  0  0  0  0  0
    2.3390  -10.9170   -3.4710 C   0  0  0  0  0  0  0  0  0  0  0  0
    2.7330  -11.5250   -2.2730 C   0  0  0  0  0  0  0  0  0  0  0  0
    1.8450  -11.5850   -1.0870 C   0  0  0  0  0  0  0  0  0  0  0  0
    0.8890  -10.6490   -0.9140 C   0  0  0  0  0  0  0  0  0  0  0  0
    0.1230  -10.7030    0.2320 N   0  0  0  0  0  0  0  0  0  0  0  0
   -0.8920   -9.9200    0.7050 C   0  0  0  0  0  0  0  0  0  0  0  0
   -1.2350  -10.4720    1.9220 C   0  0  0  0  0  0  0  0  0  0  0  0
   -0.4540  -11.5680    2.2120 N   0  0  0  0  0  0  0  0  0  0  0  0
    0.3390  -11.6760    1.1660 C   0  0  0  0  0  0  0  0  0  0  0  0
    1.3710  -12.6700    0.9340 C   0  0  0  0  0  0  0  0  0  0  0  0
    1.5950  -13.6630    1.8640 N   0  0  0  0  0  0  0  0  0  0  0  0
    2.4350  -14.8190    1.6640 C   0  0  0  0  0  0  0  0  0  0  0  0
    3.8960  -14.4430    1.3550 C   0  0  0  0  0  0  0  0  0  0  0  0
    4.7490  -15.6570    0.9530 C   0  0  0  0  0  0  0  0  0  0  0  0
    6.1790  -15.2440    0.6270 C   0  0  0  0  0  0  0  0  0  0  0  0
    6.7600  -14.5090    1.7810 N   0  0  0  0  0  0  0  0  0  0  0  0
    5.9950  -13.2910    2.1820 C   0  0  0  0  0  0  0  0  0  0  0  0
    4.5650  -13.6790    2.5070 C   0  0  0  0  0  0  0  0  0  0  0  0
    2.0890  -12.6000   -0.1630 N   0  0  0  0  0  0  0  0  0  0  0  0
    4.0080  -12.1180   -2.2060 C   0  0  0  0  0  0  0  0  0  0  0  0
    8.4040  -13.0330   -2.9570 N   0  0  0  0  0  0  0  0  0  0  0  0
    9.7710  -12.7720   -2.7150 C   0  0  0  0  0  0  0  0  0  0  0  0
   10.6400  -12.7590   -3.8100 C   0  0  0  0  0  0  0  0  0  0  0  0
   12.0090  -12.5400   -3.6270 C   0  0  0  0  0  0  0  0  0  0  0  0
   12.5240  -12.3340   -2.3480 C   0  0  0  0  0  0  0  0  0  0  0  0
   11.6710  -12.3310   -1.2390 C   0  0  0  0  0  0  0  0  0  0  0  0
   12.1920  -12.1030    0.1560 C   0  0  0  0  0  0  0  0  0  0  0  0
   11.4740  -11.1940    0.8700 F   0  0  0  0  0  0  0  0  0  0  0  0
   12.2260  -13.2380    0.9040 F   0  0  0  0  0  0  0  0  0  0  0  0
   13.4820  -11.6270    0.1650 F   0  0  0  0  0  0  0  0  0  0  0  0
   10.2940  -12.5240   -1.4430 C   0  0  0  0  0  0  0  0  0  0  0  0
    6.2130  -13.6390   -3.6450 H   0  0  0  0  0  0  0  0  0  0  0  0
    5.1463  -11.4447   -5.3422 H   0  0  0  0  0  0  0  0  0  0  0  0
    2.8898  -10.4012   -5.5001 H   0  0  0  0  0  0  0  0  0  0  0  0
    1.3417  -10.4596   -3.5500 H   0  0  0  0  0  0  0  0  0  0  0  0
    0.7247   -9.8638   -1.6666 H   0  0  0  0  0  0  0  0  0  0  0  0
   -1.3391   -9.0396    0.2202 H   0  0  0  0  0  0  0  0  0  0  0  0
   -2.0303  -10.0860    2.5765 H   0  0  0  0  0  0  0  0  0  0  0  0
    0.9350  -13.6770    2.6390 H   0  0  0  0  0  0  0  0  0  0  0  0
    2.4145  -15.4317    2.5774 H   0  0  0  0  0  0  0  0  0  0  0  0
    2.0423  -15.3702    0.7969 H   0  0  0  0  0  0  0  0  0  0  0  0
    3.8434  -13.7682    0.4879 H   0  0  0  0  0  0  0  0  0  0  0  0
    4.7644  -16.3758    1.7855 H   0  0  0  0  0  0  0  0  0  0  0  0
    4.3052  -16.1117    0.0551 H   0  0  0  0  0  0  0  0  0  0  0  0
    6.7819  -16.1412    0.4231 H   0  0  0  0  0  0  0  0  0  0  0  0
    6.1785  -14.5921   -0.2590 H   0  0  0  0  0  0  0  0  0  0  0  0
    6.8310  -15.1340    2.5950 H   0  0  0  0  0  0  0  0  0  0  0  0
    7.7260  -14.2160    1.5690 H   0  0  0  0  0  0  0  0  0  0  0  0
    6.4632  -12.8389    3.0687 H   0  0  0  0  0  0  0  0  0  0  0  0
    6.0002  -12.5650    1.3556 H   0  0  0  0  0  0  0  0  0  0  0  0
    4.5659  -14.3178    3.4025 H   0  0  0  0  0  0  0  0  0  0  0  0
    3.9939  -12.7542    2.6760 H   0  0  0  0  0  0  0  0  0  0  0  0
    4.3243  -12.6048   -1.2717 H   0  0  0  0  0  0  0  0  0  0  0  0
    8.1560  -14.0000   -3.1040 H   0  0  0  0  0  0  0  0  0  0  0  0
   10.2439  -12.9223   -4.8232 H   0  0  0  0  0  0  0  0  0  0  0  0
   12.6828  -12.5302   -4.4965 H   0  0  0  0  0  0  0  0  0  0  0  0
   13.6035  -12.1734   -2.2104 H   0  0  0  0  0  0  0  0  0  0  0  0
    9.6118  -12.4788   -0.5812 H   0  0  0  0  0  0  0  0  0  0  0  0
  1  2  2  0
  2  3  1  0
  3  4  1  0
  4  5  2  0
  5  6  1  0
  6  7  2  0
  7  8  1  0
  8  9  1  0
  9 10  2  0
 10 11  1  0
 11 12  1  0
 12 13  2  0
 13 14  1  0
 14 15  2  0
 15 16  1  0
 16 17  1  0
 17 18  1  0
 18 19  1  0
 19 20  1  0
 20 21  1  0
 21 22  1  0
 22 23  1  0
 23 24  1  0
 16 25  2  0
  8 26  2  0
  2 27  1  0
 27 28  1  0
 28 29  2  0
 29 30  1  0
 30 31  2  0
 31 32  1  0
 32 33  1  0
 33 34  1  0
 33 35  1  0
 33 36  1  0
 32 37  2  0
 26  4  1  0
 37 28  1  0
 25  9  1  0
 15 11  1  0
 24 19  1  0
  3 38  1  0
  5 39  1  0
  6 40  1  0
  7 41  1  0
 10 42  1  0
 12 43  1  0
 13 44  1  0
 17 45  1  0
 18 46  1  0
 18 47  1  0
 19 48  1  0
 20 49  1  0
 20 50  1  0
 21 51  1  0
 21 52  1  0
 22 53  1  0
 22 54  1  0
 23 55  1  0
 23 56  1  0
 24 57  1  0
 24 58  1  0
 26 59  1  0
 27 60  1  0
 29 61  1  0
 30 62  1  0
 31 63  1  0
 37 64  1  0
M  CHG  1  22   1
M  END
>  <meeko>  (3) 
{"is_sidechain": [false], "free_energy": -9.116, "intermolecular_energy": -12.356, "internal_energy": -1.07}

$$$$
LIB_OLQWTLPWZOPGNO__M_PUB_ALL__e8__s20260927
     RDKit          3D

 64 68  0  0  0  0  0  0  0  0999 V2000
    7.2210  -10.8280   -1.1910 O   0  0  0  0  0  0  0  0  0  0  0  0
    7.1310  -12.0390   -1.3650 C   0  0  0  0  0  0  0  0  0  0  0  0
    5.9790  -12.7070   -1.7420 N   0  0  0  0  0  0  0  0  0  0  0  0
    4.6940  -12.1560   -1.9620 C   0  0  0  0  0  0  0  0  0  0  0  0
    4.4410  -11.6000   -3.2220 C   0  0  0  0  0  0  0  0  0  0  0  0
    3.1890  -11.0570   -3.5220 C   0  0  0  0  0  0  0  0  0  0  0  0
    2.1760  -11.0570   -2.5620 C   0  0  0  0  0  0  0  0  0  0  0  0
    2.4080  -11.5920   -1.2890 C   0  0  0  0  0  0  0  0  0  0  0  0
    1.3600  -11.6200   -0.2400 C   0  0  0  0  0  0  0  0  0  0  0  0
    0.4310  -10.6430   -0.1920 C   0  0  0  0  0  0  0  0  0  0  0  0
   -0.4910  -10.6700    0.8350 N   0  0  0  0  0  0  0  0  0  0  0  0
   -1.5270   -9.8450    1.1700 C   0  0  0  0  0  0  0  0  0  0  0  0
   -2.0620  -10.3900    2.3210 C   0  0  0  0  0  0  0  0  0  0  0  0
   -1.3780  -11.5210    2.7030 N   0  0  0  0  0  0  0  0  0  0  0  0
   -0.4510  -11.6580    1.7780 C   0  0  0  0  0  0  0  0  0  0  0  0
    0.5590  -12.6950    1.6800 C   0  0  0  0  0  0  0  0  0  0  0  0
    0.6070  -13.7040    2.6200 N   0  0  0  0  0  0  0  0  0  0  0  0
    1.4160  -14.8950    2.5250 C   0  0  0  0  0  0  0  0  0  0  0  0
    0.7140  -16.0260    1.7530 C   0  0  0  0  0  0  0  0  0  0  0  0
    1.2440  -16.1840    0.3190 C   0  0  0  0  0  0  0  0  0  0  0  0
    0.5490  -17.3290   -0.4060 C   0  0  0  0  0  0  0  0  0  0  0  0
   -0.9220  -17.1180   -0.3730 N   0  0  0  0  0  0  0  0  0  0  0  0
   -1.4970  -17.0070    1.0000 C   0  0  0  0  0  0  0  0  0  0  0  0
   -0.8140  -15.8750    1.7430 C   0  0  0  0  0  0  0  0  0  0  0  0
    1.4270  -12.6500    0.6960 N   0  0  0  0  0  0  0  0  0  0  0  0
    3.6730  -12.1420   -1.0090 C   0  0  0  0  0  0  0  0  0  0  0  0
    8.1840  -12.9240   -1.1780 N   0  0  0  0  0  0  0  0  0  0  0  0
    9.5260  -12.5910   -0.8860 C   0  0  0  0  0  0  0  0  0  0  0  0
    9.8470  -12.2610    0.4340 C   0  0  0  0  0  0  0  0  0  0  0  0
   11.1510  -11.8900    0.7740 C   0  0  0  0  0  0  0  0  0  0  0  0
   12.1480  -11.8450   -0.2000 C   0  0  0  0  0  0  0  0  0  0  0  0
   11.8510  -12.1840   -1.5240 C   0  0  0  0  0  0  0  0  0  0  0  0
   12.9040  -12.1550   -2.6010 C   0  0  0  0  0  0  0  0  0  0  0  0
   12.4570  -11.6850   -3.7960 F   0  0  0  0  0  0  0  0  0  0  0  0
   13.9840  -11.3990   -2.2700 F   0  0  0  0  0  0  0  0  0  0  0  0
   13.4110  -13.4050   -2.8750 F   0  0  0  0  0  0  0  0  0  0  0  0
   10.5420  -12.5820   -1.8450 C   0  0  0  0  0  0  0  0  0  0  0  0
    6.0580  -13.7000   -1.9000 H   0  0  0  0  0  0  0  0  0  0  0  0
    5.2354  -11.5906   -3.9828 H   0  0  0  0  0  0  0  0  0  0  0  0
    3.0013  -10.6284   -4.5175 H   0  0  0  0  0  0  0  0  0  0  0  0
    1.1903  -10.6345   -2.8067 H   0  0  0  0  0  0  0  0  0  0  0  0
    0.4088   -9.8466   -0.9505 H   0  0  0  0  0  0  0  0  0  0  0  0
   -1.8625   -8.9423    0.6384 H   0  0  0  0  0  0  0  0  0  0  0  0
   -2.9241   -9.9733    2.8625 H   0  0  0  0  0  0  0  0  0  0  0  0
   -0.1550  -13.6930    3.2940 H   0  0  0  0  0  0  0  0  0  0  0  0
    2.3535  -14.6439    2.0073 H   0  0  0  0  0  0  0  0  0  0  0  0
    1.6017  -15.2546    3.5478 H   0  0  0  0  0  0  0  0  0  0  0  0
    0.9584  -16.9459    2.3044 H   0  0  0  0  0  0  0  0  0  0  0  0
    1.0659  -15.2497   -0.2336 H   0  0  0  0  0  0  0  0  0  0  0  0
    2.3198  -16.4079    0.3697 H   0  0  0  0  0  0  0  0  0  0  0  0
    0.8910  -17.3623   -1.4509 H   0  0  0  0  0  0  0  0  0  0  0  0
    0.7937  -18.2792    0.0911 H   0  0  0  0  0  0  0  0  0  0  0  0
   -1.1670  -16.2680   -0.9000 H   0  0  0  0  0  0  0  0  0  0  0  0
   -1.4060  -17.8920   -0.8540 H   0  0  0  0  0  0  0  0  0  0  0  0
   -2.5755  -16.8022    0.9306 H   0  0  0  0  0  0  0  0  0  0  0  0
   -1.3377  -17.9508    1.5421 H   0  0  0  0  0  0  0  0  0  0  0  0
   -1.0727  -14.9239    1.2547 H   0  0  0  0  0  0  0  0  0  0  0  0
   -1.1622  -15.8974    2.7862 H   0  0  0  0  0  0  0  0  0  0  0  0
    3.8623  -12.5718   -0.0143 H   0  0  0  0  0  0  0  0  0  0  0  0
    7.9540  -13.9070   -1.1510 H   0  0  0  0  0  0  0  0  0  0  0  0
    9.0682  -12.2935    1.2102 H   0  0  0  0  0  0  0  0  0  0  0  0
   11.3922  -11.6321    1.8158 H   0  0  0  0  0  0  0  0  0  0  0  0
   13.1696  -11.5424    0.0735 H   0  0  0  0  0  0  0  0  0  0  0  0
   10.3121  -12.8935   -2.8746 H   0  0  0  0  0  0  0  0  0  0  0  0
  1  2  2  0
  2  3  1  0
  3  4  1  0
  4  5  2  0
  5  6  1  0
  6  7  2  0
  7  8  1  0
  8  9  1  0
  9 10  2  0
 10 11  1  0
 11 12  1  0
 12 13  2  0
 13 14  1  0
 14 15  2  0
 15 16  1  0
 16 17  1  0
 17 18  1  0
 18 19  1  0
 19 20  1  0
 20 21  1  0
 21 22  1  0
 22 23  1  0
 23 24  1  0
 16 25  2  0
  8 26  2  0
  2 27  1  0
 27 28  1  0
 28 29  2  0
 29 30  1  0
 30 31  2  0
 31 32  1  0
 32 33  1  0
 33 34  1  0
 33 35  1  0
 33 36  1  0
 32 37  2  0
 26  4  1  0
 37 28  1  0
 25  9  1  0
 15 11  1  0
 24 19  1  0
  3 38  1  0
  5 39  1  0
  6 40  1  0
  7 41  1  0
 10 42  1  0
 12 43  1  0
 13 44  1  0
 17 45  1  0
 18 46  1  0
 18 47  1  0
 19 48  1  0
 20 49  1  0
 20 50  1  0
 21 51  1  0
 21 52  1  0
 22 53  1  0
 22 54  1  0
 23 55  1  0
 23 56  1  0
 24 57  1  0
 24 58  1  0
 26 59  1  0
 27 60  1  0
 29 61  1  0
 30 62  1  0
 31 63  1  0
 37 64  1  0
M  CHG  1  22   1
M  END
>  <meeko>  (4) 
{"is_sidechain": [false], "free_energy": -9.103, "intermolecular_energy": -12.261, "internal_energy": -1.147}

$$$$
LIB_OLQWTLPWZOPGNO__M_PUB_ALL__e8__s20260927
     RDKit          3D

 64 68  0  0  0  0  0  0  0  0999 V2000
    7.2490  -10.9020   -1.5420 O   0  0  0  0  0  0  0  0  0  0  0  0
    7.1240  -12.1220   -1.5300 C   0  0  0  0  0  0  0  0  0  0  0  0
    5.9440  -12.8060   -1.7660 N   0  0  0  0  0  0  0  0  0  0  0  0
    4.6650  -12.2580   -2.0240 C   0  0  0  0  0  0  0  0  0  0  0  0
    4.3920  -11.8590   -3.3380 C   0  0  0  0  0  0  0  0  0  0  0  0
    3.1440  -11.3280   -3.6750 C   0  0  0  0  0  0  0  0  0  0  0  0
    2.1560  -11.1860   -2.7010 C   0  0  0  0  0  0  0  0  0  0  0  0
    2.4090  -11.5620   -1.3760 C   0  0  0  0  0  0  0  0  0  0  0  0
    1.3870  -11.4350   -0.3080 C   0  0  0  0  0  0  0  0  0  0  0  0
    0.6110  -10.3330   -0.2490 C   0  0  0  0  0  0  0  0  0  0  0  0
   -0.2860  -10.2230    0.7940 N   0  0  0  0  0  0  0  0  0  0  0  0
   -1.1850   -9.2550    1.1440 C   0  0  0  0  0  0  0  0  0  0  0  0
   -1.7720   -9.7130    2.3060 C   0  0  0  0  0  0  0  0  0  0  0  0
   -1.2530  -10.9310    2.6820 N   0  0  0  0  0  0  0  0  0  0  0  0
   -0.3730  -11.2030    1.7420 C   0  0  0  0  0  0  0  0  0  0  0  0
    0.4740  -12.3770    1.6320 C   0  0  0  0  0  0  0  0  0  0  0  0
    0.3920  -13.3790    2.5760 N   0  0  0  0  0  0  0  0  0  0  0  0
    1.0170  -14.6760    2.4730 C   0  0  0  0  0  0  0  0  0  0  0  0
    0.7590  -15.5560    3.7090 C   0  0  0  0  0  0  0  0  0  0  0  0
    0.8000  -14.7610    5.0230 C   0  0  0  0  0  0  0  0  0  0  0  0
    0.5120  -15.6570    6.2210 C   0  0  0  0  0  0  0  0  0  0  0  0
    1.4620  -16.8000    6.2280 N   0  0  0  0  0  0  0  0  0  0  0  0
    1.4270  -17.6360    4.9920 C   0  0  0  0  0  0  0  0  0  0  0  0
    1.7070  -16.7610    3.7840 C   0  0  0  0  0  0  0  0  0  0  0  0
    1.3210  -12.4610    0.6310 N   0  0  0  0  0  0  0  0  0  0  0  0
    3.6690  -12.1020   -1.0580 C   0  0  0  0  0  0  0  0  0  0  0  0
    8.1630  -12.9990   -1.2460 N   0  0  0  0  0  0  0  0  0  0  0  0
    9.5210  -12.6660   -1.0520 C   0  0  0  0  0  0  0  0  0  0  0  0
    9.9340  -12.3250    0.2400 C   0  0  0  0  0  0  0  0  0  0  0  0
   11.2590  -11.9530    0.4870 C   0  0  0  0  0  0  0  0  0  0  0  0
   12.1850  -11.9160   -0.5550 C   0  0  0  0  0  0  0  0  0  0  0  0
   11.7970  -12.2650   -1.8530 C   0  0  0  0  0  0  0  0  0  0  0  0
   12.7730  -12.2450   -3.0000 C   0  0  0  0  0  0  0  0  0  0  0  0
   13.5560  -11.1340   -3.0390 F   0  0  0  0  0  0  0  0  0  0  0  0
   13.6170  -13.3110   -3.0000 F   0  0  0  0  0  0  0  0  0  0  0  0
   12.1460  -12.2840   -4.2240 F   0  0  0  0  0  0  0  0  0  0  0  0
   10.4690  -12.6650   -2.0790 C   0  0  0  0  0  0  0  0  0  0  0  0
    5.9950  -13.8130   -1.7760 H   0  0  0  0  0  0  0  0  0  0  0  0
    5.1666  -11.9644   -4.1119 H   0  0  0  0  0  0  0  0  0  0  0  0
    2.9404  -11.0211   -4.7115 H   0  0  0  0  0  0  0  0  0  0  0  0
    1.1726  -10.7764   -2.9751 H   0  0  0  0  0  0  0  0  0  0  0  0
    0.6910   -9.5439   -1.0112 H   0  0  0  0  0  0  0  0  0  0  0  0
   -1.3953   -8.3142    0.6141 H   0  0  0  0  0  0  0  0  0  0  0  0
   -2.5542   -9.1738    2.8605 H   0  0  0  0  0  0  0  0  0  0  0  0
   -0.3480  -13.2560    3.2630 H   0  0  0  0  0  0  0  0  0  0  0  0
    0.6190  -15.1896    1.5854 H   0  0  0  0  0  0  0  0  0  0  0  0
    2.1029  -14.5179    2.3968 H   0  0  0  0  0  0  0  0  0  0  0  0
   -0.2641  -15.9394    3.5817 H   0  0  0  0  0  0  0  0  0  0  0  0
    1.7985  -14.3149    5.1410 H   0  0  0  0  0  0  0  0  0  0  0  0
    0.0273  -13.9793    4.9802 H   0  0  0  0  0  0  0  0  0  0  0  0
    0.6297  -15.0774    7.1485 H   0  0  0  0  0  0  0  0  0  0  0  0
   -0.5177  -16.0380    6.1533 H   0  0  0  0  0  0  0  0  0  0  0  0
    2.4230  -16.4560    6.3640 H   0  0  0  0  0  0  0  0  0  0  0  0
    1.2710  -17.4190    7.0310 H   0  0  0  0  0  0  0  0  0  0  0  0
    2.1918  -18.4237    5.0599 H   0  0  0  0  0  0  0  0  0  0  0  0
    0.4342  -18.0983    4.8889 H   0  0  0  0  0  0  0  0  0  0  0  0
    2.7422  -16.3941    3.8446 H   0  0  0  0  0  0  0  0  0  0  0  0
    1.5506  -17.3706    2.8818 H   0  0  0  0  0  0  0  0  0  0  0  0
    3.8745  -12.4091   -0.0219 H   0  0  0  0  0  0  0  0  0  0  0  0
    7.9110  -13.9610   -1.0650 H   0  0  0  0  0  0  0  0  0  0  0  0
    9.2107  -12.3497    1.0684 H   0  0  0  0  0  0  0  0  0  0  0  0
   11.5723  -11.6884    1.5077 H   0  0  0  0  0  0  0  0  0  0  0  0
   13.2231  -11.6116   -0.3558 H   0  0  0  0  0  0  0  0  0  0  0  0
   10.1686  -12.9848   -3.0877 H   0  0  0  0  0  0  0  0  0  0  0  0
  1  2  2  0
  2  3  1  0
  3  4  1  0
  4  5  2  0
  5  6  1  0
  6  7  2  0
  7  8  1  0
  8  9  1  0
  9 10  2  0
 10 11  1  0
 11 12  1  0
 12 13  2  0
 13 14  1  0
 14 15  2  0
 15 16  1  0
 16 17  1  0
 17 18  1  0
 18 19  1  0
 19 20  1  0
 20 21  1  0
 21 22  1  0
 22 23  1  0
 23 24  1  0
 16 25  2  0
  8 26  2  0
  2 27  1  0
 27 28  1  0
 28 29  2  0
 29 30  1  0
 30 31  2  0
 31 32  1  0
 32 33  1  0
 33 34  1  0
 33 35  1  0
 33 36  1  0
 32 37  2  0
 26  4  1  0
 37 28  1  0
 25  9  1  0
 15 11  1  0
 24 19  1  0
  3 38  1  0
  5 39  1  0
  6 40  1  0
  7 41  1  0
 10 42  1  0
 12 43  1  0
 13 44  1  0
 17 45  1  0
 18 46  1  0
 18 47  1  0
 19 48  1  0
 20 49  1  0
 20 50  1  0
 21 51  1  0
 21 52  1  0
 22 53  1  0
 22 54  1  0
 23 55  1  0
 23 56  1  0
 24 57  1  0
 24 58  1  0
 26 59  1  0
 27 60  1  0
 29 61  1  0
 30 62  1  0
 31 63  1  0
 37 64  1  0
M  CHG  1  22   1
M  END
>  <meeko>  (5) 
{"is_sidechain": [false], "free_energy": -8.892, "intermolecular_energy": -12.136, "internal_energy": -0.987}

$$$$
LIB_OLQWTLPWZOPGNO__M_PUB_ALL__e8__s20260927
     RDKit          3D

 64 68  0  0  0  0  0  0  0  0999 V2000
    5.9790  -14.6580   -5.9900 O   0  0  0  0  0  0  0  0  0  0  0  0
    6.0920  -13.6800   -6.7220 C   0  0  0  0  0  0  0  0  0  0  0  0
    6.9630  -13.5810   -7.7930 N   0  0  0  0  0  0  0  0  0  0  0  0
    7.9030  -14.5430   -8.2330 C   0  0  0  0  0  0  0  0  0  0  0  0
    7.4190  -15.6140   -8.9920 C   0  0  0  0  0  0  0  0  0  0  0  0
    8.2890  -16.5920   -9.4800 C   0  0  0  0  0  0  0  0  0  0  0  0
    9.6560  -16.5120   -9.2100 C   0  0  0  0  0  0  0  0  0  0  0  0
   10.1640  -15.4600   -8.4390 C   0  0  0  0  0  0  0  0  0  0  0  0
   11.6100  -15.3310   -8.1310 C   0  0  0  0  0  0  0  0  0  0  0  0
   12.5260  -15.8410   -8.9810 C   0  0  0  0  0  0  0  0  0  0  0  0
   13.8570  -15.7550   -8.6300 N   0  0  0  0  0  0  0  0  0  0  0  0
   15.0040  -16.1730   -9.2440 C   0  0  0  0  0  0  0  0  0  0  0  0
   16.0230  -15.8200   -8.3820 C   0  0  0  0  0  0  0  0  0  0  0  0
   15.5310  -15.2050   -7.2530 N   0  0  0  0  0  0  0  0  0  0  0  0
   14.2290  -15.1780   -7.4500 C   0  0  0  0  0  0  0  0  0  0  0  0
   13.2110  -14.6320   -6.5720 C   0  0  0  0  0  0  0  0  0  0  0  0
   13.5710  -14.0380   -5.3800 N   0  0  0  0  0  0  0  0  0  0  0  0
   12.6890  -13.2810   -4.5250 C   0  0  0  0  0  0  0  0  0  0  0  0
   12.2850  -14.0550   -3.2580 C   0  0  0  0  0  0  0  0  0  0  0  0
   12.2780  -13.1730   -1.9990 C   0  0  0  0  0  0  0  0  0  0  0  0
   11.8460  -13.9630   -0.7710 C   0  0  0  0  0  0  0  0  0  0  0  0
   12.7210  -15.1550   -0.6140 N   0  0  0  0  0  0  0  0  0  0  0  0
   12.7270  -16.0730   -1.7910 C   0  0  0  0  0  0  0  0  0  0  0  0
   13.1490  -15.3040   -3.0280 C   0  0  0  0  0  0  0  0  0  0  0  0
   11.9490  -14.7250   -6.9240 N   0  0  0  0  0  0  0  0  0  0  0  0
    9.2720  -14.4810   -7.9630 C   0  0  0  0  0  0  0  0  0  0  0  0
    5.3680  -12.5070   -6.5550 N   0  0  0  0  0  0  0  0  0  0  0  0
    4.3250  -12.2820   -5.6290 C   0  0  0  0  0  0  0  0  0  0  0  0
    4.0480  -10.9610   -5.2630 C   0  0  0  0  0  0  0  0  0  0  0  0
    3.0500  -10.6800   -4.3250 C   0  0  0  0  0  0  0  0  0  0  0  0
    2.3190  -11.7150   -3.7430 C   0  0  0  0  0  0  0  0  0  0  0  0
    2.5710  -13.0420   -4.1040 C   0  0  0  0  0  0  0  0  0  0  0  0
    1.7950  -14.1850   -3.5030 C   0  0  0  0  0  0  0  0  0  0  0  0
    0.8660  -14.7200   -4.3390 F   0  0  0  0  0  0  0  0  0  0  0  0
    2.5870  -15.2130   -3.1000 F   0  0  0  0  0  0  0  0  0  0  0  0
    1.0930  -13.8110   -2.3810 F   0  0  0  0  0  0  0  0  0  0  0  0
    3.5580  -13.3070   -5.0700 C   0  0  0  0  0  0  0  0  0  0  0  0
    6.9150  -12.7370   -8.3430 H   0  0  0  0  0  0  0  0  0  0  0  0
    6.3426  -15.6867   -9.2067 H   0  0  0  0  0  0  0  0  0  0  0  0
    7.8958  -17.4270  -10.0784 H   0  0  0  0  0  0  0  0  0  0  0  0
   10.3376  -17.2796   -9.6051 H   0  0  0  0  0  0  0  0  0  0  0  0
   12.2197  -16.3118   -9.9268 H   0  0  0  0  0  0  0  0  0  0  0  0
   15.0956  -16.6810  -10.2153 H   0  0  0  0  0  0  0  0  0  0  0  0
   17.0902  -16.0061   -8.5727 H   0  0  0  0  0  0  0  0  0  0  0  0
   14.5750  -13.9460   -5.2380 H   0  0  0  0  0  0  0  0  0  0  0  0
   13.1997  -12.3544   -4.2240 H   0  0  0  0  0  0  0  0  0  0  0  0
   11.7714  -13.0718   -5.0945 H   0  0  0  0  0  0  0  0  0  0  0  0
   11.2523  -14.3868   -3.4409 H   0  0  0  0  0  0  0  0  0  0  0  0
   13.2912  -12.7782   -1.8327 H   0  0  0  0  0  0  0  0  0  0  0  0
   11.5609  -12.3534   -2.1539 H   0  0  0  0  0  0  0  0  0  0  0  0
   11.9299  -13.3266    0.1223 H   0  0  0  0  0  0  0  0  0  0  0  0
   10.8024  -14.2884   -0.8934 H   0  0  0  0  0  0  0  0  0  0  0  0
   13.6890  -14.8570   -0.4260 H   0  0  0  0  0  0  0  0  0  0  0  0
   12.4330  -15.7040    0.2110 H   0  0  0  0  0  0  0  0  0  0  0  0
   13.4348  -16.8956   -1.6111 H   0  0  0  0  0  0  0  0  0  0  0  0
   11.7180  -16.4845   -1.9409 H   0  0  0  0  0  0  0  0  0  0  0  0
   14.1975  -14.9927   -2.9110 H   0  0  0  0  0  0  0  0  0  0  0  0
   13.0225  -15.9666   -3.8969 H   0  0  0  0  0  0  0  0  0  0  0  0
    9.6628  -13.6459   -7.3632 H   0  0  0  0  0  0  0  0  0  0  0  0
    5.6790  -11.7020   -7.0790 H   0  0  0  0  0  0  0  0  0  0  0  0
    4.6192  -10.1374   -5.7162 H   0  0  0  0  0  0  0  0  0  0  0  0
    2.8404   -9.6372   -4.0447 H   0  0  0  0  0  0  0  0  0  0  0  0
    1.5423  -11.4869   -2.9982 H   0  0  0  0  0  0  0  0  0  0  0  0
    3.7299  -14.3445   -5.3926 H   0  0  0  0  0  0  0  0  0  0  0  0
  1  2  2  0
  2  3  1  0
  3  4  1  0
  4  5  2  0
  5  6  1  0
  6  7  2  0
  7  8  1  0
  8  9  1  0
  9 10  2  0
 10 11  1  0
 11 12  1  0
 12 13  2  0
 13 14  1  0
 14 15  2  0
 15 16  1  0
 16 17  1  0
 17 18  1  0
 18 19  1  0
 19 20  1  0
 20 21  1  0
 21 22  1  0
 22 23  1  0
 23 24  1  0
 16 25  2  0
  8 26  2  0
  2 27  1  0
 27 28  1  0
 28 29  2  0
 29 30  1  0
 30 31  2  0
 31 32  1  0
 32 33  1  0
 33 34  1  0
 33 35  1  0
 33 36  1  0
 32 37  2  0
 26  4  1  0
 37 28  1  0
 25  9  1  0
 15 11  1  0
 24 19  1  0
  3 38  1  0
  5 39  1  0
  6 40  1  0
  7 41  1  0
 10 42  1  0
 12 43  1  0
 13 44  1  0
 17 45  1  0
 18 46  1  0
 18 47  1  0
 19 48  1  0
 20 49  1  0
 20 50  1  0
 21 51  1  0
 21 52  1  0
 22 53  1  0
 22 54  1  0
 23 55  1  0
 23 56  1  0
 24 57  1  0
 24 58  1  0
 26 59  1  0
 27 60  1  0
 29 61  1  0
 30 62  1  0
 31 63  1  0
 37 64  1  0
M  CHG  1  22   1
M  END
>  <meeko>  (6) 
{"is_sidechain": [false], "free_energy": -8.886, "intermolecular_energy": -12.435, "internal_energy": -0.681}

$$$$
LIB_OLQWTLPWZOPGNO__M_PUB_ALL__e8__s20260927
     RDKit          3D

 64 68  0  0  0  0  0  0  0  0999 V2000
    1.8830  -11.7640   -0.5710 O   0  0  0  0  0  0  0  0  0  0  0  0
    1.4660  -10.8530   -1.2780 C   0  0  0  0  0  0  0  0  0  0  0  0
    1.9840  -10.4990   -2.5120 N   0  0  0  0  0  0  0  0  0  0  0  0
    3.0930  -11.0710   -3.1790 C   0  0  0  0  0  0  0  0  0  0  0  0
    2.9290  -11.4020   -4.5280 C   0  0  0  0  0  0  0  0  0  0  0  0
    3.9860  -11.9510   -5.2600 C   0  0  0  0  0  0  0  0  0  0  0  0
    5.2190  -12.1790   -4.6480 C   0  0  0  0  0  0  0  0  0  0  0  0
    5.4040  -11.8710   -3.2950 C   0  0  0  0  0  0  0  0  0  0  0  0
    6.6980  -12.0910   -2.6040 C   0  0  0  0  0  0  0  0  0  0  0  0
    7.8540  -11.9780   -3.2900 C   0  0  0  0  0  0  0  0  0  0  0  0
    9.0340  -12.2490   -2.6280 N   0  0  0  0  0  0  0  0  0  0  0  0
   10.3410  -12.2410   -3.0250 C   0  0  0  0  0  0  0  0  0  0  0  0
   11.0580  -12.6280   -1.9110 C   0  0  0  0  0  0  0  0  0  0  0  0
   10.2260  -12.8810   -0.8450 N   0  0  0  0  0  0  0  0  0  0  0  0
    9.0230  -12.6310   -1.3160 C   0  0  0  0  0  0  0  0  0  0  0  0
    7.7570  -12.7290   -0.6140 C   0  0  0  0  0  0  0  0  0  0  0  0
    7.7290  -13.1050    0.7120 N   0  0  0  0  0  0  0  0  0  0  0  0
    6.5730  -13.0410    1.5740 C   0  0  0  0  0  0  0  0  0  0  0  0
    5.4470  -13.9880    1.1240 C   0  0  0  0  0  0  0  0  0  0  0  0
    4.1720  -13.8390    1.9710 C   0  0  0  0  0  0  0  0  0  0  0  0
    3.0700  -14.7690    1.4800 C   0  0  0  0  0  0  0  0  0  0  0  0
    3.5700  -16.1680    1.4620 N   0  0  0  0  0  0  0  0  0  0  0  0
    4.7800  -16.3780    0.6140 C   0  0  0  0  0  0  0  0  0  0  0  0
    5.8910  -15.4570    1.0820 C   0  0  0  0  0  0  0  0  0  0  0  0
    6.6450  -12.4670   -1.2630 N   0  0  0  0  0  0  0  0  0  0  0  0
    4.3300  -11.3130   -2.5770 C   0  0  0  0  0  0  0  0  0  0  0  0
    0.4150  -10.0190   -0.9180 N   0  0  0  0  0  0  0  0  0  0  0  0
   -0.4100  -10.1430    0.2210 C   0  0  0  0  0  0  0  0  0  0  0  0
   -0.1830   -9.2730    1.2920 C   0  0  0  0  0  0  0  0  0  0  0  0
   -0.9460   -9.3710    2.4600 C   0  0  0  0  0  0  0  0  0  0  0  0
   -1.9420  -10.3400    2.5710 C   0  0  0  0  0  0  0  0  0  0  0  0
   -2.1940  -11.2130    1.5070 C   0  0  0  0  0  0  0  0  0  0  0  0
   -3.2680  -12.2660    1.5880 C   0  0  0  0  0  0  0  0  0  0  0  0
   -2.8150  -13.5330    1.3870 F   0  0  0  0  0  0  0  0  0  0  0  0
   -3.9170  -12.2750    2.7830 F   0  0  0  0  0  0  0  0  0  0  0  0
   -4.2540  -12.0850    0.6460 F   0  0  0  0  0  0  0  0  0  0  0  0
   -1.4380  -11.0830    0.3290 C   0  0  0  0  0  0  0  0  0  0  0  0
    1.5110   -9.7610   -3.0100 H   0  0  0  0  0  0  0  0  0  0  0  0
    1.9593  -11.2287   -5.0176 H   0  0  0  0  0  0  0  0  0  0  0  0
    3.8452  -12.2039   -6.3212 H   0  0  0  0  0  0  0  0  0  0  0  0
    6.0497  -12.6028   -5.2315 H   0  0  0  0  0  0  0  0  0  0  0  0
    7.8559  -11.6780   -4.3483 H   0  0  0  0  0  0  0  0  0  0  0  0
   10.7366  -11.9820   -4.0182 H   0  0  0  0  0  0  0  0  0  0  0  0
   12.1535  -12.7220   -1.8795 H   0  0  0  0  0  0  0  0  0  0  0  0
    8.6450  -13.2080    1.1440 H   0  0  0  0  0  0  0  0  0  0  0  0
    6.8785  -13.3164    2.5942 H   0  0  0  0  0  0  0  0  0  0  0  0
    6.1817  -12.0138    1.5314 H   0  0  0  0  0  0  0  0  0  0  0  0
    5.2051  -13.6800    0.0961 H   0  0  0  0  0  0  0  0  0  0  0  0
    4.4066  -14.0826    3.0177 H   0  0  0  0  0  0  0  0  0  0  0  0
    3.8160  -12.8019    1.8834 H   0  0  0  0  0  0  0  0  0  0  0  0
    2.2039  -14.6984    2.1544 H   0  0  0  0  0  0  0  0  0  0  0  0
    2.7699  -14.4751    0.4634 H   0  0  0  0  0  0  0  0  0  0  0  0
    3.7860  -16.4760    2.4210 H   0  0  0  0  0  0  0  0  0  0  0  0
    2.8350  -16.8070    1.1230 H   0  0  0  0  0  0  0  0  0  0  0  0
    5.1104  -17.4238    0.6989 H   0  0  0  0  0  0  0  0  0  0  0  0
    4.5360  -16.1548   -0.4351 H   0  0  0  0  0  0  0  0  0  0  0  0
    6.2023  -15.7621    2.0920 H   0  0  0  0  0  0  0  0  0  0  0  0
    6.7217  -15.5385    0.3655 H   0  0  0  0  0  0  0  0  0  0  0  0
    4.4681  -11.0611   -1.5152 H   0  0  0  0  0  0  0  0  0  0  0  0
    0.2850   -9.1850   -1.4720 H   0  0  0  0  0  0  0  0  0  0  0  0
    0.6016   -8.5058    1.2152 H   0  0  0  0  0  0  0  0  0  0  0  0
   -0.7593   -8.6800    3.2952 H   0  0  0  0  0  0  0  0  0  0  0  0
   -2.5309  -10.4184    3.4968 H   0  0  0  0  0  0  0  0  0  0  0  0
   -1.6609  -11.7363   -0.5274 H   0  0  0  0  0  0  0  0  0  0  0  0
  1  2  2  0
  2  3  1  0
  3  4  1  0
  4  5  2  0
  5  6  1  0
  6  7  2  0
  7  8  1  0
  8  9  1  0
  9 10  2  0
 10 11  1  0
 11 12  1  0
 12 13  2  0
 13 14  1  0
 14 15  2  0
 15 16  1  0
 16 17  1  0
 17 18  1  0
 18 19  1  0
 19 20  1  0
 20 21  1  0
 21 22  1  0
 22 23  1  0
 23 24  1  0
 16 25  2  0
  8 26  2  0
  2 27  1  0
 27 28  1  0
 28 29  2  0
 29 30  1  0
 30 31  2  0
 31 32  1  0
 32 33  1  0
 33 34  1  0
 33 35  1  0
 33 36  1  0
 32 37  2  0
 26  4  1  0
 37 28  1  0
 25  9  1  0
 15 11  1  0
 24 19  1  0
  3 38  1  0
  5 39  1  0
  6 40  1  0
  7 41  1  0
 10 42  1  0
 12 43  1  0
 13 44  1  0
 17 45  1  0
 18 46  1  0
 18 47  1  0
 19 48  1  0
 20 49  1  0
 20 50  1  0
 21 51  1  0
 21 52  1  0
 22 53  1  0
 22 54  1  0
 23 55  1  0
 23 56  1  0
 24 57  1  0
 24 58  1  0
 26 59  1  0
 27 60  1  0
 29 61  1  0
 30 62  1  0
 31 63  1  0
 37 64  1  0
M  CHG  1  22   1
M  END
>  <meeko>  (7) 
{"is_sidechain": [false], "free_energy": -8.822, "intermolecular_energy": -11.991, "internal_energy": -1.038}

$$$$
LIB_OLQWTLPWZOPGNO__M_PUB_ALL__e8__s20260927
     RDKit          3D

 64 68  0  0  0  0  0  0  0  0999 V2000
    8.4250  -11.4550   -3.3050 O   0  0  0  0  0  0  0  0  0  0  0  0
    8.5650  -12.6460   -3.5680 C   0  0  0  0  0  0  0  0  0  0  0  0
    7.5580  -13.4920   -3.9990 N   0  0  0  0  0  0  0  0  0  0  0  0
    6.1900  -13.1810   -4.1850 C   0  0  0  0  0  0  0  0  0  0  0  0
    5.6940  -13.2290   -5.4930 C   0  0  0  0  0  0  0  0  0  0  0  0
    4.3480  -12.9560   -5.7540 C   0  0  0  0  0  0  0  0  0  0  0  0
    3.4840  -12.6270   -4.7100 C   0  0  0  0  0  0  0  0  0  0  0  0
    3.9580  -12.5570   -3.3940 C   0  0  0  0  0  0  0  0  0  0  0  0
    3.0750  -12.2180   -2.2520 C   0  0  0  0  0  0  0  0  0  0  0  0
    2.2040  -11.1930   -2.3570 C   0  0  0  0  0  0  0  0  0  0  0  0
    1.4430  -10.8700   -1.2520 N   0  0  0  0  0  0  0  0  0  0  0  0
    0.5010   -9.9050   -1.0280 C   0  0  0  0  0  0  0  0  0  0  0  0
    0.1190  -10.0750    0.2880 C   0  0  0  0  0  0  0  0  0  0  0  0
    0.8060  -11.1120    0.8770 N   0  0  0  0  0  0  0  0  0  0  0  0
    1.5800  -11.5660   -0.0860 C   0  0  0  0  0  0  0  0  0  0  0  0
    2.5220  -12.6680   -0.0210 C   0  0  0  0  0  0  0  0  0  0  0  0
    2.6660  -13.3870    1.1470 N   0  0  0  0  0  0  0  0  0  0  0  0
    3.4030  -14.6200    1.2830 C   0  0  0  0  0  0  0  0  0  0  0  0
    2.4880  -15.8580    1.2910 C   0  0  0  0  0  0  0  0  0  0  0  0
    1.7950  -16.0750    2.6460 C   0  0  0  0  0  0  0  0  0  0  0  0
    0.8750  -17.2890    2.6090 C   0  0  0  0  0  0  0  0  0  0  0  0
    1.6470  -18.4840    2.1780 N   0  0  0  0  0  0  0  0  0  0  0  0
    2.3020  -18.3440    0.8440 C   0  0  0  0  0  0  0  0  0  0  0  0
    3.2190  -17.1360    0.8560 C   0  0  0  0  0  0  0  0  0  0  0  0
    3.2370  -12.9600   -1.0830 N   0  0  0  0  0  0  0  0  0  0  0  0
    5.3150  -12.8430   -3.1510 C   0  0  0  0  0  0  0  0  0  0  0  0
    9.7690  -13.3250   -3.4390 N   0  0  0  0  0  0  0  0  0  0  0  0
   11.0250  -12.7650   -3.1170 C   0  0  0  0  0  0  0  0  0  0  0  0
   11.9890  -12.6930   -4.1270 C   0  0  0  0  0  0  0  0  0  0  0  0
   13.2610  -12.1800   -3.8580 C   0  0  0  0  0  0  0  0  0  0  0  0
   13.5850  -11.7350   -2.5770 C   0  0  0  0  0  0  0  0  0  0  0  0
   12.6320  -11.7870   -1.5540 C   0  0  0  0  0  0  0  0  0  0  0  0
   12.9430  -11.3070   -0.1610 C   0  0  0  0  0  0  0  0  0  0  0  0
   13.4830  -12.2620    0.6430 F   0  0  0  0  0  0  0  0  0  0  0  0
   13.8040  -10.2540   -0.1400 F   0  0  0  0  0  0  0  0  0  0  0  0
   11.8230  -10.8680    0.5070 F   0  0  0  0  0  0  0  0  0  0  0  0
   11.3480  -12.2780   -1.8480 C   0  0  0  0  0  0  0  0  0  0  0  0
    7.8240  -14.4370   -4.2280 H   0  0  0  0  0  0  0  0  0  0  0  0
    6.3694  -13.4838   -6.3230 H   0  0  0  0  0  0  0  0  0  0  0  0
    3.9694  -13.0008   -6.7858 H   0  0  0  0  0  0  0  0  0  0  0  0
    2.4243  -12.4213   -4.9213 H   0  0  0  0  0  0  0  0  0  0  0  0
    2.1033  -10.6306   -3.2970 H   0  0  0  0  0  0  0  0  0  0  0  0
    0.1281   -9.1555   -1.7415 H   0  0  0  0  0  0  0  0  0  0  0  0
   -0.6368   -9.4609    0.7996 H   0  0  0  0  0  0  0  0  0  0  0  0
    2.0120  -13.1340    1.8850 H   0  0  0  0  0  0  0  0  0  0  0  0
    4.1048  -14.7059    0.4403 H   0  0  0  0  0  0  0  0  0  0  0  0
    3.9301  -14.5887    2.2480 H   0  0  0  0  0  0  0  0  0  0  0  0
    1.7082  -15.6448    0.5450 H   0  0  0  0  0  0  0  0  0  0  0  0
    2.5614  -16.2296    3.4198 H   0  0  0  0  0  0  0  0  0  0  0  0
    1.1879  -15.1860    2.8719 H   0  0  0  0  0  0  0  0  0  0  0  0
    0.4585  -17.4639    3.6120 H   0  0  0  0  0  0  0  0  0  0  0  0
    0.0558  -17.1062    1.8980 H   0  0  0  0  0  0  0  0  0  0  0  0
    2.3710  -18.7050    2.8760 H   0  0  0  0  0  0  0  0  0  0  0  0
    1.0330  -19.3120    2.1410 H   0  0  0  0  0  0  0  0  0  0  0  0
    2.8895  -19.2483    0.6272 H   0  0  0  0  0  0  0  0  0  0  0  0
    1.5322  -18.2127    0.0693 H   0  0  0  0  0  0  0  0  0  0  0  0
    4.0466  -17.3263    1.5552 H   0  0  0  0  0  0  0  0  0  0  0  0
    3.5883  -16.9819   -0.1686 H   0  0  0  0  0  0  0  0  0  0  0  0
    5.6956  -12.7990   -2.1199 H   0  0  0  0  0  0  0  0  0  0  0  0
    9.7310  -14.3330   -3.4850 H   0  0  0  0  0  0  0  0  0  0  0  0
   11.7446  -13.0427   -5.1409 H   0  0  0  0  0  0  0  0  0  0  0  0
   14.0106  -12.1271   -4.6613 H   0  0  0  0  0  0  0  0  0  0  0  0
   14.5915  -11.3424   -2.3703 H   0  0  0  0  0  0  0  0  0  0  0  0
   10.5798  -12.2788   -1.0607 H   0  0  0  0  0  0  0  0  0  0  0  0
  1  2  2  0
  2  3  1  0
  3  4  1  0
  4  5  2  0
  5  6  1  0
  6  7  2  0
  7  8  1  0
  8  9  1  0
  9 10  2  0
 10 11  1  0
 11 12  1  0
 12 13  2  0
 13 14  1  0
 14 15  2  0
 15 16  1  0
 16 17  1  0
 17 18  1  0
 18 19  1  0
 19 20  1  0
 20 21  1  0
 21 22  1  0
 22 23  1  0
 23 24  1  0
 16 25  2  0
  8 26  2  0
  2 27  1  0
 27 28  1  0
 28 29  2  0
 29 30  1  0
 30 31  2  0
 31 32  1  0
 32 33  1  0
 33 34  1  0
 33 35  1  0
 33 36  1  0
 32 37  2  0
 26  4  1  0
 37 28  1  0
 25  9  1  0
 15 11  1  0
 24 19  1  0
  3 38  1  0
  5 39  1  0
  6 40  1  0
  7 41  1  0
 10 42  1  0
 12 43  1  0
 13 44  1  0
 17 45  1  0
 18 46  1  0
 18 47  1  0
 19 48  1  0
 20 49  1  0
 20 50  1  0
 21 51  1  0
 21 52  1  0
 22 53  1  0
 22 54  1  0
 23 55  1  0
 23 56  1  0
 24 57  1  0
 24 58  1  0
 26 59  1  0
 27 60  1  0
 29 61  1  0
 30 62  1  0
 31 63  1  0
 37 64  1  0
M  CHG  1  22   1
M  END
>  <meeko>  (8) 
{"is_sidechain": [false], "free_energy": -8.754, "intermolecular_energy": -11.952, "internal_energy": -0.985}

$$$$
LIB_OLQWTLPWZOPGNO__M_PUB_ALL__e8__s20260927
     RDKit          3D

 64 68  0  0  0  0  0  0  0  0999 V2000
    5.8700  -11.4570   -7.5970 O   0  0  0  0  0  0  0  0  0  0  0  0
    5.7910  -12.6490   -7.3170 C   0  0  0  0  0  0  0  0  0  0  0  0
    5.1520  -13.1670   -6.2030 N   0  0  0  0  0  0  0  0  0  0  0  0
    4.5080  -12.4510   -5.1660 C   0  0  0  0  0  0  0  0  0  0  0  0
    3.7010  -11.3700   -5.5390 C   0  0  0  0  0  0  0  0  0  0  0  0
    3.0150  -10.6280   -4.5740 C   0  0  0  0  0  0  0  0  0  0  0  0
    3.1340  -10.9550   -3.2220 C   0  0  0  0  0  0  0  0  0  0  0  0
    3.9470  -12.0220   -2.8220 C   0  0  0  0  0  0  0  0  0  0  0  0
    4.0990  -12.4100   -1.3980 C   0  0  0  0  0  0  0  0  0  0  0  0
    5.3300  -12.5920   -0.8780 C   0  0  0  0  0  0  0  0  0  0  0  0
    5.4290  -13.0120    0.4320 N   0  0  0  0  0  0  0  0  0  0  0  0
    6.4970  -13.2940    1.2360 C   0  0  0  0  0  0  0  0  0  0  0  0
    5.9480  -13.6920    2.4380 C   0  0  0  0  0  0  0  0  0  0  0  0
    4.5730  -13.6680    2.3910 N   0  0  0  0  0  0  0  0  0  0  0  0
    4.3050  -13.2440    1.1740 C   0  0  0  0  0  0  0  0  0  0  0  0
    3.0010  -13.0250    0.5770 C   0  0  0  0  0  0  0  0  0  0  0  0
    1.8570  -13.2470    1.3150 N   0  0  0  0  0  0  0  0  0  0  0  0
    0.5210  -12.8730    0.9170 C   0  0  0  0  0  0  0  0  0  0  0  0
    0.0410  -11.5800    1.5990 C   0  0  0  0  0  0  0  0  0  0  0  0
   -1.3980  -11.6860    2.1290 C   0  0  0  0  0  0  0  0  0  0  0  0
   -1.8290  -10.4000    2.8220 C   0  0  0  0  0  0  0  0  0  0  0  0
   -1.6590   -9.2530    1.8930 N   0  0  0  0  0  0  0  0  0  0  0  0
   -0.2660   -9.0740    1.3860 C   0  0  0  0  0  0  0  0  0  0  0  0
    0.1860  -10.3470    0.6950 C   0  0  0  0  0  0  0  0  0  0  0  0
    2.9290  -12.6260   -0.6720 N   0  0  0  0  0  0  0  0  0  0  0  0
    4.6240  -12.7620   -3.8090 C   0  0  0  0  0  0  0  0  0  0  0  0
    6.3670  -13.6580   -8.0770 N   0  0  0  0  0  0  0  0  0  0  0  0
    7.0130  -13.5120   -9.3250 C   0  0  0  0  0  0  0  0  0  0  0  0
    6.2350  -13.6220  -10.4820 C   0  0  0  0  0  0  0  0  0  0  0  0
    6.8250  -13.5200  -11.7460 C   0  0  0  0  0  0  0  0  0  0  0  0
    8.1980  -13.3080  -11.8670 C   0  0  0  0  0  0  0  0  0  0  0  0
    8.9930  -13.1820  -10.7220 C   0  0  0  0  0  0  0  0  0  0  0  0
   10.4770  -12.9430  -10.8150 C   0  0  0  0  0  0  0  0  0  0  0  0
   11.1820  -14.0190  -11.2580 F   0  0  0  0  0  0  0  0  0  0  0  0
   10.8000  -11.9080  -11.6350 F   0  0  0  0  0  0  0  0  0  0  0  0
   11.0360  -12.6260   -9.5980 F   0  0  0  0  0  0  0  0  0  0  0  0
    8.3800  -13.2580   -9.4590 C   0  0  0  0  0  0  0  0  0  0  0  0
    5.1190  -14.1720   -6.1220 H   0  0  0  0  0  0  0  0  0  0  0  0
    3.6059  -11.1021   -6.6016 H   0  0  0  0  0  0  0  0  0  0  0  0
    2.3795   -9.7840   -4.8804 H   0  0  0  0  0  0  0  0  0  0  0  0
    2.5863  -10.3714   -2.4674 H   0  0  0  0  0  0  0  0  0  0  0  0
    6.2309  -12.4103   -1.4824 H   0  0  0  0  0  0  0  0  0  0  0  0
    7.5643  -13.2198    0.9804 H   0  0  0  0  0  0  0  0  0  0  0  0
    6.5340  -13.9900    3.3199 H   0  0  0  0  0  0  0  0  0  0  0  0
    2.0200  -13.4770    2.2930 H   0  0  0  0  0  0  0  0  0  0  0  0
    0.5070  -12.7228   -0.1726 H   0  0  0  0  0  0  0  0  0  0  0  0
   -0.1572  -13.6830    1.2235 H   0  0  0  0  0  0  0  0  0  0  0  0
    0.7077  -11.4460    2.4637 H   0  0  0  0  0  0  0  0  0  0  0  0
   -2.0766  -11.8835    1.2861 H   0  0  0  0  0  0  0  0  0  0  0  0
   -1.4385  -12.5054    2.8617 H   0  0  0  0  0  0  0  0  0  0  0  0
   -2.8859  -10.4792    3.1165 H   0  0  0  0  0  0  0  0  0  0  0  0
   -1.2088  -10.2411    3.7165 H   0  0  0  0  0  0  0  0  0  0  0  0
   -2.2900   -9.3580    1.0860 H   0  0  0  0  0  0  0  0  0  0  0  0
   -1.9400   -8.3740    2.3540 H   0  0  0  0  0  0  0  0  0  0  0  0
   -0.2403   -8.2390    0.6704 H   0  0  0  0  0  0  0  0  0  0  0  0
    0.4064   -8.8545    2.2284 H   0  0  0  0  0  0  0  0  0  0  0  0
   -0.4243  -10.4959   -0.2080 H   0  0  0  0  0  0  0  0  0  0  0  0
    1.2512  -10.2354    0.4440 H   0  0  0  0  0  0  0  0  0  0  0  0
    5.2602  -13.6061   -3.5046 H   0  0  0  0  0  0  0  0  0  0  0  0
    6.4160  -14.5750   -7.6570 H   0  0  0  0  0  0  0  0  0  0  0  0
    5.1512  -13.7900  -10.3973 H   0  0  0  0  0  0  0  0  0  0  0  0
    6.2030  -13.6074  -12.6490 H   0  0  0  0  0  0  0  0  0  0  0  0
    8.6571  -13.2397  -12.8643 H   0  0  0  0  0  0  0  0  0  0  0  0
    8.9909  -13.1141   -8.5556 H   0  0  0  0  0  0  0  0  0  0  0  0
  1  2  2  0
  2  3  1  0
  3  4  1  0
  4  5  2  0
  5  6  1  0
  6  7  2  0
  7  8  1  0
  8  9  1  0
  9 10  2  0
 10 11  1  0
 11 12  1  0
 12 13  2  0
 13 14  1  0
 14 15  2  0
 15 16  1  0
 16 17  1  0
 17 18  1  0
 18 19  1  0
 19 20  1  0
 20 21  1  0
 21 22  1  0
 22 23  1  0
 23 24  1  0
 16 25  2  0
  8 26  2  0
  2 27  1  0
 27 28  1  0
 28 29  2  0
 29 30  1  0
 30 31  2  0
 31 32  1  0
 32 33  1  0
 33 34  1  0
 33 35  1  0
 33 36  1  0
 32 37  2  0
 26  4  1  0
 37 28  1  0
 25  9  1  0
 15 11  1  0
 24 19  1  0
  3 38  1  0
  5 39  1  0
  6 40  1  0
  7 41  1  0
 10 42  1  0
 12 43  1  0
 13 44  1  0
 17 45  1  0
 18 46  1  0
 18 47  1  0
 19 48  1  0
 20 49  1  0
 20 50  1  0
 21 51  1  0
 21 52  1  0
 22 53  1  0
 22 54  1  0
 23 55  1  0
 23 56  1  0
 24 57  1  0
 24 58  1  0
 26 59  1  0
 27 60  1  0
 29 61  1  0
 30 62  1  0
 31 63  1  0
 37 64  1  0
M  CHG  1  22   1
M  END
>  <meeko>  (9) 
{"is_sidechain": [false], "free_energy": -8.723, "intermolecular_energy": -12.152, "internal_energy": -0.743}

$$$$
