LIB_ZHKIURQRUBOVST__M_PUB_ALL__e8__s20260927
     RDKit          3D

 57 61  0  0  0  0  0  0  0  0999 V2000
    3.9920  -13.0540   -6.7970 O   0  0  0  0  0  0  0  0  0  0  0  0
    4.9740  -12.9300   -6.0770 C   0  0  0  0  0  0  0  0  0  0  0  0
    4.9580  -12.3970   -4.8020 N   0  0  0  0  0  0  0  0  0  0  0  0
    3.8980  -11.7660   -4.1280 C   0  0  0  0  0  0  0  0  0  0  0  0
    3.3750  -10.5130   -4.4190 C   0  0  0  0  0  0  0  0  0  0  0  0
    2.3830   -9.9630   -3.5940 C   0  0  0  0  0  0  0  0  0  0  0  0
    1.9230  -10.6510   -2.4620 C   0  0  0  0  0  0  0  0  0  0  0  0
    2.4300  -11.9170   -2.1650 C   0  0  0  0  0  0  0  0  0  0  0  0
    2.0990  -12.7130   -0.9580 C   0  0  0  0  0  0  0  0  0  0  0  0
    2.7270  -13.8650   -0.6560 C   0  0  0  0  0  0  0  0  0  0  0  0
    2.4340  -14.4630    0.5550 N   0  0  0  0  0  0  0  0  0  0  0  0
    2.8940  -15.6040    1.1540 C   0  0  0  0  0  0  0  0  0  0  0  0
    2.2520  -15.6540    2.3750 C   0  0  0  0  0  0  0  0  0  0  0  0
    1.4150  -14.5750    2.5460 N   0  0  0  0  0  0  0  0  0  0  0  0
    1.5520  -13.8860    1.4320 C   0  0  0  0  0  0  0  0  0  0  0  0
    0.8980  -12.6450    1.0610 C   0  0  0  0  0  0  0  0  0  0  0  0
    0.0280  -11.9980    1.9090 N   0  0  0  0  0  0  0  0  0  0  0  0
   -0.7360  -10.8190    1.5680 C   0  0  0  0  0  0  0  0  0  0  0  0
   -2.0690  -11.1360    0.9340 C   0  0  0  0  0  0  0  0  0  0  0  0
   -2.6690  -10.2860    0.0010 C   0  0  0  0  0  0  0  0  0  0  0  0
   -3.8950  -10.6290   -0.5620 C   0  0  0  0  0  0  0  0  0  0  0  0
   -4.4920  -11.8210   -0.1770 C   0  0  0  0  0  0  0  0  0  0  0  0
   -3.9540  -12.6800    0.7210 N   0  0  0  0  0  0  0  0  0  0  0  0
   -2.7630  -12.3020    1.2630 C   0  0  0  0  0  0  0  0  0  0  0  0
    1.1560  -12.1330   -0.1150 N   0  0  0  0  0  0  0  0  0  0  0  0
    3.3870  -12.4620   -3.0340 C   0  0  0  0  0  0  0  0  0  0  0  0
    6.2710  -13.2970   -6.4130 N   0  0  0  0  0  0  0  0  0  0  0  0
    6.7150  -13.9490   -7.5780 C   0  0  0  0  0  0  0  0  0  0  0  0
    7.1510  -15.2730   -7.4400 C   0  0  0  0  0  0  0  0  0  0  0  0
    7.6050  -15.9940   -8.5460 C   0  0  0  0  0  0  0  0  0  0  0  0
    7.6250  -15.3970   -9.8050 C   0  0  0  0  0  0  0  0  0  0  0  0
    7.1820  -14.0780   -9.9700 C   0  0  0  0  0  0  0  0  0  0  0  0
    7.2090  -13.4130  -11.3230 C   0  0  0  0  0  0  0  0  0  0  0  0
    6.2520  -13.8830  -12.1690 F   0  0  0  0  0  0  0  0  0  0  0  0
    8.3930  -13.5800  -11.9790 F   0  0  0  0  0  0  0  0  0  0  0  0
    7.0170  -12.0660  -11.2470 F   0  0  0  0  0  0  0  0  0  0  0  0
    6.7320  -13.3610   -8.8440 C   0  0  0  0  0  0  0  0  0  0  0  0
    5.8300  -12.4510   -4.2860 H   0  0  0  0  0  0  0  0  0  0  0  0
    3.7376   -9.9535   -5.2939 H   0  0  0  0  0  0  0  0  0  0  0  0
    1.9597   -8.9776   -3.8385 H   0  0  0  0  0  0  0  0  0  0  0  0
    1.1644  -10.1940   -1.8096 H   0  0  0  0  0  0  0  0  0  0  0  0
    3.4504  -14.3160   -1.3512 H   0  0  0  0  0  0  0  0  0  0  0  0
    3.6190  -16.3258    0.7497 H   0  0  0  0  0  0  0  0  0  0  0  0
    2.3916  -16.4542    3.1167 H   0  0  0  0  0  0  0  0  0  0  0  0
   -0.1450  -12.4450    2.8030 H   0  0  0  0  0  0  0  0  0  0  0  0
   -0.9146  -10.2406    2.4864 H   0  0  0  0  0  0  0  0  0  0  0  0
   -0.1498  -10.2522    0.8297 H   0  0  0  0  0  0  0  0  0  0  0  0
   -2.1733   -9.3475   -0.2880 H   0  0  0  0  0  0  0  0  0  0  0  0
   -4.3802   -9.9692   -1.2964 H   0  0  0  0  0  0  0  0  0  0  0  0
   -5.4601  -12.0839   -0.6282 H   0  0  0  0  0  0  0  0  0  0  0  0
   -2.3140  -12.9654    2.0168 H   0  0  0  0  0  0  0  0  0  0  0  0
    3.7498  -13.4829   -2.8437 H   0  0  0  0  0  0  0  0  0  0  0  0
    6.9870  -13.0040   -5.7610 H   0  0  0  0  0  0  0  0  0  0  0  0
    7.1355  -15.7501   -6.4490 H   0  0  0  0  0  0  0  0  0  0  0  0
    7.9466  -17.0324   -8.4237 H   0  0  0  0  0  0  0  0  0  0  0  0
    7.9905  -15.9642  -10.6738 H   0  0  0  0  0  0  0  0  0  0  0  0
    6.3890  -12.3228   -8.9641 H   0  0  0  0  0  0  0  0  0  0  0  0
  1  2  2  0
  2  3  1  0
  3  4  1  0
  4  5  2  0
  5  6  1  0
  6  7  2  0
  7  8  1  0
  8  9  1  0
  9 10  2  0
 10 11  1  0
 11 12  1  0
 12 13  2  0
 13 14  1  0
 14 15  2  0
 15 16  1  0
 16 17  1  0
 17 18  1  0
 18 19  1  0
 19 20  2  0
 20 21  1  0
 21 22  2  0
 22 23  1  0
 23 24  2  0
 16 25  2  0
  8 26  2  0
  2 27  1  0
 27 28  1  0
 28 29  2  0
 29 30  1  0
 30 31  2  0
 31 32  1  0
 32 33  1  0
 33 34  1  0
 33 35  1  0
 33 36  1  0
 32 37  2  0
 26  4  1  0
 37 28  1  0
 25  9  1  0
 15 11  1  0
 24 19  1  0
  3 38  1  0
  5 39  1  0
  6 40  1  0
  7 41  1  0
 10 42  1  0
 12 43  1  0
 13 44  1  0
 17 45  1  0
 18 46  1  0
 18 47  1  0
 20 48  1  0
 21 49  1  0
 22 50  1  0
 24 51  1  0
 26 52  1  0
 27 53  1  0
 29 54  1  0
 30 55  1  0
 31 56  1  0
 37 57  1  0
M  END
>  <meeko>  (1) 
{"is_sidechain": [false], "free_energy": -9.746, "intermolecular_energy": -13.164, "internal_energy": -1.084}

$$$$
LIB_ZHKIURQRUBOVST__M_PUB_ALL__e8__s20260927
     RDKit          3D

 57 61  0  0  0  0  0  0  0  0999 V2000
    8.0940  -11.3370   -3.7170 O   0  0  0  0  0  0  0  0  0  0  0  0
    8.1260  -12.5540   -3.5910 C   0  0  0  0  0  0  0  0  0  0  0  0
    7.0790  -13.4070   -3.8810 N   0  0  0  0  0  0  0  0  0  0  0  0
    5.7540  -13.0850   -4.2230 C   0  0  0  0  0  0  0  0  0  0  0  0
    5.2440  -12.9840   -5.5110 C   0  0  0  0  0  0  0  0  0  0  0  0
    3.9240  -12.5500   -5.7060 C   0  0  0  0  0  0  0  0  0  0  0  0
    3.1130  -12.1970   -4.6180 C   0  0  0  0  0  0  0  0  0  0  0  0
    3.6080  -12.3060   -3.3180 C   0  0  0  0  0  0  0  0  0  0  0  0
    2.8930  -11.8840   -2.0880 C   0  0  0  0  0  0  0  0  0  0  0  0
    1.8960  -10.9780   -2.1050 C   0  0  0  0  0  0  0  0  0  0  0  0
    1.2100  -10.7500   -0.9270 N   0  0  0  0  0  0  0  0  0  0  0  0
    0.1650   -9.9240   -0.6160 C   0  0  0  0  0  0  0  0  0  0  0  0
   -0.1010  -10.1670    0.7170 C   0  0  0  0  0  0  0  0  0  0  0  0
    0.7470  -11.1210    1.2320 N   0  0  0  0  0  0  0  0  0  0  0  0
    1.5180  -11.4430    0.2140 C   0  0  0  0  0  0  0  0  0  0  0  0
    2.6020  -12.4080    0.1830 C   0  0  0  0  0  0  0  0  0  0  0  0
    2.9400  -13.1600    1.2860 N   0  0  0  0  0  0  0  0  0  0  0  0
    4.0690  -14.0600    1.3590 C   0  0  0  0  0  0  0  0  0  0  0  0
    5.3940  -13.3720    1.1390 C   0  0  0  0  0  0  0  0  0  0  0  0
    6.3810  -13.9080    0.3080 C   0  0  0  0  0  0  0  0  0  0  0  0
    7.5840  -13.2290    0.1310 C   0  0  0  0  0  0  0  0  0  0  0  0
    7.7680  -12.0240    0.7920 C   0  0  0  0  0  0  0  0  0  0  0  0
    6.8460  -11.4600    1.6070 N   0  0  0  0  0  0  0  0  0  0  0  0
    5.6900  -12.1620    1.7690 C   0  0  0  0  0  0  0  0  0  0  0  0
    3.2660  -12.5620   -0.9330 N   0  0  0  0  0  0  0  0  0  0  0  0
    4.9150  -12.7870   -3.1500 C   0  0  0  0  0  0  0  0  0  0  0  0
    9.2140  -13.2890   -3.1350 N   0  0  0  0  0  0  0  0  0  0  0  0
   10.5010  -12.8240   -2.8090 C   0  0  0  0  0  0  0  0  0  0  0  0
   11.4190  -12.7030   -3.8600 C   0  0  0  0  0  0  0  0  0  0  0  0
   12.7170  -12.2460   -3.6250 C   0  0  0  0  0  0  0  0  0  0  0  0
   13.1100  -11.9030   -2.3340 C   0  0  0  0  0  0  0  0  0  0  0  0
   12.2060  -12.0040   -1.2680 C   0  0  0  0  0  0  0  0  0  0  0  0
   12.6190  -11.6490    0.1380 C   0  0  0  0  0  0  0  0  0  0  0  0
   11.6560  -10.9750    0.8240 F   0  0  0  0  0  0  0  0  0  0  0  0
   13.7280  -10.8550    0.1870 F   0  0  0  0  0  0  0  0  0  0  0  0
   12.9190  -12.7460    0.8880 F   0  0  0  0  0  0  0  0  0  0  0  0
   10.9020  -12.4720   -1.5190 C   0  0  0  0  0  0  0  0  0  0  0  0
    7.2840  -14.4000   -3.8260 H   0  0  0  0  0  0  0  0  0  0  0  0
    5.8729  -13.2434   -6.3754 H   0  0  0  0  0  0  0  0  0  0  0  0
    3.5196  -12.4858   -6.7270 H   0  0  0  0  0  0  0  0  0  0  0  0
    2.0885  -11.8348   -4.7890 H   0  0  0  0  0  0  0  0  0  0  0  0
    1.6363  -10.4371   -3.0269 H   0  0  0  0  0  0  0  0  0  0  0  0
   -0.3517   -9.2187   -1.2835 H   0  0  0  0  0  0  0  0  0  0  0  0
   -0.8901   -9.6624    1.2938 H   0  0  0  0  0  0  0  0  0  0  0  0
    2.4000  -12.9920    2.1280 H   0  0  0  0  0  0  0  0  0  0  0  0
    4.0792  -14.5278    2.3545 H   0  0  0  0  0  0  0  0  0  0  0  0
    3.9484  -14.8010    0.5550 H   0  0  0  0  0  0  0  0  0  0  0  0
    6.2081  -14.8651   -0.2058 H   0  0  0  0  0  0  0  0  0  0  0  0
    8.3709  -13.6395   -0.5188 H   0  0  0  0  0  0  0  0  0  0  0  0
    8.7209  -11.4944    0.6452 H   0  0  0  0  0  0  0  0  0  0  0  0
    4.9322  -11.7437    2.4478 H   0  0  0  0  0  0  0  0  0  0  0  0
    5.2942  -12.9354   -2.1281 H   0  0  0  0  0  0  0  0  0  0  0  0
    9.0320  -14.2700   -2.9610 H   0  0  0  0  0  0  0  0  0  0  0  0
   11.1137  -12.9711   -4.8822 H   0  0  0  0  0  0  0  0  0  0  0  0
   13.4287  -12.1570   -4.4590 H   0  0  0  0  0  0  0  0  0  0  0  0
   14.1357  -11.5508   -2.1499 H   0  0  0  0  0  0  0  0  0  0  0  0
   10.1887  -12.5616   -0.6864 H   0  0  0  0  0  0  0  0  0  0  0  0
  1  2  2  0
  2  3  1  0
  3  4  1  0
  4  5  2  0
  5  6  1  0
  6  7  2  0
  7  8  1  0
  8  9  1  0
  9 10  2  0
 10 11  1  0
 11 12  1  0
 12 13  2  0
 13 14  1  0
 14 15  2  0
 15 16  1  0
 16 17  1  0
 17 18  1  0
 18 19  1  0
 19 20  2  0
 20 21  1  0
 21 22  2  0
 22 23  1  0
 23 24  2  0
 16 25  2  0
  8 26  2  0
  2 27  1  0
 27 28  1  0
 28 29  2  0
 29 30  1  0
 30 31  2  0
 31 32  1  0
 32 33  1  0
 33 34  1  0
 33 35  1  0
 33 36  1  0
 32 37  2  0
 26  4  1  0
 37 28  1  0
 25  9  1  0
 15 11  1  0
 24 19  1  0
  3 38  1  0
  5 39  1  0
  6 40  1  0
  7 41  1  0
 10 42  1  0
 12 43  1  0
 13 44  1  0
 17 45  1  0
 18 46  1  0
 18 47  1  0
 20 48  1  0
 21 49  1  0
 22 50  1  0
 24 51  1  0
 26 52  1  0
 27 53  1  0
 29 54  1  0
 30 55  1  0
 31 56  1  0
 37 57  1  0
M  END
>  <meeko>  (2) 
{"is_sidechain": [false], "free_energy": -9.386, "intermolecular_energy": -12.138, "internal_energy": -1.625}

$$$$
LIB_ZHKIURQRUBOVST__M_PUB_ALL__e8__s20260927
     RDKit          3D

 57 61  0  0  0  0  0  0  0  0999 V2000
    7.3710  -11.0590   -2.2370 O   0  0  0  0  0  0  0  0  0  0  0  0
    7.3290  -12.1850   -2.7150 C   0  0  0  0  0  0  0  0  0  0  0  0
    6.1820  -12.8130   -3.1610 N   0  0  0  0  0  0  0  0  0  0  0  0
    4.8460  -12.3900   -3.0370 C   0  0  0  0  0  0  0  0  0  0  0  0
    4.2260  -11.4070   -3.7970 C   0  0  0  0  0  0  0  0  0  0  0  0
    2.9140  -11.0150   -3.4920 C   0  0  0  0  0  0  0  0  0  0  0  0
    2.2220  -11.5870   -2.4150 C   0  0  0  0  0  0  0  0  0  0  0  0
    2.8280  -12.5850   -1.6520 C   0  0  0  0  0  0  0  0  0  0  0  0
    2.2460  -13.2090   -0.4380 C   0  0  0  0  0  0  0  0  0  0  0  0
    2.7330  -14.3470    0.0950 C   0  0  0  0  0  0  0  0  0  0  0  0
    2.2030  -14.7760    1.2970 N   0  0  0  0  0  0  0  0  0  0  0  0
    2.4760  -15.8570    2.0900 C   0  0  0  0  0  0  0  0  0  0  0  0
    1.6400  -15.7230    3.1810 C   0  0  0  0  0  0  0  0  0  0  0  0
    0.8650  -14.5900    3.0830 N   0  0  0  0  0  0  0  0  0  0  0  0
    1.2320  -14.0510    1.9390 C   0  0  0  0  0  0  0  0  0  0  0  0
    0.7390  -12.8330    1.3250 C   0  0  0  0  0  0  0  0  0  0  0  0
   -0.2110  -12.0440    1.9330 N   0  0  0  0  0  0  0  0  0  0  0  0
   -0.8230  -10.8770    1.3360 C   0  0  0  0  0  0  0  0  0  0  0  0
   -2.1990  -11.1470    0.7780 C   0  0  0  0  0  0  0  0  0  0  0  0
   -2.7950  -10.3090   -0.1680 C   0  0  0  0  0  0  0  0  0  0  0  0
   -4.0630  -10.6070   -0.6590 C   0  0  0  0  0  0  0  0  0  0  0  0
   -4.7050  -11.7440   -0.1900 C   0  0  0  0  0  0  0  0  0  0  0  0
   -4.1730  -12.5900    0.7230 N   0  0  0  0  0  0  0  0  0  0  0  0
   -2.9400  -12.2560    1.1930 C   0  0  0  0  0  0  0  0  0  0  0  0
    1.2220  -12.4830    0.1610 N   0  0  0  0  0  0  0  0  0  0  0  0
    4.1230  -12.9910   -2.0080 C   0  0  0  0  0  0  0  0  0  0  0  0
    8.4190  -13.0280   -2.8900 N   0  0  0  0  0  0  0  0  0  0  0  0
    9.7770  -12.7530   -2.6460 C   0  0  0  0  0  0  0  0  0  0  0  0
   10.6250  -12.6920   -3.7590 C   0  0  0  0  0  0  0  0  0  0  0  0
   11.9860  -12.4220   -3.6060 C   0  0  0  0  0  0  0  0  0  0  0  0
   12.5140  -12.2070   -2.3350 C   0  0  0  0  0  0  0  0  0  0  0  0
   11.6840  -12.2520   -1.2070 C   0  0  0  0  0  0  0  0  0  0  0  0
   12.2410  -12.0350    0.1770 C   0  0  0  0  0  0  0  0  0  0  0  0
   11.4870  -11.1890    0.9310 F   0  0  0  0  0  0  0  0  0  0  0  0
   13.4960  -11.5000    0.1720 F   0  0  0  0  0  0  0  0  0  0  0  0
   12.3370  -13.1920    0.8890 F   0  0  0  0  0  0  0  0  0  0  0  0
   10.3140  -12.5310   -1.3760 C   0  0  0  0  0  0  0  0  0  0  0  0
    6.3140  -13.7050   -3.6260 H   0  0  0  0  0  0  0  0  0  0  0  0
    4.7617  -10.9374   -4.6352 H   0  0  0  0  0  0  0  0  0  0  0  0
    2.4209  -10.2476   -4.1068 H   0  0  0  0  0  0  0  0  0  0  0  0
    1.2036  -11.2495   -2.1724 H   0  0  0  0  0  0  0  0  0  0  0  0
    3.5270  -14.9162   -0.4106 H   0  0  0  0  0  0  0  0  0  0  0  0
    3.2040  -16.6594    1.8997 H   0  0  0  0  0  0  0  0  0  0  0  0
    1.5988  -16.4316    4.0213 H   0  0  0  0  0  0  0  0  0  0  0  0
   -0.5600  -12.3670    2.8290 H   0  0  0  0  0  0  0  0  0  0  0  0
   -0.9047  -10.0936    2.1039 H   0  0  0  0  0  0  0  0  0  0  0  0
   -0.1846  -10.5669    0.4956 H   0  0  0  0  0  0  0  0  0  0  0  0
   -2.2628   -9.4147   -0.5244 H   0  0  0  0  0  0  0  0  0  0  0  0
   -4.5454   -9.9554   -1.4025 H   0  0  0  0  0  0  0  0  0  0  0  0
   -5.7066  -11.9717   -0.5838 H   0  0  0  0  0  0  0  0  0  0  0  0
   -2.4933  -12.9088    1.9574 H   0  0  0  0  0  0  0  0  0  0  0  0
    4.5873  -13.8185   -1.4515 H   0  0  0  0  0  0  0  0  0  0  0  0
    8.1950  -13.9740   -3.1720 H   0  0  0  0  0  0  0  0  0  0  0  0
   10.2137  -12.8588   -4.7655 H   0  0  0  0  0  0  0  0  0  0  0  0
   12.6411  -12.3790   -4.4886 H   0  0  0  0  0  0  0  0  0  0  0  0
   13.5880  -12.0009   -2.2163 H   0  0  0  0  0  0  0  0  0  0  0  0
    9.6572  -12.5747   -0.4947 H   0  0  0  0  0  0  0  0  0  0  0  0
  1  2  2  0
  2  3  1  0
  3  4  1  0
  4  5  2  0
  5  6  1  0
  6  7  2  0
  7  8  1  0
  8  9  1  0
  9 10  2  0
 10 11  1  0
 11 12  1  0
 12 13  2  0
 13 14  1  0
 14 15  2  0
 15 16  1  0
 16 17  1  0
 17 18  1  0
 18 19  1  0
 19 20  2  0
 20 21  1  0
 21 22  2  0
 22 23  1  0
 23 24  2  0
 16 25  2  0
  8 26  2  0
  2 27  1  0
 27 28  1  0
 28 29  2  0
 29 30  1  0
 30 31  2  0
 31 32  1  0
 32 33  1  0
 33 34  1  0
 33 35  1  0
 33 36  1  0
 32 37  2  0
 26  4  1  0
 37 28  1  0
 25  9  1  0
 15 11  1  0
 24 19  1  0
  3 38  1  0
  5 39  1  0
  6 40  1  0
  7 41  1  0
 10 42  1  0
 12 43  1  0
 13 44  1  0
 17 45  1  0
 18 46  1  0
 18 47  1  0
 20 48  1  0
 21 49  1  0
 22 50  1  0
 24 51  1  0
 26 52  1  0
 27 53  1  0
 29 54  1  0
 30 55  1  0
 31 56  1  0
 37 57  1  0
M  END
>  <meeko>  (3) 
{"is_sidechain": [false], "free_energy": -9.359, "intermolecular_energy": -12.624, "internal_energy": -1.102}

$$$$
LIB_ZHKIURQRUBOVST__M_PUB_ALL__e8__s20260927
     RDKit          3D

 57 61  0  0  0  0  0  0  0  0999 V2000
    7.0080  -10.6090   -1.7620 O   0  0  0  0  0  0  0  0  0  0  0  0
    6.8000  -11.7880   -1.5080 C   0  0  0  0  0  0  0  0  0  0  0  0
    5.6030  -12.4440   -1.7220 N   0  0  0  0  0  0  0  0  0  0  0  0
    4.3660  -11.9060   -2.1160 C   0  0  0  0  0  0  0  0  0  0  0  0
    4.0790  -11.3320   -3.3470 C   0  0  0  0  0  0  0  0  0  0  0  0
    2.8270  -10.7390   -3.5650 C   0  0  0  0  0  0  0  0  0  0  0  0
    1.8610  -10.6980   -2.5500 C   0  0  0  0  0  0  0  0  0  0  0  0
    2.1300  -11.2830   -1.3120 C   0  0  0  0  0  0  0  0  0  0  0  0
    1.2380  -11.2340   -0.1270 C   0  0  0  0  0  0  0  0  0  0  0  0
    0.3090  -10.2740    0.0410 C   0  0  0  0  0  0  0  0  0  0  0  0
   -0.5560  -10.3920    1.1130 N   0  0  0  0  0  0  0  0  0  0  0  0
   -1.5930   -9.6140    1.5480 C   0  0  0  0  0  0  0  0  0  0  0  0
   -2.0970  -10.2710    2.6530 C   0  0  0  0  0  0  0  0  0  0  0  0
   -1.4010  -11.4310    2.9070 N   0  0  0  0  0  0  0  0  0  0  0  0
   -0.4850  -11.4660    1.9620 C   0  0  0  0  0  0  0  0  0  0  0  0
    0.5350  -12.4740    1.7410 C   0  0  0  0  0  0  0  0  0  0  0  0
    0.6380  -13.5920    2.5370 N   0  0  0  0  0  0  0  0  0  0  0  0
    1.6890  -14.5810    2.4420 C   0  0  0  0  0  0  0  0  0  0  0  0
    1.4310  -15.6230    1.3810 C   0  0  0  0  0  0  0  0  0  0  0  0
    2.2810  -15.7940    0.2850 C   0  0  0  0  0  0  0  0  0  0  0  0
    2.0030  -16.7770   -0.6620 C   0  0  0  0  0  0  0  0  0  0  0  0
    0.8780  -17.5680   -0.4860 C   0  0  0  0  0  0  0  0  0  0  0  0
    0.0230  -17.4450    0.5560 N   0  0  0  0  0  0  0  0  0  0  0  0
    0.3170  -16.4620    1.4520 C   0  0  0  0  0  0  0  0  0  0  0  0
    1.3720  -12.3060    0.7500 N   0  0  0  0  0  0  0  0  0  0  0  0
    3.3730  -11.9090   -1.1370 C   0  0  0  0  0  0  0  0  0  0  0  0
    7.7240  -12.6690   -0.9600 N   0  0  0  0  0  0  0  0  0  0  0  0
    9.0790  -12.4350   -0.6660 C   0  0  0  0  0  0  0  0  0  0  0  0
    9.4010  -12.1450    0.6660 C   0  0  0  0  0  0  0  0  0  0  0  0
   10.7220  -11.9010    1.0440 C   0  0  0  0  0  0  0  0  0  0  0  0
   11.7380  -11.9480    0.0930 C   0  0  0  0  0  0  0  0  0  0  0  0
   11.4430  -12.2470   -1.2430 C   0  0  0  0  0  0  0  0  0  0  0  0
   12.5280  -12.2900   -2.2890 C   0  0  0  0  0  0  0  0  0  0  0  0
   12.1150  -11.8450   -3.5080 F   0  0  0  0  0  0  0  0  0  0  0  0
   13.0170  -13.5450   -2.5040 F   0  0  0  0  0  0  0  0  0  0  0  0
   13.6070  -11.5280   -1.9540 F   0  0  0  0  0  0  0  0  0  0  0  0
   10.1050  -12.4850   -1.6120 C   0  0  0  0  0  0  0  0  0  0  0  0
    5.6090  -13.4460   -1.5590 H   0  0  0  0  0  0  0  0  0  0  0  0
    4.8316  -11.3423   -4.1492 H   0  0  0  0  0  0  0  0  0  0  0  0
    2.5995  -10.2994   -4.5473 H   0  0  0  0  0  0  0  0  0  0  0  0
    0.8936  -10.2060   -2.7289 H   0  0  0  0  0  0  0  0  0  0  0  0
    0.2405   -9.4230   -0.6526 H   0  0  0  0  0  0  0  0  0  0  0  0
   -1.9488   -8.6689    1.1119 H   0  0  0  0  0  0  0  0  0  0  0  0
   -2.9462   -9.9131    3.2536 H   0  0  0  0  0  0  0  0  0  0  0  0
   -0.0280  -13.6670    3.2980 H   0  0  0  0  0  0  0  0  0  0  0  0
    2.6323  -14.0670    2.2052 H   0  0  0  0  0  0  0  0  0  0  0  0
    1.7345  -15.1035    3.4089 H   0  0  0  0  0  0  0  0  0  0  0  0
    3.1679  -15.1535    0.1703 H   0  0  0  0  0  0  0  0  0  0  0  0
    2.6618  -16.9226   -1.5308 H   0  0  0  0  0  0  0  0  0  0  0  0
    0.6676  -18.3422   -1.2386 H   0  0  0  0  0  0  0  0  0  0  0  0
   -0.3751  -16.3183    2.2948 H   0  0  0  0  0  0  0  0  0  0  0  0
    3.5731  -12.4247   -0.1862 H   0  0  0  0  0  0  0  0  0  0  0  0
    7.3530  -13.5710   -0.6870 H   0  0  0  0  0  0  0  0  0  0  0  0
    8.6035  -12.1092    1.4227 H   0  0  0  0  0  0  0  0  0  0  0  0
   10.9606  -11.6716    2.0930 H   0  0  0  0  0  0  0  0  0  0  0  0
   12.7776  -11.7493    0.3926 H   0  0  0  0  0  0  0  0  0  0  0  0
    9.8645  -12.7136   -2.6608 H   0  0  0  0  0  0  0  0  0  0  0  0
  1  2  2  0
  2  3  1  0
  3  4  1  0
  4  5  2  0
  5  6  1  0
  6  7  2  0
  7  8  1  0
  8  9  1  0
  9 10  2  0
 10 11  1  0
 11 12  1  0
 12 13  2  0
 13 14  1  0
 14 15  2  0
 15 16  1  0
 16 17  1  0
 17 18  1  0
 18 19  1  0
 19 20  2  0
 20 21  1  0
 21 22  2  0
 22 23  1  0
 23 24  2  0
 16 25  2  0
  8 26  2  0
  2 27  1  0
 27 28  1  0
 28 29  2  0
 29 30  1  0
 30 31  2  0
 31 32  1  0
 32 33  1  0
 33 34  1  0
 33 35  1  0
 33 36  1  0
 32 37  2  0
 26  4  1  0
 37 28  1  0
 25  9  1  0
 15 11  1  0
 24 19  1  0
  3 38  1  0
  5 39  1  0
  6 40  1  0
  7 41  1  0
 10 42  1  0
 12 43  1  0
 13 44  1  0
 17 45  1  0
 18 46  1  0
 18 47  1  0
 20 48  1  0
 21 49  1  0
 22 50  1  0
 24 51  1  0
 26 52  1  0
 27 53  1  0
 29 54  1  0
 30 55  1  0
 31 56  1  0
 37 57  1  0
M  END
>  <meeko>  (4) 
{"is_sidechain": [false], "free_energy": -9.099, "intermolecular_energy": -12.11, "internal_energy": -1.265}

$$$$
LIB_ZHKIURQRUBOVST__M_PUB_ALL__e8__s20260927
     RDKit          3D

 57 61  0  0  0  0  0  0  0  0999 V2000
    6.8910  -14.8970   -5.5210 O   0  0  0  0  0  0  0  0  0  0  0  0
    6.9870  -13.8530   -6.1540 C   0  0  0  0  0  0  0  0  0  0  0  0
    7.4890  -13.7490   -7.4360 N   0  0  0  0  0  0  0  0  0  0  0  0
    8.1160  -14.7370   -8.2160 C   0  0  0  0  0  0  0  0  0  0  0  0
    7.4750  -15.6770   -9.0130 C   0  0  0  0  0  0  0  0  0  0  0  0
    8.2260  -16.6720   -9.6560 C   0  0  0  0  0  0  0  0  0  0  0  0
    9.6160  -16.7480   -9.4910 C   0  0  0  0  0  0  0  0  0  0  0  0
   10.2740  -15.8020   -8.7040 C   0  0  0  0  0  0  0  0  0  0  0  0
   11.7210  -15.8160   -8.3740 C   0  0  0  0  0  0  0  0  0  0  0  0
   12.6730  -16.0320   -9.3020 C   0  0  0  0  0  0  0  0  0  0  0  0
   13.9930  -15.8980   -8.9170 N   0  0  0  0  0  0  0  0  0  0  0  0
   15.1700  -16.0340   -9.6010 C   0  0  0  0  0  0  0  0  0  0  0  0
   16.1570  -15.7390   -8.6810 C   0  0  0  0  0  0  0  0  0  0  0  0
   15.6210  -15.4230   -7.4540 N   0  0  0  0  0  0  0  0  0  0  0  0
   14.3210  -15.5310   -7.6370 C   0  0  0  0  0  0  0  0  0  0  0  0
   13.2600  -15.3120   -6.6720 C   0  0  0  0  0  0  0  0  0  0  0  0
   13.5210  -14.9110   -5.3820 N   0  0  0  0  0  0  0  0  0  0  0  0
   12.5260  -14.7740   -4.3410 C   0  0  0  0  0  0  0  0  0  0  0  0
   12.7750  -13.5950   -3.4310 C   0  0  0  0  0  0  0  0  0  0  0  0
   13.6930  -12.5910   -3.7510 C   0  0  0  0  0  0  0  0  0  0  0  0
   13.8800  -11.5190   -2.8820 C   0  0  0  0  0  0  0  0  0  0  0  0
   13.1380  -11.4780   -1.7110 C   0  0  0  0  0  0  0  0  0  0  0  0
   12.2360  -12.4220   -1.3540 N   0  0  0  0  0  0  0  0  0  0  0  0
   12.0940  -13.4640   -2.2190 C   0  0  0  0  0  0  0  0  0  0  0  0
   12.0230  -15.4990   -7.0540 N   0  0  0  0  0  0  0  0  0  0  0  0
    9.5050  -14.7900   -8.1100 C   0  0  0  0  0  0  0  0  0  0  0  0
    6.6130  -12.5960   -5.6950 N   0  0  0  0  0  0  0  0  0  0  0  0
    5.9840  -12.2660   -4.4810 C   0  0  0  0  0  0  0  0  0  0  0  0
    6.7630  -12.3370   -3.3200 C   0  0  0  0  0  0  0  0  0  0  0  0
    6.2180  -12.0250   -2.0740 C   0  0  0  0  0  0  0  0  0  0  0  0
    4.8850  -11.6340   -1.9760 C   0  0  0  0  0  0  0  0  0  0  0  0
    4.0880  -11.5440   -3.1240 C   0  0  0  0  0  0  0  0  0  0  0  0
    2.6390  -11.1350   -3.0350 C   0  0  0  0  0  0  0  0  0  0  0  0
    1.8010  -11.9940   -3.6780 F   0  0  0  0  0  0  0  0  0  0  0  0
    2.3940   -9.9080   -3.5790 F   0  0  0  0  0  0  0  0  0  0  0  0
    2.1950  -11.0640   -1.7500 F   0  0  0  0  0  0  0  0  0  0  0  0
    4.6490  -11.8680   -4.3750 C   0  0  0  0  0  0  0  0  0  0  0  0
    7.4130  -12.8360   -7.8720 H   0  0  0  0  0  0  0  0  0  0  0  0
    6.3829  -15.6412   -9.1393 H   0  0  0  0  0  0  0  0  0  0  0  0
    7.7163  -17.4040  -10.2997 H   0  0  0  0  0  0  0  0  0  0  0  0
   10.1864  -17.5511   -9.9805 H   0  0  0  0  0  0  0  0  0  0  0  0
   12.4079  -16.3064  -10.3337 H   0  0  0  0  0  0  0  0  0  0  0  0
   15.3018  -16.3171  -10.6557 H   0  0  0  0  0  0  0  0  0  0  0  0
   17.2346  -15.7547   -8.9013 H   0  0  0  0  0  0  0  0  0  0  0  0
   14.4980  -14.7910   -5.1350 H   0  0  0  0  0  0  0  0  0  0  0  0
   11.5406  -14.6488   -4.8136 H   0  0  0  0  0  0  0  0  0  0  0  0
   12.5748  -15.6813   -3.7210 H   0  0  0  0  0  0  0  0  0  0  0  0
   14.2669  -12.6474   -4.6877 H   0  0  0  0  0  0  0  0  0  0  0  0
   14.6004  -10.7223   -3.1191 H   0  0  0  0  0  0  0  0  0  0  0  0
   13.2918  -10.6269   -1.0313 H   0  0  0  0  0  0  0  0  0  0  0  0
   11.3899  -14.2626   -1.9422 H   0  0  0  0  0  0  0  0  0  0  0  0
   10.0198  -14.0052   -7.5364 H   0  0  0  0  0  0  0  0  0  0  0  0
    6.8820  -11.8210   -6.2880 H   0  0  0  0  0  0  0  0  0  0  0  0
    7.8174  -12.6424   -3.3909 H   0  0  0  0  0  0  0  0  0  0  0  0
    6.8409  -12.0878   -1.1696 H   0  0  0  0  0  0  0  0  0  0  0  0
    4.4559  -11.3946   -0.9918 H   0  0  0  0  0  0  0  0  0  0  0  0
    4.0275  -11.8068   -5.2806 H   0  0  0  0  0  0  0  0  0  0  0  0
  1  2  2  0
  2  3  1  0
  3  4  1  0
  4  5  2  0
  5  6  1  0
  6  7  2  0
  7  8  1  0
  8  9  1  0
  9 10  2  0
 10 11  1  0
 11 12  1  0
 12 13  2  0
 13 14  1  0
 14 15  2  0
 15 16  1  0
 16 17  1  0
 17 18  1  0
 18 19  1  0
 19 20  2  0
 20 21  1  0
 21 22  2  0
 22 23  1  0
 23 24  2  0
 16 25  2  0
  8 26  2  0
  2 27  1  0
 27 28  1  0
 28 29  2  0
 29 30  1  0
 30 31  2  0
 31 32  1  0
 32 33  1  0
 33 34  1  0
 33 35  1  0
 33 36  1  0
 32 37  2  0
 26  4  1  0
 37 28  1  0
 25  9  1  0
 15 11  1  0
 24 19  1  0
  3 38  1  0
  5 39  1  0
  6 40  1  0
  7 41  1  0
 10 42  1  0
 12 43  1  0
 13 44  1  0
 17 45  1  0
 18 46  1  0
 18 47  1  0
 20 48  1  0
 21 49  1  0
 22 50  1  0
 24 51  1  0
 26 52  1  0
 27 53  1  0
 29 54  1  0
 30 55  1  0
 31 56  1  0
 37 57  1  0
M  END
>  <meeko>  (5) 
{"is_sidechain": [false], "free_energy": -9.058, "intermolecular_energy": -12.067, "internal_energy": -1.252}

$$$$
LIB_ZHKIURQRUBOVST__M_PUB_ALL__e8__s20260927
     RDKit          3D

 57 61  0  0  0  0  0  0  0  0999 V2000
    5.5410  -11.2600   -7.6870 O   0  0  0  0  0  0  0  0  0  0  0  0
    5.6590  -12.4260   -7.3350 C   0  0  0  0  0  0  0  0  0  0  0  0
    6.2810  -13.4150   -8.0720 N   0  0  0  0  0  0  0  0  0  0  0  0
    6.7630  -13.3540   -9.3920 C   0  0  0  0  0  0  0  0  0  0  0  0
    6.0580  -13.7020  -10.5360 C   0  0  0  0  0  0  0  0  0  0  0  0
    6.7020  -13.6910  -11.7820 C   0  0  0  0  0  0  0  0  0  0  0  0
    8.0580  -13.3510  -11.8900 C   0  0  0  0  0  0  0  0  0  0  0  0
    8.7760  -12.9870  -10.7500 C   0  0  0  0  0  0  0  0  0  0  0  0
   10.2290  -12.6930  -10.7080 C   0  0  0  0  0  0  0  0  0  0  0  0
   11.1640  -13.6630  -10.6810 C   0  0  0  0  0  0  0  0  0  0  0  0
   12.4900  -13.2850  -10.7720 N   0  0  0  0  0  0  0  0  0  0  0  0
   13.6530  -14.0050  -10.7840 C   0  0  0  0  0  0  0  0  0  0  0  0
   14.6560  -13.0670  -10.9310 C   0  0  0  0  0  0  0  0  0  0  0  0
   14.1420  -11.7930  -11.0130 N   0  0  0  0  0  0  0  0  0  0  0  0
   12.8400  -11.9670  -10.9120 C   0  0  0  0  0  0  0  0  0  0  0  0
   11.7980  -10.9580  -10.9340 C   0  0  0  0  0  0  0  0  0  0  0  0
   12.0810   -9.6220  -11.1050 N   0  0  0  0  0  0  0  0  0  0  0  0
   11.1080   -8.5550  -11.0340 C   0  0  0  0  0  0  0  0  0  0  0  0
   11.5480   -7.3000  -11.7480 C   0  0  0  0  0  0  0  0  0  0  0  0
   11.5740   -6.0550  -11.1140 C   0  0  0  0  0  0  0  0  0  0  0  0
   11.9970   -4.9280  -11.8140 C   0  0  0  0  0  0  0  0  0  0  0  0
   12.3890   -5.0780  -13.1360 C   0  0  0  0  0  0  0  0  0  0  0  0
   12.3840   -6.2590  -13.7970 N   0  0  0  0  0  0  0  0  0  0  0  0
   11.9460   -7.3340  -13.0850 C   0  0  0  0  0  0  0  0  0  0  0  0
   10.5560  -11.3430  -10.7920 N   0  0  0  0  0  0  0  0  0  0  0  0
    8.0940  -12.9620   -9.5240 C   0  0  0  0  0  0  0  0  0  0  0  0
    5.1880  -12.9600   -6.1420 N   0  0  0  0  0  0  0  0  0  0  0  0
    4.5700  -12.2860   -5.0730 C   0  0  0  0  0  0  0  0  0  0  0  0
    3.6880  -11.2470   -5.4000 C   0  0  0  0  0  0  0  0  0  0  0  0
    3.0310  -10.5280   -4.4000 C   0  0  0  0  0  0  0  0  0  0  0  0
    3.2470  -10.8420   -3.0610 C   0  0  0  0  0  0  0  0  0  0  0  0
    4.1150  -11.8850   -2.7100 C   0  0  0  0  0  0  0  0  0  0  0  0
    4.3700  -12.2300   -1.2640 C   0  0  0  0  0  0  0  0  0  0  0  0
    5.4630  -11.6040   -0.7490 F   0  0  0  0  0  0  0  0  0  0  0  0
    4.5820  -13.5630   -1.0610 F   0  0  0  0  0  0  0  0  0  0  0  0
    3.3270  -11.8960   -0.4550 F   0  0  0  0  0  0  0  0  0  0  0  0
    4.7760  -12.5980   -3.7280 C   0  0  0  0  0  0  0  0  0  0  0  0
    6.3930  -14.3120   -7.6100 H   0  0  0  0  0  0  0  0  0  0  0  0
    4.9975  -13.9855  -10.4656 H   0  0  0  0  0  0  0  0  0  0  0  0
    6.1351  -13.9529  -12.6875 H   0  0  0  0  0  0  0  0  0  0  0  0
    8.5548  -13.3711  -12.8712 H   0  0  0  0  0  0  0  0  0  0  0  0
   10.8807  -14.7219  -10.5894 H   0  0  0  0  0  0  0  0  0  0  0  0
   13.7652  -15.0957  -10.6956 H   0  0  0  0  0  0  0  0  0  0  0  0
   15.7284  -13.3074  -10.9767 H   0  0  0  0  0  0  0  0  0  0  0  0
   13.0610   -9.3770  -11.1990 H   0  0  0  0  0  0  0  0  0  0  0  0
   10.1704   -8.9060  -11.4898 H   0  0  0  0  0  0  0  0  0  0  0  0
   10.9808   -8.2990   -9.9718 H   0  0  0  0  0  0  0  0  0  0  0  0
   11.2607   -5.9653  -10.0634 H   0  0  0  0  0  0  0  0  0  0  0  0
   12.0198   -3.9408  -11.3293 H   0  0  0  0  0  0  0  0  0  0  0  0
   12.7243   -4.1828  -13.6802 H   0  0  0  0  0  0  0  0  0  0  0  0
   11.9026   -8.3032  -13.6034 H   0  0  0  0  0  0  0  0  0  0  0  0
    8.6329  -12.6183   -8.6287 H   0  0  0  0  0  0  0  0  0  0  0  0
    5.2470  -13.9680   -6.0650 H   0  0  0  0  0  0  0  0  0  0  0  0
    3.5116  -10.9954   -6.4562 H   0  0  0  0  0  0  0  0  0  0  0  0
    2.3427   -9.7135   -4.6699 H   0  0  0  0  0  0  0  0  0  0  0  0
    2.7340  -10.2688   -2.2747 H   0  0  0  0  0  0  0  0  0  0  0  0
    5.4647  -13.4127   -3.4598 H   0  0  0  0  0  0  0  0  0  0  0  0
  1  2  2  0
  2  3  1  0
  3  4  1  0
  4  5  2  0
  5  6  1  0
  6  7  2  0
  7  8  1  0
  8  9  1  0
  9 10  2  0
 10 11  1  0
 11 12  1  0
 12 13  2  0
 13 14  1  0
 14 15  2  0
 15 16  1  0
 16 17  1  0
 17 18  1  0
 18 19  1  0
 19 20  2  0
 20 21  1  0
 21 22  2  0
 22 23  1  0
 23 24  2  0
 16 25  2  0
  8 26  2  0
  2 27  1  0
 27 28  1  0
 28 29  2  0
 29 30  1  0
 30 31  2  0
 31 32  1  0
 32 33  1  0
 33 34  1  0
 33 35  1  0
 33 36  1  0
 32 37  2  0
 26  4  1  0
 37 28  1  0
 25  9  1  0
 15 11  1  0
 24 19  1  0
  3 38  1  0
  5 39  1  0
  6 40  1  0
  7 41  1  0
 10 42  1  0
 12 43  1  0
 13 44  1  0
 17 45  1  0
 18 46  1  0
 18 47  1  0
 20 48  1  0
 21 49  1  0
 22 50  1  0
 24 51  1  0
 26 52  1  0
 27 53  1  0
 29 54  1  0
 30 55  1  0
 31 56  1  0
 37 57  1  0
M  END
>  <meeko>  (6) 
{"is_sidechain": [false], "free_energy": -9.047, "intermolecular_energy": -12.726, "internal_energy": -0.579}

$$$$
LIB_ZHKIURQRUBOVST__M_PUB_ALL__e8__s20260927
     RDKit          3D

 57 61  0  0  0  0  0  0  0  0999 V2000
    3.9050  -13.3570   -6.2510 O   0  0  0  0  0  0  0  0  0  0  0  0
    4.8790  -12.7360   -5.8450 C   0  0  0  0  0  0  0  0  0  0  0  0
    4.8830  -11.9030   -4.7430 N   0  0  0  0  0  0  0  0  0  0  0  0
    3.7950  -11.4750   -3.9630 C   0  0  0  0  0  0  0  0  0  0  0  0
    3.0160  -10.3490   -4.1940 C   0  0  0  0  0  0  0  0  0  0  0  0
    2.0250   -9.9850   -3.2700 C   0  0  0  0  0  0  0  0  0  0  0  0
    1.8210  -10.7310   -2.1000 C   0  0  0  0  0  0  0  0  0  0  0  0
    2.5870  -11.8720   -1.8610 C   0  0  0  0  0  0  0  0  0  0  0  0
    2.5370  -12.6980   -0.6300 C   0  0  0  0  0  0  0  0  0  0  0  0
    1.5040  -13.5150   -0.3480 C   0  0  0  0  0  0  0  0  0  0  0  0
    1.6120  -14.3360    0.7590 N   0  0  0  0  0  0  0  0  0  0  0  0
    0.7690  -15.2660    1.3010 C   0  0  0  0  0  0  0  0  0  0  0  0
    1.4510  -15.7820    2.3850 C   0  0  0  0  0  0  0  0  0  0  0  0
    2.6890  -15.1990    2.5220 N   0  0  0  0  0  0  0  0  0  0  0  0
    2.7470  -14.3360    1.5290 C   0  0  0  0  0  0  0  0  0  0  0  0
    3.8320  -13.4360    1.1860 C   0  0  0  0  0  0  0  0  0  0  0  0
    5.0100  -13.4110    1.8980 N   0  0  0  0  0  0  0  0  0  0  0  0
    6.0890  -12.4740    1.6800 C   0  0  0  0  0  0  0  0  0  0  0  0
    7.1530  -12.9980    0.7470 C   0  0  0  0  0  0  0  0  0  0  0  0
    7.0630  -14.2590    0.1510 C   0  0  0  0  0  0  0  0  0  0  0  0
    8.0670  -14.6920   -0.7100 C   0  0  0  0  0  0  0  0  0  0  0  0
    9.1400  -13.8480   -0.9560 C   0  0  0  0  0  0  0  0  0  0  0  0
    9.2760  -12.6190   -0.4070 N   0  0  0  0  0  0  0  0  0  0  0  0
    8.2840  -12.2360    0.4440 C   0  0  0  0  0  0  0  0  0  0  0  0
    3.6770  -12.6340    0.1650 N   0  0  0  0  0  0  0  0  0  0  0  0
    3.5390  -12.2390   -2.8250 C   0  0  0  0  0  0  0  0  0  0  0  0
    6.1440  -12.7570   -6.4190 N   0  0  0  0  0  0  0  0  0  0  0  0
    6.5930  -13.5340   -7.5030 C   0  0  0  0  0  0  0  0  0  0  0  0
    7.0010  -14.8440   -7.2220 C   0  0  0  0  0  0  0  0  0  0  0  0
    7.4580  -15.6830   -8.2390 C   0  0  0  0  0  0  0  0  0  0  0  0
    7.5090  -15.2210   -9.5520 C   0  0  0  0  0  0  0  0  0  0  0  0
    7.0950  -13.9180   -9.8600 C   0  0  0  0  0  0  0  0  0  0  0  0
    7.1560  -13.3970  -11.2740 C   0  0  0  0  0  0  0  0  0  0  0  0
    8.3390  -13.6630  -11.8920 F   0  0  0  0  0  0  0  0  0  0  0  0
    6.9980  -12.0440  -11.3530 F   0  0  0  0  0  0  0  0  0  0  0  0
    6.1860  -13.9280  -12.0690 F   0  0  0  0  0  0  0  0  0  0  0  0
    6.6420  -13.0800   -8.8230 C   0  0  0  0  0  0  0  0  0  0  0  0
    5.7880  -11.5360   -4.4660 H   0  0  0  0  0  0  0  0  0  0  0  0
    3.1754   -9.7441   -5.0988 H   0  0  0  0  0  0  0  0  0  0  0  0
    1.3991   -9.1019   -3.4660 H   0  0  0  0  0  0  0  0  0  0  0  0
    1.0584  -10.4169   -1.3722 H   0  0  0  0  0  0  0  0  0  0  0  0
    0.6028  -13.5286   -0.9786 H   0  0  0  0  0  0  0  0  0  0  0  0
   -0.2357  -15.5433    0.9494 H   0  0  0  0  0  0  0  0  0  0  0  0
    1.0546  -16.5602    3.0538 H   0  0  0  0  0  0  0  0  0  0  0  0
    5.0730  -14.0460    2.6870 H   0  0  0  0  0  0  0  0  0  0  0  0
    5.6700  -11.5524    1.2498 H   0  0  0  0  0  0  0  0  0  0  0  0
    6.5680  -12.2952    2.6540 H   0  0  0  0  0  0  0  0  0  0  0  0
    6.2003  -14.9080    0.3621 H   0  0  0  0  0  0  0  0  0  0  0  0
    8.0109  -15.6824   -1.1853 H   0  0  0  0  0  0  0  0  0  0  0  0
    9.9278  -14.1992   -1.6386 H   0  0  0  0  0  0  0  0  0  0  0  0
    8.3806  -11.2534    0.9289 H   0  0  0  0  0  0  0  0  0  0  0  0
    4.1073  -13.1690   -2.6764 H   0  0  0  0  0  0  0  0  0  0  0  0
    6.8010  -12.0850   -6.0440 H   0  0  0  0  0  0  0  0  0  0  0  0
    6.9607  -15.2158   -6.1875 H   0  0  0  0  0  0  0  0  0  0  0  0
    7.7779  -16.7089   -8.0039 H   0  0  0  0  0  0  0  0  0  0  0  0
    7.8760  -15.8820  -10.3510 H   0  0  0  0  0  0  0  0  0  0  0  0
    6.3223  -12.0535   -9.0557 H   0  0  0  0  0  0  0  0  0  0  0  0
  1  2  2  0
  2  3  1  0
  3  4  1  0
  4  5  2  0
  5  6  1  0
  6  7  2  0
  7  8  1  0
  8  9  1  0
  9 10  2  0
 10 11  1  0
 11 12  1  0
 12 13  2  0
 13 14  1  0
 14 15  2  0
 15 16  1  0
 16 17  1  0
 17 18  1  0
 18 19  1  0
 19 20  2  0
 20 21  1  0
 21 22  2  0
 22 23  1  0
 23 24  2  0
 16 25  2  0
  8 26  2  0
  2 27  1  0
 27 28  1  0
 28 29  2  0
 29 30  1  0
 30 31  2  0
 31 32  1  0
 32 33  1  0
 33 34  1  0
 33 35  1  0
 33 36  1  0
 32 37  2  0
 26  4  1  0
 37 28  1  0
 25  9  1  0
 15 11  1  0
 24 19  1  0
  3 38  1  0
  5 39  1  0
  6 40  1  0
  7 41  1  0
 10 42  1  0
 12 43  1  0
 13 44  1  0
 17 45  1  0
 18 46  1  0
 18 47  1  0
 20 48  1  0
 21 49  1  0
 22 50  1  0
 24 51  1  0
 26 52  1  0
 27 53  1  0
 29 54  1  0
 30 55  1  0
 31 56  1  0
 37 57  1  0
M  END
>  <meeko>  (7) 
{"is_sidechain": [false], "free_energy": -8.854, "intermolecular_energy": -11.793, "internal_energy": -1.25}

$$$$
LIB_ZHKIURQRUBOVST__M_PUB_ALL__e8__s20260927
     RDKit          3D

 57 61  0  0  0  0  0  0  0  0999 V2000
    7.9080  -16.0930   -0.9920 O   0  0  0  0  0  0  0  0  0  0  0  0
    7.4560  -15.2220   -0.2590 C   0  0  0  0  0  0  0  0  0  0  0  0
    6.4030  -15.3940    0.6180 N   0  0  0  0  0  0  0  0  0  0  0  0
    5.5490  -16.5030    0.7570 C   0  0  0  0  0  0  0  0  0  0  0  0
    5.9390  -17.8020    1.0540 C   0  0  0  0  0  0  0  0  0  0  0  0
    4.9860  -18.8310    1.0590 C   0  0  0  0  0  0  0  0  0  0  0  0
    3.6430  -18.5740    0.7470 C   0  0  0  0  0  0  0  0  0  0  0  0
    3.2360  -17.2710    0.4590 C   0  0  0  0  0  0  0  0  0  0  0  0
    1.8730  -16.8730    0.0280 C   0  0  0  0  0  0  0  0  0  0  0  0
    0.7720  -17.1610    0.7490 C   0  0  0  0  0  0  0  0  0  0  0  0
   -0.4340  -16.6360    0.3260 N   0  0  0  0  0  0  0  0  0  0  0  0
   -1.7030  -16.7260    0.8280 C   0  0  0  0  0  0  0  0  0  0  0  0
   -2.4790  -15.9550   -0.0160 C   0  0  0  0  0  0  0  0  0  0  0  0
   -1.7220  -15.3920   -1.0180 N   0  0  0  0  0  0  0  0  0  0  0  0
   -0.5020  -15.8260   -0.7780 C   0  0  0  0  0  0  0  0  0  0  0  0
    0.7100  -15.5460   -1.5240 C   0  0  0  0  0  0  0  0  0  0  0  0
    0.7150  -14.7160   -2.6210 N   0  0  0  0  0  0  0  0  0  0  0  0
    1.8590  -14.4750   -3.4720 C   0  0  0  0  0  0  0  0  0  0  0  0
    2.2460  -13.0180   -3.5500 C   0  0  0  0  0  0  0  0  0  0  0  0
    2.8490  -12.4690   -4.6850 C   0  0  0  0  0  0  0  0  0  0  0  0
    3.1790  -11.1160   -4.7100 C   0  0  0  0  0  0  0  0  0  0  0  0
    2.8940  -10.3440   -3.5930 C   0  0  0  0  0  0  0  0  0  0  0  0
    2.3110  -10.8240   -2.4700 N   0  0  0  0  0  0  0  0  0  0  0  0
    2.0200  -12.1540   -2.4760 C   0  0  0  0  0  0  0  0  0  0  0  0
    1.8260  -16.1020   -1.1290 N   0  0  0  0  0  0  0  0  0  0  0  0
    4.2000  -16.2540    0.5070 C   0  0  0  0  0  0  0  0  0  0  0  0
    7.9190  -13.9140   -0.1820 N   0  0  0  0  0  0  0  0  0  0  0  0
    9.0230  -13.3430   -0.8410 C   0  0  0  0  0  0  0  0  0  0  0  0
    8.9960  -13.3390   -2.2410 C   0  0  0  0  0  0  0  0  0  0  0  0
   10.0500  -12.7900   -2.9730 C   0  0  0  0  0  0  0  0  0  0  0  0
   11.1430  -12.2350   -2.3110 C   0  0  0  0  0  0  0  0  0  0  0  0
   11.1870  -12.2180   -0.9110 C   0  0  0  0  0  0  0  0  0  0  0  0
   12.3680  -11.6330   -0.1770 C   0  0  0  0  0  0  0  0  0  0  0  0
   13.0700  -12.5600    0.5300 F   0  0  0  0  0  0  0  0  0  0  0  0
   12.0160  -10.6720    0.7260 F   0  0  0  0  0  0  0  0  0  0  0  0
   13.2630  -11.0410   -1.0160 F   0  0  0  0  0  0  0  0  0  0  0  0
   10.1190  -12.7810   -0.1840 C   0  0  0  0  0  0  0  0  0  0  0  0
    6.2050  -14.6140    1.2350 H   0  0  0  0  0  0  0  0  0  0  0  0
    6.9916  -18.0233    1.2845 H   0  0  0  0  0  0  0  0  0  0  0  0
    5.2967  -19.8555    1.3116 H   0  0  0  0  0  0  0  0  0  0  0  0
    2.9132  -19.3968    0.7294 H   0  0  0  0  0  0  0  0  0  0  0  0
    0.8313  -17.7943    1.6464 H   0  0  0  0  0  0  0  0  0  0  0  0
   -2.0342  -17.2901    1.7123 H   0  0  0  0  0  0  0  0  0  0  0  0
   -3.5634  -15.8097    0.0983 H   0  0  0  0  0  0  0  0  0  0  0  0
   -0.1800  -14.3200   -2.8910 H   0  0  0  0  0  0  0  0  0  0  0  0
    2.7142  -15.0432   -3.0773 H   0  0  0  0  0  0  0  0  0  0  0  0
    1.5838  -14.7948   -4.4878 H   0  0  0  0  0  0  0  0  0  0  0  0
    3.0626  -13.1044   -5.5572 H   0  0  0  0  0  0  0  0  0  0  0  0
    3.6549  -10.6696   -5.5955 H   0  0  0  0  0  0  0  0  0  0  0  0
    3.1580   -9.2766   -3.6220 H   0  0  0  0  0  0  0  0  0  0  0  0
    1.5730  -12.5806   -1.5659 H   0  0  0  0  0  0  0  0  0  0  0  0
    3.8784  -15.2154    0.3403 H   0  0  0  0  0  0  0  0  0  0  0  0
    7.3510  -13.2860    0.3740 H   0  0  0  0  0  0  0  0  0  0  0  0
    8.1347  -13.7733   -2.7697 H   0  0  0  0  0  0  0  0  0  0  0  0
   10.0177  -12.7955   -4.0725 H   0  0  0  0  0  0  0  0  0  0  0  0
   11.9751  -11.8083   -2.8902 H   0  0  0  0  0  0  0  0  0  0  0  0
   10.1494  -12.7775    0.9156 H   0  0  0  0  0  0  0  0  0  0  0  0
  1  2  2  0
  2  3  1  0
  3  4  1  0
  4  5  2  0
  5  6  1  0
  6  7  2  0
  7  8  1  0
  8  9  1  0
  9 10  2  0
 10 11  1  0
 11 12  1  0
 12 13  2  0
 13 14  1  0
 14 15  2  0
 15 16  1  0
 16 17  1  0
 17 18  1  0
 18 19  1  0
 19 20  2  0
 20 21  1  0
 21 22  2  0
 22 23  1  0
 23 24  2  0
 16 25  2  0
  8 26  2  0
  2 27  1  0
 27 28  1  0
 28 29  2  0
 29 30  1  0
 30 31  2  0
 31 32  1  0
 32 33  1  0
 33 34  1  0
 33 35  1  0
 33 36  1  0
 32 37  2  0
 26  4  1  0
 37 28  1  0
 25  9  1  0
 15 11  1  0
 24 19  1  0
  3 38  1  0
  5 39  1  0
  6 40  1  0
  7 41  1  0
 10 42  1  0
 12 43  1  0
 13 44  1  0
 17 45  1  0
 18 46  1  0
 18 47  1  0
 20 48  1  0
 21 49  1  0
 22 50  1  0
 24 51  1  0
 26 52  1  0
 27 53  1  0
 29 54  1  0
 30 55  1  0
 31 56  1  0
 37 57  1  0
M  END
>  <meeko>  (8) 
{"is_sidechain": [false], "free_energy": -8.74, "intermolecular_energy": -11.808, "internal_energy": -1.082}

$$$$
LIB_ZHKIURQRUBOVST__M_PUB_ALL__e8__s20260927
     RDKit          3D

 57 61  0  0  0  0  0  0  0  0999 V2000
    1.6040  -12.6690   -1.1640 O   0  0  0  0  0  0  0  0  0  0  0  0
    1.5140  -11.4540   -1.2870 C   0  0  0  0  0  0  0  0  0  0  0  0
    2.1910  -10.7030   -2.2280 N   0  0  0  0  0  0  0  0  0  0  0  0
    3.2030  -11.1110   -3.1140 C   0  0  0  0  0  0  0  0  0  0  0  0
    3.0490  -11.3570   -4.4720 C   0  0  0  0  0  0  0  0  0  0  0  0
    4.1270  -11.8620   -5.2150 C   0  0  0  0  0  0  0  0  0  0  0  0
    5.3570  -12.1430   -4.6030 C   0  0  0  0  0  0  0  0  0  0  0  0
    5.5290  -11.8900   -3.2430 C   0  0  0  0  0  0  0  0  0  0  0  0
    6.7410  -12.2220   -2.4540 C   0  0  0  0  0  0  0  0  0  0  0  0
    7.9720  -12.2610   -3.0000 C   0  0  0  0  0  0  0  0  0  0  0  0
    9.0480  -12.4540   -2.1540 N   0  0  0  0  0  0  0  0  0  0  0  0
   10.3950  -12.5310   -2.3820 C   0  0  0  0  0  0  0  0  0  0  0  0
   10.9610  -12.6990   -1.1340 C   0  0  0  0  0  0  0  0  0  0  0  0
   10.0030  -12.7240   -0.1470 N   0  0  0  0  0  0  0  0  0  0  0  0
    8.8690  -12.5750   -0.8010 C   0  0  0  0  0  0  0  0  0  0  0  0
    7.5230  -12.5280   -0.2600 C   0  0  0  0  0  0  0  0  0  0  0  0
    7.2790  -12.6110    1.0920 N   0  0  0  0  0  0  0  0  0  0  0  0
    5.9650  -12.6760    1.6930 C   0  0  0  0  0  0  0  0  0  0  0  0
    5.2570  -13.9840    1.4350 C   0  0  0  0  0  0  0  0  0  0  0  0
    3.8650  -14.0690    1.3380 C   0  0  0  0  0  0  0  0  0  0  0  0
    3.2610  -15.2990    1.0900 C   0  0  0  0  0  0  0  0  0  0  0  0
    4.0690  -16.4170    0.9410 C   0  0  0  0  0  0  0  0  0  0  0  0
    5.4190  -16.3900    1.0250 N   0  0  0  0  0  0  0  0  0  0  0  0
    5.9730  -15.1730    1.2870 C   0  0  0  0  0  0  0  0  0  0  0  0
    6.5230  -12.3980   -1.0910 N   0  0  0  0  0  0  0  0  0  0  0  0
    4.4500  -11.3410   -2.5340 C   0  0  0  0  0  0  0  0  0  0  0  0
    0.7220  -10.6210   -0.5070 N   0  0  0  0  0  0  0  0  0  0  0  0
   -0.1850  -10.9840    0.5060 C   0  0  0  0  0  0  0  0  0  0  0  0
   -1.4350  -10.3540    0.4960 C   0  0  0  0  0  0  0  0  0  0  0  0
   -2.3950  -10.6570    1.4640 C   0  0  0  0  0  0  0  0  0  0  0  0
   -2.1140  -11.5980    2.4510 C   0  0  0  0  0  0  0  0  0  0  0  0
   -0.8750  -12.2510    2.4740 C   0  0  0  0  0  0  0  0  0  0  0  0
   -0.5490  -13.2640    3.5430 C   0  0  0  0  0  0  0  0  0  0  0  0
    0.6350  -13.9010    3.3340 F   0  0  0  0  0  0  0  0  0  0  0  0
   -1.4840  -14.2520    3.6470 F   0  0  0  0  0  0  0  0  0  0  0  0
   -0.4640  -12.7060    4.7830 F   0  0  0  0  0  0  0  0  0  0  0  0
    0.0860  -11.9310    1.4960 C   0  0  0  0  0  0  0  0  0  0  0  0
    1.9400   -9.7210   -2.2790 H   0  0  0  0  0  0  0  0  0  0  0  0
    2.0855  -11.1567   -4.9635 H   0  0  0  0  0  0  0  0  0  0  0  0
    4.0054  -12.0401   -6.2936 H   0  0  0  0  0  0  0  0  0  0  0  0
    6.1842  -12.5621   -5.1947 H   0  0  0  0  0  0  0  0  0  0  0  0
    8.1162  -12.1431   -4.0841 H   0  0  0  0  0  0  0  0  0  0  0  0
   10.9143  -12.4719   -3.3499 H   0  0  0  0  0  0  0  0  0  0  0  0
   12.0411  -12.8001   -0.9519 H   0  0  0  0  0  0  0  0  0  0  0  0
    8.0900  -12.7230    1.6910 H   0  0  0  0  0  0  0  0  0  0  0  0
    6.0708  -12.5442    2.7799 H   0  0  0  0  0  0  0  0  0  0  0  0
    5.3575  -11.8801    1.2374 H   0  0  0  0  0  0  0  0  0  0  0  0
    3.2481  -13.1661    1.4573 H   0  0  0  0  0  0  0  0  0  0  0  0
    2.1668  -15.3824    1.0139 H   0  0  0  0  0  0  0  0  0  0  0  0
    3.5827  -17.3835    0.7426 H   0  0  0  0  0  0  0  0  0  0  0  0
    7.0671  -15.1238    1.3896 H   0  0  0  0  0  0  0  0  0  0  0  0
    4.5939  -11.0808   -1.4750 H   0  0  0  0  0  0  0  0  0  0  0  0
    0.8640   -9.6300   -0.6490 H   0  0  0  0  0  0  0  0  0  0  0  0
   -1.6637   -9.6119   -0.2831 H   0  0  0  0  0  0  0  0  0  0  0  0
   -3.3724  -10.1526    1.4467 H   0  0  0  0  0  0  0  0  0  0  0  0
   -2.8689  -11.8298    3.2167 H   0  0  0  0  0  0  0  0  0  0  0  0
    1.0641  -12.4340    1.5119 H   0  0  0  0  0  0  0  0  0  0  0  0
  1  2  2  0
  2  3  1  0
  3  4  1  0
  4  5  2  0
  5  6  1  0
  6  7  2  0
  7  8  1  0
  8  9  1  0
  9 10  2  0
 10 11  1  0
 11 12  1  0
 12 13  2  0
 13 14  1  0
 14 15  2  0
 15 16  1  0
 16 17  1  0
 17 18  1  0
 18 19  1  0
 19 20  2  0
 20 21  1  0
 21 22  2  0
 22 23  1  0
 23 24  2  0
 16 25  2  0
  8 26  2  0
  2 27  1  0
 27 28  1  0
 28 29  2  0
 29 30  1  0
 30 31  2  0
 31 32  1  0
 32 33  1  0
 33 34  1  0
 33 35  1  0
 33 36  1  0
 32 37  2  0
 26  4  1  0
 37 28  1  0
 25  9  1  0
 15 11  1  0
 24 19  1  0
  3 38  1  0
  5 39  1  0
  6 40  1  0
  7 41  1  0
 10 42  1  0
 12 43  1  0
 13 44  1  0
 17 45  1  0
 18 46  1  0
 18 47  1  0
 20 48  1  0
 21 49  1  0
 22 50  1  0
 24 51  1  0
 26 52  1  0
 27 53  1  0
 29 54  1  0
 30 55  1  0
 31 56  1  0
 37 57  1  0
M  END
>  <meeko>  (9) 
{"is_sidechain": [false], "free_energy": -8.724, "intermolecular_energy": -11.459, "internal_energy": -1.409}

$$$$
