LIB_VDQZIQXNPVFCAD__M_PUB_ALL__e8__s20260927
     RDKit          3D

 61 65  0  0  0  0  0  0  0  0999 V2000
    5.9560  -16.7430   -5.8720 C   0  0  0  0  0  0  0  0  0  0  0  0
    6.9540  -15.7600   -6.1230 O   0  0  0  0  0  0  0  0  0  0  0  0
    7.0410  -15.2720   -7.4080 C   0  0  0  0  0  0  0  0  0  0  0  0
    7.4380  -16.0170   -8.5200 C   0  0  0  0  0  0  0  0  0  0  0  0
    7.4890  -15.4190   -9.7820 C   0  0  0  0  0  0  0  0  0  0  0  0
    7.1380  -14.0730   -9.9510 C   0  0  0  0  0  0  0  0  0  0  0  0
    7.2050  -13.4160  -11.3090 C   0  0  0  0  0  0  0  0  0  0  0  0
    6.4000  -14.0250  -12.2220 F   0  0  0  0  0  0  0  0  0  0  0  0
    6.8200  -12.1080  -11.2900 F   0  0  0  0  0  0  0  0  0  0  0  0
    8.4570  -13.4230  -11.8430 F   0  0  0  0  0  0  0  0  0  0  0  0
    6.7460  -13.3240   -8.8290 C   0  0  0  0  0  0  0  0  0  0  0  0
    6.6940  -13.9120   -7.5620 C   0  0  0  0  0  0  0  0  0  0  0  0
    6.3060  -13.2200   -6.3920 N   0  0  0  0  0  0  0  0  0  0  0  0
    5.0340  -12.8610   -5.9800 C   0  0  0  0  0  0  0  0  0  0  0  0
    4.0120  -13.0700   -6.6220 O   0  0  0  0  0  0  0  0  0  0  0  0
    5.0850  -12.2380   -4.7420 N   0  0  0  0  0  0  0  0  0  0  0  0
    4.0170  -11.6750   -4.0100 C   0  0  0  0  0  0  0  0  0  0  0  0
    3.3550  -10.5020   -4.3710 C   0  0  0  0  0  0  0  0  0  0  0  0
    2.3200  -10.0000   -3.5780 C   0  0  0  0  0  0  0  0  0  0  0  0
    1.9350  -10.6700   -2.4180 C   0  0  0  0  0  0  0  0  0  0  0  0
    2.5730  -11.8580   -2.0420 C   0  0  0  0  0  0  0  0  0  0  0  0
    2.1510  -12.5550   -0.8090 C   0  0  0  0  0  0  0  0  0  0  0  0
    2.7630  -13.7020   -0.4510 C   0  0  0  0  0  0  0  0  0  0  0  0
    2.3340  -14.3390    0.6930 N   0  0  0  0  0  0  0  0  0  0  0  0
    2.7360  -15.4900    1.3140 C   0  0  0  0  0  0  0  0  0  0  0  0
    1.9230  -15.5980    2.4250 C   0  0  0  0  0  0  0  0  0  0  0  0
    1.0360  -14.5500    2.5000 N   0  0  0  0  0  0  0  0  0  0  0  0
    1.3150  -13.8190    1.4390 C   0  0  0  0  0  0  0  0  0  0  0  0
    0.6770  -12.5870    1.0080 C   0  0  0  0  0  0  0  0  0  0  0  0
   -0.3530  -12.0460    1.7350 N   0  0  0  0  0  0  0  0  0  0  0  0
   -1.0380  -10.8320    1.3870 C   0  0  0  0  0  0  0  0  0  0  0  0
   -2.3790  -11.1630    0.7890 C   0  0  0  0  0  0  0  0  0  0  0  0
   -3.0980  -12.2830    1.2190 C   0  0  0  0  0  0  0  0  0  0  0  0
   -4.3400  -12.5310    0.6580 C   0  0  0  0  0  0  0  0  0  0  0  0
   -4.9090  -11.7470   -0.2830 N   0  0  0  0  0  0  0  0  0  0  0  0
   -4.2060  -10.6630   -0.6750 C   0  0  0  0  0  0  0  0  0  0  0  0
   -2.9570  -10.3310   -0.1750 C   0  0  0  0  0  0  0  0  0  0  0  0
    1.1010  -11.9960   -0.0880 N   0  0  0  0  0  0  0  0  0  0  0  0
    3.6230  -12.3440   -2.8410 C   0  0  0  0  0  0  0  0  0  0  0  0
    5.8292  -16.8679   -4.7865 H   0  0  0  0  0  0  0  0  0  0  0  0
    5.0035  -16.4206   -6.3177 H   0  0  0  0  0  0  0  0  0  0  0  0
    6.2640  -17.7003   -6.3177 H   0  0  0  0  0  0  0  0  0  0  0  0
    7.7110  -17.0761   -8.4026 H   0  0  0  0  0  0  0  0  0  0  0  0
    7.8082  -16.0114  -10.6522 H   0  0  0  0  0  0  0  0  0  0  0  0
    6.4773  -12.2641   -8.9488 H   0  0  0  0  0  0  0  0  0  0  0  0
    7.0900  -12.9380   -5.8200 H   0  0  0  0  0  0  0  0  0  0  0  0
    5.9900  -12.2040   -4.3010 H   0  0  0  0  0  0  0  0  0  0  0  0
    3.6497   -9.9682   -5.2865 H   0  0  0  0  0  0  0  0  0  0  0  0
    1.8068   -9.0720   -3.8704 H   0  0  0  0  0  0  0  0  0  0  0  0
    1.1253  -10.2630   -1.7945 H   0  0  0  0  0  0  0  0  0  0  0  0
    3.5824  -14.1178   -1.0558 H   0  0  0  0  0  0  0  0  0  0  0  0
    3.5329  -16.1790    0.9974 H   0  0  0  0  0  0  0  0  0  0  0  0
    1.9780  -16.4177    3.1565 H   0  0  0  0  0  0  0  0  0  0  0  0
   -0.6370  -12.5470    2.5730 H   0  0  0  0  0  0  0  0  0  0  0  0
   -1.1807  -10.2203    2.2901 H   0  0  0  0  0  0  0  0  0  0  0  0
   -0.4392  -10.2717    0.6539 H   0  0  0  0  0  0  0  0  0  0  0  0
   -2.6854  -12.9535    1.9873 H   0  0  0  0  0  0  0  0  0  0  0  0
   -4.8948  -13.4177    0.9986 H   0  0  0  0  0  0  0  0  0  0  0  0
   -4.6508  -10.0048   -1.4359 H   0  0  0  0  0  0  0  0  0  0  0  0
   -2.4313   -9.4319   -0.5289 H   0  0  0  0  0  0  0  0  0  0  0  0
    4.1452  -13.2656   -2.5443 H   0  0  0  0  0  0  0  0  0  0  0  0
  1  2  1  0
  2  3  1  0
  3  4  2  0
  4  5  1  0
  5  6  2  0
  6  7  1  0
  7  8  1  0
  7  9  1  0
  7 10  1  0
  6 11  1  0
 11 12  2  0
 12 13  1  0
 13 14  1  0
 14 15  2  0
 14 16  1  0
 16 17  1  0
 17 18  2  0
 18 19  1  0
 19 20  2  0
 20 21  1  0
 21 22  1  0
 22 23  2  0
 23 24  1  0
 24 25  1  0
 25 26  2  0
 26 27  1  0
 27 28  2  0
 28 29  1  0
 29 30  1  0
 30 31  1  0
 31 32  1  0
 32 33  2  0
 33 34  1  0
 34 35  2  0
 35 36  1  0
 36 37  2  0
 29 38  2  0
 21 39  2  0
 12  3  1  0
 39 17  1  0
 38 22  1  0
 28 24  1  0
 37 32  1  0
  1 40  1  0
  1 41  1  0
  1 42  1  0
  4 43  1  0
  5 44  1  0
 11 45  1  0
 13 46  1  0
 16 47  1  0
 18 48  1  0
 19 49  1  0
 20 50  1  0
 23 51  1  0
 25 52  1  0
 26 53  1  0
 30 54  1  0
 31 55  1  0
 31 56  1  0
 33 57  1  0
 34 58  1  0
 36 59  1  0
 37 60  1  0
 39 61  1  0
M  END
>  <meeko>  (1) 
{"is_sidechain": [false], "free_energy": -9.67, "intermolecular_energy": -13.627, "internal_energy": -1.325}

$$$$
LIB_VDQZIQXNPVFCAD__M_PUB_ALL__e8__s20260927
     RDKit          3D

 61 65  0  0  0  0  0  0  0  0999 V2000
   12.6190  -14.3950   -5.6730 C   0  0  0  0  0  0  0  0  0  0  0  0
   11.7760  -13.3440   -5.2170 O   0  0  0  0  0  0  0  0  0  0  0  0
   12.0720  -12.7940   -3.9890 C   0  0  0  0  0  0  0  0  0  0  0  0
   13.3400  -12.3650   -3.5910 C   0  0  0  0  0  0  0  0  0  0  0  0
   13.5270  -11.8190   -2.3190 C   0  0  0  0  0  0  0  0  0  0  0  0
   12.4510  -11.6860   -1.4310 C   0  0  0  0  0  0  0  0  0  0  0  0
   12.6480  -11.1100   -0.0490 C   0  0  0  0  0  0  0  0  0  0  0  0
   13.8480  -11.4550    0.4920 F   0  0  0  0  0  0  0  0  0  0  0  0
   12.6100   -9.7470   -0.0270 F   0  0  0  0  0  0  0  0  0  0  0  0
   11.7000  -11.5180    0.8390 F   0  0  0  0  0  0  0  0  0  0  0  0
   11.1780  -12.1250   -1.8320 C   0  0  0  0  0  0  0  0  0  0  0  0
   10.9800  -12.6760   -3.1020 C   0  0  0  0  0  0  0  0  0  0  0  0
    9.7290  -13.1330   -3.5720 N   0  0  0  0  0  0  0  0  0  0  0  0
    8.5380  -12.4350   -3.6840 C   0  0  0  0  0  0  0  0  0  0  0  0
    8.3810  -11.2700   -3.3410 O   0  0  0  0  0  0  0  0  0  0  0  0
    7.5570  -13.2410   -4.2430 N   0  0  0  0  0  0  0  0  0  0  0  0
    6.2000  -12.9240   -4.4690 C   0  0  0  0  0  0  0  0  0  0  0  0
    5.6010  -12.9080   -5.7290 C   0  0  0  0  0  0  0  0  0  0  0  0
    4.2540  -12.5620   -5.8680 C   0  0  0  0  0  0  0  0  0  0  0  0
    3.4930  -12.2350   -4.7470 C   0  0  0  0  0  0  0  0  0  0  0  0
    4.0660  -12.2590   -3.4700 C   0  0  0  0  0  0  0  0  0  0  0  0
    3.2430  -11.9090   -2.2930 C   0  0  0  0  0  0  0  0  0  0  0  0
    2.1880  -11.0810   -2.4420 C   0  0  0  0  0  0  0  0  0  0  0  0
    1.4530  -10.7570   -1.3230 N   0  0  0  0  0  0  0  0  0  0  0  0
    0.3520   -9.9660   -1.1390 C   0  0  0  0  0  0  0  0  0  0  0  0
    0.0790  -10.0430    0.2120 C   0  0  0  0  0  0  0  0  0  0  0  0
    0.9790  -10.8570    0.8590 N   0  0  0  0  0  0  0  0  0  0  0  0
    1.7890  -11.2630   -0.0990 C   0  0  0  0  0  0  0  0  0  0  0  0
    2.9400  -12.1420    0.0150 C   0  0  0  0  0  0  0  0  0  0  0  0
    3.3030  -12.6580    1.2330 N   0  0  0  0  0  0  0  0  0  0  0  0
    4.4220  -13.5360    1.4380 C   0  0  0  0  0  0  0  0  0  0  0  0
    5.6980  -12.8140    1.0970 C   0  0  0  0  0  0  0  0  0  0  0  0
    6.7050  -13.4470    0.3630 C   0  0  0  0  0  0  0  0  0  0  0  0
    7.8510  -12.7320    0.0500 C   0  0  0  0  0  0  0  0  0  0  0  0
    8.0530  -11.4470    0.4080 N   0  0  0  0  0  0  0  0  0  0  0  0
    7.0640  -10.8470    1.1050 C   0  0  0  0  0  0  0  0  0  0  0  0
    5.8840  -11.4780    1.4650 C   0  0  0  0  0  0  0  0  0  0  0  0
    3.6300  -12.4360   -1.0650 N   0  0  0  0  0  0  0  0  0  0  0  0
    5.4260  -12.5930   -3.3460 C   0  0  0  0  0  0  0  0  0  0  0  0
   13.0443  -14.9253   -4.8082 H   0  0  0  0  0  0  0  0  0  0  0  0
   12.0317  -15.0982   -6.2817 H   0  0  0  0  0  0  0  0  0  0  0  0
   13.4329  -13.9743   -6.2817 H   0  0  0  0  0  0  0  0  0  0  0  0
   14.1925  -12.4572   -4.2800 H   0  0  0  0  0  0  0  0  0  0  0  0
   14.5303  -11.4897   -2.0108 H   0  0  0  0  0  0  0  0  0  0  0  0
   10.3281  -12.0343   -1.1396 H   0  0  0  0  0  0  0  0  0  0  0  0
    9.7320  -14.1130   -3.8190 H   0  0  0  0  0  0  0  0  0  0  0  0
    7.8540  -14.1550   -4.5450 H   0  0  0  0  0  0  0  0  0  0  0  0
    6.1927  -13.1694   -6.6187 H   0  0  0  0  0  0  0  0  0  0  0  0
    3.7925  -12.5477   -6.8664 H   0  0  0  0  0  0  0  0  0  0  0  0
    2.4356  -11.9563   -4.8665 H   0  0  0  0  0  0  0  0  0  0  0  0
    1.9223  -10.6760   -3.4296 H   0  0  0  0  0  0  0  0  0  0  0  0
   -0.1963   -9.3934   -1.9015 H   0  0  0  0  0  0  0  0  0  0  0  0
   -0.7522   -9.5201    0.7077 H   0  0  0  0  0  0  0  0  0  0  0  0
    2.7330  -12.3950    2.0320 H   0  0  0  0  0  0  0  0  0  0  0  0
    4.4507  -13.8531    2.4909 H   0  0  0  0  0  0  0  0  0  0  0  0
    4.3173  -14.4192    0.7907 H   0  0  0  0  0  0  0  0  0  0  0  0
    6.5906  -14.4922    0.0399 H   0  0  0  0  0  0  0  0  0  0  0  0
    8.6401  -13.2413   -0.5226 H   0  0  0  0  0  0  0  0  0  0  0  0
    7.2031   -9.7976    1.4040 H   0  0  0  0  0  0  0  0  0  0  0  0
    5.1090  -10.9385    2.0291 H   0  0  0  0  0  0  0  0  0  0  0  0
    5.8924  -12.5949   -2.3498 H   0  0  0  0  0  0  0  0  0  0  0  0
  1  2  1  0
  2  3  1  0
  3  4  2  0
  4  5  1  0
  5  6  2  0
  6  7  1  0
  7  8  1  0
  7  9  1  0
  7 10  1  0
  6 11  1  0
 11 12  2  0
 12 13  1  0
 13 14  1  0
 14 15  2  0
 14 16  1  0
 16 17  1  0
 17 18  2  0
 18 19  1  0
 19 20  2  0
 20 21  1  0
 21 22  1  0
 22 23  2  0
 23 24  1  0
 24 25  1  0
 25 26  2  0
 26 27  1  0
 27 28  2  0
 28 29  1  0
 29 30  1  0
 30 31  1  0
 31 32  1  0
 32 33  2  0
 33 34  1  0
 34 35  2  0
 35 36  1  0
 36 37  2  0
 29 38  2  0
 21 39  2  0
 12  3  1  0
 39 17  1  0
 38 22  1  0
 28 24  1  0
 37 32  1  0
  1 40  1  0
  1 41  1  0
  1 42  1  0
  4 43  1  0
  5 44  1  0
 11 45  1  0
 13 46  1  0
 16 47  1  0
 18 48  1  0
 19 49  1  0
 20 50  1  0
 23 51  1  0
 25 52  1  0
 26 53  1  0
 30 54  1  0
 31 55  1  0
 31 56  1  0
 33 57  1  0
 34 58  1  0
 36 59  1  0
 37 60  1  0
 39 61  1  0
M  END
>  <meeko>  (2) 
{"is_sidechain": [false], "free_energy": -9.021, "intermolecular_energy": -12.727, "internal_energy": -1.309}

$$$$
LIB_VDQZIQXNPVFCAD__M_PUB_ALL__e8__s20260927
     RDKit          3D

 61 65  0  0  0  0  0  0  0  0999 V2000
    8.3580  -11.9120    1.1200 C   0  0  0  0  0  0  0  0  0  0  0  0
    8.6710  -12.9920    0.2480 O   0  0  0  0  0  0  0  0  0  0  0  0
    9.7700  -12.8360   -0.5690 C   0  0  0  0  0  0  0  0  0  0  0  0
   11.0840  -12.6850   -0.1200 C   0  0  0  0  0  0  0  0  0  0  0  0
   12.1250  -12.5350   -1.0390 C   0  0  0  0  0  0  0  0  0  0  0  0
   11.8700  -12.5420   -2.4180 C   0  0  0  0  0  0  0  0  0  0  0  0
   12.9880  -12.3670   -3.4170 C   0  0  0  0  0  0  0  0  0  0  0  0
   13.5560  -11.1320   -3.3500 F   0  0  0  0  0  0  0  0  0  0  0  0
   14.0080  -13.2540   -3.2400 F   0  0  0  0  0  0  0  0  0  0  0  0
   12.5810  -12.5280   -4.7060 F   0  0  0  0  0  0  0  0  0  0  0  0
   10.5470  -12.6880   -2.8650 C   0  0  0  0  0  0  0  0  0  0  0  0
    9.4970  -12.8350   -1.9540 C   0  0  0  0  0  0  0  0  0  0  0  0
    8.1440  -12.9900   -2.3330 N   0  0  0  0  0  0  0  0  0  0  0  0
    7.1500  -12.0300   -2.4060 C   0  0  0  0  0  0  0  0  0  0  0  0
    7.2980  -10.8540   -2.1010 O   0  0  0  0  0  0  0  0  0  0  0  0
    5.9710  -12.5900   -2.8750 N   0  0  0  0  0  0  0  0  0  0  0  0
    4.7170  -11.9630   -3.0360 C   0  0  0  0  0  0  0  0  0  0  0  0
    4.3100  -11.3180   -4.2040 C   0  0  0  0  0  0  0  0  0  0  0  0
    3.0570  -10.7020   -4.2730 C   0  0  0  0  0  0  0  0  0  0  0  0
    2.1980  -10.7310   -3.1760 C   0  0  0  0  0  0  0  0  0  0  0  0
    2.5750  -11.3860   -1.9980 C   0  0  0  0  0  0  0  0  0  0  0  0
    1.6510  -11.4070   -0.8450 C   0  0  0  0  0  0  0  0  0  0  0  0
    0.7170  -10.4400   -0.7250 C   0  0  0  0  0  0  0  0  0  0  0  0
   -0.1170  -10.4760    0.3710 N   0  0  0  0  0  0  0  0  0  0  0  0
   -1.1430   -9.6660    0.7770 C   0  0  0  0  0  0  0  0  0  0  0  0
   -1.5930  -10.2240    1.9560 C   0  0  0  0  0  0  0  0  0  0  0  0
   -0.8740  -11.3490    2.2840 N   0  0  0  0  0  0  0  0  0  0  0  0
    0.0040  -11.4640    1.3080 C   0  0  0  0  0  0  0  0  0  0  0  0
    1.0330  -12.4760    1.1410 C   0  0  0  0  0  0  0  0  0  0  0  0
    1.1810  -13.4750    2.0700 N   0  0  0  0  0  0  0  0  0  0  0  0
    2.1660  -14.5180    1.9850 C   0  0  0  0  0  0  0  0  0  0  0  0
    1.6260  -15.6540    1.1580 C   0  0  0  0  0  0  0  0  0  0  0  0
    0.5160  -16.3880    1.5870 C   0  0  0  0  0  0  0  0  0  0  0  0
    0.0390  -17.4070    0.7770 C   0  0  0  0  0  0  0  0  0  0  0  0
    0.5800  -17.7330   -0.4150 N   0  0  0  0  0  0  0  0  0  0  0  0
    1.6420  -17.0050   -0.8190 C   0  0  0  0  0  0  0  0  0  0  0  0
    2.1920  -15.9680   -0.0810 C   0  0  0  0  0  0  0  0  0  0  0  0
    1.8200  -12.4230    0.0890 N   0  0  0  0  0  0  0  0  0  0  0  0
    3.8450  -11.9880   -1.9360 C   0  0  0  0  0  0  0  0  0  0  0  0
    8.4543  -12.2441    2.1642 H   0  0  0  0  0  0  0  0  0  0  0  0
    9.0515  -11.0785    0.9349 H   0  0  0  0  0  0  0  0  0  0  0  0
    7.3262  -11.5785    0.9349 H   0  0  0  0  0  0  0  0  0  0  0  0
   11.2992  -12.6842    0.9587 H   0  0  0  0  0  0  0  0  0  0  0  0
   13.1562  -12.4100   -0.6772 H   0  0  0  0  0  0  0  0  0  0  0  0
   10.3344  -12.6867   -3.9443 H   0  0  0  0  0  0  0  0  0  0  0  0
    7.8990  -13.9480   -2.5410 H   0  0  0  0  0  0  0  0  0  0  0  0
    6.0220  -13.5560   -3.1570 H   0  0  0  0  0  0  0  0  0  0  0  0
    4.9794  -11.2939   -5.0765 H   0  0  0  0  0  0  0  0  0  0  0  0
    2.7477  -10.1921   -5.1973 H   0  0  0  0  0  0  0  0  0  0  0  0
    1.2175  -10.2360   -3.2363 H   0  0  0  0  0  0  0  0  0  0  0  0
    0.6244   -9.6460   -1.4806 H   0  0  0  0  0  0  0  0  0  0  0  0
   -1.5255   -8.7661    0.2731 H   0  0  0  0  0  0  0  0  0  0  0  0
   -2.4213   -9.8203    2.5568 H   0  0  0  0  0  0  0  0  0  0  0  0
    0.5440  -13.4640    2.8620 H   0  0  0  0  0  0  0  0  0  0  0  0
    3.0781  -14.1230    1.5138 H   0  0  0  0  0  0  0  0  0  0  0  0
    2.4025  -14.8814    2.9960 H   0  0  0  0  0  0  0  0  0  0  0  0
    0.0309  -16.1615    2.5479 H   0  0  0  0  0  0  0  0  0  0  0  0
   -0.8307  -17.9828    1.1264 H   0  0  0  0  0  0  0  0  0  0  0  0
    2.0978  -17.2484   -1.7901 H   0  0  0  0  0  0  0  0  0  0  0  0
    3.0559  -15.4040   -0.4626 H   0  0  0  0  0  0  0  0  0  0  0  0
    4.1607  -12.4877   -1.0083 H   0  0  0  0  0  0  0  0  0  0  0  0
  1  2  1  0
  2  3  1  0
  3  4  2  0
  4  5  1  0
  5  6  2  0
  6  7  1  0
  7  8  1  0
  7  9  1  0
  7 10  1  0
  6 11  1  0
 11 12  2  0
 12 13  1  0
 13 14  1  0
 14 15  2  0
 14 16  1  0
 16 17  1  0
 17 18  2  0
 18 19  1  0
 19 20  2  0
 20 21  1  0
 21 22  1  0
 22 23  2  0
 23 24  1  0
 24 25  1  0
 25 26  2  0
 26 27  1  0
 27 28  2  0
 28 29  1  0
 29 30  1  0
 30 31  1  0
 31 32  1  0
 32 33  2  0
 33 34  1  0
 34 35  2  0
 35 36  1  0
 36 37  2  0
 29 38  2  0
 21 39  2  0
 12  3  1  0
 39 17  1  0
 38 22  1  0
 28 24  1  0
 37 32  1  0
  1 40  1  0
  1 41  1  0
  1 42  1  0
  4 43  1  0
  5 44  1  0
 11 45  1  0
 13 46  1  0
 16 47  1  0
 18 48  1  0
 19 49  1  0
 20 50  1  0
 23 51  1  0
 25 52  1  0
 26 53  1  0
 30 54  1  0
 31 55  1  0
 31 56  1  0
 33 57  1  0
 34 58  1  0
 36 59  1  0
 37 60  1  0
 39 61  1  0
M  END
>  <meeko>  (3) 
{"is_sidechain": [false], "free_energy": -8.952, "intermolecular_energy": -12.516, "internal_energy": -1.423}

$$$$
LIB_VDQZIQXNPVFCAD__M_PUB_ALL__e8__s20260927
     RDKit          3D

 61 65  0  0  0  0  0  0  0  0999 V2000
    8.6000  -12.2300   -2.8650 C   0  0  0  0  0  0  0  0  0  0  0  0
    7.6600  -11.7010   -3.7940 O   0  0  0  0  0  0  0  0  0  0  0  0
    6.3260  -11.9060   -3.5160 C   0  0  0  0  0  0  0  0  0  0  0  0
    5.7090  -11.6130   -2.2990 C   0  0  0  0  0  0  0  0  0  0  0  0
    4.3450  -11.8610   -2.1260 C   0  0  0  0  0  0  0  0  0  0  0  0
    3.5780  -12.3980   -3.1690 C   0  0  0  0  0  0  0  0  0  0  0  0
    2.1060  -12.6830   -2.9860 C   0  0  0  0  0  0  0  0  0  0  0  0
    1.4480  -12.8050   -4.1710 F   0  0  0  0  0  0  0  0  0  0  0  0
    1.8660  -13.8410   -2.3070 F   0  0  0  0  0  0  0  0  0  0  0  0
    1.4580  -11.7080   -2.2910 F   0  0  0  0  0  0  0  0  0  0  0  0
    4.2030  -12.6990   -4.3910 C   0  0  0  0  0  0  0  0  0  0  0  0
    5.5680  -12.4570   -4.5720 C   0  0  0  0  0  0  0  0  0  0  0  0
    6.2600  -12.7310   -5.7740 N   0  0  0  0  0  0  0  0  0  0  0  0
    6.9460  -13.8780   -6.1360 C   0  0  0  0  0  0  0  0  0  0  0  0
    7.0900  -14.8570   -5.4150 O   0  0  0  0  0  0  0  0  0  0  0  0
    7.4390  -13.7580   -7.4260 N   0  0  0  0  0  0  0  0  0  0  0  0
    8.2380  -14.6790   -8.1390 C   0  0  0  0  0  0  0  0  0  0  0  0
    7.7390  -15.5940   -9.0650 C   0  0  0  0  0  0  0  0  0  0  0  0
    8.5970  -16.4870   -9.7110 C   0  0  0  0  0  0  0  0  0  0  0  0
    9.9640  -16.4690   -9.4410 C   0  0  0  0  0  0  0  0  0  0  0  0
   10.4930  -15.5490   -8.5280 C   0  0  0  0  0  0  0  0  0  0  0  0
   11.9460  -15.5440   -8.2550 C   0  0  0  0  0  0  0  0  0  0  0  0
   12.8160  -15.6080   -9.2840 C   0  0  0  0  0  0  0  0  0  0  0  0
   14.1630  -15.6220   -8.9950 N   0  0  0  0  0  0  0  0  0  0  0  0
   15.2760  -15.6780   -9.7890 C   0  0  0  0  0  0  0  0  0  0  0  0
   16.3420  -15.6560   -8.9120 C   0  0  0  0  0  0  0  0  0  0  0  0
   15.9140  -15.5900   -7.6070 N   0  0  0  0  0  0  0  0  0  0  0  0
   14.5990  -15.5740   -7.7010 C   0  0  0  0  0  0  0  0  0  0  0  0
   13.6240  -15.5180   -6.6260 C   0  0  0  0  0  0  0  0  0  0  0  0
   14.0350  -15.4760   -5.3170 N   0  0  0  0  0  0  0  0  0  0  0  0
   13.1430  -15.4160   -4.1920 C   0  0  0  0  0  0  0  0  0  0  0  0
   13.1520  -14.0250   -3.6170 C   0  0  0  0  0  0  0  0  0  0  0  0
   12.1620  -13.6150   -2.7180 C   0  0  0  0  0  0  0  0  0  0  0  0
   12.2280  -12.3340   -2.1940 C   0  0  0  0  0  0  0  0  0  0  0  0
   13.2020  -11.4500   -2.4960 N   0  0  0  0  0  0  0  0  0  0  0  0
   14.1570  -11.8670   -3.3550 C   0  0  0  0  0  0  0  0  0  0  0  0
   14.1770  -13.1270   -3.9310 C   0  0  0  0  0  0  0  0  0  0  0  0
   12.3440  -15.5080   -6.9220 N   0  0  0  0  0  0  0  0  0  0  0  0
    9.6160  -14.6670   -7.8730 C   0  0  0  0  0  0  0  0  0  0  0  0
    8.2523  -12.0343   -1.8399 H   0  0  0  0  0  0  0  0  0  0  0  0
    8.6965  -13.3149   -3.0186 H   0  0  0  0  0  0  0  0  0  0  0  0
    9.5775  -11.7495   -3.0186 H   0  0  0  0  0  0  0  0  0  0  0  0
    6.2980  -11.1858   -1.4740 H   0  0  0  0  0  0  0  0  0  0  0  0
    3.8682  -11.6325   -1.1614 H   0  0  0  0  0  0  0  0  0  0  0  0
    3.6125  -13.1293   -5.2133 H   0  0  0  0  0  0  0  0  0  0  0  0
    6.2610  -11.9520   -6.4170 H   0  0  0  0  0  0  0  0  0  0  0  0
    7.1770  -12.9230   -7.9250 H   0  0  0  0  0  0  0  0  0  0  0  0
    6.6621  -15.6128   -9.2884 H   0  0  0  0  0  0  0  0  0  0  0  0
    8.1917  -17.2079  -10.4363 H   0  0  0  0  0  0  0  0  0  0  0  0
   10.6311  -17.1816   -9.9481 H   0  0  0  0  0  0  0  0  0  0  0  0
   12.4601  -15.6479  -10.3241 H   0  0  0  0  0  0  0  0  0  0  0  0
   15.3133  -15.7294  -10.8872 H   0  0  0  0  0  0  0  0  0  0  0  0
   17.3981  -15.6873   -9.2180 H   0  0  0  0  0  0  0  0  0  0  0  0
   15.0370  -15.4870   -5.1500 H   0  0  0  0  0  0  0  0  0  0  0  0
   12.1239  -15.6711   -4.5183 H   0  0  0  0  0  0  0  0  0  0  0  0
   13.4728  -16.1317   -3.4245 H   0  0  0  0  0  0  0  0  0  0  0  0
   11.3469  -14.2963   -2.4325 H   0  0  0  0  0  0  0  0  0  0  0  0
   11.4417  -12.0197   -1.4919 H   0  0  0  0  0  0  0  0  0  0  0  0
   14.9651  -11.1664   -3.6121 H   0  0  0  0  0  0  0  0  0  0  0  0
   14.9832  -13.4153   -4.6216 H   0  0  0  0  0  0  0  0  0  0  0  0
   10.0174  -13.9538   -7.1380 H   0  0  0  0  0  0  0  0  0  0  0  0
  1  2  1  0
  2  3  1  0
  3  4  2  0
  4  5  1  0
  5  6  2  0
  6  7  1  0
  7  8  1  0
  7  9  1  0
  7 10  1  0
  6 11  1  0
 11 12  2  0
 12 13  1  0
 13 14  1  0
 14 15  2  0
 14 16  1  0
 16 17  1  0
 17 18  2  0
 18 19  1  0
 19 20  2  0
 20 21  1  0
 21 22  1  0
 22 23  2  0
 23 24  1  0
 24 25  1  0
 25 26  2  0
 26 27  1  0
 27 28  2  0
 28 29  1  0
 29 30  1  0
 30 31  1  0
 31 32  1  0
 32 33  2  0
 33 34  1  0
 34 35  2  0
 35 36  1  0
 36 37  2  0
 29 38  2  0
 21 39  2  0
 12  3  1  0
 39 17  1  0
 38 22  1  0
 28 24  1  0
 37 32  1  0
  1 40  1  0
  1 41  1  0
  1 42  1  0
  4 43  1  0
  5 44  1  0
 11 45  1  0
 13 46  1  0
 16 47  1  0
 18 48  1  0
 19 49  1  0
 20 50  1  0
 23 51  1  0
 25 52  1  0
 26 53  1  0
 30 54  1  0
 31 55  1  0
 31 56  1  0
 33 57  1  0
 34 58  1  0
 36 59  1  0
 37 60  1  0
 39 61  1  0
M  END
>  <meeko>  (4) 
{"is_sidechain": [false], "free_energy": -8.804, "intermolecular_energy": -12.105, "internal_energy": -1.626}

$$$$
LIB_VDQZIQXNPVFCAD__M_PUB_ALL__e8__s20260927
     RDKit          3D

 61 65  0  0  0  0  0  0  0  0999 V2000
   10.2520  -14.5000   -5.4430 C   0  0  0  0  0  0  0  0  0  0  0  0
    9.8130  -13.3280   -4.7640 O   0  0  0  0  0  0  0  0  0  0  0  0
   10.4950  -12.9780   -3.6200 C   0  0  0  0  0  0  0  0  0  0  0  0
   11.8700  -12.7410   -3.5490 C   0  0  0  0  0  0  0  0  0  0  0  0
   12.4590  -12.3890   -2.3330 C   0  0  0  0  0  0  0  0  0  0  0  0
   11.6830  -12.2610   -1.1720 C   0  0  0  0  0  0  0  0  0  0  0  0
   12.3150  -11.8960    0.1490 C   0  0  0  0  0  0  0  0  0  0  0  0
   11.4990  -11.1280    0.9220 F   0  0  0  0  0  0  0  0  0  0  0  0
   12.6310  -12.9820    0.9110 F   0  0  0  0  0  0  0  0  0  0  0  0
   13.4750  -11.1960    0.0100 F   0  0  0  0  0  0  0  0  0  0  0  0
   10.3020  -12.5070   -1.2450 C   0  0  0  0  0  0  0  0  0  0  0  0
    9.7030  -12.8630   -2.4570 C   0  0  0  0  0  0  0  0  0  0  0  0
    8.3210  -13.1200   -2.6030 N   0  0  0  0  0  0  0  0  0  0  0  0
    7.2490  -12.3250   -2.2350 C   0  0  0  0  0  0  0  0  0  0  0  0
    7.3480  -11.2450   -1.6680 O   0  0  0  0  0  0  0  0  0  0  0  0
    6.0540  -12.9260   -2.6040 N   0  0  0  0  0  0  0  0  0  0  0  0
    4.7420  -12.4680   -2.3580 C   0  0  0  0  0  0  0  0  0  0  0  0
    4.0740  -11.5410   -3.1580 C   0  0  0  0  0  0  0  0  0  0  0  0
    2.7820  -11.1240   -2.8320 C   0  0  0  0  0  0  0  0  0  0  0  0
    2.1420  -11.6360   -1.7050 C   0  0  0  0  0  0  0  0  0  0  0  0
    2.7820  -12.5800   -0.8940 C   0  0  0  0  0  0  0  0  0  0  0  0
    2.0880  -13.1130    0.2970 C   0  0  0  0  0  0  0  0  0  0  0  0
    2.5160  -14.2630    0.8570 C   0  0  0  0  0  0  0  0  0  0  0  0
    1.8360  -14.7440    1.9550 N   0  0  0  0  0  0  0  0  0  0  0  0
    2.0120  -15.8530    2.7350 C   0  0  0  0  0  0  0  0  0  0  0  0
    1.0120  -15.7840    3.6850 C   0  0  0  0  0  0  0  0  0  0  0  0
    0.2310  -14.6660    3.5070 N   0  0  0  0  0  0  0  0  0  0  0  0
    0.7580  -14.0710    2.4560 C   0  0  0  0  0  0  0  0  0  0  0  0
    0.3260  -12.8420    1.8120 C   0  0  0  0  0  0  0  0  0  0  0  0
   -0.7580  -12.1500    2.2910 N   0  0  0  0  0  0  0  0  0  0  0  0
   -1.2510  -10.9270    1.7210 C   0  0  0  0  0  0  0  0  0  0  0  0
   -2.5260  -11.2000    0.9680 C   0  0  0  0  0  0  0  0  0  0  0  0
   -3.3410  -12.2840    1.3090 C   0  0  0  0  0  0  0  0  0  0  0  0
   -4.5180  -12.4780    0.6040 C   0  0  0  0  0  0  0  0  0  0  0  0
   -4.9350  -11.6750   -0.3970 N   0  0  0  0  0  0  0  0  0  0  0  0
   -4.1410  -10.6260   -0.7030 C   0  0  0  0  0  0  0  0  0  0  0  0
   -2.9470  -10.3480   -0.0580 C   0  0  0  0  0  0  0  0  0  0  0  0
    0.9880  -12.4020    0.7650 N   0  0  0  0  0  0  0  0  0  0  0  0
    4.0900  -12.9790   -1.2250 C   0  0  0  0  0  0  0  0  0  0  0  0
   10.5385  -15.2649   -4.7063 H   0  0  0  0  0  0  0  0  0  0  0  0
    9.4372  -14.8853   -6.0736 H   0  0  0  0  0  0  0  0  0  0  0  0
   11.1194  -14.2552   -6.0736 H   0  0  0  0  0  0  0  0  0  0  0  0
   12.4900  -12.8319   -4.4531 H   0  0  0  0  0  0  0  0  0  0  0  0
   13.5433  -12.2102   -2.2852 H   0  0  0  0  0  0  0  0  0  0  0  0
    9.6851  -12.4186   -0.3386 H   0  0  0  0  0  0  0  0  0  0  0  0
    8.1280  -14.0280   -3.0020 H   0  0  0  0  0  0  0  0  0  0  0  0
    6.1330  -13.7810   -3.1320 H   0  0  0  0  0  0  0  0  0  0  0  0
    4.5689  -11.1353   -4.0527 H   0  0  0  0  0  0  0  0  0  0  0  0
    2.2672  -10.3883   -3.4674 H   0  0  0  0  0  0  0  0  0  0  0  0
    1.1271  -11.2959   -1.4512 H   0  0  0  0  0  0  0  0  0  0  0  0
    3.3836  -14.8020    0.4487 H   0  0  0  0  0  0  0  0  0  0  0  0
    2.7824  -16.6309    2.6290 H   0  0  0  0  0  0  0  0  0  0  0  0
    0.8598  -16.5274    4.4814 H   0  0  0  0  0  0  0  0  0  0  0  0
   -1.2290  -12.5390    3.1030 H   0  0  0  0  0  0  0  0  0  0  0  0
   -1.4481  -10.2018    2.5243 H   0  0  0  0  0  0  0  0  0  0  0  0
   -0.4994  -10.5160    1.0309 H   0  0  0  0  0  0  0  0  0  0  0  0
   -3.0535  -12.9688    2.1204 H   0  0  0  0  0  0  0  0  0  0  0  0
   -5.1493  -13.3367    0.8762 H   0  0  0  0  0  0  0  0  0  0  0  0
   -4.4613   -9.9529   -1.5119 H   0  0  0  0  0  0  0  0  0  0  0  0
   -2.3427   -9.4754   -0.3468 H   0  0  0  0  0  0  0  0  0  0  0  0
    4.6114  -13.7050   -0.5838 H   0  0  0  0  0  0  0  0  0  0  0  0
  1  2  1  0
  2  3  1  0
  3  4  2  0
  4  5  1  0
  5  6  2  0
  6  7  1  0
  7  8  1  0
  7  9  1  0
  7 10  1  0
  6 11  1  0
 11 12  2  0
 12 13  1  0
 13 14  1  0
 14 15  2  0
 14 16  1  0
 16 17  1  0
 17 18  2  0
 18 19  1  0
 19 20  2  0
 20 21  1  0
 21 22  1  0
 22 23  2  0
 23 24  1  0
 24 25  1  0
 25 26  2  0
 26 27  1  0
 27 28  2  0
 28 29  1  0
 29 30  1  0
 30 31  1  0
 31 32  1  0
 32 33  2  0
 33 34  1  0
 34 35  2  0
 35 36  1  0
 36 37  2  0
 29 38  2  0
 21 39  2  0
 12  3  1  0
 39 17  1  0
 38 22  1  0
 28 24  1  0
 37 32  1  0
  1 40  1  0
  1 41  1  0
  1 42  1  0
  4 43  1  0
  5 44  1  0
 11 45  1  0
 13 46  1  0
 16 47  1  0
 18 48  1  0
 19 49  1  0
 20 50  1  0
 23 51  1  0
 25 52  1  0
 26 53  1  0
 30 54  1  0
 31 55  1  0
 31 56  1  0
 33 57  1  0
 34 58  1  0
 36 59  1  0
 37 60  1  0
 39 61  1  0
M  END
>  <meeko>  (5) 
{"is_sidechain": [false], "free_energy": -8.776, "intermolecular_energy": -12.525, "internal_energy": -1.167}

$$$$
LIB_VDQZIQXNPVFCAD__M_PUB_ALL__e8__s20260927
     RDKit          3D

 61 65  0  0  0  0  0  0  0  0999 V2000
   10.3200  -11.7960    1.2190 C   0  0  0  0  0  0  0  0  0  0  0  0
    9.6670  -12.5370    0.1950 O   0  0  0  0  0  0  0  0  0  0  0  0
   10.4160  -12.8640   -0.9140 C   0  0  0  0  0  0  0  0  0  0  0  0
   11.6600  -13.4980   -0.8780 C   0  0  0  0  0  0  0  0  0  0  0  0
   12.3350  -13.7850   -2.0670 C   0  0  0  0  0  0  0  0  0  0  0  0
   11.7750  -13.4490   -3.3070 C   0  0  0  0  0  0  0  0  0  0  0  0
   12.5040  -13.7420   -4.5960 C   0  0  0  0  0  0  0  0  0  0  0  0
   11.6590  -14.0770   -5.6090 F   0  0  0  0  0  0  0  0  0  0  0  0
   13.2290  -12.6810   -5.0540 F   0  0  0  0  0  0  0  0  0  0  0  0
   13.3890  -14.7710   -4.4850 F   0  0  0  0  0  0  0  0  0  0  0  0
   10.5270  -12.8040   -3.3390 C   0  0  0  0  0  0  0  0  0  0  0  0
    9.8450  -12.5110   -2.1550 C   0  0  0  0  0  0  0  0  0  0  0  0
    8.5860  -11.8690   -2.1140 N   0  0  0  0  0  0  0  0  0  0  0  0
    7.3240  -12.4300   -2.2110 C   0  0  0  0  0  0  0  0  0  0  0  0
    7.1060  -13.6200   -2.3930 O   0  0  0  0  0  0  0  0  0  0  0  0
    6.3500  -11.4530   -2.0690 N   0  0  0  0  0  0  0  0  0  0  0  0
    4.9490  -11.6050   -2.1640 C   0  0  0  0  0  0  0  0  0  0  0  0
    4.1930  -11.2080   -3.2660 C   0  0  0  0  0  0  0  0  0  0  0  0
    2.8060  -11.3750   -3.2700 C   0  0  0  0  0  0  0  0  0  0  0  0
    2.1630  -11.9470   -2.1730 C   0  0  0  0  0  0  0  0  0  0  0  0
    2.9010  -12.3690   -1.0620 C   0  0  0  0  0  0  0  0  0  0  0  0
    2.2030  -12.9740    0.0920 C   0  0  0  0  0  0  0  0  0  0  0  0
    2.6450  -14.1440    0.5980 C   0  0  0  0  0  0  0  0  0  0  0  0
    1.9610  -14.6920    1.6610 N   0  0  0  0  0  0  0  0  0  0  0  0
    2.1480  -15.8370    2.3860 C   0  0  0  0  0  0  0  0  0  0  0  0
    1.1360  -15.8330    3.3260 C   0  0  0  0  0  0  0  0  0  0  0  0
    0.3370  -14.7220    3.1960 N   0  0  0  0  0  0  0  0  0  0  0  0
    0.8650  -14.0650    2.1830 C   0  0  0  0  0  0  0  0  0  0  0  0
    0.4190  -12.8120    1.5980 C   0  0  0  0  0  0  0  0  0  0  0  0
   -0.6820  -12.1650    2.0980 N   0  0  0  0  0  0  0  0  0  0  0  0
   -1.1910  -10.9230    1.5850 C   0  0  0  0  0  0  0  0  0  0  0  0
   -2.5130  -11.1620    0.9050 C   0  0  0  0  0  0  0  0  0  0  0  0
   -2.9630  -10.3070   -0.1060 C   0  0  0  0  0  0  0  0  0  0  0  0
   -4.1730  -10.5850   -0.7210 C   0  0  0  0  0  0  0  0  0  0  0  0
   -4.9490  -11.6430   -0.4070 N   0  0  0  0  0  0  0  0  0  0  0  0
   -4.4920  -12.4650    0.5620 C   0  0  0  0  0  0  0  0  0  0  0  0
   -3.2960  -12.2720    1.2350 C   0  0  0  0  0  0  0  0  0  0  0  0
    1.0850  -12.3070    0.5820 N   0  0  0  0  0  0  0  0  0  0  0  0
    4.2950  -12.1800   -1.0640 C   0  0  0  0  0  0  0  0  0  0  0  0
    9.9948  -12.1651    2.2029 H   0  0  0  0  0  0  0  0  0  0  0  0
   11.4089  -11.9188    1.1229 H   0  0  0  0  0  0  0  0  0  0  0  0
   10.0612  -10.7312    1.1229 H   0  0  0  0  0  0  0  0  0  0  0  0
   12.1090  -13.7718    0.0881 H   0  0  0  0  0  0  0  0  0  0  0  0
   13.3166  -14.2800   -2.0295 H   0  0  0  0  0  0  0  0  0  0  0  0
   10.0822  -12.5268   -4.3061 H   0  0  0  0  0  0  0  0  0  0  0  0
    8.6570  -10.8640   -2.0340 H   0  0  0  0  0  0  0  0  0  0  0  0
    6.6800  -10.5270   -1.8490 H   0  0  0  0  0  0  0  0  0  0  0  0
    4.6919  -10.7603   -4.1382 H   0  0  0  0  0  0  0  0  0  0  0  0
    2.2184  -11.0537   -4.1427 H   0  0  0  0  0  0  0  0  0  0  0  0
    1.0696  -12.0671   -2.1812 H   0  0  0  0  0  0  0  0  0  0  0  0
    3.5268  -14.6463    0.1737 H   0  0  0  0  0  0  0  0  0  0  0  0
    2.9331  -16.5954    2.2500 H   0  0  0  0  0  0  0  0  0  0  0  0
    0.9883  -16.6184    4.0819 H   0  0  0  0  0  0  0  0  0  0  0  0
   -1.1560  -12.6030    2.8830 H   0  0  0  0  0  0  0  0  0  0  0  0
   -1.3287  -10.2133    2.4141 H   0  0  0  0  0  0  0  0  0  0  0  0
   -0.4766  -10.5070    0.8594 H   0  0  0  0  0  0  0  0  0  0  0  0
   -2.3685   -9.4317   -0.4068 H   0  0  0  0  0  0  0  0  0  0  0  0
   -4.5212   -9.9035   -1.5112 H   0  0  0  0  0  0  0  0  0  0  0  0
   -5.1042  -13.3379    0.8327 H   0  0  0  0  0  0  0  0  0  0  0  0
   -2.9695  -12.9778    2.0129 H   0  0  0  0  0  0  0  0  0  0  0  0
    4.8830  -12.4887   -0.1871 H   0  0  0  0  0  0  0  0  0  0  0  0
  1  2  1  0
  2  3  1  0
  3  4  2  0
  4  5  1  0
  5  6  2  0
  6  7  1  0
  7  8  1  0
  7  9  1  0
  7 10  1  0
  6 11  1  0
 11 12  2  0
 12 13  1  0
 13 14  1  0
 14 15  2  0
 14 16  1  0
 16 17  1  0
 17 18  2  0
 18 19  1  0
 19 20  2  0
 20 21  1  0
 21 22  1  0
 22 23  2  0
 23 24  1  0
 24 25  1  0
 25 26  2  0
 26 27  1  0
 27 28  2  0
 28 29  1  0
 29 30  1  0
 30 31  1  0
 31 32  1  0
 32 33  2  0
 33 34  1  0
 34 35  2  0
 35 36  1  0
 36 37  2  0
 29 38  2  0
 21 39  2  0
 12  3  1  0
 39 17  1  0
 38 22  1  0
 28 24  1  0
 37 32  1  0
  1 40  1  0
  1 41  1  0
  1 42  1  0
  4 43  1  0
  5 44  1  0
 11 45  1  0
 13 46  1  0
 16 47  1  0
 18 48  1  0
 19 49  1  0
 20 50  1  0
 23 51  1  0
 25 52  1  0
 26 53  1  0
 30 54  1  0
 31 55  1  0
 31 56  1  0
 33 57  1  0
 34 58  1  0
 36 59  1  0
 37 60  1  0
 39 61  1  0
M  END
>  <meeko>  (6) 
{"is_sidechain": [false], "free_energy": -8.767, "intermolecular_energy": -12.413, "internal_energy": -1.266}

$$$$
LIB_VDQZIQXNPVFCAD__M_PUB_ALL__e8__s20260927
     RDKit          3D

 61 65  0  0  0  0  0  0  0  0999 V2000
   13.2280  -11.1530   -0.1360 C   0  0  0  0  0  0  0  0  0  0  0  0
   12.8010  -10.7670   -1.4380 O   0  0  0  0  0  0  0  0  0  0  0  0
   13.0170  -11.6670   -2.4580 C   0  0  0  0  0  0  0  0  0  0  0  0
   14.2690  -11.9920   -2.9850 C   0  0  0  0  0  0  0  0  0  0  0  0
   14.3730  -12.9220   -4.0220 C   0  0  0  0  0  0  0  0  0  0  0  0
   13.2300  -13.5460   -4.5410 C   0  0  0  0  0  0  0  0  0  0  0  0
   13.3330  -14.5410   -5.6710 C   0  0  0  0  0  0  0  0  0  0  0  0
   12.6100  -14.1680   -6.7620 F   0  0  0  0  0  0  0  0  0  0  0  0
   14.6100  -14.7160   -6.1170 F   0  0  0  0  0  0  0  0  0  0  0  0
   12.8910  -15.7830   -5.3300 F   0  0  0  0  0  0  0  0  0  0  0  0
   11.9720  -13.2120   -4.0140 C   0  0  0  0  0  0  0  0  0  0  0  0
   11.8570  -12.2800   -2.9780 C   0  0  0  0  0  0  0  0  0  0  0  0
   10.6250  -11.9000   -2.3980 N   0  0  0  0  0  0  0  0  0  0  0  0
    9.7870  -12.6410   -1.5830 C   0  0  0  0  0  0  0  0  0  0  0  0
    9.9850  -13.8050   -1.2590 O   0  0  0  0  0  0  0  0  0  0  0  0
    8.7010  -11.8760   -1.1850 N   0  0  0  0  0  0  0  0  0  0  0  0
    7.5960  -12.2790   -0.4030 C   0  0  0  0  0  0  0  0  0  0  0  0
    7.6080  -12.3430    0.9910 C   0  0  0  0  0  0  0  0  0  0  0  0
    6.4770  -12.7730    1.6890 C   0  0  0  0  0  0  0  0  0  0  0  0
    5.3220  -13.1380    1.0000 C   0  0  0  0  0  0  0  0  0  0  0  0
    5.2780  -13.0670   -0.3970 C   0  0  0  0  0  0  0  0  0  0  0  0
    4.0450  -13.4580   -1.1110 C   0  0  0  0  0  0  0  0  0  0  0  0
    4.0510  -13.5310   -2.4580 C   0  0  0  0  0  0  0  0  0  0  0  0
    2.8800  -13.8790   -3.0960 N   0  0  0  0  0  0  0  0  0  0  0  0
    2.5610  -14.0390   -4.4170 C   0  0  0  0  0  0  0  0  0  0  0  0
    1.2280  -14.3980   -4.4210 C   0  0  0  0  0  0  0  0  0  0  0  0
    0.7230  -14.4600   -3.1440 N   0  0  0  0  0  0  0  0  0  0  0  0
    1.7470  -14.1390   -2.3780 C   0  0  0  0  0  0  0  0  0  0  0  0
    1.7850  -14.0360   -0.9300 C   0  0  0  0  0  0  0  0  0  0  0  0
    0.6600  -14.2850   -0.1860 N   0  0  0  0  0  0  0  0  0  0  0  0
    0.6070  -14.2120    1.2490 C   0  0  0  0  0  0  0  0  0  0  0  0
   -0.3000  -13.0830    1.6620 C   0  0  0  0  0  0  0  0  0  0  0  0
   -0.5130  -12.7940    3.0130 C   0  0  0  0  0  0  0  0  0  0  0  0
   -1.3350  -11.7280    3.3440 C   0  0  0  0  0  0  0  0  0  0  0  0
   -1.9430  -10.9400    2.4330 N   0  0  0  0  0  0  0  0  0  0  0  0
   -1.7150  -11.2260    1.1330 C   0  0  0  0  0  0  0  0  0  0  0  0
   -0.9110  -12.2690    0.7030 C   0  0  0  0  0  0  0  0  0  0  0  0
    2.9120  -13.7010   -0.3410 N   0  0  0  0  0  0  0  0  0  0  0  0
    6.4290  -12.6480   -1.0890 C   0  0  0  0  0  0  0  0  0  0  0  0
   12.6343  -10.6163    0.6187 H   0  0  0  0  0  0  0  0  0  0  0  0
   13.0875  -12.2367   -0.0103 H   0  0  0  0  0  0  0  0  0  0  0  0
   14.2921  -10.9042   -0.0103 H   0  0  0  0  0  0  0  0  0  0  0  0
   15.1747  -11.5147   -2.5827 H   0  0  0  0  0  0  0  0  0  0  0  0
   15.3622  -13.1673   -4.4358 H   0  0  0  0  0  0  0  0  0  0  0  0
   11.0677  -13.6885   -4.4204 H   0  0  0  0  0  0  0  0  0  0  0  0
   10.3330  -10.9690   -2.6620 H   0  0  0  0  0  0  0  0  0  0  0  0
    8.7120  -10.9100   -1.4700 H   0  0  0  0  0  0  0  0  0  0  0  0
    8.5138  -12.0530    1.5436 H   0  0  0  0  0  0  0  0  0  0  0  0
    6.4982  -12.8237    2.7876 H   0  0  0  0  0  0  0  0  0  0  0  0
    4.4393  -13.4841    1.5577 H   0  0  0  0  0  0  0  0  0  0  0  0
    4.9654  -13.3186   -3.0314 H   0  0  0  0  0  0  0  0  0  0  0  0
    3.2225  -13.9097   -5.2863 H   0  0  0  0  0  0  0  0  0  0  0  0
    0.6446  -14.6076   -5.3297 H   0  0  0  0  0  0  0  0  0  0  0  0
   -0.1810  -14.5400   -0.6950 H   0  0  0  0  0  0  0  0  0  0  0  0
    0.2185  -15.1597    1.6501 H   0  0  0  0  0  0  0  0  0  0  0  0
    1.6178  -14.0330    1.6442 H   0  0  0  0  0  0  0  0  0  0  0  0
   -0.0377  -13.4005    3.7980 H   0  0  0  0  0  0  0  0  0  0  0  0
   -1.5010  -11.5123    4.4098 H   0  0  0  0  0  0  0  0  0  0  0  0
   -2.1955  -10.5942    0.3715 H   0  0  0  0  0  0  0  0  0  0  0  0
   -0.7564  -12.4530   -0.3704 H   0  0  0  0  0  0  0  0  0  0  0  0
    6.4138  -12.6090   -2.1882 H   0  0  0  0  0  0  0  0  0  0  0  0
  1  2  1  0
  2  3  1  0
  3  4  2  0
  4  5  1  0
  5  6  2  0
  6  7  1  0
  7  8  1  0
  7  9  1  0
  7 10  1  0
  6 11  1  0
 11 12  2  0
 12 13  1  0
 13 14  1  0
 14 15  2  0
 14 16  1  0
 16 17  1  0
 17 18  2  0
 18 19  1  0
 19 20  2  0
 20 21  1  0
 21 22  1  0
 22 23  2  0
 23 24  1  0
 24 25  1  0
 25 26  2  0
 26 27  1  0
 27 28  2  0
 28 29  1  0
 29 30  1  0
 30 31  1  0
 31 32  1  0
 32 33  2  0
 33 34  1  0
 34 35  2  0
 35 36  1  0
 36 37  2  0
 29 38  2  0
 21 39  2  0
 12  3  1  0
 39 17  1  0
 38 22  1  0
 28 24  1  0
 37 32  1  0
  1 40  1  0
  1 41  1  0
  1 42  1  0
  4 43  1  0
  5 44  1  0
 11 45  1  0
 13 46  1  0
 16 47  1  0
 18 48  1  0
 19 49  1  0
 20 50  1  0
 23 51  1  0
 25 52  1  0
 26 53  1  0
 30 54  1  0
 31 55  1  0
 31 56  1  0
 33 57  1  0
 34 58  1  0
 36 59  1  0
 37 60  1  0
 39 61  1  0
M  END
>  <meeko>  (7) 
{"is_sidechain": [false], "free_energy": -8.7, "intermolecular_energy": -12.355, "internal_energy": -1.23}

$$$$
LIB_VDQZIQXNPVFCAD__M_PUB_ALL__e8__s20260927
     RDKit          3D

 61 65  0  0  0  0  0  0  0  0999 V2000
   13.5710  -10.6940   -0.0320 C   0  0  0  0  0  0  0  0  0  0  0  0
   12.7250  -10.7830   -1.1730 O   0  0  0  0  0  0  0  0  0  0  0  0
   13.0010  -11.7830   -2.0780 C   0  0  0  0  0  0  0  0  0  0  0  0
   13.9890  -11.7190   -3.0640 C   0  0  0  0  0  0  0  0  0  0  0  0
   14.1850  -12.7960   -3.9320 C   0  0  0  0  0  0  0  0  0  0  0  0
   13.4030  -13.9540   -3.8230 C   0  0  0  0  0  0  0  0  0  0  0  0
   13.5990  -15.1160   -4.7660 C   0  0  0  0  0  0  0  0  0  0  0  0
   14.5390  -14.8630   -5.7170 F   0  0  0  0  0  0  0  0  0  0  0  0
   14.0090  -16.2540   -4.1350 F   0  0  0  0  0  0  0  0  0  0  0  0
   12.4640  -15.4570   -5.4360 F   0  0  0  0  0  0  0  0  0  0  0  0
   12.4060  -14.0130   -2.8350 C   0  0  0  0  0  0  0  0  0  0  0  0
   12.2000  -12.9400   -1.9640 C   0  0  0  0  0  0  0  0  0  0  0  0
   11.2190  -12.9330   -0.9460 N   0  0  0  0  0  0  0  0  0  0  0  0
    9.8680  -12.6470   -1.0480 C   0  0  0  0  0  0  0  0  0  0  0  0
    9.3060  -12.3070   -2.0810 O   0  0  0  0  0  0  0  0  0  0  0  0
    9.2470  -12.8060    0.1820 N   0  0  0  0  0  0  0  0  0  0  0  0
    7.8970  -12.5580    0.5110 C   0  0  0  0  0  0  0  0  0  0  0  0
    7.4100  -11.3220    0.9350 C   0  0  0  0  0  0  0  0  0  0  0  0
    6.0610  -11.1660    1.2620 C   0  0  0  0  0  0  0  0  0  0  0  0
    5.1840  -12.2450    1.1620 C   0  0  0  0  0  0  0  0  0  0  0  0
    5.6440  -13.4920    0.7230 C   0  0  0  0  0  0  0  0  0  0  0  0
    4.6990  -14.6250    0.6220 C   0  0  0  0  0  0  0  0  0  0  0  0
    5.1260  -15.8730    0.9060 C   0  0  0  0  0  0  0  0  0  0  0  0
    4.2280  -16.9100    0.7840 N   0  0  0  0  0  0  0  0  0  0  0  0
    4.3410  -18.2580    0.9920 C   0  0  0  0  0  0  0  0  0  0  0  0
    3.0910  -18.7690    0.7050 C   0  0  0  0  0  0  0  0  0  0  0  0
    2.2190  -17.7760    0.3260 N   0  0  0  0  0  0  0  0  0  0  0  0
    2.9430  -16.6760    0.3840 C   0  0  0  0  0  0  0  0  0  0  0  0
    2.5320  -15.3160    0.0780 C   0  0  0  0  0  0  0  0  0  0  0  0
    1.2490  -15.0540   -0.3320 N   0  0  0  0  0  0  0  0  0  0  0  0
    0.7550  -13.7430   -0.6510 C   0  0  0  0  0  0  0  0  0  0  0  0
    0.0180  -13.1790    0.5340 C   0  0  0  0  0  0  0  0  0  0  0  0
   -0.8330  -13.9850    1.2970 C   0  0  0  0  0  0  0  0  0  0  0  0
   -1.4680  -13.4280    2.3950 C   0  0  0  0  0  0  0  0  0  0  0  0
   -1.3090  -12.1460    2.7840 N   0  0  0  0  0  0  0  0  0  0  0  0
   -0.4730  -11.3870    2.0440 C   0  0  0  0  0  0  0  0  0  0  0  0
    0.2070  -11.8510    0.9290 C   0  0  0  0  0  0  0  0  0  0  0  0
    3.4050  -14.3410    0.1990 N   0  0  0  0  0  0  0  0  0  0  0  0
    7.0070  -13.6390    0.4120 C   0  0  0  0  0  0  0  0  0  0  0  0
   12.9621  -10.7581    0.8818 H   0  0  0  0  0  0  0  0  0  0  0  0
   14.2964  -11.5208   -0.0480 H   0  0  0  0  0  0  0  0  0  0  0  0
   14.1084   -9.7344   -0.0480 H   0  0  0  0  0  0  0  0  0  0  0  0
   14.6139  -10.8185   -3.1570 H   0  0  0  0  0  0  0  0  0  0  0  0
   14.9611  -12.7345   -4.7091 H   0  0  0  0  0  0  0  0  0  0  0  0
   11.7808  -14.9137   -2.7461 H   0  0  0  0  0  0  0  0  0  0  0  0
   11.5960  -13.1350   -0.0310 H   0  0  0  0  0  0  0  0  0  0  0  0
    9.8250  -13.1640    0.9260 H   0  0  0  0  0  0  0  0  0  0  0  0
    8.0933  -10.4635    1.0125 H   0  0  0  0  0  0  0  0  0  0  0  0
    5.6890  -10.1875    1.5999 H   0  0  0  0  0  0  0  0  0  0  0  0
    4.1249  -12.1158    1.4295 H   0  0  0  0  0  0  0  0  0  0  0  0
    6.1622  -16.0570    1.2260 H   0  0  0  0  0  0  0  0  0  0  0  0
    5.2332  -18.8132    1.3170 H   0  0  0  0  0  0  0  0  0  0  0  0
    2.8265  -19.8347    0.7711 H   0  0  0  0  0  0  0  0  0  0  0  0
    0.6190  -15.8470   -0.4070 H   0  0  0  0  0  0  0  0  0  0  0  0
    1.5995  -13.0851   -0.9039 H   0  0  0  0  0  0  0  0  0  0  0  0
    0.0702  -13.8095   -1.5093 H   0  0  0  0  0  0  0  0  0  0  0  0
   -0.9948  -15.0399    1.0306 H   0  0  0  0  0  0  0  0  0  0  0  0
   -2.1411  -14.0683    2.9840 H   0  0  0  0  0  0  0  0  0  0  0  0
   -0.3228  -10.3393    2.3434 H   0  0  0  0  0  0  0  0  0  0  0  0
    0.8813  -11.1884    0.3665 H   0  0  0  0  0  0  0  0  0  0  0  0
    7.3832  -14.6196    0.0849 H   0  0  0  0  0  0  0  0  0  0  0  0
  1  2  1  0
  2  3  1  0
  3  4  2  0
  4  5  1  0
  5  6  2  0
  6  7  1  0
  7  8  1  0
  7  9  1  0
  7 10  1  0
  6 11  1  0
 11 12  2  0
 12 13  1  0
 13 14  1  0
 14 15  2  0
 14 16  1  0
 16 17  1  0
 17 18  2  0
 18 19  1  0
 19 20  2  0
 20 21  1  0
 21 22  1  0
 22 23  2  0
 23 24  1  0
 24 25  1  0
 25 26  2  0
 26 27  1  0
 27 28  2  0
 28 29  1  0
 29 30  1  0
 30 31  1  0
 31 32  1  0
 32 33  2  0
 33 34  1  0
 34 35  2  0
 35 36  1  0
 36 37  2  0
 29 38  2  0
 21 39  2  0
 12  3  1  0
 39 17  1  0
 38 22  1  0
 28 24  1  0
 37 32  1  0
  1 40  1  0
  1 41  1  0
  1 42  1  0
  4 43  1  0
  5 44  1  0
 11 45  1  0
 13 46  1  0
 16 47  1  0
 18 48  1  0
 19 49  1  0
 20 50  1  0
 23 51  1  0
 25 52  1  0
 26 53  1  0
 30 54  1  0
 31 55  1  0
 31 56  1  0
 33 57  1  0
 34 58  1  0
 36 59  1  0
 37 60  1  0
 39 61  1  0
M  END
>  <meeko>  (8) 
{"is_sidechain": [false], "free_energy": -8.57, "intermolecular_energy": -12.167, "internal_energy": -1.235}

$$$$
LIB_VDQZIQXNPVFCAD__M_PUB_ALL__e8__s20260927
     RDKit          3D

 61 65  0  0  0  0  0  0  0  0999 V2000
   -4.3350  -16.0900    8.9300 C   0  0  0  0  0  0  0  0  0  0  0  0
   -4.7040  -16.6520    7.6750 O   0  0  0  0  0  0  0  0  0  0  0  0
   -6.0350  -16.5870    7.3290 C   0  0  0  0  0  0  0  0  0  0  0  0
   -7.0710  -16.2410    8.2000 C   0  0  0  0  0  0  0  0  0  0  0  0
   -8.3900  -16.2050    7.7420 C   0  0  0  0  0  0  0  0  0  0  0  0
   -8.6920  -16.5060    6.4060 C   0  0  0  0  0  0  0  0  0  0  0  0
  -10.1160  -16.4830    5.9070 C   0  0  0  0  0  0  0  0  0  0  0  0
  -10.6720  -17.7240    5.8600 F   0  0  0  0  0  0  0  0  0  0  0  0
  -10.9460  -15.7360    6.6890 F   0  0  0  0  0  0  0  0  0  0  0  0
  -10.2330  -15.9680    4.6520 F   0  0  0  0  0  0  0  0  0  0  0  0
   -7.6490  -16.8600    5.5350 C   0  0  0  0  0  0  0  0  0  0  0  0
   -6.3260  -16.9020    5.9840 C   0  0  0  0  0  0  0  0  0  0  0  0
   -5.2290  -17.2450    5.1630 N   0  0  0  0  0  0  0  0  0  0  0  0
   -4.5120  -16.4400    4.2940 C   0  0  0  0  0  0  0  0  0  0  0  0
   -4.7610  -15.2620    4.0750 O   0  0  0  0  0  0  0  0  0  0  0  0
   -3.4750  -17.1570    3.7160 N   0  0  0  0  0  0  0  0  0  0  0  0
   -2.5560  -16.7170    2.7390 C   0  0  0  0  0  0  0  0  0  0  0  0
   -1.9160  -17.5600    1.8310 C   0  0  0  0  0  0  0  0  0  0  0  0
   -1.0030  -17.0460    0.9080 C   0  0  0  0  0  0  0  0  0  0  0  0
   -0.7240  -15.6800    0.8820 C   0  0  0  0  0  0  0  0  0  0  0  0
   -1.3630  -14.8100    1.7710 C   0  0  0  0  0  0  0  0  0  0  0  0
   -1.0550  -13.3650    1.7280 C   0  0  0  0  0  0  0  0  0  0  0  0
   -1.9500  -12.4800    2.2140 C   0  0  0  0  0  0  0  0  0  0  0  0
   -1.6430  -11.1380    2.1420 N   0  0  0  0  0  0  0  0  0  0  0  0
   -2.3170  -10.0150    2.5360 C   0  0  0  0  0  0  0  0  0  0  0  0
   -1.4880   -8.9640    2.1970 C   0  0  0  0  0  0  0  0  0  0  0  0
   -0.3290   -9.4120    1.6070 N   0  0  0  0  0  0  0  0  0  0  0  0
   -0.4640  -10.7220    1.5910 C   0  0  0  0  0  0  0  0  0  0  0  0
    0.4640  -11.7120    1.0700 C   0  0  0  0  0  0  0  0  0  0  0  0
    1.6510  -11.3210    0.5040 N   0  0  0  0  0  0  0  0  0  0  0  0
    2.6280  -12.2280   -0.0320 C   0  0  0  0  0  0  0  0  0  0  0  0
    2.3430  -12.4720   -1.4900 C   0  0  0  0  0  0  0  0  0  0  0  0
    2.5360  -11.4620   -2.4360 C   0  0  0  0  0  0  0  0  0  0  0  0
    2.2860  -11.7430   -3.7700 C   0  0  0  0  0  0  0  0  0  0  0  0
    1.8700  -12.9460   -4.2170 N   0  0  0  0  0  0  0  0  0  0  0  0
    1.7020  -13.9130   -3.2910 C   0  0  0  0  0  0  0  0  0  0  0  0
    1.9250  -13.7300   -1.9350 C   0  0  0  0  0  0  0  0  0  0  0  0
    0.1500  -12.9860    1.1460 N   0  0  0  0  0  0  0  0  0  0  0  0
   -2.2690  -15.3430    2.7050 C   0  0  0  0  0  0  0  0  0  0  0  0
   -4.7417  -16.7094    9.7429 H   0  0  0  0  0  0  0  0  0  0  0  0
   -3.2383  -16.0561    9.0083 H   0  0  0  0  0  0  0  0  0  0  0  0
   -4.7399  -15.0702    9.0083 H   0  0  0  0  0  0  0  0  0  0  0  0
   -6.8474  -15.9964    9.2489 H   0  0  0  0  0  0  0  0  0  0  0  0
   -9.2002  -15.9378    8.4364 H   0  0  0  0  0  0  0  0  0  0  0  0
   -7.8757  -17.1071    4.4874 H   0  0  0  0  0  0  0  0  0  0  0  0
   -4.9840  -18.2240    5.2180 H   0  0  0  0  0  0  0  0  0  0  0  0
   -3.3470  -18.0980    4.0510 H   0  0  0  0  0  0  0  0  0  0  0  0
   -2.1321  -18.6385    1.8420 H   0  0  0  0  0  0  0  0  0  0  0  0
   -0.5020  -17.7212    0.1987 H   0  0  0  0  0  0  0  0  0  0  0  0
    0.0032  -15.2843    0.1577 H   0  0  0  0  0  0  0  0  0  0  0  0
   -2.8984  -12.8199    2.6555 H   0  0  0  0  0  0  0  0  0  0  0  0
   -3.3043   -9.9608    3.0179 H   0  0  0  0  0  0  0  0  0  0  0  0
   -1.7241   -7.9046    2.3758 H   0  0  0  0  0  0  0  0  0  0  0  0
    1.8390  -10.3230    0.4730 H   0  0  0  0  0  0  0  0  0  0  0  0
    3.6317  -11.7914    0.0769 H   0  0  0  0  0  0  0  0  0  0  0  0
    2.5804  -13.1815    0.5145 H   0  0  0  0  0  0  0  0  0  0  0  0
    2.8796  -10.4634   -2.1281 H   0  0  0  0  0  0  0  0  0  0  0  0
    2.4353  -10.9394   -4.5062 H   0  0  0  0  0  0  0  0  0  0  0  0
    1.3687  -14.9043   -3.6319 H   0  0  0  0  0  0  0  0  0  0  0  0
    1.7763  -14.5565   -1.2245 H   0  0  0  0  0  0  0  0  0  0  0  0
   -2.7622  -14.6708    3.4226 H   0  0  0  0  0  0  0  0  0  0  0  0
  1  2  1  0
  2  3  1  0
  3  4  2  0
  4  5  1  0
  5  6  2  0
  6  7  1  0
  7  8  1  0
  7  9  1  0
  7 10  1  0
  6 11  1  0
 11 12  2  0
 12 13  1  0
 13 14  1  0
 14 15  2  0
 14 16  1  0
 16 17  1  0
 17 18  2  0
 18 19  1  0
 19 20  2  0
 20 21  1  0
 21 22  1  0
 22 23  2  0
 23 24  1  0
 24 25  1  0
 25 26  2  0
 26 27  1  0
 27 28  2  0
 28 29  1  0
 29 30  1  0
 30 31  1  0
 31 32  1  0
 32 33  2  0
 33 34  1  0
 34 35  2  0
 35 36  1  0
 36 37  2  0
 29 38  2  0
 21 39  2  0
 12  3  1  0
 39 17  1  0
 38 22  1  0
 28 24  1  0
 37 32  1  0
  1 40  1  0
  1 41  1  0
  1 42  1  0
  4 43  1  0
  5 44  1  0
 11 45  1  0
 13 46  1  0
 16 47  1  0
 18 48  1  0
 19 49  1  0
 20 50  1  0
 23 51  1  0
 25 52  1  0
 26 53  1  0
 30 54  1  0
 31 55  1  0
 31 56  1  0
 33 57  1  0
 34 58  1  0
 36 59  1  0
 37 60  1  0
 39 61  1  0
M  END
>  <meeko>  (9) 
{"is_sidechain": [false], "free_energy": -8.566, "intermolecular_energy": -12.505, "internal_energy": -0.892}

$$$$
