LIB_UDXKCMZFPXURAC__M_PUB_ALL__e8__s20260927
     RDKit          3D

 60 64  0  0  0  0  0  0  0  0999 V2000
   12.1350   -9.1610  -10.1610 O   0  0  0  0  0  0  0  0  0  0  0  0
   11.1810   -8.9010  -10.8810 C   0  0  0  0  0  0  0  0  0  0  0  0
   10.8890   -7.6100  -11.2550 N   0  0  0  0  0  0  0  0  0  0  0  0
   11.7120   -6.5120  -10.8080 C   0  0  0  0  0  0  0  0  0  0  0  0
   11.9410   -5.5310  -11.9280 C   0  0  0  0  0  0  0  0  0  0  0  0
   12.5150   -5.9500  -13.1360 C   0  0  0  0  0  0  0  0  0  0  0  0
   12.7570   -5.0340  -14.1590 C   0  0  0  0  0  0  0  0  0  0  0  0
   12.4350   -3.6880  -13.9840 C   0  0  0  0  0  0  0  0  0  0  0  0
   11.8620   -3.2430  -12.7840 C   0  0  0  0  0  0  0  0  0  0  0  0
   11.5380   -1.7830  -12.5790 C   0  0  0  0  0  0  0  0  0  0  0  0
   11.6790   -1.3830  -11.2850 F   0  0  0  0  0  0  0  0  0  0  0  0
   10.2630   -1.4590  -12.9320 F   0  0  0  0  0  0  0  0  0  0  0  0
   12.3480   -0.9690  -13.3120 F   0  0  0  0  0  0  0  0  0  0  0  0
   11.6290   -4.1730  -11.7570 C   0  0  0  0  0  0  0  0  0  0  0  0
   10.2840   -9.7940  -11.4240 N   0  0  0  0  0  0  0  0  0  0  0  0
   10.2320  -11.1910  -11.2320 C   0  0  0  0  0  0  0  0  0  0  0  0
    9.2130  -12.0070  -11.7210 C   0  0  0  0  0  0  0  0  0  0  0  0
    9.2460  -13.3870  -11.5070 C   0  0  0  0  0  0  0  0  0  0  0  0
   10.2960  -13.9610  -10.7930 C   0  0  0  0  0  0  0  0  0  0  0  0
   11.3220  -13.1620  -10.2760 C   0  0  0  0  0  0  0  0  0  0  0  0
   12.4290  -13.7920   -9.5220 C   0  0  0  0  0  0  0  0  0  0  0  0
   13.5300  -14.2090  -10.1820 C   0  0  0  0  0  0  0  0  0  0  0  0
   14.5510  -14.7740   -9.4500 N   0  0  0  0  0  0  0  0  0  0  0  0
   15.7670  -15.2870   -9.8060 C   0  0  0  0  0  0  0  0  0  0  0  0
   16.3390  -15.7060   -8.6220 C   0  0  0  0  0  0  0  0  0  0  0  0
   15.5090  -15.4640   -7.5530 N   0  0  0  0  0  0  0  0  0  0  0  0
   14.4480  -14.9020   -8.0930 C   0  0  0  0  0  0  0  0  0  0  0  0
   13.2480  -14.4250   -7.4250 C   0  0  0  0  0  0  0  0  0  0  0  0
   13.1220  -14.5340   -6.0630 N   0  0  0  0  0  0  0  0  0  0  0  0
   11.9720  -14.0960   -5.3220 C   0  0  0  0  0  0  0  0  0  0  0  0
   12.4140  -13.2160   -4.1810 C   0  0  0  0  0  0  0  0  0  0  0  0
   11.5620  -12.9610   -3.1030 C   0  0  0  0  0  0  0  0  0  0  0  0
   12.0030  -12.1230   -2.0910 C   0  0  0  0  0  0  0  0  0  0  0  0
   13.2140  -11.5270   -2.0850 N   0  0  0  0  0  0  0  0  0  0  0  0
   14.0170  -11.7730   -3.1410 C   0  0  0  0  0  0  0  0  0  0  0  0
   13.6670  -12.5950   -4.2010 C   0  0  0  0  0  0  0  0  0  0  0  0
   12.2870  -13.8890   -8.1420 N   0  0  0  0  0  0  0  0  0  0  0  0
   11.2850  -11.7780  -10.5130 C   0  0  0  0  0  0  0  0  0  0  0  0
   10.0490   -7.4020  -11.7700 H   0  0  0  0  0  0  0  0  0  0  0  0
   11.2090   -5.9989   -9.9751 H   0  0  0  0  0  0  0  0  0  0  0  0
   12.6841   -6.9083  -10.4793 H   0  0  0  0  0  0  0  0  0  0  0  0
   12.7764   -7.0090  -13.2781 H   0  0  0  0  0  0  0  0  0  0  0  0
   13.2026   -5.3733  -15.1057 H   0  0  0  0  0  0  0  0  0  0  0  0
   12.6321   -2.9700  -14.7937 H   0  0  0  0  0  0  0  0  0  0  0  0
   11.1958   -3.8321  -10.8051 H   0  0  0  0  0  0  0  0  0  0  0  0
    9.5970   -9.4030  -12.0480 H   0  0  0  0  0  0  0  0  0  0  0  0
    8.3768  -11.5609  -12.2794 H   0  0  0  0  0  0  0  0  0  0  0  0
    8.4405  -14.0227  -11.9034 H   0  0  0  0  0  0  0  0  0  0  0  0
   10.3185  -15.0493  -10.6347 H   0  0  0  0  0  0  0  0  0  0  0  0
   13.6097  -14.1007  -11.2737 H   0  0  0  0  0  0  0  0  0  0  0  0
   16.1964  -15.3518  -10.8167 H   0  0  0  0  0  0  0  0  0  0  0  0
   17.3316  -16.1736   -8.5436 H   0  0  0  0  0  0  0  0  0  0  0  0
   13.8970  -14.9570   -5.5630 H   0  0  0  0  0  0  0  0  0  0  0  0
   11.3032  -13.5279   -5.9853 H   0  0  0  0  0  0  0  0  0  0  0  0
   11.4375  -14.9711   -4.9240 H   0  0  0  0  0  0  0  0  0  0  0  0
   10.5616  -13.4162   -3.0586 H   0  0  0  0  0  0  0  0  0  0  0  0
   11.3273  -11.9327   -1.2441 H   0  0  0  0  0  0  0  0  0  0  0  0
   15.0068  -11.2935   -3.1620 H   0  0  0  0  0  0  0  0  0  0  0  0
   14.3601  -12.7554   -5.0400 H   0  0  0  0  0  0  0  0  0  0  0  0
   12.0961  -11.1425  -10.1281 H   0  0  0  0  0  0  0  0  0  0  0  0
  1  2  2  0
  2  3  1  0
  3  4  1  0
  4  5  1  0
  5  6  2  0
  6  7  1  0
  7  8  2  0
  8  9  1  0
  9 10  1  0
 10 11  1  0
 10 12  1  0
 10 13  1  0
  9 14  2  0
  2 15  1  0
 15 16  1  0
 16 17  2  0
 17 18  1  0
 18 19  2  0
 19 20  1  0
 20 21  1  0
 21 22  2  0
 22 23  1  0
 23 24  1  0
 24 25  2  0
 25 26  1  0
 26 27  2  0
 27 28  1  0
 28 29  1  0
 29 30  1  0
 30 31  1  0
 31 32  2  0
 32 33  1  0
 33 34  2  0
 34 35  1  0
 35 36  2  0
 28 37  2  0
 20 38  2  0
 14  5  1  0
 38 16  1  0
 37 21  1  0
 27 23  1  0
 36 31  1  0
  3 39  1  0
  4 40  1  0
  4 41  1  0
  6 42  1  0
  7 43  1  0
  8 44  1  0
 14 45  1  0
 15 46  1  0
 17 47  1  0
 18 48  1  0
 19 49  1  0
 22 50  1  0
 24 51  1  0
 25 52  1  0
 29 53  1  0
 30 54  1  0
 30 55  1  0
 32 56  1  0
 33 57  1  0
 35 58  1  0
 36 59  1  0
 38 60  1  0
M  END
>  <meeko>  (1) 
{"is_sidechain": [false], "free_energy": -10.789, "intermolecular_energy": -15.204, "internal_energy": -0.539}

$$$$
LIB_UDXKCMZFPXURAC__M_PUB_ALL__e8__s20260927
     RDKit          3D

 60 64  0  0  0  0  0  0  0  0999 V2000
    6.1650  -12.6190   -5.1490 O   0  0  0  0  0  0  0  0  0  0  0  0
    5.2230  -13.1300   -5.7380 C   0  0  0  0  0  0  0  0  0  0  0  0
    5.4130  -13.9720   -6.8100 N   0  0  0  0  0  0  0  0  0  0  0  0
    6.7440  -14.2850   -7.2710 C   0  0  0  0  0  0  0  0  0  0  0  0
    6.9420  -13.8070   -8.6860 C   0  0  0  0  0  0  0  0  0  0  0  0
    7.2710  -14.7130   -9.7030 C   0  0  0  0  0  0  0  0  0  0  0  0
    7.4870  -14.2660  -11.0060 C   0  0  0  0  0  0  0  0  0  0  0  0
    7.3830  -12.9070  -11.3060 C   0  0  0  0  0  0  0  0  0  0  0  0
    7.0560  -11.9800  -10.3050 C   0  0  0  0  0  0  0  0  0  0  0  0
    6.9700  -10.5060  -10.6180 C   0  0  0  0  0  0  0  0  0  0  0  0
    6.7860   -9.7360   -9.5090 F   0  0  0  0  0  0  0  0  0  0  0  0
    5.9480  -10.1920  -11.4620 F   0  0  0  0  0  0  0  0  0  0  0  0
    8.1030  -10.0400  -11.2120 F   0  0  0  0  0  0  0  0  0  0  0  0
    6.8480  -12.4420   -8.9950 C   0  0  0  0  0  0  0  0  0  0  0  0
    3.8850  -12.9770   -5.4540 N   0  0  0  0  0  0  0  0  0  0  0  0
    3.3010  -12.1620   -4.4610 C   0  0  0  0  0  0  0  0  0  0  0  0
    3.0610  -10.7970   -4.6160 C   0  0  0  0  0  0  0  0  0  0  0  0
    2.4580  -10.0640   -3.5920 C   0  0  0  0  0  0  0  0  0  0  0  0
    2.0960  -10.6890   -2.3990 C   0  0  0  0  0  0  0  0  0  0  0  0
    2.3430  -12.0540   -2.2120 C   0  0  0  0  0  0  0  0  0  0  0  0
    1.9510  -12.6990   -0.9390 C   0  0  0  0  0  0  0  0  0  0  0  0
    2.5770  -13.8290   -0.5480 C   0  0  0  0  0  0  0  0  0  0  0  0
    2.2030  -14.3960    0.6510 N   0  0  0  0  0  0  0  0  0  0  0  0
    2.6280  -15.5130    1.3160 C   0  0  0  0  0  0  0  0  0  0  0  0
    1.8690  -15.5540    2.4680 C   0  0  0  0  0  0  0  0  0  0  0  0
    0.9930  -14.4950    2.5270 N   0  0  0  0  0  0  0  0  0  0  0  0
    1.2280  -13.8230    1.4190 C   0  0  0  0  0  0  0  0  0  0  0  0
    0.5930  -12.5990    0.9620 C   0  0  0  0  0  0  0  0  0  0  0  0
   -0.3830  -11.9990    1.7170 N   0  0  0  0  0  0  0  0  0  0  0  0
   -1.0680  -10.7930    1.3410 C   0  0  0  0  0  0  0  0  0  0  0  0
   -2.4400  -11.1360    0.8200 C   0  0  0  0  0  0  0  0  0  0  0  0
   -3.1320  -12.2480    1.3050 C   0  0  0  0  0  0  0  0  0  0  0  0
   -4.3800  -12.5380    0.7750 C   0  0  0  0  0  0  0  0  0  0  0  0
   -4.9710  -11.8080   -0.1940 N   0  0  0  0  0  0  0  0  0  0  0  0
   -4.2820  -10.7460   -0.6600 C   0  0  0  0  0  0  0  0  0  0  0  0
   -3.0300  -10.3750   -0.1960 C   0  0  0  0  0  0  0  0  0  0  0  0
    0.9650  -12.0750   -0.1840 N   0  0  0  0  0  0  0  0  0  0  0  0
    2.9350  -12.7830   -3.2570 C   0  0  0  0  0  0  0  0  0  0  0  0
    4.6280  -14.3110   -7.3420 H   0  0  0  0  0  0  0  0  0  0  0  0
    7.4782  -13.7920   -6.6169 H   0  0  0  0  0  0  0  0  0  0  0  0
    6.8812  -15.3761   -7.2431 H   0  0  0  0  0  0  0  0  0  0  0  0
    7.3595  -15.7848   -9.4718 H   0  0  0  0  0  0  0  0  0  0  0  0
    7.7398  -14.9856  -11.7986 H   0  0  0  0  0  0  0  0  0  0  0  0
    7.5587  -12.5601  -12.3350 H   0  0  0  0  0  0  0  0  0  0  0  0
    6.6076  -11.7220   -8.1988 H   0  0  0  0  0  0  0  0  0  0  0  0
    3.2510  -13.5290   -6.0080 H   0  0  0  0  0  0  0  0  0  0  0  0
    3.3487  -10.2945   -5.5512 H   0  0  0  0  0  0  0  0  0  0  0  0
    2.2677   -8.9890   -3.7268 H   0  0  0  0  0  0  0  0  0  0  0  0
    1.6137  -10.1060   -1.6006 H   0  0  0  0  0  0  0  0  0  0  0  0
    3.3630  -14.2842   -1.1685 H   0  0  0  0  0  0  0  0  0  0  0  0
    3.4058  -16.2242    1.0011 H   0  0  0  0  0  0  0  0  0  0  0  0
    1.9537  -16.3333    3.2397 H   0  0  0  0  0  0  0  0  0  0  0  0
   -0.6290  -12.4500    2.5920 H   0  0  0  0  0  0  0  0  0  0  0  0
   -1.1626  -10.1363    2.2184 H   0  0  0  0  0  0  0  0  0  0  0  0
   -0.4964  -10.2762    0.5560 H   0  0  0  0  0  0  0  0  0  0  0  0
   -2.6957  -12.8810    2.0917 H   0  0  0  0  0  0  0  0  0  0  0  0
   -4.9192  -13.4131    1.1668 H   0  0  0  0  0  0  0  0  0  0  0  0
   -4.7407  -10.1392   -1.4546 H   0  0  0  0  0  0  0  0  0  0  0  0
   -2.5110   -9.5013   -0.6170 H   0  0  0  0  0  0  0  0  0  0  0  0
    3.1150  -13.8606   -3.1290 H   0  0  0  0  0  0  0  0  0  0  0  0
  1  2  2  0
  2  3  1  0
  3  4  1  0
  4  5  1  0
  5  6  2  0
  6  7  1  0
  7  8  2  0
  8  9  1  0
  9 10  1  0
 10 11  1  0
 10 12  1  0
 10 13  1  0
  9 14  2  0
  2 15  1  0
 15 16  1  0
 16 17  2  0
 17 18  1  0
 18 19  2  0
 19 20  1  0
 20 21  1  0
 21 22  2  0
 22 23  1  0
 23 24  1  0
 24 25  2  0
 25 26  1  0
 26 27  2  0
 27 28  1  0
 28 29  1  0
 29 30  1  0
 30 31  1  0
 31 32  2  0
 32 33  1  0
 33 34  2  0
 34 35  1  0
 35 36  2  0
 28 37  2  0
 20 38  2  0
 14  5  1  0
 38 16  1  0
 37 21  1  0
 27 23  1  0
 36 31  1  0
  3 39  1  0
  4 40  1  0
  4 41  1  0
  6 42  1  0
  7 43  1  0
  8 44  1  0
 14 45  1  0
 15 46  1  0
 17 47  1  0
 18 48  1  0
 19 49  1  0
 22 50  1  0
 24 51  1  0
 25 52  1  0
 29 53  1  0
 30 54  1  0
 30 55  1  0
 32 56  1  0
 33 57  1  0
 35 58  1  0
 36 59  1  0
 38 60  1  0
M  END
>  <meeko>  (2) 
{"is_sidechain": [false], "free_energy": -10.172, "intermolecular_energy": -13.589, "internal_energy": -1.284}

$$$$
LIB_UDXKCMZFPXURAC__M_PUB_ALL__e8__s20260927
     RDKit          3D

 60 64  0  0  0  0  0  0  0  0999 V2000
    7.0960  -14.4230   -8.7580 O   0  0  0  0  0  0  0  0  0  0  0  0
    7.1590  -13.2020   -8.7720 C   0  0  0  0  0  0  0  0  0  0  0  0
    6.2300  -12.4230   -8.1210 N   0  0  0  0  0  0  0  0  0  0  0  0
    5.1450  -13.0310   -7.3890 C   0  0  0  0  0  0  0  0  0  0  0  0
    5.1850  -12.6190   -5.9410 C   0  0  0  0  0  0  0  0  0  0  0  0
    6.3300  -12.8510   -5.1660 C   0  0  0  0  0  0  0  0  0  0  0  0
    6.3540  -12.5000   -3.8170 C   0  0  0  0  0  0  0  0  0  0  0  0
    5.2320  -11.9190   -3.2250 C   0  0  0  0  0  0  0  0  0  0  0  0
    4.0740  -11.6780   -3.9780 C   0  0  0  0  0  0  0  0  0  0  0  0
    2.8480  -11.0760   -3.3360 C   0  0  0  0  0  0  0  0  0  0  0  0
    3.0000  -10.8570   -2.0000 F   0  0  0  0  0  0  0  0  0  0  0  0
    1.7370  -11.8540   -3.4600 F   0  0  0  0  0  0  0  0  0  0  0  0
    2.5240   -9.8700   -3.8780 F   0  0  0  0  0  0  0  0  0  0  0  0
    4.0590  -12.0430   -5.3350 C   0  0  0  0  0  0  0  0  0  0  0  0
    8.1130  -12.4280   -9.3940 N   0  0  0  0  0  0  0  0  0  0  0  0
    9.1930  -12.8620  -10.1910 C   0  0  0  0  0  0  0  0  0  0  0  0
    9.2000  -12.8190  -11.5850 C   0  0  0  0  0  0  0  0  0  0  0  0
   10.3180  -13.2490  -12.3010 C   0  0  0  0  0  0  0  0  0  0  0  0
   11.4380  -13.7350  -11.6290 C   0  0  0  0  0  0  0  0  0  0  0  0
   11.4500  -13.8060  -10.2310 C   0  0  0  0  0  0  0  0  0  0  0  0
   12.6490  -14.3250   -9.5360 C   0  0  0  0  0  0  0  0  0  0  0  0
   13.7620  -14.6020  -10.2490 C   0  0  0  0  0  0  0  0  0  0  0  0
   14.8680  -15.0660   -9.5710 N   0  0  0  0  0  0  0  0  0  0  0  0
   16.1180  -15.4320   -9.9860 C   0  0  0  0  0  0  0  0  0  0  0  0
   16.7800  -15.8110   -8.8360 C   0  0  0  0  0  0  0  0  0  0  0  0
   15.9720  -15.6870   -7.7310 N   0  0  0  0  0  0  0  0  0  0  0  0
   14.8340  -15.2340   -8.2150 C   0  0  0  0  0  0  0  0  0  0  0  0
   13.6180  -14.9100   -7.4900 C   0  0  0  0  0  0  0  0  0  0  0  0
   13.5590  -15.0620   -6.1270 N   0  0  0  0  0  0  0  0  0  0  0  0
   12.3990  -14.7710   -5.3320 C   0  0  0  0  0  0  0  0  0  0  0  0
   12.7230  -13.6750   -4.3500 C   0  0  0  0  0  0  0  0  0  0  0  0
   11.7560  -13.2050   -3.4580 C   0  0  0  0  0  0  0  0  0  0  0  0
   12.0940  -12.1760   -2.5920 C   0  0  0  0  0  0  0  0  0  0  0  0
   13.3090  -11.5910   -2.5610 N   0  0  0  0  0  0  0  0  0  0  0  0
   14.2260  -12.0480   -3.4400 C   0  0  0  0  0  0  0  0  0  0  0  0
   13.9850  -13.0710   -4.3440 C   0  0  0  0  0  0  0  0  0  0  0  0
   12.5740  -14.4680   -8.1560 N   0  0  0  0  0  0  0  0  0  0  0  0
   10.3240  -13.3550   -9.5220 C   0  0  0  0  0  0  0  0  0  0  0  0
    6.2410  -11.4210   -8.2190 H   0  0  0  0  0  0  0  0  0  0  0  0
    4.1887  -12.7121   -7.8292 H   0  0  0  0  0  0  0  0  0  0  0  0
    5.2461  -14.1247   -7.4491 H   0  0  0  0  0  0  0  0  0  0  0  0
    7.2159  -13.3134   -5.6257 H   0  0  0  0  0  0  0  0  0  0  0  0
    7.2589  -12.6814   -3.2184 H   0  0  0  0  0  0  0  0  0  0  0  0
    5.2561  -11.6479   -2.1592 H   0  0  0  0  0  0  0  0  0  0  0  0
    3.1500  -11.8743   -5.9311 H   0  0  0  0  0  0  0  0  0  0  0  0
    8.0410  -11.4340   -9.2430 H   0  0  0  0  0  0  0  0  0  0  0  0
    8.3178  -12.4434  -12.1241 H   0  0  0  0  0  0  0  0  0  0  0  0
   10.3152  -13.2042  -13.4001 H   0  0  0  0  0  0  0  0  0  0  0  0
   12.3180  -14.0648  -12.2006 H   0  0  0  0  0  0  0  0  0  0  0  0
   13.7849  -14.4612  -11.3397 H   0  0  0  0  0  0  0  0  0  0  0  0
   16.5108  -15.4258  -11.0134 H   0  0  0  0  0  0  0  0  0  0  0  0
   17.8205  -16.1666   -8.8073 H   0  0  0  0  0  0  0  0  0  0  0  0
   14.3960  -15.4070   -5.6680 H   0  0  0  0  0  0  0  0  0  0  0  0
   11.5781  -14.4447   -5.9875 H   0  0  0  0  0  0  0  0  0  0  0  0
   12.0947  -15.6750   -4.7841 H   0  0  0  0  0  0  0  0  0  0  0  0
   10.7468  -13.6424   -3.4429 H   0  0  0  0  0  0  0  0  0  0  0  0
   11.3273  -11.8162   -1.8901 H   0  0  0  0  0  0  0  0  0  0  0  0
   15.2222  -11.5816   -3.4389 H   0  0  0  0  0  0  0  0  0  0  0  0
   14.7690  -13.4007   -5.0415 H   0  0  0  0  0  0  0  0  0  0  0  0
   10.3289  -13.3889   -8.4225 H   0  0  0  0  0  0  0  0  0  0  0  0
  1  2  2  0
  2  3  1  0
  3  4  1  0
  4  5  1  0
  5  6  2  0
  6  7  1  0
  7  8  2  0
  8  9  1  0
  9 10  1  0
 10 11  1  0
 10 12  1  0
 10 13  1  0
  9 14  2  0
  2 15  1  0
 15 16  1  0
 16 17  2  0
 17 18  1  0
 18 19  2  0
 19 20  1  0
 20 21  1  0
 21 22  2  0
 22 23  1  0
 23 24  1  0
 24 25  2  0
 25 26  1  0
 26 27  2  0
 27 28  1  0
 28 29  1  0
 29 30  1  0
 30 31  1  0
 31 32  2  0
 32 33  1  0
 33 34  2  0
 34 35  1  0
 35 36  2  0
 28 37  2  0
 20 38  2  0
 14  5  1  0
 38 16  1  0
 37 21  1  0
 27 23  1  0
 36 31  1  0
  3 39  1  0
  4 40  1  0
  4 41  1  0
  6 42  1  0
  7 43  1  0
  8 44  1  0
 14 45  1  0
 15 46  1  0
 17 47  1  0
 18 48  1  0
 19 49  1  0
 22 50  1  0
 24 51  1  0
 25 52  1  0
 29 53  1  0
 30 54  1  0
 30 55  1  0
 32 56  1  0
 33 57  1  0
 35 58  1  0
 36 59  1  0
 38 60  1  0
M  END
>  <meeko>  (3) 
{"is_sidechain": [false], "free_energy": -9.794, "intermolecular_energy": -12.986, "internal_energy": -1.354}

$$$$
LIB_UDXKCMZFPXURAC__M_PUB_ALL__e8__s20260927
     RDKit          3D

 60 64  0  0  0  0  0  0  0  0999 V2000
    6.9980  -13.6800   -4.0170 O   0  0  0  0  0  0  0  0  0  0  0  0
    7.2980  -12.5550   -3.6400 C   0  0  0  0  0  0  0  0  0  0  0  0
    8.6090  -12.1490   -3.5520 N   0  0  0  0  0  0  0  0  0  0  0  0
    9.6810  -13.0450   -3.9120 C   0  0  0  0  0  0  0  0  0  0  0  0
   10.9830  -12.5840   -3.3100 C   0  0  0  0  0  0  0  0  0  0  0  0
   12.1540  -12.5590   -4.0800 C   0  0  0  0  0  0  0  0  0  0  0  0
   13.3650  -12.1650   -3.5130 C   0  0  0  0  0  0  0  0  0  0  0  0
   13.4210  -11.7980   -2.1680 C   0  0  0  0  0  0  0  0  0  0  0  0
   12.2650  -11.8160   -1.3760 C   0  0  0  0  0  0  0  0  0  0  0  0
   12.3260  -11.4480    0.0860 C   0  0  0  0  0  0  0  0  0  0  0  0
   12.8430  -10.2060    0.3020 F   0  0  0  0  0  0  0  0  0  0  0  0
   13.0860  -12.3010    0.8270 F   0  0  0  0  0  0  0  0  0  0  0  0
   11.0940  -11.4440    0.6670 F   0  0  0  0  0  0  0  0  0  0  0  0
   11.0510  -12.2230   -1.9560 C   0  0  0  0  0  0  0  0  0  0  0  0
    6.4360  -11.5490   -3.2660 N   0  0  0  0  0  0  0  0  0  0  0  0
    5.0290  -11.6030   -3.1830 C   0  0  0  0  0  0  0  0  0  0  0  0
    4.1710  -11.1590   -4.1900 C   0  0  0  0  0  0  0  0  0  0  0  0
    2.7870  -11.2680   -4.0400 C   0  0  0  0  0  0  0  0  0  0  0  0
    2.2480  -11.8150   -2.8770 C   0  0  0  0  0  0  0  0  0  0  0  0
    3.0850  -12.2510   -1.8440 C   0  0  0  0  0  0  0  0  0  0  0  0
    2.4930  -12.8290   -0.6180 C   0  0  0  0  0  0  0  0  0  0  0  0
    3.0590  -13.9180   -0.0560 C   0  0  0  0  0  0  0  0  0  0  0  0
    2.4960  -14.4220    1.0950 N   0  0  0  0  0  0  0  0  0  0  0  0
    2.8180  -15.4870    1.8910 C   0  0  0  0  0  0  0  0  0  0  0  0
    1.8750  -15.4780    2.8990 C   0  0  0  0  0  0  0  0  0  0  0  0
    0.9870  -14.4400    2.7430 N   0  0  0  0  0  0  0  0  0  0  0  0
    1.3960  -13.8290    1.6510 C   0  0  0  0  0  0  0  0  0  0  0  0
    0.8300  -12.6510    1.0170 C   0  0  0  0  0  0  0  0  0  0  0  0
   -0.2690  -12.0320    1.5570 N   0  0  0  0  0  0  0  0  0  0  0  0
   -0.8970  -10.8680    0.9960 C   0  0  0  0  0  0  0  0  0  0  0  0
   -2.2960  -11.2150    0.5540 C   0  0  0  0  0  0  0  0  0  0  0  0
   -3.0300  -10.3380   -0.2480 C   0  0  0  0  0  0  0  0  0  0  0  0
   -4.3230  -10.6890   -0.6070 C   0  0  0  0  0  0  0  0  0  0  0  0
   -4.9230  -11.8350   -0.2200 N   0  0  0  0  0  0  0  0  0  0  0  0
   -4.2030  -12.6630    0.5660 C   0  0  0  0  0  0  0  0  0  0  0  0
   -2.9060  -12.4010    0.9770 C   0  0  0  0  0  0  0  0  0  0  0  0
    1.3830  -12.1860   -0.0810 N   0  0  0  0  0  0  0  0  0  0  0  0
    4.4760  -12.1510   -2.0150 C   0  0  0  0  0  0  0  0  0  0  0  0
    8.8440  -11.2540   -3.1530 H   0  0  0  0  0  0  0  0  0  0  0  0
    9.4485  -14.0541   -3.5410 H   0  0  0  0  0  0  0  0  0  0  0  0
    9.7812  -13.0557   -5.0074 H   0  0  0  0  0  0  0  0  0  0  0  0
   12.1171  -12.8524   -5.1395 H   0  0  0  0  0  0  0  0  0  0  0  0
   14.2776  -12.1434   -4.1267 H   0  0  0  0  0  0  0  0  0  0  0  0
   14.3805  -11.4920   -1.7256 H   0  0  0  0  0  0  0  0  0  0  0  0
   10.1409  -12.2590   -1.3392 H   0  0  0  0  0  0  0  0  0  0  0  0
    6.8630  -10.6630   -3.0460 H   0  0  0  0  0  0  0  0  0  0  0  0
    4.5879  -10.7200   -5.1084 H   0  0  0  0  0  0  0  0  0  0  0  0
    2.1198  -10.9209   -4.8427 H   0  0  0  0  0  0  0  0  0  0  0  0
    1.1568  -11.9046   -2.7704 H   0  0  0  0  0  0  0  0  0  0  0  0
    3.9454  -14.3897   -0.5051 H   0  0  0  0  0  0  0  0  0  0  0  0
    3.6480  -16.1963    1.7569 H   0  0  0  0  0  0  0  0  0  0  0  0
    1.8387  -16.2076    3.7214 H   0  0  0  0  0  0  0  0  0  0  0  0
   -0.6530  -12.4360    2.4050 H   0  0  0  0  0  0  0  0  0  0  0  0
   -0.9389  -10.0725    1.7546 H   0  0  0  0  0  0  0  0  0  0  0  0
   -0.3151  -10.5190    0.1302 H   0  0  0  0  0  0  0  0  0  0  0  0
   -2.5915   -9.3882   -0.5880 H   0  0  0  0  0  0  0  0  0  0  0  0
   -4.8917   -9.9945   -1.2429 H   0  0  0  0  0  0  0  0  0  0  0  0
   -4.6731  -13.5999    0.8995 H   0  0  0  0  0  0  0  0  0  0  0  0
   -2.3672  -13.1105    1.6223 H   0  0  0  0  0  0  0  0  0  0  0  0
    5.1445  -12.5090   -1.2182 H   0  0  0  0  0  0  0  0  0  0  0  0
  1  2  2  0
  2  3  1  0
  3  4  1  0
  4  5  1  0
  5  6  2  0
  6  7  1  0
  7  8  2  0
  8  9  1  0
  9 10  1  0
 10 11  1  0
 10 12  1  0
 10 13  1  0
  9 14  2  0
  2 15  1  0
 15 16  1  0
 16 17  2  0
 17 18  1  0
 18 19  2  0
 19 20  1  0
 20 21  1  0
 21 22  2  0
 22 23  1  0
 23 24  1  0
 24 25  2  0
 25 26  1  0
 26 27  2  0
 27 28  1  0
 28 29  1  0
 29 30  1  0
 30 31  1  0
 31 32  2  0
 32 33  1  0
 33 34  2  0
 34 35  1  0
 35 36  2  0
 28 37  2  0
 20 38  2  0
 14  5  1  0
 38 16  1  0
 37 21  1  0
 27 23  1  0
 36 31  1  0
  3 39  1  0
  4 40  1  0
  4 41  1  0
  6 42  1  0
  7 43  1  0
  8 44  1  0
 14 45  1  0
 15 46  1  0
 17 47  1  0
 18 48  1  0
 19 49  1  0
 22 50  1  0
 24 51  1  0
 25 52  1  0
 29 53  1  0
 30 54  1  0
 30 55  1  0
 32 56  1  0
 33 57  1  0
 35 58  1  0
 36 59  1  0
 38 60  1  0
M  END
>  <meeko>  (4) 
{"is_sidechain": [false], "free_energy": -9.746, "intermolecular_energy": -13.116, "internal_energy": -1.157}

$$$$
LIB_UDXKCMZFPXURAC__M_PUB_ALL__e8__s20260927
     RDKit          3D

 60 64  0  0  0  0  0  0  0  0999 V2000
    6.9440  -14.5430   -8.5930 O   0  0  0  0  0  0  0  0  0  0  0  0
    7.0180  -13.3220   -8.5500 C   0  0  0  0  0  0  0  0  0  0  0  0
    6.1150  -12.5680   -7.8370 N   0  0  0  0  0  0  0  0  0  0  0  0
    5.0440  -13.2020   -7.1060 C   0  0  0  0  0  0  0  0  0  0  0  0
    4.9440  -12.6350   -5.7140 C   0  0  0  0  0  0  0  0  0  0  0  0
    3.6990  -12.2710   -5.1820 C   0  0  0  0  0  0  0  0  0  0  0  0
    3.6100  -11.7150   -3.9070 C   0  0  0  0  0  0  0  0  0  0  0  0
    4.7650  -11.5100   -3.1510 C   0  0  0  0  0  0  0  0  0  0  0  0
    6.0220  -11.8630   -3.6610 C   0  0  0  0  0  0  0  0  0  0  0  0
    7.2770  -11.6170   -2.8590 C   0  0  0  0  0  0  0  0  0  0  0  0
    7.7950  -12.7550   -2.3180 F   0  0  0  0  0  0  0  0  0  0  0  0
    7.0920  -10.7610   -1.8160 F   0  0  0  0  0  0  0  0  0  0  0  0
    8.2720  -11.0770   -3.6150 F   0  0  0  0  0  0  0  0  0  0  0  0
    6.1000  -12.4160   -4.9510 C   0  0  0  0  0  0  0  0  0  0  0  0
    7.9630  -12.5270   -9.1600 N   0  0  0  0  0  0  0  0  0  0  0  0
    9.0160  -12.9320  -10.0050 C   0  0  0  0  0  0  0  0  0  0  0  0
    8.9730  -12.8530  -11.3970 C   0  0  0  0  0  0  0  0  0  0  0  0
   10.0680  -13.2550  -12.1640 C   0  0  0  0  0  0  0  0  0  0  0  0
   11.2160  -13.7480  -11.5450 C   0  0  0  0  0  0  0  0  0  0  0  0
   11.2790  -13.8550  -10.1510 C   0  0  0  0  0  0  0  0  0  0  0  0
   12.5060  -14.3800   -9.5130 C   0  0  0  0  0  0  0  0  0  0  0  0
   13.6210  -14.5460  -10.2550 C   0  0  0  0  0  0  0  0  0  0  0  0
   14.7530  -15.0190   -9.6280 N   0  0  0  0  0  0  0  0  0  0  0  0
   16.0130  -15.2940  -10.0830 C   0  0  0  0  0  0  0  0  0  0  0  0
   16.7030  -15.7430   -8.9760 C   0  0  0  0  0  0  0  0  0  0  0  0
   15.9030  -15.7510   -7.8580 N   0  0  0  0  0  0  0  0  0  0  0  0
   14.7420  -15.3070   -8.2920 C   0  0  0  0  0  0  0  0  0  0  0  0
   13.5210  -15.0990   -7.5330 C   0  0  0  0  0  0  0  0  0  0  0  0
   13.4830  -15.3720   -6.1880 N   0  0  0  0  0  0  0  0  0  0  0  0
   12.3210  -15.2030   -5.3620 C   0  0  0  0  0  0  0  0  0  0  0  0
   12.4820  -13.9670   -4.5140 C   0  0  0  0  0  0  0  0  0  0  0  0
   11.3770  -13.3720   -3.9010 C   0  0  0  0  0  0  0  0  0  0  0  0
   11.5720  -12.2210   -3.1520 C   0  0  0  0  0  0  0  0  0  0  0  0
   12.7740  -11.6320   -2.9820 N   0  0  0  0  0  0  0  0  0  0  0  0
   13.8270  -12.2130   -3.5930 C   0  0  0  0  0  0  0  0  0  0  0  0
   13.7350  -13.3630   -4.3610 C   0  0  0  0  0  0  0  0  0  0  0  0
   12.4520  -14.6460   -8.1500 N   0  0  0  0  0  0  0  0  0  0  0  0
   10.1760  -13.4310   -9.3910 C   0  0  0  0  0  0  0  0  0  0  0  0
    6.1330  -11.5630   -7.8870 H   0  0  0  0  0  0  0  0  0  0  0  0
    4.0947  -13.0313   -7.6349 H   0  0  0  0  0  0  0  0  0  0  0  0
    5.2520  -14.2799   -7.0358 H   0  0  0  0  0  0  0  0  0  0  0  0
    2.7856  -12.4253   -5.7752 H   0  0  0  0  0  0  0  0  0  0  0  0
    2.6281  -11.4374   -3.4961 H   0  0  0  0  0  0  0  0  0  0  0  0
    4.6883  -11.0678   -2.1467 H   0  0  0  0  0  0  0  0  0  0  0  0
    7.0827  -12.6810   -5.3683 H   0  0  0  0  0  0  0  0  0  0  0  0
    7.9040  -11.5420   -8.9590 H   0  0  0  0  0  0  0  0  0  0  0  0
    8.0692  -12.4710  -11.8942 H   0  0  0  0  0  0  0  0  0  0  0  0
   10.0250  -13.1825  -13.2608 H   0  0  0  0  0  0  0  0  0  0  0  0
   12.0776  -14.0548  -12.1562 H   0  0  0  0  0  0  0  0  0  0  0  0
   13.6259  -14.3104  -11.3295 H   0  0  0  0  0  0  0  0  0  0  0  0
   16.3936  -15.1816  -11.1089 H   0  0  0  0  0  0  0  0  0  0  0  0
   17.7579  -16.0546   -8.9865 H   0  0  0  0  0  0  0  0  0  0  0  0
   14.3390  -15.7200   -5.7670 H   0  0  0  0  0  0  0  0  0  0  0  0
   11.4306  -15.0970   -5.9992 H   0  0  0  0  0  0  0  0  0  0  0  0
   12.2036  -16.0816   -4.7106 H   0  0  0  0  0  0  0  0  0  0  0  0
   10.3727  -13.8073   -4.0100 H   0  0  0  0  0  0  0  0  0  0  0  0
   10.6967  -11.7621   -2.6690 H   0  0  0  0  0  0  0  0  0  0  0  0
   14.8163  -11.7469   -3.4748 H   0  0  0  0  0  0  0  0  0  0  0  0
   14.6276  -13.7917   -4.8399 H   0  0  0  0  0  0  0  0  0  0  0  0
   10.2221  -13.4911   -8.2936 H   0  0  0  0  0  0  0  0  0  0  0  0
  1  2  2  0
  2  3  1  0
  3  4  1  0
  4  5  1  0
  5  6  2  0
  6  7  1  0
  7  8  2  0
  8  9  1  0
  9 10  1  0
 10 11  1  0
 10 12  1  0
 10 13  1  0
  9 14  2  0
  2 15  1  0
 15 16  1  0
 16 17  2  0
 17 18  1  0
 18 19  2  0
 19 20  1  0
 20 21  1  0
 21 22  2  0
 22 23  1  0
 23 24  1  0
 24 25  2  0
 25 26  1  0
 26 27  2  0
 27 28  1  0
 28 29  1  0
 29 30  1  0
 30 31  1  0
 31 32  2  0
 32 33  1  0
 33 34  2  0
 34 35  1  0
 35 36  2  0
 28 37  2  0
 20 38  2  0
 14  5  1  0
 38 16  1  0
 37 21  1  0
 27 23  1  0
 36 31  1  0
  3 39  1  0
  4 40  1  0
  4 41  1  0
  6 42  1  0
  7 43  1  0
  8 44  1  0
 14 45  1  0
 15 46  1  0
 17 47  1  0
 18 48  1  0
 19 49  1  0
 22 50  1  0
 24 51  1  0
 25 52  1  0
 29 53  1  0
 30 54  1  0
 30 55  1  0
 32 56  1  0
 33 57  1  0
 35 58  1  0
 36 59  1  0
 38 60  1  0
M  END
>  <meeko>  (5) 
{"is_sidechain": [false], "free_energy": -9.738, "intermolecular_energy": -12.528, "internal_energy": -1.734}

$$$$
LIB_UDXKCMZFPXURAC__M_PUB_ALL__e8__s20260927
     RDKit          3D

 60 64  0  0  0  0  0  0  0  0999 V2000
    8.3780  -13.7750   -2.0670 O   0  0  0  0  0  0  0  0  0  0  0  0
    8.0280  -12.6220   -1.8530 C   0  0  0  0  0  0  0  0  0  0  0  0
    8.5390  -11.8960   -0.8010 N   0  0  0  0  0  0  0  0  0  0  0  0
    9.5160  -12.4780    0.0860 C   0  0  0  0  0  0  0  0  0  0  0  0
   10.8970  -11.9750   -0.2410 C   0  0  0  0  0  0  0  0  0  0  0  0
   11.5470  -11.0730    0.6120 C   0  0  0  0  0  0  0  0  0  0  0  0
   12.8120  -10.5820    0.2910 C   0  0  0  0  0  0  0  0  0  0  0  0
   13.4390  -10.9800   -0.8900 C   0  0  0  0  0  0  0  0  0  0  0  0
   12.8080  -11.8790   -1.7620 C   0  0  0  0  0  0  0  0  0  0  0  0
   13.4690  -12.2910   -3.0550 C   0  0  0  0  0  0  0  0  0  0  0  0
   12.7210  -11.9950   -4.1540 F   0  0  0  0  0  0  0  0  0  0  0  0
   13.7260  -13.6270   -3.1280 F   0  0  0  0  0  0  0  0  0  0  0  0
   14.6670  -11.6690   -3.2410 F   0  0  0  0  0  0  0  0  0  0  0  0
   11.5310  -12.3620   -1.4320 C   0  0  0  0  0  0  0  0  0  0  0  0
    7.1250  -11.8800   -2.5810 N   0  0  0  0  0  0  0  0  0  0  0  0
    6.3670  -12.2950   -3.6960 C   0  0  0  0  0  0  0  0  0  0  0  0
    5.0690  -11.8580   -3.9620 C   0  0  0  0  0  0  0  0  0  0  0  0
    4.3930  -12.2990   -5.1010 C   0  0  0  0  0  0  0  0  0  0  0  0
    5.0070  -13.1890   -5.9810 C   0  0  0  0  0  0  0  0  0  0  0  0
    6.3010  -13.6570   -5.7280 C   0  0  0  0  0  0  0  0  0  0  0  0
    6.9350  -14.6010   -6.6750 C   0  0  0  0  0  0  0  0  0  0  0  0
    7.6050  -15.6710   -6.1970 C   0  0  0  0  0  0  0  0  0  0  0  0
    8.1690  -16.5420   -7.1040 N   0  0  0  0  0  0  0  0  0  0  0  0
    8.8960  -17.6900   -6.9520 C   0  0  0  0  0  0  0  0  0  0  0  0
    9.1790  -18.1070   -8.2360 C   0  0  0  0  0  0  0  0  0  0  0  0
    8.6460  -17.2490   -9.1690 N   0  0  0  0  0  0  0  0  0  0  0  0
    8.0460  -16.3250   -8.4480 C   0  0  0  0  0  0  0  0  0  0  0  0
    7.3030  -15.1660   -8.9140 C   0  0  0  0  0  0  0  0  0  0  0  0
    7.1570  -14.9290  -10.2580 N   0  0  0  0  0  0  0  0  0  0  0  0
    6.4460  -13.8080  -10.8070 C   0  0  0  0  0  0  0  0  0  0  0  0
    7.4290  -12.7430  -11.2220 C   0  0  0  0  0  0  0  0  0  0  0  0
    8.6410  -13.0860  -11.8270 C   0  0  0  0  0  0  0  0  0  0  0  0
    9.5250  -12.0720  -12.1660 C   0  0  0  0  0  0  0  0  0  0  0  0
    9.2860  -10.7630  -11.9410 N   0  0  0  0  0  0  0  0  0  0  0  0
    8.1160  -10.4530  -11.3440 C   0  0  0  0  0  0  0  0  0  0  0  0
    7.1700  -11.3930  -10.9670 C   0  0  0  0  0  0  0  0  0  0  0  0
    6.7730  -14.3490   -8.0320 N   0  0  0  0  0  0  0  0  0  0  0  0
    6.9760  -13.1920   -4.5870 C   0  0  0  0  0  0  0  0  0  0  0  0
    8.1740  -10.9830   -0.5830 H   0  0  0  0  0  0  0  0  0  0  0  0
    9.2690  -12.2071    1.1231 H   0  0  0  0  0  0  0  0  0  0  0  0
    9.4990  -13.5710   -0.0369 H   0  0  0  0  0  0  0  0  0  0  0  0
   11.0557  -10.7499    1.5416 H   0  0  0  0  0  0  0  0  0  0  0  0
   13.3166   -9.8793    0.9704 H   0  0  0  0  0  0  0  0  0  0  0  0
   14.4353  -10.5859   -1.1390 H   0  0  0  0  0  0  0  0  0  0  0  0
   11.0200  -13.0541   -2.1174 H   0  0  0  0  0  0  0  0  0  0  0  0
    7.0110  -10.9220   -2.2940 H   0  0  0  0  0  0  0  0  0  0  0  0
    4.5748  -11.1610   -3.2693 H   0  0  0  0  0  0  0  0  0  0  0  0
    3.3723  -11.9430   -5.3048 H   0  0  0  0  0  0  0  0  0  0  0  0
    4.4705  -13.5256   -6.8804 H   0  0  0  0  0  0  0  0  0  0  0  0
    7.6981  -15.8428   -5.1145 H   0  0  0  0  0  0  0  0  0  0  0  0
    9.1911  -18.1756   -6.0102 H   0  0  0  0  0  0  0  0  0  0  0  0
    9.7569  -19.0100   -8.4820 H   0  0  0  0  0  0  0  0  0  0  0  0
    7.5890  -15.5940  -10.8910 H   0  0  0  0  0  0  0  0  0  0  0  0
    5.8675  -14.1346  -11.6838 H   0  0  0  0  0  0  0  0  0  0  0  0
    5.7626  -13.4000  -10.0477 H   0  0  0  0  0  0  0  0  0  0  0  0
    8.8890  -14.1382  -12.0302 H   0  0  0  0  0  0  0  0  0  0  0  0
   10.4749  -12.3508  -12.6455 H   0  0  0  0  0  0  0  0  0  0  0  0
    7.9008   -9.3928  -11.1451 H   0  0  0  0  0  0  0  0  0  0  0  0
    6.2349  -11.0834  -10.4774 H   0  0  0  0  0  0  0  0  0  0  0  0
    8.0012  -13.5376   -4.3883 H   0  0  0  0  0  0  0  0  0  0  0  0
  1  2  2  0
  2  3  1  0
  3  4  1  0
  4  5  1  0
  5  6  2  0
  6  7  1  0
  7  8  2  0
  8  9  1  0
  9 10  1  0
 10 11  1  0
 10 12  1  0
 10 13  1  0
  9 14  2  0
  2 15  1  0
 15 16  1  0
 16 17  2  0
 17 18  1  0
 18 19  2  0
 19 20  1  0
 20 21  1  0
 21 22  2  0
 22 23  1  0
 23 24  1  0
 24 25  2  0
 25 26  1  0
 26 27  2  0
 27 28  1  0
 28 29  1  0
 29 30  1  0
 30 31  1  0
 31 32  2  0
 32 33  1  0
 33 34  2  0
 34 35  1  0
 35 36  2  0
 28 37  2  0
 20 38  2  0
 14  5  1  0
 38 16  1  0
 37 21  1  0
 27 23  1  0
 36 31  1  0
  3 39  1  0
  4 40  1  0
  4 41  1  0
  6 42  1  0
  7 43  1  0
  8 44  1  0
 14 45  1  0
 15 46  1  0
 17 47  1  0
 18 48  1  0
 19 49  1  0
 22 50  1  0
 24 51  1  0
 25 52  1  0
 29 53  1  0
 30 54  1  0
 30 55  1  0
 32 56  1  0
 33 57  1  0
 35 58  1  0
 36 59  1  0
 38 60  1  0
M  END
>  <meeko>  (6) 
{"is_sidechain": [false], "free_energy": -9.679, "intermolecular_energy": -13.199, "internal_energy": -0.98}

$$$$
LIB_UDXKCMZFPXURAC__M_PUB_ALL__e8__s20260927
     RDKit          3D

 60 64  0  0  0  0  0  0  0  0999 V2000
   -2.3050  -17.7030    6.3540 O   0  0  0  0  0  0  0  0  0  0  0  0
   -1.7230  -16.8210    6.9700 C   0  0  0  0  0  0  0  0  0  0  0  0
   -2.2520  -16.2700    8.1150 N   0  0  0  0  0  0  0  0  0  0  0  0
   -3.5200  -16.7250    8.6310 C   0  0  0  0  0  0  0  0  0  0  0  0
   -4.6320  -15.8070    8.1940 C   0  0  0  0  0  0  0  0  0  0  0  0
   -5.0690  -14.7710    9.0310 C   0  0  0  0  0  0  0  0  0  0  0  0
   -6.1210  -13.9430    8.6410 C   0  0  0  0  0  0  0  0  0  0  0  0
   -6.7510  -14.1440    7.4120 C   0  0  0  0  0  0  0  0  0  0  0  0
   -6.3330  -15.1750    6.5580 C   0  0  0  0  0  0  0  0  0  0  0  0
   -7.0300  -15.4140    5.2410 C   0  0  0  0  0  0  0  0  0  0  0  0
   -6.8160  -14.4190    4.3360 F   0  0  0  0  0  0  0  0  0  0  0  0
   -8.3820  -15.5250    5.3580 F   0  0  0  0  0  0  0  0  0  0  0  0
   -6.6110  -16.5620    4.6390 F   0  0  0  0  0  0  0  0  0  0  0  0
   -5.2780  -16.0080    6.9650 C   0  0  0  0  0  0  0  0  0  0  0  0
   -0.5060  -16.2570    6.6600 N   0  0  0  0  0  0  0  0  0  0  0  0
    0.3130  -16.5300    5.5440 C   0  0  0  0  0  0  0  0  0  0  0  0
    0.9600  -17.7470    5.3310 C   0  0  0  0  0  0  0  0  0  0  0  0
    1.7370  -17.9450    4.1880 C   0  0  0  0  0  0  0  0  0  0  0  0
    1.8790  -16.9230    3.2500 C   0  0  0  0  0  0  0  0  0  0  0  0
    1.2550  -15.6870    3.4490 C   0  0  0  0  0  0  0  0  0  0  0  0
    1.4180  -14.6160    2.4410 C   0  0  0  0  0  0  0  0  0  0  0  0
    2.4290  -14.6900    1.5500 C   0  0  0  0  0  0  0  0  0  0  0  0
    2.5440  -13.6870    0.6130 N   0  0  0  0  0  0  0  0  0  0  0  0
    3.4350  -13.4700   -0.4020 C   0  0  0  0  0  0  0  0  0  0  0  0
    3.0250  -12.2910   -0.9910 C   0  0  0  0  0  0  0  0  0  0  0  0
    1.9110  -11.7820   -0.3660 N   0  0  0  0  0  0  0  0  0  0  0  0
    1.6530  -12.6510    0.5880 C   0  0  0  0  0  0  0  0  0  0  0  0
    0.5730  -12.6210    1.5590 C   0  0  0  0  0  0  0  0  0  0  0  0
   -0.3400  -11.5970    1.5530 N   0  0  0  0  0  0  0  0  0  0  0  0
   -1.4340  -11.4830    2.4770 C   0  0  0  0  0  0  0  0  0  0  0  0
   -2.7180  -11.8610    1.7850 C   0  0  0  0  0  0  0  0  0  0  0  0
   -3.0020  -11.3930    0.4990 C   0  0  0  0  0  0  0  0  0  0  0  0
   -4.2080  -11.7450   -0.0860 C   0  0  0  0  0  0  0  0  0  0  0  0
   -5.1380  -12.5150    0.5190 N   0  0  0  0  0  0  0  0  0  0  0  0
   -4.8530  -12.9450    1.7660 C   0  0  0  0  0  0  0  0  0  0  0  0
   -3.6760  -12.6470    2.4340 C   0  0  0  0  0  0  0  0  0  0  0  0
    0.4820  -13.5880    2.4450 N   0  0  0  0  0  0  0  0  0  0  0  0
    0.4630  -15.5060    4.5950 C   0  0  0  0  0  0  0  0  0  0  0  0
   -1.8070  -15.4830    8.5590 H   0  0  0  0  0  0  0  0  0  0  0  0
   -3.7201  -17.7392    8.2551 H   0  0  0  0  0  0  0  0  0  0  0  0
   -3.4745  -16.7279    9.7301 H   0  0  0  0  0  0  0  0  0  0  0  0
   -4.5786  -14.6100   10.0024 H   0  0  0  0  0  0  0  0  0  0  0  0
   -6.4548  -13.1303    9.3029 H   0  0  0  0  0  0  0  0  0  0  0  0
   -7.5817  -13.4888    7.1108 H   0  0  0  0  0  0  0  0  0  0  0  0
   -4.9534  -16.8303    6.3104 H   0  0  0  0  0  0  0  0  0  0  0  0
   -0.1500  -15.5870    7.3220 H   0  0  0  0  0  0  0  0  0  0  0  0
    0.8574  -18.5565    6.0687 H   0  0  0  0  0  0  0  0  0  0  0  0
    2.2389  -18.9105    4.0269 H   0  0  0  0  0  0  0  0  0  0  0  0
    2.4857  -17.0899    2.3477 H   0  0  0  0  0  0  0  0  0  0  0  0
    3.1413  -15.5280    1.5715 H   0  0  0  0  0  0  0  0  0  0  0  0
    4.2918  -14.0984   -0.6868 H   0  0  0  0  0  0  0  0  0  0  0  0
    3.5250  -11.8193   -1.8498 H   0  0  0  0  0  0  0  0  0  0  0  0
   -0.2170  -10.8780    0.8460 H   0  0  0  0  0  0  0  0  0  0  0  0
   -1.2652  -12.1568    3.3300 H   0  0  0  0  0  0  0  0  0  0  0  0
   -1.5032  -10.4458    2.8368 H   0  0  0  0  0  0  0  0  0  0  0  0
   -2.2824  -10.7577   -0.0382 H   0  0  0  0  0  0  0  0  0  0  0  0
   -4.4197  -11.3764   -1.1005 H   0  0  0  0  0  0  0  0  0  0  0  0
   -5.5982  -13.5682    2.2821 H   0  0  0  0  0  0  0  0  0  0  0  0
   -3.4988  -13.0207    3.4533 H   0  0  0  0  0  0  0  0  0  0  0  0
   -0.0488  -14.5450    4.7517 H   0  0  0  0  0  0  0  0  0  0  0  0
  1  2  2  0
  2  3  1  0
  3  4  1  0
  4  5  1  0
  5  6  2  0
  6  7  1  0
  7  8  2  0
  8  9  1  0
  9 10  1  0
 10 11  1  0
 10 12  1  0
 10 13  1  0
  9 14  2  0
  2 15  1  0
 15 16  1  0
 16 17  2  0
 17 18  1  0
 18 19  2  0
 19 20  1  0
 20 21  1  0
 21 22  2  0
 22 23  1  0
 23 24  1  0
 24 25  2  0
 25 26  1  0
 26 27  2  0
 27 28  1  0
 28 29  1  0
 29 30  1  0
 30 31  1  0
 31 32  2  0
 32 33  1  0
 33 34  2  0
 34 35  1  0
 35 36  2  0
 28 37  2  0
 20 38  2  0
 14  5  1  0
 38 16  1  0
 37 21  1  0
 27 23  1  0
 36 31  1  0
  3 39  1  0
  4 40  1  0
  4 41  1  0
  6 42  1  0
  7 43  1  0
  8 44  1  0
 14 45  1  0
 15 46  1  0
 17 47  1  0
 18 48  1  0
 19 49  1  0
 22 50  1  0
 24 51  1  0
 25 52  1  0
 29 53  1  0
 30 54  1  0
 30 55  1  0
 32 56  1  0
 33 57  1  0
 35 58  1  0
 36 59  1  0
 38 60  1  0
M  END
>  <meeko>  (7) 
{"is_sidechain": [false], "free_energy": -9.604, "intermolecular_energy": -12.443, "internal_energy": -1.629}

$$$$
LIB_UDXKCMZFPXURAC__M_PUB_ALL__e8__s20260927
     RDKit          3D

 60 64  0  0  0  0  0  0  0  0999 V2000
    1.6780  -11.9820   -0.6340 O   0  0  0  0  0  0  0  0  0  0  0  0
    2.1270  -11.5490    0.4180 C   0  0  0  0  0  0  0  0  0  0  0  0
    1.5470  -10.4820    1.0660 N   0  0  0  0  0  0  0  0  0  0  0  0
    0.3760   -9.8400    0.5200 C   0  0  0  0  0  0  0  0  0  0  0  0
   -0.8780  -10.4990    1.0320 C   0  0  0  0  0  0  0  0  0  0  0  0
   -0.9270  -11.0240    2.3300 C   0  0  0  0  0  0  0  0  0  0  0  0
   -2.0760  -11.6640    2.7920 C   0  0  0  0  0  0  0  0  0  0  0  0
   -3.1890  -11.7910    1.9590 C   0  0  0  0  0  0  0  0  0  0  0  0
   -3.1650  -11.2750    0.6550 C   0  0  0  0  0  0  0  0  0  0  0  0
   -4.3550  -11.4350   -0.2590 C   0  0  0  0  0  0  0  0  0  0  0  0
   -4.8490  -10.2460   -0.7040 F   0  0  0  0  0  0  0  0  0  0  0  0
   -5.4040  -12.0770    0.3270 F   0  0  0  0  0  0  0  0  0  0  0  0
   -4.0520  -12.1550   -1.3750 F   0  0  0  0  0  0  0  0  0  0  0  0
   -1.9980  -10.6400    0.1980 C   0  0  0  0  0  0  0  0  0  0  0  0
    3.2190  -12.0210    1.1110 N   0  0  0  0  0  0  0  0  0  0  0  0
    4.0900  -13.0670    0.7420 C   0  0  0  0  0  0  0  0  0  0  0  0
    5.2860  -12.8770    0.0500 C   0  0  0  0  0  0  0  0  0  0  0  0
    6.1050  -13.9650   -0.2600 C   0  0  0  0  0  0  0  0  0  0  0  0
    5.7300  -15.2550    0.1130 C   0  0  0  0  0  0  0  0  0  0  0  0
    4.5260  -15.4750    0.7920 C   0  0  0  0  0  0  0  0  0  0  0  0
    4.1470  -16.8510    1.1790 C   0  0  0  0  0  0  0  0  0  0  0  0
    5.0510  -17.8470    1.0650 C   0  0  0  0  0  0  0  0  0  0  0  0
    4.6740  -19.1140    1.4510 N   0  0  0  0  0  0  0  0  0  0  0  0
    5.3350  -20.3120    1.4600 C   0  0  0  0  0  0  0  0  0  0  0  0
    4.4230  -21.2190    1.9590 C   0  0  0  0  0  0  0  0  0  0  0  0
    3.2260  -20.6130    2.2560 N   0  0  0  0  0  0  0  0  0  0  0  0
    3.4190  -19.3500    1.9390 C   0  0  0  0  0  0  0  0  0  0  0  0
    2.4840  -18.2440    2.0560 C   0  0  0  0  0  0  0  0  0  0  0  0
    1.2210  -18.4500    2.5500 N   0  0  0  0  0  0  0  0  0  0  0  0
    0.2320  -17.4180    2.6950 C   0  0  0  0  0  0  0  0  0  0  0  0
    0.5300  -16.6050    3.9290 C   0  0  0  0  0  0  0  0  0  0  0  0
    0.4520  -17.1800    5.2000 C   0  0  0  0  0  0  0  0  0  0  0  0
    0.7080  -16.3850    6.3060 C   0  0  0  0  0  0  0  0  0  0  0  0
    1.0260  -15.0750    6.2310 N   0  0  0  0  0  0  0  0  0  0  0  0
    1.0830  -14.5340    4.9960 C   0  0  0  0  0  0  0  0  0  0  0  0
    0.8430  -15.2460    3.8310 C   0  0  0  0  0  0  0  0  0  0  0  0
    2.8650  -17.0420    1.6830 N   0  0  0  0  0  0  0  0  0  0  0  0
    3.7200  -14.3700    1.1120 C   0  0  0  0  0  0  0  0  0  0  0  0
    1.9800  -10.0790    1.8800 H   0  0  0  0  0  0  0  0  0  0  0  0
    0.3739   -8.7804    0.8154 H   0  0  0  0  0  0  0  0  0  0  0  0
    0.4013   -9.9297   -0.5760 H   0  0  0  0  0  0  0  0  0  0  0  0
   -0.0518  -10.9304    2.9898 H   0  0  0  0  0  0  0  0  0  0  0  0
   -2.1057  -12.0694    3.8141 H   0  0  0  0  0  0  0  0  0  0  0  0
   -4.0918  -12.2997    2.3281 H   0  0  0  0  0  0  0  0  0  0  0  0
   -1.9616  -10.2474   -0.8289 H   0  0  0  0  0  0  0  0  0  0  0  0
    3.4020  -11.5790    1.9980 H   0  0  0  0  0  0  0  0  0  0  0  0
    5.5863  -11.8633   -0.2537 H   0  0  0  0  0  0  0  0  0  0  0  0
    7.0494  -13.8035   -0.8004 H   0  0  0  0  0  0  0  0  0  0  0  0
    6.3847  -16.1055   -0.1279 H   0  0  0  0  0  0  0  0  0  0  0  0
    6.0607  -17.6520    0.6746 H   0  0  0  0  0  0  0  0  0  0  0  0
    6.3686  -20.5090    1.1392 H   0  0  0  0  0  0  0  0  0  0  0  0
    4.6279  -22.2904    2.1010 H   0  0  0  0  0  0  0  0  0  0  0  0
    0.9840  -19.3990    2.8220 H   0  0  0  0  0  0  0  0  0  0  0  0
    0.2528  -16.7636    1.8111 H   0  0  0  0  0  0  0  0  0  0  0  0
   -0.7638  -17.8757    2.7895 H   0  0  0  0  0  0  0  0  0  0  0  0
    0.1927  -18.2422    5.3204 H   0  0  0  0  0  0  0  0  0  0  0  0
    0.6487  -16.8479    7.3021 H   0  0  0  0  0  0  0  0  0  0  0  0
    1.3344  -13.4667    4.9087 H   0  0  0  0  0  0  0  0  0  0  0  0
    0.8977  -14.7519    2.8498 H   0  0  0  0  0  0  0  0  0  0  0  0
    2.7812  -14.5284    1.6629 H   0  0  0  0  0  0  0  0  0  0  0  0
  1  2  2  0
  2  3  1  0
  3  4  1  0
  4  5  1  0
  5  6  2  0
  6  7  1  0
  7  8  2  0
  8  9  1  0
  9 10  1  0
 10 11  1  0
 10 12  1  0
 10 13  1  0
  9 14  2  0
  2 15  1  0
 15 16  1  0
 16 17  2  0
 17 18  1  0
 18 19  2  0
 19 20  1  0
 20 21  1  0
 21 22  2  0
 22 23  1  0
 23 24  1  0
 24 25  2  0
 25 26  1  0
 26 27  2  0
 27 28  1  0
 28 29  1  0
 29 30  1  0
 30 31  1  0
 31 32  2  0
 32 33  1  0
 33 34  2  0
 34 35  1  0
 35 36  2  0
 28 37  2  0
 20 38  2  0
 14  5  1  0
 38 16  1  0
 37 21  1  0
 27 23  1  0
 36 31  1  0
  3 39  1  0
  4 40  1  0
  4 41  1  0
  6 42  1  0
  7 43  1  0
  8 44  1  0
 14 45  1  0
 15 46  1  0
 17 47  1  0
 18 48  1  0
 19 49  1  0
 22 50  1  0
 24 51  1  0
 25 52  1  0
 29 53  1  0
 30 54  1  0
 30 55  1  0
 32 56  1  0
 33 57  1  0
 35 58  1  0
 36 59  1  0
 38 60  1  0
M  END
>  <meeko>  (8) 
{"is_sidechain": [false], "free_energy": -9.505, "intermolecular_energy": -12.34, "internal_energy": -1.593}

$$$$
LIB_UDXKCMZFPXURAC__M_PUB_ALL__e8__s20260927
     RDKit          3D

 60 64  0  0  0  0  0  0  0  0999 V2000
   -6.5950  -15.0910    5.4650 O   0  0  0  0  0  0  0  0  0  0  0  0
   -6.5870  -16.2880    5.2110 C   0  0  0  0  0  0  0  0  0  0  0  0
   -7.7500  -16.9830    4.9700 N   0  0  0  0  0  0  0  0  0  0  0  0
   -9.0270  -16.3110    5.0050 C   0  0  0  0  0  0  0  0  0  0  0  0
   -9.9250  -16.9330    6.0420 C   0  0  0  0  0  0  0  0  0  0  0  0
  -10.2090  -18.3050    6.0070 C   0  0  0  0  0  0  0  0  0  0  0  0
  -11.0680  -18.8730    6.9470 C   0  0  0  0  0  0  0  0  0  0  0  0
  -11.6570  -18.0760    7.9300 C   0  0  0  0  0  0  0  0  0  0  0  0
  -11.3900  -16.7010    7.9850 C   0  0  0  0  0  0  0  0  0  0  0  0
  -12.0460  -15.8300    9.0280 C   0  0  0  0  0  0  0  0  0  0  0  0
  -13.3460  -15.5420    8.7400 F   0  0  0  0  0  0  0  0  0  0  0  0
  -11.4280  -14.6270    9.1940 F   0  0  0  0  0  0  0  0  0  0  0  0
  -12.0570  -16.4180   10.2560 F   0  0  0  0  0  0  0  0  0  0  0  0
  -10.5290  -16.1380    7.0280 C   0  0  0  0  0  0  0  0  0  0  0  0
   -5.4850  -17.1080    5.1150 N   0  0  0  0  0  0  0  0  0  0  0  0
   -4.1340  -16.7690    5.3380 C   0  0  0  0  0  0  0  0  0  0  0  0
   -3.5550  -16.6670    6.6020 C   0  0  0  0  0  0  0  0  0  0  0  0
   -2.2020  -16.3470    6.7380 C   0  0  0  0  0  0  0  0  0  0  0  0
   -1.4180  -16.1190    5.6080 C   0  0  0  0  0  0  0  0  0  0  0  0
   -1.9790  -16.1970    4.3290 C   0  0  0  0  0  0  0  0  0  0  0  0
   -1.1300  -15.9510    3.1420 C   0  0  0  0  0  0  0  0  0  0  0  0
   -0.0790  -16.7620    2.8980 C   0  0  0  0  0  0  0  0  0  0  0  0
    0.6820  -16.5190    1.7760 N   0  0  0  0  0  0  0  0  0  0  0  0
    1.7870  -17.1380    1.2580 C   0  0  0  0  0  0  0  0  0  0  0  0
    2.0900  -16.4280    0.1140 C   0  0  0  0  0  0  0  0  0  0  0  0
    1.2030  -15.3960   -0.0830 N   0  0  0  0  0  0  0  0  0  0  0  0
    0.3740  -15.4870    0.9350 C   0  0  0  0  0  0  0  0  0  0  0  0
   -0.7760  -14.6490    1.2320 C   0  0  0  0  0  0  0  0  0  0  0  0
   -1.1130  -13.6110    0.4000 N   0  0  0  0  0  0  0  0  0  0  0  0
   -2.2260  -12.7310    0.6190 C   0  0  0  0  0  0  0  0  0  0  0  0
   -1.7210  -11.3780    1.0500 C   0  0  0  0  0  0  0  0  0  0  0  0
   -0.5850  -10.8180    0.4600 C   0  0  0  0  0  0  0  0  0  0  0  0
   -0.1430   -9.5830    0.9100 C   0  0  0  0  0  0  0  0  0  0  0  0
   -0.7440   -8.8850    1.8960 N   0  0  0  0  0  0  0  0  0  0  0  0
   -1.8310   -9.4480    2.4630 C   0  0  0  0  0  0  0  0  0  0  0  0
   -2.3500  -10.6770    2.0840 C   0  0  0  0  0  0  0  0  0  0  0  0
   -1.4890  -14.8990    2.3070 N   0  0  0  0  0  0  0  0  0  0  0  0
   -3.3370  -16.5360    4.2060 C   0  0  0  0  0  0  0  0  0  0  0  0
   -7.7360  -17.9830    4.8530 H   0  0  0  0  0  0  0  0  0  0  0  0
   -8.8708  -15.2504    5.2513 H   0  0  0  0  0  0  0  0  0  0  0  0
   -9.5050  -16.4061    4.0189 H   0  0  0  0  0  0  0  0  0  0  0  0
   -9.7511  -18.9380    5.2327 H   0  0  0  0  0  0  0  0  0  0  0  0
  -11.2820  -19.9515    6.9139 H   0  0  0  0  0  0  0  0  0  0  0  0
  -12.3357  -18.5303    8.6669 H   0  0  0  0  0  0  0  0  0  0  0  0
  -10.3253  -15.0573    7.0521 H   0  0  0  0  0  0  0  0  0  0  0  0
   -5.6670  -18.0570    4.8310 H   0  0  0  0  0  0  0  0  0  0  0  0
   -4.1680  -16.8398    7.4989 H   0  0  0  0  0  0  0  0  0  0  0  0
   -1.7538  -16.2747    7.7399 H   0  0  0  0  0  0  0  0  0  0  0  0
   -0.3513  -15.8762    5.7229 H   0  0  0  0  0  0  0  0  0  0  0  0
    0.1629  -17.5936    3.5762 H   0  0  0  0  0  0  0  0  0  0  0  0
    2.3180  -18.0112    1.6648 H   0  0  0  0  0  0  0  0  0  0  0  0
    2.9328  -16.6581   -0.5544 H   0  0  0  0  0  0  0  0  0  0  0  0
   -0.5250  -13.4670   -0.4140 H   0  0  0  0  0  0  0  0  0  0  0  0
   -2.8005  -12.6278   -0.3134 H   0  0  0  0  0  0  0  0  0  0  0  0
   -2.8731  -13.1477    1.4049 H   0  0  0  0  0  0  0  0  0  0  0  0
   -0.0523  -11.3458   -0.3448 H   0  0  0  0  0  0  0  0  0  0  0  0
    0.7489   -9.1474    0.4359 H   0  0  0  0  0  0  0  0  0  0  0  0
   -2.3350   -8.9004    3.2730 H   0  0  0  0  0  0  0  0  0  0  0  0
   -3.2369  -11.0914    2.5856 H   0  0  0  0  0  0  0  0  0  0  0  0
   -3.7839  -16.6204    3.2044 H   0  0  0  0  0  0  0  0  0  0  0  0
  1  2  2  0
  2  3  1  0
  3  4  1  0
  4  5  1  0
  5  6  2  0
  6  7  1  0
  7  8  2  0
  8  9  1  0
  9 10  1  0
 10 11  1  0
 10 12  1  0
 10 13  1  0
  9 14  2  0
  2 15  1  0
 15 16  1  0
 16 17  2  0
 17 18  1  0
 18 19  2  0
 19 20  1  0
 20 21  1  0
 21 22  2  0
 22 23  1  0
 23 24  1  0
 24 25  2  0
 25 26  1  0
 26 27  2  0
 27 28  1  0
 28 29  1  0
 29 30  1  0
 30 31  1  0
 31 32  2  0
 32 33  1  0
 33 34  2  0
 34 35  1  0
 35 36  2  0
 28 37  2  0
 20 38  2  0
 14  5  1  0
 38 16  1  0
 37 21  1  0
 27 23  1  0
 36 31  1  0
  3 39  1  0
  4 40  1  0
  4 41  1  0
  6 42  1  0
  7 43  1  0
  8 44  1  0
 14 45  1  0
 15 46  1  0
 17 47  1  0
 18 48  1  0
 19 49  1  0
 22 50  1  0
 24 51  1  0
 25 52  1  0
 29 53  1  0
 30 54  1  0
 30 55  1  0
 32 56  1  0
 33 57  1  0
 35 58  1  0
 36 59  1  0
 38 60  1  0
M  END
>  <meeko>  (9) 
{"is_sidechain": [false], "free_energy": -9.318, "intermolecular_energy": -12.442, "internal_energy": -1.228}

$$$$
