LIB_FQOBSFOIGPCIHS__M_PUB_ALL__e8__s20260927
     RDKit          3D

 67 71  0  0  0  0  0  0  0  0999 V2000
   14.3660  -14.1480   -9.5800 C   0  0  0  0  0  0  0  0  0  0  0  0
   14.8540  -14.7700   -8.3130 N   0  0  0  0  0  0  0  0  0  0  0  0
   16.0840  -15.6080   -8.5100 C   0  0  0  0  0  0  0  0  0  0  0  0
   13.7590  -15.5040   -7.5380 C   0  0  0  0  0  0  0  0  0  0  0  0
   13.7760  -15.0870   -6.0630 C   0  0  0  0  0  0  0  0  0  0  0  0
   14.1060  -15.9300   -5.2290 O   0  0  0  0  0  0  0  0  0  0  0  0
   13.4070  -13.7780   -5.8430 N   0  0  0  0  0  0  0  0  0  0  0  0
   13.3410  -13.1100   -4.5990 C   0  0  0  0  0  0  0  0  0  0  0  0
   14.3450  -12.2810   -4.0990 C   0  0  0  0  0  0  0  0  0  0  0  0
   14.1840  -11.6500   -2.8650 C   0  0  0  0  0  0  0  0  0  0  0  0
   13.0180  -11.8390   -2.1210 C   0  0  0  0  0  0  0  0  0  0  0  0
   11.9950  -12.6660   -2.6020 C   0  0  0  0  0  0  0  0  0  0  0  0
   10.7840  -12.8600   -1.8150 C   0  0  0  0  0  0  0  0  0  0  0  0
   10.6260  -13.4660   -0.5520 C   0  0  0  0  0  0  0  0  0  0  0  0
    9.3720  -13.4520   -0.1130 N   0  0  0  0  0  0  0  0  0  0  0  0
    8.6710  -12.7960   -1.0780 N   0  0  0  0  0  0  0  0  0  0  0  0
    7.3000  -12.4660   -1.0880 C   0  0  0  0  0  0  0  0  0  0  0  0
    6.3930  -12.8100    0.0300 C   0  0  0  0  0  0  0  0  0  0  0  0
    6.8810  -13.4430    1.1800 C   0  0  0  0  0  0  0  0  0  0  0  0
    6.0210  -13.7600    2.2310 C   0  0  0  0  0  0  0  0  0  0  0  0
    4.6620  -13.4540    2.1410 C   0  0  0  0  0  0  0  0  0  0  0  0
    4.1480  -12.8270    1.0010 C   0  0  0  0  0  0  0  0  0  0  0  0
    2.7630  -12.5560    0.9810 N   0  0  0  0  0  0  0  0  0  0  0  0
    1.7360  -13.4500    0.7350 C   0  0  0  0  0  0  0  0  0  0  0  0
    1.8460  -14.6380    0.4530 O   0  0  0  0  0  0  0  0  0  0  0  0
    0.3640  -12.8710    0.8040 C   0  0  0  0  0  0  0  0  0  0  0  0
   -0.7580  -13.5760    0.3510 C   0  0  0  0  0  0  0  0  0  0  0  0
   -2.0230  -12.9910    0.4240 C   0  0  0  0  0  0  0  0  0  0  0  0
   -2.1710  -11.7020    0.9410 C   0  0  0  0  0  0  0  0  0  0  0  0
   -1.0550  -10.9790    1.3910 C   0  0  0  0  0  0  0  0  0  0  0  0
   -1.2070   -9.5720    1.9170 C   0  0  0  0  0  0  0  0  0  0  0  0
   -2.2750   -8.9180    1.3830 F   0  0  0  0  0  0  0  0  0  0  0  0
   -1.3800   -9.5400    3.2670 F   0  0  0  0  0  0  0  0  0  0  0  0
   -0.1250   -8.7860    1.6590 F   0  0  0  0  0  0  0  0  0  0  0  0
    0.2140  -11.5720    1.3070 C   0  0  0  0  0  0  0  0  0  0  0  0
    5.0220  -12.5040   -0.0440 C   0  0  0  0  0  0  0  0  0  0  0  0
    6.7970  -11.8150   -2.1540 C   0  0  0  0  0  0  0  0  0  0  0  0
    7.7550  -11.4960   -3.2380 C   0  0  0  0  0  0  0  0  0  0  0  0
    9.0180  -11.7880   -3.2640 N   0  0  0  0  0  0  0  0  0  0  0  0
    9.5070  -12.4430   -2.1580 C   0  0  0  0  0  0  0  0  0  0  0  0
   12.1760  -13.3010   -3.8410 C   0  0  0  0  0  0  0  0  0  0  0  0
   13.7031  -13.3031   -9.3421 H   0  0  0  0  0  0  0  0  0  0  0  0
   15.2244  -13.7870  -10.1656 H   0  0  0  0  0  0  0  0  0  0  0  0
   13.8111  -14.8958  -10.1656 H   0  0  0  0  0  0  0  0  0  0  0  0
   15.1430  -14.0090   -7.6710 H   0  0  0  0  0  0  0  0  0  0  0  0
   16.4969  -15.8893   -7.5300 H   0  0  0  0  0  0  0  0  0  0  0  0
   15.8225  -16.5166   -9.0722 H   0  0  0  0  0  0  0  0  0  0  0  0
   16.8339  -15.0321   -9.0722 H   0  0  0  0  0  0  0  0  0  0  0  0
   12.7794  -15.2568   -7.9731 H   0  0  0  0  0  0  0  0  0  0  0  0
   13.9401  -16.5870   -7.6044 H   0  0  0  0  0  0  0  0  0  0  0  0
   13.1650  -13.1960   -6.6400 H   0  0  0  0  0  0  0  0  0  0  0  0
   15.2663  -12.1242   -4.6791 H   0  0  0  0  0  0  0  0  0  0  0  0
   14.9810  -10.9994   -2.4759 H   0  0  0  0  0  0  0  0  0  0  0  0
   12.9018  -11.3349   -1.1502 H   0  0  0  0  0  0  0  0  0  0  0  0
   11.4593  -13.9072    0.0146 H   0  0  0  0  0  0  0  0  0  0  0  0
    7.9499  -13.6918    1.2547 H   0  0  0  0  0  0  0  0  0  0  0  0
    6.4143  -14.2521    3.1327 H   0  0  0  0  0  0  0  0  0  0  0  0
    3.9895  -13.7081    2.9736 H   0  0  0  0  0  0  0  0  0  0  0  0
    2.5080  -11.5900    1.1390 H   0  0  0  0  0  0  0  0  0  0  0  0
   -0.6425  -14.5891   -0.0617 H   0  0  0  0  0  0  0  0  0  0  0  0
   -2.9055  -13.5464    0.0736 H   0  0  0  0  0  0  0  0  0  0  0  0
   -3.1718  -11.2489    0.9961 H   0  0  0  0  0  0  0  0  0  0  0  0
    1.1000  -11.0113    1.6395 H   0  0  0  0  0  0  0  0  0  0  0  0
    4.6291  -12.0013   -0.9400 H   0  0  0  0  0  0  0  0  0  0  0  0
    5.7348  -11.5359   -2.2164 H   0  0  0  0  0  0  0  0  0  0  0  0
    7.3543  -10.9568   -4.1090 H   0  0  0  0  0  0  0  0  0  0  0  0
   11.3866  -13.9632   -4.2261 H   0  0  0  0  0  0  0  0  0  0  0  0
  1  2  1  0
  2  3  1  0
  2  4  1  0
  4  5  1  0
  5  6  2  0
  5  7  1  0
  7  8  1  0
  8  9  2  0
  9 10  1  0
 10 11  2  0
 11 12  1  0
 12 13  1  0
 13 14  1  0
 14 15  2  0
 15 16  1  0
 16 17  1  0
 17 18  1  0
 18 19  2  0
 19 20  1  0
 20 21  2  0
 21 22  1  0
 22 23  1  0
 23 24  1  0
 24 25  2  0
 24 26  1  0
 26 27  2  0
 27 28  1  0
 28 29  2  0
 29 30  1  0
 30 31  1  0
 31 32  1  0
 31 33  1  0
 31 34  1  0
 30 35  2  0
 22 36  2  0
 17 37  2  0
 37 38  1  0
 38 39  2  0
 39 40  1  0
 12 41  2  0
 41  8  1  0
 40 13  2  0
 40 16  1  0
 36 18  1  0
 35 26  1  0
  1 42  1  0
  1 43  1  0
  1 44  1  0
  2 45  1  0
  3 46  1  0
  3 47  1  0
  3 48  1  0
  4 49  1  0
  4 50  1  0
  7 51  1  0
  9 52  1  0
 10 53  1  0
 11 54  1  0
 14 55  1  0
 19 56  1  0
 20 57  1  0
 21 58  1  0
 23 59  1  0
 27 60  1  0
 28 61  1  0
 29 62  1  0
 35 63  1  0
 36 64  1  0
 37 65  1  0
 38 66  1  0
 41 67  1  0
M  CHG  1   2   1
M  END
>  <meeko>  (1) 
{"is_sidechain": [false], "free_energy": -9.742, "intermolecular_energy": -14.298, "internal_energy": -0.77}

$$$$
LIB_FQOBSFOIGPCIHS__M_PUB_ALL__e8__s20260927
     RDKit          3D

 67 71  0  0  0  0  0  0  0  0999 V2000
   14.5990  -14.1100   -9.7980 C   0  0  0  0  0  0  0  0  0  0  0  0
   14.9520  -14.6670   -8.4580 N   0  0  0  0  0  0  0  0  0  0  0  0
   16.1340  -15.5900   -8.5040 C   0  0  0  0  0  0  0  0  0  0  0  0
   13.7580  -15.2760   -7.7210 C   0  0  0  0  0  0  0  0  0  0  0  0
   13.8160  -14.9270   -6.2300 C   0  0  0  0  0  0  0  0  0  0  0  0
   14.2160  -15.7920   -5.4510 O   0  0  0  0  0  0  0  0  0  0  0  0
   13.3990  -13.6480   -5.9330 N   0  0  0  0  0  0  0  0  0  0  0  0
   13.3540  -13.0430   -4.6560 C   0  0  0  0  0  0  0  0  0  0  0  0
   14.3990  -12.3060   -4.1000 C   0  0  0  0  0  0  0  0  0  0  0  0
   14.2570  -11.7300   -2.8350 C   0  0  0  0  0  0  0  0  0  0  0  0
   13.0690  -11.8840   -2.1190 C   0  0  0  0  0  0  0  0  0  0  0  0
   12.0050  -12.6200   -2.6560 C   0  0  0  0  0  0  0  0  0  0  0  0
   10.7710  -12.7780   -1.8970 C   0  0  0  0  0  0  0  0  0  0  0  0
   10.5750  -13.3310   -0.6150 C   0  0  0  0  0  0  0  0  0  0  0  0
    9.3090  -13.2960   -0.2120 N   0  0  0  0  0  0  0  0  0  0  0  0
    8.6390  -12.6780   -1.2230 N   0  0  0  0  0  0  0  0  0  0  0  0
    7.2700  -12.3450   -1.2860 C   0  0  0  0  0  0  0  0  0  0  0  0
    6.3300  -12.6400   -0.1810 C   0  0  0  0  0  0  0  0  0  0  0  0
    6.7080  -13.4750    0.8780 C   0  0  0  0  0  0  0  0  0  0  0  0
    5.8190  -13.7450    1.9170 C   0  0  0  0  0  0  0  0  0  0  0  0
    4.5390  -13.1880    1.9060 C   0  0  0  0  0  0  0  0  0  0  0  0
    4.1350  -12.3550    0.8580 C   0  0  0  0  0  0  0  0  0  0  0  0
    2.8230  -11.8360    0.9140 N   0  0  0  0  0  0  0  0  0  0  0  0
    1.6970  -12.3290    0.2810 C   0  0  0  0  0  0  0  0  0  0  0  0
    1.6400  -13.2910   -0.4780 O   0  0  0  0  0  0  0  0  0  0  0  0
    0.4390  -11.5760    0.5490 C   0  0  0  0  0  0  0  0  0  0  0  0
    0.4540  -10.2510    1.0030 C   0  0  0  0  0  0  0  0  0  0  0  0
   -0.7480   -9.5870    1.2520 C   0  0  0  0  0  0  0  0  0  0  0  0
   -1.9650  -10.2430    1.0570 C   0  0  0  0  0  0  0  0  0  0  0  0
   -1.9970  -11.5730    0.6120 C   0  0  0  0  0  0  0  0  0  0  0  0
   -3.3100  -12.2980    0.4350 C   0  0  0  0  0  0  0  0  0  0  0  0
   -4.0450  -11.8190   -0.6070 F   0  0  0  0  0  0  0  0  0  0  0  0
   -3.1390  -13.6270    0.1970 F   0  0  0  0  0  0  0  0  0  0  0  0
   -4.1190  -12.2130    1.5280 F   0  0  0  0  0  0  0  0  0  0  0  0
   -0.7840  -12.2360    0.3710 C   0  0  0  0  0  0  0  0  0  0  0  0
    5.0380  -12.0830   -0.1750 C   0  0  0  0  0  0  0  0  0  0  0  0
    6.8000  -11.7360   -2.3910 C   0  0  0  0  0  0  0  0  0  0  0  0
    7.7900  -11.4650   -3.4600 C   0  0  0  0  0  0  0  0  0  0  0  0
    9.0520  -11.7610   -3.4380 N   0  0  0  0  0  0  0  0  0  0  0  0
    9.5060  -12.3720   -2.2930 C   0  0  0  0  0  0  0  0  0  0  0  0
   12.1670  -13.1990   -3.9240 C   0  0  0  0  0  0  0  0  0  0  0  0
   14.0142  -13.1873   -9.6691 H   0  0  0  0  0  0  0  0  0  0  0  0
   15.5200  -13.8855  -10.3560 H   0  0  0  0  0  0  0  0  0  0  0  0
   14.0028  -14.8470  -10.3560 H   0  0  0  0  0  0  0  0  0  0  0  0
   15.2430  -13.8800   -7.8480 H   0  0  0  0  0  0  0  0  0  0  0  0
   16.4479  -15.8351   -7.4786 H   0  0  0  0  0  0  0  0  0  0  0  0
   15.8576  -16.5137   -9.0335 H   0  0  0  0  0  0  0  0  0  0  0  0
   16.9631  -15.0979   -9.0335 H   0  0  0  0  0  0  0  0  0  0  0  0
   12.8262  -14.8790   -8.1502 H   0  0  0  0  0  0  0  0  0  0  0  0
   13.7897  -16.3698   -7.8329 H   0  0  0  0  0  0  0  0  0  0  0  0
   13.1000  -13.0420   -6.6900 H   0  0  0  0  0  0  0  0  0  0  0  0
   15.3377  -12.1777   -4.6588 H   0  0  0  0  0  0  0  0  0  0  0  0
   15.0862  -11.1519   -2.4010 H   0  0  0  0  0  0  0  0  0  0  0  0
   12.9674  -11.4238   -1.1251 H   0  0  0  0  0  0  0  0  0  0  0  0
   11.3904  -13.7505   -0.0075 H   0  0  0  0  0  0  0  0  0  0  0  0
    7.7135  -13.9208    0.8898 H   0  0  0  0  0  0  0  0  0  0  0  0
    6.1265  -14.3981    2.7470 H   0  0  0  0  0  0  0  0  0  0  0  0
    3.8422  -13.4062    2.7287 H   0  0  0  0  0  0  0  0  0  0  0  0
    2.7140  -10.9920    1.4610 H   0  0  0  0  0  0  0  0  0  0  0  0
    1.4119   -9.7345    1.1631 H   0  0  0  0  0  0  0  0  0  0  0  0
   -0.7366   -8.5445    1.6027 H   0  0  0  0  0  0  0  0  0  0  0  0
   -2.9078   -9.7118    1.2542 H   0  0  0  0  0  0  0  0  0  0  0  0
   -0.7934  -13.2846    0.0389 H   0  0  0  0  0  0  0  0  0  0  0  0
    4.7322  -11.4209   -0.9985 H   0  0  0  0  0  0  0  0  0  0  0  0
    5.7414  -11.4555   -2.4944 H   0  0  0  0  0  0  0  0  0  0  0  0
    7.4161  -10.9616   -4.3638 H   0  0  0  0  0  0  0  0  0  0  0  0
   11.3443  -13.7889   -4.3542 H   0  0  0  0  0  0  0  0  0  0  0  0
  1  2  1  0
  2  3  1  0
  2  4  1  0
  4  5  1  0
  5  6  2  0
  5  7  1  0
  7  8  1  0
  8  9  2  0
  9 10  1  0
 10 11  2  0
 11 12  1  0
 12 13  1  0
 13 14  1  0
 14 15  2  0
 15 16  1  0
 16 17  1  0
 17 18  1  0
 18 19  2  0
 19 20  1  0
 20 21  2  0
 21 22  1  0
 22 23  1  0
 23 24  1  0
 24 25  2  0
 24 26  1  0
 26 27  2  0
 27 28  1  0
 28 29  2  0
 29 30  1  0
 30 31  1  0
 31 32  1  0
 31 33  1  0
 31 34  1  0
 30 35  2  0
 22 36  2  0
 17 37  2  0
 37 38  1  0
 38 39  2  0
 39 40  1  0
 12 41  2  0
 41  8  1  0
 40 13  2  0
 40 16  1  0
 36 18  1  0
 35 26  1  0
  1 42  1  0
  1 43  1  0
  1 44  1  0
  2 45  1  0
  3 46  1  0
  3 47  1  0
  3 48  1  0
  4 49  1  0
  4 50  1  0
  7 51  1  0
  9 52  1  0
 10 53  1  0
 11 54  1  0
 14 55  1  0
 19 56  1  0
 20 57  1  0
 21 58  1  0
 23 59  1  0
 27 60  1  0
 28 61  1  0
 29 62  1  0
 35 63  1  0
 36 64  1  0
 37 65  1  0
 38 66  1  0
 41 67  1  0
M  CHG  1   2   1
M  END
>  <meeko>  (2) 
{"is_sidechain": [false], "free_energy": -9.575, "intermolecular_energy": -14.114, "internal_energy": -0.709}

$$$$
LIB_FQOBSFOIGPCIHS__M_PUB_ALL__e8__s20260927
     RDKit          3D

 67 71  0  0  0  0  0  0  0  0999 V2000
   -2.7330  -16.1310    1.6210 C   0  0  0  0  0  0  0  0  0  0  0  0
   -2.9510  -15.3690    2.8870 N   0  0  0  0  0  0  0  0  0  0  0  0
   -3.3110  -16.2520    4.0450 C   0  0  0  0  0  0  0  0  0  0  0  0
   -3.9110  -14.1880    2.7260 C   0  0  0  0  0  0  0  0  0  0  0  0
   -3.2610  -13.0800    1.8920 C   0  0  0  0  0  0  0  0  0  0  0  0
   -3.8870  -12.6400    0.9280 O   0  0  0  0  0  0  0  0  0  0  0  0
   -2.0130  -12.6980    2.3360 N   0  0  0  0  0  0  0  0  0  0  0  0
   -1.1810  -11.6990    1.7810 C   0  0  0  0  0  0  0  0  0  0  0  0
   -1.3400  -10.3320    2.0060 C   0  0  0  0  0  0  0  0  0  0  0  0
   -0.4580   -9.4180    1.4260 C   0  0  0  0  0  0  0  0  0  0  0  0
    0.5910   -9.8620    0.6200 C   0  0  0  0  0  0  0  0  0  0  0  0
    0.7720  -11.2300    0.3790 C   0  0  0  0  0  0  0  0  0  0  0  0
    1.8680  -11.6830   -0.4680 C   0  0  0  0  0  0  0  0  0  0  0  0
    2.7940  -12.7220   -0.2510 C   0  0  0  0  0  0  0  0  0  0  0  0
    3.6550  -12.8800   -1.2510 N   0  0  0  0  0  0  0  0  0  0  0  0
    3.2870  -11.9540   -2.1780 N   0  0  0  0  0  0  0  0  0  0  0  0
    3.8440  -11.7270   -3.4530 C   0  0  0  0  0  0  0  0  0  0  0  0
    4.9730  -12.5280   -3.9800 C   0  0  0  0  0  0  0  0  0  0  0  0
    4.7430  -13.6390   -4.8000 C   0  0  0  0  0  0  0  0  0  0  0  0
    5.8110  -14.3850   -5.2950 C   0  0  0  0  0  0  0  0  0  0  0  0
    7.1220  -14.0320   -4.9710 C   0  0  0  0  0  0  0  0  0  0  0  0
    7.3790  -12.9300   -4.1490 C   0  0  0  0  0  0  0  0  0  0  0  0
    8.7310  -12.6420   -3.8590 N   0  0  0  0  0  0  0  0  0  0  0  0
    9.5540  -13.2930   -2.9590 C   0  0  0  0  0  0  0  0  0  0  0  0
    9.2480  -14.2200   -2.2180 O   0  0  0  0  0  0  0  0  0  0  0  0
   10.9490  -12.7720   -2.8860 C   0  0  0  0  0  0  0  0  0  0  0  0
   11.8260  -12.8550   -3.9750 C   0  0  0  0  0  0  0  0  0  0  0  0
   13.1270  -12.3640   -3.8590 C   0  0  0  0  0  0  0  0  0  0  0  0
   13.5600  -11.7980   -2.6580 C   0  0  0  0  0  0  0  0  0  0  0  0
   12.6960  -11.7160   -1.5550 C   0  0  0  0  0  0  0  0  0  0  0  0
   13.1700  -11.1380   -0.2430 C   0  0  0  0  0  0  0  0  0  0  0  0
   14.3140  -10.4100   -0.3670 F   0  0  0  0  0  0  0  0  0  0  0  0
   12.2510  -10.3060    0.3180 F   0  0  0  0  0  0  0  0  0  0  0  0
   13.4360  -12.0900    0.6950 F   0  0  0  0  0  0  0  0  0  0  0  0
   11.3910  -12.2190   -1.6770 C   0  0  0  0  0  0  0  0  0  0  0  0
    6.3000  -12.1830   -3.6650 C   0  0  0  0  0  0  0  0  0  0  0  0
    3.3330  -10.7450   -4.2200 C   0  0  0  0  0  0  0  0  0  0  0  0
    2.2030   -9.9820   -3.6390 C   0  0  0  0  0  0  0  0  0  0  0  0
    1.6700  -10.1610   -2.4710 N   0  0  0  0  0  0  0  0  0  0  0  0
    2.2050  -11.1770   -1.7140 C   0  0  0  0  0  0  0  0  0  0  0  0
   -0.1290  -12.1360    0.9620 C   0  0  0  0  0  0  0  0  0  0  0  0
   -2.4377  -17.1632    1.8605 H   0  0  0  0  0  0  0  0  0  0  0  0
   -3.6639  -16.1425    1.0351 H   0  0  0  0  0  0  0  0  0  0  0  0
   -1.9369  -15.6485    1.0351 H   0  0  0  0  0  0  0  0  0  0  0  0
   -2.0540  -14.9220    3.1530 H   0  0  0  0  0  0  0  0  0  0  0  0
   -3.0967  -15.7265    4.9873 H   0  0  0  0  0  0  0  0  0  0  0  0
   -4.3818  -16.4994    3.9984 H   0  0  0  0  0  0  0  0  0  0  0  0
   -2.7184  -17.1776    3.9984 H   0  0  0  0  0  0  0  0  0  0  0  0
   -4.8263  -14.5313    2.2217 H   0  0  0  0  0  0  0  0  0  0  0  0
   -4.1545  -13.7884    3.7215 H   0  0  0  0  0  0  0  0  0  0  0  0
   -1.6250  -13.1520    3.1570 H   0  0  0  0  0  0  0  0  0  0  0  0
   -2.1624   -9.9728    2.6421 H   0  0  0  0  0  0  0  0  0  0  0  0
   -0.5910   -8.3409    1.6056 H   0  0  0  0  0  0  0  0  0  0  0  0
    1.2808   -9.1325    0.1706 H   0  0  0  0  0  0  0  0  0  0  0  0
    2.8036  -13.3421    0.6575 H   0  0  0  0  0  0  0  0  0  0  0  0
    3.7121  -13.9252   -5.0554 H   0  0  0  0  0  0  0  0  0  0  0  0
    5.6205  -15.2537   -5.9423 H   0  0  0  0  0  0  0  0  0  0  0  0
    7.9600  -14.6255   -5.3654 H   0  0  0  0  0  0  0  0  0  0  0  0
    9.1200  -11.8490   -4.3530 H   0  0  0  0  0  0  0  0  0  0  0  0
   11.4897  -13.3065   -4.9200 H   0  0  0  0  0  0  0  0  0  0  0  0
   13.8137  -12.4230   -4.7163 H   0  0  0  0  0  0  0  0  0  0  0  0
   14.5872  -11.4131   -2.5758 H   0  0  0  0  0  0  0  0  0  0  0  0
   10.7089  -12.1785   -0.8150 H   0  0  0  0  0  0  0  0  0  0  0  0
    6.4928  -11.3089   -3.0257 H   0  0  0  0  0  0  0  0  0  0  0  0
    3.7316  -10.5219   -5.2207 H   0  0  0  0  0  0  0  0  0  0  0  0
    1.7734   -9.1834   -4.2616 H   0  0  0  0  0  0  0  0  0  0  0  0
   -0.0071  -13.2126    0.7722 H   0  0  0  0  0  0  0  0  0  0  0  0
  1  2  1  0
  2  3  1  0
  2  4  1  0
  4  5  1  0
  5  6  2  0
  5  7  1  0
  7  8  1  0
  8  9  2  0
  9 10  1  0
 10 11  2  0
 11 12  1  0
 12 13  1  0
 13 14  1  0
 14 15  2  0
 15 16  1  0
 16 17  1  0
 17 18  1  0
 18 19  2  0
 19 20  1  0
 20 21  2  0
 21 22  1  0
 22 23  1  0
 23 24  1  0
 24 25  2  0
 24 26  1  0
 26 27  2  0
 27 28  1  0
 28 29  2  0
 29 30  1  0
 30 31  1  0
 31 32  1  0
 31 33  1  0
 31 34  1  0
 30 35  2  0
 22 36  2  0
 17 37  2  0
 37 38  1  0
 38 39  2  0
 39 40  1  0
 12 41  2  0
 41  8  1  0
 40 13  2  0
 40 16  1  0
 36 18  1  0
 35 26  1  0
  1 42  1  0
  1 43  1  0
  1 44  1  0
  2 45  1  0
  3 46  1  0
  3 47  1  0
  3 48  1  0
  4 49  1  0
  4 50  1  0
  7 51  1  0
  9 52  1  0
 10 53  1  0
 11 54  1  0
 14 55  1  0
 19 56  1  0
 20 57  1  0
 21 58  1  0
 23 59  1  0
 27 60  1  0
 28 61  1  0
 29 62  1  0
 35 63  1  0
 36 64  1  0
 37 65  1  0
 38 66  1  0
 41 67  1  0
M  CHG  1   2   1
M  END
>  <meeko>  (3) 
{"is_sidechain": [false], "free_energy": -9.562, "intermolecular_energy": -13.547, "internal_energy": -1.257}

$$$$
LIB_FQOBSFOIGPCIHS__M_PUB_ALL__e8__s20260927
     RDKit          3D

 67 71  0  0  0  0  0  0  0  0999 V2000
   12.5180  -13.6500   -5.3890 C   0  0  0  0  0  0  0  0  0  0  0  0
   13.8210  -14.0110   -4.7560 N   0  0  0  0  0  0  0  0  0  0  0  0
   13.7570  -15.2930   -3.9780 C   0  0  0  0  0  0  0  0  0  0  0  0
   14.4440  -12.8660   -3.9540 C   0  0  0  0  0  0  0  0  0  0  0  0
   13.3790  -12.1740   -3.0960 C   0  0  0  0  0  0  0  0  0  0  0  0
   12.9660  -11.0750   -3.4650 O   0  0  0  0  0  0  0  0  0  0  0  0
   13.0030  -12.8880   -1.9790 N   0  0  0  0  0  0  0  0  0  0  0  0
   12.0400  -12.5140   -1.0140 C   0  0  0  0  0  0  0  0  0  0  0  0
   12.3470  -11.9320    0.2150 C   0  0  0  0  0  0  0  0  0  0  0  0
   11.3250  -11.5800    1.1000 C   0  0  0  0  0  0  0  0  0  0  0  0
    9.9900  -11.8060    0.7630 C   0  0  0  0  0  0  0  0  0  0  0  0
    9.6560  -12.3900   -0.4660 C   0  0  0  0  0  0  0  0  0  0  0  0
    8.2590  -12.6250   -0.8060 C   0  0  0  0  0  0  0  0  0  0  0  0
    7.2830  -11.7130   -1.2540 C   0  0  0  0  0  0  0  0  0  0  0  0
    6.1030  -12.2760   -1.4950 N   0  0  0  0  0  0  0  0  0  0  0  0
    6.2910  -13.6000   -1.2380 N   0  0  0  0  0  0  0  0  0  0  0  0
    5.3660  -14.6550   -1.3800 C   0  0  0  0  0  0  0  0  0  0  0  0
    3.9840  -14.4390   -1.8660 C   0  0  0  0  0  0  0  0  0  0  0  0
    3.6590  -14.6400   -3.2130 C   0  0  0  0  0  0  0  0  0  0  0  0
    2.3540  -14.4380   -3.6620 C   0  0  0  0  0  0  0  0  0  0  0  0
    1.3620  -14.0290   -2.7700 C   0  0  0  0  0  0  0  0  0  0  0  0
    1.6620  -13.8160   -1.4200 C   0  0  0  0  0  0  0  0  0  0  0  0
    0.6060  -13.3950   -0.5820 N   0  0  0  0  0  0  0  0  0  0  0  0
   -0.2970  -14.1930    0.0950 C   0  0  0  0  0  0  0  0  0  0  0  0
   -0.3680  -15.4160    0.0630 O   0  0  0  0  0  0  0  0  0  0  0  0
   -1.2930  -13.4570    0.9250 C   0  0  0  0  0  0  0  0  0  0  0  0
   -2.2530  -14.1270    1.6940 C   0  0  0  0  0  0  0  0  0  0  0  0
   -3.1730  -13.3970    2.4470 C   0  0  0  0  0  0  0  0  0  0  0  0
   -3.1450  -12.0010    2.4310 C   0  0  0  0  0  0  0  0  0  0  0  0
   -2.1940  -11.3150    1.6580 C   0  0  0  0  0  0  0  0  0  0  0  0
   -2.1830   -9.8050    1.6080 C   0  0  0  0  0  0  0  0  0  0  0  0
   -3.0110   -9.3000    0.6530 F   0  0  0  0  0  0  0  0  0  0  0  0
   -2.5770   -9.2460    2.7840 F   0  0  0  0  0  0  0  0  0  0  0  0
   -0.9510   -9.2900    1.3410 F   0  0  0  0  0  0  0  0  0  0  0  0
   -1.2770  -12.0560    0.8970 C   0  0  0  0  0  0  0  0  0  0  0  0
    2.9720  -14.0300   -0.9780 C   0  0  0  0  0  0  0  0  0  0  0  0
    5.7530  -15.9050   -1.0610 C   0  0  0  0  0  0  0  0  0  0  0  0
    7.1480  -16.0560   -0.5840 C   0  0  0  0  0  0  0  0  0  0  0  0
    8.0220  -15.1090   -0.4380 N   0  0  0  0  0  0  0  0  0  0  0  0
    7.6020  -13.8460   -0.7810 C   0  0  0  0  0  0  0  0  0  0  0  0
   10.6950  -12.7450   -1.3410 C   0  0  0  0  0  0  0  0  0  0  0  0
   11.7742  -13.4439   -4.6052 H   0  0  0  0  0  0  0  0  0  0  0  0
   12.6497  -12.7545   -6.0141 H   0  0  0  0  0  0  0  0  0  0  0  0
   12.1701  -14.4856   -6.0141 H   0  0  0  0  0  0  0  0  0  0  0  0
   14.5100  -14.1850   -5.5110 H   0  0  0  0  0  0  0  0  0  0  0  0
   13.7682  -15.0693   -2.9010 H   0  0  0  0  0  0  0  0  0  0  0  0
   12.8309  -15.8298   -4.2314 H   0  0  0  0  0  0  0  0  0  0  0  0
   14.6250  -15.9194   -4.2314 H   0  0  0  0  0  0  0  0  0  0  0  0
   15.2315  -13.2682   -3.2997 H   0  0  0  0  0  0  0  0  0  0  0  0
   14.8718  -12.1320   -4.6528 H   0  0  0  0  0  0  0  0  0  0  0  0
   13.4320  -13.7930   -1.8080 H   0  0  0  0  0  0  0  0  0  0  0  0
   13.3967  -11.7495    0.4886 H   0  0  0  0  0  0  0  0  0  0  0  0
   11.5743  -11.1218    2.0685 H   0  0  0  0  0  0  0  0  0  0  0  0
    9.1938  -11.5236    1.4675 H   0  0  0  0  0  0  0  0  0  0  0  0
    7.4784  -10.6392   -1.3911 H   0  0  0  0  0  0  0  0  0  0  0  0
    4.4376  -14.9592   -3.9215 H   0  0  0  0  0  0  0  0  0  0  0  0
    2.1064  -14.6014   -4.7212 H   0  0  0  0  0  0  0  0  0  0  0  0
    0.3349  -13.8726   -3.1314 H   0  0  0  0  0  0  0  0  0  0  0  0
    0.4920  -12.3930   -0.5000 H   0  0  0  0  0  0  0  0  0  0  0  0
   -2.2815  -15.2266    1.7042 H   0  0  0  0  0  0  0  0  0  0  0  0
   -3.9232  -13.9231    3.0556 H   0  0  0  0  0  0  0  0  0  0  0  0
   -3.8738  -11.4339    3.0287 H   0  0  0  0  0  0  0  0  0  0  0  0
   -0.5385  -11.5321    0.2724 H   0  0  0  0  0  0  0  0  0  0  0  0
    3.2154  -13.8756    0.0836 H   0  0  0  0  0  0  0  0  0  0  0  0
    5.0725  -16.7647   -1.1495 H   0  0  0  0  0  0  0  0  0  0  0  0
    7.4753  -17.0745   -0.3278 H   0  0  0  0  0  0  0  0  0  0  0  0
   10.4492  -13.2149   -2.3047 H   0  0  0  0  0  0  0  0  0  0  0  0
  1  2  1  0
  2  3  1  0
  2  4  1  0
  4  5  1  0
  5  6  2  0
  5  7  1  0
  7  8  1  0
  8  9  2  0
  9 10  1  0
 10 11  2  0
 11 12  1  0
 12 13  1  0
 13 14  1  0
 14 15  2  0
 15 16  1  0
 16 17  1  0
 17 18  1  0
 18 19  2  0
 19 20  1  0
 20 21  2  0
 21 22  1  0
 22 23  1  0
 23 24  1  0
 24 25  2  0
 24 26  1  0
 26 27  2  0
 27 28  1  0
 28 29  2  0
 29 30  1  0
 30 31  1  0
 31 32  1  0
 31 33  1  0
 31 34  1  0
 30 35  2  0
 22 36  2  0
 17 37  2  0
 37 38  1  0
 38 39  2  0
 39 40  1  0
 12 41  2  0
 41  8  1  0
 40 13  2  0
 40 16  1  0
 36 18  1  0
 35 26  1  0
  1 42  1  0
  1 43  1  0
  1 44  1  0
  2 45  1  0
  3 46  1  0
  3 47  1  0
  3 48  1  0
  4 49  1  0
  4 50  1  0
  7 51  1  0
  9 52  1  0
 10 53  1  0
 11 54  1  0
 14 55  1  0
 19 56  1  0
 20 57  1  0
 21 58  1  0
 23 59  1  0
 27 60  1  0
 28 61  1  0
 29 62  1  0
 35 63  1  0
 36 64  1  0
 37 65  1  0
 38 66  1  0
 41 67  1  0
M  CHG  1   2   1
M  END
>  <meeko>  (4) 
{"is_sidechain": [false], "free_energy": -9.429, "intermolecular_energy": -13.368, "internal_energy": -1.241}

$$$$
LIB_FQOBSFOIGPCIHS__M_PUB_ALL__e8__s20260927
     RDKit          3D

 67 71  0  0  0  0  0  0  0  0999 V2000
   -1.5670   -8.9030    3.6700 C   0  0  0  0  0  0  0  0  0  0  0  0
   -1.1750  -10.0010    2.7380 N   0  0  0  0  0  0  0  0  0  0  0  0
   -0.4780   -9.5010    1.5070 C   0  0  0  0  0  0  0  0  0  0  0  0
   -2.3210  -10.9620    2.4170 C   0  0  0  0  0  0  0  0  0  0  0  0
   -1.7770  -12.3620    2.1150 C   0  0  0  0  0  0  0  0  0  0  0  0
   -1.2930  -13.0060    3.0460 O   0  0  0  0  0  0  0  0  0  0  0  0
   -1.8990  -12.7420    0.7960 N   0  0  0  0  0  0  0  0  0  0  0  0
   -1.5020  -13.9730    0.2250 C   0  0  0  0  0  0  0  0  0  0  0  0
   -2.3030  -15.1130    0.1810 C   0  0  0  0  0  0  0  0  0  0  0  0
   -1.8310  -16.2810   -0.4190 C   0  0  0  0  0  0  0  0  0  0  0  0
   -0.5540  -16.3190   -0.9830 C   0  0  0  0  0  0  0  0  0  0  0  0
    0.2700  -15.1880   -0.9520 C   0  0  0  0  0  0  0  0  0  0  0  0
    1.6030  -15.2400   -1.5400 C   0  0  0  0  0  0  0  0  0  0  0  0
    2.7100  -16.0300   -1.1730 C   0  0  0  0  0  0  0  0  0  0  0  0
    3.7750  -15.8400   -1.9460 N   0  0  0  0  0  0  0  0  0  0  0  0
    3.3720  -14.9290   -2.8750 N   0  0  0  0  0  0  0  0  0  0  0  0
    4.1050  -14.4120   -3.9630 C   0  0  0  0  0  0  0  0  0  0  0  0
    5.4960  -14.8290   -4.2530 C   0  0  0  0  0  0  0  0  0  0  0  0
    5.7560  -15.9110   -5.1030 C   0  0  0  0  0  0  0  0  0  0  0  0
    7.0680  -16.2960   -5.3750 C   0  0  0  0  0  0  0  0  0  0  0  0
    8.1340  -15.6070   -4.7960 C   0  0  0  0  0  0  0  0  0  0  0  0
    7.9010  -14.5260   -3.9390 C   0  0  0  0  0  0  0  0  0  0  0  0
    9.0310  -13.8840   -3.3870 N   0  0  0  0  0  0  0  0  0  0  0  0
   10.2000  -13.5330   -4.0380 C   0  0  0  0  0  0  0  0  0  0  0  0
   10.4820  -13.7480   -5.2110 O   0  0  0  0  0  0  0  0  0  0  0  0
   11.2130  -12.8430   -3.1900 C   0  0  0  0  0  0  0  0  0  0  0  0
   12.4630  -12.4630   -3.6950 C   0  0  0  0  0  0  0  0  0  0  0  0
   13.3860  -11.8290   -2.8620 C   0  0  0  0  0  0  0  0  0  0  0  0
   13.0700  -11.5790   -1.5250 C   0  0  0  0  0  0  0  0  0  0  0  0
   11.8250  -11.9620   -1.0020 C   0  0  0  0  0  0  0  0  0  0  0  0
   11.4920  -11.7270    0.4520 C   0  0  0  0  0  0  0  0  0  0  0  0
   11.9440  -12.7200    1.2670 F   0  0  0  0  0  0  0  0  0  0  0  0
   12.0350  -10.5730    0.9270 F   0  0  0  0  0  0  0  0  0  0  0  0
   10.1540  -11.6360    0.6860 F   0  0  0  0  0  0  0  0  0  0  0  0
   10.9050  -12.6060   -1.8440 C   0  0  0  0  0  0  0  0  0  0  0  0
    6.5810  -14.1420   -3.6810 C   0  0  0  0  0  0  0  0  0  0  0  0
    3.5200  -13.5040   -4.7670 C   0  0  0  0  0  0  0  0  0  0  0  0
    2.1270  -13.1290   -4.4260 C   0  0  0  0  0  0  0  0  0  0  0  0
    1.4260  -13.5810   -3.4320 N   0  0  0  0  0  0  0  0  0  0  0  0
    2.0460  -14.5140   -2.6350 C   0  0  0  0  0  0  0  0  0  0  0  0
   -0.2170  -14.0230   -0.3370 C   0  0  0  0  0  0  0  0  0  0  0  0
   -1.4456   -9.2431    4.7090 H   0  0  0  0  0  0  0  0  0  0  0  0
   -0.9263   -8.0264    3.4939 H   0  0  0  0  0  0  0  0  0  0  0  0
   -2.6180   -8.6303    3.4939 H   0  0  0  0  0  0  0  0  0  0  0  0
   -0.4790  -10.6010    3.2210 H   0  0  0  0  0  0  0  0  0  0  0  0
    0.3837   -8.8828    1.7991 H   0  0  0  0  0  0  0  0  0  0  0  0
   -0.1298  -10.3566    0.9097 H   0  0  0  0  0  0  0  0  0  0  0  0
   -1.1769   -8.8970    0.9097 H   0  0  0  0  0  0  0  0  0  0  0  0
   -3.0009  -11.0160    3.2800 H   0  0  0  0  0  0  0  0  0  0  0  0
   -2.8601  -10.5909    1.5329 H   0  0  0  0  0  0  0  0  0  0  0  0
   -2.3300  -12.1000    0.1380 H   0  0  0  0  0  0  0  0  0  0  0  0
   -3.3110  -15.0917    0.6209 H   0  0  0  0  0  0  0  0  0  0  0  0
   -2.4684  -17.1770   -0.4479 H   0  0  0  0  0  0  0  0  0  0  0  0
   -0.1930  -17.2446   -1.4551 H   0  0  0  0  0  0  0  0  0  0  0  0
    2.6948  -16.7354   -0.3291 H   0  0  0  0  0  0  0  0  0  0  0  0
    4.9195  -16.4608   -5.5591 H   0  0  0  0  0  0  0  0  0  0  0  0
    7.2630  -17.1445   -6.0473 H   0  0  0  0  0  0  0  0  0  0  0  0
    9.1666  -15.9164   -5.0152 H   0  0  0  0  0  0  0  0  0  0  0  0
    8.9780  -13.6900   -2.3950 H   0  0  0  0  0  0  0  0  0  0  0  0
   12.7167  -12.6639   -4.7463 H   0  0  0  0  0  0  0  0  0  0  0  0
   14.3655  -11.5253   -3.2599 H   0  0  0  0  0  0  0  0  0  0  0  0
   13.8031  -11.0776   -0.8760 H   0  0  0  0  0  0  0  0  0  0  0  0
    9.9325  -12.9278   -1.4431 H   0  0  0  0  0  0  0  0  0  0  0  0
    6.3881  -13.2859   -3.0177 H   0  0  0  0  0  0  0  0  0  0  0  0
    4.0459  -13.0655   -5.6279 H   0  0  0  0  0  0  0  0  0  0  0  0
    1.6383  -12.3934   -5.0817 H   0  0  0  0  0  0  0  0  0  0  0  0
    0.4233  -13.1295   -0.2949 H   0  0  0  0  0  0  0  0  0  0  0  0
  1  2  1  0
  2  3  1  0
  2  4  1  0
  4  5  1  0
  5  6  2  0
  5  7  1  0
  7  8  1  0
  8  9  2  0
  9 10  1  0
 10 11  2  0
 11 12  1  0
 12 13  1  0
 13 14  1  0
 14 15  2  0
 15 16  1  0
 16 17  1  0
 17 18  1  0
 18 19  2  0
 19 20  1  0
 20 21  2  0
 21 22  1  0
 22 23  1  0
 23 24  1  0
 24 25  2  0
 24 26  1  0
 26 27  2  0
 27 28  1  0
 28 29  2  0
 29 30  1  0
 30 31  1  0
 31 32  1  0
 31 33  1  0
 31 34  1  0
 30 35  2  0
 22 36  2  0
 17 37  2  0
 37 38  1  0
 38 39  2  0
 39 40  1  0
 12 41  2  0
 41  8  1  0
 40 13  2  0
 40 16  1  0
 36 18  1  0
 35 26  1  0
  1 42  1  0
  1 43  1  0
  1 44  1  0
  2 45  1  0
  3 46  1  0
  3 47  1  0
  3 48  1  0
  4 49  1  0
  4 50  1  0
  7 51  1  0
  9 52  1  0
 10 53  1  0
 11 54  1  0
 14 55  1  0
 19 56  1  0
 20 57  1  0
 21 58  1  0
 23 59  1  0
 27 60  1  0
 28 61  1  0
 29 62  1  0
 35 63  1  0
 36 64  1  0
 37 65  1  0
 38 66  1  0
 41 67  1  0
M  CHG  1   2   1
M  END
>  <meeko>  (5) 
{"is_sidechain": [false], "free_energy": -9.203, "intermolecular_energy": -13.125, "internal_energy": -1.153}

$$$$
LIB_FQOBSFOIGPCIHS__M_PUB_ALL__e8__s20260927
     RDKit          3D

 67 71  0  0  0  0  0  0  0  0999 V2000
    0.8920  -21.0580    6.3590 C   0  0  0  0  0  0  0  0  0  0  0  0
    1.6010  -20.9760    5.0480 N   0  0  0  0  0  0  0  0  0  0  0  0
    2.2270  -22.2780    4.6400 C   0  0  0  0  0  0  0  0  0  0  0  0
    2.5760  -19.8010    4.9590 C   0  0  0  0  0  0  0  0  0  0  0  0
    1.8210  -18.4990    4.6700 C   0  0  0  0  0  0  0  0  0  0  0  0
    1.8660  -17.6060    5.5160 O   0  0  0  0  0  0  0  0  0  0  0  0
    1.1610  -18.4870    3.4600 N   0  0  0  0  0  0  0  0  0  0  0  0
    0.3970  -17.4280    2.9180 C   0  0  0  0  0  0  0  0  0  0  0  0
   -0.8450  -17.0260    3.4090 C   0  0  0  0  0  0  0  0  0  0  0  0
   -1.5210  -15.9570    2.8170 C   0  0  0  0  0  0  0  0  0  0  0  0
   -0.9600  -15.2800    1.7330 C   0  0  0  0  0  0  0  0  0  0  0  0
    0.2860  -15.6640    1.2220 C   0  0  0  0  0  0  0  0  0  0  0  0
    0.8600  -14.9530    0.0870 C   0  0  0  0  0  0  0  0  0  0  0  0
    0.4130  -14.8930   -1.2480 C   0  0  0  0  0  0  0  0  0  0  0  0
    1.1700  -14.1240   -2.0240 N   0  0  0  0  0  0  0  0  0  0  0  0
    2.1280  -13.6270   -1.1950 N   0  0  0  0  0  0  0  0  0  0  0  0
    3.1610  -12.7180   -1.5020 C   0  0  0  0  0  0  0  0  0  0  0  0
    3.3390  -12.1470   -2.8570 C   0  0  0  0  0  0  0  0  0  0  0  0
    2.8170  -10.8880   -3.1780 C   0  0  0  0  0  0  0  0  0  0  0  0
    2.9930  -10.3560   -4.4550 C   0  0  0  0  0  0  0  0  0  0  0  0
    3.6860  -11.0790   -5.4260 C   0  0  0  0  0  0  0  0  0  0  0  0
    4.2130  -12.3420   -5.1330 C   0  0  0  0  0  0  0  0  0  0  0  0
    4.8950  -13.0150   -6.1700 N   0  0  0  0  0  0  0  0  0  0  0  0
    6.1760  -13.5350   -6.1330 C   0  0  0  0  0  0  0  0  0  0  0  0
    6.9690  -13.4740   -5.2000 O   0  0  0  0  0  0  0  0  0  0  0  0
    6.6190  -14.2130   -7.3840 C   0  0  0  0  0  0  0  0  0  0  0  0
    7.0480  -15.5460   -7.3890 C   0  0  0  0  0  0  0  0  0  0  0  0
    7.4650  -16.1380   -8.5820 C   0  0  0  0  0  0  0  0  0  0  0  0
    7.4640  -15.4020   -9.7690 C   0  0  0  0  0  0  0  0  0  0  0  0
    7.0460  -14.0620   -9.7780 C   0  0  0  0  0  0  0  0  0  0  0  0
    7.0780  -13.2520  -11.0520 C   0  0  0  0  0  0  0  0  0  0  0  0
    6.2650  -13.7550  -12.0220 F   0  0  0  0  0  0  0  0  0  0  0  0
    6.6810  -11.9650  -10.8560 F   0  0  0  0  0  0  0  0  0  0  0  0
    8.3190  -13.1810  -11.6090 F   0  0  0  0  0  0  0  0  0  0  0  0
    6.6350  -13.4720   -8.5730 C   0  0  0  0  0  0  0  0  0  0  0  0
    4.0400  -12.8620   -3.8460 C   0  0  0  0  0  0  0  0  0  0  0  0
    4.0190  -12.3560   -0.5290 C   0  0  0  0  0  0  0  0  0  0  0  0
    3.7870  -12.9580    0.8050 C   0  0  0  0  0  0  0  0  0  0  0  0
    2.8510  -13.7990    1.1210 N   0  0  0  0  0  0  0  0  0  0  0  0
    1.9850  -14.1430    0.1100 C   0  0  0  0  0  0  0  0  0  0  0  0
    0.9490  -16.7470    1.8230 C   0  0  0  0  0  0  0  0  0  0  0  0
    1.6227  -20.9735    7.1769 H   0  0  0  0  0  0  0  0  0  0  0  0
    0.1622  -20.2383    6.4331 H   0  0  0  0  0  0  0  0  0  0  0  0
    0.3686  -22.0227    6.4331 H   0  0  0  0  0  0  0  0  0  0  0  0
    0.8990  -20.7690    4.3130 H   0  0  0  0  0  0  0  0  0  0  0  0
    2.5020  -22.8500    5.5384 H   0  0  0  0  0  0  0  0  0  0  0  0
    1.5094  -22.8582    4.0413 H   0  0  0  0  0  0  0  0  0  0  0  0
    3.1283  -22.0798    4.0413 H   0  0  0  0  0  0  0  0  0  0  0  0
    3.1138  -19.7035    5.9136 H   0  0  0  0  0  0  0  0  0  0  0  0
    3.2871  -19.9894    4.1412 H   0  0  0  0  0  0  0  0  0  0  0  0
    1.2220  -19.3040    2.8600 H   0  0  0  0  0  0  0  0  0  0  0  0
   -1.2932  -17.5523    4.2647 H   0  0  0  0  0  0  0  0  0  0  0  0
   -2.5015  -15.6467    3.2073 H   0  0  0  0  0  0  0  0  0  0  0  0
   -1.5010  -14.4380    1.2764 H   0  0  0  0  0  0  0  0  0  0  0  0
   -0.4753  -15.4299   -1.6122 H   0  0  0  0  0  0  0  0  0  0  0  0
    2.2648  -10.3152   -2.4184 H   0  0  0  0  0  0  0  0  0  0  0  0
    2.5844   -9.3638   -4.6972 H   0  0  0  0  0  0  0  0  0  0  0  0
    3.8195  -10.6526   -6.4312 H   0  0  0  0  0  0  0  0  0  0  0  0
    4.3880  -13.0930   -7.0420 H   0  0  0  0  0  0  0  0  0  0  0  0
    7.0563  -16.1256   -6.4541 H   0  0  0  0  0  0  0  0  0  0  0  0
    7.7954  -17.1872   -8.5875 H   0  0  0  0  0  0  0  0  0  0  0  0
    7.7937  -15.8766  -10.7050 H   0  0  0  0  0  0  0  0  0  0  0  0
    6.3223  -12.4174   -8.5618 H   0  0  0  0  0  0  0  0  0  0  0  0
    4.4600  -13.8490   -3.6022 H   0  0  0  0  0  0  0  0  0  0  0  0
    4.8450  -11.6535   -0.7140 H   0  0  0  0  0  0  0  0  0  0  0  0
    4.4779  -12.6621    1.6082 H   0  0  0  0  0  0  0  0  0  0  0  0
    1.9232  -17.0682    1.4258 H   0  0  0  0  0  0  0  0  0  0  0  0
  1  2  1  0
  2  3  1  0
  2  4  1  0
  4  5  1  0
  5  6  2  0
  5  7  1  0
  7  8  1  0
  8  9  2  0
  9 10  1  0
 10 11  2  0
 11 12  1  0
 12 13  1  0
 13 14  1  0
 14 15  2  0
 15 16  1  0
 16 17  1  0
 17 18  1  0
 18 19  2  0
 19 20  1  0
 20 21  2  0
 21 22  1  0
 22 23  1  0
 23 24  1  0
 24 25  2  0
 24 26  1  0
 26 27  2  0
 27 28  1  0
 28 29  2  0
 29 30  1  0
 30 31  1  0
 31 32  1  0
 31 33  1  0
 31 34  1  0
 30 35  2  0
 22 36  2  0
 17 37  2  0
 37 38  1  0
 38 39  2  0
 39 40  1  0
 12 41  2  0
 41  8  1  0
 40 13  2  0
 40 16  1  0
 36 18  1  0
 35 26  1  0
  1 42  1  0
  1 43  1  0
  1 44  1  0
  2 45  1  0
  3 46  1  0
  3 47  1  0
  3 48  1  0
  4 49  1  0
  4 50  1  0
  7 51  1  0
  9 52  1  0
 10 53  1  0
 11 54  1  0
 14 55  1  0
 19 56  1  0
 20 57  1  0
 21 58  1  0
 23 59  1  0
 27 60  1  0
 28 61  1  0
 29 62  1  0
 35 63  1  0
 36 64  1  0
 37 65  1  0
 38 66  1  0
 41 67  1  0
M  CHG  1   2   1
M  END
>  <meeko>  (6) 
{"is_sidechain": [false], "free_energy": -9.043, "intermolecular_energy": -12.714, "internal_energy": -1.328}

$$$$
LIB_FQOBSFOIGPCIHS__M_PUB_ALL__e8__s20260927
     RDKit          3D

 67 71  0  0  0  0  0  0  0  0999 V2000
    7.1470  -12.8450  -10.5140 C   0  0  0  0  0  0  0  0  0  0  0  0
    7.7950  -11.5080  -10.3610 N   0  0  0  0  0  0  0  0  0  0  0  0
    6.8120  -10.4130  -10.0690 C   0  0  0  0  0  0  0  0  0  0  0  0
    8.7420  -11.1590  -11.5100 C   0  0  0  0  0  0  0  0  0  0  0  0
    9.9920  -12.0440  -11.4620 C   0  0  0  0  0  0  0  0  0  0  0  0
   10.3010  -12.6620  -12.4800 O   0  0  0  0  0  0  0  0  0  0  0  0
   10.6390  -12.0410  -10.2450 N   0  0  0  0  0  0  0  0  0  0  0  0
   11.8170  -12.7440   -9.9050 C   0  0  0  0  0  0  0  0  0  0  0  0
   13.0610  -12.5210  -10.4930 C   0  0  0  0  0  0  0  0  0  0  0  0
   14.1740  -13.2560  -10.0810 C   0  0  0  0  0  0  0  0  0  0  0  0
   14.0540  -14.2170   -9.0760 C   0  0  0  0  0  0  0  0  0  0  0  0
   12.8150  -14.4610   -8.4700 C   0  0  0  0  0  0  0  0  0  0  0  0
   12.6990  -15.4700   -7.4260 C   0  0  0  0  0  0  0  0  0  0  0  0
   12.3890  -16.8400   -7.5390 C   0  0  0  0  0  0  0  0  0  0  0  0
   12.3910  -17.4800   -6.3730 N   0  0  0  0  0  0  0  0  0  0  0  0
   12.7410  -16.5360   -5.4580 N   0  0  0  0  0  0  0  0  0  0  0  0
   12.9360  -16.6960   -4.0710 C   0  0  0  0  0  0  0  0  0  0  0  0
   12.7780  -18.0040   -3.3930 C   0  0  0  0  0  0  0  0  0  0  0  0
   11.5540  -18.3720   -2.8230 C   0  0  0  0  0  0  0  0  0  0  0  0
   11.4130  -19.6070   -2.1900 C   0  0  0  0  0  0  0  0  0  0  0  0
   12.4950  -20.4840   -2.1160 C   0  0  0  0  0  0  0  0  0  0  0  0
   13.7310  -20.1370   -2.6730 C   0  0  0  0  0  0  0  0  0  0  0  0
   14.7800  -21.0740   -2.5510 N   0  0  0  0  0  0  0  0  0  0  0  0
   15.3550  -21.8270   -3.5580 C   0  0  0  0  0  0  0  0  0  0  0  0
   15.0320  -21.8440   -4.7410 O   0  0  0  0  0  0  0  0  0  0  0  0
   16.4660  -22.7210   -3.1240 C   0  0  0  0  0  0  0  0  0  0  0  0
   17.2490  -23.4270   -4.0460 C   0  0  0  0  0  0  0  0  0  0  0  0
   18.2720  -24.2620   -3.5940 C   0  0  0  0  0  0  0  0  0  0  0  0
   18.5120  -24.4010   -2.2260 C   0  0  0  0  0  0  0  0  0  0  0  0
   17.7300  -23.7070   -1.2890 C   0  0  0  0  0  0  0  0  0  0  0  0
   17.9620  -23.8820    0.1930 C   0  0  0  0  0  0  0  0  0  0  0  0
   17.6230  -22.7800    0.9170 F   0  0  0  0  0  0  0  0  0  0  0  0
   17.2400  -24.9120    0.7110 F   0  0  0  0  0  0  0  0  0  0  0  0
   19.2630  -24.1430    0.5030 F   0  0  0  0  0  0  0  0  0  0  0  0
   16.6990  -22.8750   -1.7510 C   0  0  0  0  0  0  0  0  0  0  0  0
   13.8590  -18.9000   -3.3140 C   0  0  0  0  0  0  0  0  0  0  0  0
   13.2760  -15.6220   -3.3340 C   0  0  0  0  0  0  0  0  0  0  0  0
   13.4210  -14.3440   -4.0690 C   0  0  0  0  0  0  0  0  0  0  0  0
   13.2460  -14.1590   -5.3410 N   0  0  0  0  0  0  0  0  0  0  0  0
   12.9090  -15.2760   -6.0700 C   0  0  0  0  0  0  0  0  0  0  0  0
   11.7030  -13.7190   -8.9020 C   0  0  0  0  0  0  0  0  0  0  0  0
    6.9416  -13.2688   -9.5199 H   0  0  0  0  0  0  0  0  0  0  0  0
    6.2029  -12.7337  -11.0674 H   0  0  0  0  0  0  0  0  0  0  0  0
    7.8193  -13.5171  -11.0674 H   0  0  0  0  0  0  0  0  0  0  0  0
    8.4170  -11.5450   -9.5320 H   0  0  0  0  0  0  0  0  0  0  0  0
    6.7066  -10.2956   -8.9804 H   0  0  0  0  0  0  0  0  0  0  0  0
    7.1727   -9.4703  -10.5063 H   0  0  0  0  0  0  0  0  0  0  0  0
    5.8360  -10.6702  -10.5063 H   0  0  0  0  0  0  0  0  0  0  0  0
    8.2234  -11.3164  -12.4672 H   0  0  0  0  0  0  0  0  0  0  0  0
    9.0469  -10.1066  -11.4129 H   0  0  0  0  0  0  0  0  0  0  0  0
   10.2650  -11.4700   -9.4930 H   0  0  0  0  0  0  0  0  0  0  0  0
   13.1660  -11.7637  -11.2839 H   0  0  0  0  0  0  0  0  0  0  0  0
   15.1520  -13.0766  -10.5515 H   0  0  0  0  0  0  0  0  0  0  0  0
   14.9392  -14.7871   -8.7574 H   0  0  0  0  0  0  0  0  0  0  0  0
   12.1671  -17.3319   -8.4975 H   0  0  0  0  0  0  0  0  0  0  0  0
   10.6979  -17.6832   -2.8745 H   0  0  0  0  0  0  0  0  0  0  0  0
   10.4462  -19.8899   -1.7481 H   0  0  0  0  0  0  0  0  0  0  0  0
   12.3758  -21.4564   -1.6157 H   0  0  0  0  0  0  0  0  0  0  0  0
   15.1210  -21.2220   -1.6100 H   0  0  0  0  0  0  0  0  0  0  0  0
   17.0581  -23.3236   -5.1244 H   0  0  0  0  0  0  0  0  0  0  0  0
   18.8910  -24.8122   -4.3180 H   0  0  0  0  0  0  0  0  0  0  0  0
   19.3212  -25.0603   -1.8789 H   0  0  0  0  0  0  0  0  0  0  0  0
   16.0673  -22.3382   -1.0280 H   0  0  0  0  0  0  0  0  0  0  0  0
   14.8235  -18.6231   -3.7647 H   0  0  0  0  0  0  0  0  0  0  0  0
   13.4370  -15.6895   -2.2479 H   0  0  0  0  0  0  0  0  0  0  0  0
   13.7060  -13.4624   -3.4760 H   0  0  0  0  0  0  0  0  0  0  0  0
   10.7207  -13.9065   -8.4437 H   0  0  0  0  0  0  0  0  0  0  0  0
  1  2  1  0
  2  3  1  0
  2  4  1  0
  4  5  1  0
  5  6  2  0
  5  7  1  0
  7  8  1  0
  8  9  2  0
  9 10  1  0
 10 11  2  0
 11 12  1  0
 12 13  1  0
 13 14  1  0
 14 15  2  0
 15 16  1  0
 16 17  1  0
 17 18  1  0
 18 19  2  0
 19 20  1  0
 20 21  2  0
 21 22  1  0
 22 23  1  0
 23 24  1  0
 24 25  2  0
 24 26  1  0
 26 27  2  0
 27 28  1  0
 28 29  2  0
 29 30  1  0
 30 31  1  0
 31 32  1  0
 31 33  1  0
 31 34  1  0
 30 35  2  0
 22 36  2  0
 17 37  2  0
 37 38  1  0
 38 39  2  0
 39 40  1  0
 12 41  2  0
 41  8  1  0
 40 13  2  0
 40 16  1  0
 36 18  1  0
 35 26  1  0
  1 42  1  0
  1 43  1  0
  1 44  1  0
  2 45  1  0
  3 46  1  0
  3 47  1  0
  3 48  1  0
  4 49  1  0
  4 50  1  0
  7 51  1  0
  9 52  1  0
 10 53  1  0
 11 54  1  0
 14 55  1  0
 19 56  1  0
 20 57  1  0
 21 58  1  0
 23 59  1  0
 27 60  1  0
 28 61  1  0
 29 62  1  0
 35 63  1  0
 36 64  1  0
 37 65  1  0
 38 66  1  0
 41 67  1  0
M  CHG  1   2   1
M  END
>  <meeko>  (7) 
{"is_sidechain": [false], "free_energy": -8.984, "intermolecular_energy": -12.495, "internal_energy": -1.46}

$$$$
LIB_FQOBSFOIGPCIHS__M_PUB_ALL__e8__s20260927
     RDKit          3D

 67 71  0  0  0  0  0  0  0  0999 V2000
   -3.5850  -15.4110    3.5450 C   0  0  0  0  0  0  0  0  0  0  0  0
   -3.7380  -16.7370    4.2150 N   0  0  0  0  0  0  0  0  0  0  0  0
   -4.9720  -16.8230    5.0650 C   0  0  0  0  0  0  0  0  0  0  0  0
   -2.4790  -17.1900    4.9570 C   0  0  0  0  0  0  0  0  0  0  0  0
   -1.4300  -17.7060    3.9660 C   0  0  0  0  0  0  0  0  0  0  0  0
   -1.7830  -18.5450    3.1370 O   0  0  0  0  0  0  0  0  0  0  0  0
   -0.1790  -17.1510    4.1280 N   0  0  0  0  0  0  0  0  0  0  0  0
    0.9770  -17.4190    3.3600 C   0  0  0  0  0  0  0  0  0  0  0  0
    1.8360  -18.4930    3.5860 C   0  0  0  0  0  0  0  0  0  0  0  0
    2.9480  -18.6870    2.7630 C   0  0  0  0  0  0  0  0  0  0  0  0
    3.2080  -17.8110    1.7090 C   0  0  0  0  0  0  0  0  0  0  0  0
    2.3600  -16.7240    1.4620 C   0  0  0  0  0  0  0  0  0  0  0  0
    2.6430  -15.8130    0.3610 C   0  0  0  0  0  0  0  0  0  0  0  0
    3.8240  -15.1000    0.0720 C   0  0  0  0  0  0  0  0  0  0  0  0
    3.7440  -14.3710   -1.0360 N   0  0  0  0  0  0  0  0  0  0  0  0
    2.4990  -14.6190   -1.5270 N   0  0  0  0  0  0  0  0  0  0  0  0
    1.9180  -14.1300   -2.7150 C   0  0  0  0  0  0  0  0  0  0  0  0
    2.6420  -13.2310   -3.6420 C   0  0  0  0  0  0  0  0  0  0  0  0
    2.5480  -11.8400   -3.5110 C   0  0  0  0  0  0  0  0  0  0  0  0
    3.2370  -11.0000   -4.3850 C   0  0  0  0  0  0  0  0  0  0  0  0
    4.0220  -11.5410   -5.4040 C   0  0  0  0  0  0  0  0  0  0  0  0
    4.1280  -12.9280   -5.5600 C   0  0  0  0  0  0  0  0  0  0  0  0
    4.9350  -13.3990   -6.6190 N   0  0  0  0  0  0  0  0  0  0  0  0
    6.2130  -13.9190   -6.5320 C   0  0  0  0  0  0  0  0  0  0  0  0
    6.8950  -14.0340   -5.5200 O   0  0  0  0  0  0  0  0  0  0  0  0
    6.8070  -14.3560   -7.8280 C   0  0  0  0  0  0  0  0  0  0  0  0
    7.2420  -15.6710   -8.0360 C   0  0  0  0  0  0  0  0  0  0  0  0
    7.8030  -16.0330   -9.2610 C   0  0  0  0  0  0  0  0  0  0  0  0
    7.9380  -15.0860  -10.2780 C   0  0  0  0  0  0  0  0  0  0  0  0
    7.5160  -13.7610  -10.0830 C   0  0  0  0  0  0  0  0  0  0  0  0
    7.6940  -12.7250  -11.1670 C   0  0  0  0  0  0  0  0  0  0  0  0
    6.6790  -11.8180  -11.2060 F   0  0  0  0  0  0  0  0  0  0  0  0
    8.8390  -12.0050  -11.0100 F   0  0  0  0  0  0  0  0  0  0  0  0
    7.7580  -13.2640  -12.4160 F   0  0  0  0  0  0  0  0  0  0  0  0
    6.9600  -13.4030   -8.8450 C   0  0  0  0  0  0  0  0  0  0  0  0
    3.4410  -13.7620   -4.6720 C   0  0  0  0  0  0  0  0  0  0  0  0
    0.6570  -14.4940   -3.0180 C   0  0  0  0  0  0  0  0  0  0  0  0
   -0.0130  -15.3970   -2.0530 C   0  0  0  0  0  0  0  0  0  0  0  0
    0.4890  -15.8610   -0.9510 N   0  0  0  0  0  0  0  0  0  0  0  0
    1.7810  -15.4820   -0.6730 C   0  0  0  0  0  0  0  0  0  0  0  0
    1.2510  -16.5380    2.3030 C   0  0  0  0  0  0  0  0  0  0  0  0
   -3.4941  -14.6233    4.3074 H   0  0  0  0  0  0  0  0  0  0  0  0
   -2.6819  -15.4195    2.9171 H   0  0  0  0  0  0  0  0  0  0  0  0
   -4.4663  -15.2136    2.9171 H   0  0  0  0  0  0  0  0  0  0  0  0
   -3.8620  -17.4570    3.4790 H   0  0  0  0  0  0  0  0  0  0  0  0
   -4.6875  -16.8032    6.1274 H   0  0  0  0  0  0  0  0  0  0  0  0
   -5.6289  -15.9685    4.8453 H   0  0  0  0  0  0  0  0  0  0  0  0
   -5.5040  -17.7604    4.8453 H   0  0  0  0  0  0  0  0  0  0  0  0
   -2.0619  -16.3392    5.5157 H   0  0  0  0  0  0  0  0  0  0  0  0
   -2.7460  -18.0027    5.6486 H   0  0  0  0  0  0  0  0  0  0  0  0
   -0.0410  -16.4590    4.8590 H   0  0  0  0  0  0  0  0  0  0  0  0
    1.6379  -19.1894    4.4142 H   0  0  0  0  0  0  0  0  0  0  0  0
    3.6229  -19.5359    2.9473 H   0  0  0  0  0  0  0  0  0  0  0  0
    4.0859  -17.9752    1.0668 H   0  0  0  0  0  0  0  0  0  0  0  0
    4.7244  -15.1429    0.7024 H   0  0  0  0  0  0  0  0  0  0  0  0
    1.9265  -11.4071   -2.7133 H   0  0  0  0  0  0  0  0  0  0  0  0
    3.1616   -9.9085   -4.2710 H   0  0  0  0  0  0  0  0  0  0  0  0
    4.5619  -10.8720   -6.0903 H   0  0  0  0  0  0  0  0  0  0  0  0
    4.5310  -13.3140   -7.5420 H   0  0  0  0  0  0  0  0  0  0  0  0
    7.1414  -16.4175   -7.2344 H   0  0  0  0  0  0  0  0  0  0  0  0
    8.1398  -17.0671   -9.4260 H   0  0  0  0  0  0  0  0  0  0  0  0
    8.3793  -15.3808  -11.2415 H   0  0  0  0  0  0  0  0  0  0  0  0
    6.6412  -12.3647   -8.6709 H   0  0  0  0  0  0  0  0  0  0  0  0
    3.5267  -14.8533   -4.7805 H   0  0  0  0  0  0  0  0  0  0  0  0
    0.1533  -14.1410   -3.9299 H   0  0  0  0  0  0  0  0  0  0  0  0
   -1.0406  -15.7051   -2.2961 H   0  0  0  0  0  0  0  0  0  0  0  0
    0.5820  -15.6823    2.1292 H   0  0  0  0  0  0  0  0  0  0  0  0
  1  2  1  0
  2  3  1  0
  2  4  1  0
  4  5  1  0
  5  6  2  0
  5  7  1  0
  7  8  1  0
  8  9  2  0
  9 10  1  0
 10 11  2  0
 11 12  1  0
 12 13  1  0
 13 14  1  0
 14 15  2  0
 15 16  1  0
 16 17  1  0
 17 18  1  0
 18 19  2  0
 19 20  1  0
 20 21  2  0
 21 22  1  0
 22 23  1  0
 23 24  1  0
 24 25  2  0
 24 26  1  0
 26 27  2  0
 27 28  1  0
 28 29  2  0
 29 30  1  0
 30 31  1  0
 31 32  1  0
 31 33  1  0
 31 34  1  0
 30 35  2  0
 22 36  2  0
 17 37  2  0
 37 38  1  0
 38 39  2  0
 39 40  1  0
 12 41  2  0
 41  8  1  0
 40 13  2  0
 40 16  1  0
 36 18  1  0
 35 26  1  0
  1 42  1  0
  1 43  1  0
  1 44  1  0
  2 45  1  0
  3 46  1  0
  3 47  1  0
  3 48  1  0
  4 49  1  0
  4 50  1  0
  7 51  1  0
  9 52  1  0
 10 53  1  0
 11 54  1  0
 14 55  1  0
 19 56  1  0
 20 57  1  0
 21 58  1  0
 23 59  1  0
 27 60  1  0
 28 61  1  0
 29 62  1  0
 35 63  1  0
 36 64  1  0
 37 65  1  0
 38 66  1  0
 41 67  1  0
M  CHG  1   2   1
M  END
>  <meeko>  (8) 
{"is_sidechain": [false], "free_energy": -8.921, "intermolecular_energy": -12.425, "internal_energy": -1.438}

$$$$
LIB_FQOBSFOIGPCIHS__M_PUB_ALL__e8__s20260927
     RDKit          3D

 67 71  0  0  0  0  0  0  0  0999 V2000
   12.1820  -14.7680   -9.7780 C   0  0  0  0  0  0  0  0  0  0  0  0
   13.3990  -14.0310   -9.3260 N   0  0  0  0  0  0  0  0  0  0  0  0
   14.0820  -13.2930  -10.4390 C   0  0  0  0  0  0  0  0  0  0  0  0
   14.3650  -14.8970   -8.5140 C   0  0  0  0  0  0  0  0  0  0  0  0
   13.7470  -15.2630   -7.1610 C   0  0  0  0  0  0  0  0  0  0  0  0
   13.6310  -16.4570   -6.8830 O   0  0  0  0  0  0  0  0  0  0  0  0
   13.3830  -14.1770   -6.3950 N   0  0  0  0  0  0  0  0  0  0  0  0
   12.8050  -14.2000   -5.1050 C   0  0  0  0  0  0  0  0  0  0  0  0
   13.4630  -14.6410   -3.9580 C   0  0  0  0  0  0  0  0  0  0  0  0
   12.8150  -14.6130   -2.7210 C   0  0  0  0  0  0  0  0  0  0  0  0
   11.5050  -14.1410   -2.6210 C   0  0  0  0  0  0  0  0  0  0  0  0
   10.8220  -13.6930   -3.7590 C   0  0  0  0  0  0  0  0  0  0  0  0
    9.4530  -13.2070   -3.6430 C   0  0  0  0  0  0  0  0  0  0  0  0
    8.9850  -11.9520   -3.2060 C   0  0  0  0  0  0  0  0  0  0  0  0
    7.6610  -11.8370   -3.2500 N   0  0  0  0  0  0  0  0  0  0  0  0
    7.2250  -13.0220   -3.7580 N   0  0  0  0  0  0  0  0  0  0  0  0
    5.9020  -13.4100   -4.0530 C   0  0  0  0  0  0  0  0  0  0  0  0
    4.7450  -12.5110   -3.8390 C   0  0  0  0  0  0  0  0  0  0  0  0
    4.3940  -11.5540   -4.7990 C   0  0  0  0  0  0  0  0  0  0  0  0
    3.3010  -10.7140   -4.5920 C   0  0  0  0  0  0  0  0  0  0  0  0
    2.5500  -10.8180   -3.4210 C   0  0  0  0  0  0  0  0  0  0  0  0
    2.8820  -11.7620   -2.4440 C   0  0  0  0  0  0  0  0  0  0  0  0
    2.0790  -11.8010   -1.2830 N   0  0  0  0  0  0  0  0  0  0  0  0
    1.2930  -12.8490   -0.8410 C   0  0  0  0  0  0  0  0  0  0  0  0
    1.1220  -13.9270   -1.3980 O   0  0  0  0  0  0  0  0  0  0  0  0
    0.5710  -12.6010    0.4400 C   0  0  0  0  0  0  0  0  0  0  0  0
    0.5900  -13.5280    1.4900 C   0  0  0  0  0  0  0  0  0  0  0  0
   -0.1100  -13.2600    2.6670 C   0  0  0  0  0  0  0  0  0  0  0  0
   -0.8360  -12.0740    2.7970 C   0  0  0  0  0  0  0  0  0  0  0  0
   -0.8730  -11.1390    1.7510 C   0  0  0  0  0  0  0  0  0  0  0  0
   -1.6860   -9.8720    1.8730 C   0  0  0  0  0  0  0  0  0  0  0  0
   -2.7000   -9.9780    2.7760 F   0  0  0  0  0  0  0  0  0  0  0  0
   -0.9330   -8.8120    2.2730 F   0  0  0  0  0  0  0  0  0  0  0  0
   -2.2700   -9.4980    0.7010 F   0  0  0  0  0  0  0  0  0  0  0  0
   -0.1720  -11.4200    0.5670 C   0  0  0  0  0  0  0  0  0  0  0  0
    3.9760  -12.6060   -2.6650 C   0  0  0  0  0  0  0  0  0  0  0  0
    5.6820  -14.6430   -4.5470 C   0  0  0  0  0  0  0  0  0  0  0  0
    6.8800  -15.4940   -4.7410 C   0  0  0  0  0  0  0  0  0  0  0  0
    8.1080  -15.1710   -4.4760 N   0  0  0  0  0  0  0  0  0  0  0  0
    8.3040  -13.9030   -3.9830 C   0  0  0  0  0  0  0  0  0  0  0  0
   11.4850  -13.7360   -4.9960 C   0  0  0  0  0  0  0  0  0  0  0  0
   11.6145  -15.1117   -8.9006 H   0  0  0  0  0  0  0  0  0  0  0  0
   11.5521  -14.0994  -10.3832 H   0  0  0  0  0  0  0  0  0  0  0  0
   12.4826  -15.6359  -10.3832 H   0  0  0  0  0  0  0  0  0  0  0  0
   13.1020  -13.2990   -8.6540 H   0  0  0  0  0  0  0  0  0  0  0  0
   14.7717  -12.5478  -10.0158 H   0  0  0  0  0  0  0  0  0  0  0  0
   14.6468  -14.0050  -11.0587 H   0  0  0  0  0  0  0  0  0  0  0  0
   13.3284  -12.7849  -11.0587 H   0  0  0  0  0  0  0  0  0  0  0  0
   14.5834  -15.8184   -9.0737 H   0  0  0  0  0  0  0  0  0  0  0  0
   15.2920  -14.3307   -8.3409 H   0  0  0  0  0  0  0  0  0  0  0  0
   13.5470  -13.2430   -6.7580 H   0  0  0  0  0  0  0  0  0  0  0  0
   14.4961  -15.0123   -4.0273 H   0  0  0  0  0  0  0  0  0  0  0  0
   13.3398  -14.9648   -1.8206 H   0  0  0  0  0  0  0  0  0  0  0  0
   11.0054  -14.1207   -1.6412 H   0  0  0  0  0  0  0  0  0  0  0  0
    9.6499  -11.1460   -2.8620 H   0  0  0  0  0  0  0  0  0  0  0  0
    4.9847  -11.4645   -5.7226 H   0  0  0  0  0  0  0  0  0  0  0  0
    3.0302   -9.9677   -5.3534 H   0  0  0  0  0  0  0  0  0  0  0  0
    1.6890  -10.1515   -3.2647 H   0  0  0  0  0  0  0  0  0  0  0  0
    2.0650  -10.9490   -0.7380 H   0  0  0  0  0  0  0  0  0  0  0  0
    1.1558  -14.4657    1.3869 H   0  0  0  0  0  0  0  0  0  0  0  0
   -0.0900  -13.9846    3.4944 H   0  0  0  0  0  0  0  0  0  0  0  0
   -1.3844  -11.8707    3.7286 H   0  0  0  0  0  0  0  0  0  0  0  0
   -0.2066  -10.7058   -0.2689 H   0  0  0  0  0  0  0  0  0  0  0  0
    4.2396  -13.3578   -1.9065 H   0  0  0  0  0  0  0  0  0  0  0  0
    4.6705  -14.9987   -4.7927 H   0  0  0  0  0  0  0  0  0  0  0  0
    6.7107  -16.5006   -5.1509 H   0  0  0  0  0  0  0  0  0  0  0  0
   10.9577  -13.3983   -5.9004 H   0  0  0  0  0  0  0  0  0  0  0  0
  1  2  1  0
  2  3  1  0
  2  4  1  0
  4  5  1  0
  5  6  2  0
  5  7  1  0
  7  8  1  0
  8  9  2  0
  9 10  1  0
 10 11  2  0
 11 12  1  0
 12 13  1  0
 13 14  1  0
 14 15  2  0
 15 16  1  0
 16 17  1  0
 17 18  1  0
 18 19  2  0
 19 20  1  0
 20 21  2  0
 21 22  1  0
 22 23  1  0
 23 24  1  0
 24 25  2  0
 24 26  1  0
 26 27  2  0
 27 28  1  0
 28 29  2  0
 29 30  1  0
 30 31  1  0
 31 32  1  0
 31 33  1  0
 31 34  1  0
 30 35  2  0
 22 36  2  0
 17 37  2  0
 37 38  1  0
 38 39  2  0
 39 40  1  0
 12 41  2  0
 41  8  1  0
 40 13  2  0
 40 16  1  0
 36 18  1  0
 35 26  1  0
  1 42  1  0
  1 43  1  0
  1 44  1  0
  2 45  1  0
  3 46  1  0
  3 47  1  0
  3 48  1  0
  4 49  1  0
  4 50  1  0
  7 51  1  0
  9 52  1  0
 10 53  1  0
 11 54  1  0
 14 55  1  0
 19 56  1  0
 20 57  1  0
 21 58  1  0
 23 59  1  0
 27 60  1  0
 28 61  1  0
 29 62  1  0
 35 63  1  0
 36 64  1  0
 37 65  1  0
 38 66  1  0
 41 67  1  0
M  CHG  1   2   1
M  END
>  <meeko>  (9) 
{"is_sidechain": [false], "free_energy": -8.859, "intermolecular_energy": -12.347, "internal_energy": -1.425}

$$$$
