LIB_SOWMPGHFKGHWIR__M_PUB_ALL__e8__s20260927
     RDKit          3D

 66 70  0  0  0  0  0  0  0  0999 V2000
    7.8830  -11.3610   -2.7340 O   0  0  0  0  0  0  0  0  0  0  0  0
    7.3340  -12.0390   -1.8720 C   0  0  0  0  0  0  0  0  0  0  0  0
    7.9530  -12.8240   -0.9150 N   0  0  0  0  0  0  0  0  0  0  0  0
    9.3360  -13.0540   -0.7610 C   0  0  0  0  0  0  0  0  0  0  0  0
    9.9710  -12.4500    0.3300 C   0  0  0  0  0  0  0  0  0  0  0  0
   11.3370  -12.6370    0.5490 C   0  0  0  0  0  0  0  0  0  0  0  0
   12.0840  -13.4310   -0.3190 C   0  0  0  0  0  0  0  0  0  0  0  0
   11.4720  -14.0460   -1.4180 C   0  0  0  0  0  0  0  0  0  0  0  0
   12.2490  -14.8910   -2.3480 C   0  0  0  0  0  0  0  0  0  0  0  0
   12.5110  -16.1660   -2.0020 C   0  0  0  0  0  0  0  0  0  0  0  0
   13.2670  -16.9760   -2.9890 C   0  0  0  0  0  0  0  0  0  0  0  0
   13.7010  -16.5810   -4.1500 N   0  0  0  0  0  0  0  0  0  0  0  0
   13.4480  -15.2610   -4.4480 C   0  0  0  0  0  0  0  0  0  0  0  0
   13.7940  -14.4790   -5.5290 C   0  0  0  0  0  0  0  0  0  0  0  0
   14.5460  -14.9180   -6.6500 C   0  0  0  0  0  0  0  0  0  0  0  0
   15.1720  -15.4130   -7.5470 C   0  0  0  0  0  0  0  0  0  0  0  0
   15.7730  -16.0080   -8.7410 C   0  0  0  0  0  0  0  0  0  0  0  0
   15.8190  -15.0270   -9.9150 C   0  0  0  0  0  0  0  0  0  0  0  0
   14.5440  -14.2310  -10.2210 C   0  0  0  0  0  0  0  0  0  0  0  0
   14.7760  -12.9510  -10.9830 N   0  0  0  0  0  0  0  0  0  0  0  0
   14.1920  -11.6880  -10.3700 C   0  0  0  0  0  0  0  0  0  0  0  0
   12.6760  -11.6310  -10.5840 C   0  0  0  0  0  0  0  0  0  0  0  0
   12.3490  -11.7110  -11.9770 O   0  0  0  0  0  0  0  0  0  0  0  0
   12.8150  -12.9310  -12.5660 C   0  0  0  0  0  0  0  0  0  0  0  0
   14.3380  -13.0540  -12.4460 C   0  0  0  0  0  0  0  0  0  0  0  0
   13.2530  -13.2150   -5.2770 C   0  0  0  0  0  0  0  0  0  0  0  0
   12.5990  -13.1640   -4.1170 N   0  0  0  0  0  0  0  0  0  0  0  0
   12.7290  -14.4110   -3.5820 N   0  0  0  0  0  0  0  0  0  0  0  0
   10.0950  -13.8460   -1.6280 C   0  0  0  0  0  0  0  0  0  0  0  0
    5.8450  -12.0110   -1.8020 C   0  0  0  0  0  0  0  0  0  0  0  0
    5.1450  -12.5520   -0.7170 C   0  0  0  0  0  0  0  0  0  0  0  0
    3.7500  -12.5150   -0.6990 C   0  0  0  0  0  0  0  0  0  0  0  0
    3.0500  -11.9480   -1.7650 C   0  0  0  0  0  0  0  0  0  0  0  0
    3.7350  -11.4110   -2.8660 C   0  0  0  0  0  0  0  0  0  0  0  0
    2.9820  -10.8280   -4.0390 C   0  0  0  0  0  0  0  0  0  0  0  0
    3.8140  -10.4290   -5.0390 F   0  0  0  0  0  0  0  0  0  0  0  0
    2.1080  -11.7070   -4.6030 F   0  0  0  0  0  0  0  0  0  0  0  0
    2.2450   -9.7340   -3.7020 F   0  0  0  0  0  0  0  0  0  0  0  0
    5.1380  -11.4590   -2.8790 C   0  0  0  0  0  0  0  0  0  0  0  0
    7.3580  -13.2610   -0.2210 H   0  0  0  0  0  0  0  0  0  0  0  0
    9.3888  -11.8225    1.0209 H   0  0  0  0  0  0  0  0  0  0  0  0
   11.8252  -12.1561    1.4094 H   0  0  0  0  0  0  0  0  0  0  0  0
   13.1597  -13.5753   -0.1399 H   0  0  0  0  0  0  0  0  0  0  0  0
   12.1822  -16.5844   -1.0393 H   0  0  0  0  0  0  0  0  0  0  0  0
   13.4827  -18.0180   -2.7102 H   0  0  0  0  0  0  0  0  0  0  0  0
   16.7996  -16.3225   -8.5017 H   0  0  0  0  0  0  0  0  0  0  0  0
   15.1515  -16.8647   -9.0408 H   0  0  0  0  0  0  0  0  0  0  0  0
   16.6190  -14.3012   -9.7072 H   0  0  0  0  0  0  0  0  0  0  0  0
   15.9761  -15.6579  -10.8023 H   0  0  0  0  0  0  0  0  0  0  0  0
   13.8747  -14.8693  -10.8165 H   0  0  0  0  0  0  0  0  0  0  0  0
   14.1126  -13.9445   -9.2505 H   0  0  0  0  0  0  0  0  0  0  0  0
   15.7980  -12.8190  -11.0510 H   0  0  0  0  0  0  0  0  0  0  0  0
   14.4046  -11.6792   -9.2908 H   0  0  0  0  0  0  0  0  0  0  0  0
   14.6503  -10.8148  -10.8573 H   0  0  0  0  0  0  0  0  0  0  0  0
   12.2065  -12.4738  -10.0556 H   0  0  0  0  0  0  0  0  0  0  0  0
   12.3032  -10.6733  -10.1917 H   0  0  0  0  0  0  0  0  0  0  0  0
   12.3440  -13.7815  -12.0513 H   0  0  0  0  0  0  0  0  0  0  0  0
   12.5472  -12.9290  -13.6329 H   0  0  0  0  0  0  0  0  0  0  0  0
   14.6545  -14.0269  -12.8500 H   0  0  0  0  0  0  0  0  0  0  0  0
   14.8045  -12.2350  -13.0131 H   0  0  0  0  0  0  0  0  0  0  0  0
   13.3556  -12.3585   -5.9596 H   0  0  0  0  0  0  0  0  0  0  0  0
    9.6063  -14.3219   -2.4909 H   0  0  0  0  0  0  0  0  0  0  0  0
    5.6943  -13.0060    0.1210 H   0  0  0  0  0  0  0  0  0  0  0  0
    3.2009  -12.9337    0.1573 H   0  0  0  0  0  0  0  0  0  0  0  0
    1.9506  -11.9217   -1.7420 H   0  0  0  0  0  0  0  0  0  0  0  0
    5.6882  -11.0592   -3.7435 H   0  0  0  0  0  0  0  0  0  0  0  0
  1  2  2  0
  2  3  1  0
  3  4  1  0
  4  5  2  0
  5  6  1  0
  6  7  2  0
  7  8  1  0
  8  9  1  0
  9 10  2  0
 10 11  1  0
 11 12  2  0
 12 13  1  0
 13 14  2  0
 14 15  1  0
 15 16  3  0
 16 17  1  0
 17 18  1  0
 18 19  1  0
 19 20  1  0
 20 21  1  0
 21 22  1  0
 22 23  1  0
 23 24  1  0
 24 25  1  0
 14 26  1  0
 26 27  2  0
 27 28  1  0
  8 29  2  0
  2 30  1  0
 30 31  2  0
 31 32  1  0
 32 33  2  0
 33 34  1  0
 34 35  1  0
 35 36  1  0
 35 37  1  0
 35 38  1  0
 34 39  2  0
 29  4  1  0
 39 30  1  0
 28  9  1  0
 28 13  1  0
 25 20  1  0
  3 40  1  0
  5 41  1  0
  6 42  1  0
  7 43  1  0
 10 44  1  0
 11 45  1  0
 17 46  1  0
 17 47  1  0
 18 48  1  0
 18 49  1  0
 19 50  1  0
 19 51  1  0
 20 52  1  0
 21 53  1  0
 21 54  1  0
 22 55  1  0
 22 56  1  0
 24 57  1  0
 24 58  1  0
 25 59  1  0
 25 60  1  0
 26 61  1  0
 29 62  1  0
 31 63  1  0
 32 64  1  0
 33 65  1  0
 39 66  1  0
M  CHG  1  20   1
M  END
>  <meeko>  (1) 
{"is_sidechain": [false], "free_energy": -8.951, "intermolecular_energy": -13.137, "internal_energy": -1.166}

$$$$
LIB_SOWMPGHFKGHWIR__M_PUB_ALL__e8__s20260927
     RDKit          3D

 66 70  0  0  0  0  0  0  0  0999 V2000
    9.8220  -14.5910   -2.7110 O   0  0  0  0  0  0  0  0  0  0  0  0
    9.9770  -13.4540   -3.1440 C   0  0  0  0  0  0  0  0  0  0  0  0
    9.0210  -12.6580   -3.7490 N   0  0  0  0  0  0  0  0  0  0  0  0
    7.6840  -13.0010   -4.0450 C   0  0  0  0  0  0  0  0  0  0  0  0
    7.4730  -14.1160   -4.8630 C   0  0  0  0  0  0  0  0  0  0  0  0
    6.1770  -14.5180   -5.1950 C   0  0  0  0  0  0  0  0  0  0  0  0
    5.0780  -13.8100   -4.7100 C   0  0  0  0  0  0  0  0  0  0  0  0
    5.2650  -12.6910   -3.8890 C   0  0  0  0  0  0  0  0  0  0  0  0
    4.1100  -11.9300   -3.3670 C   0  0  0  0  0  0  0  0  0  0  0  0
    3.5390  -10.9970   -4.1530 C   0  0  0  0  0  0  0  0  0  0  0  0
    2.3650  -10.2880   -3.5880 C   0  0  0  0  0  0  0  0  0  0  0  0
    1.8330  -10.4750   -2.4160 N   0  0  0  0  0  0  0  0  0  0  0  0
    2.4700  -11.4070   -1.6290 C   0  0  0  0  0  0  0  0  0  0  0  0
    2.2450  -11.8280   -0.3360 C   0  0  0  0  0  0  0  0  0  0  0  0
    1.2220  -11.3410    0.5180 C   0  0  0  0  0  0  0  0  0  0  0  0
    0.3080  -10.8630    1.1320 C   0  0  0  0  0  0  0  0  0  0  0  0
   -0.9130  -10.4120    1.8000 C   0  0  0  0  0  0  0  0  0  0  0  0
   -1.4620  -11.4610    2.7700 C   0  0  0  0  0  0  0  0  0  0  0  0
   -1.3440  -12.9340    2.3590 C   0  0  0  0  0  0  0  0  0  0  0  0
   -2.6480  -13.6920    2.3750 N   0  0  0  0  0  0  0  0  0  0  0  0
   -2.5720  -15.1680    2.0170 C   0  0  0  0  0  0  0  0  0  0  0  0
   -2.3960  -15.3520    0.5060 C   0  0  0  0  0  0  0  0  0  0  0  0
   -3.4540  -14.7130   -0.2180 O   0  0  0  0  0  0  0  0  0  0  0  0
   -3.4990  -13.3030    0.0350 C   0  0  0  0  0  0  0  0  0  0  0  0
   -3.7270  -13.0180    1.5240 C   0  0  0  0  0  0  0  0  0  0  0  0
    3.2140  -12.8030   -0.0770 C   0  0  0  0  0  0  0  0  0  0  0  0
    4.0170  -13.0110   -1.1190 N   0  0  0  0  0  0  0  0  0  0  0  0
    3.5880  -12.1420   -2.0770 N   0  0  0  0  0  0  0  0  0  0  0  0
    6.5760  -12.2960   -3.5670 C   0  0  0  0  0  0  0  0  0  0  0  0
   11.3200  -12.8240   -2.9900 C   0  0  0  0  0  0  0  0  0  0  0  0
   12.2710  -12.8490   -4.0170 C   0  0  0  0  0  0  0  0  0  0  0  0
   13.5200  -12.2560   -3.8240 C   0  0  0  0  0  0  0  0  0  0  0  0
   13.8270  -11.6460   -2.6070 C   0  0  0  0  0  0  0  0  0  0  0  0
   12.8890  -11.6210   -1.5630 C   0  0  0  0  0  0  0  0  0  0  0  0
   13.2280  -10.9950   -0.2310 C   0  0  0  0  0  0  0  0  0  0  0  0
   12.3230  -10.0480    0.1390 F   0  0  0  0  0  0  0  0  0  0  0  0
   13.2700  -11.8950    0.7890 F   0  0  0  0  0  0  0  0  0  0  0  0
   14.4410  -10.3770   -0.2320 F   0  0  0  0  0  0  0  0  0  0  0  0
   11.6380  -12.2270   -1.7630 C   0  0  0  0  0  0  0  0  0  0  0  0
    9.2890  -11.7100   -3.9810 H   0  0  0  0  0  0  0  0  0  0  0  0
    8.3348  -14.6809   -5.2480 H   0  0  0  0  0  0  0  0  0  0  0  0
    6.0231  -15.3952   -5.8406 H   0  0  0  0  0  0  0  0  0  0  0  0
    4.0597  -14.1318   -4.9734 H   0  0  0  0  0  0  0  0  0  0  0  0
    3.9225  -10.7730   -5.1593 H   0  0  0  0  0  0  0  0  0  0  0  0
    1.8957   -9.5250   -4.2264 H   0  0  0  0  0  0  0  0  0  0  0  0
   -0.6909   -9.4923    2.3612 H   0  0  0  0  0  0  0  0  0  0  0  0
   -1.6753  -10.2348    1.0270 H   0  0  0  0  0  0  0  0  0  0  0  0
   -0.9267  -11.3408    3.7234 H   0  0  0  0  0  0  0  0  0  0  0  0
   -2.5439  -11.2666    2.8110 H   0  0  0  0  0  0  0  0  0  0  0  0
   -0.9349  -12.9747    1.3387 H   0  0  0  0  0  0  0  0  0  0  0  0
   -0.6918  -13.4159    3.1022 H   0  0  0  0  0  0  0  0  0  0  0  0
   -3.0270  -13.6240    3.3330 H   0  0  0  0  0  0  0  0  0  0  0  0
   -1.7161  -15.6220    2.5379 H   0  0  0  0  0  0  0  0  0  0  0  0
   -3.5091  -15.6547    2.3251 H   0  0  0  0  0  0  0  0  0  0  0  0
   -1.4350  -14.9128    0.2001 H   0  0  0  0  0  0  0  0  0  0  0  0
   -2.4185  -16.4283    0.2801 H   0  0  0  0  0  0  0  0  0  0  0  0
   -2.5453  -12.8514   -0.2756 H   0  0  0  0  0  0  0  0  0  0  0  0
   -4.3343  -12.8714   -0.5359 H   0  0  0  0  0  0  0  0  0  0  0  0
   -3.6939  -11.9316    1.6929 H   0  0  0  0  0  0  0  0  0  0  0  0
   -4.7089  -13.4196    1.8147 H   0  0  0  0  0  0  0  0  0  0  0  0
    3.3028  -13.3380    0.8800 H   0  0  0  0  0  0  0  0  0  0  0  0
    6.7322  -11.4153   -2.9267 H   0  0  0  0  0  0  0  0  0  0  0  0
   12.0344  -13.3353   -4.9749 H   0  0  0  0  0  0  0  0  0  0  0  0
   14.2644  -12.2696   -4.6337 H   0  0  0  0  0  0  0  0  0  0  0  0
   14.8133  -11.1804   -2.4645 H   0  0  0  0  0  0  0  0  0  0  0  0
   10.8998  -12.2330   -0.9475 H   0  0  0  0  0  0  0  0  0  0  0  0
  1  2  2  0
  2  3  1  0
  3  4  1  0
  4  5  2  0
  5  6  1  0
  6  7  2  0
  7  8  1  0
  8  9  1  0
  9 10  2  0
 10 11  1  0
 11 12  2  0
 12 13  1  0
 13 14  2  0
 14 15  1  0
 15 16  3  0
 16 17  1  0
 17 18  1  0
 18 19  1  0
 19 20  1  0
 20 21  1  0
 21 22  1  0
 22 23  1  0
 23 24  1  0
 24 25  1  0
 14 26  1  0
 26 27  2  0
 27 28  1  0
  8 29  2  0
  2 30  1  0
 30 31  2  0
 31 32  1  0
 32 33  2  0
 33 34  1  0
 34 35  1  0
 35 36  1  0
 35 37  1  0
 35 38  1  0
 34 39  2  0
 29  4  1  0
 39 30  1  0
 28  9  1  0
 28 13  1  0
 25 20  1  0
  3 40  1  0
  5 41  1  0
  6 42  1  0
  7 43  1  0
 10 44  1  0
 11 45  1  0
 17 46  1  0
 17 47  1  0
 18 48  1  0
 18 49  1  0
 19 50  1  0
 19 51  1  0
 20 52  1  0
 21 53  1  0
 21 54  1  0
 22 55  1  0
 22 56  1  0
 24 57  1  0
 24 58  1  0
 25 59  1  0
 25 60  1  0
 26 61  1  0
 29 62  1  0
 31 63  1  0
 32 64  1  0
 33 65  1  0
 39 66  1  0
M  CHG  1  20   1
M  END
>  <meeko>  (2) 
{"is_sidechain": [false], "free_energy": -8.93, "intermolecular_energy": -13.203, "internal_energy": -1.07}

$$$$
LIB_SOWMPGHFKGHWIR__M_PUB_ALL__e8__s20260927
     RDKit          3D

 66 70  0  0  0  0  0  0  0  0999 V2000
    7.0440  -10.3430   -1.4250 O   0  0  0  0  0  0  0  0  0  0  0  0
    6.7970  -11.5350   -1.2800 C   0  0  0  0  0  0  0  0  0  0  0  0
    7.6710  -12.5170   -0.8470 N   0  0  0  0  0  0  0  0  0  0  0  0
    9.0390  -12.3680   -0.5340 C   0  0  0  0  0  0  0  0  0  0  0  0
    9.3690  -12.1240    0.8030 C   0  0  0  0  0  0  0  0  0  0  0  0
   10.7020  -11.9690    1.1890 C   0  0  0  0  0  0  0  0  0  0  0  0
   11.7200  -12.0600    0.2410 C   0  0  0  0  0  0  0  0  0  0  0  0
   11.4150  -12.3030   -1.1030 C   0  0  0  0  0  0  0  0  0  0  0  0
   12.4830  -12.4020   -2.1200 C   0  0  0  0  0  0  0  0  0  0  0  0
   13.4680  -11.4830   -2.1180 C   0  0  0  0  0  0  0  0  0  0  0  0
   14.5290  -11.6520   -3.1410 C   0  0  0  0  0  0  0  0  0  0  0  0
   14.6040  -12.5920   -4.0370 N   0  0  0  0  0  0  0  0  0  0  0  0
   13.5580  -13.4860   -4.0320 C   0  0  0  0  0  0  0  0  0  0  0  0
   13.2590  -14.5570   -4.8460 C   0  0  0  0  0  0  0  0  0  0  0  0
   14.0400  -14.9900   -5.9490 C   0  0  0  0  0  0  0  0  0  0  0  0
   14.7930  -15.2680   -6.8410 C   0  0  0  0  0  0  0  0  0  0  0  0
   15.5560  -15.6540   -8.0280 C   0  0  0  0  0  0  0  0  0  0  0  0
   15.2660  -14.7450   -9.2240 C   0  0  0  0  0  0  0  0  0  0  0  0
   13.8120  -14.3060   -9.4410 C   0  0  0  0  0  0  0  0  0  0  0  0
   13.6260  -12.8150   -9.5780 N   0  0  0  0  0  0  0  0  0  0  0  0
   12.1920  -12.3260   -9.7110 C   0  0  0  0  0  0  0  0  0  0  0  0
   11.6520  -12.6020  -11.1180 C   0  0  0  0  0  0  0  0  0  0  0  0
   12.4840  -11.9970  -12.1170 O   0  0  0  0  0  0  0  0  0  0  0  0
   13.8250  -12.5000  -12.0710 C   0  0  0  0  0  0  0  0  0  0  0  0
   14.4710  -12.2230  -10.7090 C   0  0  0  0  0  0  0  0  0  0  0  0
   12.0660  -15.0930   -4.3510 C   0  0  0  0  0  0  0  0  0  0  0  0
   11.6110  -14.4270   -3.2910 N   0  0  0  0  0  0  0  0  0  0  0  0
   12.5060  -13.4180   -3.0940 N   0  0  0  0  0  0  0  0  0  0  0  0
   10.0670  -12.4530   -1.4770 C   0  0  0  0  0  0  0  0  0  0  0  0
    5.4090  -12.0030   -1.5630 C   0  0  0  0  0  0  0  0  0  0  0  0
    4.5870  -12.5280   -0.5590 C   0  0  0  0  0  0  0  0  0  0  0  0
    3.2990  -12.9650   -0.8710 C   0  0  0  0  0  0  0  0  0  0  0  0
    2.8310  -12.8880   -2.1850 C   0  0  0  0  0  0  0  0  0  0  0  0
    3.6460  -12.3740   -3.2050 C   0  0  0  0  0  0  0  0  0  0  0  0
    3.1590  -12.3220   -4.6340 C   0  0  0  0  0  0  0  0  0  0  0  0
    1.8160  -12.1190   -4.7140 F   0  0  0  0  0  0  0  0  0  0  0  0
    3.7360  -11.3250   -5.3600 F   0  0  0  0  0  0  0  0  0  0  0  0
    3.4080  -13.4730   -5.3190 F   0  0  0  0  0  0  0  0  0  0  0  0
    4.9440  -11.9440   -2.8830 C   0  0  0  0  0  0  0  0  0  0  0  0
    7.2900  -13.4440   -0.7040 H   0  0  0  0  0  0  0  0  0  0  0  0
    8.5714  -12.0536    1.5572 H   0  0  0  0  0  0  0  0  0  0  0  0
   10.9492  -11.7747    2.2431 H   0  0  0  0  0  0  0  0  0  0  0  0
   12.7686  -11.9402    0.5510 H   0  0  0  0  0  0  0  0  0  0  0  0
   13.4847  -10.6524   -1.3970 H   0  0  0  0  0  0  0  0  0  0  0  0
   15.3362  -10.9047   -3.1419 H   0  0  0  0  0  0  0  0  0  0  0  0
   16.6291  -15.5979   -7.7927 H   0  0  0  0  0  0  0  0  0  0  0  0
   15.2584  -16.6769   -8.3021 H   0  0  0  0  0  0  0  0  0  0  0  0
   15.8707  -13.8344   -9.1006 H   0  0  0  0  0  0  0  0  0  0  0  0
   15.5105  -15.3546  -10.1064 H   0  0  0  0  0  0  0  0  0  0  0  0
   13.4412  -14.7850  -10.3592 H   0  0  0  0  0  0  0  0  0  0  0  0
   13.2542  -14.6112   -8.5434 H   0  0  0  0  0  0  0  0  0  0  0  0
   14.0250  -12.3800   -8.7320 H   0  0  0  0  0  0  0  0  0  0  0  0
   11.5632  -12.8477   -8.9745 H   0  0  0  0  0  0  0  0  0  0  0  0
   12.1711  -11.2409   -9.5316 H   0  0  0  0  0  0  0  0  0  0  0  0
   11.6224  -13.6889  -11.2849 H   0  0  0  0  0  0  0  0  0  0  0  0
   10.6426  -12.1718  -11.1960 H   0  0  0  0  0  0  0  0  0  0  0  0
   13.8078  -13.5858  -12.2464 H   0  0  0  0  0  0  0  0  0  0  0  0
   14.4157  -11.9925  -12.8479 H   0  0  0  0  0  0  0  0  0  0  0  0
   15.4731  -12.6760  -10.6860 H   0  0  0  0  0  0  0  0  0  0  0  0
   14.5404  -11.1346  -10.5657 H   0  0  0  0  0  0  0  0  0  0  0  0
   11.5601  -15.9666   -4.7880 H   0  0  0  0  0  0  0  0  0  0  0  0
    9.8174  -12.6408   -2.5317 H   0  0  0  0  0  0  0  0  0  0  0  0
    4.9560  -12.5960    0.4750 H   0  0  0  0  0  0  0  0  0  0  0  0
    2.6507  -13.3710   -0.0805 H   0  0  0  0  0  0  0  0  0  0  0  0
    1.8140  -13.2336   -2.4223 H   0  0  0  0  0  0  0  0  0  0  0  0
    5.6017  -11.5571   -3.6753 H   0  0  0  0  0  0  0  0  0  0  0  0
  1  2  2  0
  2  3  1  0
  3  4  1  0
  4  5  2  0
  5  6  1  0
  6  7  2  0
  7  8  1  0
  8  9  1  0
  9 10  2  0
 10 11  1  0
 11 12  2  0
 12 13  1  0
 13 14  2  0
 14 15  1  0
 15 16  3  0
 16 17  1  0
 17 18  1  0
 18 19  1  0
 19 20  1  0
 20 21  1  0
 21 22  1  0
 22 23  1  0
 23 24  1  0
 24 25  1  0
 14 26  1  0
 26 27  2  0
 27 28  1  0
  8 29  2  0
  2 30  1  0
 30 31  2  0
 31 32  1  0
 32 33  2  0
 33 34  1  0
 34 35  1  0
 35 36  1  0
 35 37  1  0
 35 38  1  0
 34 39  2  0
 29  4  1  0
 39 30  1  0
 28  9  1  0
 28 13  1  0
 25 20  1  0
  3 40  1  0
  5 41  1  0
  6 42  1  0
  7 43  1  0
 10 44  1  0
 11 45  1  0
 17 46  1  0
 17 47  1  0
 18 48  1  0
 18 49  1  0
 19 50  1  0
 19 51  1  0
 20 52  1  0
 21 53  1  0
 21 54  1  0
 22 55  1  0
 22 56  1  0
 24 57  1  0
 24 58  1  0
 25 59  1  0
 25 60  1  0
 26 61  1  0
 29 62  1  0
 31 63  1  0
 32 64  1  0
 33 65  1  0
 39 66  1  0
M  CHG  1  20   1
M  END
>  <meeko>  (3) 
{"is_sidechain": [false], "free_energy": -8.922, "intermolecular_energy": -13.316, "internal_energy": -0.944}

$$$$
LIB_SOWMPGHFKGHWIR__M_PUB_ALL__e8__s20260927
     RDKit          3D

 66 70  0  0  0  0  0  0  0  0999 V2000
    1.1770   -9.9520    0.9200 O   0  0  0  0  0  0  0  0  0  0  0  0
    0.6250  -10.9820    0.5480 C   0  0  0  0  0  0  0  0  0  0  0  0
    1.0700  -11.8570   -0.4270 N   0  0  0  0  0  0  0  0  0  0  0  0
    2.2200  -11.7250   -1.2340 C   0  0  0  0  0  0  0  0  0  0  0  0
    2.0510  -11.1700   -2.5070 C   0  0  0  0  0  0  0  0  0  0  0  0
    3.1440  -11.0050   -3.3600 C   0  0  0  0  0  0  0  0  0  0  0  0
    4.4190  -11.3920   -2.9490 C   0  0  0  0  0  0  0  0  0  0  0  0
    4.6130  -11.9500   -1.6800 C   0  0  0  0  0  0  0  0  0  0  0  0
    5.9580  -12.3660   -1.2290 C   0  0  0  0  0  0  0  0  0  0  0  0
    6.6080  -11.5980   -0.3350 C   0  0  0  0  0  0  0  0  0  0  0  0
    7.9400  -12.0820    0.1060 C   0  0  0  0  0  0  0  0  0  0  0  0
    8.5400  -13.1690   -0.2840 N   0  0  0  0  0  0  0  0  0  0  0  0
    7.8600  -13.9040   -1.2280 C   0  0  0  0  0  0  0  0  0  0  0  0
    8.1900  -15.0550   -1.9100 C   0  0  0  0  0  0  0  0  0  0  0  0
    9.4030  -15.7750   -1.7630 C   0  0  0  0  0  0  0  0  0  0  0  0
   10.4570  -16.3030   -1.5350 C   0  0  0  0  0  0  0  0  0  0  0  0
   11.7290  -17.0190   -1.4310 C   0  0  0  0  0  0  0  0  0  0  0  0
   12.7750  -16.4840   -2.4120 C   0  0  0  0  0  0  0  0  0  0  0  0
   13.0720  -14.9800   -2.3760 C   0  0  0  0  0  0  0  0  0  0  0  0
   13.0130  -14.3010   -3.7220 N   0  0  0  0  0  0  0  0  0  0  0  0
   14.0430  -13.2100   -3.9700 C   0  0  0  0  0  0  0  0  0  0  0  0
   13.6670  -11.9270   -3.2200 C   0  0  0  0  0  0  0  0  0  0  0  0
   12.3580  -11.4780   -3.5920 O   0  0  0  0  0  0  0  0  0  0  0  0
   11.3530  -12.4540   -3.2930 C   0  0  0  0  0  0  0  0  0  0  0  0
   11.6160  -13.7640   -4.0440 C   0  0  0  0  0  0  0  0  0  0  0  0
    7.0990  -15.3350   -2.7390 C   0  0  0  0  0  0  0  0  0  0  0  0
    6.1220  -14.4370   -2.6140 N   0  0  0  0  0  0  0  0  0  0  0  0
    6.5850  -13.5340   -1.7030 N   0  0  0  0  0  0  0  0  0  0  0  0
    3.5010  -12.1140   -0.8330 C   0  0  0  0  0  0  0  0  0  0  0  0
   -0.6480  -11.3760    1.2190 C   0  0  0  0  0  0  0  0  0  0  0  0
   -0.7640  -11.4270    2.6130 C   0  0  0  0  0  0  0  0  0  0  0  0
   -1.9710  -11.8130    3.1980 C   0  0  0  0  0  0  0  0  0  0  0  0
   -3.0610  -12.1560    2.3950 C   0  0  0  0  0  0  0  0  0  0  0  0
   -2.9590  -12.1200    0.9960 C   0  0  0  0  0  0  0  0  0  0  0  0
   -4.1220  -12.5250    0.1230 C   0  0  0  0  0  0  0  0  0  0  0  0
   -5.3220  -12.3110    0.7290 F   0  0  0  0  0  0  0  0  0  0  0  0
   -4.1690  -11.8450   -1.0560 F   0  0  0  0  0  0  0  0  0  0  0  0
   -4.0990  -13.8450   -0.2100 F   0  0  0  0  0  0  0  0  0  0  0  0
   -1.7380  -11.7380    0.4170 C   0  0  0  0  0  0  0  0  0  0  0  0
    0.5370  -12.7070   -0.5620 H   0  0  0  0  0  0  0  0  0  0  0  0
    1.0487  -10.8610   -2.8387 H   0  0  0  0  0  0  0  0  0  0  0  0
    2.9989  -10.5684   -4.3592 H   0  0  0  0  0  0  0  0  0  0  0  0
    5.2763  -11.2582   -3.6251 H   0  0  0  0  0  0  0  0  0  0  0  0
    6.1754  -10.6620    0.0482 H   0  0  0  0  0  0  0  0  0  0  0  0
    8.4747  -11.4581    0.8373 H   0  0  0  0  0  0  0  0  0  0  0  0
   12.1148  -16.9090   -0.4068 H   0  0  0  0  0  0  0  0  0  0  0  0
   11.5435  -18.0749   -1.6774 H   0  0  0  0  0  0  0  0  0  0  0  0
   13.7185  -17.0116   -2.2085 H   0  0  0  0  0  0  0  0  0  0  0  0
   12.3434  -16.6618   -3.4081 H   0  0  0  0  0  0  0  0  0  0  0  0
   12.3351  -14.4995   -1.7156 H   0  0  0  0  0  0  0  0  0  0  0  0
   14.1055  -14.8725   -2.0150 H   0  0  0  0  0  0  0  0  0  0  0  0
   13.1560  -15.0310   -4.4370 H   0  0  0  0  0  0  0  0  0  0  0  0
   15.0269  -13.5567   -3.6211 H   0  0  0  0  0  0  0  0  0  0  0  0
   14.0742  -12.9925   -5.0478 H   0  0  0  0  0  0  0  0  0  0  0  0
   13.6852  -12.1246   -2.1381 H   0  0  0  0  0  0  0  0  0  0  0  0
   14.3932  -11.1433   -3.4816 H   0  0  0  0  0  0  0  0  0  0  0  0
   11.3560  -12.6531   -2.2112 H   0  0  0  0  0  0  0  0  0  0  0  0
   10.3767  -12.0590   -3.6104 H   0  0  0  0  0  0  0  0  0  0  0  0
   10.8646  -14.5093   -3.7441 H   0  0  0  0  0  0  0  0  0  0  0  0
   11.5517  -13.5711   -5.1250 H   0  0  0  0  0  0  0  0  0  0  0  0
    7.0524  -16.1992   -3.4179 H   0  0  0  0  0  0  0  0  0  0  0  0
    3.6429  -12.5569    0.1638 H   0  0  0  0  0  0  0  0  0  0  0  0
    0.0954  -11.1631    3.2469 H   0  0  0  0  0  0  0  0  0  0  0  0
   -2.0639  -11.8471    4.2935 H   0  0  0  0  0  0  0  0  0  0  0  0
   -4.0092  -12.4575    2.8641 H   0  0  0  0  0  0  0  0  0  0  0  0
   -1.6364  -11.7229   -0.6782 H   0  0  0  0  0  0  0  0  0  0  0  0
  1  2  2  0
  2  3  1  0
  3  4  1  0
  4  5  2  0
  5  6  1  0
  6  7  2  0
  7  8  1  0
  8  9  1  0
  9 10  2  0
 10 11  1  0
 11 12  2  0
 12 13  1  0
 13 14  2  0
 14 15  1  0
 15 16  3  0
 16 17  1  0
 17 18  1  0
 18 19  1  0
 19 20  1  0
 20 21  1  0
 21 22  1  0
 22 23  1  0
 23 24  1  0
 24 25  1  0
 14 26  1  0
 26 27  2  0
 27 28  1  0
  8 29  2  0
  2 30  1  0
 30 31  2  0
 31 32  1  0
 32 33  2  0
 33 34  1  0
 34 35  1  0
 35 36  1  0
 35 37  1  0
 35 38  1  0
 34 39  2  0
 29  4  1  0
 39 30  1  0
 28  9  1  0
 28 13  1  0
 25 20  1  0
  3 40  1  0
  5 41  1  0
  6 42  1  0
  7 43  1  0
 10 44  1  0
 11 45  1  0
 17 46  1  0
 17 47  1  0
 18 48  1  0
 18 49  1  0
 19 50  1  0
 19 51  1  0
 20 52  1  0
 21 53  1  0
 21 54  1  0
 22 55  1  0
 22 56  1  0
 24 57  1  0
 24 58  1  0
 25 59  1  0
 25 60  1  0
 26 61  1  0
 29 62  1  0
 31 63  1  0
 32 64  1  0
 33 65  1  0
 39 66  1  0
M  CHG  1  20   1
M  END
>  <meeko>  (4) 
{"is_sidechain": [false], "free_energy": -8.866, "intermolecular_energy": -12.699, "internal_energy": -1.479}

$$$$
LIB_SOWMPGHFKGHWIR__M_PUB_ALL__e8__s20260927
     RDKit          3D

 66 70  0  0  0  0  0  0  0  0999 V2000
    8.2400  -11.0520   -3.5030 O   0  0  0  0  0  0  0  0  0  0  0  0
    8.6220  -12.2120   -3.3910 C   0  0  0  0  0  0  0  0  0  0  0  0
    7.8710  -13.3560   -3.5950 N   0  0  0  0  0  0  0  0  0  0  0  0
    6.5000  -13.4340   -3.9210 C   0  0  0  0  0  0  0  0  0  0  0  0
    6.1700  -13.8250   -5.2220 C   0  0  0  0  0  0  0  0  0  0  0  0
    4.8340  -13.9280   -5.6160 C   0  0  0  0  0  0  0  0  0  0  0  0
    3.8130  -13.6430   -4.7100 C   0  0  0  0  0  0  0  0  0  0  0  0
    4.1180  -13.2500   -3.4020 C   0  0  0  0  0  0  0  0  0  0  0  0
    3.0480  -12.9440   -2.4300 C   0  0  0  0  0  0  0  0  0  0  0  0
    2.8570  -11.6640   -2.0560 C   0  0  0  0  0  0  0  0  0  0  0  0
    1.7470  -11.4140   -1.1040 C   0  0  0  0  0  0  0  0  0  0  0  0
    0.9430  -12.3010   -0.5950 N   0  0  0  0  0  0  0  0  0  0  0  0
    1.1980  -13.6010   -0.9700 C   0  0  0  0  0  0  0  0  0  0  0  0
    0.6160  -14.7950   -0.6030 C   0  0  0  0  0  0  0  0  0  0  0  0
   -0.4560  -14.9360    0.3160 C   0  0  0  0  0  0  0  0  0  0  0  0
   -1.3720  -14.9200    1.0920 C   0  0  0  0  0  0  0  0  0  0  0  0
   -2.3650  -14.8290    2.1620 C   0  0  0  0  0  0  0  0  0  0  0  0
   -2.6500  -13.3810    2.5660 C   0  0  0  0  0  0  0  0  0  0  0  0
   -2.8590  -12.3610    1.4390 C   0  0  0  0  0  0  0  0  0  0  0  0
   -1.6630  -11.4860    1.1610 N   0  0  0  0  0  0  0  0  0  0  0  0
   -0.8730  -11.0200    2.3730 C   0  0  0  0  0  0  0  0  0  0  0  0
   -1.6180   -9.9010    3.1100 C   0  0  0  0  0  0  0  0  0  0  0  0
   -1.8890   -8.8000    2.2340 O   0  0  0  0  0  0  0  0  0  0  0  0
   -2.7040   -9.1910    1.1210 C   0  0  0  0  0  0  0  0  0  0  0  0
   -2.0140  -10.2780    0.2890 C   0  0  0  0  0  0  0  0  0  0  0  0
    1.2950  -15.7870   -1.3180 C   0  0  0  0  0  0  0  0  0  0  0  0
    2.2520  -15.2870   -2.0970 N   0  0  0  0  0  0  0  0  0  0  0  0
    2.2220  -13.9420   -1.8770 N   0  0  0  0  0  0  0  0  0  0  0  0
    5.4690  -13.1470   -3.0210 C   0  0  0  0  0  0  0  0  0  0  0  0
   10.0490  -12.4480   -3.0270 C   0  0  0  0  0  0  0  0  0  0  0  0
   10.9760  -12.9420   -3.9530 C   0  0  0  0  0  0  0  0  0  0  0  0
   12.2990  -13.1580   -3.5650 C   0  0  0  0  0  0  0  0  0  0  0  0
   12.6980  -12.8920   -2.2540 C   0  0  0  0  0  0  0  0  0  0  0  0
   11.7790  -12.4070   -1.3110 C   0  0  0  0  0  0  0  0  0  0  0  0
   12.1960  -12.1510    0.1180 C   0  0  0  0  0  0  0  0  0  0  0  0
   11.3510  -11.2990    0.7580 F   0  0  0  0  0  0  0  0  0  0  0  0
   12.2360  -13.2830    0.8750 F   0  0  0  0  0  0  0  0  0  0  0  0
   13.4360  -11.5950    0.2150 F   0  0  0  0  0  0  0  0  0  0  0  0
   10.4480  -12.1990   -1.7080 C   0  0  0  0  0  0  0  0  0  0  0  0
    8.3560  -14.2430   -3.5390 H   0  0  0  0  0  0  0  0  0  0  0  0
    6.9697  -14.0536   -5.9418 H   0  0  0  0  0  0  0  0  0  0  0  0
    4.5867  -14.2346   -6.6431 H   0  0  0  0  0  0  0  0  0  0  0  0
    2.7625  -13.7275   -5.0251 H   0  0  0  0  0  0  0  0  0  0  0  0
    3.4898  -10.8484   -2.4359 H   0  0  0  0  0  0  0  0  0  0  0  0
    1.5872  -10.3700   -0.7965 H   0  0  0  0  0  0  0  0  0  0  0  0
   -3.3015  -15.2909    1.8161 H   0  0  0  0  0  0  0  0  0  0  0  0
   -1.9614  -15.3514    3.0419 H   0  0  0  0  0  0  0  0  0  0  0  0
   -3.5616  -13.3837    3.1817 H   0  0  0  0  0  0  0  0  0  0  0  0
   -1.7367  -13.0479    3.0807 H   0  0  0  0  0  0  0  0  0  0  0  0
   -3.1043  -12.9109    0.5185 H   0  0  0  0  0  0  0  0  0  0  0  0
   -3.6679  -11.6918    1.7673 H   0  0  0  0  0  0  0  0  0  0  0  0
   -1.0210  -12.0300    0.5620 H   0  0  0  0  0  0  0  0  0  0  0  0
   -0.7283  -11.8688    3.0575 H   0  0  0  0  0  0  0  0  0  0  0  0
    0.0989  -10.6327    2.0332 H   0  0  0  0  0  0  0  0  0  0  0  0
   -2.5693  -10.2960    3.4960 H   0  0  0  0  0  0  0  0  0  0  0  0
   -0.9851   -9.5438    3.9358 H   0  0  0  0  0  0  0  0  0  0  0  0
   -3.6624   -9.5793    1.4960 H   0  0  0  0  0  0  0  0  0  0  0  0
   -2.8680   -8.3115    0.4810 H   0  0  0  0  0  0  0  0  0  0  0  0
   -2.6899  -10.5990   -0.5173 H   0  0  0  0  0  0  0  0  0  0  0  0
   -1.0859   -9.8647   -0.1326 H   0  0  0  0  0  0  0  0  0  0  0  0
    1.0642  -16.8600   -1.2449 H   0  0  0  0  0  0  0  0  0  0  0  0
    5.7185  -12.8349   -1.9961 H   0  0  0  0  0  0  0  0  0  0  0  0
   10.6619  -13.1594   -4.9845 H   0  0  0  0  0  0  0  0  0  0  0  0
   13.0293  -13.5388   -4.2941 H   0  0  0  0  0  0  0  0  0  0  0  0
   13.7431  -13.0643   -1.9572 H   0  0  0  0  0  0  0  0  0  0  0  0
    9.7116  -11.8369   -0.9755 H   0  0  0  0  0  0  0  0  0  0  0  0
  1  2  2  0
  2  3  1  0
  3  4  1  0
  4  5  2  0
  5  6  1  0
  6  7  2  0
  7  8  1  0
  8  9  1  0
  9 10  2  0
 10 11  1  0
 11 12  2  0
 12 13  1  0
 13 14  2  0
 14 15  1  0
 15 16  3  0
 16 17  1  0
 17 18  1  0
 18 19  1  0
 19 20  1  0
 20 21  1  0
 21 22  1  0
 22 23  1  0
 23 24  1  0
 24 25  1  0
 14 26  1  0
 26 27  2  0
 27 28  1  0
  8 29  2  0
  2 30  1  0
 30 31  2  0
 31 32  1  0
 32 33  2  0
 33 34  1  0
 34 35  1  0
 35 36  1  0
 35 37  1  0
 35 38  1  0
 34 39  2  0
 29  4  1  0
 39 30  1  0
 28  9  1  0
 28 13  1  0
 25 20  1  0
  3 40  1  0
  5 41  1  0
  6 42  1  0
  7 43  1  0
 10 44  1  0
 11 45  1  0
 17 46  1  0
 17 47  1  0
 18 48  1  0
 18 49  1  0
 19 50  1  0
 19 51  1  0
 20 52  1  0
 21 53  1  0
 21 54  1  0
 22 55  1  0
 22 56  1  0
 24 57  1  0
 24 58  1  0
 25 59  1  0
 25 60  1  0
 26 61  1  0
 29 62  1  0
 31 63  1  0
 32 64  1  0
 33 65  1  0
 39 66  1  0
M  CHG  1  20   1
M  END
>  <meeko>  (5) 
{"is_sidechain": [false], "free_energy": -8.666, "intermolecular_energy": -12.279, "internal_energy": -1.606}

$$$$
LIB_SOWMPGHFKGHWIR__M_PUB_ALL__e8__s20260927
     RDKit          3D

 66 70  0  0  0  0  0  0  0  0999 V2000
    6.6500  -14.2950   -5.4580 O   0  0  0  0  0  0  0  0  0  0  0  0
    6.1210  -13.9980   -6.5230 C   0  0  0  0  0  0  0  0  0  0  0  0
    4.9980  -13.2100   -6.7010 N   0  0  0  0  0  0  0  0  0  0  0  0
    4.1930  -12.6280   -5.6980 C   0  0  0  0  0  0  0  0  0  0  0  0
    4.0670  -11.2350   -5.7030 C   0  0  0  0  0  0  0  0  0  0  0  0
    3.2840  -10.5900   -4.7440 C   0  0  0  0  0  0  0  0  0  0  0  0
    2.6160  -11.3310   -3.7690 C   0  0  0  0  0  0  0  0  0  0  0  0
    2.7270  -12.7260   -3.7440 C   0  0  0  0  0  0  0  0  0  0  0  0
    2.0260  -13.5270   -2.7180 C   0  0  0  0  0  0  0  0  0  0  0  0
    1.0550  -14.3740   -3.1080 C   0  0  0  0  0  0  0  0  0  0  0  0
    0.4100  -15.1750   -2.0380 C   0  0  0  0  0  0  0  0  0  0  0  0
    0.6860  -15.1410   -0.7670 N   0  0  0  0  0  0  0  0  0  0  0  0
    1.6540  -14.2330   -0.4060 C   0  0  0  0  0  0  0  0  0  0  0  0
    2.1650  -13.8720    0.8230 C   0  0  0  0  0  0  0  0  0  0  0  0
    1.7570  -14.4130    2.0700 C   0  0  0  0  0  0  0  0  0  0  0  0
    1.3400  -14.9590    3.0540 C   0  0  0  0  0  0  0  0  0  0  0  0
    0.7450  -15.4610    4.2930 C   0  0  0  0  0  0  0  0  0  0  0  0
   -0.7830  -15.5170    4.2200 C   0  0  0  0  0  0  0  0  0  0  0  0
   -1.4710  -14.6540    3.1560 C   0  0  0  0  0  0  0  0  0  0  0  0
   -2.8020  -15.1870    2.6860 N   0  0  0  0  0  0  0  0  0  0  0  0
   -2.8050  -16.6080    2.1470 C   0  0  0  0  0  0  0  0  0  0  0  0
   -2.2010  -16.6560    0.7390 C   0  0  0  0  0  0  0  0  0  0  0  0
   -2.9010  -15.7790   -0.1520 O   0  0  0  0  0  0  0  0  0  0  0  0
   -2.8460  -14.4160    0.2870 C   0  0  0  0  0  0  0  0  0  0  0  0
   -3.4780  -14.2580    1.6750 C   0  0  0  0  0  0  0  0  0  0  0  0
    3.1350  -12.8990    0.5640 C   0  0  0  0  0  0  0  0  0  0  0  0
    3.2570  -12.6360   -0.7360 N   0  0  0  0  0  0  0  0  0  0  0  0
    2.3340  -13.4330   -1.3470 N   0  0  0  0  0  0  0  0  0  0  0  0
    3.5230  -13.3620   -4.7150 C   0  0  0  0  0  0  0  0  0  0  0  0
    6.7490  -14.4970   -7.7810 C   0  0  0  0  0  0  0  0  0  0  0  0
    7.5020  -15.6770   -7.8130 C   0  0  0  0  0  0  0  0  0  0  0  0
    8.0810  -16.1000   -9.0100 C   0  0  0  0  0  0  0  0  0  0  0  0
    7.9190  -15.3460  -10.1740 C   0  0  0  0  0  0  0  0  0  0  0  0
    7.1760  -14.1560  -10.1560 C   0  0  0  0  0  0  0  0  0  0  0  0
    7.0260  -13.3170  -11.4030 C   0  0  0  0  0  0  0  0  0  0  0  0
    6.7940  -12.0070  -11.1190 F   0  0  0  0  0  0  0  0  0  0  0  0
    8.1300  -13.3400  -12.2000 F   0  0  0  0  0  0  0  0  0  0  0  0
    5.9910  -13.7210  -12.1910 F   0  0  0  0  0  0  0  0  0  0  0  0
    6.6030  -13.7330   -8.9460 C   0  0  0  0  0  0  0  0  0  0  0  0
    4.7320  -12.9920   -7.6530 H   0  0  0  0  0  0  0  0  0  0  0  0
    4.5892  -10.6428   -6.4689 H   0  0  0  0  0  0  0  0  0  0  0  0
    3.1935   -9.4938   -4.7572 H   0  0  0  0  0  0  0  0  0  0  0  0
    1.9996  -10.8169   -3.0168 H   0  0  0  0  0  0  0  0  0  0  0  0
    0.7559  -14.4673   -4.1624 H   0  0  0  0  0  0  0  0  0  0  0  0
   -0.3834  -15.8692   -2.3520 H   0  0  0  0  0  0  0  0  0  0  0  0
    1.1278  -16.4743    4.4845 H   0  0  0  0  0  0  0  0  0  0  0  0
    1.0190  -14.7695    5.1034 H   0  0  0  0  0  0  0  0  0  0  0  0
   -1.0660  -16.5628    4.0300 H   0  0  0  0  0  0  0  0  0  0  0  0
   -1.1256  -15.1050    5.1807 H   0  0  0  0  0  0  0  0  0  0  0  0
   -1.6317  -13.6509    3.5779 H   0  0  0  0  0  0  0  0  0  0  0  0
   -0.8074  -14.6491    2.2787 H   0  0  0  0  0  0  0  0  0  0  0  0
   -3.4420  -15.1610    3.4960 H   0  0  0  0  0  0  0  0  0  0  0  0
   -2.2121  -17.2490    2.8160 H   0  0  0  0  0  0  0  0  0  0  0  0
   -3.8444  -16.9648    2.0977 H   0  0  0  0  0  0  0  0  0  0  0  0
   -1.1459  -16.3493    0.7899 H   0  0  0  0  0  0  0  0  0  0  0  0
   -2.2864  -17.6839    0.3567 H   0  0  0  0  0  0  0  0  0  0  0  0
   -1.7948  -14.0951    0.3321 H   0  0  0  0  0  0  0  0  0  0  0  0
   -3.4089  -13.7959   -0.4262 H   0  0  0  0  0  0  0  0  0  0  0  0
   -3.3619  -13.2161    2.0082 H   0  0  0  0  0  0  0  0  0  0  0  0
   -4.5440  -14.5214    1.6103 H   0  0  0  0  0  0  0  0  0  0  0  0
    3.7307  -12.4059    1.3463 H   0  0  0  0  0  0  0  0  0  0  0  0
    3.6197  -14.4576   -4.7000 H   0  0  0  0  0  0  0  0  0  0  0  0
    7.6369  -16.2695   -6.8961 H   0  0  0  0  0  0  0  0  0  0  0  0
    8.6670  -17.0305   -9.0367 H   0  0  0  0  0  0  0  0  0  0  0  0
    8.3779  -15.6880  -11.1134 H   0  0  0  0  0  0  0  0  0  0  0  0
    6.0338  -12.7923   -8.9125 H   0  0  0  0  0  0  0  0  0  0  0  0
  1  2  2  0
  2  3  1  0
  3  4  1  0
  4  5  2  0
  5  6  1  0
  6  7  2  0
  7  8  1  0
  8  9  1  0
  9 10  2  0
 10 11  1  0
 11 12  2  0
 12 13  1  0
 13 14  2  0
 14 15  1  0
 15 16  3  0
 16 17  1  0
 17 18  1  0
 18 19  1  0
 19 20  1  0
 20 21  1  0
 21 22  1  0
 22 23  1  0
 23 24  1  0
 24 25  1  0
 14 26  1  0
 26 27  2  0
 27 28  1  0
  8 29  2  0
  2 30  1  0
 30 31  2  0
 31 32  1  0
 32 33  2  0
 33 34  1  0
 34 35  1  0
 35 36  1  0
 35 37  1  0
 35 38  1  0
 34 39  2  0
 29  4  1  0
 39 30  1  0
 28  9  1  0
 28 13  1  0
 25 20  1  0
  3 40  1  0
  5 41  1  0
  6 42  1  0
  7 43  1  0
 10 44  1  0
 11 45  1  0
 17 46  1  0
 17 47  1  0
 18 48  1  0
 18 49  1  0
 19 50  1  0
 19 51  1  0
 20 52  1  0
 21 53  1  0
 21 54  1  0
 22 55  1  0
 22 56  1  0
 24 57  1  0
 24 58  1  0
 25 59  1  0
 25 60  1  0
 26 61  1  0
 29 62  1  0
 31 63  1  0
 32 64  1  0
 33 65  1  0
 39 66  1  0
M  CHG  1  20   1
M  END
>  <meeko>  (6) 
{"is_sidechain": [false], "free_energy": -8.615, "intermolecular_energy": -12.542, "internal_energy": -1.268}

$$$$
LIB_SOWMPGHFKGHWIR__M_PUB_ALL__e8__s20260927
     RDKit          3D

 66 70  0  0  0  0  0  0  0  0999 V2000
    9.4130  -14.6230   -2.5490 O   0  0  0  0  0  0  0  0  0  0  0  0
    9.5730  -13.4880   -2.9860 C   0  0  0  0  0  0  0  0  0  0  0  0
    8.6200  -12.6920   -3.5980 N   0  0  0  0  0  0  0  0  0  0  0  0
    7.2830  -13.0340   -3.8970 C   0  0  0  0  0  0  0  0  0  0  0  0
    7.0490  -13.7350   -5.0840 C   0  0  0  0  0  0  0  0  0  0  0  0
    5.7530  -14.1100   -5.4430 C   0  0  0  0  0  0  0  0  0  0  0  0
    4.6760  -13.7900   -4.6170 C   0  0  0  0  0  0  0  0  0  0  0  0
    4.8860  -13.0880   -3.4240 C   0  0  0  0  0  0  0  0  0  0  0  0
    3.7550  -12.7410   -2.5380 C   0  0  0  0  0  0  0  0  0  0  0  0
    2.9720  -11.6950   -2.8650 C   0  0  0  0  0  0  0  0  0  0  0  0
    1.8340  -11.4140   -1.9550 C   0  0  0  0  0  0  0  0  0  0  0  0
    1.5170  -12.0720   -0.8780 N   0  0  0  0  0  0  0  0  0  0  0  0
    2.3660  -13.1070   -0.5580 C   0  0  0  0  0  0  0  0  0  0  0  0
    2.3950  -13.9750    0.5130 C   0  0  0  0  0  0  0  0  0  0  0  0
    1.4740  -13.9750    1.5920 C   0  0  0  0  0  0  0  0  0  0  0  0
    0.6250  -13.8840    2.4360 C   0  0  0  0  0  0  0  0  0  0  0  0
   -0.3120  -13.6260    3.5300 C   0  0  0  0  0  0  0  0  0  0  0  0
   -1.0150  -12.2750    3.3830 C   0  0  0  0  0  0  0  0  0  0  0  0
   -2.2580  -12.2200    2.4860 C   0  0  0  0  0  0  0  0  0  0  0  0
   -1.9600  -12.1890    1.0080 N   0  0  0  0  0  0  0  0  0  0  0  0
   -1.6880  -10.8210    0.4050 C   0  0  0  0  0  0  0  0  0  0  0  0
   -2.9910  -10.0320    0.2360 C   0  0  0  0  0  0  0  0  0  0  0  0
   -3.9310  -10.7570   -0.5660 O   0  0  0  0  0  0  0  0  0  0  0  0
   -4.2720  -12.0200    0.0200 C   0  0  0  0  0  0  0  0  0  0  0  0
   -3.0310  -12.9050    0.1810 C   0  0  0  0  0  0  0  0  0  0  0  0
    3.4890  -14.8170    0.2930 C   0  0  0  0  0  0  0  0  0  0  0  0
    4.1350  -14.5290   -0.8360 N   0  0  0  0  0  0  0  0  0  0  0  0
    3.4700  -13.4610   -1.3620 N   0  0  0  0  0  0  0  0  0  0  0  0
    6.1970  -12.7140   -3.0770 C   0  0  0  0  0  0  0  0  0  0  0  0
   10.9160  -12.8600   -2.8300 C   0  0  0  0  0  0  0  0  0  0  0  0
   11.8830  -12.9220   -3.8410 C   0  0  0  0  0  0  0  0  0  0  0  0
   13.1320  -12.3300   -3.6470 C   0  0  0  0  0  0  0  0  0  0  0  0
   13.4230  -11.6830   -2.4440 C   0  0  0  0  0  0  0  0  0  0  0  0
   12.4690  -11.6210   -1.4170 C   0  0  0  0  0  0  0  0  0  0  0  0
   12.7900  -10.9550   -0.1000 C   0  0  0  0  0  0  0  0  0  0  0  0
   14.0480  -11.2430    0.3310 F   0  0  0  0  0  0  0  0  0  0  0  0
   12.7110   -9.5970   -0.1530 F   0  0  0  0  0  0  0  0  0  0  0  0
   11.9520  -11.3370    0.9030 F   0  0  0  0  0  0  0  0  0  0  0  0
   11.2180  -12.2270   -1.6180 C   0  0  0  0  0  0  0  0  0  0  0  0
    8.8910  -11.7450   -3.8330 H   0  0  0  0  0  0  0  0  0  0  0  0
    7.8931  -13.9932   -5.7404 H   0  0  0  0  0  0  0  0  0  0  0  0
    5.5809  -14.6595   -6.3802 H   0  0  0  0  0  0  0  0  0  0  0  0
    3.6574  -14.0903   -4.9039 H   0  0  0  0  0  0  0  0  0  0  0  0
    3.1655  -11.0824   -3.7579 H   0  0  0  0  0  0  0  0  0  0  0  0
    1.1916  -10.5608   -2.2182 H   0  0  0  0  0  0  0  0  0  0  0  0
   -1.0718  -14.4213    3.5405 H   0  0  0  0  0  0  0  0  0  0  0  0
    0.2616  -13.6076    4.4684 H   0  0  0  0  0  0  0  0  0  0  0  0
   -1.3194  -11.9503    4.3889 H   0  0  0  0  0  0  0  0  0  0  0  0
   -0.2789  -11.6277    2.8837 H   0  0  0  0  0  0  0  0  0  0  0  0
   -2.8720  -13.1086    2.6944 H   0  0  0  0  0  0  0  0  0  0  0  0
   -2.7732  -11.2772    2.7217 H   0  0  0  0  0  0  0  0  0  0  0  0
   -1.1190  -12.7690    0.8560 H   0  0  0  0  0  0  0  0  0  0  0  0
   -1.0116  -10.2624    1.0686 H   0  0  0  0  0  0  0  0  0  0  0  0
   -1.2273  -10.9571   -0.5846 H   0  0  0  0  0  0  0  0  0  0  0  0
   -3.4309   -9.8477    1.2272 H   0  0  0  0  0  0  0  0  0  0  0  0
   -2.7616   -9.0811   -0.2672 H   0  0  0  0  0  0  0  0  0  0  0  0
   -4.7215  -11.8478    1.0091 H   0  0  0  0  0  0  0  0  0  0  0  0
   -4.9839  -12.5328   -0.6435 H   0  0  0  0  0  0  0  0  0  0  0  0
   -3.3161  -13.8379    0.6893 H   0  0  0  0  0  0  0  0  0  0  0  0
   -2.6207  -13.1239   -0.8159 H   0  0  0  0  0  0  0  0  0  0  0  0
    3.7837  -15.6273    0.9761 H   0  0  0  0  0  0  0  0  0  0  0  0
    6.3708  -12.1594   -2.1431 H   0  0  0  0  0  0  0  0  0  0  0  0
   11.6585  -13.4366   -4.7869 H   0  0  0  0  0  0  0  0  0  0  0  0
   13.8892  -12.3731   -4.4438 H   0  0  0  0  0  0  0  0  0  0  0  0
   14.4093  -11.2177   -2.3003 H   0  0  0  0  0  0  0  0  0  0  0  0
   10.4672  -12.2041   -0.8144 H   0  0  0  0  0  0  0  0  0  0  0  0
  1  2  2  0
  2  3  1  0
  3  4  1  0
  4  5  2  0
  5  6  1  0
  6  7  2  0
  7  8  1  0
  8  9  1  0
  9 10  2  0
 10 11  1  0
 11 12  2  0
 12 13  1  0
 13 14  2  0
 14 15  1  0
 15 16  3  0
 16 17  1  0
 17 18  1  0
 18 19  1  0
 19 20  1  0
 20 21  1  0
 21 22  1  0
 22 23  1  0
 23 24  1  0
 24 25  1  0
 14 26  1  0
 26 27  2  0
 27 28  1  0
  8 29  2  0
  2 30  1  0
 30 31  2  0
 31 32  1  0
 32 33  2  0
 33 34  1  0
 34 35  1  0
 35 36  1  0
 35 37  1  0
 35 38  1  0
 34 39  2  0
 29  4  1  0
 39 30  1  0
 28  9  1  0
 28 13  1  0
 25 20  1  0
  3 40  1  0
  5 41  1  0
  6 42  1  0
  7 43  1  0
 10 44  1  0
 11 45  1  0
 17 46  1  0
 17 47  1  0
 18 48  1  0
 18 49  1  0
 19 50  1  0
 19 51  1  0
 20 52  1  0
 21 53  1  0
 21 54  1  0
 22 55  1  0
 22 56  1  0
 24 57  1  0
 24 58  1  0
 25 59  1  0
 25 60  1  0
 26 61  1  0
 29 62  1  0
 31 63  1  0
 32 64  1  0
 33 65  1  0
 39 66  1  0
M  CHG  1  20   1
M  END
>  <meeko>  (7) 
{"is_sidechain": [false], "free_energy": -8.543, "intermolecular_energy": -12.389, "internal_energy": -1.316}

$$$$
LIB_SOWMPGHFKGHWIR__M_PUB_ALL__e8__s20260927
     RDKit          3D

 66 70  0  0  0  0  0  0  0  0999 V2000
   -4.6780  -15.8220    4.2120 O   0  0  0  0  0  0  0  0  0  0  0  0
   -5.5510  -14.9790    4.3840 C   0  0  0  0  0  0  0  0  0  0  0  0
   -5.7840  -13.8550    3.6110 N   0  0  0  0  0  0  0  0  0  0  0  0
   -5.0370  -13.4130    2.4980 C   0  0  0  0  0  0  0  0  0  0  0  0
   -5.7190  -12.6890    1.5140 C   0  0  0  0  0  0  0  0  0  0  0  0
   -5.0450  -12.2150    0.3860 C   0  0  0  0  0  0  0  0  0  0  0  0
   -3.6810  -12.4580    0.2310 C   0  0  0  0  0  0  0  0  0  0  0  0
   -2.9780  -13.1800    1.2020 C   0  0  0  0  0  0  0  0  0  0  0  0
   -1.5320  -13.4470    1.0530 C   0  0  0  0  0  0  0  0  0  0  0  0
   -0.6540  -12.6250    1.6590 C   0  0  0  0  0  0  0  0  0  0  0  0
    0.7830  -12.9620    1.5010 C   0  0  0  0  0  0  0  0  0  0  0  0
    1.2780  -13.9650    0.8380 N   0  0  0  0  0  0  0  0  0  0  0  0
    0.3500  -14.7560    0.2000 C   0  0  0  0  0  0  0  0  0  0  0  0
    0.4880  -15.8510   -0.6280 C   0  0  0  0  0  0  0  0  0  0  0  0
    1.7220  -16.4300   -1.0210 C   0  0  0  0  0  0  0  0  0  0  0  0
    2.8240  -16.8370   -1.2660 C   0  0  0  0  0  0  0  0  0  0  0  0
    4.1080  -17.3530   -1.7420 C   0  0  0  0  0  0  0  0  0  0  0  0
    4.7780  -16.4060   -2.7390 C   0  0  0  0  0  0  0  0  0  0  0  0
    4.2110  -14.9860   -2.8560 C   0  0  0  0  0  0  0  0  0  0  0  0
    3.4700  -14.7130   -4.1410 N   0  0  0  0  0  0  0  0  0  0  0  0
    4.2120  -13.8920   -5.1830 C   0  0  0  0  0  0  0  0  0  0  0  0
    4.2340  -12.4100   -4.7920 C   0  0  0  0  0  0  0  0  0  0  0  0
    2.9050  -11.9060   -4.6070 O   0  0  0  0  0  0  0  0  0  0  0  0
    2.2070  -12.6080   -3.5710 C   0  0  0  0  0  0  0  0  0  0  0  0
    2.0880  -14.1000   -3.9000 C   0  0  0  0  0  0  0  0  0  0  0  0
   -0.8120  -16.2390   -0.9680 C   0  0  0  0  0  0  0  0  0  0  0  0
   -1.7380  -15.4610   -0.4090 N   0  0  0  0  0  0  0  0  0  0  0  0
   -1.0380  -14.5270    0.2960 N   0  0  0  0  0  0  0  0  0  0  0  0
   -3.6710  -13.6550    2.3310 C   0  0  0  0  0  0  0  0  0  0  0  0
   -6.4970  -15.1720    5.5200 C   0  0  0  0  0  0  0  0  0  0  0  0
   -6.1470  -14.8490    6.8370 C   0  0  0  0  0  0  0  0  0  0  0  0
   -7.0610  -15.0580    7.8710 C   0  0  0  0  0  0  0  0  0  0  0  0
   -8.3200  -15.5960    7.5980 C   0  0  0  0  0  0  0  0  0  0  0  0
   -8.6830  -15.9350    6.2850 C   0  0  0  0  0  0  0  0  0  0  0  0
  -10.0290  -16.5510    5.9870 C   0  0  0  0  0  0  0  0  0  0  0  0
  -10.4870  -16.2190    4.7500 F   0  0  0  0  0  0  0  0  0  0  0  0
  -10.0180  -17.9120    6.0330 F   0  0  0  0  0  0  0  0  0  0  0  0
  -10.9950  -16.1580    6.8640 F   0  0  0  0  0  0  0  0  0  0  0  0
   -7.7540  -15.7290    5.2520 C   0  0  0  0  0  0  0  0  0  0  0  0
   -6.5970  -13.2970    3.8390 H   0  0  0  0  0  0  0  0  0  0  0  0
   -6.7949  -12.4914    1.6296 H   0  0  0  0  0  0  0  0  0  0  0  0
   -5.5920  -11.6485   -0.3820 H   0  0  0  0  0  0  0  0  0  0  0  0
   -3.1551  -12.0806   -0.6584 H   0  0  0  0  0  0  0  0  0  0  0  0
   -0.9840  -11.7510    2.2397 H   0  0  0  0  0  0  0  0  0  0  0  0
    1.5035  -12.2942    1.9959 H   0  0  0  0  0  0  0  0  0  0  0  0
    4.7765  -17.4897   -0.8792 H   0  0  0  0  0  0  0  0  0  0  0  0
    3.9186  -18.3063   -2.2570 H   0  0  0  0  0  0  0  0  0  0  0  0
    5.8352  -16.3160   -2.4488 H   0  0  0  0  0  0  0  0  0  0  0  0
    4.5981  -16.8621   -3.7237 H   0  0  0  0  0  0  0  0  0  0  0  0
    3.5174  -14.8227   -2.0180 H   0  0  0  0  0  0  0  0  0  0  0  0
    5.0727  -14.3025   -2.8402 H   0  0  0  0  0  0  0  0  0  0  0  0
    3.2520  -15.6290   -4.5650 H   0  0  0  0  0  0  0  0  0  0  0  0
    5.2457  -14.2595   -5.2628 H   0  0  0  0  0  0  0  0  0  0  0  0
    3.6940  -13.9949   -6.1480 H   0  0  0  0  0  0  0  0  0  0  0  0
    4.7961  -12.2942   -3.8536 H   0  0  0  0  0  0  0  0  0  0  0  0
    4.7138  -11.8417   -5.6024 H   0  0  0  0  0  0  0  0  0  0  0  0
    2.7560  -12.4913   -2.6250 H   0  0  0  0  0  0  0  0  0  0  0  0
    1.1944  -12.1872   -3.4845 H   0  0  0  0  0  0  0  0  0  0  0  0
    1.6051  -14.6180   -3.0583 H   0  0  0  0  0  0  0  0  0  0  0  0
    1.4865  -14.2137   -4.8139 H   0  0  0  0  0  0  0  0  0  0  0  0
   -1.0440  -17.0912   -1.6236 H   0  0  0  0  0  0  0  0  0  0  0  0
   -3.1270  -14.2277    3.0965 H   0  0  0  0  0  0  0  0  0  0  0  0
   -5.1533  -14.4312    7.0562 H   0  0  0  0  0  0  0  0  0  0  0  0
   -6.7884  -14.7979    8.9045 H   0  0  0  0  0  0  0  0  0  0  0  0
   -9.0341  -15.7557    8.4193 H   0  0  0  0  0  0  0  0  0  0  0  0
   -8.0165  -16.0082    4.2209 H   0  0  0  0  0  0  0  0  0  0  0  0
  1  2  2  0
  2  3  1  0
  3  4  1  0
  4  5  2  0
  5  6  1  0
  6  7  2  0
  7  8  1  0
  8  9  1  0
  9 10  2  0
 10 11  1  0
 11 12  2  0
 12 13  1  0
 13 14  2  0
 14 15  1  0
 15 16  3  0
 16 17  1  0
 17 18  1  0
 18 19  1  0
 19 20  1  0
 20 21  1  0
 21 22  1  0
 22 23  1  0
 23 24  1  0
 24 25  1  0
 14 26  1  0
 26 27  2  0
 27 28  1  0
  8 29  2  0
  2 30  1  0
 30 31  2  0
 31 32  1  0
 32 33  2  0
 33 34  1  0
 34 35  1  0
 35 36  1  0
 35 37  1  0
 35 38  1  0
 34 39  2  0
 29  4  1  0
 39 30  1  0
 28  9  1  0
 28 13  1  0
 25 20  1  0
  3 40  1  0
  5 41  1  0
  6 42  1  0
  7 43  1  0
 10 44  1  0
 11 45  1  0
 17 46  1  0
 17 47  1  0
 18 48  1  0
 18 49  1  0
 19 50  1  0
 19 51  1  0
 20 52  1  0
 21 53  1  0
 21 54  1  0
 22 55  1  0
 22 56  1  0
 24 57  1  0
 24 58  1  0
 25 59  1  0
 25 60  1  0
 26 61  1  0
 29 62  1  0
 31 63  1  0
 32 64  1  0
 33 65  1  0
 39 66  1  0
M  CHG  1  20   1
M  END
>  <meeko>  (8) 
{"is_sidechain": [false], "free_energy": -8.538, "intermolecular_energy": -12.673, "internal_energy": -1.024}

$$$$
LIB_SOWMPGHFKGHWIR__M_PUB_ALL__e8__s20260927
     RDKit          3D

 66 70  0  0  0  0  0  0  0  0999 V2000
    0.6430  -13.7820   -0.8430 O   0  0  0  0  0  0  0  0  0  0  0  0
    0.8430  -12.7070   -0.2880 C   0  0  0  0  0  0  0  0  0  0  0  0
    1.6740  -11.6900   -0.7220 N   0  0  0  0  0  0  0  0  0  0  0  0
    2.5070  -11.6930   -1.8620 C   0  0  0  0  0  0  0  0  0  0  0  0
    2.2910  -10.6950   -2.8180 C   0  0  0  0  0  0  0  0  0  0  0  0
    3.0790  -10.6320   -3.9690 C   0  0  0  0  0  0  0  0  0  0  0  0
    4.0930  -11.5670   -4.1760 C   0  0  0  0  0  0  0  0  0  0  0  0
    4.3280  -12.5750   -3.2340 C   0  0  0  0  0  0  0  0  0  0  0  0
    5.3980  -13.5730   -3.4380 C   0  0  0  0  0  0  0  0  0  0  0  0
    5.4050  -14.2940   -4.5760 C   0  0  0  0  0  0  0  0  0  0  0  0
    6.5220  -15.2570   -4.7400 C   0  0  0  0  0  0  0  0  0  0  0  0
    7.4910  -15.4750   -3.9000 N   0  0  0  0  0  0  0  0  0  0  0  0
    7.4250  -14.7480   -2.7340 C   0  0  0  0  0  0  0  0  0  0  0  0
    8.2170  -14.7460   -1.6050 C   0  0  0  0  0  0  0  0  0  0  0  0
    9.3570  -15.5650   -1.4030 C   0  0  0  0  0  0  0  0  0  0  0  0
   10.3090  -16.2950   -1.3610 C   0  0  0  0  0  0  0  0  0  0  0  0
   11.4290  -17.2280   -1.4900 C   0  0  0  0  0  0  0  0  0  0  0  0
   12.4660  -16.7500   -2.5080 C   0  0  0  0  0  0  0  0  0  0  0  0
   12.8460  -15.2650   -2.4860 C   0  0  0  0  0  0  0  0  0  0  0  0
   12.4600  -14.5040   -3.7290 N   0  0  0  0  0  0  0  0  0  0  0  0
   13.6060  -13.9560   -4.5650 C   0  0  0  0  0  0  0  0  0  0  0  0
   14.2180  -12.7170   -3.9030 C   0  0  0  0  0  0  0  0  0  0  0  0
   13.2270  -11.7060   -3.6870 O   0  0  0  0  0  0  0  0  0  0  0  0
   12.1720  -12.1660   -2.8330 C   0  0  0  0  0  0  0  0  0  0  0  0
   11.4610  -13.3800   -3.4400 C   0  0  0  0  0  0  0  0  0  0  0  0
    7.6600  -13.7900   -0.7490 C   0  0  0  0  0  0  0  0  0  0  0  0
    6.5830  -13.2050   -1.2720 N   0  0  0  0  0  0  0  0  0  0  0  0
    6.4100  -13.8000   -2.4860 N   0  0  0  0  0  0  0  0  0  0  0  0
    3.5230  -12.6280   -2.0810 C   0  0  0  0  0  0  0  0  0  0  0  0
    0.1030  -12.4240    0.9760 C   0  0  0  0  0  0  0  0  0  0  0  0
   -0.2030  -13.4330    1.8960 C   0  0  0  0  0  0  0  0  0  0  0  0
   -0.9070  -13.1240    3.0610 C   0  0  0  0  0  0  0  0  0  0  0  0
   -1.3160  -11.8120    3.3060 C   0  0  0  0  0  0  0  0  0  0  0  0
   -1.0270  -10.7900    2.3890 C   0  0  0  0  0  0  0  0  0  0  0  0
   -1.4980   -9.3750    2.6310 C   0  0  0  0  0  0  0  0  0  0  0  0
   -0.5340   -8.4560    2.3510 F   0  0  0  0  0  0  0  0  0  0  0  0
   -2.5770   -9.0330    1.8740 F   0  0  0  0  0  0  0  0  0  0  0  0
   -1.8650   -9.1550    3.9230 F   0  0  0  0  0  0  0  0  0  0  0  0
   -0.3240  -11.1110    1.2160 C   0  0  0  0  0  0  0  0  0  0  0  0
    1.6690  -10.8290   -0.1890 H   0  0  0  0  0  0  0  0  0  0  0  0
    1.4936   -9.9535   -2.6617 H   0  0  0  0  0  0  0  0  0  0  0  0
    2.8996   -9.8431   -4.7143 H   0  0  0  0  0  0  0  0  0  0  0  0
    4.7111  -11.5119   -5.0842 H   0  0  0  0  0  0  0  0  0  0  0  0
    4.6248  -14.1752   -5.3423 H   0  0  0  0  0  0  0  0  0  0  0  0
    6.5316  -15.8476   -5.6679 H   0  0  0  0  0  0  0  0  0  0  0  0
   11.9172  -17.3329   -0.5099 H   0  0  0  0  0  0  0  0  0  0  0  0
   11.0281  -18.1896   -1.8430 H   0  0  0  0  0  0  0  0  0  0  0  0
   13.3861  -17.3283   -2.3376 H   0  0  0  0  0  0  0  0  0  0  0  0
   11.9891  -16.9031   -3.4874 H   0  0  0  0  0  0  0  0  0  0  0  0
   12.3465  -14.7949   -1.6260 H   0  0  0  0  0  0  0  0  0  0  0  0
   13.9433  -15.2231   -2.4207 H   0  0  0  0  0  0  0  0  0  0  0  0
   11.9220  -15.1510   -4.3270 H   0  0  0  0  0  0  0  0  0  0  0  0
   14.3806  -14.7303   -4.6668 H   0  0  0  0  0  0  0  0  0  0  0  0
   13.2168  -13.6717   -5.5538 H   0  0  0  0  0  0  0  0  0  0  0  0
   14.6543  -13.0052   -2.9352 H   0  0  0  0  0  0  0  0  0  0  0  0
   14.9924  -12.3106   -4.5702 H   0  0  0  0  0  0  0  0  0  0  0  0
   12.5961  -12.4483   -1.8581 H   0  0  0  0  0  0  0  0  0  0  0  0
   11.4388  -11.3545   -2.7151 H   0  0  0  0  0  0  0  0  0  0  0  0
   10.7018  -13.7448   -2.7325 H   0  0  0  0  0  0  0  0  0  0  0  0
   10.9874  -13.0763   -4.3852 H   0  0  0  0  0  0  0  0  0  0  0  0
    8.0656  -13.5483    0.2445 H   0  0  0  0  0  0  0  0  0  0  0  0
    3.6965  -13.4202   -1.3378 H   0  0  0  0  0  0  0  0  0  0  0  0
    0.1111  -14.4691    1.7012 H   0  0  0  0  0  0  0  0  0  0  0  0
   -1.1400  -13.9162    3.7877 H   0  0  0  0  0  0  0  0  0  0  0  0
   -1.8701  -11.5771    4.2267 H   0  0  0  0  0  0  0  0  0  0  0  0
   -0.1066  -10.3242    0.4787 H   0  0  0  0  0  0  0  0  0  0  0  0
  1  2  2  0
  2  3  1  0
  3  4  1  0
  4  5  2  0
  5  6  1  0
  6  7  2  0
  7  8  1  0
  8  9  1  0
  9 10  2  0
 10 11  1  0
 11 12  2  0
 12 13  1  0
 13 14  2  0
 14 15  1  0
 15 16  3  0
 16 17  1  0
 17 18  1  0
 18 19  1  0
 19 20  1  0
 20 21  1  0
 21 22  1  0
 22 23  1  0
 23 24  1  0
 24 25  1  0
 14 26  1  0
 26 27  2  0
 27 28  1  0
  8 29  2  0
  2 30  1  0
 30 31  2  0
 31 32  1  0
 32 33  2  0
 33 34  1  0
 34 35  1  0
 35 36  1  0
 35 37  1  0
 35 38  1  0
 34 39  2  0
 29  4  1  0
 39 30  1  0
 28  9  1  0
 28 13  1  0
 25 20  1  0
  3 40  1  0
  5 41  1  0
  6 42  1  0
  7 43  1  0
 10 44  1  0
 11 45  1  0
 17 46  1  0
 17 47  1  0
 18 48  1  0
 18 49  1  0
 19 50  1  0
 19 51  1  0
 20 52  1  0
 21 53  1  0
 21 54  1  0
 22 55  1  0
 22 56  1  0
 24 57  1  0
 24 58  1  0
 25 59  1  0
 25 60  1  0
 26 61  1  0
 29 62  1  0
 31 63  1  0
 32 64  1  0
 33 65  1  0
 39 66  1  0
M  CHG  1  20   1
M  END
>  <meeko>  (9) 
{"is_sidechain": [false], "free_energy": -8.443, "intermolecular_energy": -12.343, "internal_energy": -1.215}

$$$$
