LIB_MYAFDHCCQBIZLC__M_PUB_ALL__e8__s20260927
     RDKit          3D

 58 62  0  0  0  0  0  0  0  0999 V2000
    4.0410  -13.4100   -6.1800 O   0  0  0  0  0  0  0  0  0  0  0  0
    5.0660  -12.9250   -5.7190 C   0  0  0  0  0  0  0  0  0  0  0  0
    5.1410  -12.2150   -4.5280 N   0  0  0  0  0  0  0  0  0  0  0  0
    4.0710  -11.8020   -3.7050 C   0  0  0  0  0  0  0  0  0  0  0  0
    3.3690  -10.6570   -4.0960 C   0  0  0  0  0  0  0  0  0  0  0  0
    2.2950  -10.1890   -3.3390 C   0  0  0  0  0  0  0  0  0  0  0  0
    1.9160  -10.8640   -2.1790 C   0  0  0  0  0  0  0  0  0  0  0  0
    2.6030  -12.0120   -1.7610 C   0  0  0  0  0  0  0  0  0  0  0  0
    2.1660  -12.7200   -0.5300 C   0  0  0  0  0  0  0  0  0  0  0  0
    2.7440  -13.8910   -0.1850 C   0  0  0  0  0  0  0  0  0  0  0  0
    2.3230  -14.5120    0.9700 N   0  0  0  0  0  0  0  0  0  0  0  0
    2.6950  -15.6800    1.5770 C   0  0  0  0  0  0  0  0  0  0  0  0
    1.9110  -15.7610    2.7090 C   0  0  0  0  0  0  0  0  0  0  0  0
    1.0720  -14.6760    2.8140 N   0  0  0  0  0  0  0  0  0  0  0  0
    1.3500  -13.9510    1.7480 C   0  0  0  0  0  0  0  0  0  0  0  0
    0.7640  -12.6850    1.3470 C   0  0  0  0  0  0  0  0  0  0  0  0
   -0.2110  -12.0970    2.1120 N   0  0  0  0  0  0  0  0  0  0  0  0
   -0.8630  -10.8600    1.7830 C   0  0  0  0  0  0  0  0  0  0  0  0
   -2.1490  -11.1470    1.0460 C   0  0  0  0  0  0  0  0  0  0  0  0
   -2.6120  -10.2700    0.0540 C   0  0  0  0  0  0  0  0  0  0  0  0
   -3.8140  -10.5230   -0.6090 C   0  0  0  0  0  0  0  0  0  0  0  0
   -4.5680  -11.6490   -0.2830 C   0  0  0  0  0  0  0  0  0  0  0  0
   -4.1240  -12.5210    0.7110 C   0  0  0  0  0  0  0  0  0  0  0  0
   -2.9240  -12.2700    1.3760 C   0  0  0  0  0  0  0  0  0  0  0  0
    1.1810  -12.1080    0.2410 N   0  0  0  0  0  0  0  0  0  0  0  0
    3.6720  -12.4790   -2.5480 C   0  0  0  0  0  0  0  0  0  0  0  0
    6.3200  -13.0110   -6.3090 N   0  0  0  0  0  0  0  0  0  0  0  0
    6.6820  -13.7320   -7.4650 C   0  0  0  0  0  0  0  0  0  0  0  0
    7.0710  -15.0670   -7.2870 C   0  0  0  0  0  0  0  0  0  0  0  0
    7.4450  -15.8530   -8.3780 C   0  0  0  0  0  0  0  0  0  0  0  0
    7.4300  -15.3160   -9.6620 C   0  0  0  0  0  0  0  0  0  0  0  0
    7.0330  -13.9870   -9.8660 C   0  0  0  0  0  0  0  0  0  0  0  0
    7.0240  -13.3850  -11.2490 C   0  0  0  0  0  0  0  0  0  0  0  0
    8.2050  -13.5430  -11.9080 F   0  0  0  0  0  0  0  0  0  0  0  0
    6.7820  -12.0430  -11.2490 F   0  0  0  0  0  0  0  0  0  0  0  0
    6.0690  -13.9320  -12.0500 F   0  0  0  0  0  0  0  0  0  0  0  0
    6.6650  -13.2030   -8.7570 C   0  0  0  0  0  0  0  0  0  0  0  0
    6.0650  -12.0420   -4.1660 H   0  0  0  0  0  0  0  0  0  0  0  0
    3.6668  -10.1206   -5.0090 H   0  0  0  0  0  0  0  0  0  0  0  0
    1.7479   -9.2890   -3.6564 H   0  0  0  0  0  0  0  0  0  0  0  0
    1.0683  -10.4912   -1.5853 H   0  0  0  0  0  0  0  0  0  0  0  0
    3.5310  -14.3374   -0.8106 H   0  0  0  0  0  0  0  0  0  0  0  0
    3.4547  -16.3989    1.2363 H   0  0  0  0  0  0  0  0  0  0  0  0
    1.9515  -16.5869    3.4344 H   0  0  0  0  0  0  0  0  0  0  0  0
   -0.4970  -12.5890    2.9530 H   0  0  0  0  0  0  0  0  0  0  0  0
   -1.0861  -10.3065    2.7070 H   0  0  0  0  0  0  0  0  0  0  0  0
   -0.2018  -10.2568    1.1436 H   0  0  0  0  0  0  0  0  0  0  0  0
   -2.0238   -9.3768   -0.2032 H   0  0  0  0  0  0  0  0  0  0  0  0
   -4.1666   -9.8329   -1.3897 H   0  0  0  0  0  0  0  0  0  0  0  0
   -5.5128  -11.8499   -0.8094 H   0  0  0  0  0  0  0  0  0  0  0  0
   -4.7210  -13.4077    0.9707 H   0  0  0  0  0  0  0  0  0  0  0  0
   -2.5825  -12.9568    2.1645 H   0  0  0  0  0  0  0  0  0  0  0  0
    4.2039  -13.3938   -2.2476 H   0  0  0  0  0  0  0  0  0  0  0  0
    7.0440  -12.4420   -5.8990 H   0  0  0  0  0  0  0  0  0  0  0  0
    7.0816  -15.5000   -6.2759 H   0  0  0  0  0  0  0  0  0  0  0  0
    7.7519  -16.8979   -8.2229 H   0  0  0  0  0  0  0  0  0  0  0  0
    7.7306  -15.9362  -10.5193 H   0  0  0  0  0  0  0  0  0  0  0  0
    6.3593  -12.1575   -8.9103 H   0  0  0  0  0  0  0  0  0  0  0  0
  1  2  2  0
  2  3  1  0
  3  4  1  0
  4  5  2  0
  5  6  1  0
  6  7  2  0
  7  8  1  0
  8  9  1  0
  9 10  2  0
 10 11  1  0
 11 12  1  0
 12 13  2  0
 13 14  1  0
 14 15  2  0
 15 16  1  0
 16 17  1  0
 17 18  1  0
 18 19  1  0
 19 20  2  0
 20 21  1  0
 21 22  2  0
 22 23  1  0
 23 24  2  0
 16 25  2  0
  8 26  2  0
  2 27  1  0
 27 28  1  0
 28 29  2  0
 29 30  1  0
 30 31  2  0
 31 32  1  0
 32 33  1  0
 33 34  1  0
 33 35  1  0
 33 36  1  0
 32 37  2  0
 26  4  1  0
 37 28  1  0
 25  9  1  0
 15 11  1  0
 24 19  1  0
  3 38  1  0
  5 39  1  0
  6 40  1  0
  7 41  1  0
 10 42  1  0
 12 43  1  0
 13 44  1  0
 17 45  1  0
 18 46  1  0
 18 47  1  0
 20 48  1  0
 21 49  1  0
 22 50  1  0
 23 51  1  0
 24 52  1  0
 26 53  1  0
 27 54  1  0
 29 55  1  0
 30 56  1  0
 31 57  1  0
 37 58  1  0
M  END
>  <meeko>  (1) 
{"is_sidechain": [false], "free_energy": -10.066, "intermolecular_energy": -13.597, "internal_energy": -1.152}

$$$$
LIB_MYAFDHCCQBIZLC__M_PUB_ALL__e8__s20260927
     RDKit          3D

 58 62  0  0  0  0  0  0  0  0999 V2000
    6.1570  -12.3050   -5.5220 O   0  0  0  0  0  0  0  0  0  0  0  0
    5.2700  -12.7260   -6.2520 C   0  0  0  0  0  0  0  0  0  0  0  0
    3.9140  -12.7000   -5.9490 N   0  0  0  0  0  0  0  0  0  0  0  0
    3.3140  -12.3250   -4.7280 C   0  0  0  0  0  0  0  0  0  0  0  0
    3.2770  -10.9580   -4.4280 C   0  0  0  0  0  0  0  0  0  0  0  0
    2.6950  -10.5060   -3.2440 C   0  0  0  0  0  0  0  0  0  0  0  0
    2.1450  -11.4220   -2.3470 C   0  0  0  0  0  0  0  0  0  0  0  0
    2.1700  -12.7960   -2.6190 C   0  0  0  0  0  0  0  0  0  0  0  0
    1.5610  -13.7470   -1.6520 C   0  0  0  0  0  0  0  0  0  0  0  0
    1.7880  -15.0720   -1.7770 C   0  0  0  0  0  0  0  0  0  0  0  0
    1.2190  -15.9220   -0.8540 N   0  0  0  0  0  0  0  0  0  0  0  0
    1.2520  -17.2810   -0.7100 C   0  0  0  0  0  0  0  0  0  0  0  0
    0.4860  -17.5420    0.4080 C   0  0  0  0  0  0  0  0  0  0  0  0
   -0.0120  -16.3810    0.9530 N   0  0  0  0  0  0  0  0  0  0  0  0
    0.4510  -15.4320    0.1630 C   0  0  0  0  0  0  0  0  0  0  0  0
    0.2420  -13.9990    0.2670 C   0  0  0  0  0  0  0  0  0  0  0  0
   -0.5210  -13.4790    1.2820 N   0  0  0  0  0  0  0  0  0  0  0  0
   -0.8010  -12.0800    1.4510 C   0  0  0  0  0  0  0  0  0  0  0  0
   -2.1000  -11.7380    0.7630 C   0  0  0  0  0  0  0  0  0  0  0  0
   -2.2720  -10.4900    0.1460 C   0  0  0  0  0  0  0  0  0  0  0  0
   -3.4820  -10.1650   -0.4680 C   0  0  0  0  0  0  0  0  0  0  0  0
   -4.5340  -11.0780   -0.4650 C   0  0  0  0  0  0  0  0  0  0  0  0
   -4.3800  -12.3170    0.1570 C   0  0  0  0  0  0  0  0  0  0  0  0
   -3.1710  -12.6440    0.7720 C   0  0  0  0  0  0  0  0  0  0  0  0
    0.7960  -13.2050   -0.6230 N   0  0  0  0  0  0  0  0  0  0  0  0
    2.7450  -13.2310   -3.8280 C   0  0  0  0  0  0  0  0  0  0  0  0
    5.4720  -13.2930   -7.5030 N   0  0  0  0  0  0  0  0  0  0  0  0
    6.6860  -13.4060   -8.2120 C   0  0  0  0  0  0  0  0  0  0  0  0
    7.6000  -14.3680   -7.7620 C   0  0  0  0  0  0  0  0  0  0  0  0
    8.8250  -14.5470   -8.4070 C   0  0  0  0  0  0  0  0  0  0  0  0
    9.1490  -13.7680   -9.5150 C   0  0  0  0  0  0  0  0  0  0  0  0
    8.2460  -12.8070   -9.9910 C   0  0  0  0  0  0  0  0  0  0  0  0
    8.5880  -11.9450  -11.1810 C   0  0  0  0  0  0  0  0  0  0  0  0
    9.8250  -11.3830  -11.0940 F   0  0  0  0  0  0  0  0  0  0  0  0
    7.7240  -10.9050  -11.3550 F   0  0  0  0  0  0  0  0  0  0  0  0
    8.5700  -12.6400  -12.3500 F   0  0  0  0  0  0  0  0  0  0  0  0
    7.0180  -12.6320   -9.3260 C   0  0  0  0  0  0  0  0  0  0  0  0
    3.2810  -12.8930   -6.7080 H   0  0  0  0  0  0  0  0  0  0  0  0
    3.7111  -10.2336   -5.1329 H   0  0  0  0  0  0  0  0  0  0  0  0
    2.6697   -9.4298   -3.0179 H   0  0  0  0  0  0  0  0  0  0  0  0
    1.6861  -11.0610   -1.4148 H   0  0  0  0  0  0  0  0  0  0  0  0
    2.4112  -15.4629   -2.5948 H   0  0  0  0  0  0  0  0  0  0  0  0
    1.7756  -18.0089   -1.3472 H   0  0  0  0  0  0  0  0  0  0  0  0
    0.2980  -18.5480    0.8112 H   0  0  0  0  0  0  0  0  0  0  0  0
   -0.9270  -14.1400    1.9380 H   0  0  0  0  0  0  0  0  0  0  0  0
   -0.8829  -11.8498    2.5235 H   0  0  0  0  0  0  0  0  0  0  0  0
    0.0139  -11.4879    1.0090 H   0  0  0  0  0  0  0  0  0  0  0  0
   -1.4470   -9.7624    0.1462 H   0  0  0  0  0  0  0  0  0  0  0  0
   -3.6054   -9.1865   -0.9551 H   0  0  0  0  0  0  0  0  0  0  0  0
   -5.4860  -10.8220   -0.9530 H   0  0  0  0  0  0  0  0  0  0  0  0
   -5.2120  -13.0365    0.1627 H   0  0  0  0  0  0  0  0  0  0  0  0
   -3.0568  -13.6194    1.2676 H   0  0  0  0  0  0  0  0  0  0  0  0
    2.7467  -14.3042   -4.0692 H   0  0  0  0  0  0  0  0  0  0  0  0
    4.6710  -13.7300   -7.9290 H   0  0  0  0  0  0  0  0  0  0  0  0
    7.3492  -14.9897   -6.8899 H   0  0  0  0  0  0  0  0  0  0  0  0
    9.5344  -15.3034   -8.0401 H   0  0  0  0  0  0  0  0  0  0  0  0
   10.1170  -13.9072  -10.0186 H   0  0  0  0  0  0  0  0  0  0  0  0
    6.3087  -11.8738   -9.6894 H   0  0  0  0  0  0  0  0  0  0  0  0
  1  2  2  0
  2  3  1  0
  3  4  1  0
  4  5  2  0
  5  6  1  0
  6  7  2  0
  7  8  1  0
  8  9  1  0
  9 10  2  0
 10 11  1  0
 11 12  1  0
 12 13  2  0
 13 14  1  0
 14 15  2  0
 15 16  1  0
 16 17  1  0
 17 18  1  0
 18 19  1  0
 19 20  2  0
 20 21  1  0
 21 22  2  0
 22 23  1  0
 23 24  2  0
 16 25  2  0
  8 26  2  0
  2 27  1  0
 27 28  1  0
 28 29  2  0
 29 30  1  0
 30 31  2  0
 31 32  1  0
 32 33  1  0
 33 34  1  0
 33 35  1  0
 33 36  1  0
 32 37  2  0
 26  4  1  0
 37 28  1  0
 25  9  1  0
 15 11  1  0
 24 19  1  0
  3 38  1  0
  5 39  1  0
  6 40  1  0
  7 41  1  0
 10 42  1  0
 12 43  1  0
 13 44  1  0
 17 45  1  0
 18 46  1  0
 18 47  1  0
 20 48  1  0
 21 49  1  0
 22 50  1  0
 23 51  1  0
 24 52  1  0
 26 53  1  0
 27 54  1  0
 29 55  1  0
 30 56  1  0
 31 57  1  0
 37 58  1  0
M  END
>  <meeko>  (2) 
{"is_sidechain": [false], "free_energy": -9.362, "intermolecular_energy": -12.774, "internal_energy": -1.024}

$$$$
LIB_MYAFDHCCQBIZLC__M_PUB_ALL__e8__s20260927
     RDKit          3D

 58 62  0  0  0  0  0  0  0  0999 V2000
    4.2740  -13.0060   -6.8240 O   0  0  0  0  0  0  0  0  0  0  0  0
    5.3100  -12.9340   -6.1750 C   0  0  0  0  0  0  0  0  0  0  0  0
    5.3850  -12.5640   -4.8390 N   0  0  0  0  0  0  0  0  0  0  0  0
    4.3410  -12.0800   -4.0210 C   0  0  0  0  0  0  0  0  0  0  0  0
    3.6800  -10.9220   -4.4480 C   0  0  0  0  0  0  0  0  0  0  0  0
    2.6330  -10.3850   -3.6990 C   0  0  0  0  0  0  0  0  0  0  0  0
    2.2400  -11.0030   -2.5120 C   0  0  0  0  0  0  0  0  0  0  0  0
    2.8850  -12.1620   -2.0580 C   0  0  0  0  0  0  0  0  0  0  0  0
    2.4340  -12.8070   -0.7980 C   0  0  0  0  0  0  0  0  0  0  0  0
    3.0060  -13.9590   -0.3880 C   0  0  0  0  0  0  0  0  0  0  0  0
    2.5720  -14.5210    0.7920 N   0  0  0  0  0  0  0  0  0  0  0  0
    2.9360  -15.6570    1.4600 C   0  0  0  0  0  0  0  0  0  0  0  0
    2.1390  -15.6810    2.5860 C   0  0  0  0  0  0  0  0  0  0  0  0
    1.3000  -14.5920    2.6270 N   0  0  0  0  0  0  0  0  0  0  0  0
    1.5910  -13.9220    1.5290 C   0  0  0  0  0  0  0  0  0  0  0  0
    1.0110  -12.6770    1.0590 C   0  0  0  0  0  0  0  0  0  0  0  0
    0.0270  -12.0510    1.7820 N   0  0  0  0  0  0  0  0  0  0  0  0
   -0.6200  -10.8320    1.3840 C   0  0  0  0  0  0  0  0  0  0  0  0
   -1.9810  -11.1460    0.8120 C   0  0  0  0  0  0  0  0  0  0  0  0
   -2.5980  -10.2620   -0.0850 C   0  0  0  0  0  0  0  0  0  0  0  0
   -3.8670  -10.5410   -0.5940 C   0  0  0  0  0  0  0  0  0  0  0  0
   -4.5360  -11.7000   -0.2050 C   0  0  0  0  0  0  0  0  0  0  0  0
   -3.9390  -12.5800    0.6960 C   0  0  0  0  0  0  0  0  0  0  0  0
   -2.6700  -12.3030    1.2060 C   0  0  0  0  0  0  0  0  0  0  0  0
    1.4410  -12.1560   -0.0700 N   0  0  0  0  0  0  0  0  0  0  0  0
    3.9270  -12.6980   -2.8370 C   0  0  0  0  0  0  0  0  0  0  0  0
    6.5760  -13.2160   -6.6680 N   0  0  0  0  0  0  0  0  0  0  0  0
    6.9140  -13.7220   -7.9410 C   0  0  0  0  0  0  0  0  0  0  0  0
    6.5310  -12.9600   -9.0520 C   0  0  0  0  0  0  0  0  0  0  0  0
    6.8260  -13.3880  -10.3480 C   0  0  0  0  0  0  0  0  0  0  0  0
    7.5130  -14.5820  -10.5480 C   0  0  0  0  0  0  0  0  0  0  0  0
    7.9170  -15.3560   -9.4510 C   0  0  0  0  0  0  0  0  0  0  0  0
    8.6500  -16.6600   -9.6500 C   0  0  0  0  0  0  0  0  0  0  0  0
    9.9670  -16.4910   -9.9520 F   0  0  0  0  0  0  0  0  0  0  0  0
    8.1350  -17.4150  -10.6610 F   0  0  0  0  0  0  0  0  0  0  0  0
    8.6150  -17.4510   -8.5430 F   0  0  0  0  0  0  0  0  0  0  0  0
    7.6070  -14.9170   -8.1500 C   0  0  0  0  0  0  0  0  0  0  0  0
    6.2620  -12.7340   -4.3750 H   0  0  0  0  0  0  0  0  0  0  0  0
    3.9892  -10.4312   -5.3826 H   0  0  0  0  0  0  0  0  0  0  0  0
    2.1183   -9.4760   -4.0438 H   0  0  0  0  0  0  0  0  0  0  0  0
    1.4138  -10.5757   -1.9248 H   0  0  0  0  0  0  0  0  0  0  0  0
    3.7991  -14.4370   -0.9817 H   0  0  0  0  0  0  0  0  0  0  0  0
    3.6987  -16.3923    1.1640 H   0  0  0  0  0  0  0  0  0  0  0  0
    2.1706  -16.4696    3.3523 H   0  0  0  0  0  0  0  0  0  0  0  0
   -0.2680  -12.5010    2.6430 H   0  0  0  0  0  0  0  0  0  0  0  0
   -0.7331  -10.1748    2.2588 H   0  0  0  0  0  0  0  0  0  0  0  0
   -0.0102  -10.3265    0.6208 H   0  0  0  0  0  0  0  0  0  0  0  0
   -2.0778   -9.3419   -0.3896 H   0  0  0  0  0  0  0  0  0  0  0  0
   -4.3397   -9.8454   -1.3030 H   0  0  0  0  0  0  0  0  0  0  0  0
   -5.5351  -11.9203   -0.6090 H   0  0  0  0  0  0  0  0  0  0  0  0
   -4.4684  -13.4933    1.0052 H   0  0  0  0  0  0  0  0  0  0  0  0
   -2.2063  -12.9970    1.9224 H   0  0  0  0  0  0  0  0  0  0  0  0
    4.4258  -13.6216   -2.5080 H   0  0  0  0  0  0  0  0  0  0  0  0
    7.3510  -12.9720   -6.0710 H   0  0  0  0  0  0  0  0  0  0  0  0
    5.9915  -12.0132   -8.9019 H   0  0  0  0  0  0  0  0  0  0  0  0
    6.5153  -12.7813  -11.2114 H   0  0  0  0  0  0  0  0  0  0  0  0
    7.7397  -14.9194  -11.5701 H   0  0  0  0  0  0  0  0  0  0  0  0
    7.9148  -15.5235   -7.2855 H   0  0  0  0  0  0  0  0  0  0  0  0
  1  2  2  0
  2  3  1  0
  3  4  1  0
  4  5  2  0
  5  6  1  0
  6  7  2  0
  7  8  1  0
  8  9  1  0
  9 10  2  0
 10 11  1  0
 11 12  1  0
 12 13  2  0
 13 14  1  0
 14 15  2  0
 15 16  1  0
 16 17  1  0
 17 18  1  0
 18 19  1  0
 19 20  2  0
 20 21  1  0
 21 22  2  0
 22 23  1  0
 23 24  2  0
 16 25  2  0
  8 26  2  0
  2 27  1  0
 27 28  1  0
 28 29  2  0
 29 30  1  0
 30 31  2  0
 31 32  1  0
 32 33  1  0
 33 34  1  0
 33 35  1  0
 33 36  1  0
 32 37  2  0
 26  4  1  0
 37 28  1  0
 25  9  1  0
 15 11  1  0
 24 19  1  0
  3 38  1  0
  5 39  1  0
  6 40  1  0
  7 41  1  0
 10 42  1  0
 12 43  1  0
 13 44  1  0
 17 45  1  0
 18 46  1  0
 18 47  1  0
 20 48  1  0
 21 49  1  0
 22 50  1  0
 23 51  1  0
 24 52  1  0
 26 53  1  0
 27 54  1  0
 29 55  1  0
 30 56  1  0
 31 57  1  0
 37 58  1  0
M  END
>  <meeko>  (3) 
{"is_sidechain": [false], "free_energy": -9.14, "intermolecular_energy": -12.709, "internal_energy": -0.788}

$$$$
LIB_MYAFDHCCQBIZLC__M_PUB_ALL__e8__s20260927
     RDKit          3D

 58 62  0  0  0  0  0  0  0  0999 V2000
    7.1600  -11.3820   -1.3000 O   0  0  0  0  0  0  0  0  0  0  0  0
    7.0780  -12.3300   -2.0700 C   0  0  0  0  0  0  0  0  0  0  0  0
    5.8870  -12.8570   -2.5540 N   0  0  0  0  0  0  0  0  0  0  0  0
    4.5740  -12.5120   -2.1670 C   0  0  0  0  0  0  0  0  0  0  0  0
    3.9110  -11.5540   -2.9410 C   0  0  0  0  0  0  0  0  0  0  0  0
    2.6090  -11.1640   -2.6270 C   0  0  0  0  0  0  0  0  0  0  0  0
    1.9600  -11.7300   -1.5300 C   0  0  0  0  0  0  0  0  0  0  0  0
    2.6010  -12.6900   -0.7350 C   0  0  0  0  0  0  0  0  0  0  0  0
    1.8780  -13.2880    0.4170 C   0  0  0  0  0  0  0  0  0  0  0  0
    2.2230  -14.5140    0.8670 C   0  0  0  0  0  0  0  0  0  0  0  0
    1.5400  -15.0310    1.9460 N   0  0  0  0  0  0  0  0  0  0  0  0
    1.6430  -16.2160    2.6200 C   0  0  0  0  0  0  0  0  0  0  0  0
    0.6850  -16.1490    3.6100 C   0  0  0  0  0  0  0  0  0  0  0  0
   -0.0000  -14.9580    3.5630 N   0  0  0  0  0  0  0  0  0  0  0  0
    0.5440  -14.3160    2.5480 C   0  0  0  0  0  0  0  0  0  0  0  0
    0.2120  -12.9970    2.0400 C   0  0  0  0  0  0  0  0  0  0  0  0
   -0.7810  -12.2550    2.6280 N   0  0  0  0  0  0  0  0  0  0  0  0
   -1.1920  -10.9530    2.1810 C   0  0  0  0  0  0  0  0  0  0  0  0
   -2.3770  -11.0880    1.2560 C   0  0  0  0  0  0  0  0  0  0  0  0
   -3.3090  -12.1210    1.4390 C   0  0  0  0  0  0  0  0  0  0  0  0
   -4.3910  -12.2600    0.5680 C   0  0  0  0  0  0  0  0  0  0  0  0
   -4.5470  -11.3760   -0.4980 C   0  0  0  0  0  0  0  0  0  0  0  0
   -3.6210  -10.3530   -0.6970 C   0  0  0  0  0  0  0  0  0  0  0  0
   -2.5380  -10.2120    0.1720 C   0  0  0  0  0  0  0  0  0  0  0  0
    0.8780  -12.5210    1.0100 N   0  0  0  0  0  0  0  0  0  0  0  0
    3.9070  -13.0840   -1.0790 C   0  0  0  0  0  0  0  0  0  0  0  0
    8.1590  -13.0280   -2.5890 N   0  0  0  0  0  0  0  0  0  0  0  0
    9.5300  -12.7420   -2.4260 C   0  0  0  0  0  0  0  0  0  0  0  0
   10.2790  -12.5230   -3.5900 C   0  0  0  0  0  0  0  0  0  0  0  0
   11.6420  -12.2320   -3.5200 C   0  0  0  0  0  0  0  0  0  0  0  0
   12.2740  -12.1520   -2.2810 C   0  0  0  0  0  0  0  0  0  0  0  0
   11.5440  -12.3550   -1.1020 C   0  0  0  0  0  0  0  0  0  0  0  0
   12.2150  -12.2860    0.2470 C   0  0  0  0  0  0  0  0  0  0  0  0
   12.6160  -13.5030    0.7060 F   0  0  0  0  0  0  0  0  0  0  0  0
   11.4110  -11.7730    1.2210 F   0  0  0  0  0  0  0  0  0  0  0  0
   13.3270  -11.5020    0.2360 F   0  0  0  0  0  0  0  0  0  0  0  0
   10.1710  -12.6540   -1.1890 C   0  0  0  0  0  0  0  0  0  0  0  0
    5.9620  -13.5000   -3.3250 H   0  0  0  0  0  0  0  0  0  0  0  0
    4.4211  -11.1039   -3.8054 H   0  0  0  0  0  0  0  0  0  0  0  0
    2.0953  -10.4116   -3.2434 H   0  0  0  0  0  0  0  0  0  0  0  0
    0.9334  -11.4195   -1.2859 H   0  0  0  0  0  0  0  0  0  0  0  0
    3.0293  -15.0854    0.3839 H   0  0  0  0  0  0  0  0  0  0  0  0
    2.3389  -17.0433    2.4168 H   0  0  0  0  0  0  0  0  0  0  0  0
    0.4936  -16.9464    4.3432 H   0  0  0  0  0  0  0  0  0  0  0  0
   -1.2630  -12.6740    3.4170 H   0  0  0  0  0  0  0  0  0  0  0  0
   -1.4732  -10.3393    3.0495 H   0  0  0  0  0  0  0  0  0  0  0  0
   -0.3615  -10.4712    1.6441 H   0  0  0  0  0  0  0  0  0  0  0  0
   -3.1861  -12.8260    2.2744 H   0  0  0  0  0  0  0  0  0  0  0  0
   -5.1211  -13.0680    0.7232 H   0  0  0  0  0  0  0  0  0  0  0  0
   -5.4010  -11.4854   -1.1826 H   0  0  0  0  0  0  0  0  0  0  0  0
   -3.7440   -9.6565   -1.5395 H   0  0  0  0  0  0  0  0  0  0  0  0
   -1.8055   -9.4084    0.0058 H   0  0  0  0  0  0  0  0  0  0  0  0
    4.4129  -13.8563   -0.4811 H   0  0  0  0  0  0  0  0  0  0  0  0
    7.9430  -13.8750   -3.0910 H   0  0  0  0  0  0  0  0  0  0  0  0
    9.7861  -12.5812   -4.5717 H   0  0  0  0  0  0  0  0  0  0  0  0
   12.2172  -12.0658   -4.4428 H   0  0  0  0  0  0  0  0  0  0  0  0
   13.3498  -11.9287   -2.2279 H   0  0  0  0  0  0  0  0  0  0  0  0
    9.5941  -12.8210   -0.2674 H   0  0  0  0  0  0  0  0  0  0  0  0
  1  2  2  0
  2  3  1  0
  3  4  1  0
  4  5  2  0
  5  6  1  0
  6  7  2  0
  7  8  1  0
  8  9  1  0
  9 10  2  0
 10 11  1  0
 11 12  1  0
 12 13  2  0
 13 14  1  0
 14 15  2  0
 15 16  1  0
 16 17  1  0
 17 18  1  0
 18 19  1  0
 19 20  2  0
 20 21  1  0
 21 22  2  0
 22 23  1  0
 23 24  2  0
 16 25  2  0
  8 26  2  0
  2 27  1  0
 27 28  1  0
 28 29  2  0
 29 30  1  0
 30 31  2  0
 31 32  1  0
 32 33  1  0
 33 34  1  0
 33 35  1  0
 33 36  1  0
 32 37  2  0
 26  4  1  0
 37 28  1  0
 25  9  1  0
 15 11  1  0
 24 19  1  0
  3 38  1  0
  5 39  1  0
  6 40  1  0
  7 41  1  0
 10 42  1  0
 12 43  1  0
 13 44  1  0
 17 45  1  0
 18 46  1  0
 18 47  1  0
 20 48  1  0
 21 49  1  0
 22 50  1  0
 23 51  1  0
 24 52  1  0
 26 53  1  0
 27 54  1  0
 29 55  1  0
 30 56  1  0
 31 57  1  0
 37 58  1  0
M  END
>  <meeko>  (4) 
{"is_sidechain": [false], "free_energy": -9.113, "intermolecular_energy": -12.425, "internal_energy": -1.037}

$$$$
LIB_MYAFDHCCQBIZLC__M_PUB_ALL__e8__s20260927
     RDKit          3D

 58 62  0  0  0  0  0  0  0  0999 V2000
    5.8070  -11.3870   -7.6920 O   0  0  0  0  0  0  0  0  0  0  0  0
    5.7810  -12.5840   -7.4400 C   0  0  0  0  0  0  0  0  0  0  0  0
    5.1300  -13.1510   -6.3520 N   0  0  0  0  0  0  0  0  0  0  0  0
    4.5060  -12.4800   -5.2780 C   0  0  0  0  0  0  0  0  0  0  0  0
    3.6890  -11.3890   -5.5960 C   0  0  0  0  0  0  0  0  0  0  0  0
    3.0320  -10.6780   -4.5920 C   0  0  0  0  0  0  0  0  0  0  0  0
    3.1900  -11.0530   -3.2580 C   0  0  0  0  0  0  0  0  0  0  0  0
    4.0030  -12.1400   -2.9100 C   0  0  0  0  0  0  0  0  0  0  0  0
    4.1390  -12.5260   -1.4810 C   0  0  0  0  0  0  0  0  0  0  0  0
    5.3650  -12.7260   -0.9510 C   0  0  0  0  0  0  0  0  0  0  0  0
    5.4530  -13.0690    0.3800 N   0  0  0  0  0  0  0  0  0  0  0  0
    6.5190  -13.3370    1.1940 C   0  0  0  0  0  0  0  0  0  0  0  0
    5.9660  -13.6190    2.4270 C   0  0  0  0  0  0  0  0  0  0  0  0
    4.5940  -13.5290    2.3910 N   0  0  0  0  0  0  0  0  0  0  0  0
    4.3270  -13.1980    1.1420 C   0  0  0  0  0  0  0  0  0  0  0  0
    3.0290  -12.9640    0.5350 C   0  0  0  0  0  0  0  0  0  0  0  0
    1.8820  -13.0820    1.2790 N   0  0  0  0  0  0  0  0  0  0  0  0
    0.5560  -12.8910    0.7590 C   0  0  0  0  0  0  0  0  0  0  0  0
   -0.0410  -11.6360    1.3460 C   0  0  0  0  0  0  0  0  0  0  0  0
   -0.9650  -11.7110    2.3980 C   0  0  0  0  0  0  0  0  0  0  0  0
   -1.5360  -10.5500    2.9230 C   0  0  0  0  0  0  0  0  0  0  0  0
   -1.1970   -9.3060    2.3960 C   0  0  0  0  0  0  0  0  0  0  0  0
   -0.2890   -9.2190    1.3410 C   0  0  0  0  0  0  0  0  0  0  0  0
    0.2830  -10.3780    0.8150 C   0  0  0  0  0  0  0  0  0  0  0  0
    2.9670  -12.6340   -0.7370 N   0  0  0  0  0  0  0  0  0  0  0  0
    4.6440  -12.8560   -3.9380 C   0  0  0  0  0  0  0  0  0  0  0  0
    6.3920  -13.5700   -8.2030 N   0  0  0  0  0  0  0  0  0  0  0  0
    7.0590  -13.4170   -9.4360 C   0  0  0  0  0  0  0  0  0  0  0  0
    6.3380  -13.7350  -10.5940 C   0  0  0  0  0  0  0  0  0  0  0  0
    6.9230  -13.6120  -11.8560 C   0  0  0  0  0  0  0  0  0  0  0  0
    8.2360  -13.1630  -11.9750 C   0  0  0  0  0  0  0  0  0  0  0  0
    8.9730  -12.8280  -10.8310 C   0  0  0  0  0  0  0  0  0  0  0  0
   10.4010  -12.3540  -10.9400 C   0  0  0  0  0  0  0  0  0  0  0  0
   11.1050  -12.5110   -9.7850 F   0  0  0  0  0  0  0  0  0  0  0  0
   10.5060  -11.0320  -11.2570 F   0  0  0  0  0  0  0  0  0  0  0  0
   11.0990  -13.0210  -11.9000 F   0  0  0  0  0  0  0  0  0  0  0  0
    8.3740  -12.9640   -9.5640 C   0  0  0  0  0  0  0  0  0  0  0  0
    5.0190  -14.1520   -6.3670 H   0  0  0  0  0  0  0  0  0  0  0  0
    3.5640  -11.0897   -6.6471 H   0  0  0  0  0  0  0  0  0  0  0  0
    2.3904   -9.8231   -4.8518 H   0  0  0  0  0  0  0  0  0  0  0  0
    2.6702  -10.4888   -2.4697 H   0  0  0  0  0  0  0  0  0  0  0  0
    6.2701  -12.6177   -1.5666 H   0  0  0  0  0  0  0  0  0  0  0  0
    7.5855  -13.3295    0.9246 H   0  0  0  0  0  0  0  0  0  0  0  0
    6.5477  -13.8818    3.3229 H   0  0  0  0  0  0  0  0  0  0  0  0
    1.9900  -13.3420    2.2540 H   0  0  0  0  0  0  0  0  0  0  0  0
    0.6020  -12.7972   -0.3360 H   0  0  0  0  0  0  0  0  0  0  0  0
   -0.0702  -13.7544    1.0282 H   0  0  0  0  0  0  0  0  0  0  0  0
   -1.2420  -12.6915    2.8126 H   0  0  0  0  0  0  0  0  0  0  0  0
   -2.2541  -10.6178    3.7535 H   0  0  0  0  0  0  0  0  0  0  0  0
   -1.6456   -8.3919    2.8121 H   0  0  0  0  0  0  0  0  0  0  0  0
   -0.0237   -8.2365    0.9235 H   0  0  0  0  0  0  0  0  0  0  0  0
    0.9931  -10.3051   -0.0220 H   0  0  0  0  0  0  0  0  0  0  0  0
    5.2650  -13.7274   -3.6830 H   0  0  0  0  0  0  0  0  0  0  0  0
    6.4160  -14.4930   -7.8000 H   0  0  0  0  0  0  0  0  0  0  0  0
    5.2989  -14.0857  -10.5083 H   0  0  0  0  0  0  0  0  0  0  0  0
    6.3465  -13.8699  -12.7566 H   0  0  0  0  0  0  0  0  0  0  0  0
    8.6960  -13.0710  -12.9700 H   0  0  0  0  0  0  0  0  0  0  0  0
    8.9500  -12.7098   -8.6620 H   0  0  0  0  0  0  0  0  0  0  0  0
  1  2  2  0
  2  3  1  0
  3  4  1  0
  4  5  2  0
  5  6  1  0
  6  7  2  0
  7  8  1  0
  8  9  1  0
  9 10  2  0
 10 11  1  0
 11 12  1  0
 12 13  2  0
 13 14  1  0
 14 15  2  0
 15 16  1  0
 16 17  1  0
 17 18  1  0
 18 19  1  0
 19 20  2  0
 20 21  1  0
 21 22  2  0
 22 23  1  0
 23 24  2  0
 16 25  2  0
  8 26  2  0
  2 27  1  0
 27 28  1  0
 28 29  2  0
 29 30  1  0
 30 31  2  0
 31 32  1  0
 32 33  1  0
 33 34  1  0
 33 35  1  0
 33 36  1  0
 32 37  2  0
 26  4  1  0
 37 28  1  0
 25  9  1  0
 15 11  1  0
 24 19  1  0
  3 38  1  0
  5 39  1  0
  6 40  1  0
  7 41  1  0
 10 42  1  0
 12 43  1  0
 13 44  1  0
 17 45  1  0
 18 46  1  0
 18 47  1  0
 20 48  1  0
 21 49  1  0
 22 50  1  0
 23 51  1  0
 24 52  1  0
 26 53  1  0
 27 54  1  0
 29 55  1  0
 30 56  1  0
 31 57  1  0
 37 58  1  0
M  END
>  <meeko>  (5) 
{"is_sidechain": [false], "free_energy": -9.069, "intermolecular_energy": -12.66, "internal_energy": -0.742}

$$$$
LIB_MYAFDHCCQBIZLC__M_PUB_ALL__e8__s20260927
     RDKit          3D

 58 62  0  0  0  0  0  0  0  0999 V2000
    7.4470  -11.3920   -0.8060 O   0  0  0  0  0  0  0  0  0  0  0  0
    7.5990  -12.5460   -0.4270 C   0  0  0  0  0  0  0  0  0  0  0  0
    6.5740  -13.4710   -0.2710 N   0  0  0  0  0  0  0  0  0  0  0  0
    5.1860  -13.2410   -0.3790 C   0  0  0  0  0  0  0  0  0  0  0  0
    4.7460  -12.4960   -1.4800 C   0  0  0  0  0  0  0  0  0  0  0  0
    3.3880  -12.2320   -1.6610 C   0  0  0  0  0  0  0  0  0  0  0  0
    2.4580  -12.7090   -0.7380 C   0  0  0  0  0  0  0  0  0  0  0  0
    2.8700  -13.4550    0.3750 C   0  0  0  0  0  0  0  0  0  0  0  0
    1.8540  -13.9650    1.3320 C   0  0  0  0  0  0  0  0  0  0  0  0
    1.9790  -15.2060    1.8500 C   0  0  0  0  0  0  0  0  0  0  0  0
    1.0260  -15.6410    2.7450 N   0  0  0  0  0  0  0  0  0  0  0  0
    0.8690  -16.8160    3.4260 C   0  0  0  0  0  0  0  0  0  0  0  0
   -0.2800  -16.6470    4.1710 C   0  0  0  0  0  0  0  0  0  0  0  0
   -0.8290  -15.4020    3.9670 N   0  0  0  0  0  0  0  0  0  0  0  0
   -0.0140  -14.8310    3.1020 C   0  0  0  0  0  0  0  0  0  0  0  0
   -0.1040  -13.4990    2.5310 C   0  0  0  0  0  0  0  0  0  0  0  0
   -1.1360  -12.6630    2.8760 N   0  0  0  0  0  0  0  0  0  0  0  0
   -1.3190  -11.3400    2.3460 C   0  0  0  0  0  0  0  0  0  0  0  0
   -2.4600  -11.3460    1.3580 C   0  0  0  0  0  0  0  0  0  0  0  0
   -3.4000  -12.3880    1.3610 C   0  0  0  0  0  0  0  0  0  0  0  0
   -4.4400  -12.4050    0.4310 C   0  0  0  0  0  0  0  0  0  0  0  0
   -4.5460  -11.3890   -0.5170 C   0  0  0  0  0  0  0  0  0  0  0  0
   -3.6100  -10.3560   -0.5400 C   0  0  0  0  0  0  0  0  0  0  0  0
   -2.5690  -10.3360    0.3890 C   0  0  0  0  0  0  0  0  0  0  0  0
    0.8170  -13.1030    1.6800 N   0  0  0  0  0  0  0  0  0  0  0  0
    4.2420  -13.7270    0.5310 C   0  0  0  0  0  0  0  0  0  0  0  0
    8.8190  -13.1200   -0.0980 N   0  0  0  0  0  0  0  0  0  0  0  0
   10.1030  -12.5500   -0.2220 C   0  0  0  0  0  0  0  0  0  0  0  0
   10.5950  -11.8430    0.8840 C   0  0  0  0  0  0  0  0  0  0  0  0
   11.8570  -11.2470    0.8460 C   0  0  0  0  0  0  0  0  0  0  0  0
   12.6450  -11.3550   -0.2970 C   0  0  0  0  0  0  0  0  0  0  0  0
   12.1790  -12.0670   -1.4110 C   0  0  0  0  0  0  0  0  0  0  0  0
   13.0130  -12.1820   -2.6620 C   0  0  0  0  0  0  0  0  0  0  0  0
   14.1520  -11.4370   -2.6130 F   0  0  0  0  0  0  0  0  0  0  0  0
   12.3560  -11.7730   -3.7850 F   0  0  0  0  0  0  0  0  0  0  0  0
   13.4080  -13.4600   -2.9090 F   0  0  0  0  0  0  0  0  0  0  0  0
   10.9020  -12.6570   -1.3620 C   0  0  0  0  0  0  0  0  0  0  0  0
    6.8510  -14.4310   -0.1460 H   0  0  0  0  0  0  0  0  0  0  0  0
    5.4773  -12.1157   -2.2084 H   0  0  0  0  0  0  0  0  0  0  0  0
    3.0515  -11.6484   -2.5306 H   0  0  0  0  0  0  0  0  0  0  0  0
    1.3886  -12.4974   -0.8850 H   0  0  0  0  0  0  0  0  0  0  0  0
    2.8210  -15.8536    1.5644 H   0  0  0  0  0  0  0  0  0  0  0  0
    1.5178  -17.7035    3.3882 H   0  0  0  0  0  0  0  0  0  0  0  0
   -0.7027  -17.4095    4.8417 H   0  0  0  0  0  0  0  0  0  0  0  0
   -1.8200  -13.0230    3.5340 H   0  0  0  0  0  0  0  0  0  0  0  0
   -1.5488  -10.6449    3.1670 H   0  0  0  0  0  0  0  0  0  0  0  0
   -0.3974  -11.0178    1.8392 H   0  0  0  0  0  0  0  0  0  0  0  0
   -3.3163  -13.1970    2.1017 H   0  0  0  0  0  0  0  0  0  0  0  0
   -5.1771  -13.2213    0.4461 H   0  0  0  0  0  0  0  0  0  0  0  0
   -5.3684  -11.4021   -1.2474 H   0  0  0  0  0  0  0  0  0  0  0  0
   -3.6922   -9.5563   -1.2909 H   0  0  0  0  0  0  0  0  0  0  0  0
   -1.8285   -9.5231    0.3619 H   0  0  0  0  0  0  0  0  0  0  0  0
    4.5782  -14.3334    1.3850 H   0  0  0  0  0  0  0  0  0  0  0  0
    8.7810  -14.0280    0.3390 H   0  0  0  0  0  0  0  0  0  0  0  0
    9.9799  -11.7568    1.7919 H   0  0  0  0  0  0  0  0  0  0  0  0
   12.2291  -10.6917    1.7196 H   0  0  0  0  0  0  0  0  0  0  0  0
   13.6367  -10.8799   -0.3259 H   0  0  0  0  0  0  0  0  0  0  0  0
   10.5277  -13.2110   -2.2355 H   0  0  0  0  0  0  0  0  0  0  0  0
  1  2  2  0
  2  3  1  0
  3  4  1  0
  4  5  2  0
  5  6  1  0
  6  7  2  0
  7  8  1  0
  8  9  1  0
  9 10  2  0
 10 11  1  0
 11 12  1  0
 12 13  2  0
 13 14  1  0
 14 15  2  0
 15 16  1  0
 16 17  1  0
 17 18  1  0
 18 19  1  0
 19 20  2  0
 20 21  1  0
 21 22  2  0
 22 23  1  0
 23 24  2  0
 16 25  2  0
  8 26  2  0
  2 27  1  0
 27 28  1  0
 28 29  2  0
 29 30  1  0
 30 31  2  0
 31 32  1  0
 32 33  1  0
 33 34  1  0
 33 35  1  0
 33 36  1  0
 32 37  2  0
 26  4  1  0
 37 28  1  0
 25  9  1  0
 15 11  1  0
 24 19  1  0
  3 38  1  0
  5 39  1  0
  6 40  1  0
  7 41  1  0
 10 42  1  0
 12 43  1  0
 13 44  1  0
 17 45  1  0
 18 46  1  0
 18 47  1  0
 20 48  1  0
 21 49  1  0
 22 50  1  0
 23 51  1  0
 24 52  1  0
 26 53  1  0
 27 54  1  0
 29 55  1  0
 30 56  1  0
 31 57  1  0
 37 58  1  0
M  END
>  <meeko>  (6) 
{"is_sidechain": [false], "free_energy": -8.996, "intermolecular_energy": -12.544, "internal_energy": -0.759}

$$$$
LIB_MYAFDHCCQBIZLC__M_PUB_ALL__e8__s20260927
     RDKit          3D

 58 62  0  0  0  0  0  0  0  0999 V2000
    6.9460  -10.7980   -1.1790 O   0  0  0  0  0  0  0  0  0  0  0  0
    6.8700  -12.0190   -1.1540 C   0  0  0  0  0  0  0  0  0  0  0  0
    5.7180  -12.7480   -1.4160 N   0  0  0  0  0  0  0  0  0  0  0  0
    4.4140  -12.2490   -1.6240 C   0  0  0  0  0  0  0  0  0  0  0  0
    4.0790  -11.8590   -2.9260 C   0  0  0  0  0  0  0  0  0  0  0  0
    2.8080  -11.3620   -3.2130 C   0  0  0  0  0  0  0  0  0  0  0  0
    1.8600  -11.2470   -2.1960 C   0  0  0  0  0  0  0  0  0  0  0  0
    2.1680  -11.6260   -0.8820 C   0  0  0  0  0  0  0  0  0  0  0  0
    1.1330  -11.5080    0.1770 C   0  0  0  0  0  0  0  0  0  0  0  0
    0.5720  -10.3080    0.4400 C   0  0  0  0  0  0  0  0  0  0  0  0
   -0.3940  -10.2390    1.4200 N   0  0  0  0  0  0  0  0  0  0  0  0
   -1.1320   -9.1990    1.9150 C   0  0  0  0  0  0  0  0  0  0  0  0
   -1.9340   -9.7600    2.8870 C   0  0  0  0  0  0  0  0  0  0  0  0
   -1.7110  -11.1130    2.9990 N   0  0  0  0  0  0  0  0  0  0  0  0
   -0.7770  -11.3590    2.1010 C   0  0  0  0  0  0  0  0  0  0  0  0
   -0.1560  -12.6320    1.7790 C   0  0  0  0  0  0  0  0  0  0  0  0
   -0.5250  -13.7730    2.4440 N   0  0  0  0  0  0  0  0  0  0  0  0
    0.0480  -15.0690    2.2090 C   0  0  0  0  0  0  0  0  0  0  0  0
   -0.8570  -16.1330    2.7810 C   0  0  0  0  0  0  0  0  0  0  0  0
   -1.0630  -16.2240    4.1660 C   0  0  0  0  0  0  0  0  0  0  0  0
   -1.8800  -17.2240    4.6950 C   0  0  0  0  0  0  0  0  0  0  0  0
   -2.4910  -18.1480    3.8490 C   0  0  0  0  0  0  0  0  0  0  0  0
   -2.2830  -18.0750    2.4720 C   0  0  0  0  0  0  0  0  0  0  0  0
   -1.4660  -17.0770    1.9400 C   0  0  0  0  0  0  0  0  0  0  0  0
    0.7630  -12.6760    0.8390 N   0  0  0  0  0  0  0  0  0  0  0  0
    3.4500  -12.1430   -0.6160 C   0  0  0  0  0  0  0  0  0  0  0  0
    7.9250  -12.8740   -0.8640 N   0  0  0  0  0  0  0  0  0  0  0  0
    9.2760  -12.5350   -0.6450 C   0  0  0  0  0  0  0  0  0  0  0  0
    9.6340  -12.1460    0.6520 C   0  0  0  0  0  0  0  0  0  0  0  0
   10.9500  -11.7940    0.9550 C   0  0  0  0  0  0  0  0  0  0  0  0
   11.9280  -11.8320   -0.0350 C   0  0  0  0  0  0  0  0  0  0  0  0
   11.5960  -12.2300   -1.3380 C   0  0  0  0  0  0  0  0  0  0  0  0
   12.6390  -12.2640   -2.4270 C   0  0  0  0  0  0  0  0  0  0  0  0
   12.1680  -11.8360   -3.6310 F   0  0  0  0  0  0  0  0  0  0  0  0
   13.1410  -13.5120   -2.6520 F   0  0  0  0  0  0  0  0  0  0  0  0
   13.7150  -11.4800   -2.1430 F   0  0  0  0  0  0  0  0  0  0  0  0
   10.2630  -12.5750   -1.6320 C   0  0  0  0  0  0  0  0  0  0  0  0
    5.8350  -13.7390   -1.5550 H   0  0  0  0  0  0  0  0  0  0  0  0
    4.8249  -11.9453   -3.7299 H   0  0  0  0  0  0  0  0  0  0  0  0
    2.5533  -11.0611   -4.2399 H   0  0  0  0  0  0  0  0  0  0  0  0
    0.8590  -10.8543   -2.4279 H   0  0  0  0  0  0  0  0  0  0  0  0
    0.8785   -9.4085   -0.1141 H   0  0  0  0  0  0  0  0  0  0  0  0
   -1.0941   -8.1442    1.6052 H   0  0  0  0  0  0  0  0  0  0  0  0
   -2.6586   -9.1979    3.4944 H   0  0  0  0  0  0  0  0  0  0  0  0
   -1.2370  -13.6780    3.1620 H   0  0  0  0  0  0  0  0  0  0  0  0
    0.1620  -15.2283    1.1266 H   0  0  0  0  0  0  0  0  0  0  0  0
    1.0331  -15.1269    2.6950 H   0  0  0  0  0  0  0  0  0  0  0  0
   -0.5773  -15.5023    4.8392 H   0  0  0  0  0  0  0  0  0  0  0  0
   -2.0421  -17.2832    5.7814 H   0  0  0  0  0  0  0  0  0  0  0  0
   -3.1368  -18.9342    4.2672 H   0  0  0  0  0  0  0  0  0  0  0  0
   -2.7637  -18.8052    1.8044 H   0  0  0  0  0  0  0  0  0  0  0  0
   -1.2981  -17.0298    0.8539 H   0  0  0  0  0  0  0  0  0  0  0  0
    3.6985  -12.4700    0.4044 H   0  0  0  0  0  0  0  0  0  0  0  0
    7.6870  -13.8450   -0.7320 H   0  0  0  0  0  0  0  0  0  0  0  0
    8.8685  -12.1176    1.4414 H   0  0  0  0  0  0  0  0  0  0  0  0
   11.2148  -11.4862    1.9773 H   0  0  0  0  0  0  0  0  0  0  0  0
   12.9635  -11.5492    0.2054 H   0  0  0  0  0  0  0  0  0  0  0  0
    9.9951  -12.8805   -2.6542 H   0  0  0  0  0  0  0  0  0  0  0  0
  1  2  2  0
  2  3  1  0
  3  4  1  0
  4  5  2  0
  5  6  1  0
  6  7  2  0
  7  8  1  0
  8  9  1  0
  9 10  2  0
 10 11  1  0
 11 12  1  0
 12 13  2  0
 13 14  1  0
 14 15  2  0
 15 16  1  0
 16 17  1  0
 17 18  1  0
 18 19  1  0
 19 20  2  0
 20 21  1  0
 21 22  2  0
 22 23  1  0
 23 24  2  0
 16 25  2  0
  8 26  2  0
  2 27  1  0
 27 28  1  0
 28 29  2  0
 29 30  1  0
 30 31  2  0
 31 32  1  0
 32 33  1  0
 33 34  1  0
 33 35  1  0
 33 36  1  0
 32 37  2  0
 26  4  1  0
 37 28  1  0
 25  9  1  0
 15 11  1  0
 24 19  1  0
  3 38  1  0
  5 39  1  0
  6 40  1  0
  7 41  1  0
 10 42  1  0
 12 43  1  0
 13 44  1  0
 17 45  1  0
 18 46  1  0
 18 47  1  0
 20 48  1  0
 21 49  1  0
 22 50  1  0
 23 51  1  0
 24 52  1  0
 26 53  1  0
 27 54  1  0
 29 55  1  0
 30 56  1  0
 31 57  1  0
 37 58  1  0
M  END
>  <meeko>  (7) 
{"is_sidechain": [false], "free_energy": -8.959, "intermolecular_energy": -12.291, "internal_energy": -0.962}

$$$$
LIB_MYAFDHCCQBIZLC__M_PUB_ALL__e8__s20260927
     RDKit          3D

 58 62  0  0  0  0  0  0  0  0999 V2000
    7.1680  -13.6380   -2.5070 O   0  0  0  0  0  0  0  0  0  0  0  0
    7.2830  -12.4250   -2.6260 C   0  0  0  0  0  0  0  0  0  0  0  0
    6.2250  -11.5420   -2.8030 N   0  0  0  0  0  0  0  0  0  0  0  0
    4.8660  -11.8600   -3.0130 C   0  0  0  0  0  0  0  0  0  0  0  0
    4.2460  -11.3010   -4.1370 C   0  0  0  0  0  0  0  0  0  0  0  0
    2.9070  -11.5720   -4.4170 C   0  0  0  0  0  0  0  0  0  0  0  0
    2.1750  -12.4050   -3.5700 C   0  0  0  0  0  0  0  0  0  0  0  0
    2.7690  -12.9760   -2.4360 C   0  0  0  0  0  0  0  0  0  0  0  0
    1.9680  -13.8720   -1.5630 C   0  0  0  0  0  0  0  0  0  0  0  0
    2.1340  -15.2100   -1.6380 C   0  0  0  0  0  0  0  0  0  0  0  0
    1.3840  -16.0100   -0.8030 N   0  0  0  0  0  0  0  0  0  0  0  0
    1.3160  -17.3660   -0.6410 C   0  0  0  0  0  0  0  0  0  0  0  0
    0.3780  -17.5620    0.3510 C   0  0  0  0  0  0  0  0  0  0  0  0
   -0.1280  -16.3650    0.8030 N   0  0  0  0  0  0  0  0  0  0  0  0
    0.5020  -15.4590    0.0830 C   0  0  0  0  0  0  0  0  0  0  0  0
    0.3640  -14.0140    0.1390 C   0  0  0  0  0  0  0  0  0  0  0  0
   -0.5110  -13.4340    1.0220 N   0  0  0  0  0  0  0  0  0  0  0  0
   -0.7310  -12.0180    1.1330 C   0  0  0  0  0  0  0  0  0  0  0  0
   -2.0680  -11.6670    0.5280 C   0  0  0  0  0  0  0  0  0  0  0  0
   -2.3200  -10.3670    0.0630 C   0  0  0  0  0  0  0  0  0  0  0  0
   -3.5660  -10.0360   -0.4730 C   0  0  0  0  0  0  0  0  0  0  0  0
   -4.5740  -10.9960   -0.5410 C   0  0  0  0  0  0  0  0  0  0  0  0
   -4.3400  -12.2870   -0.0700 C   0  0  0  0  0  0  0  0  0  0  0  0
   -3.0960  -12.6200    0.4670 C   0  0  0  0  0  0  0  0  0  0  0  0
    1.0900  -13.2690   -0.6660 N   0  0  0  0  0  0  0  0  0  0  0  0
    4.1260  -12.7050   -2.1810 C   0  0  0  0  0  0  0  0  0  0  0  0
    8.4870  -11.7350   -2.5970 N   0  0  0  0  0  0  0  0  0  0  0  0
    9.7720  -12.2520   -2.3340 C   0  0  0  0  0  0  0  0  0  0  0  0
   10.0340  -12.6710   -1.0230 C   0  0  0  0  0  0  0  0  0  0  0  0
   11.2800  -13.1950   -0.6760 C   0  0  0  0  0  0  0  0  0  0  0  0
   12.2790  -13.3140   -1.6390 C   0  0  0  0  0  0  0  0  0  0  0  0
   12.0360  -12.9130   -2.9600 C   0  0  0  0  0  0  0  0  0  0  0  0
   13.1110  -13.0210   -4.0130 C   0  0  0  0  0  0  0  0  0  0  0  0
   12.6130  -13.1530   -5.2730 F   0  0  0  0  0  0  0  0  0  0  0  0
   13.9350  -14.0920   -3.8310 F   0  0  0  0  0  0  0  0  0  0  0  0
   13.9240  -11.9300   -4.0410 F   0  0  0  0  0  0  0  0  0  0  0  0
   10.7780  -12.3790   -3.2940 C   0  0  0  0  0  0  0  0  0  0  0  0
    6.4340  -10.5630   -2.6900 H   0  0  0  0  0  0  0  0  0  0  0  0
    4.8201  -10.6422   -4.8051 H   0  0  0  0  0  0  0  0  0  0  0  0
    2.4289  -11.1301   -5.3036 H   0  0  0  0  0  0  0  0  0  0  0  0
    1.1191  -12.6161   -3.7949 H   0  0  0  0  0  0  0  0  0  0  0  0
    2.8498  -15.6504   -2.3477 H   0  0  0  0  0  0  0  0  0  0  0  0
    1.8859  -18.1342   -1.1842 H   0  0  0  0  0  0  0  0  0  0  0  0
    0.0737  -18.5481    0.7317 H   0  0  0  0  0  0  0  0  0  0  0  0
   -1.0480  -14.0580    1.6160 H   0  0  0  0  0  0  0  0  0  0  0  0
   -0.7212  -11.7276    2.1939 H   0  0  0  0  0  0  0  0  0  0  0  0
    0.0657  -11.4804    0.5979 H   0  0  0  0  0  0  0  0  0  0  0  0
   -1.5303   -9.6035    0.1212 H   0  0  0  0  0  0  0  0  0  0  0  0
   -3.7522   -9.0166   -0.8419 H   0  0  0  0  0  0  0  0  0  0  0  0
   -5.5543  -10.7350   -0.9663 H   0  0  0  0  0  0  0  0  0  0  0  0
   -5.1367  -13.0437   -0.1217 H   0  0  0  0  0  0  0  0  0  0  0  0
   -2.9198  -13.6377    0.8455 H   0  0  0  0  0  0  0  0  0  0  0  0
    4.6139  -13.1670   -1.3101 H   0  0  0  0  0  0  0  0  0  0  0  0
    8.4480  -10.7610   -2.8550 H   0  0  0  0  0  0  0  0  0  0  0  0
    9.2481  -12.5859   -0.2580 H   0  0  0  0  0  0  0  0  0  0  0  0
   11.4732  -13.5142    0.3588 H   0  0  0  0  0  0  0  0  0  0  0  0
   13.2616  -13.7238   -1.3622 H   0  0  0  0  0  0  0  0  0  0  0  0
   10.5839  -12.0565   -4.3276 H   0  0  0  0  0  0  0  0  0  0  0  0
  1  2  2  0
  2  3  1  0
  3  4  1  0
  4  5  2  0
  5  6  1  0
  6  7  2  0
  7  8  1  0
  8  9  1  0
  9 10  2  0
 10 11  1  0
 11 12  1  0
 12 13  2  0
 13 14  1  0
 14 15  2  0
 15 16  1  0
 16 17  1  0
 17 18  1  0
 18 19  1  0
 19 20  2  0
 20 21  1  0
 21 22  2  0
 22 23  1  0
 23 24  2  0
 16 25  2  0
  8 26  2  0
  2 27  1  0
 27 28  1  0
 28 29  2  0
 29 30  1  0
 30 31  2  0
 31 32  1  0
 32 33  1  0
 33 34  1  0
 33 35  1  0
 33 36  1  0
 32 37  2  0
 26  4  1  0
 37 28  1  0
 25  9  1  0
 15 11  1  0
 24 19  1  0
  3 38  1  0
  5 39  1  0
  6 40  1  0
  7 41  1  0
 10 42  1  0
 12 43  1  0
 13 44  1  0
 17 45  1  0
 18 46  1  0
 18 47  1  0
 20 48  1  0
 21 49  1  0
 22 50  1  0
 23 51  1  0
 24 52  1  0
 26 53  1  0
 27 54  1  0
 29 55  1  0
 30 56  1  0
 31 57  1  0
 37 58  1  0
M  END
>  <meeko>  (8) 
{"is_sidechain": [false], "free_energy": -8.824, "intermolecular_energy": -12.167, "internal_energy": -0.905}

$$$$
LIB_MYAFDHCCQBIZLC__M_PUB_ALL__e8__s20260927
     RDKit          3D

 58 62  0  0  0  0  0  0  0  0999 V2000
    2.2290  -11.3400    0.3590 O   0  0  0  0  0  0  0  0  0  0  0  0
    1.8190  -12.2980    1.0010 C   0  0  0  0  0  0  0  0  0  0  0  0
    2.6120  -13.3430    1.4580 N   0  0  0  0  0  0  0  0  0  0  0  0
    3.9730  -13.5790    1.1710 C   0  0  0  0  0  0  0  0  0  0  0  0
    4.8440  -13.7000    2.2600 C   0  0  0  0  0  0  0  0  0  0  0  0
    6.2030  -13.9390    2.0590 C   0  0  0  0  0  0  0  0  0  0  0  0
    6.7040  -14.0570    0.7620 C   0  0  0  0  0  0  0  0  0  0  0  0
    5.8560  -13.9380   -0.3480 C   0  0  0  0  0  0  0  0  0  0  0  0
    6.4150  -14.0850   -1.7160 C   0  0  0  0  0  0  0  0  0  0  0  0
    7.7500  -14.1940   -1.8910 C   0  0  0  0  0  0  0  0  0  0  0  0
    8.2310  -14.3420   -3.1730 N   0  0  0  0  0  0  0  0  0  0  0  0
    9.4980  -14.4700   -3.6730 C   0  0  0  0  0  0  0  0  0  0  0  0
    9.3340  -14.5850   -5.0380 C   0  0  0  0  0  0  0  0  0  0  0  0
    8.0040  -14.5330   -5.3880 N   0  0  0  0  0  0  0  0  0  0  0  0
    7.3770  -14.3850   -4.2380 C   0  0  0  0  0  0  0  0  0  0  0  0
    5.9480  -14.2760   -4.0040 C   0  0  0  0  0  0  0  0  0  0  0  0
    5.0660  -14.3210   -5.0550 N   0  0  0  0  0  0  0  0  0  0  0  0
    3.6410  -14.1990   -4.9230 C   0  0  0  0  0  0  0  0  0  0  0  0
    3.2950  -12.8070   -4.4510 C   0  0  0  0  0  0  0  0  0  0  0  0
    2.5280  -12.6180   -3.2920 C   0  0  0  0  0  0  0  0  0  0  0  0
    2.1870  -11.3320   -2.8710 C   0  0  0  0  0  0  0  0  0  0  0  0
    2.6000  -10.2240   -3.6080 C   0  0  0  0  0  0  0  0  0  0  0  0
    3.3510  -10.4000   -4.7690 C   0  0  0  0  0  0  0  0  0  0  0  0
    3.6930  -11.6840   -5.1920 C   0  0  0  0  0  0  0  0  0  0  0  0
    5.5080  -14.1370   -2.7720 N   0  0  0  0  0  0  0  0  0  0  0  0
    4.4850  -13.7140   -0.1240 C   0  0  0  0  0  0  0  0  0  0  0  0
    0.4990  -12.4930    1.3820 N   0  0  0  0  0  0  0  0  0  0  0  0
   -0.5890  -11.6140    1.2040 C   0  0  0  0  0  0  0  0  0  0  0  0
   -0.4690  -10.3320    1.7560 C   0  0  0  0  0  0  0  0  0  0  0  0
   -1.4990   -9.3990    1.6260 C   0  0  0  0  0  0  0  0  0  0  0  0
   -2.6610   -9.7350    0.9370 C   0  0  0  0  0  0  0  0  0  0  0  0
   -2.8000  -11.0080    0.3650 C   0  0  0  0  0  0  0  0  0  0  0  0
   -4.0570  -11.3930   -0.3720 C   0  0  0  0  0  0  0  0  0  0  0  0
   -3.8440  -12.3290   -1.3380 F   0  0  0  0  0  0  0  0  0  0  0  0
   -4.6520  -10.3420   -1.0050 F   0  0  0  0  0  0  0  0  0  0  0  0
   -5.0070  -11.9130    0.4530 F   0  0  0  0  0  0  0  0  0  0  0  0
   -1.7560  -11.9410    0.5100 C   0  0  0  0  0  0  0  0  0  0  0  0
    2.1940  -13.9610    2.1350 H   0  0  0  0  0  0  0  0  0  0  0  0
    4.4528  -13.6057    3.2838 H   0  0  0  0  0  0  0  0  0  0  0  0
    6.8790  -14.0344    2.9215 H   0  0  0  0  0  0  0  0  0  0  0  0
    7.7768  -14.2456    0.6087 H   0  0  0  0  0  0  0  0  0  0  0  0
    8.4356  -14.1653   -1.0313 H   0  0  0  0  0  0  0  0  0  0  0  0
   10.4424  -14.4792   -3.1091 H   0  0  0  0  0  0  0  0  0  0  0  0
   10.1602  -14.7031   -5.7546 H   0  0  0  0  0  0  0  0  0  0  0  0
    5.4620  -14.4260   -5.9840 H   0  0  0  0  0  0  0  0  0  0  0  0
    3.1656  -14.3842   -5.8975 H   0  0  0  0  0  0  0  0  0  0  0  0
    3.2769  -14.9348   -4.1908 H   0  0  0  0  0  0  0  0  0  0  0  0
    2.1929  -13.4897   -2.7108 H   0  0  0  0  0  0  0  0  0  0  0  0
    1.5917  -11.1929   -1.9565 H   0  0  0  0  0  0  0  0  0  0  0  0
    2.3334   -9.2105   -3.2737 H   0  0  0  0  0  0  0  0  0  0  0  0
    3.6742   -9.5251   -5.3522 H   0  0  0  0  0  0  0  0  0  0  0  0
    4.2790  -11.8174   -6.1133 H   0  0  0  0  0  0  0  0  0  0  0  0
    3.8025  -13.6437   -0.9838 H   0  0  0  0  0  0  0  0  0  0  0  0
    0.2780  -13.3940    1.7760 H   0  0  0  0  0  0  0  0  0  0  0  0
    0.4478  -10.0574    2.2983 H   0  0  0  0  0  0  0  0  0  0  0  0
   -1.3924   -8.3975    2.0683 H   0  0  0  0  0  0  0  0  0  0  0  0
   -3.4732   -8.9994    0.8408 H   0  0  0  0  0  0  0  0  0  0  0  0
   -1.8610  -12.9436    0.0697 H   0  0  0  0  0  0  0  0  0  0  0  0
  1  2  2  0
  2  3  1  0
  3  4  1  0
  4  5  2  0
  5  6  1  0
  6  7  2  0
  7  8  1  0
  8  9  1  0
  9 10  2  0
 10 11  1  0
 11 12  1  0
 12 13  2  0
 13 14  1  0
 14 15  2  0
 15 16  1  0
 16 17  1  0
 17 18  1  0
 18 19  1  0
 19 20  2  0
 20 21  1  0
 21 22  2  0
 22 23  1  0
 23 24  2  0
 16 25  2  0
  8 26  2  0
  2 27  1  0
 27 28  1  0
 28 29  2  0
 29 30  1  0
 30 31  2  0
 31 32  1  0
 32 33  1  0
 33 34  1  0
 33 35  1  0
 33 36  1  0
 32 37  2  0
 26  4  1  0
 37 28  1  0
 25  9  1  0
 15 11  1  0
 24 19  1  0
  3 38  1  0
  5 39  1  0
  6 40  1  0
  7 41  1  0
 10 42  1  0
 12 43  1  0
 13 44  1  0
 17 45  1  0
 18 46  1  0
 18 47  1  0
 20 48  1  0
 21 49  1  0
 22 50  1  0
 23 51  1  0
 24 52  1  0
 26 53  1  0
 27 54  1  0
 29 55  1  0
 30 56  1  0
 31 57  1  0
 37 58  1  0
M  END
>  <meeko>  (9) 
{"is_sidechain": [false], "free_energy": -8.758, "intermolecular_energy": -11.959, "internal_energy": -1.024}

$$$$
