LIB_BIAGWLDERXRFAW__M_PUB_ALL__e8__s20260927
     RDKit          3D

 67 71  0  0  0  0  0  0  0  0999 V2000
   -0.7900  -11.9400    0.6320 C   0  0  0  0  0  0  0  0  0  0  0  0
   -2.2700  -11.6870    0.6090 N   0  0  0  0  0  0  0  0  0  0  0  0
   -2.6120  -10.2780    0.2510 C   0  0  0  0  0  0  0  0  0  0  0  0
   -3.0310  -12.7240   -0.2190 C   0  0  0  0  0  0  0  0  0  0  0  0
   -3.6480  -13.7890    0.6950 C   0  0  0  0  0  0  0  0  0  0  0  0
   -3.8390  -14.9090    0.2240 O   0  0  0  0  0  0  0  0  0  0  0  0
   -3.9280  -13.3480    1.9710 N   0  0  0  0  0  0  0  0  0  0  0  0
   -4.5290  -14.0910    3.0120 C   0  0  0  0  0  0  0  0  0  0  0  0
   -5.7300  -13.5990    3.5350 C   0  0  0  0  0  0  0  0  0  0  0  0
   -6.3980  -14.2810    4.5590 C   0  0  0  0  0  0  0  0  0  0  0  0
   -5.8830  -15.4700    5.0810 C   0  0  0  0  0  0  0  0  0  0  0  0
   -6.5610  -16.1920    6.1460 C   0  0  0  0  0  0  0  0  0  0  0  0
   -6.0500  -16.6940    7.3590 C   0  0  0  0  0  0  0  0  0  0  0  0
   -6.9590  -17.3250    8.0950 N   0  0  0  0  0  0  0  0  0  0  0  0
   -8.1040  -17.2660    7.3590 N   0  0  0  0  0  0  0  0  0  0  0  0
   -9.3710  -17.8020    7.6680 C   0  0  0  0  0  0  0  0  0  0  0  0
   -9.6320  -18.5400    8.9240 C   0  0  0  0  0  0  0  0  0  0  0  0
   -9.3200  -17.9730   10.1650 C   0  0  0  0  0  0  0  0  0  0  0  0
   -9.5720  -18.6720   11.3450 C   0  0  0  0  0  0  0  0  0  0  0  0
  -10.1430  -19.9440   11.2960 C   0  0  0  0  0  0  0  0  0  0  0  0
  -10.4710  -20.5300   10.0680 C   0  0  0  0  0  0  0  0  0  0  0  0
  -11.0450  -21.8190   10.0990 N   0  0  0  0  0  0  0  0  0  0  0  0
  -11.2080  -22.6870    9.0340 C   0  0  0  0  0  0  0  0  0  0  0  0
  -10.9840  -22.4500    7.8540 O   0  0  0  0  0  0  0  0  0  0  0  0
  -11.7630  -24.0230    9.3950 C   0  0  0  0  0  0  0  0  0  0  0  0
  -11.9440  -24.9670    8.3780 C   0  0  0  0  0  0  0  0  0  0  0  0
  -12.4540  -26.2310    8.6780 C   0  0  0  0  0  0  0  0  0  0  0  0
  -12.7770  -26.5590    9.9950 C   0  0  0  0  0  0  0  0  0  0  0  0
  -12.5900  -25.6300   11.0300 C   0  0  0  0  0  0  0  0  0  0  0  0
  -12.9000  -25.9980   12.4610 C   0  0  0  0  0  0  0  0  0  0  0  0
  -11.8590  -25.7400   13.3020 F   0  0  0  0  0  0  0  0  0  0  0  0
  -13.1790  -27.3220   12.6050 F   0  0  0  0  0  0  0  0  0  0  0  0
  -13.9670  -25.3270   12.9720 F   0  0  0  0  0  0  0  0  0  0  0  0
  -12.0690  -24.3610   10.7200 C   0  0  0  0  0  0  0  0  0  0  0  0
  -10.2010  -19.8270    8.8910 C   0  0  0  0  0  0  0  0  0  0  0  0
  -10.3820  -17.6300    6.7970 C   0  0  0  0  0  0  0  0  0  0  0  0
  -10.0580  -16.8820    5.5580 C   0  0  0  0  0  0  0  0  0  0  0  0
   -8.9060  -16.3750    5.2450 N   0  0  0  0  0  0  0  0  0  0  0  0
   -7.8960  -16.5640    6.1540 C   0  0  0  0  0  0  0  0  0  0  0  0
   -4.6760  -15.9550    4.5620 C   0  0  0  0  0  0  0  0  0  0  0  0
   -4.0050  -15.2730    3.5360 C   0  0  0  0  0  0  0  0  0  0  0  0
   -0.4443  -11.9991    1.6746 H   0  0  0  0  0  0  0  0  0  0  0  0
   -0.5721  -12.8884    0.1191 H   0  0  0  0  0  0  0  0  0  0  0  0
   -0.2694  -11.1178    0.1191 H   0  0  0  0  0  0  0  0  0  0  0  0
   -2.5920  -11.8610    1.5790 H   0  0  0  0  0  0  0  0  0  0  0  0
   -2.7546   -9.6905    1.1700 H   0  0  0  0  0  0  0  0  0  0  0  0
   -1.7938   -9.8410   -0.3403 H   0  0  0  0  0  0  0  0  0  0  0  0
   -3.5394  -10.2647   -0.3403 H   0  0  0  0  0  0  0  0  0  0  0  0
   -3.8314  -12.2217   -0.7821 H   0  0  0  0  0  0  0  0  0  0  0  0
   -2.3298  -13.2115   -0.9123 H   0  0  0  0  0  0  0  0  0  0  0  0
   -3.6880  -12.3950    2.2220 H   0  0  0  0  0  0  0  0  0  0  0  0
   -6.1542  -12.6654    3.1369 H   0  0  0  0  0  0  0  0  0  0  0  0
   -7.3398  -13.8757    4.9574 H   0  0  0  0  0  0  0  0  0  0  0  0
   -5.0007  -16.5753    7.6670 H   0  0  0  0  0  0  0  0  0  0  0  0
   -8.8729  -16.9690   10.2098 H   0  0  0  0  0  0  0  0  0  0  0  0
   -9.3203  -18.2199   12.3157 H   0  0  0  0  0  0  0  0  0  0  0  0
  -10.3371  -20.4910   12.2304 H   0  0  0  0  0  0  0  0  0  0  0  0
  -11.4210  -22.1070   10.9940 H   0  0  0  0  0  0  0  0  0  0  0  0
  -11.6838  -24.7123    7.3400 H   0  0  0  0  0  0  0  0  0  0  0  0
  -12.6014  -26.9690    7.8757 H   0  0  0  0  0  0  0  0  0  0  0  0
  -13.1822  -27.5556   10.2243 H   0  0  0  0  0  0  0  0  0  0  0  0
  -11.9005  -23.6287   11.5233 H   0  0  0  0  0  0  0  0  0  0  0  0
  -10.4375  -20.2879    7.9206 H   0  0  0  0  0  0  0  0  0  0  0  0
  -11.3911  -18.0217    6.9927 H   0  0  0  0  0  0  0  0  0  0  0  0
  -10.8744  -16.7437    4.8339 H   0  0  0  0  0  0  0  0  0  0  0  0
   -4.2477  -16.8846    4.9649 H   0  0  0  0  0  0  0  0  0  0  0  0
   -3.0591  -15.6730    3.1419 H   0  0  0  0  0  0  0  0  0  0  0  0
  1  2  1  0
  2  3  1  0
  2  4  1  0
  4  5  1  0
  5  6  2  0
  5  7  1  0
  7  8  1  0
  8  9  2  0
  9 10  1  0
 10 11  2  0
 11 12  1  0
 12 13  1  0
 13 14  2  0
 14 15  1  0
 15 16  1  0
 16 17  1  0
 17 18  2  0
 18 19  1  0
 19 20  2  0
 20 21  1  0
 21 22  1  0
 22 23  1  0
 23 24  2  0
 23 25  1  0
 25 26  2  0
 26 27  1  0
 27 28  2  0
 28 29  1  0
 29 30  1  0
 30 31  1  0
 30 32  1  0
 30 33  1  0
 29 34  2  0
 21 35  2  0
 16 36  2  0
 36 37  1  0
 37 38  2  0
 38 39  1  0
 11 40  1  0
 40 41  2  0
 41  8  1  0
 39 12  2  0
 39 15  1  0
 35 17  1  0
 34 25  1  0
  1 42  1  0
  1 43  1  0
  1 44  1  0
  2 45  1  0
  3 46  1  0
  3 47  1  0
  3 48  1  0
  4 49  1  0
  4 50  1  0
  7 51  1  0
  9 52  1  0
 10 53  1  0
 13 54  1  0
 18 55  1  0
 19 56  1  0
 20 57  1  0
 22 58  1  0
 26 59  1  0
 27 60  1  0
 28 61  1  0
 34 62  1  0
 35 63  1  0
 36 64  1  0
 37 65  1  0
 40 66  1  0
 41 67  1  0
M  CHG  1   2   1
M  END
>  <meeko>  (1) 
{"is_sidechain": [false], "free_energy": -9.388, "intermolecular_energy": -13.779, "internal_energy": -0.604}

$$$$
LIB_BIAGWLDERXRFAW__M_PUB_ALL__e8__s20260927
     RDKit          3D

 67 71  0  0  0  0  0  0  0  0999 V2000
   16.7760  -20.3830  -12.1320 C   0  0  0  0  0  0  0  0  0  0  0  0
   17.9750  -19.4880  -12.0210 N   0  0  0  0  0  0  0  0  0  0  0  0
   19.0990  -19.9110  -12.9080 C   0  0  0  0  0  0  0  0  0  0  0  0
   17.6190  -18.0070  -12.1610 C   0  0  0  0  0  0  0  0  0  0  0  0
   17.2890  -17.4040  -10.7910 C   0  0  0  0  0  0  0  0  0  0  0  0
   18.1990  -17.3190   -9.9660 O   0  0  0  0  0  0  0  0  0  0  0  0
   15.9720  -17.0250  -10.6400 N   0  0  0  0  0  0  0  0  0  0  0  0
   15.3750  -16.4770   -9.4820 C   0  0  0  0  0  0  0  0  0  0  0  0
   14.0110  -16.7270   -9.2900 C   0  0  0  0  0  0  0  0  0  0  0  0
   13.3440  -16.2340   -8.1620 C   0  0  0  0  0  0  0  0  0  0  0  0
   14.0250  -15.4820   -7.2010 C   0  0  0  0  0  0  0  0  0  0  0  0
   13.3490  -14.9580   -6.0250 C   0  0  0  0  0  0  0  0  0  0  0  0
   12.7040  -13.7210   -5.8350 C   0  0  0  0  0  0  0  0  0  0  0  0
   12.2060  -13.5660   -4.6120 N   0  0  0  0  0  0  0  0  0  0  0  0
   12.5360  -14.7130   -3.9540 N   0  0  0  0  0  0  0  0  0  0  0  0
   12.2680  -15.0610   -2.6150 C   0  0  0  0  0  0  0  0  0  0  0  0
   11.5340  -14.1620   -1.6960 C   0  0  0  0  0  0  0  0  0  0  0  0
   12.1960  -13.5250   -0.6400 C   0  0  0  0  0  0  0  0  0  0  0  0
   11.5000  -12.6770    0.2210 C   0  0  0  0  0  0  0  0  0  0  0  0
   10.1350  -12.4540    0.0310 C   0  0  0  0  0  0  0  0  0  0  0  0
    9.4530  -13.0740   -1.0210 C   0  0  0  0  0  0  0  0  0  0  0  0
    8.0750  -12.7990   -1.1490 N   0  0  0  0  0  0  0  0  0  0  0  0
    7.4620  -12.0300   -2.1220 C   0  0  0  0  0  0  0  0  0  0  0  0
    8.0170  -11.3590   -2.9840 O   0  0  0  0  0  0  0  0  0  0  0  0
    5.9730  -12.0000   -2.0520 C   0  0  0  0  0  0  0  0  0  0  0  0
    5.3480  -12.5130   -0.9100 C   0  0  0  0  0  0  0  0  0  0  0  0
    3.9570  -12.4960   -0.8050 C   0  0  0  0  0  0  0  0  0  0  0  0
    3.1850  -11.9580   -1.8350 C   0  0  0  0  0  0  0  0  0  0  0  0
    3.7950  -11.4270   -2.9830 C   0  0  0  0  0  0  0  0  0  0  0  0
    2.9630  -10.8080   -4.0800 C   0  0  0  0  0  0  0  0  0  0  0  0
    3.7240  -10.3440   -5.1120 F   0  0  0  0  0  0  0  0  0  0  0  0
    2.2380   -9.7440   -3.6410 F   0  0  0  0  0  0  0  0  0  0  0  0
    2.0720  -11.6720   -4.6350 F   0  0  0  0  0  0  0  0  0  0  0  0
    5.1980  -11.4420   -3.0780 C   0  0  0  0  0  0  0  0  0  0  0  0
   10.1570  -13.9330   -1.8700 C   0  0  0  0  0  0  0  0  0  0  0  0
   12.6840  -16.2560   -2.1560 C   0  0  0  0  0  0  0  0  0  0  0  0
   13.4120  -17.1110   -3.1240 C   0  0  0  0  0  0  0  0  0  0  0  0
   13.6730  -16.8210   -4.3610 N   0  0  0  0  0  0  0  0  0  0  0  0
   13.2340  -15.5990   -4.8010 C   0  0  0  0  0  0  0  0  0  0  0  0
   15.3870  -15.2260   -7.4010 C   0  0  0  0  0  0  0  0  0  0  0  0
   16.0570  -15.7190   -8.5300 C   0  0  0  0  0  0  0  0  0  0  0  0
   16.4215  -20.6476  -11.1249 H   0  0  0  0  0  0  0  0  0  0  0  0
   15.9765  -19.8590  -12.6763 H   0  0  0  0  0  0  0  0  0  0  0  0
   17.0510  -21.2985  -12.6763 H   0  0  0  0  0  0  0  0  0  0  0  0
   18.2900  -19.5730  -11.0370 H   0  0  0  0  0  0  0  0  0  0  0  0
   19.9517  -20.2319  -12.2916 H   0  0  0  0  0  0  0  0  0  0  0  0
   18.7704  -20.7470  -13.5430 H   0  0  0  0  0  0  0  0  0  0  0  0
   19.4031  -19.0658  -13.5430 H   0  0  0  0  0  0  0  0  0  0  0  0
   18.4733  -17.4687  -12.5975 H   0  0  0  0  0  0  0  0  0  0  0  0
   16.7386  -17.9122  -12.8136 H   0  0  0  0  0  0  0  0  0  0  0  0
   15.3390  -17.1350  -11.4240 H   0  0  0  0  0  0  0  0  0  0  0  0
   13.4567  -17.3178  -10.0342 H   0  0  0  0  0  0  0  0  0  0  0  0
   12.2717  -16.4410   -8.0308 H   0  0  0  0  0  0  0  0  0  0  0  0
   12.6202  -12.9570   -6.6219 H   0  0  0  0  0  0  0  0  0  0  0  0
   13.2722  -13.6944   -0.4883 H   0  0  0  0  0  0  0  0  0  0  0  0
   12.0271  -12.1833    1.0507 H   0  0  0  0  0  0  0  0  0  0  0  0
    9.5913  -11.7851    0.7144 H   0  0  0  0  0  0  0  0  0  0  0  0
    7.4860  -13.1690   -0.4130 H   0  0  0  0  0  0  0  0  0  0  0  0
    5.9549  -12.9307   -0.0931 H   0  0  0  0  0  0  0  0  0  0  0  0
    3.4685  -12.9072    0.0907 H   0  0  0  0  0  0  0  0  0  0  0  0
    2.0886  -11.9497   -1.7471 H   0  0  0  0  0  0  0  0  0  0  0  0
    5.6904  -11.0131   -3.9632 H   0  0  0  0  0  0  0  0  0  0  0  0
    9.6246  -14.4390   -2.6889 H   0  0  0  0  0  0  0  0  0  0  0  0
   12.4947  -16.5797   -1.1219 H   0  0  0  0  0  0  0  0  0  0  0  0
   13.7651  -18.0862   -2.7575 H   0  0  0  0  0  0  0  0  0  0  0  0
   15.9401  -14.6289   -6.6610 H   0  0  0  0  0  0  0  0  0  0  0  0
   17.1277  -15.5065   -8.6658 H   0  0  0  0  0  0  0  0  0  0  0  0
  1  2  1  0
  2  3  1  0
  2  4  1  0
  4  5  1  0
  5  6  2  0
  5  7  1  0
  7  8  1  0
  8  9  2  0
  9 10  1  0
 10 11  2  0
 11 12  1  0
 12 13  1  0
 13 14  2  0
 14 15  1  0
 15 16  1  0
 16 17  1  0
 17 18  2  0
 18 19  1  0
 19 20  2  0
 20 21  1  0
 21 22  1  0
 22 23  1  0
 23 24  2  0
 23 25  1  0
 25 26  2  0
 26 27  1  0
 27 28  2  0
 28 29  1  0
 29 30  1  0
 30 31  1  0
 30 32  1  0
 30 33  1  0
 29 34  2  0
 21 35  2  0
 16 36  2  0
 36 37  1  0
 37 38  2  0
 38 39  1  0
 11 40  1  0
 40 41  2  0
 41  8  1  0
 39 12  2  0
 39 15  1  0
 35 17  1  0
 34 25  1  0
  1 42  1  0
  1 43  1  0
  1 44  1  0
  2 45  1  0
  3 46  1  0
  3 47  1  0
  3 48  1  0
  4 49  1  0
  4 50  1  0
  7 51  1  0
  9 52  1  0
 10 53  1  0
 13 54  1  0
 18 55  1  0
 19 56  1  0
 20 57  1  0
 22 58  1  0
 26 59  1  0
 27 60  1  0
 28 61  1  0
 34 62  1  0
 35 63  1  0
 36 64  1  0
 37 65  1  0
 40 66  1  0
 41 67  1  0
M  CHG  1   2   1
M  END
>  <meeko>  (2) 
{"is_sidechain": [false], "free_energy": -9.225, "intermolecular_energy": -13.1, "internal_energy": -1.044}

$$$$
LIB_BIAGWLDERXRFAW__M_PUB_ALL__e8__s20260927
     RDKit          3D

 67 71  0  0  0  0  0  0  0  0999 V2000
   18.4650  -16.9480  -10.6690 C   0  0  0  0  0  0  0  0  0  0  0  0
   17.6020  -16.5260  -11.8230 N   0  0  0  0  0  0  0  0  0  0  0  0
   18.2960  -16.6440  -13.1400 C   0  0  0  0  0  0  0  0  0  0  0  0
   16.2250  -17.1920  -11.8020 C   0  0  0  0  0  0  0  0  0  0  0  0
   15.6110  -17.1060  -10.4010 C   0  0  0  0  0  0  0  0  0  0  0  0
   15.4390  -18.1550   -9.7820 O   0  0  0  0  0  0  0  0  0  0  0  0
   15.3090  -15.8240   -9.9920 N   0  0  0  0  0  0  0  0  0  0  0  0
   14.7050  -15.4430   -8.7720 C   0  0  0  0  0  0  0  0  0  0  0  0
   13.3870  -14.9730   -8.8330 C   0  0  0  0  0  0  0  0  0  0  0  0
   12.7100  -14.5880   -7.6700 C   0  0  0  0  0  0  0  0  0  0  0  0
   13.3320  -14.6650   -6.4210 C   0  0  0  0  0  0  0  0  0  0  0  0
   12.6460  -14.2670   -5.2030 C   0  0  0  0  0  0  0  0  0  0  0  0
   11.3940  -14.6740   -4.7010 C   0  0  0  0  0  0  0  0  0  0  0  0
   11.0670  -14.0840   -3.5550 N   0  0  0  0  0  0  0  0  0  0  0  0
   12.1080  -13.2480   -3.2840 N   0  0  0  0  0  0  0  0  0  0  0  0
   12.2610  -12.3680   -2.1940 C   0  0  0  0  0  0  0  0  0  0  0  0
   11.2410  -12.2420   -1.1290 C   0  0  0  0  0  0  0  0  0  0  0  0
   11.6170  -11.9780    0.1930 C   0  0  0  0  0  0  0  0  0  0  0  0
   10.6510  -11.8580    1.1920 C   0  0  0  0  0  0  0  0  0  0  0  0
    9.2980  -11.9950    0.8770 C   0  0  0  0  0  0  0  0  0  0  0  0
    8.8970  -12.2520   -0.4390 C   0  0  0  0  0  0  0  0  0  0  0  0
    7.5120  -12.3790   -0.6790 N   0  0  0  0  0  0  0  0  0  0  0  0
    6.6630  -11.4190   -1.2010 C   0  0  0  0  0  0  0  0  0  0  0  0
    6.9390  -10.2510   -1.4460 O   0  0  0  0  0  0  0  0  0  0  0  0
    5.2630  -11.8780   -1.4300 C   0  0  0  0  0  0  0  0  0  0  0  0
    4.5110  -12.3000   -0.3280 C   0  0  0  0  0  0  0  0  0  0  0  0
    3.1940  -12.7290   -0.5020 C   0  0  0  0  0  0  0  0  0  0  0  0
    2.6230  -12.7310   -1.7740 C   0  0  0  0  0  0  0  0  0  0  0  0
    3.3580  -12.3000   -2.8900 C   0  0  0  0  0  0  0  0  0  0  0  0
    2.7270  -12.2620   -4.2610 C   0  0  0  0  0  0  0  0  0  0  0  0
    1.4880  -12.8280   -4.2790 F   0  0  0  0  0  0  0  0  0  0  0  0
    3.4610  -12.9380   -5.1860 F   0  0  0  0  0  0  0  0  0  0  0  0
    2.5690  -11.0020   -4.7480 F   0  0  0  0  0  0  0  0  0  0  0  0
    4.6820  -11.8620   -2.7050 C   0  0  0  0  0  0  0  0  0  0  0  0
    9.8740  -12.3850   -1.4290 C   0  0  0  0  0  0  0  0  0  0  0  0
   13.3780  -11.6220   -2.1100 C   0  0  0  0  0  0  0  0  0  0  0  0
   14.3620  -11.7930   -3.2060 C   0  0  0  0  0  0  0  0  0  0  0  0
   14.2520  -12.5940   -4.2210 N   0  0  0  0  0  0  0  0  0  0  0  0
   13.1050  -13.3430   -4.2760 C   0  0  0  0  0  0  0  0  0  0  0  0
   14.6520  -15.1270   -6.3650 C   0  0  0  0  0  0  0  0  0  0  0  0
   15.3330  -15.5130   -7.5290 C   0  0  0  0  0  0  0  0  0  0  0  0
   17.9597  -16.7009   -9.7237 H   0  0  0  0  0  0  0  0  0  0  0  0
   18.6392  -18.0330  -10.7190 H   0  0  0  0  0  0  0  0  0  0  0  0
   19.4283  -16.4193  -10.7190 H   0  0  0  0  0  0  0  0  0  0  0  0
   17.3940  -15.5240  -11.6560 H   0  0  0  0  0  0  0  0  0  0  0  0
   19.3681  -16.8263  -12.9745 H   0  0  0  0  0  0  0  0  0  0  0  0
   17.8650  -17.4818  -13.7078 H   0  0  0  0  0  0  0  0  0  0  0  0
   18.1661  -15.7109  -13.7078 H   0  0  0  0  0  0  0  0  0  0  0  0
   15.5648  -16.6819  -12.5189 H   0  0  0  0  0  0  0  0  0  0  0  0
   16.3367  -18.2509  -12.0780 H   0  0  0  0  0  0  0  0  0  0  0  0
   15.5330  -15.0490  -10.6070 H   0  0  0  0  0  0  0  0  0  0  0  0
   12.8782  -14.9057   -9.8059 H   0  0  0  0  0  0  0  0  0  0  0  0
   11.6756  -14.2203   -7.7400 H   0  0  0  0  0  0  0  0  0  0  0  0
   10.7500  -15.4080   -5.2075 H   0  0  0  0  0  0  0  0  0  0  0  0
   12.6815  -11.8644    0.4459 H   0  0  0  0  0  0  0  0  0  0  0  0
   10.9557  -11.6552    2.2293 H   0  0  0  0  0  0  0  0  0  0  0  0
    8.5410  -11.9002    1.6694 H   0  0  0  0  0  0  0  0  0  0  0  0
    7.0960  -13.2540   -0.3860 H   0  0  0  0  0  0  0  0  0  0  0  0
    4.9583  -12.2937    0.6769 H   0  0  0  0  0  0  0  0  0  0  0  0
    2.6064  -13.0656    0.3649 H   0  0  0  0  0  0  0  0  0  0  0  0
    1.5860  -13.0738   -1.9046 H   0  0  0  0  0  0  0  0  0  0  0  0
    5.2649  -11.5047   -3.5667 H   0  0  0  0  0  0  0  0  0  0  0  0
    9.5685  -12.6057   -2.4624 H   0  0  0  0  0  0  0  0  0  0  0  0
   13.5510  -10.9255   -1.2763 H   0  0  0  0  0  0  0  0  0  0  0  0
   15.2745  -11.1810   -3.1535 H   0  0  0  0  0  0  0  0  0  0  0  0
   15.1634  -15.1884   -5.3930 H   0  0  0  0  0  0  0  0  0  0  0  0
   16.3700  -15.8735   -7.4607 H   0  0  0  0  0  0  0  0  0  0  0  0
  1  2  1  0
  2  3  1  0
  2  4  1  0
  4  5  1  0
  5  6  2  0
  5  7  1  0
  7  8  1  0
  8  9  2  0
  9 10  1  0
 10 11  2  0
 11 12  1  0
 12 13  1  0
 13 14  2  0
 14 15  1  0
 15 16  1  0
 16 17  1  0
 17 18  2  0
 18 19  1  0
 19 20  2  0
 20 21  1  0
 21 22  1  0
 22 23  1  0
 23 24  2  0
 23 25  1  0
 25 26  2  0
 26 27  1  0
 27 28  2  0
 28 29  1  0
 29 30  1  0
 30 31  1  0
 30 32  1  0
 30 33  1  0
 29 34  2  0
 21 35  2  0
 16 36  2  0
 36 37  1  0
 37 38  2  0
 38 39  1  0
 11 40  1  0
 40 41  2  0
 41  8  1  0
 39 12  2  0
 39 15  1  0
 35 17  1  0
 34 25  1  0
  1 42  1  0
  1 43  1  0
  1 44  1  0
  2 45  1  0
  3 46  1  0
  3 47  1  0
  3 48  1  0
  4 49  1  0
  4 50  1  0
  7 51  1  0
  9 52  1  0
 10 53  1  0
 13 54  1  0
 18 55  1  0
 19 56  1  0
 20 57  1  0
 22 58  1  0
 26 59  1  0
 27 60  1  0
 28 61  1  0
 34 62  1  0
 35 63  1  0
 36 64  1  0
 37 65  1  0
 40 66  1  0
 41 67  1  0
M  CHG  1   2   1
M  END
>  <meeko>  (3) 
{"is_sidechain": [false], "free_energy": -9.205, "intermolecular_energy": -13.402, "internal_energy": -0.713}

$$$$
LIB_BIAGWLDERXRFAW__M_PUB_ALL__e8__s20260927
     RDKit          3D

 67 71  0  0  0  0  0  0  0  0999 V2000
   12.0650  -13.4140    0.2080 C   0  0  0  0  0  0  0  0  0  0  0  0
   10.7400  -12.7630    0.4850 N   0  0  0  0  0  0  0  0  0  0  0  0
   10.8680  -11.4990    1.2700 C   0  0  0  0  0  0  0  0  0  0  0  0
    9.8850  -12.6110   -0.7740 C   0  0  0  0  0  0  0  0  0  0  0  0
    8.4360  -13.0190   -0.4880 C   0  0  0  0  0  0  0  0  0  0  0  0
    8.2250  -14.1730   -0.1180 O   0  0  0  0  0  0  0  0  0  0  0  0
    7.5130  -12.0150   -0.6930 N   0  0  0  0  0  0  0  0  0  0  0  0
    6.1110  -12.1080   -0.5460 C   0  0  0  0  0  0  0  0  0  0  0  0
    5.5940  -11.9710    0.7480 C   0  0  0  0  0  0  0  0  0  0  0  0
    4.2150  -12.0370    0.9790 C   0  0  0  0  0  0  0  0  0  0  0  0
    3.3220  -12.2380   -0.0760 C   0  0  0  0  0  0  0  0  0  0  0  0
    1.8860  -12.3130    0.1450 C   0  0  0  0  0  0  0  0  0  0  0  0
    0.8910  -11.3420   -0.0770 C   0  0  0  0  0  0  0  0  0  0  0  0
   -0.3300  -11.7490    0.2590 N   0  0  0  0  0  0  0  0  0  0  0  0
   -0.1550  -13.0130    0.7360 N   0  0  0  0  0  0  0  0  0  0  0  0
   -1.1270  -13.8960    1.2490 C   0  0  0  0  0  0  0  0  0  0  0  0
   -2.5600  -13.5340    1.3290 C   0  0  0  0  0  0  0  0  0  0  0  0
   -3.1700  -12.7980    0.3070 C   0  0  0  0  0  0  0  0  0  0  0  0
   -4.5210  -12.4630    0.3870 C   0  0  0  0  0  0  0  0  0  0  0  0
   -5.2780  -12.8660    1.4890 C   0  0  0  0  0  0  0  0  0  0  0  0
   -4.6920  -13.6080    2.5210 C   0  0  0  0  0  0  0  0  0  0  0  0
   -5.5210  -13.9780    3.6010 N   0  0  0  0  0  0  0  0  0  0  0  0
   -5.4380  -15.1310    4.3610 C   0  0  0  0  0  0  0  0  0  0  0  0
   -4.7000  -16.0890    4.1640 O   0  0  0  0  0  0  0  0  0  0  0  0
   -6.3950  -15.2000    5.5030 C   0  0  0  0  0  0  0  0  0  0  0  0
   -6.0440  -14.5810    6.7070 C   0  0  0  0  0  0  0  0  0  0  0  0
   -6.9170  -14.6170    7.7950 C   0  0  0  0  0  0  0  0  0  0  0  0
   -8.1480  -15.2640    7.6810 C   0  0  0  0  0  0  0  0  0  0  0  0
   -8.5230  -15.8800    6.4760 C   0  0  0  0  0  0  0  0  0  0  0  0
   -9.8720  -16.5440    6.3390 C   0  0  0  0  0  0  0  0  0  0  0  0
  -10.4540  -16.2970    5.1320 F   0  0  0  0  0  0  0  0  0  0  0  0
  -10.7580  -16.1140    7.2770 F   0  0  0  0  0  0  0  0  0  0  0  0
   -9.8210  -17.8980    6.4570 F   0  0  0  0  0  0  0  0  0  0  0  0
   -7.6400  -15.8330    5.3830 C   0  0  0  0  0  0  0  0  0  0  0  0
   -3.3340  -13.9270    2.4370 C   0  0  0  0  0  0  0  0  0  0  0  0
   -0.7430  -15.1150    1.6710 C   0  0  0  0  0  0  0  0  0  0  0  0
    0.7040  -15.4180    1.5640 C   0  0  0  0  0  0  0  0  0  0  0  0
    1.6230  -14.6300    1.0960 N   0  0  0  0  0  0  0  0  0  0  0  0
    1.2000  -13.3970    0.6700 C   0  0  0  0  0  0  0  0  0  0  0  0
    3.8420  -12.3840   -1.3680 C   0  0  0  0  0  0  0  0  0  0  0  0
    5.2240  -12.3190   -1.6020 C   0  0  0  0  0  0  0  0  0  0  0  0
   12.5601  -13.6573    1.1597 H   0  0  0  0  0  0  0  0  0  0  0  0
   11.9066  -14.3369   -0.3693 H   0  0  0  0  0  0  0  0  0  0  0  0
   12.6987  -12.7246   -0.3693 H   0  0  0  0  0  0  0  0  0  0  0  0
   10.2140  -13.4480    1.0590 H   0  0  0  0  0  0  0  0  0  0  0  0
   10.8445  -11.7310    2.3450 H   0  0  0  0  0  0  0  0  0  0  0  0
   11.8205  -11.0080    1.0216 H   0  0  0  0  0  0  0  0  0  0  0  0
   10.0333  -10.8270    1.0216 H   0  0  0  0  0  0  0  0  0  0  0  0
    9.9079  -11.5617   -1.1032 H   0  0  0  0  0  0  0  0  0  0  0  0
   10.2905  -13.2631   -1.5616 H   0  0  0  0  0  0  0  0  0  0  0  0
    7.8430  -11.0990   -0.9770 H   0  0  0  0  0  0  0  0  0  0  0  0
    6.2796  -11.8096    1.5930 H   0  0  0  0  0  0  0  0  0  0  0  0
    3.8300  -11.9293    2.0038 H   0  0  0  0  0  0  0  0  0  0  0  0
    1.1027  -10.3440   -0.4883 H   0  0  0  0  0  0  0  0  0  0  0  0
   -2.5795  -12.4816   -0.5655 H   0  0  0  0  0  0  0  0  0  0  0  0
   -4.9912  -11.8805   -0.4190 H   0  0  0  0  0  0  0  0  0  0  0  0
   -6.3433  -12.5982    1.5465 H   0  0  0  0  0  0  0  0  0  0  0  0
   -6.2870  -13.3470    3.8000 H   0  0  0  0  0  0  0  0  0  0  0  0
   -5.0770  -14.0643    6.7966 H   0  0  0  0  0  0  0  0  0  0  0  0
   -6.6347  -14.1352    8.7427 H   0  0  0  0  0  0  0  0  0  0  0  0
   -8.8309  -15.2918    8.5429 H   0  0  0  0  0  0  0  0  0  0  0  0
   -7.9279  -16.2959    4.4276 H   0  0  0  0  0  0  0  0  0  0  0  0
   -2.8614  -14.4955    3.2515 H   0  0  0  0  0  0  0  0  0  0  0  0
   -1.4618  -15.8446    2.0723 H   0  0  0  0  0  0  0  0  0  0  0  0
    1.0310  -16.4076    1.9157 H   0  0  0  0  0  0  0  0  0  0  0  0
    3.1569  -12.5521   -2.2120 H   0  0  0  0  0  0  0  0  0  0  0  0
    5.6107  -12.4352   -2.6252 H   0  0  0  0  0  0  0  0  0  0  0  0
  1  2  1  0
  2  3  1  0
  2  4  1  0
  4  5  1  0
  5  6  2  0
  5  7  1  0
  7  8  1  0
  8  9  2  0
  9 10  1  0
 10 11  2  0
 11 12  1  0
 12 13  1  0
 13 14  2  0
 14 15  1  0
 15 16  1  0
 16 17  1  0
 17 18  2  0
 18 19  1  0
 19 20  2  0
 20 21  1  0
 21 22  1  0
 22 23  1  0
 23 24  2  0
 23 25  1  0
 25 26  2  0
 26 27  1  0
 27 28  2  0
 28 29  1  0
 29 30  1  0
 30 31  1  0
 30 32  1  0
 30 33  1  0
 29 34  2  0
 21 35  2  0
 16 36  2  0
 36 37  1  0
 37 38  2  0
 38 39  1  0
 11 40  1  0
 40 41  2  0
 41  8  1  0
 39 12  2  0
 39 15  1  0
 35 17  1  0
 34 25  1  0
  1 42  1  0
  1 43  1  0
  1 44  1  0
  2 45  1  0
  3 46  1  0
  3 47  1  0
  3 48  1  0
  4 49  1  0
  4 50  1  0
  7 51  1  0
  9 52  1  0
 10 53  1  0
 13 54  1  0
 18 55  1  0
 19 56  1  0
 20 57  1  0
 22 58  1  0
 26 59  1  0
 27 60  1  0
 28 61  1  0
 34 62  1  0
 35 63  1  0
 36 64  1  0
 37 65  1  0
 40 66  1  0
 41 67  1  0
M  CHG  1   2   1
M  END
>  <meeko>  (4) 
{"is_sidechain": [false], "free_energy": -9.196, "intermolecular_energy": -13.397, "internal_energy": -0.704}

$$$$
LIB_BIAGWLDERXRFAW__M_PUB_ALL__e8__s20260927
     RDKit          3D

 67 71  0  0  0  0  0  0  0  0999 V2000
   -8.9690  -17.7100    9.8160 C   0  0  0  0  0  0  0  0  0  0  0  0
  -10.0030  -17.2090    8.8500 N   0  0  0  0  0  0  0  0  0  0  0  0
  -11.3660  -17.1230    9.4530 C   0  0  0  0  0  0  0  0  0  0  0  0
   -9.5730  -15.9250    8.1400 C   0  0  0  0  0  0  0  0  0  0  0  0
   -8.6080  -16.2460    6.9920 C   0  0  0  0  0  0  0  0  0  0  0  0
   -8.9030  -17.1700    6.2350 O   0  0  0  0  0  0  0  0  0  0  0  0
   -7.4890  -15.4410    6.9500 N   0  0  0  0  0  0  0  0  0  0  0  0
   -6.4170  -15.5260    6.0340 C   0  0  0  0  0  0  0  0  0  0  0  0
   -5.4610  -16.5230    6.2620 C   0  0  0  0  0  0  0  0  0  0  0  0
   -4.3740  -16.6850    5.3940 C   0  0  0  0  0  0  0  0  0  0  0  0
   -4.2200  -15.8580    4.2790 C   0  0  0  0  0  0  0  0  0  0  0  0
   -3.0970  -16.0090    3.3680 C   0  0  0  0  0  0  0  0  0  0  0  0
   -3.0900  -16.2650    1.9830 C   0  0  0  0  0  0  0  0  0  0  0  0
   -1.8670  -16.3620    1.4690 N   0  0  0  0  0  0  0  0  0  0  0  0
   -1.0300  -16.1870    2.5300 N   0  0  0  0  0  0  0  0  0  0  0  0
    0.3800  -16.2170    2.5440 C   0  0  0  0  0  0  0  0  0  0  0  0
    1.1790  -16.4500    1.3200 C   0  0  0  0  0  0  0  0  0  0  0  0
    1.6380  -17.7330    1.0000 C   0  0  0  0  0  0  0  0  0  0  0  0
    2.3880  -17.9470   -0.1550 C   0  0  0  0  0  0  0  0  0  0  0  0
    2.6830  -16.8800   -1.0060 C   0  0  0  0  0  0  0  0  0  0  0  0
    2.2290  -15.5890   -0.7110 C   0  0  0  0  0  0  0  0  0  0  0  0
    2.5660  -14.5630   -1.6180 N   0  0  0  0  0  0  0  0  0  0  0  0
    1.8030  -14.0940   -2.6720 C   0  0  0  0  0  0  0  0  0  0  0  0
    0.7430  -14.5590   -3.0750 O   0  0  0  0  0  0  0  0  0  0  0  0
    2.3860  -12.9300   -3.4000 C   0  0  0  0  0  0  0  0  0  0  0  0
    2.1420  -11.6440   -2.9070 C   0  0  0  0  0  0  0  0  0  0  0  0
    2.6770  -10.5310   -3.5560 C   0  0  0  0  0  0  0  0  0  0  0  0
    3.4640  -10.6990   -4.6950 C   0  0  0  0  0  0  0  0  0  0  0  0
    3.7310  -11.9830   -5.1980 C   0  0  0  0  0  0  0  0  0  0  0  0
    4.6160  -12.1690   -6.4060 C   0  0  0  0  0  0  0  0  0  0  0  0
    5.9350  -12.2590   -6.0770 F   0  0  0  0  0  0  0  0  0  0  0  0
    4.5190  -11.1320   -7.2820 F   0  0  0  0  0  0  0  0  0  0  0  0
    4.3320  -13.2940   -7.1160 F   0  0  0  0  0  0  0  0  0  0  0  0
    3.1930  -13.1000   -4.5340 C   0  0  0  0  0  0  0  0  0  0  0  0
    1.4900  -15.3830    0.4570 C   0  0  0  0  0  0  0  0  0  0  0  0
    1.0240  -16.0170    3.7090 C   0  0  0  0  0  0  0  0  0  0  0  0
    0.1690  -15.7880    4.8980 C   0  0  0  0  0  0  0  0  0  0  0  0
   -1.1280  -15.7530    4.9180 N   0  0  0  0  0  0  0  0  0  0  0  0
   -1.7560  -15.9560    3.7160 C   0  0  0  0  0  0  0  0  0  0  0  0
   -5.1730  -14.8560    4.0580 C   0  0  0  0  0  0  0  0  0  0  0  0
   -6.2630  -14.6910    4.9270 C   0  0  0  0  0  0  0  0  0  0  0  0
   -9.3170  -17.5414   10.8458 H   0  0  0  0  0  0  0  0  0  0  0  0
   -8.8078  -18.7861    9.6551 H   0  0  0  0  0  0  0  0  0  0  0  0
   -8.0245  -17.1696    9.6551 H   0  0  0  0  0  0  0  0  0  0  0  0
  -10.0300  -17.9140    8.0900 H   0  0  0  0  0  0  0  0  0  0  0  0
  -11.2827  -17.1283   10.5498 H   0  0  0  0  0  0  0  0  0  0  0  0
  -11.8532  -16.1923    9.1267 H   0  0  0  0  0  0  0  0  0  0  0  0
  -11.9663  -17.9851    9.1267 H   0  0  0  0  0  0  0  0  0  0  0  0
  -10.4622  -15.4195    7.7353 H   0  0  0  0  0  0  0  0  0  0  0  0
   -9.0626  -15.2715    8.8628 H   0  0  0  0  0  0  0  0  0  0  0  0
   -7.3960  -14.6980    7.6340 H   0  0  0  0  0  0  0  0  0  0  0  0
   -5.5648  -17.1868    7.1330 H   0  0  0  0  0  0  0  0  0  0  0  0
   -3.6326  -17.4730    5.5927 H   0  0  0  0  0  0  0  0  0  0  0  0
   -4.0066  -16.3741    1.3847 H   0  0  0  0  0  0  0  0  0  0  0  0
    1.4052  -18.5780    1.6646 H   0  0  0  0  0  0  0  0  0  0  0  0
    2.7481  -18.9579   -0.3966 H   0  0  0  0  0  0  0  0  0  0  0  0
    3.2767  -17.0552   -1.9153 H   0  0  0  0  0  0  0  0  0  0  0  0
    3.4930  -14.1690   -1.5070 H   0  0  0  0  0  0  0  0  0  0  0  0
    1.5266  -11.5099   -2.0052 H   0  0  0  0  0  0  0  0  0  0  0  0
    2.4780   -9.5206   -3.1692 H   0  0  0  0  0  0  0  0  0  0  0  0
    3.8798   -9.8172   -5.2045 H   0  0  0  0  0  0  0  0  0  0  0  0
    3.4065  -14.1128   -4.9064 H   0  0  0  0  0  0  0  0  0  0  0  0
    1.1452  -14.3686    0.7062 H   0  0  0  0  0  0  0  0  0  0  0  0
    2.1220  -16.0232    3.7749 H   0  0  0  0  0  0  0  0  0  0  0  0
    0.6844  -15.6325    5.8573 H   0  0  0  0  0  0  0  0  0  0  0  0
   -5.0658  -14.1882    3.1905 H   0  0  0  0  0  0  0  0  0  0  0  0
   -7.0006  -13.8981    4.7339 H   0  0  0  0  0  0  0  0  0  0  0  0
  1  2  1  0
  2  3  1  0
  2  4  1  0
  4  5  1  0
  5  6  2  0
  5  7  1  0
  7  8  1  0
  8  9  2  0
  9 10  1  0
 10 11  2  0
 11 12  1  0
 12 13  1  0
 13 14  2  0
 14 15  1  0
 15 16  1  0
 16 17  1  0
 17 18  2  0
 18 19  1  0
 19 20  2  0
 20 21  1  0
 21 22  1  0
 22 23  1  0
 23 24  2  0
 23 25  1  0
 25 26  2  0
 26 27  1  0
 27 28  2  0
 28 29  1  0
 29 30  1  0
 30 31  1  0
 30 32  1  0
 30 33  1  0
 29 34  2  0
 21 35  2  0
 16 36  2  0
 36 37  1  0
 37 38  2  0
 38 39  1  0
 11 40  1  0
 40 41  2  0
 41  8  1  0
 39 12  2  0
 39 15  1  0
 35 17  1  0
 34 25  1  0
  1 42  1  0
  1 43  1  0
  1 44  1  0
  2 45  1  0
  3 46  1  0
  3 47  1  0
  3 48  1  0
  4 49  1  0
  4 50  1  0
  7 51  1  0
  9 52  1  0
 10 53  1  0
 13 54  1  0
 18 55  1  0
 19 56  1  0
 20 57  1  0
 22 58  1  0
 26 59  1  0
 27 60  1  0
 28 61  1  0
 34 62  1  0
 35 63  1  0
 36 64  1  0
 37 65  1  0
 40 66  1  0
 41 67  1  0
M  CHG  1   2   1
M  END
>  <meeko>  (5) 
{"is_sidechain": [false], "free_energy": -9.129, "intermolecular_energy": -12.714, "internal_energy": -1.29}

$$$$
LIB_BIAGWLDERXRFAW__M_PUB_ALL__e8__s20260927
     RDKit          3D

 67 71  0  0  0  0  0  0  0  0999 V2000
    1.7580  -17.8430   10.1950 C   0  0  0  0  0  0  0  0  0  0  0  0
    2.1550  -18.9000    9.2060 N   0  0  0  0  0  0  0  0  0  0  0  0
    2.4340  -20.2190    9.8480 C   0  0  0  0  0  0  0  0  0  0  0  0
    1.1870  -18.9940    8.0250 C   0  0  0  0  0  0  0  0  0  0  0  0
    1.8460  -18.4560    6.7500 C   0  0  0  0  0  0  0  0  0  0  0  0
    3.0440  -18.6800    6.5820 O   0  0  0  0  0  0  0  0  0  0  0  0
    0.9920  -17.7580    5.9220 N   0  0  0  0  0  0  0  0  0  0  0  0
    1.3230  -17.1210    4.7050 C   0  0  0  0  0  0  0  0  0  0  0  0
    1.2010  -15.7270    4.6610 C   0  0  0  0  0  0  0  0  0  0  0  0
    1.5220  -15.0160    3.4990 C   0  0  0  0  0  0  0  0  0  0  0  0
    1.9740  -15.6800    2.3560 C   0  0  0  0  0  0  0  0  0  0  0  0
    2.3090  -14.9590    1.1380 C   0  0  0  0  0  0  0  0  0  0  0  0
    3.4030  -14.1150    0.8650 C   0  0  0  0  0  0  0  0  0  0  0  0
    3.3820  -13.6030   -0.3620 N   0  0  0  0  0  0  0  0  0  0  0  0
    2.2430  -14.0950   -0.9250 N   0  0  0  0  0  0  0  0  0  0  0  0
    1.7270  -13.8470   -2.2130 C   0  0  0  0  0  0  0  0  0  0  0  0
    2.4140  -12.9670   -3.1850 C   0  0  0  0  0  0  0  0  0  0  0  0
    2.3080  -11.5750   -3.0870 C   0  0  0  0  0  0  0  0  0  0  0  0
    2.9600  -10.7500   -4.0030 C   0  0  0  0  0  0  0  0  0  0  0  0
    3.7290  -11.3100   -5.0240 C   0  0  0  0  0  0  0  0  0  0  0  0
    3.8560  -12.6990   -5.1390 C   0  0  0  0  0  0  0  0  0  0  0  0
    4.6500  -13.1900   -6.1970 N   0  0  0  0  0  0  0  0  0  0  0  0
    5.9900  -13.5320   -6.1480 C   0  0  0  0  0  0  0  0  0  0  0  0
    6.7550  -13.3660   -5.2060 O   0  0  0  0  0  0  0  0  0  0  0  0
    6.5340  -14.1150   -7.4080 C   0  0  0  0  0  0  0  0  0  0  0  0
    7.0690  -15.4070   -7.3690 C   0  0  0  0  0  0  0  0  0  0  0  0
    7.5810  -15.9890   -8.5290 C   0  0  0  0  0  0  0  0  0  0  0  0
    7.5530  -15.2860   -9.7330 C   0  0  0  0  0  0  0  0  0  0  0  0
    7.0090  -13.9940   -9.7950 C   0  0  0  0  0  0  0  0  0  0  0  0
    6.9410  -13.2480  -11.1060 C   0  0  0  0  0  0  0  0  0  0  0  0
    6.7350  -11.9120  -10.9360 F   0  0  0  0  0  0  0  0  0  0  0  0
    5.9250  -13.6870  -11.8970 F   0  0  0  0  0  0  0  0  0  0  0  0
    8.0750  -13.3580  -11.8490 F   0  0  0  0  0  0  0  0  0  0  0  0
    6.4890  -13.4170   -8.6230 C   0  0  0  0  0  0  0  0  0  0  0  0
    3.1870  -13.5170   -4.2240 C   0  0  0  0  0  0  0  0  0  0  0  0
    0.5750  -14.4380   -2.5790 C   0  0  0  0  0  0  0  0  0  0  0  0
   -0.0650  -15.3090   -1.5630 C   0  0  0  0  0  0  0  0  0  0  0  0
    0.3830  -15.5580   -0.3710 N   0  0  0  0  0  0  0  0  0  0  0  0
    1.5610  -14.9440   -0.0290 C   0  0  0  0  0  0  0  0  0  0  0  0
    2.0860  -17.0750    2.4000 C   0  0  0  0  0  0  0  0  0  0  0  0
    1.7650  -17.7900    3.5630 C   0  0  0  0  0  0  0  0  0  0  0  0
    1.9013  -18.2245   11.2167 H   0  0  0  0  0  0  0  0  0  0  0  0
    2.3817  -16.9491   10.0465 H   0  0  0  0  0  0  0  0  0  0  0  0
    0.7001  -17.5807   10.0465 H   0  0  0  0  0  0  0  0  0  0  0  0
    3.0340  -18.5570    8.7770 H   0  0  0  0  0  0  0  0  0  0  0  0
    2.4102  -20.1066   10.9420 H   0  0  0  0  0  0  0  0  0  0  0  0
    1.6699  -20.9469    9.5375 H   0  0  0  0  0  0  0  0  0  0  0  0
    3.4273  -20.5751    9.5375 H   0  0  0  0  0  0  0  0  0  0  0  0
    0.9044  -20.0458    7.8708 H   0  0  0  0  0  0  0  0  0  0  0  0
    0.2939  -18.3913    8.2467 H   0  0  0  0  0  0  0  0  0  0  0  0
    0.0150  -17.6770    6.1840 H   0  0  0  0  0  0  0  0  0  0  0  0
    0.8486  -15.1840    5.5504 H   0  0  0  0  0  0  0  0  0  0  0  0
    1.4171  -13.9211    3.4855 H   0  0  0  0  0  0  0  0  0  0  0  0
    4.1971  -13.9004    1.5953 H   0  0  0  0  0  0  0  0  0  0  0  0
    1.7062  -11.1285   -2.2818 H   0  0  0  0  0  0  0  0  0  0  0  0
    2.8680   -9.6569   -3.9207 H   0  0  0  0  0  0  0  0  0  0  0  0
    4.2397  -10.6542   -5.7445 H   0  0  0  0  0  0  0  0  0  0  0  0
    4.1910  -13.2460   -7.0980 H   0  0  0  0  0  0  0  0  0  0  0  0
    7.0860  -15.9654   -6.4214 H   0  0  0  0  0  0  0  0  0  0  0  0
    8.0069  -17.0026   -8.4938 H   0  0  0  0  0  0  0  0  0  0  0  0
    7.9615  -15.7490  -10.6434 H   0  0  0  0  0  0  0  0  0  0  0  0
    6.0441  -12.4117   -8.6596 H   0  0  0  0  0  0  0  0  0  0  0  0
    3.2663  -14.6101   -4.3179 H   0  0  0  0  0  0  0  0  0  0  0  0
    0.1331  -14.2841   -3.5745 H   0  0  0  0  0  0  0  0  0  0  0  0
   -1.0119  -15.7909   -1.8480 H   0  0  0  0  0  0  0  0  0  0  0  0
    2.4312  -17.6187    1.5083 H   0  0  0  0  0  0  0  0  0  0  0  0
    1.8623  -18.8856    3.5750 H   0  0  0  0  0  0  0  0  0  0  0  0
  1  2  1  0
  2  3  1  0
  2  4  1  0
  4  5  1  0
  5  6  2  0
  5  7  1  0
  7  8  1  0
  8  9  2  0
  9 10  1  0
 10 11  2  0
 11 12  1  0
 12 13  1  0
 13 14  2  0
 14 15  1  0
 15 16  1  0
 16 17  1  0
 17 18  2  0
 18 19  1  0
 19 20  2  0
 20 21  1  0
 21 22  1  0
 22 23  1  0
 23 24  2  0
 23 25  1  0
 25 26  2  0
 26 27  1  0
 27 28  2  0
 28 29  1  0
 29 30  1  0
 30 31  1  0
 30 32  1  0
 30 33  1  0
 29 34  2  0
 21 35  2  0
 16 36  2  0
 36 37  1  0
 37 38  2  0
 38 39  1  0
 11 40  1  0
 40 41  2  0
 41  8  1  0
 39 12  2  0
 39 15  1  0
 35 17  1  0
 34 25  1  0
  1 42  1  0
  1 43  1  0
  1 44  1  0
  2 45  1  0
  3 46  1  0
  3 47  1  0
  3 48  1  0
  4 49  1  0
  4 50  1  0
  7 51  1  0
  9 52  1  0
 10 53  1  0
 13 54  1  0
 18 55  1  0
 19 56  1  0
 20 57  1  0
 22 58  1  0
 26 59  1  0
 27 60  1  0
 28 61  1  0
 34 62  1  0
 35 63  1  0
 36 64  1  0
 37 65  1  0
 40 66  1  0
 41 67  1  0
M  CHG  1   2   1
M  END
>  <meeko>  (6) 
{"is_sidechain": [false], "free_energy": -9.028, "intermolecular_energy": -12.554, "internal_energy": -1.3}

$$$$
LIB_BIAGWLDERXRFAW__M_PUB_ALL__e8__s20260927
     RDKit          3D

 67 71  0  0  0  0  0  0  0  0999 V2000
   10.6480  -12.6580  -10.5350 C   0  0  0  0  0  0  0  0  0  0  0  0
    9.1630  -12.4340  -10.5410 N   0  0  0  0  0  0  0  0  0  0  0  0
    8.7400  -11.3800  -11.5100 C   0  0  0  0  0  0  0  0  0  0  0  0
    8.3720  -13.7350  -10.6770 C   0  0  0  0  0  0  0  0  0  0  0  0
    7.1420  -13.7120   -9.7630 C   0  0  0  0  0  0  0  0  0  0  0  0
    6.0400  -13.9030  -10.2770 O   0  0  0  0  0  0  0  0  0  0  0  0
    7.4260  -13.4650   -8.4370 N   0  0  0  0  0  0  0  0  0  0  0  0
    6.4970  -13.3500   -7.3780 C   0  0  0  0  0  0  0  0  0  0  0  0
    5.6550  -12.2320   -7.3870 C   0  0  0  0  0  0  0  0  0  0  0  0
    4.6970  -12.0480   -6.3830 C   0  0  0  0  0  0  0  0  0  0  0  0
    4.5570  -12.9780   -5.3500 C   0  0  0  0  0  0  0  0  0  0  0  0
    3.5700  -12.8030   -4.2960 C   0  0  0  0  0  0  0  0  0  0  0  0
    2.1640  -12.7580   -4.3790 C   0  0  0  0  0  0  0  0  0  0  0  0
    1.5710  -12.5630   -3.2050 N   0  0  0  0  0  0  0  0  0  0  0  0
    2.5950  -12.4540   -2.3120 N   0  0  0  0  0  0  0  0  0  0  0  0
    2.5230  -12.2170   -0.9240 C   0  0  0  0  0  0  0  0  0  0  0  0
    1.2340  -12.0560   -0.2150 C   0  0  0  0  0  0  0  0  0  0  0  0
    0.5870  -10.8150   -0.1830 C   0  0  0  0  0  0  0  0  0  0  0  0
   -0.6290  -10.6700    0.4850 C   0  0  0  0  0  0  0  0  0  0  0  0
   -1.2130  -11.7660    1.1220 C   0  0  0  0  0  0  0  0  0  0  0  0
   -0.5890  -13.0180    1.0980 C   0  0  0  0  0  0  0  0  0  0  0  0
   -1.2390  -14.0780    1.7640 N   0  0  0  0  0  0  0  0  0  0  0  0
   -2.3470  -14.7840    1.3300 C   0  0  0  0  0  0  0  0  0  0  0  0
   -3.0280  -14.5440    0.3410 O   0  0  0  0  0  0  0  0  0  0  0  0
   -2.7520  -15.9170    2.2100 C   0  0  0  0  0  0  0  0  0  0  0  0
   -2.1720  -17.1710    1.9930 C   0  0  0  0  0  0  0  0  0  0  0  0
   -2.5200  -18.2540    2.8010 C   0  0  0  0  0  0  0  0  0  0  0  0
   -3.4430  -18.0870    3.8340 C   0  0  0  0  0  0  0  0  0  0  0  0
   -4.0260  -16.8330    4.0750 C   0  0  0  0  0  0  0  0  0  0  0  0
   -4.9940  -16.6400    5.2180 C   0  0  0  0  0  0  0  0  0  0  0  0
   -6.0270  -17.5280    5.1810 F   0  0  0  0  0  0  0  0  0  0  0  0
   -5.5610  -15.4040    5.2120 F   0  0  0  0  0  0  0  0  0  0  0  0
   -4.4190  -16.7890    6.4420 F   0  0  0  0  0  0  0  0  0  0  0  0
   -3.6650  -15.7450    3.2600 C   0  0  0  0  0  0  0  0  0  0  0  0
    0.6360  -13.1500    0.4380 C   0  0  0  0  0  0  0  0  0  0  0  0
    3.6640  -12.1450   -0.2150 C   0  0  0  0  0  0  0  0  0  0  0  0
    4.9220  -12.3150   -0.9820 C   0  0  0  0  0  0  0  0  0  0  0  0
    5.0230  -12.5350   -2.2560 N   0  0  0  0  0  0  0  0  0  0  0  0
    3.8420  -12.6070   -2.9510 C   0  0  0  0  0  0  0  0  0  0  0  0
    5.4060  -14.0910   -5.3380 C   0  0  0  0  0  0  0  0  0  0  0  0
    6.3670  -14.2760   -6.3430 C   0  0  0  0  0  0  0  0  0  0  0  0
   11.0065  -12.7121   -9.4965 H   0  0  0  0  0  0  0  0  0  0  0  0
   10.8787  -13.6011  -11.0521 H   0  0  0  0  0  0  0  0  0  0  0  0
   11.1466  -11.8249  -11.0521 H   0  0  0  0  0  0  0  0  0  0  0  0
    8.9340  -12.1050   -9.5850 H   0  0  0  0  0  0  0  0  0  0  0  0
    8.3854  -10.4964  -10.9590 H   0  0  0  0  0  0  0  0  0  0  0  0
    9.5950  -11.0990  -12.1425 H   0  0  0  0  0  0  0  0  0  0  0  0
    7.9279  -11.7680  -12.1425 H   0  0  0  0  0  0  0  0  0  0  0  0
    8.0455  -13.8530  -11.7208 H   0  0  0  0  0  0  0  0  0  0  0  0
    9.0173  -14.5765  -10.3847 H   0  0  0  0  0  0  0  0  0  0  0  0
    8.3940  -13.3520   -8.1570 H   0  0  0  0  0  0  0  0  0  0  0  0
    5.7472  -11.4889   -8.1928 H   0  0  0  0  0  0  0  0  0  0  0  0
    4.0470  -11.1609   -6.4077 H   0  0  0  0  0  0  0  0  0  0  0  0
    1.6110  -12.8730   -5.3229 H   0  0  0  0  0  0  0  0  0  0  0  0
    1.0402   -9.9490   -0.6876 H   0  0  0  0  0  0  0  0  0  0  0  0
   -1.1285   -9.6902    0.5098 H   0  0  0  0  0  0  0  0  0  0  0  0
   -2.1718  -11.6444    1.6473 H   0  0  0  0  0  0  0  0  0  0  0  0
   -0.8780  -14.3020    2.6830 H   0  0  0  0  0  0  0  0  0  0  0  0
   -1.4395  -17.3038    1.1832 H   0  0  0  0  0  0  0  0  0  0  0  0
   -2.0663  -19.2402    2.6235 H   0  0  0  0  0  0  0  0  0  0  0  0
   -3.7162  -18.9456    4.4651 H   0  0  0  0  0  0  0  0  0  0  0  0
   -4.1017  -14.7530    3.4476 H   0  0  0  0  0  0  0  0  0  0  0  0
    1.1419  -14.1267    0.4288 H   0  0  0  0  0  0  0  0  0  0  0  0
    3.6640  -11.9701    0.8710 H   0  0  0  0  0  0  0  0  0  0  0  0
    5.8618  -12.2479   -0.4143 H   0  0  0  0  0  0  0  0  0  0  0  0
    5.3183  -14.8311   -4.5289 H   0  0  0  0  0  0  0  0  0  0  0  0
    7.0233  -15.1583   -6.3146 H   0  0  0  0  0  0  0  0  0  0  0  0
  1  2  1  0
  2  3  1  0
  2  4  1  0
  4  5  1  0
  5  6  2  0
  5  7  1  0
  7  8  1  0
  8  9  2  0
  9 10  1  0
 10 11  2  0
 11 12  1  0
 12 13  1  0
 13 14  2  0
 14 15  1  0
 15 16  1  0
 16 17  1  0
 17 18  2  0
 18 19  1  0
 19 20  2  0
 20 21  1  0
 21 22  1  0
 22 23  1  0
 23 24  2  0
 23 25  1  0
 25 26  2  0
 26 27  1  0
 27 28  2  0
 28 29  1  0
 29 30  1  0
 30 31  1  0
 30 32  1  0
 30 33  1  0
 29 34  2  0
 21 35  2  0
 16 36  2  0
 36 37  1  0
 37 38  2  0
 38 39  1  0
 11 40  1  0
 40 41  2  0
 41  8  1  0
 39 12  2  0
 39 15  1  0
 35 17  1  0
 34 25  1  0
  1 42  1  0
  1 43  1  0
  1 44  1  0
  2 45  1  0
  3 46  1  0
  3 47  1  0
  3 48  1  0
  4 49  1  0
  4 50  1  0
  7 51  1  0
  9 52  1  0
 10 53  1  0
 13 54  1  0
 18 55  1  0
 19 56  1  0
 20 57  1  0
 22 58  1  0
 26 59  1  0
 27 60  1  0
 28 61  1  0
 34 62  1  0
 35 63  1  0
 36 64  1  0
 37 65  1  0
 40 66  1  0
 41 67  1  0
M  CHG  1   2   1
M  END
>  <meeko>  (7) 
{"is_sidechain": [false], "free_energy": -9.016, "intermolecular_energy": -12.606, "internal_energy": -1.231}

$$$$
LIB_BIAGWLDERXRFAW__M_PUB_ALL__e8__s20260927
     RDKit          3D

 67 71  0  0  0  0  0  0  0  0999 V2000
   10.0310  -18.6920  -10.0760 C   0  0  0  0  0  0  0  0  0  0  0  0
    9.2590  -18.2060   -8.8840 N   0  0  0  0  0  0  0  0  0  0  0  0
    9.9770  -18.4340   -7.5950 C   0  0  0  0  0  0  0  0  0  0  0  0
    8.7570  -16.7710   -9.0530 C   0  0  0  0  0  0  0  0  0  0  0  0
    7.5320  -16.5250   -8.1650 C   0  0  0  0  0  0  0  0  0  0  0  0
    6.6500  -17.3830   -8.1510 O   0  0  0  0  0  0  0  0  0  0  0  0
    7.5630  -15.3330   -7.4740 N   0  0  0  0  0  0  0  0  0  0  0  0
    6.5640  -14.8240   -6.6130 C   0  0  0  0  0  0  0  0  0  0  0  0
    6.2640  -15.5760   -5.4710 C   0  0  0  0  0  0  0  0  0  0  0  0
    5.2970  -15.1370   -4.5590 C   0  0  0  0  0  0  0  0  0  0  0  0
    4.6100  -13.9380   -4.7660 C   0  0  0  0  0  0  0  0  0  0  0  0
    3.6000  -13.4670   -3.8320 C   0  0  0  0  0  0  0  0  0  0  0  0
    2.2250  -13.2410   -4.0330 C   0  0  0  0  0  0  0  0  0  0  0  0
    1.5990  -12.7870   -2.9510 N   0  0  0  0  0  0  0  0  0  0  0  0
    2.5740  -12.6860   -2.0030 N   0  0  0  0  0  0  0  0  0  0  0  0
    2.4560  -12.2310   -0.6740 C   0  0  0  0  0  0  0  0  0  0  0  0
    1.1660  -11.7850   -0.1020 C   0  0  0  0  0  0  0  0  0  0  0  0
    0.6890  -10.4900   -0.3380 C   0  0  0  0  0  0  0  0  0  0  0  0
   -0.5280  -10.0760    0.2010 C   0  0  0  0  0  0  0  0  0  0  0  0
   -1.2840  -10.9550    0.9790 C   0  0  0  0  0  0  0  0  0  0  0  0
   -0.8320  -12.2570    1.2230 C   0  0  0  0  0  0  0  0  0  0  0  0
   -1.6510  -13.0870    2.0180 N   0  0  0  0  0  0  0  0  0  0  0  0
   -2.8130  -13.7300    1.6320 C   0  0  0  0  0  0  0  0  0  0  0  0
   -3.4000  -13.6080    0.5640 O   0  0  0  0  0  0  0  0  0  0  0  0
   -3.4110  -14.6200    2.6700 C   0  0  0  0  0  0  0  0  0  0  0  0
   -2.7190  -15.7810    3.0320 C   0  0  0  0  0  0  0  0  0  0  0  0
   -3.2430  -16.6340    4.0040 C   0  0  0  0  0  0  0  0  0  0  0  0
   -4.4540  -16.3260    4.6230 C   0  0  0  0  0  0  0  0  0  0  0  0
   -5.1560  -15.1590    4.2820 C   0  0  0  0  0  0  0  0  0  0  0  0
   -6.4460  -14.8040    4.9810 C   0  0  0  0  0  0  0  0  0  0  0  0
   -7.5270  -14.8920    4.1560 F   0  0  0  0  0  0  0  0  0  0  0  0
   -6.4420  -13.5310    5.4590 F   0  0  0  0  0  0  0  0  0  0  0  0
   -6.7230  -15.6080    6.0440 F   0  0  0  0  0  0  0  0  0  0  0  0
   -4.6180  -14.3020    3.3060 C   0  0  0  0  0  0  0  0  0  0  0  0
    0.3960  -12.6570    0.6900 C   0  0  0  0  0  0  0  0  0  0  0  0
    3.5510  -12.2100    0.1070 C   0  0  0  0  0  0  0  0  0  0  0  0
    4.8130  -12.6700   -0.5230 C   0  0  0  0  0  0  0  0  0  0  0  0
    4.9540  -13.0950   -1.7410 N   0  0  0  0  0  0  0  0  0  0  0  0
    3.8190  -13.1080   -2.5110 C   0  0  0  0  0  0  0  0  0  0  0  0
    4.9060  -13.1930   -5.9140 C   0  0  0  0  0  0  0  0  0  0  0  0
    5.8750  -13.6310   -6.8300 C   0  0  0  0  0  0  0  0  0  0  0  0
   10.9166  -19.2495   -9.7369 H   0  0  0  0  0  0  0  0  0  0  0  0
    9.3926  -19.3514  -10.6823 H   0  0  0  0  0  0  0  0  0  0  0  0
   10.3496  -17.8313  -10.6823 H   0  0  0  0  0  0  0  0  0  0  0  0
    8.3890  -18.7720   -8.8740 H   0  0  0  0  0  0  0  0  0  0  0  0
    9.2999  -18.2190   -6.7551 H   0  0  0  0  0  0  0  0  0  0  0  0
   10.3082  -19.4815   -7.5401 H   0  0  0  0  0  0  0  0  0  0  0  0
   10.8519  -17.7695   -7.5401 H   0  0  0  0  0  0  0  0  0  0  0  0
    9.5569  -16.0714   -8.7689 H   0  0  0  0  0  0  0  0  0  0  0  0
    8.4730  -16.6140  -10.1040 H   0  0  0  0  0  0  0  0  0  0  0  0
    8.3770  -14.7340   -7.5680 H   0  0  0  0  0  0  0  0  0  0  0  0
    6.7940  -16.5224   -5.2883 H   0  0  0  0  0  0  0  0  0  0  0  0
    5.0752  -15.7434   -3.6684 H   0  0  0  0  0  0  0  0  0  0  0  0
    1.7176  -13.4223   -4.9920 H   0  0  0  0  0  0  0  0  0  0  0  0
    1.2788   -9.7944   -0.9531 H   0  0  0  0  0  0  0  0  0  0  0  0
   -0.8932   -9.0555    0.0132 H   0  0  0  0  0  0  0  0  0  0  0  0
   -2.2424  -10.6216    1.4035 H   0  0  0  0  0  0  0  0  0  0  0  0
   -1.3750  -13.1720    2.9880 H   0  0  0  0  0  0  0  0  0  0  0  0
   -1.7602  -16.0217    2.5495 H   0  0  0  0  0  0  0  0  0  0  0  0
   -2.7006  -17.5497    4.2821 H   0  0  0  0  0  0  0  0  0  0  0  0
   -4.8634  -17.0042    5.3862 H   0  0  0  0  0  0  0  0  0  0  0  0
   -5.1483  -13.3757    3.0400 H   0  0  0  0  0  0  0  0  0  0  0  0
    0.7678  -13.6721    0.8931 H   0  0  0  0  0  0  0  0  0  0  0  0
    3.5129  -11.8712    1.1528 H   0  0  0  0  0  0  0  0  0  0  0  0
    5.7171  -12.6487    0.1032 H   0  0  0  0  0  0  0  0  0  0  0  0
    4.3710  -12.2502   -6.1008 H   0  0  0  0  0  0  0  0  0  0  0  0
    6.0924  -13.0294   -7.7249 H   0  0  0  0  0  0  0  0  0  0  0  0
  1  2  1  0
  2  3  1  0
  2  4  1  0
  4  5  1  0
  5  6  2  0
  5  7  1  0
  7  8  1  0
  8  9  2  0
  9 10  1  0
 10 11  2  0
 11 12  1  0
 12 13  1  0
 13 14  2  0
 14 15  1  0
 15 16  1  0
 16 17  1  0
 17 18  2  0
 18 19  1  0
 19 20  2  0
 20 21  1  0
 21 22  1  0
 22 23  1  0
 23 24  2  0
 23 25  1  0
 25 26  2  0
 26 27  1  0
 27 28  2  0
 28 29  1  0
 29 30  1  0
 30 31  1  0
 30 32  1  0
 30 33  1  0
 29 34  2  0
 21 35  2  0
 16 36  2  0
 36 37  1  0
 37 38  2  0
 38 39  1  0
 11 40  1  0
 40 41  2  0
 41  8  1  0
 39 12  2  0
 39 15  1  0
 35 17  1  0
 34 25  1  0
  1 42  1  0
  1 43  1  0
  1 44  1  0
  2 45  1  0
  3 46  1  0
  3 47  1  0
  3 48  1  0
  4 49  1  0
  4 50  1  0
  7 51  1  0
  9 52  1  0
 10 53  1  0
 13 54  1  0
 18 55  1  0
 19 56  1  0
 20 57  1  0
 22 58  1  0
 26 59  1  0
 27 60  1  0
 28 61  1  0
 34 62  1  0
 35 63  1  0
 36 64  1  0
 37 65  1  0
 40 66  1  0
 41 67  1  0
M  CHG  1   2   1
M  END
>  <meeko>  (8) 
{"is_sidechain": [false], "free_energy": -9.007, "intermolecular_energy": -12.661, "internal_energy": -1.163}

$$$$
LIB_BIAGWLDERXRFAW__M_PUB_ALL__e8__s20260927
     RDKit          3D

 67 71  0  0  0  0  0  0  0  0999 V2000
   -2.9010  -10.4260    0.0360 C   0  0  0  0  0  0  0  0  0  0  0  0
   -1.6800  -10.2060    0.8810 N   0  0  0  0  0  0  0  0  0  0  0  0
   -1.9940   -9.5970    2.2080 C   0  0  0  0  0  0  0  0  0  0  0  0
   -0.8000  -11.4530    0.9800 C   0  0  0  0  0  0  0  0  0  0  0  0
    0.6420  -11.1240    0.5780 C   0  0  0  0  0  0  0  0  0  0  0  0
    1.0490   -9.9810    0.7810 O   0  0  0  0  0  0  0  0  0  0  0  0
    1.3280  -12.1790    0.0150 N   0  0  0  0  0  0  0  0  0  0  0  0
    2.6510  -12.1620   -0.4810 C   0  0  0  0  0  0  0  0  0  0  0  0
    3.6860  -12.2100    0.4610 C   0  0  0  0  0  0  0  0  0  0  0  0
    5.0250  -12.2120    0.0540 C   0  0  0  0  0  0  0  0  0  0  0  0
    5.3610  -12.1680   -1.3020 C   0  0  0  0  0  0  0  0  0  0  0  0
    6.7460  -12.1650   -1.7440 C   0  0  0  0  0  0  0  0  0  0  0  0
    7.4520  -11.1980   -2.4850 C   0  0  0  0  0  0  0  0  0  0  0  0
    8.7140  -11.5360   -2.7300 N   0  0  0  0  0  0  0  0  0  0  0  0
    8.8620  -12.7650   -2.1600 N   0  0  0  0  0  0  0  0  0  0  0  0
   10.0040  -13.5900   -2.1450 C   0  0  0  0  0  0  0  0  0  0  0  0
   11.2770  -13.1900   -2.7860 C   0  0  0  0  0  0  0  0  0  0  0  0
   12.1850  -12.3610   -2.1160 C   0  0  0  0  0  0  0  0  0  0  0  0
   13.3840  -11.9910   -2.7230 C   0  0  0  0  0  0  0  0  0  0  0  0
   13.6900  -12.4500   -4.0050 C   0  0  0  0  0  0  0  0  0  0  0  0
   12.8030  -13.2850   -4.6920 C   0  0  0  0  0  0  0  0  0  0  0  0
   13.1820  -13.7080   -5.9840 N   0  0  0  0  0  0  0  0  0  0  0  0
   13.8330  -14.8810   -6.3220 C   0  0  0  0  0  0  0  0  0  0  0  0
   14.2960  -15.7120   -5.5490 O   0  0  0  0  0  0  0  0  0  0  0  0
   14.0160  -15.0980   -7.7860 C   0  0  0  0  0  0  0  0  0  0  0  0
   12.9490  -14.8040   -8.6420 C   0  0  0  0  0  0  0  0  0  0  0  0
   13.0840  -14.9860  -10.0180 C   0  0  0  0  0  0  0  0  0  0  0  0
   14.2880  -15.4540  -10.5460 C   0  0  0  0  0  0  0  0  0  0  0  0
   15.3740  -15.7420   -9.7040 C   0  0  0  0  0  0  0  0  0  0  0  0
   16.6900  -16.2090  -10.2770 C   0  0  0  0  0  0  0  0  0  0  0  0
   17.7530  -15.8460   -9.5050 F   0  0  0  0  0  0  0  0  0  0  0  0
   16.9290  -15.6900  -11.5110 F   0  0  0  0  0  0  0  0  0  0  0  0
   16.7710  -17.5600  -10.4100 F   0  0  0  0  0  0  0  0  0  0  0  0
   15.2310  -15.5490   -8.3180 C   0  0  0  0  0  0  0  0  0  0  0  0
   11.5970  -13.6400   -4.0800 C   0  0  0  0  0  0  0  0  0  0  0  0
    9.9410  -14.7800   -1.5190 C   0  0  0  0  0  0  0  0  0  0  0  0
    8.6400  -15.1230   -0.8970 C   0  0  0  0  0  0  0  0  0  0  0  0
    7.5720  -14.3870   -0.8910 N   0  0  0  0  0  0  0  0  0  0  0  0
    7.6680  -13.1790   -1.5330 C   0  0  0  0  0  0  0  0  0  0  0  0
    4.3240  -12.1110   -2.2410 C   0  0  0  0  0  0  0  0  0  0  0  0
    2.9810  -12.1090   -1.8360 C   0  0  0  0  0  0  0  0  0  0  0  0
   -3.7738  -10.5833    0.6868 H   0  0  0  0  0  0  0  0  0  0  0  0
   -3.0712   -9.5441   -0.5990 H   0  0  0  0  0  0  0  0  0  0  0  0
   -2.7527  -11.3119   -0.5990 H   0  0  0  0  0  0  0  0  0  0  0  0
   -1.0960   -9.5340    0.3480 H   0  0  0  0  0  0  0  0  0  0  0  0
   -1.6488  -10.2665    3.0096 H   0  0  0  0  0  0  0  0  0  0  0  0
   -1.4840   -8.6264    2.2959 H   0  0  0  0  0  0  0  0  0  0  0  0
   -3.0805   -9.4496    2.2959 H   0  0  0  0  0  0  0  0  0  0  0  0
   -0.8118  -11.8234    2.0157 H   0  0  0  0  0  0  0  0  0  0  0  0
   -1.1933  -12.2217    0.2986 H   0  0  0  0  0  0  0  0  0  0  0  0
    0.8630  -13.0770   -0.0650 H   0  0  0  0  0  0  0  0  0  0  0  0
    3.4438  -12.2466    1.5334 H   0  0  0  0  0  0  0  0  0  0  0  0
    5.8227  -12.2486    0.8105 H   0  0  0  0  0  0  0  0  0  0  0  0
    7.0027  -10.2543   -2.8279 H   0  0  0  0  0  0  0  0  0  0  0  0
   11.9506  -11.9993   -1.1039 H   0  0  0  0  0  0  0  0  0  0  0  0
   14.0899  -11.3364   -2.1909 H   0  0  0  0  0  0  0  0  0  0  0  0
   14.6369  -12.1525   -4.4791 H   0  0  0  0  0  0  0  0  0  0  0  0
   12.9970  -13.0500   -6.7300 H   0  0  0  0  0  0  0  0  0  0  0  0
   12.0014  -14.4284   -8.2286 H   0  0  0  0  0  0  0  0  0  0  0  0
   12.2409  -14.7605  -10.6876 H   0  0  0  0  0  0  0  0  0  0  0  0
   14.3871  -15.5986  -11.6319 H   0  0  0  0  0  0  0  0  0  0  0  0
   16.0787  -15.7535   -7.6475 H   0  0  0  0  0  0  0  0  0  0  0  0
   10.8858  -14.2825   -4.6198 H   0  0  0  0  0  0  0  0  0  0  0  0
   10.8053  -15.4588   -1.4717 H   0  0  0  0  0  0  0  0  0  0  0  0
    8.5738  -16.0974   -0.3908 H   0  0  0  0  0  0  0  0  0  0  0  0
    4.5662  -12.0671   -3.3131 H   0  0  0  0  0  0  0  0  0  0  0  0
    2.1826  -12.0654   -2.5914 H   0  0  0  0  0  0  0  0  0  0  0  0
  1  2  1  0
  2  3  1  0
  2  4  1  0
  4  5  1  0
  5  6  2  0
  5  7  1  0
  7  8  1  0
  8  9  2  0
  9 10  1  0
 10 11  2  0
 11 12  1  0
 12 13  1  0
 13 14  2  0
 14 15  1  0
 15 16  1  0
 16 17  1  0
 17 18  2  0
 18 19  1  0
 19 20  2  0
 20 21  1  0
 21 22  1  0
 22 23  1  0
 23 24  2  0
 23 25  1  0
 25 26  2  0
 26 27  1  0
 27 28  2  0
 28 29  1  0
 29 30  1  0
 30 31  1  0
 30 32  1  0
 30 33  1  0
 29 34  2  0
 21 35  2  0
 16 36  2  0
 36 37  1  0
 37 38  2  0
 38 39  1  0
 11 40  1  0
 40 41  2  0
 41  8  1  0
 39 12  2  0
 39 15  1  0
 35 17  1  0
 34 25  1  0
  1 42  1  0
  1 43  1  0
  1 44  1  0
  2 45  1  0
  3 46  1  0
  3 47  1  0
  3 48  1  0
  4 49  1  0
  4 50  1  0
  7 51  1  0
  9 52  1  0
 10 53  1  0
 13 54  1  0
 18 55  1  0
 19 56  1  0
 20 57  1  0
 22 58  1  0
 26 59  1  0
 27 60  1  0
 28 61  1  0
 34 62  1  0
 35 63  1  0
 36 64  1  0
 37 65  1  0
 40 66  1  0
 41 67  1  0
M  CHG  1   2   1
M  END
>  <meeko>  (9) 
{"is_sidechain": [false], "free_energy": -8.963, "intermolecular_energy": -12.524, "internal_energy": -1.236}

$$$$
