LIB_DATHYHLOJYBUAS__M_PUB_ALL__e8__s20260927
     RDKit          3D

 73 78  0  0  0  0  0  0  0  0999 V2000
    7.5970   -9.8840  -11.3520 C   0  0  0  0  0  0  0  0  0  0  0  0
    8.8020  -10.7700  -11.6070 C   0  0  0  0  0  0  0  0  0  0  0  0
    8.6850  -12.0800  -10.8260 N   0  0  0  0  0  0  0  0  0  0  0  0
   10.0320  -12.7810  -10.6360 C   0  0  0  0  0  0  0  0  0  0  0  0
    9.8750  -14.1040   -9.8450 C   0  0  0  0  0  0  0  0  0  0  0  0
    8.8340  -15.0170  -10.4880 N   0  0  0  0  0  0  0  0  0  0  0  0
    8.7000  -16.3620   -9.7500 C   0  0  0  0  0  0  0  0  0  0  0  0
    7.8700  -16.3360   -8.5220 C   0  0  0  0  0  0  0  0  0  0  0  0
    7.7230  -15.4210   -7.4970 C   0  0  0  0  0  0  0  0  0  0  0  0
    6.7290  -15.9490   -6.6340 C   0  0  0  0  0  0  0  0  0  0  0  0
    6.2000  -15.3180   -5.4350 C   0  0  0  0  0  0  0  0  0  0  0  0
    6.2900  -15.8060   -4.1240 C   0  0  0  0  0  0  0  0  0  0  0  0
    5.7330  -14.9920   -3.2310 N   0  0  0  0  0  0  0  0  0  0  0  0
    5.2570  -13.9410   -3.9580 N   0  0  0  0  0  0  0  0  0  0  0  0
    4.5940  -12.7870   -3.5040 C   0  0  0  0  0  0  0  0  0  0  0  0
    4.3280  -12.5450   -2.0730 C   0  0  0  0  0  0  0  0  0  0  0  0
    5.3770  -12.3310   -1.1740 C   0  0  0  0  0  0  0  0  0  0  0  0
    5.1110  -12.1120    0.1770 C   0  0  0  0  0  0  0  0  0  0  0  0
    3.7920  -12.1030    0.6390 C   0  0  0  0  0  0  0  0  0  0  0  0
    2.7260  -12.3080   -0.2440 C   0  0  0  0  0  0  0  0  0  0  0  0
    1.4230  -12.2820    0.2980 N   0  0  0  0  0  0  0  0  0  0  0  0
    0.6500  -11.1660    0.5670 C   0  0  0  0  0  0  0  0  0  0  0  0
    0.9850   -9.9930    0.4430 O   0  0  0  0  0  0  0  0  0  0  0  0
   -0.7130  -11.4530    1.0980 C   0  0  0  0  0  0  0  0  0  0  0  0
   -0.9200  -11.8800    2.4160 C   0  0  0  0  0  0  0  0  0  0  0  0
   -2.2140  -12.1460    2.8660 C   0  0  0  0  0  0  0  0  0  0  0  0
   -3.3020  -11.9970    2.0040 C   0  0  0  0  0  0  0  0  0  0  0  0
   -3.1120  -11.5790    0.6790 C   0  0  0  0  0  0  0  0  0  0  0  0
   -4.2800  -11.4480   -0.2700 C   0  0  0  0  0  0  0  0  0  0  0  0
   -4.5270  -10.1620   -0.6420 F   0  0  0  0  0  0  0  0  0  0  0  0
   -4.0970  -12.1420   -1.4280 F   0  0  0  0  0  0  0  0  0  0  0  0
   -5.4390  -11.9150    0.2690 F   0  0  0  0  0  0  0  0  0  0  0  0
   -1.8070  -11.3210    0.2310 C   0  0  0  0  0  0  0  0  0  0  0  0
    3.0040  -12.5290   -1.5950 C   0  0  0  0  0  0  0  0  0  0  0  0
    4.1960  -11.8650   -4.4020 C   0  0  0  0  0  0  0  0  0  0  0  0
    4.5180  -12.1540   -5.8210 C   0  0  0  0  0  0  0  0  0  0  0  0
    5.1430  -13.1990   -6.2740 N   0  0  0  0  0  0  0  0  0  0  0  0
    5.5220  -14.1200   -5.3310 C   0  0  0  0  0  0  0  0  0  0  0  0
    6.3580  -17.1600   -7.1710 C   0  0  0  0  0  0  0  0  0  0  0  0
    7.0380  -17.3980   -8.3210 O   0  0  0  0  0  0  0  0  0  0  0  0
    7.4870  -14.3220  -10.6840 C   0  0  0  0  0  0  0  0  0  0  0  0
    7.6500  -13.0030  -11.4790 C   0  0  0  0  0  0  0  0  0  0  0  0
    7.4462   -9.7731  -10.2680 H   0  0  0  0  0  0  0  0  0  0  0  0
    7.7676   -8.8947  -11.8015 H   0  0  0  0  0  0  0  0  0  0  0  0
    6.7035  -10.3419  -11.8015 H   0  0  0  0  0  0  0  0  0  0  0  0
    8.8638  -10.9948  -12.6820 H   0  0  0  0  0  0  0  0  0  0  0  0
    9.7070  -10.2401  -11.2752 H   0  0  0  0  0  0  0  0  0  0  0  0
    8.3220  -11.8130   -9.8960 H   0  0  0  0  0  0  0  0  0  0  0  0
   10.4619  -13.0036  -11.6237 H   0  0  0  0  0  0  0  0  0  0  0  0
   10.6923  -12.1124  -10.0642 H   0  0  0  0  0  0  0  0  0  0  0  0
   10.8435  -14.6251   -9.8232 H   0  0  0  0  0  0  0  0  0  0  0  0
    9.5399  -13.8605   -8.8260 H   0  0  0  0  0  0  0  0  0  0  0  0
    9.1780  -15.2920  -11.4180 H   0  0  0  0  0  0  0  0  0  0  0  0
    8.2531  -17.0874  -10.4458 H   0  0  0  0  0  0  0  0  0  0  0  0
    9.7155  -16.6294   -9.4226 H   0  0  0  0  0  0  0  0  0  0  0  0
    8.2677  -14.4732   -7.3749 H   0  0  0  0  0  0  0  0  0  0  0  0
    6.7700  -16.7603   -3.8615 H   0  0  0  0  0  0  0  0  0  0  0  0
    6.4164  -12.3354   -1.5340 H   0  0  0  0  0  0  0  0  0  0  0  0
    5.9404  -11.9461    0.8802 H   0  0  0  0  0  0  0  0  0  0  0  0
    3.5899  -11.9332    1.7069 H   0  0  0  0  0  0  0  0  0  0  0  0
    1.0370  -13.1830    0.5510 H   0  0  0  0  0  0  0  0  0  0  0  0
   -0.0639  -12.0055    3.0953 H   0  0  0  0  0  0  0  0  0  0  0  0
   -2.3772  -12.4741    3.9032 H   0  0  0  0  0  0  0  0  0  0  0  0
   -4.3181  -12.2095    2.3677 H   0  0  0  0  0  0  0  0  0  0  0  0
   -1.6408  -11.0119   -0.8115 H   0  0  0  0  0  0  0  0  0  0  0  0
    2.1738  -12.6934   -2.2977 H   0  0  0  0  0  0  0  0  0  0  0  0
    3.6633  -10.9510   -4.1006 H   0  0  0  0  0  0  0  0  0  0  0  0
    4.1955  -11.4093   -6.5636 H   0  0  0  0  0  0  0  0  0  0  0  0
    5.6144  -17.8401   -6.7300 H   0  0  0  0  0  0  0  0  0  0  0  0
    6.8134  -14.9935  -11.2366 H   0  0  0  0  0  0  0  0  0  0  0  0
    7.0697  -14.0839   -9.6945 H   0  0  0  0  0  0  0  0  0  0  0  0
    7.9770  -13.2400  -12.5022 H   0  0  0  0  0  0  0  0  0  0  0  0
    6.6806  -12.4832  -11.4893 H   0  0  0  0  0  0  0  0  0  0  0  0
  1  2  1  0
  2  3  1  0
  3  4  1  0
  4  5  1  0
  5  6  1  0
  6  7  1  0
  7  8  1  0
  8  9  2  0
  9 10  1  0
 10 11  1  0
 11 12  1  0
 12 13  2  0
 13 14  1  0
 14 15  1  0
 15 16  1  0
 16 17  2  0
 17 18  1  0
 18 19  2  0
 19 20  1  0
 20 21  1  0
 21 22  1  0
 22 23  2  0
 22 24  1  0
 24 25  2  0
 25 26  1  0
 26 27  2  0
 27 28  1  0
 28 29  1  0
 29 30  1  0
 29 31  1  0
 29 32  1  0
 28 33  2  0
 20 34  2  0
 15 35  2  0
 35 36  1  0
 36 37  2  0
 37 38  1  0
 10 39  2  0
 39 40  1  0
  6 41  1  0
 41 42  1  0
 42  3  1  0
 40  8  1  0
 38 11  2  0
 38 14  1  0
 34 16  1  0
 33 24  1  0
  1 43  1  0
  1 44  1  0
  1 45  1  0
  2 46  1  0
  2 47  1  0
  3 48  1  0
  4 49  1  0
  4 50  1  0
  5 51  1  0
  5 52  1  0
  6 53  1  0
  7 54  1  0
  7 55  1  0
  9 56  1  0
 12 57  1  0
 17 58  1  0
 18 59  1  0
 19 60  1  0
 21 61  1  0
 25 62  1  0
 26 63  1  0
 27 64  1  0
 33 65  1  0
 34 66  1  0
 35 67  1  0
 36 68  1  0
 39 69  1  0
 41 70  1  0
 41 71  1  0
 42 72  1  0
 42 73  1  0
M  CHG  2   3   1   6   1
M  END
>  <meeko>  (1) 
{"is_sidechain": [false], "free_energy": -9.429, "intermolecular_energy": -13.839, "internal_energy": -1.069}

$$$$
LIB_DATHYHLOJYBUAS__M_PUB_ALL__e8__s20260927
     RDKit          3D

 73 78  0  0  0  0  0  0  0  0999 V2000
   13.3500  -11.1900   -9.9230 C   0  0  0  0  0  0  0  0  0  0  0  0
   12.1390  -10.8660  -10.7760 C   0  0  0  0  0  0  0  0  0  0  0  0
   10.9230  -11.6740  -10.3210 N   0  0  0  0  0  0  0  0  0  0  0  0
   11.3050  -12.9570   -9.5790 C   0  0  0  0  0  0  0  0  0  0  0  0
   10.0500  -13.7500   -9.1370 C   0  0  0  0  0  0  0  0  0  0  0  0
    9.1180  -14.0190  -10.3150 N   0  0  0  0  0  0  0  0  0  0  0  0
    7.8890  -14.8550   -9.9100 C   0  0  0  0  0  0  0  0  0  0  0  0
    7.1460  -14.3640   -8.7240 C   0  0  0  0  0  0  0  0  0  0  0  0
    6.9930  -14.8440   -7.4370 C   0  0  0  0  0  0  0  0  0  0  0  0
    6.2010  -13.8880   -6.7510 C   0  0  0  0  0  0  0  0  0  0  0  0
    5.8090  -13.9350   -5.3500 C   0  0  0  0  0  0  0  0  0  0  0  0
    4.8810  -14.8120   -4.7710 C   0  0  0  0  0  0  0  0  0  0  0  0
    4.7510  -14.6320   -3.4590 N   0  0  0  0  0  0  0  0  0  0  0  0
    5.6040  -13.6120   -3.1550 N   0  0  0  0  0  0  0  0  0  0  0  0
    5.8710  -13.0350   -1.9010 C   0  0  0  0  0  0  0  0  0  0  0  0
    5.2240  -13.5100   -0.6630 C   0  0  0  0  0  0  0  0  0  0  0  0
    5.8530  -14.4520    0.1590 C   0  0  0  0  0  0  0  0  0  0  0  0
    5.2260  -14.8980    1.3210 C   0  0  0  0  0  0  0  0  0  0  0  0
    3.9680  -14.4040    1.6740 C   0  0  0  0  0  0  0  0  0  0  0  0
    3.3240  -13.4560    0.8700 C   0  0  0  0  0  0  0  0  0  0  0  0
    2.0550  -13.0040    1.2930 N   0  0  0  0  0  0  0  0  0  0  0  0
    0.8230  -13.5530    0.9810 C   0  0  0  0  0  0  0  0  0  0  0  0
    0.6090  -14.4960    0.2260 O   0  0  0  0  0  0  0  0  0  0  0  0
   -0.3470  -12.8820    1.6140 C   0  0  0  0  0  0  0  0  0  0  0  0
   -1.4580  -13.6040    2.0680 C   0  0  0  0  0  0  0  0  0  0  0  0
   -2.5360  -12.9300    2.6450 C   0  0  0  0  0  0  0  0  0  0  0  0
   -2.5140  -11.5390    2.7640 C   0  0  0  0  0  0  0  0  0  0  0  0
   -1.4130  -10.8000    2.3060 C   0  0  0  0  0  0  0  0  0  0  0  0
   -1.3960   -9.2930    2.3990 C   0  0  0  0  0  0  0  0  0  0  0  0
   -2.4630   -8.7060    1.7900 F   0  0  0  0  0  0  0  0  0  0  0  0
   -1.4070   -8.8450    3.6850 F   0  0  0  0  0  0  0  0  0  0  0  0
   -0.2880   -8.7530    1.8220 F   0  0  0  0  0  0  0  0  0  0  0  0
   -0.3360  -11.4840    1.7190 C   0  0  0  0  0  0  0  0  0  0  0  0
    3.9590  -13.0180   -0.2940 C   0  0  0  0  0  0  0  0  0  0  0  0
    6.7530  -12.0200   -1.8230 C   0  0  0  0  0  0  0  0  0  0  0  0
    7.3890  -11.6070   -3.0980 C   0  0  0  0  0  0  0  0  0  0  0  0
    7.1790  -12.1280   -4.2700 N   0  0  0  0  0  0  0  0  0  0  0  0
    6.2660  -13.1510   -4.3100 C   0  0  0  0  0  0  0  0  0  0  0  0
    5.9010  -12.9070   -7.6670 C   0  0  0  0  0  0  0  0  0  0  0  0
    6.4780  -13.1830   -8.8650 O   0  0  0  0  0  0  0  0  0  0  0  0
    8.7350  -12.7440  -11.0630 C   0  0  0  0  0  0  0  0  0  0  0  0
    9.9930  -11.9580  -11.5060 C   0  0  0  0  0  0  0  0  0  0  0  0
   13.0792  -11.1176   -8.8593 H   0  0  0  0  0  0  0  0  0  0  0  0
   13.6925  -12.2114  -10.1454 H   0  0  0  0  0  0  0  0  0  0  0  0
   14.1568  -10.4761  -10.1454 H   0  0  0  0  0  0  0  0  0  0  0  0
   11.9126   -9.7931  -10.6883 H   0  0  0  0  0  0  0  0  0  0  0  0
   12.3640  -11.1254  -11.8210 H   0  0  0  0  0  0  0  0  0  0  0  0
   10.4140  -11.0570   -9.6670 H   0  0  0  0  0  0  0  0  0  0  0  0
   11.9111  -13.5886  -10.2451 H   0  0  0  0  0  0  0  0  0  0  0  0
   11.8738  -12.6799   -8.6792 H   0  0  0  0  0  0  0  0  0  0  0  0
   10.3674  -14.7106   -8.7051 H   0  0  0  0  0  0  0  0  0  0  0  0
    9.5047  -13.1492   -8.3942 H   0  0  0  0  0  0  0  0  0  0  0  0
    9.6100  -14.6320  -10.9800 H   0  0  0  0  0  0  0  0  0  0  0  0
    7.1941  -14.8711  -10.7626 H   0  0  0  0  0  0  0  0  0  0  0  0
    8.2759  -15.8473   -9.6348 H   0  0  0  0  0  0  0  0  0  0  0  0
    7.4028  -15.7790   -7.0273 H   0  0  0  0  0  0  0  0  0  0  0  0
    4.3204  -15.5680   -5.3404 H   0  0  0  0  0  0  0  0  0  0  0  0
    6.8452  -14.8415   -0.1129 H   0  0  0  0  0  0  0  0  0  0  0  0
    5.7231  -15.6410    1.9619 H   0  0  0  0  0  0  0  0  0  0  0  0
    3.4791  -14.7630    2.5917 H   0  0  0  0  0  0  0  0  0  0  0  0
    2.0560  -12.1610    1.8530 H   0  0  0  0  0  0  0  0  0  0  0  0
   -1.4812  -14.6994    1.9702 H   0  0  0  0  0  0  0  0  0  0  0  0
   -3.4061  -13.4971    3.0073 H   0  0  0  0  0  0  0  0  0  0  0  0
   -3.3680  -11.0177    3.2212 H   0  0  0  0  0  0  0  0  0  0  0  0
    0.5257  -10.9166    1.3374 H   0  0  0  0  0  0  0  0  0  0  0  0
    3.4609  -12.2748   -0.9339 H   0  0  0  0  0  0  0  0  0  0  0  0
    6.9882  -11.5258   -0.8688 H   0  0  0  0  0  0  0  0  0  0  0  0
    8.1097  -10.7776   -3.0464 H   0  0  0  0  0  0  0  0  0  0  0  0
    5.2807  -12.0228   -7.4585 H   0  0  0  0  0  0  0  0  0  0  0  0
    8.1473  -13.0126  -11.9532 H   0  0  0  0  0  0  0  0  0  0  0  0
    8.1450  -12.1069  -10.3878 H   0  0  0  0  0  0  0  0  0  0  0  0
   10.5391  -12.5499  -12.2553 H   0  0  0  0  0  0  0  0  0  0  0  0
    9.6682  -10.9958  -11.9287 H   0  0  0  0  0  0  0  0  0  0  0  0
  1  2  1  0
  2  3  1  0
  3  4  1  0
  4  5  1  0
  5  6  1  0
  6  7  1  0
  7  8  1  0
  8  9  2  0
  9 10  1  0
 10 11  1  0
 11 12  1  0
 12 13  2  0
 13 14  1  0
 14 15  1  0
 15 16  1  0
 16 17  2  0
 17 18  1  0
 18 19  2  0
 19 20  1  0
 20 21  1  0
 21 22  1  0
 22 23  2  0
 22 24  1  0
 24 25  2  0
 25 26  1  0
 26 27  2  0
 27 28  1  0
 28 29  1  0
 29 30  1  0
 29 31  1  0
 29 32  1  0
 28 33  2  0
 20 34  2  0
 15 35  2  0
 35 36  1  0
 36 37  2  0
 37 38  1  0
 10 39  2  0
 39 40  1  0
  6 41  1  0
 41 42  1  0
 42  3  1  0
 40  8  1  0
 38 11  2  0
 38 14  1  0
 34 16  1  0
 33 24  1  0
  1 43  1  0
  1 44  1  0
  1 45  1  0
  2 46  1  0
  2 47  1  0
  3 48  1  0
  4 49  1  0
  4 50  1  0
  5 51  1  0
  5 52  1  0
  6 53  1  0
  7 54  1  0
  7 55  1  0
  9 56  1  0
 12 57  1  0
 17 58  1  0
 18 59  1  0
 19 60  1  0
 21 61  1  0
 25 62  1  0
 26 63  1  0
 27 64  1  0
 33 65  1  0
 34 66  1  0
 35 67  1  0
 36 68  1  0
 39 69  1  0
 41 70  1  0
 41 71  1  0
 42 72  1  0
 42 73  1  0
M  CHG  2   3   1   6   1
M  END
>  <meeko>  (2) 
{"is_sidechain": [false], "free_energy": -9.237, "intermolecular_energy": -13.311, "internal_energy": -1.316}

$$$$
LIB_DATHYHLOJYBUAS__M_PUB_ALL__e8__s20260927
     RDKit          3D

 73 78  0  0  0  0  0  0  0  0999 V2000
   -6.4290  -14.5970    5.8190 C   0  0  0  0  0  0  0  0  0  0  0  0
   -6.2960  -16.0000    6.3800 C   0  0  0  0  0  0  0  0  0  0  0  0
   -4.9830  -16.6420    5.9300 N   0  0  0  0  0  0  0  0  0  0  0  0
   -3.8110  -16.3110    6.8570 C   0  0  0  0  0  0  0  0  0  0  0  0
   -2.4990  -16.9750    6.3690 C   0  0  0  0  0  0  0  0  0  0  0  0
   -2.2030  -16.6210    4.9140 N   0  0  0  0  0  0  0  0  0  0  0  0
   -0.8740  -17.2250    4.4240 C   0  0  0  0  0  0  0  0  0  0  0  0
   -0.5170  -16.9230    3.0160 C   0  0  0  0  0  0  0  0  0  0  0  0
    0.0870  -15.8420    2.4030 C   0  0  0  0  0  0  0  0  0  0  0  0
    0.2000  -16.1780    1.0300 C   0  0  0  0  0  0  0  0  0  0  0  0
    0.8140  -15.3680   -0.0110 C   0  0  0  0  0  0  0  0  0  0  0  0
    0.4340  -15.3120   -1.3600 C   0  0  0  0  0  0  0  0  0  0  0  0
    1.1680  -14.4570   -2.0670 N   0  0  0  0  0  0  0  0  0  0  0  0
    2.0590  -13.9350   -1.1770 N   0  0  0  0  0  0  0  0  0  0  0  0
    3.0550  -12.9660   -1.3970 C   0  0  0  0  0  0  0  0  0  0  0  0
    3.2620  -12.3360   -2.7150 C   0  0  0  0  0  0  0  0  0  0  0  0
    2.7740  -11.0530   -2.9820 C   0  0  0  0  0  0  0  0  0  0  0  0
    2.9690  -10.4740   -4.2350 C   0  0  0  0  0  0  0  0  0  0  0  0
    3.6580  -11.1720   -5.2300 C   0  0  0  0  0  0  0  0  0  0  0  0
    4.1620  -12.4540   -4.9830 C   0  0  0  0  0  0  0  0  0  0  0  0
    4.8480  -13.0950   -6.0370 N   0  0  0  0  0  0  0  0  0  0  0  0
    6.1530  -13.5570   -6.0290 C   0  0  0  0  0  0  0  0  0  0  0  0
    6.9690  -13.4340   -5.1220 O   0  0  0  0  0  0  0  0  0  0  0  0
    6.5920  -14.2350   -7.2810 C   0  0  0  0  0  0  0  0  0  0  0  0
    7.0950  -15.5430   -7.2780 C   0  0  0  0  0  0  0  0  0  0  0  0
    7.5040  -16.1330   -8.4750 C   0  0  0  0  0  0  0  0  0  0  0  0
    7.4190  -15.4230   -9.6740 C   0  0  0  0  0  0  0  0  0  0  0  0
    6.9260  -14.1100   -9.6940 C   0  0  0  0  0  0  0  0  0  0  0  0
    6.8650  -13.3220  -10.9810 C   0  0  0  0  0  0  0  0  0  0  0  0
    5.6770  -13.4520  -11.6320 F   0  0  0  0  0  0  0  0  0  0  0  0
    7.0410  -11.9850  -10.7880 F   0  0  0  0  0  0  0  0  0  0  0  0
    7.8250  -13.7030  -11.8660 F   0  0  0  0  0  0  0  0  0  0  0  0
    6.5250  -13.5190   -8.4840 C   0  0  0  0  0  0  0  0  0  0  0  0
    3.9570  -13.0270   -3.7250 C   0  0  0  0  0  0  0  0  0  0  0  0
    3.8420  -12.5920   -0.3690 C   0  0  0  0  0  0  0  0  0  0  0  0
    3.5650  -13.2420    0.9350 C   0  0  0  0  0  0  0  0  0  0  0  0
    2.6440  -14.1260    1.1780 N   0  0  0  0  0  0  0  0  0  0  0  0
    1.8710  -14.4890    0.1050 C   0  0  0  0  0  0  0  0  0  0  0  0
   -0.3660  -17.4240    0.8910 C   0  0  0  0  0  0  0  0  0  0  0  0
   -0.7950  -17.8880    2.0930 O   0  0  0  0  0  0  0  0  0  0  0  0
   -3.3700  -16.9460    3.9830 C   0  0  0  0  0  0  0  0  0  0  0  0
   -4.6770  -16.2760    4.4740 C   0  0  0  0  0  0  0  0  0  0  0  0
   -6.4973  -13.8760    6.6469 H   0  0  0  0  0  0  0  0  0  0  0  0
   -5.5489  -14.3640    5.2016 H   0  0  0  0  0  0  0  0  0  0  0  0
   -7.3372  -14.5335    5.2016 H   0  0  0  0  0  0  0  0  0  0  0  0
   -6.3164  -15.9526    7.4788 H   0  0  0  0  0  0  0  0  0  0  0  0
   -7.1326  -16.6096    6.0078 H   0  0  0  0  0  0  0  0  0  0  0  0
   -5.1500  -17.6610    5.9670 H   0  0  0  0  0  0  0  0  0  0  0  0
   -3.6720  -15.2201    6.8826 H   0  0  0  0  0  0  0  0  0  0  0  0
   -4.0428  -16.6987    7.8600 H   0  0  0  0  0  0  0  0  0  0  0  0
   -1.6665  -16.6274    6.9983 H   0  0  0  0  0  0  0  0  0  0  0  0
   -2.6152  -18.0663    6.4429 H   0  0  0  0  0  0  0  0  0  0  0  0
   -2.0360  -15.6070    4.8580 H   0  0  0  0  0  0  0  0  0  0  0  0
   -0.0691  -16.8407    5.0678 H   0  0  0  0  0  0  0  0  0  0  0  0
   -1.0002  -18.3165    4.4766 H   0  0  0  0  0  0  0  0  0  0  0  0
    0.4144  -14.9083    2.8836 H   0  0  0  0  0  0  0  0  0  0  0  0
   -0.3835  -15.9110   -1.7876 H   0  0  0  0  0  0  0  0  0  0  0  0
    2.2342  -10.4985   -2.2003 H   0  0  0  0  0  0  0  0  0  0  0  0
    2.5798   -9.4659   -4.4407 H   0  0  0  0  0  0  0  0  0  0  0  0
    3.8057  -10.7095   -6.2170 H   0  0  0  0  0  0  0  0  0  0  0  0
    4.3320  -13.1840   -6.9030 H   0  0  0  0  0  0  0  0  0  0  0  0
    7.1673  -16.1035   -6.3343 H   0  0  0  0  0  0  0  0  0  0  0  0
    7.8948  -17.1613   -8.4736 H   0  0  0  0  0  0  0  0  0  0  0  0
    7.7418  -15.8979  -10.6122 H   0  0  0  0  0  0  0  0  0  0  0  0
    6.1545  -12.4833   -8.4808 H   0  0  0  0  0  0  0  0  0  0  0  0
    4.3456  -14.0356   -3.5207 H   0  0  0  0  0  0  0  0  0  0  0  0
    4.6431  -11.8480   -0.4900 H   0  0  0  0  0  0  0  0  0  0  0  0
    4.2029  -12.9463    1.7810 H   0  0  0  0  0  0  0  0  0  0  0  0
   -0.4582  -17.9683   -0.0605 H   0  0  0  0  0  0  0  0  0  0  0  0
   -3.1362  -16.5800    2.9724 H   0  0  0  0  0  0  0  0  0  0  0  0
   -3.5176  -18.0360    3.9745 H   0  0  0  0  0  0  0  0  0  0  0  0
   -4.5705  -15.1840    4.3947 H   0  0  0  0  0  0  0  0  0  0  0  0
   -5.5059  -16.6352    3.8463 H   0  0  0  0  0  0  0  0  0  0  0  0
  1  2  1  0
  2  3  1  0
  3  4  1  0
  4  5  1  0
  5  6  1  0
  6  7  1  0
  7  8  1  0
  8  9  2  0
  9 10  1  0
 10 11  1  0
 11 12  1  0
 12 13  2  0
 13 14  1  0
 14 15  1  0
 15 16  1  0
 16 17  2  0
 17 18  1  0
 18 19  2  0
 19 20  1  0
 20 21  1  0
 21 22  1  0
 22 23  2  0
 22 24  1  0
 24 25  2  0
 25 26  1  0
 26 27  2  0
 27 28  1  0
 28 29  1  0
 29 30  1  0
 29 31  1  0
 29 32  1  0
 28 33  2  0
 20 34  2  0
 15 35  2  0
 35 36  1  0
 36 37  2  0
 37 38  1  0
 10 39  2  0
 39 40  1  0
  6 41  1  0
 41 42  1  0
 42  3  1  0
 40  8  1  0
 38 11  2  0
 38 14  1  0
 34 16  1  0
 33 24  1  0
  1 43  1  0
  1 44  1  0
  1 45  1  0
  2 46  1  0
  2 47  1  0
  3 48  1  0
  4 49  1  0
  4 50  1  0
  5 51  1  0
  5 52  1  0
  6 53  1  0
  7 54  1  0
  7 55  1  0
  9 56  1  0
 12 57  1  0
 17 58  1  0
 18 59  1  0
 19 60  1  0
 21 61  1  0
 25 62  1  0
 26 63  1  0
 27 64  1  0
 33 65  1  0
 34 66  1  0
 35 67  1  0
 36 68  1  0
 39 69  1  0
 41 70  1  0
 41 71  1  0
 42 72  1  0
 42 73  1  0
M  CHG  2   3   1   6   1
M  END
>  <meeko>  (3) 
{"is_sidechain": [false], "free_energy": -9.106, "intermolecular_energy": -13.369, "internal_energy": -1.065}

$$$$
LIB_DATHYHLOJYBUAS__M_PUB_ALL__e8__s20260927
     RDKit          3D

 73 78  0  0  0  0  0  0  0  0999 V2000
   -3.8060  -10.3900   -0.5750 C   0  0  0  0  0  0  0  0  0  0  0  0
   -4.4270  -11.7550   -0.3480 C   0  0  0  0  0  0  0  0  0  0  0  0
   -3.3490  -12.8020   -0.0650 N   0  0  0  0  0  0  0  0  0  0  0  0
   -3.9170  -14.1020    0.5080 C   0  0  0  0  0  0  0  0  0  0  0  0
   -2.7960  -15.1360    0.7850 C   0  0  0  0  0  0  0  0  0  0  0  0
   -1.7000  -14.5460    1.6680 N   0  0  0  0  0  0  0  0  0  0  0  0
   -0.6020  -15.5730    2.0020 C   0  0  0  0  0  0  0  0  0  0  0  0
    0.3080  -15.9200    0.8850 C   0  0  0  0  0  0  0  0  0  0  0  0
    1.3300  -15.2400    0.2500 C   0  0  0  0  0  0  0  0  0  0  0  0
    1.8600  -16.1350   -0.7150 C   0  0  0  0  0  0  0  0  0  0  0  0
    2.9860  -15.8830   -1.6020 C   0  0  0  0  0  0  0  0  0  0  0  0
    4.2580  -16.4680   -1.5260 C   0  0  0  0  0  0  0  0  0  0  0  0
    5.0720  -16.0600   -2.4950 N   0  0  0  0  0  0  0  0  0  0  0  0
    4.3340  -15.1800   -3.2310 N   0  0  0  0  0  0  0  0  0  0  0  0
    4.7090  -14.4690   -4.3850 C   0  0  0  0  0  0  0  0  0  0  0  0
    6.0430  -14.6110   -4.9980 C   0  0  0  0  0  0  0  0  0  0  0  0
    6.2270  -15.3910   -6.1440 C   0  0  0  0  0  0  0  0  0  0  0  0
    7.4960  -15.5230   -6.7070 C   0  0  0  0  0  0  0  0  0  0  0  0
    8.5900  -14.8740   -6.1300 C   0  0  0  0  0  0  0  0  0  0  0  0
    8.4280  -14.0830   -4.9870 C   0  0  0  0  0  0  0  0  0  0  0  0
    9.5800  -13.4570   -4.4640 N   0  0  0  0  0  0  0  0  0  0  0  0
   10.1710  -13.6850   -3.2340 C   0  0  0  0  0  0  0  0  0  0  0  0
    9.7610  -14.4280   -2.3480 O   0  0  0  0  0  0  0  0  0  0  0  0
   11.4130  -12.9030   -2.9730 C   0  0  0  0  0  0  0  0  0  0  0  0
   12.4380  -12.8030   -3.9220 C   0  0  0  0  0  0  0  0  0  0  0  0
   13.5870  -12.0670   -3.6290 C   0  0  0  0  0  0  0  0  0  0  0  0
   13.7220  -11.4370   -2.3900 C   0  0  0  0  0  0  0  0  0  0  0  0
   12.7090  -11.5340   -1.4250 C   0  0  0  0  0  0  0  0  0  0  0  0
   12.8620  -10.8860   -0.0700 C   0  0  0  0  0  0  0  0  0  0  0  0
   12.6850   -9.5360   -0.0980 F   0  0  0  0  0  0  0  0  0  0  0  0
   11.9690  -11.3600    0.8430 F   0  0  0  0  0  0  0  0  0  0  0  0
   14.0940  -11.0950    0.4670 F   0  0  0  0  0  0  0  0  0  0  0  0
   11.5590  -12.2830   -1.7240 C   0  0  0  0  0  0  0  0  0  0  0  0
    7.1530  -13.9590   -4.4290 C   0  0  0  0  0  0  0  0  0  0  0  0
    3.8180  -13.6360   -4.9580 C   0  0  0  0  0  0  0  0  0  0  0  0
    2.4860  -13.5580   -4.3100 C   0  0  0  0  0  0  0  0  0  0  0  0
    2.1000  -14.2130   -3.2550 N   0  0  0  0  0  0  0  0  0  0  0  0
    3.0380  -15.0410   -2.6950 C   0  0  0  0  0  0  0  0  0  0  0  0
    1.1120  -17.2860   -0.6250 C   0  0  0  0  0  0  0  0  0  0  0  0
    0.1740  -17.1670    0.3500 O   0  0  0  0  0  0  0  0  0  0  0  0
   -1.1300  -13.2450    1.1040 C   0  0  0  0  0  0  0  0  0  0  0  0
   -2.2540  -12.2150    0.8330 C   0  0  0  0  0  0  0  0  0  0  0  0
   -3.5916   -9.9187    0.3955 H   0  0  0  0  0  0  0  0  0  0  0  0
   -2.8705  -10.5026   -1.1426 H   0  0  0  0  0  0  0  0  0  0  0  0
   -4.5055   -9.7587   -1.1426 H   0  0  0  0  0  0  0  0  0  0  0  0
   -5.1118  -11.7012    0.5111 H   0  0  0  0  0  0  0  0  0  0  0  0
   -4.9740  -12.0488   -1.2560 H   0  0  0  0  0  0  0  0  0  0  0  0
   -2.9210  -13.0090   -0.9820 H   0  0  0  0  0  0  0  0  0  0  0  0
   -4.4394  -13.8796    1.4502 H   0  0  0  0  0  0  0  0  0  0  0  0
   -4.6095  -14.5321   -0.2305 H   0  0  0  0  0  0  0  0  0  0  0  0
   -3.2321  -16.0096    1.2915 H   0  0  0  0  0  0  0  0  0  0  0  0
   -2.3473  -15.4260   -0.1765 H   0  0  0  0  0  0  0  0  0  0  0  0
   -2.1090  -14.3300    2.5880 H   0  0  0  0  0  0  0  0  0  0  0  0
    0.0075  -15.1633    2.8209 H   0  0  0  0  0  0  0  0  0  0  0  0
   -1.1279  -16.5032    2.2632 H   0  0  0  0  0  0  0  0  0  0  0  0
    1.6651  -14.2119    0.4520 H   0  0  0  0  0  0  0  0  0  0  0  0
    4.5513  -17.1878   -0.7476 H   0  0  0  0  0  0  0  0  0  0  0  0
    5.3679  -15.9022   -6.6029 H   0  0  0  0  0  0  0  0  0  0  0  0
    7.6357  -16.1394   -7.6073 H   0  0  0  0  0  0  0  0  0  0  0  0
    9.5883  -14.9857   -6.5783 H   0  0  0  0  0  0  0  0  0  0  0  0
    9.9870  -12.7350   -5.0450 H   0  0  0  0  0  0  0  0  0  0  0  0
   12.3377  -13.3035   -4.8964 H   0  0  0  0  0  0  0  0  0  0  0  0
   14.3893  -11.9828   -4.3768 H   0  0  0  0  0  0  0  0  0  0  0  0
   14.6315  -10.8592   -2.1689 H   0  0  0  0  0  0  0  0  0  0  0  0
   10.7644  -12.3842   -0.9701 H   0  0  0  0  0  0  0  0  0  0  0  0
    7.0144  -13.3412   -3.5295 H   0  0  0  0  0  0  0  0  0  0  0  0
    4.0643  -13.0479   -5.8544 H   0  0  0  0  0  0  0  0  0  0  0  0
    1.7517  -12.8785   -4.7673 H   0  0  0  0  0  0  0  0  0  0  0  0
    1.2536  -18.1772   -1.2541 H   0  0  0  0  0  0  0  0  0  0  0  0
   -0.4202  -12.8198    1.8288 H   0  0  0  0  0  0  0  0  0  0  0  0
   -0.6243  -13.4685    0.1530 H   0  0  0  0  0  0  0  0  0  0  0  0
   -2.7013  -11.9135    1.7916 H   0  0  0  0  0  0  0  0  0  0  0  0
   -1.8122  -11.3494    0.3178 H   0  0  0  0  0  0  0  0  0  0  0  0
  1  2  1  0
  2  3  1  0
  3  4  1  0
  4  5  1  0
  5  6  1  0
  6  7  1  0
  7  8  1  0
  8  9  2  0
  9 10  1  0
 10 11  1  0
 11 12  1  0
 12 13  2  0
 13 14  1  0
 14 15  1  0
 15 16  1  0
 16 17  2  0
 17 18  1  0
 18 19  2  0
 19 20  1  0
 20 21  1  0
 21 22  1  0
 22 23  2  0
 22 24  1  0
 24 25  2  0
 25 26  1  0
 26 27  2  0
 27 28  1  0
 28 29  1  0
 29 30  1  0
 29 31  1  0
 29 32  1  0
 28 33  2  0
 20 34  2  0
 15 35  2  0
 35 36  1  0
 36 37  2  0
 37 38  1  0
 10 39  2  0
 39 40  1  0
  6 41  1  0
 41 42  1  0
 42  3  1  0
 40  8  1  0
 38 11  2  0
 38 14  1  0
 34 16  1  0
 33 24  1  0
  1 43  1  0
  1 44  1  0
  1 45  1  0
  2 46  1  0
  2 47  1  0
  3 48  1  0
  4 49  1  0
  4 50  1  0
  5 51  1  0
  5 52  1  0
  6 53  1  0
  7 54  1  0
  7 55  1  0
  9 56  1  0
 12 57  1  0
 17 58  1  0
 18 59  1  0
 19 60  1  0
 21 61  1  0
 25 62  1  0
 26 63  1  0
 27 64  1  0
 33 65  1  0
 34 66  1  0
 35 67  1  0
 36 68  1  0
 39 69  1  0
 41 70  1  0
 41 71  1  0
 42 72  1  0
 42 73  1  0
M  CHG  2   3   1   6   1
M  END
>  <meeko>  (4) 
{"is_sidechain": [false], "free_energy": -9.082, "intermolecular_energy": -13.259, "internal_energy": -1.14}

$$$$
LIB_DATHYHLOJYBUAS__M_PUB_ALL__e8__s20260927
     RDKit          3D

 73 78  0  0  0  0  0  0  0  0999 V2000
   14.1960  -12.8090  -14.2970 C   0  0  0  0  0  0  0  0  0  0  0  0
   15.1290  -14.0040  -14.2530 C   0  0  0  0  0  0  0  0  0  0  0  0
   15.6300  -14.2490  -12.8290 N   0  0  0  0  0  0  0  0  0  0  0  0
   16.0860  -15.6920  -12.5990 C   0  0  0  0  0  0  0  0  0  0  0  0
   16.5820  -15.9030  -11.1460 C   0  0  0  0  0  0  0  0  0  0  0  0
   15.5350  -15.4590  -10.1290 N   0  0  0  0  0  0  0  0  0  0  0  0
   15.9840  -15.7110   -8.6780 C   0  0  0  0  0  0  0  0  0  0  0  0
   14.9100  -15.6490   -7.6580 C   0  0  0  0  0  0  0  0  0  0  0  0
   14.6840  -14.8290   -6.5690 C   0  0  0  0  0  0  0  0  0  0  0  0
   13.4450  -15.2400   -6.0140 C   0  0  0  0  0  0  0  0  0  0  0  0
   12.7660  -14.6420   -4.8750 C   0  0  0  0  0  0  0  0  0  0  0  0
   12.1020  -13.4070   -4.8520 C   0  0  0  0  0  0  0  0  0  0  0  0
   11.5520  -13.1390   -3.6700 N   0  0  0  0  0  0  0  0  0  0  0  0
   11.8590  -14.2120   -2.8850 N   0  0  0  0  0  0  0  0  0  0  0  0
   11.5040  -14.4490   -1.5460 C   0  0  0  0  0  0  0  0  0  0  0  0
   10.6800  -13.5030   -0.7710 C   0  0  0  0  0  0  0  0  0  0  0  0
   11.2240  -12.7870    0.3000 C   0  0  0  0  0  0  0  0  0  0  0  0
   10.4310  -11.9020    1.0290 C   0  0  0  0  0  0  0  0  0  0  0  0
    9.0870  -11.7230    0.6910 C   0  0  0  0  0  0  0  0  0  0  0  0
    8.5230  -12.4230   -0.3820 C   0  0  0  0  0  0  0  0  0  0  0  0
    7.1600  -12.1880   -0.6640 N   0  0  0  0  0  0  0  0  0  0  0  0
    6.1200  -13.0970   -0.5850 C   0  0  0  0  0  0  0  0  0  0  0  0
    6.2050  -14.2910   -0.3170 O   0  0  0  0  0  0  0  0  0  0  0  0
    4.7720  -12.5450   -0.9020 C   0  0  0  0  0  0  0  0  0  0  0  0
    3.7200  -12.5820    0.0230 C   0  0  0  0  0  0  0  0  0  0  0  0
    2.4720  -12.0610   -0.3220 C   0  0  0  0  0  0  0  0  0  0  0  0
    2.2650  -11.5110   -1.5890 C   0  0  0  0  0  0  0  0  0  0  0  0
    3.3050  -11.4750   -2.5300 C   0  0  0  0  0  0  0  0  0  0  0  0
    3.0810  -10.9140   -3.9150 C   0  0  0  0  0  0  0  0  0  0  0  0
    2.6020   -9.6400   -3.9060 F   0  0  0  0  0  0  0  0  0  0  0  0
    4.2210  -10.8800   -4.6590 F   0  0  0  0  0  0  0  0  0  0  0  0
    2.1860  -11.6490   -4.6310 F   0  0  0  0  0  0  0  0  0  0  0  0
    4.5560  -12.0080   -2.1790 C   0  0  0  0  0  0  0  0  0  0  0  0
    9.3260  -13.3100   -1.1040 C   0  0  0  0  0  0  0  0  0  0  0  0
   11.9220  -15.5830   -0.9500 C   0  0  0  0  0  0  0  0  0  0  0  0
   12.7240  -16.5050   -1.7910 C   0  0  0  0  0  0  0  0  0  0  0  0
   13.0550  -16.3270   -3.0350 N   0  0  0  0  0  0  0  0  0  0  0  0
   12.6210  -15.1560   -3.6020 C   0  0  0  0  0  0  0  0  0  0  0  0
   13.0130  -16.2980   -6.7800 C   0  0  0  0  0  0  0  0  0  0  0  0
   13.8910  -16.5470   -7.7850 O   0  0  0  0  0  0  0  0  0  0  0  0
   15.0720  -14.0200  -10.3550 C   0  0  0  0  0  0  0  0  0  0  0  0
   14.5730  -13.8170  -11.8070 C   0  0  0  0  0  0  0  0  0  0  0  0
   13.9519  -12.4964  -13.2710 H   0  0  0  0  0  0  0  0  0  0  0  0
   14.6876  -11.9792  -14.8260 H   0  0  0  0  0  0  0  0  0  0  0  0
   13.2718  -13.0847  -14.8260 H   0  0  0  0  0  0  0  0  0  0  0  0
   14.5895  -14.8960  -14.6041 H   0  0  0  0  0  0  0  0  0  0  0  0
   15.9941  -13.8003  -14.9012 H   0  0  0  0  0  0  0  0  0  0  0  0
   16.4460  -13.6260  -12.7160 H   0  0  0  0  0  0  0  0  0  0  0  0
   15.2408  -16.3694  -12.7906 H   0  0  0  0  0  0  0  0  0  0  0  0
   16.9198  -15.9051  -13.2840 H   0  0  0  0  0  0  0  0  0  0  0  0
   16.7985  -16.9706  -10.9935 H   0  0  0  0  0  0  0  0  0  0  0  0
   17.4870  -15.2955  -10.9981 H   0  0  0  0  0  0  0  0  0  0  0  0
   14.7110  -16.0680  -10.2300 H   0  0  0  0  0  0  0  0  0  0  0  0
   16.4373  -16.7122   -8.6325 H   0  0  0  0  0  0  0  0  0  0  0  0
   16.6817  -14.8970   -8.4319 H   0  0  0  0  0  0  0  0  0  0  0  0
   15.3344  -14.0198   -6.2054 H   0  0  0  0  0  0  0  0  0  0  0  0
   12.0421  -12.7319   -5.7184 H   0  0  0  0  0  0  0  0  0  0  0  0
   12.2821  -12.9227    0.5684 H   0  0  0  0  0  0  0  0  0  0  0  0
   10.8641  -11.3435    1.8719 H   0  0  0  0  0  0  0  0  0  0  0  0
    8.4667  -11.0258    1.2733 H   0  0  0  0  0  0  0  0  0  0  0  0
    6.9370  -11.2590   -0.9990 H   0  0  0  0  0  0  0  0  0  0  0  0
    3.8775  -13.0209    1.0193 H   0  0  0  0  0  0  0  0  0  0  0  0
    1.6483  -12.0836    0.4067 H   0  0  0  0  0  0  0  0  0  0  0  0
    1.2780  -11.1025   -1.8514 H   0  0  0  0  0  0  0  0  0  0  0  0
    5.3748  -12.0041   -2.9135 H   0  0  0  0  0  0  0  0  0  0  0  0
    8.8923  -13.8672   -1.9475 H   0  0  0  0  0  0  0  0  0  0  0  0
   11.6825  -15.8117    0.0990 H   0  0  0  0  0  0  0  0  0  0  0  0
   13.0736  -17.4324   -1.3138 H   0  0  0  0  0  0  0  0  0  0  0  0
   12.0860  -16.8630   -6.6029 H   0  0  0  0  0  0  0  0  0  0  0  0
   14.2519  -13.7927   -9.6581 H   0  0  0  0  0  0  0  0  0  0  0  0
   15.9245  -13.3470  -10.1810 H   0  0  0  0  0  0  0  0  0  0  0  0
   13.6628  -14.4156  -11.9592 H   0  0  0  0  0  0  0  0  0  0  0  0
   14.3667  -12.7467  -11.9549 H   0  0  0  0  0  0  0  0  0  0  0  0
  1  2  1  0
  2  3  1  0
  3  4  1  0
  4  5  1  0
  5  6  1  0
  6  7  1  0
  7  8  1  0
  8  9  2  0
  9 10  1  0
 10 11  1  0
 11 12  1  0
 12 13  2  0
 13 14  1  0
 14 15  1  0
 15 16  1  0
 16 17  2  0
 17 18  1  0
 18 19  2  0
 19 20  1  0
 20 21  1  0
 21 22  1  0
 22 23  2  0
 22 24  1  0
 24 25  2  0
 25 26  1  0
 26 27  2  0
 27 28  1  0
 28 29  1  0
 29 30  1  0
 29 31  1  0
 29 32  1  0
 28 33  2  0
 20 34  2  0
 15 35  2  0
 35 36  1  0
 36 37  2  0
 37 38  1  0
 10 39  2  0
 39 40  1  0
  6 41  1  0
 41 42  1  0
 42  3  1  0
 40  8  1  0
 38 11  2  0
 38 14  1  0
 34 16  1  0
 33 24  1  0
  1 43  1  0
  1 44  1  0
  1 45  1  0
  2 46  1  0
  2 47  1  0
  3 48  1  0
  4 49  1  0
  4 50  1  0
  5 51  1  0
  5 52  1  0
  6 53  1  0
  7 54  1  0
  7 55  1  0
  9 56  1  0
 12 57  1  0
 17 58  1  0
 18 59  1  0
 19 60  1  0
 21 61  1  0
 25 62  1  0
 26 63  1  0
 27 64  1  0
 33 65  1  0
 34 66  1  0
 35 67  1  0
 36 68  1  0
 39 69  1  0
 41 70  1  0
 41 71  1  0
 42 72  1  0
 42 73  1  0
M  CHG  2   3   1   6   1
M  END
>  <meeko>  (5) 
{"is_sidechain": [false], "free_energy": -8.982, "intermolecular_energy": -13.033, "internal_energy": -1.219}

$$$$
LIB_DATHYHLOJYBUAS__M_PUB_ALL__e8__s20260927
     RDKit          3D

 73 78  0  0  0  0  0  0  0  0999 V2000
   -9.4540  -16.4830    6.5730 C   0  0  0  0  0  0  0  0  0  0  0  0
   -9.4390  -15.8300    7.9410 C   0  0  0  0  0  0  0  0  0  0  0  0
   -8.0190  -15.7870    8.5070 N   0  0  0  0  0  0  0  0  0  0  0  0
   -7.1030  -14.8260    7.7440 C   0  0  0  0  0  0  0  0  0  0  0  0
   -5.6740  -14.8120    8.3430 C   0  0  0  0  0  0  0  0  0  0  0  0
   -5.0920  -16.2200    8.4290 N   0  0  0  0  0  0  0  0  0  0  0  0
   -3.6500  -16.2250    8.9690 C   0  0  0  0  0  0  0  0  0  0  0  0
   -2.6070  -16.6420    8.0000 C   0  0  0  0  0  0  0  0  0  0  0  0
   -2.3570  -16.3180    6.6800 C   0  0  0  0  0  0  0  0  0  0  0  0
   -1.1710  -17.0070    6.3220 C   0  0  0  0  0  0  0  0  0  0  0  0
   -0.4870  -16.9430    5.0400 C   0  0  0  0  0  0  0  0  0  0  0  0
    0.8770  -16.6910    4.8310 C   0  0  0  0  0  0  0  0  0  0  0  0
    1.2160  -16.7220    3.5450 N   0  0  0  0  0  0  0  0  0  0  0  0
    0.0570  -16.9930    2.8790 N   0  0  0  0  0  0  0  0  0  0  0  0
   -0.1450  -17.1540    1.4970 C   0  0  0  0  0  0  0  0  0  0  0  0
    0.9610  -17.0580    0.5240 C   0  0  0  0  0  0  0  0  0  0  0  0
    1.8650  -18.1120    0.3590 C   0  0  0  0  0  0  0  0  0  0  0  0
    2.9100  -18.0030   -0.5580 C   0  0  0  0  0  0  0  0  0  0  0  0
    3.0570  -16.8410   -1.3190 C   0  0  0  0  0  0  0  0  0  0  0  0
    2.1590  -15.7770   -1.1750 C   0  0  0  0  0  0  0  0  0  0  0  0
    2.3720  -14.6370   -1.9810 N   0  0  0  0  0  0  0  0  0  0  0  0
    2.8970  -13.4190   -1.5860 C   0  0  0  0  0  0  0  0  0  0  0  0
    3.2120  -13.0890   -0.4470 O   0  0  0  0  0  0  0  0  0  0  0  0
    3.0460  -12.4110   -2.6740 C   0  0  0  0  0  0  0  0  0  0  0  0
    2.4730  -11.1360   -2.5870 C   0  0  0  0  0  0  0  0  0  0  0  0
    2.6320  -10.2290   -3.6360 C   0  0  0  0  0  0  0  0  0  0  0  0
    3.3540  -10.5910   -4.7750 C   0  0  0  0  0  0  0  0  0  0  0  0
    3.9270  -11.8670   -4.8820 C   0  0  0  0  0  0  0  0  0  0  0  0
    4.6790  -12.2790   -6.1250 C   0  0  0  0  0  0  0  0  0  0  0  0
    6.0270  -12.3330   -5.9430 F   0  0  0  0  0  0  0  0  0  0  0  0
    4.3150  -13.5120   -6.5760 F   0  0  0  0  0  0  0  0  0  0  0  0
    4.4720  -11.4230   -7.1630 F   0  0  0  0  0  0  0  0  0  0  0  0
    3.7560  -12.7770   -3.8260 C   0  0  0  0  0  0  0  0  0  0  0  0
    1.1180  -15.8940   -0.2520 C   0  0  0  0  0  0  0  0  0  0  0  0
   -1.3860  -17.4140    1.0430 C   0  0  0  0  0  0  0  0  0  0  0  0
   -2.4480  -17.5250    2.0730 C   0  0  0  0  0  0  0  0  0  0  0  0
   -2.2950  -17.4000    3.3580 N   0  0  0  0  0  0  0  0  0  0  0  0
   -1.0190  -17.1250    3.7790 C   0  0  0  0  0  0  0  0  0  0  0  0
   -0.7930  -17.7260    7.4320 C   0  0  0  0  0  0  0  0  0  0  0  0
   -1.6540  -17.5030    8.4580 O   0  0  0  0  0  0  0  0  0  0  0  0
   -6.0020  -17.1860    9.1860 C   0  0  0  0  0  0  0  0  0  0  0  0
   -7.4280  -17.1990    8.5800 C   0  0  0  0  0  0  0  0  0  0  0  0
   -9.4791  -17.5766    6.6890 H   0  0  0  0  0  0  0  0  0  0  0  0
  -10.3448  -16.1525    6.0187 H   0  0  0  0  0  0  0  0  0  0  0  0
   -8.5490  -16.1938    6.0187 H   0  0  0  0  0  0  0  0  0  0  0  0
   -9.8240  -14.8032    7.8547 H   0  0  0  0  0  0  0  0  0  0  0  0
  -10.0715  -16.4204    8.6203 H   0  0  0  0  0  0  0  0  0  0  0  0
   -8.1210  -15.4410    9.4750 H   0  0  0  0  0  0  0  0  0  0  0  0
   -7.0472  -15.1438    6.6924 H   0  0  0  0  0  0  0  0  0  0  0  0
   -7.5218  -13.8119    7.8235 H   0  0  0  0  0  0  0  0  0  0  0  0
   -5.0246  -14.1948    7.7048 H   0  0  0  0  0  0  0  0  0  0  0  0
   -5.7294  -14.3978    9.3605 H   0  0  0  0  0  0  0  0  0  0  0  0
   -4.9850  -16.5830    7.4710 H   0  0  0  0  0  0  0  0  0  0  0  0
   -3.4109  -15.2058    9.3066 H   0  0  0  0  0  0  0  0  0  0  0  0
   -3.6314  -16.9744    9.7741 H   0  0  0  0  0  0  0  0  0  0  0  0
   -2.9575  -15.6582    6.0366 H   0  0  0  0  0  0  0  0  0  0  0  0
    1.5902  -16.4893    5.6438 H   0  0  0  0  0  0  0  0  0  0  0  0
    1.7515  -19.0300    0.9544 H   0  0  0  0  0  0  0  0  0  0  0  0
    3.6200  -18.8339   -0.6823 H   0  0  0  0  0  0  0  0  0  0  0  0
    3.8858  -16.7613   -2.0378 H   0  0  0  0  0  0  0  0  0  0  0  0
    2.0660  -14.7180   -2.9420 H   0  0  0  0  0  0  0  0  0  0  0  0
    1.8987  -10.8499   -1.6935 H   0  0  0  0  0  0  0  0  0  0  0  0
    2.1870   -9.2255   -3.5651 H   0  0  0  0  0  0  0  0  0  0  0  0
    3.4746   -9.8689   -5.5960 H   0  0  0  0  0  0  0  0  0  0  0  0
    4.1837  -13.7875   -3.9037 H   0  0  0  0  0  0  0  0  0  0  0  0
    0.4084  -15.0625   -0.1291 H   0  0  0  0  0  0  0  0  0  0  0  0
   -1.5997  -17.5369   -0.0290 H   0  0  0  0  0  0  0  0  0  0  0  0
   -3.4664  -17.7339    1.7136 H   0  0  0  0  0  0  0  0  0  0  0  0
    0.0837  -18.3886    7.4816 H   0  0  0  0  0  0  0  0  0  0  0  0
   -5.5778  -18.1993    9.1283 H   0  0  0  0  0  0  0  0  0  0  0  0
   -6.0700  -16.8547   10.2327 H   0  0  0  0  0  0  0  0  0  0  0  0
   -7.3813  -17.6201    7.5649 H   0  0  0  0  0  0  0  0  0  0  0  0
   -8.0732  -17.8106    9.2278 H   0  0  0  0  0  0  0  0  0  0  0  0
  1  2  1  0
  2  3  1  0
  3  4  1  0
  4  5  1  0
  5  6  1  0
  6  7  1  0
  7  8  1  0
  8  9  2  0
  9 10  1  0
 10 11  1  0
 11 12  1  0
 12 13  2  0
 13 14  1  0
 14 15  1  0
 15 16  1  0
 16 17  2  0
 17 18  1  0
 18 19  2  0
 19 20  1  0
 20 21  1  0
 21 22  1  0
 22 23  2  0
 22 24  1  0
 24 25  2  0
 25 26  1  0
 26 27  2  0
 27 28  1  0
 28 29  1  0
 29 30  1  0
 29 31  1  0
 29 32  1  0
 28 33  2  0
 20 34  2  0
 15 35  2  0
 35 36  1  0
 36 37  2  0
 37 38  1  0
 10 39  2  0
 39 40  1  0
  6 41  1  0
 41 42  1  0
 42  3  1  0
 40  8  1  0
 38 11  2  0
 38 14  1  0
 34 16  1  0
 33 24  1  0
  1 43  1  0
  1 44  1  0
  1 45  1  0
  2 46  1  0
  2 47  1  0
  3 48  1  0
  4 49  1  0
  4 50  1  0
  5 51  1  0
  5 52  1  0
  6 53  1  0
  7 54  1  0
  7 55  1  0
  9 56  1  0
 12 57  1  0
 17 58  1  0
 18 59  1  0
 19 60  1  0
 21 61  1  0
 25 62  1  0
 26 63  1  0
 27 64  1  0
 33 65  1  0
 34 66  1  0
 35 67  1  0
 36 68  1  0
 39 69  1  0
 41 70  1  0
 41 71  1  0
 42 72  1  0
 42 73  1  0
M  CHG  2   3   1   6   1
M  END
>  <meeko>  (6) 
{"is_sidechain": [false], "free_energy": -8.92, "intermolecular_energy": -12.876, "internal_energy": -1.285}

$$$$
LIB_DATHYHLOJYBUAS__M_PUB_ALL__e8__s20260927
     RDKit          3D

 73 78  0  0  0  0  0  0  0  0999 V2000
   -3.7860  -10.3140   -0.6210 C   0  0  0  0  0  0  0  0  0  0  0  0
   -2.8380  -10.1950    0.5560 C   0  0  0  0  0  0  0  0  0  0  0  0
   -2.6070  -11.5600    1.2070 N   0  0  0  0  0  0  0  0  0  0  0  0
   -1.2420  -11.6690    1.8920 C   0  0  0  0  0  0  0  0  0  0  0  0
   -1.0440  -13.0640    2.5360 C   0  0  0  0  0  0  0  0  0  0  0  0
   -1.2740  -14.1830    1.5250 N   0  0  0  0  0  0  0  0  0  0  0  0
   -1.0270  -15.5780    2.1290 C   0  0  0  0  0  0  0  0  0  0  0  0
   -1.8450  -15.9110    3.3210 C   0  0  0  0  0  0  0  0  0  0  0  0
   -3.2040  -15.8990    3.5700 C   0  0  0  0  0  0  0  0  0  0  0  0
   -3.3660  -16.3800    4.8950 C   0  0  0  0  0  0  0  0  0  0  0  0
   -4.6270  -16.5890    5.5900 C   0  0  0  0  0  0  0  0  0  0  0  0
   -5.8340  -17.0200    5.0220 C   0  0  0  0  0  0  0  0  0  0  0  0
   -6.8110  -17.1450    5.9170 N   0  0  0  0  0  0  0  0  0  0  0  0
   -6.2480  -16.7840    7.1060 N   0  0  0  0  0  0  0  0  0  0  0  0
   -6.8380  -16.7550    8.3830 C   0  0  0  0  0  0  0  0  0  0  0  0
   -8.2390  -17.1570    8.6120 C   0  0  0  0  0  0  0  0  0  0  0  0
   -9.2890  -16.2660    8.3700 C   0  0  0  0  0  0  0  0  0  0  0  0
  -10.6080  -16.6570    8.6000 C   0  0  0  0  0  0  0  0  0  0  0  0
  -10.8870  -17.9430    9.0680 C   0  0  0  0  0  0  0  0  0  0  0  0
   -9.8520  -18.8540    9.3080 C   0  0  0  0  0  0  0  0  0  0  0  0
  -10.2130  -20.1350    9.7780 N   0  0  0  0  0  0  0  0  0  0  0  0
  -10.6690  -21.2040    9.0280 C   0  0  0  0  0  0  0  0  0  0  0  0
  -10.9020  -21.2110    7.8240 O   0  0  0  0  0  0  0  0  0  0  0  0
  -10.9300  -22.4530    9.7980 C   0  0  0  0  0  0  0  0  0  0  0  0
  -10.4560  -22.6300   11.1050 C   0  0  0  0  0  0  0  0  0  0  0  0
  -10.7170  -23.8210   11.7840 C   0  0  0  0  0  0  0  0  0  0  0  0
  -11.4420  -24.8400   11.1630 C   0  0  0  0  0  0  0  0  0  0  0  0
  -11.9160  -24.6830    9.8520 C   0  0  0  0  0  0  0  0  0  0  0  0
  -12.6700  -25.7940    9.1590 C   0  0  0  0  0  0  0  0  0  0  0  0
  -12.8020  -26.9110    9.9260 F   0  0  0  0  0  0  0  0  0  0  0  0
  -13.9340  -25.4310    8.8070 F   0  0  0  0  0  0  0  0  0  0  0  0
  -12.0600  -26.1940    8.0110 F   0  0  0  0  0  0  0  0  0  0  0  0
  -11.6420  -23.4850    9.1720 C   0  0  0  0  0  0  0  0  0  0  0  0
   -8.5340  -18.4510    9.0790 C   0  0  0  0  0  0  0  0  0  0  0  0
   -6.0980  -16.3550    9.4350 C   0  0  0  0  0  0  0  0  0  0  0  0
   -4.6900  -15.9910    9.1430 C   0  0  0  0  0  0  0  0  0  0  0  0
   -4.1080  -16.0230    7.9820 N   0  0  0  0  0  0  0  0  0  0  0  0
   -4.8970  -16.4240    6.9340 C   0  0  0  0  0  0  0  0  0  0  0  0
   -2.1000  -16.6250    5.3740 C   0  0  0  0  0  0  0  0  0  0  0  0
   -1.1710  -16.3520    4.4220 O   0  0  0  0  0  0  0  0  0  0  0  0
   -2.6330  -14.0780    0.8350 C   0  0  0  0  0  0  0  0  0  0  0  0
   -2.8240  -12.6840    0.1890 C   0  0  0  0  0  0  0  0  0  0  0  0
   -4.8142  -10.4431   -0.2521 H   0  0  0  0  0  0  0  0  0  0  0  0
   -3.7277   -9.4015   -1.2325 H   0  0  0  0  0  0  0  0  0  0  0  0
   -3.5040  -11.1838   -1.2325 H   0  0  0  0  0  0  0  0  0  0  0  0
   -1.8753   -9.7953    0.2048 H   0  0  0  0  0  0  0  0  0  0  0  0
   -3.2837   -9.5197    1.3011 H   0  0  0  0  0  0  0  0  0  0  0  0
   -3.3420  -11.6460    1.9280 H   0  0  0  0  0  0  0  0  0  0  0  0
   -0.4520  -11.5042    1.1445 H   0  0  0  0  0  0  0  0  0  0  0  0
   -1.1912  -10.9099    2.6865 H   0  0  0  0  0  0  0  0  0  0  0  0
   -0.0168  -13.1369    2.9226 H   0  0  0  0  0  0  0  0  0  0  0  0
   -1.7766  -13.1766    3.3488 H   0  0  0  0  0  0  0  0  0  0  0  0
   -0.5510  -14.1110    0.7950 H   0  0  0  0  0  0  0  0  0  0  0  0
   -1.2401  -16.3266    1.3517 H   0  0  0  0  0  0  0  0  0  0  0  0
    0.0188  -15.5789    2.4701 H   0  0  0  0  0  0  0  0  0  0  0  0
   -3.9997  -15.5808    2.8803 H   0  0  0  0  0  0  0  0  0  0  0  0
   -5.9602  -17.2324    3.9501 H   0  0  0  0  0  0  0  0  0  0  0  0
   -9.0742  -15.2537    7.9971 H   0  0  0  0  0  0  0  0  0  0  0  0
  -11.4303  -15.9509    8.4124 H   0  0  0  0  0  0  0  0  0  0  0  0
  -11.9297  -18.2426    9.2496 H   0  0  0  0  0  0  0  0  0  0  0  0
  -10.1680  -20.2610   10.7820 H   0  0  0  0  0  0  0  0  0  0  0  0
   -9.8793  -21.8316   11.5948 H   0  0  0  0  0  0  0  0  0  0  0  0
  -10.3503  -23.9575   12.8120 H   0  0  0  0  0  0  0  0  0  0  0  0
  -11.6434  -25.7747   11.7069 H   0  0  0  0  0  0  0  0  0  0  0  0
  -11.9901  -23.3554    8.1366 H   0  0  0  0  0  0  0  0  0  0  0  0
   -7.7124  -19.1579    9.2671 H   0  0  0  0  0  0  0  0  0  0  0  0
   -6.5138  -16.3014   10.4520 H   0  0  0  0  0  0  0  0  0  0  0  0
   -4.0773  -15.6609    9.9948 H   0  0  0  0  0  0  0  0  0  0  0  0
   -1.8722  -16.9907    6.3861 H   0  0  0  0  0  0  0  0  0  0  0  0
   -2.6992  -14.8486    0.0528 H   0  0  0  0  0  0  0  0  0  0  0  0
   -3.4201  -14.2242    1.5894 H   0  0  0  0  0  0  0  0  0  0  0  0
   -2.1006  -12.5679   -0.6315 H   0  0  0  0  0  0  0  0  0  0  0  0
   -3.8556  -12.6156   -0.1865 H   0  0  0  0  0  0  0  0  0  0  0  0
  1  2  1  0
  2  3  1  0
  3  4  1  0
  4  5  1  0
  5  6  1  0
  6  7  1  0
  7  8  1  0
  8  9  2  0
  9 10  1  0
 10 11  1  0
 11 12  1  0
 12 13  2  0
 13 14  1  0
 14 15  1  0
 15 16  1  0
 16 17  2  0
 17 18  1  0
 18 19  2  0
 19 20  1  0
 20 21  1  0
 21 22  1  0
 22 23  2  0
 22 24  1  0
 24 25  2  0
 25 26  1  0
 26 27  2  0
 27 28  1  0
 28 29  1  0
 29 30  1  0
 29 31  1  0
 29 32  1  0
 28 33  2  0
 20 34  2  0
 15 35  2  0
 35 36  1  0
 36 37  2  0
 37 38  1  0
 10 39  2  0
 39 40  1  0
  6 41  1  0
 41 42  1  0
 42  3  1  0
 40  8  1  0
 38 11  2  0
 38 14  1  0
 34 16  1  0
 33 24  1  0
  1 43  1  0
  1 44  1  0
  1 45  1  0
  2 46  1  0
  2 47  1  0
  3 48  1  0
  4 49  1  0
  4 50  1  0
  5 51  1  0
  5 52  1  0
  6 53  1  0
  7 54  1  0
  7 55  1  0
  9 56  1  0
 12 57  1  0
 17 58  1  0
 18 59  1  0
 19 60  1  0
 21 61  1  0
 25 62  1  0
 26 63  1  0
 27 64  1  0
 33 65  1  0
 34 66  1  0
 35 67  1  0
 36 68  1  0
 39 69  1  0
 41 70  1  0
 41 71  1  0
 42 72  1  0
 42 73  1  0
M  CHG  2   3   1   6   1
M  END
>  <meeko>  (7) 
{"is_sidechain": [false], "free_energy": -8.776, "intermolecular_energy": -12.879, "internal_energy": -1.071}

$$$$
LIB_DATHYHLOJYBUAS__M_PUB_ALL__e8__s20260927
     RDKit          3D

 73 78  0  0  0  0  0  0  0  0999 V2000
    7.0620   -9.8660  -11.1770 C   0  0  0  0  0  0  0  0  0  0  0  0
    8.3190  -10.6750  -11.4350 C   0  0  0  0  0  0  0  0  0  0  0  0
    8.2640  -12.0130  -10.6960 N   0  0  0  0  0  0  0  0  0  0  0  0
    9.5300  -12.8520  -10.8880 C   0  0  0  0  0  0  0  0  0  0  0  0
    9.4360  -14.1990  -10.1290 C   0  0  0  0  0  0  0  0  0  0  0  0
    8.1720  -14.9650  -10.5070 N   0  0  0  0  0  0  0  0  0  0  0  0
    8.0850  -16.3340   -9.8070 C   0  0  0  0  0  0  0  0  0  0  0  0
    7.5100  -16.3160   -8.4400 C   0  0  0  0  0  0  0  0  0  0  0  0
    7.5720  -15.4090   -7.3990 C   0  0  0  0  0  0  0  0  0  0  0  0
    6.7620  -15.9400   -6.3630 C   0  0  0  0  0  0  0  0  0  0  0  0
    6.4810  -15.3170   -5.0790 C   0  0  0  0  0  0  0  0  0  0  0  0
    6.5790  -13.9520   -4.7720 C   0  0  0  0  0  0  0  0  0  0  0  0
    6.2290  -13.6790   -3.5180 N   0  0  0  0  0  0  0  0  0  0  0  0
    5.8980  -14.8850   -2.9720 N   0  0  0  0  0  0  0  0  0  0  0  0
    5.4400  -15.1630   -1.6720 C   0  0  0  0  0  0  0  0  0  0  0  0
    5.2300  -14.1030   -0.6680 C   0  0  0  0  0  0  0  0  0  0  0  0
    6.3030  -13.5900    0.0690 C   0  0  0  0  0  0  0  0  0  0  0  0
    6.0890  -12.5950    1.0210 C   0  0  0  0  0  0  0  0  0  0  0  0
    4.8010  -12.1010    1.2410 C   0  0  0  0  0  0  0  0  0  0  0  0
    3.7140  -12.5930    0.5100 C   0  0  0  0  0  0  0  0  0  0  0  0
    2.4440  -12.0430    0.7880 N   0  0  0  0  0  0  0  0  0  0  0  0
    1.5930  -11.4090   -0.1010 C   0  0  0  0  0  0  0  0  0  0  0  0
    1.8190  -11.1550   -1.2790 O   0  0  0  0  0  0  0  0  0  0  0  0
    0.2900  -10.9690    0.4740 C   0  0  0  0  0  0  0  0  0  0  0  0
    0.0930   -9.6660    0.9480 C   0  0  0  0  0  0  0  0  0  0  0  0
   -1.1420   -9.3020    1.4880 C   0  0  0  0  0  0  0  0  0  0  0  0
   -2.1790  -10.2350    1.5640 C   0  0  0  0  0  0  0  0  0  0  0  0
   -1.9950  -11.5460    1.1020 C   0  0  0  0  0  0  0  0  0  0  0  0
   -3.0980  -12.5710    1.2120 C   0  0  0  0  0  0  0  0  0  0  0  0
   -3.2840  -13.0230    2.4830 F   0  0  0  0  0  0  0  0  0  0  0  0
   -4.3060  -12.0900    0.8060 F   0  0  0  0  0  0  0  0  0  0  0  0
   -2.8580  -13.6730    0.4510 F   0  0  0  0  0  0  0  0  0  0  0  0
   -0.7470  -11.9070    0.5680 C   0  0  0  0  0  0  0  0  0  0  0  0
    3.9390  -13.5930   -0.4390 C   0  0  0  0  0  0  0  0  0  0  0  0
    5.1740  -16.4400   -1.3320 C   0  0  0  0  0  0  0  0  0  0  0  0
    5.3790  -17.4550   -2.3950 C   0  0  0  0  0  0  0  0  0  0  0  0
    5.7830  -17.2310   -3.6100 N   0  0  0  0  0  0  0  0  0  0  0  0
    6.0540  -15.9210   -3.9130 C   0  0  0  0  0  0  0  0  0  0  0  0
    6.2840  -17.1440   -6.8270 C   0  0  0  0  0  0  0  0  0  0  0  0
    6.7260  -17.3750   -8.0900 O   0  0  0  0  0  0  0  0  0  0  0  0
    6.9040  -14.1330  -10.3210 C   0  0  0  0  0  0  0  0  0  0  0  0
    7.0020  -12.7900  -11.0860 C   0  0  0  0  0  0  0  0  0  0  0  0
    6.9065   -9.7659  -10.0927 H   0  0  0  0  0  0  0  0  0  0  0  0
    7.1701   -8.8675  -11.6256 H   0  0  0  0  0  0  0  0  0  0  0  0
    6.1979  -10.3780  -11.6256 H   0  0  0  0  0  0  0  0  0  0  0  0
    8.4119  -10.8628  -12.5149 H   0  0  0  0  0  0  0  0  0  0  0  0
    9.1864  -10.1055  -11.0698 H   0  0  0  0  0  0  0  0  0  0  0  0
    8.1820  -11.7690   -9.6950 H   0  0  0  0  0  0  0  0  0  0  0  0
    9.6659  -13.0544  -11.9606 H   0  0  0  0  0  0  0  0  0  0  0  0
   10.3839  -12.2870  -10.4860 H   0  0  0  0  0  0  0  0  0  0  0  0
   10.3142  -14.8124  -10.3789 H   0  0  0  0  0  0  0  0  0  0  0  0
    9.4019  -13.9864   -9.0503 H   0  0  0  0  0  0  0  0  0  0  0  0
    8.2340  -15.2150  -11.5050 H   0  0  0  0  0  0  0  0  0  0  0  0
    7.4614  -16.9935  -10.4284 H   0  0  0  0  0  0  0  0  0  0  0  0
    9.1223  -16.6822   -9.6941 H   0  0  0  0  0  0  0  0  0  0  0  0
    8.1362  -14.4650   -7.3782 H   0  0  0  0  0  0  0  0  0  0  0  0
    6.9100  -13.1886   -5.4915 H   0  0  0  0  0  0  0  0  0  0  0  0
    7.3194  -13.9735   -0.1037 H   0  0  0  0  0  0  0  0  0  0  0  0
    6.9357  -12.1980    1.6002 H   0  0  0  0  0  0  0  0  0  0  0  0
    4.6397  -11.3176    1.9962 H   0  0  0  0  0  0  0  0  0  0  0  0
    2.1510  -12.0860    1.7560 H   0  0  0  0  0  0  0  0  0  0  0  0
    0.9096   -8.9309    0.8950 H   0  0  0  0  0  0  0  0  0  0  0  0
   -1.2990   -8.2770    1.8549 H   0  0  0  0  0  0  0  0  0  0  0  0
   -3.1488   -9.9384    1.9902 H   0  0  0  0  0  0  0  0  0  0  0  0
   -0.5818  -12.9373    0.2198 H   0  0  0  0  0  0  0  0  0  0  0  0
    3.0914  -13.9889   -1.0177 H   0  0  0  0  0  0  0  0  0  0  0  0
    4.8253  -16.7137   -0.3253 H   0  0  0  0  0  0  0  0  0  0  0  0
    5.1681  -18.5011   -2.1282 H   0  0  0  0  0  0  0  0  0  0  0  0
    5.6351  -17.8237   -6.2552 H   0  0  0  0  0  0  0  0  0  0  0  0
    6.0423  -14.7012  -10.7013 H   0  0  0  0  0  0  0  0  0  0  0  0
    6.7816  -13.9169   -9.2494 H   0  0  0  0  0  0  0  0  0  0  0  0
    7.0279  -12.9950  -12.1664 H   0  0  0  0  0  0  0  0  0  0  0  0
    6.1255  -12.1789  -10.8246 H   0  0  0  0  0  0  0  0  0  0  0  0
  1  2  1  0
  2  3  1  0
  3  4  1  0
  4  5  1  0
  5  6  1  0
  6  7  1  0
  7  8  1  0
  8  9  2  0
  9 10  1  0
 10 11  1  0
 11 12  1  0
 12 13  2  0
 13 14  1  0
 14 15  1  0
 15 16  1  0
 16 17  2  0
 17 18  1  0
 18 19  2  0
 19 20  1  0
 20 21  1  0
 21 22  1  0
 22 23  2  0
 22 24  1  0
 24 25  2  0
 25 26  1  0
 26 27  2  0
 27 28  1  0
 28 29  1  0
 29 30  1  0
 29 31  1  0
 29 32  1  0
 28 33  2  0
 20 34  2  0
 15 35  2  0
 35 36  1  0
 36 37  2  0
 37 38  1  0
 10 39  2  0
 39 40  1  0
  6 41  1  0
 41 42  1  0
 42  3  1  0
 40  8  1  0
 38 11  2  0
 38 14  1  0
 34 16  1  0
 33 24  1  0
  1 43  1  0
  1 44  1  0
  1 45  1  0
  2 46  1  0
  2 47  1  0
  3 48  1  0
  4 49  1  0
  4 50  1  0
  5 51  1  0
  5 52  1  0
  6 53  1  0
  7 54  1  0
  7 55  1  0
  9 56  1  0
 12 57  1  0
 17 58  1  0
 18 59  1  0
 19 60  1  0
 21 61  1  0
 25 62  1  0
 26 63  1  0
 27 64  1  0
 33 65  1  0
 34 66  1  0
 35 67  1  0
 36 68  1  0
 39 69  1  0
 41 70  1  0
 41 71  1  0
 42 72  1  0
 42 73  1  0
M  CHG  2   3   1   6   1
M  END
>  <meeko>  (8) 
{"is_sidechain": [false], "free_energy": -8.719, "intermolecular_energy": -13.052, "internal_energy": -0.814}

$$$$
LIB_DATHYHLOJYBUAS__M_PUB_ALL__e8__s20260927
     RDKit          3D

 73 78  0  0  0  0  0  0  0  0999 V2000
   -4.9040  -16.7350    5.4170 C   0  0  0  0  0  0  0  0  0  0  0  0
   -3.8350  -16.4520    6.4550 C   0  0  0  0  0  0  0  0  0  0  0  0
   -2.4390  -16.6740    5.8710 N   0  0  0  0  0  0  0  0  0  0  0  0
   -2.2920  -18.0330    5.1820 C   0  0  0  0  0  0  0  0  0  0  0  0
   -0.8660  -18.2230    4.6070 C   0  0  0  0  0  0  0  0  0  0  0  0
    0.2010  -17.9970    5.6740 N   0  0  0  0  0  0  0  0  0  0  0  0
    1.6250  -18.2350    5.1380 C   0  0  0  0  0  0  0  0  0  0  0  0
    1.8350  -17.8930    3.7110 C   0  0  0  0  0  0  0  0  0  0  0  0
    1.9500  -16.6950    3.0310 C   0  0  0  0  0  0  0  0  0  0  0  0
    2.1970  -17.0310    1.6760 C   0  0  0  0  0  0  0  0  0  0  0  0
    2.4330  -16.1000    0.5830 C   0  0  0  0  0  0  0  0  0  0  0  0
    3.6390  -15.4510    0.2830 C   0  0  0  0  0  0  0  0  0  0  0  0
    3.5550  -14.6780   -0.7970 N   0  0  0  0  0  0  0  0  0  0  0  0
    2.2660  -14.8070   -1.2240 N   0  0  0  0  0  0  0  0  0  0  0  0
    1.6480  -14.2160   -2.3400 C   0  0  0  0  0  0  0  0  0  0  0  0
    2.3790  -13.3290   -3.2660 C   0  0  0  0  0  0  0  0  0  0  0  0
    2.2920  -11.9380   -3.1450 C   0  0  0  0  0  0  0  0  0  0  0  0
    2.9810  -11.1120   -4.0330 C   0  0  0  0  0  0  0  0  0  0  0  0
    3.7660  -11.6710   -5.0450 C   0  0  0  0  0  0  0  0  0  0  0  0
    3.8730  -13.0600   -5.1790 C   0  0  0  0  0  0  0  0  0  0  0  0
    4.6860  -13.5480   -6.2250 N   0  0  0  0  0  0  0  0  0  0  0  0
    6.0310  -13.8680   -6.1600 C   0  0  0  0  0  0  0  0  0  0  0  0
    6.7750  -13.7230   -5.1960 O   0  0  0  0  0  0  0  0  0  0  0  0
    6.6150  -14.4060   -7.4210 C   0  0  0  0  0  0  0  0  0  0  0  0
    7.3010  -15.6270   -7.4580 C   0  0  0  0  0  0  0  0  0  0  0  0
    7.8390  -16.0870   -8.6610 C   0  0  0  0  0  0  0  0  0  0  0  0
    7.7030  -15.3300   -9.8270 C   0  0  0  0  0  0  0  0  0  0  0  0
    7.0270  -14.1010   -9.8060 C   0  0  0  0  0  0  0  0  0  0  0  0
    6.9060  -13.2590  -11.0540 C   0  0  0  0  0  0  0  0  0  0  0  0
    7.9920  -13.3510  -11.8700 F   0  0  0  0  0  0  0  0  0  0  0  0
    5.8330  -13.6040  -11.8190 F   0  0  0  0  0  0  0  0  0  0  0  0
    6.7560  -11.9360  -10.7720 F   0  0  0  0  0  0  0  0  0  0  0  0
    6.4950  -13.6410   -8.5900 C   0  0  0  0  0  0  0  0  0  0  0  0
    3.1760  -13.8780   -4.2870 C   0  0  0  0  0  0  0  0  0  0  0  0
    0.3480  -14.4730   -2.5800 C   0  0  0  0  0  0  0  0  0  0  0  0
   -0.3230  -15.3930   -1.6290 C   0  0  0  0  0  0  0  0  0  0  0  0
    0.2210  -15.9710   -0.5990 N   0  0  0  0  0  0  0  0  0  0  0  0
    1.5420  -15.6740   -0.3820 C   0  0  0  0  0  0  0  0  0  0  0  0
    2.1880  -18.4050    1.6120 C   0  0  0  0  0  0  0  0  0  0  0  0
    1.9790  -18.9360    2.8440 O   0  0  0  0  0  0  0  0  0  0  0  0
    0.0580  -16.6430    6.3680 C   0  0  0  0  0  0  0  0  0  0  0  0
   -1.3680  -16.4610    6.9460 C   0  0  0  0  0  0  0  0  0  0  0  0
   -5.8486  -16.9851    5.9222 H   0  0  0  0  0  0  0  0  0  0  0  0
   -5.0492  -15.8444    4.7880 H   0  0  0  0  0  0  0  0  0  0  0  0
   -4.5895  -17.5808    4.7880 H   0  0  0  0  0  0  0  0  0  0  0  0
   -3.9243  -15.4078    6.7893 H   0  0  0  0  0  0  0  0  0  0  0  0
   -3.9760  -17.1386    7.3027 H   0  0  0  0  0  0  0  0  0  0  0  0
   -2.3200  -15.9330    5.1600 H   0  0  0  0  0  0  0  0  0  0  0  0
   -2.4918  -18.8292    5.9143 H   0  0  0  0  0  0  0  0  0  0  0  0
   -3.0101  -18.0792    4.3500 H   0  0  0  0  0  0  0  0  0  0  0  0
   -0.7710  -19.2474    4.2176 H   0  0  0  0  0  0  0  0  0  0  0  0
   -0.7153  -17.4844    3.8059 H   0  0  0  0  0  0  0  0  0  0  0  0
    0.0950  -18.7260    6.3930 H   0  0  0  0  0  0  0  0  0  0  0  0
    2.3188  -17.6276    5.7378 H   0  0  0  0  0  0  0  0  0  0  0  0
    1.8009  -19.3179    5.2181 H   0  0  0  0  0  0  0  0  0  0  0  0
    1.8666  -15.6838    3.4560 H   0  0  0  0  0  0  0  0  0  0  0  0
    4.5572  -15.5683    0.8773 H   0  0  0  0  0  0  0  0  0  0  0  0
    1.6784  -11.4943   -2.3471 H   0  0  0  0  0  0  0  0  0  0  0  0
    2.9063  -10.0188   -3.9365 H   0  0  0  0  0  0  0  0  0  0  0  0
    4.3048  -11.0132   -5.7428 H   0  0  0  0  0  0  0  0  0  0  0  0
    4.2340  -13.6310   -7.1270 H   0  0  0  0  0  0  0  0  0  0  0  0
    7.4155  -16.2224   -6.5402 H   0  0  0  0  0  0  0  0  0  0  0  0
    8.3719  -17.0489   -8.6909 H   0  0  0  0  0  0  0  0  0  0  0  0
    8.1299  -15.7010  -10.7704 H   0  0  0  0  0  0  0  0  0  0  0  0
    5.9788  -12.6703   -8.5545 H   0  0  0  0  0  0  0  0  0  0  0  0
    3.2516  -14.9711   -4.3845 H   0  0  0  0  0  0  0  0  0  0  0  0
   -0.1856  -14.0265   -3.4320 H   0  0  0  0  0  0  0  0  0  0  0  0
   -1.3860  -15.6074   -1.8135 H   0  0  0  0  0  0  0  0  0  0  0  0
    2.3301  -18.9911    0.6921 H   0  0  0  0  0  0  0  0  0  0  0  0
    0.7888  -16.5804    7.1878 H   0  0  0  0  0  0  0  0  0  0  0  0
    0.2391  -15.8498    5.6277 H   0  0  0  0  0  0  0  0  0  0  0  0
   -1.5223  -17.1909    7.7543 H   0  0  0  0  0  0  0  0  0  0  0  0
   -1.4587  -15.4326    7.3258 H   0  0  0  0  0  0  0  0  0  0  0  0
  1  2  1  0
  2  3  1  0
  3  4  1  0
  4  5  1  0
  5  6  1  0
  6  7  1  0
  7  8  1  0
  8  9  2  0
  9 10  1  0
 10 11  1  0
 11 12  1  0
 12 13  2  0
 13 14  1  0
 14 15  1  0
 15 16  1  0
 16 17  2  0
 17 18  1  0
 18 19  2  0
 19 20  1  0
 20 21  1  0
 21 22  1  0
 22 23  2  0
 22 24  1  0
 24 25  2  0
 25 26  1  0
 26 27  2  0
 27 28  1  0
 28 29  1  0
 29 30  1  0
 29 31  1  0
 29 32  1  0
 28 33  2  0
 20 34  2  0
 15 35  2  0
 35 36  1  0
 36 37  2  0
 37 38  1  0
 10 39  2  0
 39 40  1  0
  6 41  1  0
 41 42  1  0
 42  3  1  0
 40  8  1  0
 38 11  2  0
 38 14  1  0
 34 16  1  0
 33 24  1  0
  1 43  1  0
  1 44  1  0
  1 45  1  0
  2 46  1  0
  2 47  1  0
  3 48  1  0
  4 49  1  0
  4 50  1  0
  5 51  1  0
  5 52  1  0
  6 53  1  0
  7 54  1  0
  7 55  1  0
  9 56  1  0
 12 57  1  0
 17 58  1  0
 18 59  1  0
 19 60  1  0
 21 61  1  0
 25 62  1  0
 26 63  1  0
 27 64  1  0
 33 65  1  0
 34 66  1  0
 35 67  1  0
 36 68  1  0
 39 69  1  0
 41 70  1  0
 41 71  1  0
 42 72  1  0
 42 73  1  0
M  CHG  2   3   1   6   1
M  END
>  <meeko>  (9) 
{"is_sidechain": [false], "free_energy": -8.708, "intermolecular_energy": -12.446, "internal_energy": -1.404}

$$$$
