LIB_ZVHBDYFMHCQADD__M_PUB_ALL__e8__s20260927
     RDKit          3D

 57 61  0  0  0  0  0  0  0  0999 V2000
    4.0680  -13.4390   -6.2010 O   0  0  0  0  0  0  0  0  0  0  0  0
    5.0880  -12.9370   -5.7500 C   0  0  0  0  0  0  0  0  0  0  0  0
    5.1620  -12.2180   -4.5640 N   0  0  0  0  0  0  0  0  0  0  0  0
    4.0930  -11.8210   -3.7320 C   0  0  0  0  0  0  0  0  0  0  0  0
    3.3760  -10.6800   -4.1150 C   0  0  0  0  0  0  0  0  0  0  0  0
    2.3020  -10.2270   -3.3500 C   0  0  0  0  0  0  0  0  0  0  0  0
    1.9360  -10.9100   -2.1910 C   0  0  0  0  0  0  0  0  0  0  0  0
    2.6380  -12.0530   -1.7800 C   0  0  0  0  0  0  0  0  0  0  0  0
    2.2170  -12.7680   -0.5490 C   0  0  0  0  0  0  0  0  0  0  0  0
    2.8410  -13.9080   -0.1870 C   0  0  0  0  0  0  0  0  0  0  0  0
    2.4350  -14.5370    0.9700 N   0  0  0  0  0  0  0  0  0  0  0  0
    2.8510  -15.6820    1.5930 C   0  0  0  0  0  0  0  0  0  0  0  0
    2.0580  -15.7850    2.7170 C   0  0  0  0  0  0  0  0  0  0  0  0
    1.1700  -14.7390    2.8010 N   0  0  0  0  0  0  0  0  0  0  0  0
    1.4300  -14.0120    1.7320 C   0  0  0  0  0  0  0  0  0  0  0  0
    0.7930  -12.7760    1.3110 C   0  0  0  0  0  0  0  0  0  0  0  0
   -0.2150  -12.2250    2.0600 N   0  0  0  0  0  0  0  0  0  0  0  0
   -0.8420  -10.9580    1.7800 C   0  0  0  0  0  0  0  0  0  0  0  0
   -2.1550  -11.1690    1.0540 C   0  0  0  0  0  0  0  0  0  0  0  0
   -2.5560  -10.2690    0.0660 C   0  0  0  0  0  0  0  0  0  0  0  0
   -3.7500  -10.5020   -0.6120 C   0  0  0  0  0  0  0  0  0  0  0  0
   -4.5060  -11.6230   -0.2950 C   0  0  0  0  0  0  0  0  0  0  0  0
   -4.0330  -12.4730    0.6910 C   0  0  0  0  0  0  0  0  0  0  0  0
   -2.8800  -12.2750    1.3660 N   0  0  0  0  0  0  0  0  0  0  0  0
    1.1970  -12.1930    0.2050 N   0  0  0  0  0  0  0  0  0  0  0  0
    3.7070  -12.5050   -2.5760 C   0  0  0  0  0  0  0  0  0  0  0  0
    6.3390  -13.0090   -6.3470 N   0  0  0  0  0  0  0  0  0  0  0  0
    6.7050  -13.7290   -7.5040 C   0  0  0  0  0  0  0  0  0  0  0  0
    7.0650  -15.0710   -7.3320 C   0  0  0  0  0  0  0  0  0  0  0  0
    7.4390  -15.8570   -8.4240 C   0  0  0  0  0  0  0  0  0  0  0  0
    7.4520  -15.3070   -9.7040 C   0  0  0  0  0  0  0  0  0  0  0  0
    7.0840  -13.9700   -9.9030 C   0  0  0  0  0  0  0  0  0  0  0  0
    7.1070  -13.3550  -11.2810 C   0  0  0  0  0  0  0  0  0  0  0  0
    8.3430  -13.3780  -11.8570 F   0  0  0  0  0  0  0  0  0  0  0  0
    6.7260  -12.0480  -11.2750 F   0  0  0  0  0  0  0  0  0  0  0  0
    6.2800  -13.9860  -12.1600 F   0  0  0  0  0  0  0  0  0  0  0  0
    6.7150  -13.1880   -8.7920 C   0  0  0  0  0  0  0  0  0  0  0  0
    6.0850  -12.0230   -4.2130 H   0  0  0  0  0  0  0  0  0  0  0  0
    3.6629  -10.1367   -5.0274 H   0  0  0  0  0  0  0  0  0  0  0  0
    1.7439   -9.3314   -3.6606 H   0  0  0  0  0  0  0  0  0  0  0  0
    1.0871  -10.5486   -1.5920 H   0  0  0  0  0  0  0  0  0  0  0  0
    3.6536  -14.3250   -0.8000 H   0  0  0  0  0  0  0  0  0  0  0  0
    3.6450  -16.3705    1.2682 H   0  0  0  0  0  0  0  0  0  0  0  0
    2.1274  -16.6002    3.4523 H   0  0  0  0  0  0  0  0  0  0  0  0
   -0.4310  -12.6730    2.9460 H   0  0  0  0  0  0  0  0  0  0  0  0
   -1.0315  -10.4301    2.7263 H   0  0  0  0  0  0  0  0  0  0  0  0
   -0.1730  -10.3613    1.1425 H   0  0  0  0  0  0  0  0  0  0  0  0
   -1.9393   -9.3901   -0.1734 H   0  0  0  0  0  0  0  0  0  0  0  0
   -4.0911   -9.8046   -1.3913 H   0  0  0  0  0  0  0  0  0  0  0  0
   -5.4542  -11.8301   -0.8127 H   0  0  0  0  0  0  0  0  0  0  0  0
   -4.6318  -13.3618    0.9390 H   0  0  0  0  0  0  0  0  0  0  0  0
    4.2499  -13.4155   -2.2822 H   0  0  0  0  0  0  0  0  0  0  0  0
    7.0590  -12.4310   -5.9440 H   0  0  0  0  0  0  0  0  0  0  0  0
    7.0531  -15.5117   -6.3242 H   0  0  0  0  0  0  0  0  0  0  0  0
    7.7230  -16.9090   -8.2738 H   0  0  0  0  0  0  0  0  0  0  0  0
    7.7527  -15.9255  -10.5625 H   0  0  0  0  0  0  0  0  0  0  0  0
    6.4305  -12.1358   -8.9402 H   0  0  0  0  0  0  0  0  0  0  0  0
  1  2  2  0
  2  3  1  0
  3  4  1  0
  4  5  2  0
  5  6  1  0
  6  7  2  0
  7  8  1  0
  8  9  1  0
  9 10  2  0
 10 11  1  0
 11 12  1  0
 12 13  2  0
 13 14  1  0
 14 15  2  0
 15 16  1  0
 16 17  1  0
 17 18  1  0
 18 19  1  0
 19 20  2  0
 20 21  1  0
 21 22  2  0
 22 23  1  0
 23 24  2  0
 16 25  2  0
  8 26  2  0
  2 27  1  0
 27 28  1  0
 28 29  2  0
 29 30  1  0
 30 31  2  0
 31 32  1  0
 32 33  1  0
 33 34  1  0
 33 35  1  0
 33 36  1  0
 32 37  2  0
 26  4  1  0
 37 28  1  0
 25  9  1  0
 15 11  1  0
 24 19  1  0
  3 38  1  0
  5 39  1  0
  6 40  1  0
  7 41  1  0
 10 42  1  0
 12 43  1  0
 13 44  1  0
 17 45  1  0
 18 46  1  0
 18 47  1  0
 20 48  1  0
 21 49  1  0
 22 50  1  0
 23 51  1  0
 26 52  1  0
 27 53  1  0
 29 54  1  0
 30 55  1  0
 31 56  1  0
 37 57  1  0
M  END
>  <meeko>  (1) 
{"is_sidechain": [false], "free_energy": -9.914, "intermolecular_energy": -13.391, "internal_energy": -1.174}

$$$$
LIB_ZVHBDYFMHCQADD__M_PUB_ALL__e8__s20260927
     RDKit          3D

 57 61  0  0  0  0  0  0  0  0999 V2000
    8.3040  -11.7150   -0.0550 O   0  0  0  0  0  0  0  0  0  0  0  0
    8.6900  -12.8590    0.1400 C   0  0  0  0  0  0  0  0  0  0  0  0
    7.8670  -13.9330    0.4510 N   0  0  0  0  0  0  0  0  0  0  0  0
    6.4830  -13.9040    0.7260 C   0  0  0  0  0  0  0  0  0  0  0  0
    6.1000  -13.7220    2.0610 C   0  0  0  0  0  0  0  0  0  0  0  0
    4.7520  -13.6760    2.4120 C   0  0  0  0  0  0  0  0  0  0  0  0
    3.7720  -13.8130    1.4310 C   0  0  0  0  0  0  0  0  0  0  0  0
    4.1240  -13.9990    0.0870 C   0  0  0  0  0  0  0  0  0  0  0  0
    3.0580  -14.1280   -0.9400 C   0  0  0  0  0  0  0  0  0  0  0  0
    3.3600  -13.9770   -2.2460 C   0  0  0  0  0  0  0  0  0  0  0  0
    2.3500  -14.1180   -3.1710 N   0  0  0  0  0  0  0  0  0  0  0  0
    2.3280  -14.0250   -4.5360 C   0  0  0  0  0  0  0  0  0  0  0  0
    1.0180  -14.2700   -4.8900 C   0  0  0  0  0  0  0  0  0  0  0  0
    0.2370  -14.5120   -3.7840 N   0  0  0  0  0  0  0  0  0  0  0  0
    1.0760  -14.4110   -2.7730 C   0  0  0  0  0  0  0  0  0  0  0  0
    0.7970  -14.5770   -1.3560 C   0  0  0  0  0  0  0  0  0  0  0  0
   -0.4710  -14.8750   -0.9290 N   0  0  0  0  0  0  0  0  0  0  0  0
   -0.8290  -15.1530    0.4390 C   0  0  0  0  0  0  0  0  0  0  0  0
   -1.2360  -13.8760    1.1470 C   0  0  0  0  0  0  0  0  0  0  0  0
   -0.5890  -13.4950    2.3230 C   0  0  0  0  0  0  0  0  0  0  0  0
   -0.9550  -12.3010    2.9370 C   0  0  0  0  0  0  0  0  0  0  0  0
   -1.9460  -11.5150    2.3620 C   0  0  0  0  0  0  0  0  0  0  0  0
   -2.5310  -11.9580    1.1870 C   0  0  0  0  0  0  0  0  0  0  0  0
   -2.1980  -13.1110    0.5680 N   0  0  0  0  0  0  0  0  0  0  0  0
    1.7770  -14.4380   -0.4910 N   0  0  0  0  0  0  0  0  0  0  0  0
    5.4900  -14.0260   -0.2510 C   0  0  0  0  0  0  0  0  0  0  0  0
   10.0140  -13.2710    0.0760 N   0  0  0  0  0  0  0  0  0  0  0  0
   11.1390  -12.5090   -0.3060 C   0  0  0  0  0  0  0  0  0  0  0  0
   11.5550  -11.5010    0.5730 C   0  0  0  0  0  0  0  0  0  0  0  0
   12.6590  -10.7010    0.2720 C   0  0  0  0  0  0  0  0  0  0  0  0
   13.3640  -10.9050   -0.9110 C   0  0  0  0  0  0  0  0  0  0  0  0
   12.9750  -11.9170   -1.8010 C   0  0  0  0  0  0  0  0  0  0  0  0
   13.7190  -12.1410   -3.0940 C   0  0  0  0  0  0  0  0  0  0  0  0
   13.0610  -11.6480   -4.1830 F   0  0  0  0  0  0  0  0  0  0  0  0
   13.9260  -13.4610   -3.3540 F   0  0  0  0  0  0  0  0  0  0  0  0
   14.9480  -11.5550   -3.1110 F   0  0  0  0  0  0  0  0  0  0  0  0
   11.8560  -12.7100   -1.4880 C   0  0  0  0  0  0  0  0  0  0  0  0
    8.2830  -14.8490    0.4000 H   0  0  0  0  0  0  0  0  0  0  0  0
    6.8699  -13.6144    2.8392 H   0  0  0  0  0  0  0  0  0  0  0  0
    4.4618  -13.5316    3.4632 H   0  0  0  0  0  0  0  0  0  0  0  0
    2.7099  -13.7747    1.7145 H   0  0  0  0  0  0  0  0  0  0  0  0
    4.3876  -13.7470   -2.5640 H   0  0  0  0  0  0  0  0  0  0  0  0
    3.1721  -13.8030   -5.2055 H   0  0  0  0  0  0  0  0  0  0  0  0
    0.6452  -14.2717   -5.9249 H   0  0  0  0  0  0  0  0  0  0  0  0
   -1.1710  -15.0510   -1.6450 H   0  0  0  0  0  0  0  0  0  0  0  0
   -1.6701  -15.8616    0.4570 H   0  0  0  0  0  0  0  0  0  0  0  0
    0.0404  -15.5864    0.9551 H   0  0  0  0  0  0  0  0  0  0  0  0
    0.1981  -14.1285    2.7580 H   0  0  0  0  0  0  0  0  0  0  0  0
   -0.4644  -11.9825    3.8686 H   0  0  0  0  0  0  0  0  0  0  0  0
   -2.2572  -10.5678    2.8266 H   0  0  0  0  0  0  0  0  0  0  0  0
   -3.3133  -11.3334    0.7311 H   0  0  0  0  0  0  0  0  0  0  0  0
    5.7823  -14.1455   -1.3047 H   0  0  0  0  0  0  0  0  0  0  0  0
   10.2070  -14.2060    0.4000 H   0  0  0  0  0  0  0  0  0  0  0  0
   11.0053  -11.3377    1.5117 H   0  0  0  0  0  0  0  0  0  0  0  0
   12.9716   -9.9098    0.9693 H   0  0  0  0  0  0  0  0  0  0  0  0
   14.2300  -10.2697   -1.1488 H   0  0  0  0  0  0  0  0  0  0  0  0
   11.5407  -13.5006   -2.1848 H   0  0  0  0  0  0  0  0  0  0  0  0
  1  2  2  0
  2  3  1  0
  3  4  1  0
  4  5  2  0
  5  6  1  0
  6  7  2  0
  7  8  1  0
  8  9  1  0
  9 10  2  0
 10 11  1  0
 11 12  1  0
 12 13  2  0
 13 14  1  0
 14 15  2  0
 15 16  1  0
 16 17  1  0
 17 18  1  0
 18 19  1  0
 19 20  2  0
 20 21  1  0
 21 22  2  0
 22 23  1  0
 23 24  2  0
 16 25  2  0
  8 26  2  0
  2 27  1  0
 27 28  1  0
 28 29  2  0
 29 30  1  0
 30 31  2  0
 31 32  1  0
 32 33  1  0
 33 34  1  0
 33 35  1  0
 33 36  1  0
 32 37  2  0
 26  4  1  0
 37 28  1  0
 25  9  1  0
 15 11  1  0
 24 19  1  0
  3 38  1  0
  5 39  1  0
  6 40  1  0
  7 41  1  0
 10 42  1  0
 12 43  1  0
 13 44  1  0
 17 45  1  0
 18 46  1  0
 18 47  1  0
 20 48  1  0
 21 49  1  0
 22 50  1  0
 23 51  1  0
 26 52  1  0
 27 53  1  0
 29 54  1  0
 30 55  1  0
 31 56  1  0
 37 57  1  0
M  END
>  <meeko>  (2) 
{"is_sidechain": [false], "free_energy": -9.063, "intermolecular_energy": -12.3, "internal_energy": -1.115}

$$$$
LIB_ZVHBDYFMHCQADD__M_PUB_ALL__e8__s20260927
     RDKit          3D

 57 61  0  0  0  0  0  0  0  0999 V2000
    7.3060  -11.4540   -1.3520 O   0  0  0  0  0  0  0  0  0  0  0  0
    7.2250  -12.3380   -2.1930 C   0  0  0  0  0  0  0  0  0  0  0  0
    6.0360  -12.8160   -2.7300 N   0  0  0  0  0  0  0  0  0  0  0  0
    4.7220  -12.4870   -2.3360 C   0  0  0  0  0  0  0  0  0  0  0  0
    4.0200  -11.5830   -3.1430 C   0  0  0  0  0  0  0  0  0  0  0  0
    2.7140  -11.2130   -2.8240 C   0  0  0  0  0  0  0  0  0  0  0  0
    2.0980  -11.7420   -1.6910 C   0  0  0  0  0  0  0  0  0  0  0  0
    2.7770  -12.6450   -0.8620 C   0  0  0  0  0  0  0  0  0  0  0  0
    2.0900  -13.2040    0.3310 C   0  0  0  0  0  0  0  0  0  0  0  0
    2.5540  -14.3320    0.9070 C   0  0  0  0  0  0  0  0  0  0  0  0
    1.9010  -14.8140    2.0210 N   0  0  0  0  0  0  0  0  0  0  0  0
    2.1140  -15.9080    2.8140 C   0  0  0  0  0  0  0  0  0  0  0  0
    1.1260  -15.8490    3.7760 C   0  0  0  0  0  0  0  0  0  0  0  0
    0.3170  -14.7520    3.5960 N   0  0  0  0  0  0  0  0  0  0  0  0
    0.8170  -14.1570    2.5310 C   0  0  0  0  0  0  0  0  0  0  0  0
    0.3580  -12.9390    1.8860 C   0  0  0  0  0  0  0  0  0  0  0  0
   -0.7250  -12.2580    2.3800 N   0  0  0  0  0  0  0  0  0  0  0  0
   -1.1960  -10.9940    1.8720 C   0  0  0  0  0  0  0  0  0  0  0  0
   -2.4550  -11.1930    1.0520 C   0  0  0  0  0  0  0  0  0  0  0  0
   -2.8360  -10.2290    0.1170 C   0  0  0  0  0  0  0  0  0  0  0  0
   -3.9770  -10.4490   -0.6490 C   0  0  0  0  0  0  0  0  0  0  0  0
   -4.7010  -11.6210   -0.4730 C   0  0  0  0  0  0  0  0  0  0  0  0
   -4.2500  -12.5330    0.4670 C   0  0  0  0  0  0  0  0  0  0  0  0
   -3.1480  -12.3480    1.2260 N   0  0  0  0  0  0  0  0  0  0  0  0
    0.9970  -12.4980    0.8250 N   0  0  0  0  0  0  0  0  0  0  0  0
    4.0880  -13.0210   -1.2100 C   0  0  0  0  0  0  0  0  0  0  0  0
    8.3070  -13.0030   -2.7530 N   0  0  0  0  0  0  0  0  0  0  0  0
    9.6790  -12.7450   -2.5500 C   0  0  0  0  0  0  0  0  0  0  0  0
   10.4900  -12.6780   -3.6900 C   0  0  0  0  0  0  0  0  0  0  0  0
   11.8600  -12.4260   -3.5800 C   0  0  0  0  0  0  0  0  0  0  0  0
   12.4320  -12.2320   -2.3250 C   0  0  0  0  0  0  0  0  0  0  0  0
   11.6380  -12.2810   -1.1710 C   0  0  0  0  0  0  0  0  0  0  0  0
   12.2450  -12.0880    0.1970 C   0  0  0  0  0  0  0  0  0  0  0  0
   12.3770  -13.2530    0.8940 F   0  0  0  0  0  0  0  0  0  0  0  0
   11.5000  -11.2670    0.9860 F   0  0  0  0  0  0  0  0  0  0  0  0
   13.4920  -11.5430    0.1550 F   0  0  0  0  0  0  0  0  0  0  0  0
   10.2620  -12.5430   -1.2970 C   0  0  0  0  0  0  0  0  0  0  0  0
    6.1150  -13.4050   -3.5430 H   0  0  0  0  0  0  0  0  0  0  0  0
    4.5032  -11.1610   -4.0366 H   0  0  0  0  0  0  0  0  0  0  0  0
    2.1703  -10.5042   -3.4659 H   0  0  0  0  0  0  0  0  0  0  0  0
    1.0672  -11.4473   -1.4448 H   0  0  0  0  0  0  0  0  0  0  0  0
    3.4315  -14.8541    0.4979 H   0  0  0  0  0  0  0  0  0  0  0  0
    2.9012  -16.6690    2.7081 H   0  0  0  0  0  0  0  0  0  0  0  0
    1.0017  -16.5855    4.5835 H   0  0  0  0  0  0  0  0  0  0  0  0
   -1.1290  -12.5980    3.2480 H   0  0  0  0  0  0  0  0  0  0  0  0
   -1.4146  -10.3226    2.7155 H   0  0  0  0  0  0  0  0  0  0  0  0
   -0.4178  -10.5533    1.2316 H   0  0  0  0  0  0  0  0  0  0  0  0
   -2.2443   -9.3108   -0.0122 H   0  0  0  0  0  0  0  0  0  0  0  0
   -4.3024   -9.7013   -1.3872 H   0  0  0  0  0  0  0  0  0  0  0  0
   -5.6075  -11.8196   -1.0637 H   0  0  0  0  0  0  0  0  0  0  0  0
   -4.8227  -13.4622    0.6034 H   0  0  0  0  0  0  0  0  0  0  0  0
    4.6243  -13.7492   -0.5838 H   0  0  0  0  0  0  0  0  0  0  0  0
    8.0910  -13.8040   -3.3240 H   0  0  0  0  0  0  0  0  0  0  0  0
   10.0429  -12.8256   -4.6842 H   0  0  0  0  0  0  0  0  0  0  0  0
   12.4859  -12.3809   -4.4834 H   0  0  0  0  0  0  0  0  0  0  0  0
   13.5116  -12.0395   -2.2391 H   0  0  0  0  0  0  0  0  0  0  0  0
    9.6350  -12.5896   -0.3944 H   0  0  0  0  0  0  0  0  0  0  0  0
  1  2  2  0
  2  3  1  0
  3  4  1  0
  4  5  2  0
  5  6  1  0
  6  7  2  0
  7  8  1  0
  8  9  1  0
  9 10  2  0
 10 11  1  0
 11 12  1  0
 12 13  2  0
 13 14  1  0
 14 15  2  0
 15 16  1  0
 16 17  1  0
 17 18  1  0
 18 19  1  0
 19 20  2  0
 20 21  1  0
 21 22  2  0
 22 23  1  0
 23 24  2  0
 16 25  2  0
  8 26  2  0
  2 27  1  0
 27 28  1  0
 28 29  2  0
 29 30  1  0
 30 31  2  0
 31 32  1  0
 32 33  1  0
 33 34  1  0
 33 35  1  0
 33 36  1  0
 32 37  2  0
 26  4  1  0
 37 28  1  0
 25  9  1  0
 15 11  1  0
 24 19  1  0
  3 38  1  0
  5 39  1  0
  6 40  1  0
  7 41  1  0
 10 42  1  0
 12 43  1  0
 13 44  1  0
 17 45  1  0
 18 46  1  0
 18 47  1  0
 20 48  1  0
 21 49  1  0
 22 50  1  0
 23 51  1  0
 26 52  1  0
 27 53  1  0
 29 54  1  0
 30 55  1  0
 31 56  1  0
 37 57  1  0
M  END
>  <meeko>  (3) 
{"is_sidechain": [false], "free_energy": -8.97, "intermolecular_energy": -12.349, "internal_energy": -0.941}

$$$$
LIB_ZVHBDYFMHCQADD__M_PUB_ALL__e8__s20260927
     RDKit          3D

 57 61  0  0  0  0  0  0  0  0999 V2000
    1.8470  -11.9020   -0.4910 O   0  0  0  0  0  0  0  0  0  0  0  0
    1.4040  -10.9710   -1.1480 C   0  0  0  0  0  0  0  0  0  0  0  0
    1.8720  -10.5870   -2.3980 N   0  0  0  0  0  0  0  0  0  0  0  0
    2.9970  -11.0890   -3.0860 C   0  0  0  0  0  0  0  0  0  0  0  0
    2.8490  -11.3440   -4.4550 C   0  0  0  0  0  0  0  0  0  0  0  0
    3.9160  -11.8350   -5.2050 C   0  0  0  0  0  0  0  0  0  0  0  0
    5.1450  -12.0770   -4.5920 C   0  0  0  0  0  0  0  0  0  0  0  0
    5.3220  -11.8340   -3.2220 C   0  0  0  0  0  0  0  0  0  0  0  0
    6.6460  -12.0880   -2.5980 C   0  0  0  0  0  0  0  0  0  0  0  0
    7.7650  -12.0400   -3.3510 C   0  0  0  0  0  0  0  0  0  0  0  0
    8.9770  -12.2650   -2.7370 N   0  0  0  0  0  0  0  0  0  0  0  0
   10.2610  -12.2900   -3.2090 C   0  0  0  0  0  0  0  0  0  0  0  0
   11.0420  -12.5690   -2.1060 C   0  0  0  0  0  0  0  0  0  0  0  0
   10.2750  -12.7150   -0.9740 N   0  0  0  0  0  0  0  0  0  0  0  0
    9.0410  -12.5250   -1.3970 C   0  0  0  0  0  0  0  0  0  0  0  0
    7.8130  -12.5570   -0.6220 C   0  0  0  0  0  0  0  0  0  0  0  0
    7.8490  -12.8100    0.7260 N   0  0  0  0  0  0  0  0  0  0  0  0
    6.7010  -12.7680    1.5960 C   0  0  0  0  0  0  0  0  0  0  0  0
    5.8280  -13.9880    1.3760 C   0  0  0  0  0  0  0  0  0  0  0  0
    4.4430  -13.8460    1.2920 C   0  0  0  0  0  0  0  0  0  0  0  0
    3.6630  -14.9740    1.0550 C   0  0  0  0  0  0  0  0  0  0  0  0
    4.2810  -16.2090    0.9010 C   0  0  0  0  0  0  0  0  0  0  0  0
    5.6630  -16.2630    0.9870 C   0  0  0  0  0  0  0  0  0  0  0  0
    6.4460  -15.1870    1.2170 N   0  0  0  0  0  0  0  0  0  0  0  0
    6.6670  -12.3370   -1.2280 N   0  0  0  0  0  0  0  0  0  0  0  0
    4.2380  -11.3220   -2.4850 C   0  0  0  0  0  0  0  0  0  0  0  0
    0.3570  -10.1490   -0.7530 N   0  0  0  0  0  0  0  0  0  0  0  0
   -0.4490  -10.2690    0.3990 C   0  0  0  0  0  0  0  0  0  0  0  0
   -0.3770   -9.2310    1.3370 C   0  0  0  0  0  0  0  0  0  0  0  0
   -1.1420   -9.2690    2.5050 C   0  0  0  0  0  0  0  0  0  0  0  0
   -1.9920  -10.3460    2.7450 C   0  0  0  0  0  0  0  0  0  0  0  0
   -2.0900  -11.3900    1.8140 C   0  0  0  0  0  0  0  0  0  0  0  0
   -2.9950  -12.5710    2.0660 C   0  0  0  0  0  0  0  0  0  0  0  0
   -2.4020  -13.5520    2.8060 F   0  0  0  0  0  0  0  0  0  0  0  0
   -3.4010  -13.1710    0.9140 F   0  0  0  0  0  0  0  0  0  0  0  0
   -4.1300  -12.2390    2.7400 F   0  0  0  0  0  0  0  0  0  0  0  0
   -1.3090  -11.3420    0.6460 C   0  0  0  0  0  0  0  0  0  0  0  0
    1.3020   -9.9320   -2.9100 H   0  0  0  0  0  0  0  0  0  0  0  0
    1.8814  -11.1550   -4.9429 H   0  0  0  0  0  0  0  0  0  0  0  0
    3.7889  -12.0315   -6.2798 H   0  0  0  0  0  0  0  0  0  0  0  0
    5.9845  -12.4625   -5.1892 H   0  0  0  0  0  0  0  0  0  0  0  0
    7.7103  -11.8264   -4.4287 H   0  0  0  0  0  0  0  0  0  0  0  0
   10.5976  -12.1238   -4.2430 H   0  0  0  0  0  0  0  0  0  0  0  0
   12.1378  -12.6626   -2.1293 H   0  0  0  0  0  0  0  0  0  0  0  0
    8.7650  -12.8910    1.1570 H   0  0  0  0  0  0  0  0  0  0  0  0
    7.0395  -12.7481    2.6424 H   0  0  0  0  0  0  0  0  0  0  0  0
    6.1154  -11.8643    1.3717 H   0  0  0  0  0  0  0  0  0  0  0  0
    3.9745  -12.8579    1.4112 H   0  0  0  0  0  0  0  0  0  0  0  0
    2.5682  -14.8887    0.9902 H   0  0  0  0  0  0  0  0  0  0  0  0
    3.6899  -17.1181    0.7161 H   0  0  0  0  0  0  0  0  0  0  0  0
    6.1513  -17.2405    0.8604 H   0  0  0  0  0  0  0  0  0  0  0  0
    4.3694  -11.1008   -1.4155 H   0  0  0  0  0  0  0  0  0  0  0  0
    0.1900   -9.3340   -1.3230 H   0  0  0  0  0  0  0  0  0  0  0  0
    0.2898   -8.3760    1.1515 H   0  0  0  0  0  0  0  0  0  0  0  0
   -1.0732   -8.4489    3.2349 H   0  0  0  0  0  0  0  0  0  0  0  0
   -2.5888  -10.3777    3.6685 H   0  0  0  0  0  0  0  0  0  0  0  0
   -1.3760  -12.1617   -0.0845 H   0  0  0  0  0  0  0  0  0  0  0  0
  1  2  2  0
  2  3  1  0
  3  4  1  0
  4  5  2  0
  5  6  1  0
  6  7  2  0
  7  8  1  0
  8  9  1  0
  9 10  2  0
 10 11  1  0
 11 12  1  0
 12 13  2  0
 13 14  1  0
 14 15  2  0
 15 16  1  0
 16 17  1  0
 17 18  1  0
 18 19  1  0
 19 20  2  0
 20 21  1  0
 21 22  2  0
 22 23  1  0
 23 24  2  0
 16 25  2  0
  8 26  2  0
  2 27  1  0
 27 28  1  0
 28 29  2  0
 29 30  1  0
 30 31  2  0
 31 32  1  0
 32 33  1  0
 33 34  1  0
 33 35  1  0
 33 36  1  0
 32 37  2  0
 26  4  1  0
 37 28  1  0
 25  9  1  0
 15 11  1  0
 24 19  1  0
  3 38  1  0
  5 39  1  0
  6 40  1  0
  7 41  1  0
 10 42  1  0
 12 43  1  0
 13 44  1  0
 17 45  1  0
 18 46  1  0
 18 47  1  0
 20 48  1  0
 21 49  1  0
 22 50  1  0
 23 51  1  0
 26 52  1  0
 27 53  1  0
 29 54  1  0
 30 55  1  0
 31 56  1  0
 37 57  1  0
M  END
>  <meeko>  (4) 
{"is_sidechain": [false], "free_energy": -8.969, "intermolecular_energy": -12.181, "internal_energy": -1.107}

$$$$
LIB_ZVHBDYFMHCQADD__M_PUB_ALL__e8__s20260927
     RDKit          3D

 57 61  0  0  0  0  0  0  0  0999 V2000
    4.1960  -13.3530   -6.7720 O   0  0  0  0  0  0  0  0  0  0  0  0
    5.0980  -12.6000   -6.4330 C   0  0  0  0  0  0  0  0  0  0  0  0
    5.0920  -11.8210   -5.2830 N   0  0  0  0  0  0  0  0  0  0  0  0
    4.0290  -11.6430   -4.3710 C   0  0  0  0  0  0  0  0  0  0  0  0
    3.4280  -10.3790   -4.3290 C   0  0  0  0  0  0  0  0  0  0  0  0
    2.3690  -10.1260   -3.4590 C   0  0  0  0  0  0  0  0  0  0  0  0
    1.9010  -11.1360   -2.6200 C   0  0  0  0  0  0  0  0  0  0  0  0
    2.4860  -12.4110   -2.6370 C   0  0  0  0  0  0  0  0  0  0  0  0
    1.9570  -13.4720   -1.7410 C   0  0  0  0  0  0  0  0  0  0  0  0
    2.3510  -14.7510   -1.9090 C   0  0  0  0  0  0  0  0  0  0  0  0
    1.8530  -15.7070   -1.0510 N   0  0  0  0  0  0  0  0  0  0  0  0
    2.0470  -17.0580   -0.9610 C   0  0  0  0  0  0  0  0  0  0  0  0
    1.2730  -17.4600    0.1080 C   0  0  0  0  0  0  0  0  0  0  0  0
    0.6110  -16.3960    0.6750 N   0  0  0  0  0  0  0  0  0  0  0  0
    0.9870  -15.3620   -0.0510 C   0  0  0  0  0  0  0  0  0  0  0  0
    0.5990  -13.9700    0.1010 C   0  0  0  0  0  0  0  0  0  0  0  0
   -0.2650  -13.5960    1.0980 N   0  0  0  0  0  0  0  0  0  0  0  0
   -0.6350  -12.2340    1.3910 C   0  0  0  0  0  0  0  0  0  0  0  0
   -1.9540  -11.8930    0.7290 C   0  0  0  0  0  0  0  0  0  0  0  0
   -2.2350  -10.5720    0.3750 C   0  0  0  0  0  0  0  0  0  0  0  0
   -3.4380  -10.2870   -0.2630 C   0  0  0  0  0  0  0  0  0  0  0  0
   -4.3240  -11.3200   -0.5400 C   0  0  0  0  0  0  0  0  0  0  0  0
   -3.9660  -12.6050   -0.1670 C   0  0  0  0  0  0  0  0  0  0  0  0
   -2.8070  -12.9140    0.4540 N   0  0  0  0  0  0  0  0  0  0  0  0
    1.0870  -13.0750   -0.7290 N   0  0  0  0  0  0  0  0  0  0  0  0
    3.5420  -12.6520   -3.5340 C   0  0  0  0  0  0  0  0  0  0  0  0
    6.2770  -12.4050   -7.1390 N   0  0  0  0  0  0  0  0  0  0  0  0
    6.7100  -13.0800   -8.3000 C   0  0  0  0  0  0  0  0  0  0  0  0
    6.6830  -12.3610   -9.5020 C   0  0  0  0  0  0  0  0  0  0  0  0
    7.0960  -12.9520  -10.6980 C   0  0  0  0  0  0  0  0  0  0  0  0
    7.5450  -14.2710  -10.7040 C   0  0  0  0  0  0  0  0  0  0  0  0
    7.5940  -15.0060   -9.5110 C   0  0  0  0  0  0  0  0  0  0  0  0
    8.0640  -16.4400   -9.5020 C   0  0  0  0  0  0  0  0  0  0  0  0
    8.0660  -17.0100  -10.7410 F   0  0  0  0  0  0  0  0  0  0  0  0
    7.2820  -17.2400   -8.7270 F   0  0  0  0  0  0  0  0  0  0  0  0
    9.3340  -16.5810   -9.0300 F   0  0  0  0  0  0  0  0  0  0  0  0
    7.1680  -14.3990   -8.3150 C   0  0  0  0  0  0  0  0  0  0  0  0
    5.9660  -11.3930   -5.0250 H   0  0  0  0  0  0  0  0  0  0  0  0
    3.7949   -9.5787   -4.9885 H   0  0  0  0  0  0  0  0  0  0  0  0
    1.9028   -9.1300   -3.4344 H   0  0  0  0  0  0  0  0  0  0  0  0
    1.0635  -10.9310   -1.9369 H   0  0  0  0  0  0  0  0  0  0  0  0
    3.0525  -15.0240   -2.7111 H   0  0  0  0  0  0  0  0  0  0  0  0
    2.6822  -17.6873   -1.6018 H   0  0  0  0  0  0  0  0  0  0  0  0
    1.1953  -18.4987    0.4617 H   0  0  0  0  0  0  0  0  0  0  0  0
   -0.5470  -14.3140    1.7590 H   0  0  0  0  0  0  0  0  0  0  0  0
   -0.7330  -12.1109    2.4797 H   0  0  0  0  0  0  0  0  0  0  0  0
    0.1440  -11.5607    1.0039 H   0  0  0  0  0  0  0  0  0  0  0  0
   -1.5165   -9.7692    0.5971 H   0  0  0  0  0  0  0  0  0  0  0  0
   -3.6852   -9.2530   -0.5455 H   0  0  0  0  0  0  0  0  0  0  0  0
   -5.2831  -11.1232   -1.0415 H   0  0  0  0  0  0  0  0  0  0  0  0
   -4.6674  -13.4226   -0.3898 H   0  0  0  0  0  0  0  0  0  0  0  0
    3.9938  -13.6539   -3.5781 H   0  0  0  0  0  0  0  0  0  0  0  0
    6.8670  -11.6520   -6.8230 H   0  0  0  0  0  0  0  0  0  0  0  0
    6.3323  -11.3184   -9.5038 H   0  0  0  0  0  0  0  0  0  0  0  0
    7.0668  -12.3764  -11.6349 H   0  0  0  0  0  0  0  0  0  0  0  0
    7.8623  -14.7375  -11.6483 H   0  0  0  0  0  0  0  0  0  0  0  0
    7.1963  -14.9728   -7.3769 H   0  0  0  0  0  0  0  0  0  0  0  0
  1  2  2  0
  2  3  1  0
  3  4  1  0
  4  5  2  0
  5  6  1  0
  6  7  2  0
  7  8  1  0
  8  9  1  0
  9 10  2  0
 10 11  1  0
 11 12  1  0
 12 13  2  0
 13 14  1  0
 14 15  2  0
 15 16  1  0
 16 17  1  0
 17 18  1  0
 18 19  1  0
 19 20  2  0
 20 21  1  0
 21 22  2  0
 22 23  1  0
 23 24  2  0
 16 25  2  0
  8 26  2  0
  2 27  1  0
 27 28  1  0
 28 29  2  0
 29 30  1  0
 30 31  2  0
 31 32  1  0
 32 33  1  0
 33 34  1  0
 33 35  1  0
 33 36  1  0
 32 37  2  0
 26  4  1  0
 37 28  1  0
 25  9  1  0
 15 11  1  0
 24 19  1  0
  3 38  1  0
  5 39  1  0
  6 40  1  0
  7 41  1  0
 10 42  1  0
 12 43  1  0
 13 44  1  0
 17 45  1  0
 18 46  1  0
 18 47  1  0
 20 48  1  0
 21 49  1  0
 22 50  1  0
 23 51  1  0
 26 52  1  0
 27 53  1  0
 29 54  1  0
 30 55  1  0
 31 56  1  0
 37 57  1  0
M  END
>  <meeko>  (5) 
{"is_sidechain": [false], "free_energy": -8.949, "intermolecular_energy": -12.168, "internal_energy": -1.094}

$$$$
LIB_ZVHBDYFMHCQADD__M_PUB_ALL__e8__s20260927
     RDKit          3D

 57 61  0  0  0  0  0  0  0  0999 V2000
    7.0500  -10.6870   -2.1630 O   0  0  0  0  0  0  0  0  0  0  0  0
    6.8590  -11.8790   -2.3630 C   0  0  0  0  0  0  0  0  0  0  0  0
    5.6200  -12.4530   -2.6140 N   0  0  0  0  0  0  0  0  0  0  0  0
    4.3560  -11.8280   -2.5610 C   0  0  0  0  0  0  0  0  0  0  0  0
    3.9410  -11.1290   -3.7010 C   0  0  0  0  0  0  0  0  0  0  0  0
    2.7020  -10.4900   -3.7290 C   0  0  0  0  0  0  0  0  0  0  0  0
    1.8670  -10.5410   -2.6140 C   0  0  0  0  0  0  0  0  0  0  0  0
    2.2580  -11.2300   -1.4570 C   0  0  0  0  0  0  0  0  0  0  0  0
    1.3410  -11.2800   -0.2890 C   0  0  0  0  0  0  0  0  0  0  0  0
    0.3920  -10.3330   -0.1380 C   0  0  0  0  0  0  0  0  0  0  0  0
   -0.4500  -10.4190    0.9490 N   0  0  0  0  0  0  0  0  0  0  0  0
   -1.4860   -9.6350    1.3780 C   0  0  0  0  0  0  0  0  0  0  0  0
   -1.9390  -10.2410    2.5310 C   0  0  0  0  0  0  0  0  0  0  0  0
   -1.2130  -11.3730    2.8200 N   0  0  0  0  0  0  0  0  0  0  0  0
   -0.3290  -11.4430    1.8450 C   0  0  0  0  0  0  0  0  0  0  0  0
    0.7000  -12.4480    1.6380 C   0  0  0  0  0  0  0  0  0  0  0  0
    0.8410  -13.4890    2.5190 N   0  0  0  0  0  0  0  0  0  0  0  0
    1.7620  -14.5830    2.3500 C   0  0  0  0  0  0  0  0  0  0  0  0
    1.1810  -15.6210    1.4110 C   0  0  0  0  0  0  0  0  0  0  0  0
    0.1090  -16.4120    1.8250 C   0  0  0  0  0  0  0  0  0  0  0  0
   -0.4320  -17.3340    0.9340 C   0  0  0  0  0  0  0  0  0  0  0  0
    0.1020  -17.4400   -0.3440 C   0  0  0  0  0  0  0  0  0  0  0  0
    1.1600  -16.6120   -0.6810 C   0  0  0  0  0  0  0  0  0  0  0  0
    1.7060  -15.7070    0.1610 N   0  0  0  0  0  0  0  0  0  0  0  0
    1.4920  -12.3460    0.5930 N   0  0  0  0  0  0  0  0  0  0  0  0
    3.5030  -11.8840   -1.4540 C   0  0  0  0  0  0  0  0  0  0  0  0
    7.8510  -12.8490   -2.3790 N   0  0  0  0  0  0  0  0  0  0  0  0
    9.2460  -12.6620   -2.2670 C   0  0  0  0  0  0  0  0  0  0  0  0
    9.9800  -12.6160   -3.4590 C   0  0  0  0  0  0  0  0  0  0  0  0
   11.3640  -12.4330   -3.4400 C   0  0  0  0  0  0  0  0  0  0  0  0
   12.0300  -12.2890   -2.2250 C   0  0  0  0  0  0  0  0  0  0  0  0
   11.3150  -12.3190   -1.0190 C   0  0  0  0  0  0  0  0  0  0  0  0
   12.0220  -12.1790    0.3060 C   0  0  0  0  0  0  0  0  0  0  0  0
   12.3430  -13.3780    0.8710 F   0  0  0  0  0  0  0  0  0  0  0  0
   11.2700  -11.5230    1.2320 F   0  0  0  0  0  0  0  0  0  0  0  0
   13.1940  -11.4910    0.2150 F   0  0  0  0  0  0  0  0  0  0  0  0
    9.9210  -12.5110   -1.0540 C   0  0  0  0  0  0  0  0  0  0  0  0
    5.6240  -13.4040   -2.9470 H   0  0  0  0  0  0  0  0  0  0  0  0
    4.5980  -11.0836   -4.5821 H   0  0  0  0  0  0  0  0  0  0  0  0
    2.3837   -9.9459   -4.6305 H   0  0  0  0  0  0  0  0  0  0  0  0
    0.8906  -10.0352   -2.6421 H   0  0  0  0  0  0  0  0  0  0  0  0
    0.2931   -9.5129   -0.8644 H   0  0  0  0  0  0  0  0  0  0  0  0
   -1.8734   -8.7201    0.9058 H   0  0  0  0  0  0  0  0  0  0  0  0
   -2.7741   -9.8669    3.1415 H   0  0  0  0  0  0  0  0  0  0  0  0
    0.1510  -13.5630    3.2610 H   0  0  0  0  0  0  0  0  0  0  0  0
    2.7048  -14.2019    1.9306 H   0  0  0  0  0  0  0  0  0  0  0  0
    1.9458  -15.0498    3.3289 H   0  0  0  0  0  0  0  0  0  0  0  0
   -0.3022  -16.3085    2.8400 H   0  0  0  0  0  0  0  0  0  0  0  0
   -1.2742  -17.9726    1.2387 H   0  0  0  0  0  0  0  0  0  0  0  0
   -0.3041  -18.1615   -1.0683 H   0  0  0  0  0  0  0  0  0  0  0  0
    1.5806  -16.6961   -1.6939 H   0  0  0  0  0  0  0  0  0  0  0  0
    3.8121  -12.4508   -0.5634 H   0  0  0  0  0  0  0  0  0  0  0  0
    7.5380  -13.8070   -2.4110 H   0  0  0  0  0  0  0  0  0  0  0  0
    9.4597  -12.7254   -4.4220 H   0  0  0  0  0  0  0  0  0  0  0  0
   11.9281  -12.4025   -4.3838 H   0  0  0  0  0  0  0  0  0  0  0  0
   13.1212  -12.1512   -2.2115 H   0  0  0  0  0  0  0  0  0  0  0  0
    9.3548  -12.5426   -0.1115 H   0  0  0  0  0  0  0  0  0  0  0  0
  1  2  2  0
  2  3  1  0
  3  4  1  0
  4  5  2  0
  5  6  1  0
  6  7  2  0
  7  8  1  0
  8  9  1  0
  9 10  2  0
 10 11  1  0
 11 12  1  0
 12 13  2  0
 13 14  1  0
 14 15  2  0
 15 16  1  0
 16 17  1  0
 17 18  1  0
 18 19  1  0
 19 20  2  0
 20 21  1  0
 21 22  2  0
 22 23  1  0
 23 24  2  0
 16 25  2  0
  8 26  2  0
  2 27  1  0
 27 28  1  0
 28 29  2  0
 29 30  1  0
 30 31  2  0
 31 32  1  0
 32 33  1  0
 33 34  1  0
 33 35  1  0
 33 36  1  0
 32 37  2  0
 26  4  1  0
 37 28  1  0
 25  9  1  0
 15 11  1  0
 24 19  1  0
  3 38  1  0
  5 39  1  0
  6 40  1  0
  7 41  1  0
 10 42  1  0
 12 43  1  0
 13 44  1  0
 17 45  1  0
 18 46  1  0
 18 47  1  0
 20 48  1  0
 21 49  1  0
 22 50  1  0
 23 51  1  0
 26 52  1  0
 27 53  1  0
 29 54  1  0
 30 55  1  0
 31 56  1  0
 37 57  1  0
M  END
>  <meeko>  (6) 
{"is_sidechain": [false], "free_energy": -8.915, "intermolecular_energy": -12.083, "internal_energy": -1.133}

$$$$
LIB_ZVHBDYFMHCQADD__M_PUB_ALL__e8__s20260927
     RDKit          3D

 57 61  0  0  0  0  0  0  0  0999 V2000
    6.9460  -10.6870   -1.2890 O   0  0  0  0  0  0  0  0  0  0  0  0
    6.8340  -11.9050   -1.2870 C   0  0  0  0  0  0  0  0  0  0  0  0
    5.6700  -12.5960   -1.6000 N   0  0  0  0  0  0  0  0  0  0  0  0
    4.3900  -12.0550   -1.8460 C   0  0  0  0  0  0  0  0  0  0  0  0
    4.1470  -11.5450   -3.1270 C   0  0  0  0  0  0  0  0  0  0  0  0
    2.9050  -11.0000   -3.4490 C   0  0  0  0  0  0  0  0  0  0  0  0
    1.8930  -10.9580   -2.4920 C   0  0  0  0  0  0  0  0  0  0  0  0
    2.1080  -11.4580   -1.1990 C   0  0  0  0  0  0  0  0  0  0  0  0
    1.0070  -11.4130   -0.2030 C   0  0  0  0  0  0  0  0  0  0  0  0
    0.6010  -10.2280    0.2980 C   0  0  0  0  0  0  0  0  0  0  0  0
   -0.4330  -10.2230    1.2080 N   0  0  0  0  0  0  0  0  0  0  0  0
   -1.0590   -9.2140    1.8870 C   0  0  0  0  0  0  0  0  0  0  0  0
   -2.0210   -9.8410    2.6510 C   0  0  0  0  0  0  0  0  0  0  0  0
   -2.0030  -11.2030    2.4600 N   0  0  0  0  0  0  0  0  0  0  0  0
   -1.0350  -11.3900    1.5860 C   0  0  0  0  0  0  0  0  0  0  0  0
   -0.5730  -12.6430    1.0130 C   0  0  0  0  0  0  0  0  0  0  0  0
   -1.1620  -13.8280    1.3710 N   0  0  0  0  0  0  0  0  0  0  0  0
   -0.8430  -15.1080    0.7900 C   0  0  0  0  0  0  0  0  0  0  0  0
    0.0690  -15.8920    1.7120 C   0  0  0  0  0  0  0  0  0  0  0  0
   -0.4640  -16.8750    2.5480 C   0  0  0  0  0  0  0  0  0  0  0  0
    0.3970  -17.6070    3.3610 C   0  0  0  0  0  0  0  0  0  0  0  0
    1.7610  -17.3490    3.3150 C   0  0  0  0  0  0  0  0  0  0  0  0
    2.2110  -16.3650    2.4510 C   0  0  0  0  0  0  0  0  0  0  0  0
    1.4020  -15.6380    1.6500 N   0  0  0  0  0  0  0  0  0  0  0  0
    0.4150  -12.6240    0.1450 N   0  0  0  0  0  0  0  0  0  0  0  0
    3.3620  -12.0210   -0.8980 C   0  0  0  0  0  0  0  0  0  0  0  0
    7.8530  -12.7950   -0.9790 N   0  0  0  0  0  0  0  0  0  0  0  0
    9.2060  -12.4990   -0.7070 C   0  0  0  0  0  0  0  0  0  0  0  0
    9.5270  -12.1390    0.6080 C   0  0  0  0  0  0  0  0  0  0  0  0
   10.8420  -11.8310    0.9640 C   0  0  0  0  0  0  0  0  0  0  0  0
   11.8530  -11.8860    0.0060 C   0  0  0  0  0  0  0  0  0  0  0  0
   11.5580  -12.2570   -1.3130 C   0  0  0  0  0  0  0  0  0  0  0  0
   12.6380  -12.3070   -2.3650 C   0  0  0  0  0  0  0  0  0  0  0  0
   13.1070  -13.5680   -2.5910 F   0  0  0  0  0  0  0  0  0  0  0  0
   13.7260  -11.5620   -2.0310 F   0  0  0  0  0  0  0  0  0  0  0  0
   12.2220  -11.8480   -3.5780 F   0  0  0  0  0  0  0  0  0  0  0  0
   10.2270  -12.5580   -1.6580 C   0  0  0  0  0  0  0  0  0  0  0  0
    5.7610  -13.5880   -1.7450 H   0  0  0  0  0  0  0  0  0  0  0  0
    4.9428  -11.5746   -3.8858 H   0  0  0  0  0  0  0  0  0  0  0  0
    2.7238  -10.6030   -4.4587 H   0  0  0  0  0  0  0  0  0  0  0  0
    0.9148  -10.5281   -2.7533 H   0  0  0  0  0  0  0  0  0  0  0  0
    1.0835   -9.2895   -0.0124 H   0  0  0  0  0  0  0  0  0  0  0  0
   -0.8423   -8.1368    1.8350 H   0  0  0  0  0  0  0  0  0  0  0  0
   -2.7141   -9.3185    3.3268 H   0  0  0  0  0  0  0  0  0  0  0  0
   -1.9720  -13.7760    1.9820 H   0  0  0  0  0  0  0  0  0  0  0  0
   -1.7717  -15.6753    0.6299 H   0  0  0  0  0  0  0  0  0  0  0  0
   -0.3292  -14.9473   -0.1693 H   0  0  0  0  0  0  0  0  0  0  0  0
   -1.5468  -17.0680    2.5640 H   0  0  0  0  0  0  0  0  0  0  0  0
    0.0009  -18.3823    4.0334 H   0  0  0  0  0  0  0  0  0  0  0  0
    2.4642  -17.9108    3.9474 H   0  0  0  0  0  0  0  0  0  0  0  0
    3.2917  -16.1633    2.4147 H   0  0  0  0  0  0  0  0  0  0  0  0
    3.5374  -12.4428    0.1027 H   0  0  0  0  0  0  0  0  0  0  0  0
    7.5860  -13.7610   -0.8760 H   0  0  0  0  0  0  0  0  0  0  0  0
    8.7341  -12.0984    1.3693 H   0  0  0  0  0  0  0  0  0  0  0  0
   11.0796  -11.5453    1.9993 H   0  0  0  0  0  0  0  0  0  0  0  0
   12.8871  -11.6371    0.2865 H   0  0  0  0  0  0  0  0  0  0  0  0
    9.9873  -12.8441   -2.6927 H   0  0  0  0  0  0  0  0  0  0  0  0
  1  2  2  0
  2  3  1  0
  3  4  1  0
  4  5  2  0
  5  6  1  0
  6  7  2  0
  7  8  1  0
  8  9  1  0
  9 10  2  0
 10 11  1  0
 11 12  1  0
 12 13  2  0
 13 14  1  0
 14 15  2  0
 15 16  1  0
 16 17  1  0
 17 18  1  0
 18 19  1  0
 19 20  2  0
 20 21  1  0
 21 22  2  0
 22 23  1  0
 23 24  2  0
 16 25  2  0
  8 26  2  0
  2 27  1  0
 27 28  1  0
 28 29  2  0
 29 30  1  0
 30 31  2  0
 31 32  1  0
 32 33  1  0
 33 34  1  0
 33 35  1  0
 33 36  1  0
 32 37  2  0
 26  4  1  0
 37 28  1  0
 25  9  1  0
 15 11  1  0
 24 19  1  0
  3 38  1  0
  5 39  1  0
  6 40  1  0
  7 41  1  0
 10 42  1  0
 12 43  1  0
 13 44  1  0
 17 45  1  0
 18 46  1  0
 18 47  1  0
 20 48  1  0
 21 49  1  0
 22 50  1  0
 23 51  1  0
 26 52  1  0
 27 53  1  0
 29 54  1  0
 30 55  1  0
 31 56  1  0
 37 57  1  0
M  END
>  <meeko>  (7) 
{"is_sidechain": [false], "free_energy": -8.8, "intermolecular_energy": -11.927, "internal_energy": -1.133}

$$$$
LIB_ZVHBDYFMHCQADD__M_PUB_ALL__e8__s20260927
     RDKit          3D

 57 61  0  0  0  0  0  0  0  0999 V2000
    5.9150  -11.4490   -7.7170 O   0  0  0  0  0  0  0  0  0  0  0  0
    5.8630  -12.6440   -7.4610 C   0  0  0  0  0  0  0  0  0  0  0  0
    5.1750  -13.1980   -6.3890 N   0  0  0  0  0  0  0  0  0  0  0  0
    4.5290  -12.5140   -5.3380 C   0  0  0  0  0  0  0  0  0  0  0  0
    3.6970  -11.4430   -5.6880 C   0  0  0  0  0  0  0  0  0  0  0  0
    3.0180  -10.7220   -4.7070 C   0  0  0  0  0  0  0  0  0  0  0  0
    3.1670  -11.0630   -3.3640 C   0  0  0  0  0  0  0  0  0  0  0  0
    3.9960  -12.1280   -2.9830 C   0  0  0  0  0  0  0  0  0  0  0  0
    4.1240  -12.4780   -1.5450 C   0  0  0  0  0  0  0  0  0  0  0  0
    5.3470  -12.6200   -0.9940 C   0  0  0  0  0  0  0  0  0  0  0  0
    5.4290  -12.9300    0.3460 N   0  0  0  0  0  0  0  0  0  0  0  0
    6.4920  -13.1400    1.1820 C   0  0  0  0  0  0  0  0  0  0  0  0
    5.9300  -13.4130    2.4120 C   0  0  0  0  0  0  0  0  0  0  0  0
    4.5570  -13.3760    2.3550 N   0  0  0  0  0  0  0  0  0  0  0  0
    4.2970  -13.0820    1.0960 C   0  0  0  0  0  0  0  0  0  0  0  0
    3.0000  -12.9100    0.4650 C   0  0  0  0  0  0  0  0  0  0  0  0
    1.8480  -13.0520    1.1950 N   0  0  0  0  0  0  0  0  0  0  0  0
    0.5220  -12.8070    0.6860 C   0  0  0  0  0  0  0  0  0  0  0  0
   -0.1120  -11.6370    1.4100 C   0  0  0  0  0  0  0  0  0  0  0  0
    0.0330  -10.3440    0.9050 C   0  0  0  0  0  0  0  0  0  0  0  0
   -0.5860   -9.2890    1.5670 C   0  0  0  0  0  0  0  0  0  0  0  0
   -1.3390   -9.5470    2.7060 C   0  0  0  0  0  0  0  0  0  0  0  0
   -1.4430  -10.8590    3.1370 C   0  0  0  0  0  0  0  0  0  0  0  0
   -0.8530  -11.9040    2.5170 N   0  0  0  0  0  0  0  0  0  0  0  0
    2.9460  -12.6130   -0.8150 N   0  0  0  0  0  0  0  0  0  0  0  0
    4.6580  -12.8560   -3.9880 C   0  0  0  0  0  0  0  0  0  0  0  0
    6.4780  -13.6420   -8.2050 N   0  0  0  0  0  0  0  0  0  0  0  0
    7.1850  -13.5050   -9.4190 C   0  0  0  0  0  0  0  0  0  0  0  0
    6.4370  -13.5650  -10.6010 C   0  0  0  0  0  0  0  0  0  0  0  0
    7.0570  -13.4380  -11.8460 C   0  0  0  0  0  0  0  0  0  0  0  0
    8.4340  -13.2420  -11.9210 C   0  0  0  0  0  0  0  0  0  0  0  0
    9.2010  -13.1650  -10.7500 C   0  0  0  0  0  0  0  0  0  0  0  0
   10.6960  -12.9690  -10.8140 C   0  0  0  0  0  0  0  0  0  0  0  0
   11.1400  -12.6370  -12.0600 F   0  0  0  0  0  0  0  0  0  0  0  0
   11.3840  -14.0890  -10.4620 F   0  0  0  0  0  0  0  0  0  0  0  0
   11.1390  -11.9780   -9.9910 F   0  0  0  0  0  0  0  0  0  0  0  0
    8.5650  -13.3030   -9.5030 C   0  0  0  0  0  0  0  0  0  0  0  0
    5.0560  -14.1980   -6.4000 H   0  0  0  0  0  0  0  0  0  0  0  0
    3.5783  -11.1683   -6.7465 H   0  0  0  0  0  0  0  0  0  0  0  0
    2.3649   -9.8843   -4.9928 H   0  0  0  0  0  0  0  0  0  0  0  0
    2.6285  -10.4905   -2.5944 H   0  0  0  0  0  0  0  0  0  0  0  0
    6.2563  -12.4915   -1.5995 H   0  0  0  0  0  0  0  0  0  0  0  0
    7.5616  -13.0999    0.9284 H   0  0  0  0  0  0  0  0  0  0  0  0
    6.5071  -13.6324    3.3224 H   0  0  0  0  0  0  0  0  0  0  0  0
    1.9500  -13.2010    2.1950 H   0  0  0  0  0  0  0  0  0  0  0  0
    0.5823  -12.5792   -0.3885 H   0  0  0  0  0  0  0  0  0  0  0  0
   -0.0943  -13.7038    0.8474 H   0  0  0  0  0  0  0  0  0  0  0  0
    0.6276  -10.1621   -0.0024 H   0  0  0  0  0  0  0  0  0  0  0  0
   -0.4805   -8.2601    1.1925 H   0  0  0  0  0  0  0  0  0  0  0  0
   -1.8385   -8.7319    3.2501 H   0  0  0  0  0  0  0  0  0  0  0  0
   -2.0414  -11.0621    4.0374 H   0  0  0  0  0  0  0  0  0  0  0  0
    5.2898  -13.7114   -3.7066 H   0  0  0  0  0  0  0  0  0  0  0  0
    6.4750  -14.5650   -7.8010 H   0  0  0  0  0  0  0  0  0  0  0  0
    5.3484  -13.7139  -10.5485 H   0  0  0  0  0  0  0  0  0  0  0  0
    6.4581  -13.4927  -12.7670 H   0  0  0  0  0  0  0  0  0  0  0  0
    8.9214  -13.1473  -12.9026 H   0  0  0  0  0  0  0  0  0  0  0  0
    9.1625  -13.2512   -8.5809 H   0  0  0  0  0  0  0  0  0  0  0  0
  1  2  2  0
  2  3  1  0
  3  4  1  0
  4  5  2  0
  5  6  1  0
  6  7  2  0
  7  8  1  0
  8  9  1  0
  9 10  2  0
 10 11  1  0
 11 12  1  0
 12 13  2  0
 13 14  1  0
 14 15  2  0
 15 16  1  0
 16 17  1  0
 17 18  1  0
 18 19  1  0
 19 20  2  0
 20 21  1  0
 21 22  2  0
 22 23  1  0
 23 24  2  0
 16 25  2  0
  8 26  2  0
  2 27  1  0
 27 28  1  0
 28 29  2  0
 29 30  1  0
 30 31  2  0
 31 32  1  0
 32 33  1  0
 33 34  1  0
 33 35  1  0
 33 36  1  0
 32 37  2  0
 26  4  1  0
 37 28  1  0
 25  9  1  0
 15 11  1  0
 24 19  1  0
  3 38  1  0
  5 39  1  0
  6 40  1  0
  7 41  1  0
 10 42  1  0
 12 43  1  0
 13 44  1  0
 17 45  1  0
 18 46  1  0
 18 47  1  0
 20 48  1  0
 21 49  1  0
 22 50  1  0
 23 51  1  0
 26 52  1  0
 27 53  1  0
 29 54  1  0
 30 55  1  0
 31 56  1  0
 37 57  1  0
M  END
>  <meeko>  (8) 
{"is_sidechain": [false], "free_energy": -8.658, "intermolecular_energy": -12.129, "internal_energy": -0.739}

$$$$
LIB_ZVHBDYFMHCQADD__M_PUB_ALL__e8__s20260927
     RDKit          3D

 57 61  0  0  0  0  0  0  0  0999 V2000
    7.3080  -11.3340   -0.5500 O   0  0  0  0  0  0  0  0  0  0  0  0
    7.4490  -12.5410   -0.4080 C   0  0  0  0  0  0  0  0  0  0  0  0
    6.4130  -13.4650   -0.3900 N   0  0  0  0  0  0  0  0  0  0  0  0
    5.0260  -13.2010   -0.3990 C   0  0  0  0  0  0  0  0  0  0  0  0
    4.5500  -12.3170   -1.3740 C   0  0  0  0  0  0  0  0  0  0  0  0
    3.1920  -12.0100   -1.4520 C   0  0  0  0  0  0  0  0  0  0  0  0
    2.2970  -12.5850   -0.5520 C   0  0  0  0  0  0  0  0  0  0  0  0
    2.7450  -13.4710    0.4380 C   0  0  0  0  0  0  0  0  0  0  0  0
    1.7660  -14.0790    1.3750 C   0  0  0  0  0  0  0  0  0  0  0  0
    1.9460  -15.3440    1.8090 C   0  0  0  0  0  0  0  0  0  0  0  0
    1.0270  -15.8710    2.6890 N   0  0  0  0  0  0  0  0  0  0  0  0
    0.9250  -17.0930    3.2970 C   0  0  0  0  0  0  0  0  0  0  0  0
   -0.2150  -17.0140    4.0690 C   0  0  0  0  0  0  0  0  0  0  0  0
   -0.8140  -15.7820    3.9530 N   0  0  0  0  0  0  0  0  0  0  0  0
   -0.0360  -15.1260    3.1160 C   0  0  0  0  0  0  0  0  0  0  0  0
   -0.1860  -13.7640    2.6310 C   0  0  0  0  0  0  0  0  0  0  0  0
   -1.2410  -12.9920    3.0460 N   0  0  0  0  0  0  0  0  0  0  0  0
   -1.4250  -11.6050    2.7010 C   0  0  0  0  0  0  0  0  0  0  0  0
   -2.3900  -11.4740    1.5400 C   0  0  0  0  0  0  0  0  0  0  0  0
   -3.4170  -12.4060    1.3800 C   0  0  0  0  0  0  0  0  0  0  0  0
   -4.3120  -12.2460    0.3270 C   0  0  0  0  0  0  0  0  0  0  0  0
   -4.1690  -11.1640   -0.5320 C   0  0  0  0  0  0  0  0  0  0  0  0
   -3.1300  -10.2780   -0.2980 C   0  0  0  0  0  0  0  0  0  0  0  0
   -2.2450  -10.4060    0.7140 N   0  0  0  0  0  0  0  0  0  0  0  0
    0.7040  -13.2820    1.7930 N   0  0  0  0  0  0  0  0  0  0  0  0
    4.1160  -13.7830    0.4890 C   0  0  0  0  0  0  0  0  0  0  0  0
    8.6690  -13.1830   -0.2480 N   0  0  0  0  0  0  0  0  0  0  0  0
    9.9600  -12.6160   -0.3090 C   0  0  0  0  0  0  0  0  0  0  0  0
   10.4140  -11.9420    0.8310 C   0  0  0  0  0  0  0  0  0  0  0  0
   11.6800  -11.3520    0.8570 C   0  0  0  0  0  0  0  0  0  0  0  0
   12.5080  -11.4340   -0.2600 C   0  0  0  0  0  0  0  0  0  0  0  0
   12.0800  -12.1140   -1.4090 C   0  0  0  0  0  0  0  0  0  0  0  0
   12.9590  -12.2000   -2.6320 C   0  0  0  0  0  0  0  0  0  0  0  0
   12.3550  -11.7270   -3.7600 F   0  0  0  0  0  0  0  0  0  0  0  0
   13.3290  -13.4780   -2.9200 F   0  0  0  0  0  0  0  0  0  0  0  0
   14.1140  -11.4900   -2.5090 F   0  0  0  0  0  0  0  0  0  0  0  0
   10.8000  -12.6980   -1.4220 C   0  0  0  0  0  0  0  0  0  0  0  0
    6.6740  -14.4350   -0.4570 H   0  0  0  0  0  0  0  0  0  0  0  0
    5.2537  -11.8601   -2.0854 H   0  0  0  0  0  0  0  0  0  0  0  0
    2.8278  -11.3149   -2.2229 H   0  0  0  0  0  0  0  0  0  0  0  0
    1.2265  -12.3410   -0.6190 H   0  0  0  0  0  0  0  0  0  0  0  0
    2.8057  -15.9397    1.4682 H   0  0  0  0  0  0  0  0  0  0  0  0
    1.6047  -17.9516    3.1926 H   0  0  0  0  0  0  0  0  0  0  0  0
   -0.5964  -17.8323    4.6974 H   0  0  0  0  0  0  0  0  0  0  0  0
   -1.8520  -13.3870    3.7560 H   0  0  0  0  0  0  0  0  0  0  0  0
   -1.8285  -11.0655    3.5705 H   0  0  0  0  0  0  0  0  0  0  0  0
   -0.4544  -11.1778    2.4087 H   0  0  0  0  0  0  0  0  0  0  0  0
   -3.5169  -13.2528    2.0750 H   0  0  0  0  0  0  0  0  0  0  0  0
   -5.1260  -12.9703    0.1760 H   0  0  0  0  0  0  0  0  0  0  0  0
   -4.8609  -11.0148   -1.3740 H   0  0  0  0  0  0  0  0  0  0  0  0
   -3.0193   -9.4194   -0.9767 H   0  0  0  0  0  0  0  0  0  0  0  0
    4.4789  -14.4983    1.2417 H   0  0  0  0  0  0  0  0  0  0  0  0
    8.6300  -14.1590    0.0020 H   0  0  0  0  0  0  0  0  0  0  0  0
    9.7658  -11.8762    1.7173 H   0  0  0  0  0  0  0  0  0  0  0  0
   12.0226  -10.8232    1.7587 H   0  0  0  0  0  0  0  0  0  0  0  0
   13.5020  -10.9632   -0.2406 H   0  0  0  0  0  0  0  0  0  0  0  0
   10.4555  -13.2273   -2.3226 H   0  0  0  0  0  0  0  0  0  0  0  0
  1  2  2  0
  2  3  1  0
  3  4  1  0
  4  5  2  0
  5  6  1  0
  6  7  2  0
  7  8  1  0
  8  9  1  0
  9 10  2  0
 10 11  1  0
 11 12  1  0
 12 13  2  0
 13 14  1  0
 14 15  2  0
 15 16  1  0
 16 17  1  0
 17 18  1  0
 18 19  1  0
 19 20  2  0
 20 21  1  0
 21 22  2  0
 22 23  1  0
 23 24  2  0
 16 25  2  0
  8 26  2  0
  2 27  1  0
 27 28  1  0
 28 29  2  0
 29 30  1  0
 30 31  2  0
 31 32  1  0
 32 33  1  0
 33 34  1  0
 33 35  1  0
 33 36  1  0
 32 37  2  0
 26  4  1  0
 37 28  1  0
 25  9  1  0
 15 11  1  0
 24 19  1  0
  3 38  1  0
  5 39  1  0
  6 40  1  0
  7 41  1  0
 10 42  1  0
 12 43  1  0
 13 44  1  0
 17 45  1  0
 18 46  1  0
 18 47  1  0
 20 48  1  0
 21 49  1  0
 22 50  1  0
 23 51  1  0
 26 52  1  0
 27 53  1  0
 29 54  1  0
 30 55  1  0
 31 56  1  0
 37 57  1  0
M  END
>  <meeko>  (9) 
{"is_sidechain": [false], "free_energy": -8.539, "intermolecular_energy": -11.906, "internal_energy": -0.801}

$$$$
