LIB_UFELNXRWJPVQMY__M_PUB_ALL__e8__s20260927
     RDKit          3D

 69 73  0  0  0  0  0  0  0  0999 V2000
   -1.6780   -9.2110    2.6060 C   0  0  0  0  0  0  0  0  0  0  0  0
   -1.1470   -9.2370    1.2850 O   0  0  0  0  0  0  0  0  0  0  0  0
   -1.5590  -10.3920    0.5400 C   0  0  0  0  0  0  0  0  0  0  0  0
   -3.0460  -10.3270    0.1900 C   0  0  0  0  0  0  0  0  0  0  0  0
   -3.4370  -11.5810   -0.3850 O   0  0  0  0  0  0  0  0  0  0  0  0
   -2.6780  -12.6730    0.1230 C   0  0  0  0  0  0  0  0  0  0  0  0
   -3.5360  -13.7210    0.8490 C   0  0  0  0  0  0  0  0  0  0  0  0
   -3.9220  -14.7320    0.2710 O   0  0  0  0  0  0  0  0  0  0  0  0
   -3.7590  -13.3770    2.1710 N   0  0  0  0  0  0  0  0  0  0  0  0
   -4.4470  -14.1050    3.1570 C   0  0  0  0  0  0  0  0  0  0  0  0
   -3.9970  -15.3090    3.6950 C   0  0  0  0  0  0  0  0  0  0  0  0
   -4.7470  -15.9720    4.6760 C   0  0  0  0  0  0  0  0  0  0  0  0
   -5.9570  -15.4440    5.1380 C   0  0  0  0  0  0  0  0  0  0  0  0
   -6.7570  -16.1330    6.1400 C   0  0  0  0  0  0  0  0  0  0  0  0
   -6.3880  -16.5920    7.4190 C   0  0  0  0  0  0  0  0  0  0  0  0
   -7.3770  -17.1950    8.0730 N   0  0  0  0  0  0  0  0  0  0  0  0
   -8.4320  -17.1580    7.2100 N   0  0  0  0  0  0  0  0  0  0  0  0
   -9.7320  -17.6750    7.3990 C   0  0  0  0  0  0  0  0  0  0  0  0
  -10.1380  -18.3540    8.6500 C   0  0  0  0  0  0  0  0  0  0  0  0
  -10.2040  -17.6440    9.8560 C   0  0  0  0  0  0  0  0  0  0  0  0
  -10.5890  -18.2850   11.0320 C   0  0  0  0  0  0  0  0  0  0  0  0
  -10.9170  -19.6410   11.0150 C   0  0  0  0  0  0  0  0  0  0  0  0
  -10.8640  -20.3710    9.8220 C   0  0  0  0  0  0  0  0  0  0  0  0
  -11.2200  -21.7360    9.8880 N   0  0  0  0  0  0  0  0  0  0  0  0
  -12.2660  -22.3650    9.2370 C   0  0  0  0  0  0  0  0  0  0  0  0
  -13.0520  -21.8610    8.4450 O   0  0  0  0  0  0  0  0  0  0  0  0
  -12.4080  -23.8180    9.5350 C   0  0  0  0  0  0  0  0  0  0  0  0
  -12.2850  -24.7300    8.4810 C   0  0  0  0  0  0  0  0  0  0  0  0
  -12.4180  -26.0980    8.7170 C   0  0  0  0  0  0  0  0  0  0  0  0
  -12.6840  -26.5610   10.0060 C   0  0  0  0  0  0  0  0  0  0  0  0
  -12.8210  -25.6610   11.0750 C   0  0  0  0  0  0  0  0  0  0  0  0
  -13.1490  -26.1590   12.4620 C   0  0  0  0  0  0  0  0  0  0  0  0
  -12.2640  -25.7160   13.3990 F   0  0  0  0  0  0  0  0  0  0  0  0
  -13.1470  -27.5160   12.5610 F   0  0  0  0  0  0  0  0  0  0  0  0
  -14.3760  -25.7510   12.8830 F   0  0  0  0  0  0  0  0  0  0  0  0
  -12.6930  -24.2830   10.8270 C   0  0  0  0  0  0  0  0  0  0  0  0
  -10.4690  -19.7220    8.6490 C   0  0  0  0  0  0  0  0  0  0  0  0
  -10.6380  -17.5330    6.4140 C   0  0  0  0  0  0  0  0  0  0  0  0
  -10.1690  -16.8380    5.1900 C   0  0  0  0  0  0  0  0  0  0  0  0
   -8.9860  -16.3490    4.9890 N   0  0  0  0  0  0  0  0  0  0  0  0
   -8.0850  -16.5040    6.0110 C   0  0  0  0  0  0  0  0  0  0  0  0
   -6.4040  -14.2330    4.5950 C   0  0  0  0  0  0  0  0  0  0  0  0
   -5.6540  -13.5700    3.6170 C   0  0  0  0  0  0  0  0  0  0  0  0
   -0.8538   -9.2514    3.3333 H   0  0  0  0  0  0  0  0  0  0  0  0
   -2.2513   -8.2837    2.7526 H   0  0  0  0  0  0  0  0  0  0  0  0
   -2.3391  -10.0778    2.7526 H   0  0  0  0  0  0  0  0  0  0  0  0
   -0.9741  -10.4457   -0.3901 H   0  0  0  0  0  0  0  0  0  0  0  0
   -1.3873  -11.2841    1.1602 H   0  0  0  0  0  0  0  0  0  0  0  0
   -3.6330  -10.1382    1.1009 H   0  0  0  0  0  0  0  0  0  0  0  0
   -3.2276   -9.5126   -0.5268 H   0  0  0  0  0  0  0  0  0  0  0  0
   -2.1647  -13.1629   -0.7175 H   0  0  0  0  0  0  0  0  0  0  0  0
   -1.9694  -12.2644    0.8585 H   0  0  0  0  0  0  0  0  0  0  0  0
   -3.3960  -12.4620    2.4400 H   0  0  0  0  0  0  0  0  0  0  0  0
   -3.0473  -15.7418    3.3477 H   0  0  0  0  0  0  0  0  0  0  0  0
   -4.3782  -16.9225    5.0890 H   0  0  0  0  0  0  0  0  0  0  0  0
   -5.3787  -16.4642    7.8372 H   0  0  0  0  0  0  0  0  0  0  0  0
   -9.9503  -16.5738    9.8747 H   0  0  0  0  0  0  0  0  0  0  0  0
  -10.6344  -17.7209   11.9753 H   0  0  0  0  0  0  0  0  0  0  0  0
  -11.2198  -20.1406   11.9471 H   0  0  0  0  0  0  0  0  0  0  0  0
  -10.6130  -22.3140   10.4560 H   0  0  0  0  0  0  0  0  0  0  0  0
  -12.0827  -24.3666    7.4626 H   0  0  0  0  0  0  0  0  0  0  0  0
  -12.3132  -26.8121    7.8869 H   0  0  0  0  0  0  0  0  0  0  0  0
  -12.7874  -27.6412   10.1865 H   0  0  0  0  0  0  0  0  0  0  0  0
  -12.8171  -23.5653   11.6513 H   0  0  0  0  0  0  0  0  0  0  0  0
  -10.4159  -20.2902    7.7086 H   0  0  0  0  0  0  0  0  0  0  0  0
  -11.6667  -17.9104    6.5108 H   0  0  0  0  0  0  0  0  0  0  0  0
  -10.8970  -16.7269    4.3729 H   0  0  0  0  0  0  0  0  0  0  0  0
   -7.3537  -13.7987    4.9405 H   0  0  0  0  0  0  0  0  0  0  0  0
   -6.0183  -12.6171    3.2055 H   0  0  0  0  0  0  0  0  0  0  0  0
  1  2  1  0
  2  3  1  0
  3  4  1  0
  4  5  1  0
  5  6  1  0
  6  7  1  0
  7  8  2  0
  7  9  1  0
  9 10  1  0
 10 11  2  0
 11 12  1  0
 12 13  2  0
 13 14  1  0
 14 15  1  0
 15 16  2  0
 16 17  1  0
 17 18  1  0
 18 19  1  0
 19 20  2  0
 20 21  1  0
 21 22  2  0
 22 23  1  0
 23 24  1  0
 24 25  1  0
 25 26  2  0
 25 27  1  0
 27 28  2  0
 28 29  1  0
 29 30  2  0
 30 31  1  0
 31 32  1  0
 32 33  1  0
 32 34  1  0
 32 35  1  0
 31 36  2  0
 23 37  2  0
 18 38  2  0
 38 39  1  0
 39 40  2  0
 40 41  1  0
 13 42  1  0
 42 43  2  0
 43 10  1  0
 41 14  2  0
 41 17  1  0
 37 19  1  0
 36 27  1  0
  1 44  1  0
  1 45  1  0
  1 46  1  0
  3 47  1  0
  3 48  1  0
  4 49  1  0
  4 50  1  0
  6 51  1  0
  6 52  1  0
  9 53  1  0
 11 54  1  0
 12 55  1  0
 15 56  1  0
 20 57  1  0
 21 58  1  0
 22 59  1  0
 24 60  1  0
 28 61  1  0
 29 62  1  0
 30 63  1  0
 36 64  1  0
 37 65  1  0
 38 66  1  0
 39 67  1  0
 42 68  1  0
 43 69  1  0
M  END
>  <meeko>  (1) 
{"is_sidechain": [false], "free_energy": -8.635, "intermolecular_energy": -14.187, "internal_energy": -1.2}

$$$$
LIB_UFELNXRWJPVQMY__M_PUB_ALL__e8__s20260927
     RDKit          3D

 69 73  0  0  0  0  0  0  0  0999 V2000
   -4.4740  -15.0150    9.8620 C   0  0  0  0  0  0  0  0  0  0  0  0
   -3.0570  -15.1550    9.8290 O   0  0  0  0  0  0  0  0  0  0  0  0
   -2.5920  -15.8570    8.6670 C   0  0  0  0  0  0  0  0  0  0  0  0
   -2.3140  -17.3270    8.9800 C   0  0  0  0  0  0  0  0  0  0  0  0
   -0.9420  -17.4600    9.3740 O   0  0  0  0  0  0  0  0  0  0  0  0
   -0.1810  -18.2310    8.4510 C   0  0  0  0  0  0  0  0  0  0  0  0
    0.6320  -17.3730    7.4700 C   0  0  0  0  0  0  0  0  0  0  0  0
    1.7660  -16.9960    7.7500 O   0  0  0  0  0  0  0  0  0  0  0  0
   -0.0600  -17.1390    6.2940 N   0  0  0  0  0  0  0  0  0  0  0  0
    0.3730  -16.4470    5.1500 C   0  0  0  0  0  0  0  0  0  0  0  0
    0.3930  -15.0580    5.0390 C   0  0  0  0  0  0  0  0  0  0  0  0
    0.8400  -14.4470    3.8590 C   0  0  0  0  0  0  0  0  0  0  0  0
    1.2750  -15.2120    2.7710 C   0  0  0  0  0  0  0  0  0  0  0  0
    1.7210  -14.5920    1.5330 C   0  0  0  0  0  0  0  0  0  0  0  0
    2.7920  -13.7050    1.3100 C   0  0  0  0  0  0  0  0  0  0  0  0
    2.9090  -13.3210    0.0410 N   0  0  0  0  0  0  0  0  0  0  0  0
    1.8840  -13.9480   -0.6030 N   0  0  0  0  0  0  0  0  0  0  0  0
    1.5390  -13.8740   -1.9690 C   0  0  0  0  0  0  0  0  0  0  0  0
    2.3100  -13.0610   -2.9370 C   0  0  0  0  0  0  0  0  0  0  0  0
    2.3220  -11.6640   -2.8420 C   0  0  0  0  0  0  0  0  0  0  0  0
    3.0500  -10.9000   -3.7520 C   0  0  0  0  0  0  0  0  0  0  0  0
    3.7780  -11.5260   -4.7650 C   0  0  0  0  0  0  0  0  0  0  0  0
    3.7850  -12.9200   -4.8800 C   0  0  0  0  0  0  0  0  0  0  0  0
    4.5530  -13.4750   -5.9260 N   0  0  0  0  0  0  0  0  0  0  0  0
    5.9310  -13.5850   -5.9920 C   0  0  0  0  0  0  0  0  0  0  0  0
    6.7390  -13.2610   -5.1310 O   0  0  0  0  0  0  0  0  0  0  0  0
    6.4530  -14.1900   -7.2500 C   0  0  0  0  0  0  0  0  0  0  0  0
    7.0360  -15.4600   -7.1870 C   0  0  0  0  0  0  0  0  0  0  0  0
    7.5430  -16.0580   -8.3400 C   0  0  0  0  0  0  0  0  0  0  0  0
    7.4770  -15.3860   -9.5610 C   0  0  0  0  0  0  0  0  0  0  0  0
    6.9050  -14.1060   -9.6430 C   0  0  0  0  0  0  0  0  0  0  0  0
    6.8710  -13.3620  -10.9560 C   0  0  0  0  0  0  0  0  0  0  0  0
    5.7560  -13.6450  -11.6880 F   0  0  0  0  0  0  0  0  0  0  0  0
    7.9280  -13.6490  -11.7650 F   0  0  0  0  0  0  0  0  0  0  0  0
    6.8770  -12.0130  -10.7890 F   0  0  0  0  0  0  0  0  0  0  0  0
    6.4030  -13.5070   -8.4740 C   0  0  0  0  0  0  0  0  0  0  0  0
    3.0460  -13.6770   -3.9660 C   0  0  0  0  0  0  0  0  0  0  0  0
    0.4800  -14.5790   -2.4120 C   0  0  0  0  0  0  0  0  0  0  0  0
   -0.2450  -15.3770   -1.3940 C   0  0  0  0  0  0  0  0  0  0  0  0
    0.0510  -15.4690   -0.1350 N   0  0  0  0  0  0  0  0  0  0  0  0
    1.1360  -14.7450    0.2860 C   0  0  0  0  0  0  0  0  0  0  0  0
    1.2540  -16.6070    2.8890 C   0  0  0  0  0  0  0  0  0  0  0  0
    0.8100  -17.2160    4.0680 C   0  0  0  0  0  0  0  0  0  0  0  0
   -4.8149  -14.9813   10.9073 H   0  0  0  0  0  0  0  0  0  0  0  0
   -4.7624  -14.0840    9.3521 H   0  0  0  0  0  0  0  0  0  0  0  0
   -4.9391  -15.8716    9.3521 H   0  0  0  0  0  0  0  0  0  0  0  0
   -3.3594  -15.7970    7.8812 H   0  0  0  0  0  0  0  0  0  0  0  0
   -1.6541  -15.3902    8.3318 H   0  0  0  0  0  0  0  0  0  0  0  0
   -2.9685  -17.6617    9.7983 H   0  0  0  0  0  0  0  0  0  0  0  0
   -2.5108  -17.9439    8.0908 H   0  0  0  0  0  0  0  0  0  0  0  0
    0.5144  -18.8678    9.0175 H   0  0  0  0  0  0  0  0  0  0  0  0
   -0.8920  -18.8225    7.8555 H   0  0  0  0  0  0  0  0  0  0  0  0
   -1.0160  -17.4950    6.2860 H   0  0  0  0  0  0  0  0  0  0  0  0
    0.0560  -14.4373    5.8823 H   0  0  0  0  0  0  0  0  0  0  0  0
    0.8489  -13.3494    3.7873 H   0  0  0  0  0  0  0  0  0  0  0  0
    3.4671  -13.3624    2.1081 H   0  0  0  0  0  0  0  0  0  0  0  0
    1.7527  -11.1661   -2.0433 H   0  0  0  0  0  0  0  0  0  0  0  0
    3.0509   -9.8029   -3.6719 H   0  0  0  0  0  0  0  0  0  0  0  0
    4.3516  -10.9174   -5.4796 H   0  0  0  0  0  0  0  0  0  0  0  0
    4.0200  -13.8600   -6.6960 H   0  0  0  0  0  0  0  0  0  0  0  0
    7.0947  -15.9889   -6.2243 H   0  0  0  0  0  0  0  0  0  0  0  0
    7.9950  -17.0595   -8.2870 H   0  0  0  0  0  0  0  0  0  0  0  0
    7.8767  -15.8633  -10.4679 H   0  0  0  0  0  0  0  0  0  0  0  0
    5.9688  -12.4974   -8.5197 H   0  0  0  0  0  0  0  0  0  0  0  0
    3.0398  -14.7736   -4.0528 H   0  0  0  0  0  0  0  0  0  0  0  0
    0.1710  -14.5636   -3.4676 H   0  0  0  0  0  0  0  0  0  0  0  0
   -1.1197  -15.9468   -1.7409 H   0  0  0  0  0  0  0  0  0  0  0  0
    1.5897  -17.2301    2.0469 H   0  0  0  0  0  0  0  0  0  0  0  0
    0.8049  -18.3134    4.1441 H   0  0  0  0  0  0  0  0  0  0  0  0
  1  2  1  0
  2  3  1  0
  3  4  1  0
  4  5  1  0
  5  6  1  0
  6  7  1  0
  7  8  2  0
  7  9  1  0
  9 10  1  0
 10 11  2  0
 11 12  1  0
 12 13  2  0
 13 14  1  0
 14 15  1  0
 15 16  2  0
 16 17  1  0
 17 18  1  0
 18 19  1  0
 19 20  2  0
 20 21  1  0
 21 22  2  0
 22 23  1  0
 23 24  1  0
 24 25  1  0
 25 26  2  0
 25 27  1  0
 27 28  2  0
 28 29  1  0
 29 30  2  0
 30 31  1  0
 31 32  1  0
 32 33  1  0
 32 34  1  0
 32 35  1  0
 31 36  2  0
 23 37  2  0
 18 38  2  0
 38 39  1  0
 39 40  2  0
 40 41  1  0
 13 42  1  0
 42 43  2  0
 43 10  1  0
 41 14  2  0
 41 17  1  0
 37 19  1  0
 36 27  1  0
  1 44  1  0
  1 45  1  0
  1 46  1  0
  3 47  1  0
  3 48  1  0
  4 49  1  0
  4 50  1  0
  6 51  1  0
  6 52  1  0
  9 53  1  0
 11 54  1  0
 12 55  1  0
 15 56  1  0
 20 57  1  0
 21 58  1  0
 22 59  1  0
 24 60  1  0
 28 61  1  0
 29 62  1  0
 30 63  1  0
 36 64  1  0
 37 65  1  0
 38 66  1  0
 39 67  1  0
 42 68  1  0
 43 69  1  0
M  END
>  <meeko>  (2) 
{"is_sidechain": [false], "free_energy": -8.515, "intermolecular_energy": -13.952, "internal_energy": -1.239}

$$$$
LIB_UFELNXRWJPVQMY__M_PUB_ALL__e8__s20260927
     RDKit          3D

 69 73  0  0  0  0  0  0  0  0999 V2000
   12.0610  -14.2540   -2.9040 C   0  0  0  0  0  0  0  0  0  0  0  0
   11.6500  -12.9050   -3.1030 O   0  0  0  0  0  0  0  0  0  0  0  0
   12.7080  -12.0650   -3.5860 C   0  0  0  0  0  0  0  0  0  0  0  0
   13.6520  -11.6530   -2.4550 C   0  0  0  0  0  0  0  0  0  0  0  0
   12.9100  -10.8860   -1.4980 O   0  0  0  0  0  0  0  0  0  0  0  0
   13.0360  -11.3960   -0.1740 C   0  0  0  0  0  0  0  0  0  0  0  0
   11.8740  -12.3120    0.2350 C   0  0  0  0  0  0  0  0  0  0  0  0
   12.0650  -13.3000    0.9390 O   0  0  0  0  0  0  0  0  0  0  0  0
   10.6620  -11.8600   -0.2580 N   0  0  0  0  0  0  0  0  0  0  0  0
    9.3810  -12.3990   -0.0510 C   0  0  0  0  0  0  0  0  0  0  0  0
    8.4940  -11.9500    0.9250 C   0  0  0  0  0  0  0  0  0  0  0  0
    7.2320  -12.5450    1.0650 C   0  0  0  0  0  0  0  0  0  0  0  0
    6.8350  -13.5970    0.2320 C   0  0  0  0  0  0  0  0  0  0  0  0
    5.5370  -14.2380    0.3810 C   0  0  0  0  0  0  0  0  0  0  0  0
    5.2260  -15.6040    0.5340 C   0  0  0  0  0  0  0  0  0  0  0  0
    3.9200  -15.8430    0.6340 N   0  0  0  0  0  0  0  0  0  0  0  0
    3.3370  -14.6150    0.5280 N   0  0  0  0  0  0  0  0  0  0  0  0
    1.9620  -14.2980    0.5540 C   0  0  0  0  0  0  0  0  0  0  0  0
    0.9160  -15.3320    0.7260 C   0  0  0  0  0  0  0  0  0  0  0  0
    0.8050  -16.3900   -0.1840 C   0  0  0  0  0  0  0  0  0  0  0  0
   -0.1790  -17.3630   -0.0190 C   0  0  0  0  0  0  0  0  0  0  0  0
   -1.0600  -17.2900    1.0610 C   0  0  0  0  0  0  0  0  0  0  0  0
   -0.9680  -16.2450    1.9860 C   0  0  0  0  0  0  0  0  0  0  0  0
   -1.8910  -16.2490    3.0550 N   0  0  0  0  0  0  0  0  0  0  0  0
   -1.6570  -16.6150    4.3680 C   0  0  0  0  0  0  0  0  0  0  0  0
   -0.5890  -16.9620    4.8580 O   0  0  0  0  0  0  0  0  0  0  0  0
   -2.8470  -16.5450    5.2610 C   0  0  0  0  0  0  0  0  0  0  0  0
   -4.1190  -16.5600    4.6790 C   0  0  0  0  0  0  0  0  0  0  0  0
   -5.2580  -16.4890    5.4800 C   0  0  0  0  0  0  0  0  0  0  0  0
   -5.1330  -16.3940    6.8660 C   0  0  0  0  0  0  0  0  0  0  0  0
   -3.8650  -16.3660    7.4680 C   0  0  0  0  0  0  0  0  0  0  0  0
   -3.7270  -16.2210    8.9650 C   0  0  0  0  0  0  0  0  0  0  0  0
   -4.9280  -16.0370    9.5840 F   0  0  0  0  0  0  0  0  0  0  0  0
   -2.9540  -15.1640    9.3340 F   0  0  0  0  0  0  0  0  0  0  0  0
   -3.1720  -17.3180    9.5440 F   0  0  0  0  0  0  0  0  0  0  0  0
   -2.7200  -16.4300    6.6530 C   0  0  0  0  0  0  0  0  0  0  0  0
    0.0180  -15.2700    1.8080 C   0  0  0  0  0  0  0  0  0  0  0  0
    1.5890  -13.0110    0.4330 C   0  0  0  0  0  0  0  0  0  0  0  0
    2.6850  -12.0250    0.2700 C   0  0  0  0  0  0  0  0  0  0  0  0
    3.9550  -12.2850    0.2480 N   0  0  0  0  0  0  0  0  0  0  0  0
    4.3060  -13.6040    0.3770 C   0  0  0  0  0  0  0  0  0  0  0  0
    7.7300  -14.0430   -0.7480 C   0  0  0  0  0  0  0  0  0  0  0  0
    8.9880  -13.4470   -0.8880 C   0  0  0  0  0  0  0  0  0  0  0  0
   12.1246  -14.4627   -1.8258 H   0  0  0  0  0  0  0  0  0  0  0  0
   11.3288  -14.9324   -3.3662 H   0  0  0  0  0  0  0  0  0  0  0  0
   13.0471  -14.4089   -3.3662 H   0  0  0  0  0  0  0  0  0  0  0  0
   13.2806  -12.6131   -4.3487 H   0  0  0  0  0  0  0  0  0  0  0  0
   12.2610  -11.1553   -4.0134 H   0  0  0  0  0  0  0  0  0  0  0  0
   14.0647  -12.5505   -1.9711 H   0  0  0  0  0  0  0  0  0  0  0  0
   14.4812  -11.0524   -2.8570 H   0  0  0  0  0  0  0  0  0  0  0  0
   13.9727  -11.9690   -0.1078 H   0  0  0  0  0  0  0  0  0  0  0  0
   13.0291  -10.5345    0.5099 H   0  0  0  0  0  0  0  0  0  0  0  0
   10.7300  -11.0480   -0.8720 H   0  0  0  0  0  0  0  0  0  0  0  0
    8.7855  -11.1236    1.5899 H   0  0  0  0  0  0  0  0  0  0  0  0
    6.5438  -12.1793    1.8413 H   0  0  0  0  0  0  0  0  0  0  0  0
    5.9885  -16.3961    0.5676 H   0  0  0  0  0  0  0  0  0  0  0  0
    1.4991  -16.4538   -1.0350 H   0  0  0  0  0  0  0  0  0  0  0  0
   -0.2614  -18.1892   -0.7405 H   0  0  0  0  0  0  0  0  0  0  0  0
   -1.8340  -18.0616    1.1859 H   0  0  0  0  0  0  0  0  0  0  0  0
   -2.8180  -15.9140    2.8250 H   0  0  0  0  0  0  0  0  0  0  0  0
   -4.2209  -16.6280    3.5858 H   0  0  0  0  0  0  0  0  0  0  0  0
   -6.2563  -16.5079    5.0184 H   0  0  0  0  0  0  0  0  0  0  0  0
   -6.0355  -16.3406    7.4926 H   0  0  0  0  0  0  0  0  0  0  0  0
   -1.7202  -16.3896    7.1098 H   0  0  0  0  0  0  0  0  0  0  0  0
    0.0933  -14.4400    2.5260 H   0  0  0  0  0  0  0  0  0  0  0  0
    0.5319  -12.7074    0.4538 H   0  0  0  0  0  0  0  0  0  0  0  0
    2.3919  -10.9708    0.1568 H   0  0  0  0  0  0  0  0  0  0  0  0
    7.4414  -14.8696   -1.4140 H   0  0  0  0  0  0  0  0  0  0  0  0
    9.6763  -13.8077   -1.6665 H   0  0  0  0  0  0  0  0  0  0  0  0
  1  2  1  0
  2  3  1  0
  3  4  1  0
  4  5  1  0
  5  6  1  0
  6  7  1  0
  7  8  2  0
  7  9  1  0
  9 10  1  0
 10 11  2  0
 11 12  1  0
 12 13  2  0
 13 14  1  0
 14 15  1  0
 15 16  2  0
 16 17  1  0
 17 18  1  0
 18 19  1  0
 19 20  2  0
 20 21  1  0
 21 22  2  0
 22 23  1  0
 23 24  1  0
 24 25  1  0
 25 26  2  0
 25 27  1  0
 27 28  2  0
 28 29  1  0
 29 30  2  0
 30 31  1  0
 31 32  1  0
 32 33  1  0
 32 34  1  0
 32 35  1  0
 31 36  2  0
 23 37  2  0
 18 38  2  0
 38 39  1  0
 39 40  2  0
 40 41  1  0
 13 42  1  0
 42 43  2  0
 43 10  1  0
 41 14  2  0
 41 17  1  0
 37 19  1  0
 36 27  1  0
  1 44  1  0
  1 45  1  0
  1 46  1  0
  3 47  1  0
  3 48  1  0
  4 49  1  0
  4 50  1  0
  6 51  1  0
  6 52  1  0
  9 53  1  0
 11 54  1  0
 12 55  1  0
 15 56  1  0
 20 57  1  0
 21 58  1  0
 22 59  1  0
 24 60  1  0
 28 61  1  0
 29 62  1  0
 30 63  1  0
 36 64  1  0
 37 65  1  0
 38 66  1  0
 39 67  1  0
 42 68  1  0
 43 69  1  0
M  END
>  <meeko>  (3) 
{"is_sidechain": [false], "free_energy": -8.289, "intermolecular_energy": -13.118, "internal_energy": -1.701}

$$$$
LIB_UFELNXRWJPVQMY__M_PUB_ALL__e8__s20260927
     RDKit          3D

 69 73  0  0  0  0  0  0  0  0999 V2000
   -0.7220  -17.3280    1.2040 C   0  0  0  0  0  0  0  0  0  0  0  0
   -0.3210  -16.1240    0.5580 O   0  0  0  0  0  0  0  0  0  0  0  0
    0.0430  -15.0890    1.4830 C   0  0  0  0  0  0  0  0  0  0  0  0
   -0.0650  -13.7050    0.8410 C   0  0  0  0  0  0  0  0  0  0  0  0
   -1.0320  -13.7660   -0.2160 O   0  0  0  0  0  0  0  0  0  0  0  0
   -2.2650  -13.1470    0.1360 C   0  0  0  0  0  0  0  0  0  0  0  0
   -3.2410  -14.0990    0.8430 C   0  0  0  0  0  0  0  0  0  0  0  0
   -3.7580  -15.0350    0.2410 O   0  0  0  0  0  0  0  0  0  0  0  0
   -3.4070  -13.7700    2.1770 N   0  0  0  0  0  0  0  0  0  0  0  0
   -4.1730  -14.4350    3.1500 C   0  0  0  0  0  0  0  0  0  0  0  0
   -3.8120  -15.6470    3.7330 C   0  0  0  0  0  0  0  0  0  0  0  0
   -4.6360  -16.2440    4.6980 C   0  0  0  0  0  0  0  0  0  0  0  0
   -5.8330  -15.6400    5.0970 C   0  0  0  0  0  0  0  0  0  0  0  0
   -6.7090  -16.2600    6.0800 C   0  0  0  0  0  0  0  0  0  0  0  0
   -6.4130  -16.7230    7.3770 C   0  0  0  0  0  0  0  0  0  0  0  0
   -7.4610  -17.2490    8.0050 N   0  0  0  0  0  0  0  0  0  0  0  0
   -8.4820  -17.1560    7.1070 N   0  0  0  0  0  0  0  0  0  0  0  0
   -9.8190  -17.5830    7.2590 C   0  0  0  0  0  0  0  0  0  0  0  0
  -10.3100  -18.2150    8.5040 C   0  0  0  0  0  0  0  0  0  0  0  0
  -10.4910  -17.4520    9.6650 C   0  0  0  0  0  0  0  0  0  0  0  0
  -10.9560  -18.0490   10.8360 C   0  0  0  0  0  0  0  0  0  0  0  0
  -11.2490  -19.4130   10.8580 C   0  0  0  0  0  0  0  0  0  0  0  0
  -11.0810  -20.1960    9.7100 C   0  0  0  0  0  0  0  0  0  0  0  0
  -11.4080  -21.5650    9.8130 N   0  0  0  0  0  0  0  0  0  0  0  0
  -12.4550  -22.2290    9.1990 C   0  0  0  0  0  0  0  0  0  0  0  0
  -13.2680  -21.7570    8.4140 O   0  0  0  0  0  0  0  0  0  0  0  0
  -12.5610  -23.6770    9.5310 C   0  0  0  0  0  0  0  0  0  0  0  0
  -12.3170  -24.6130    8.5200 C   0  0  0  0  0  0  0  0  0  0  0  0
  -12.4130  -25.9780    8.7880 C   0  0  0  0  0  0  0  0  0  0  0  0
  -12.7630  -26.4150   10.0650 C   0  0  0  0  0  0  0  0  0  0  0  0
  -13.0230  -25.4920   11.0910 C   0  0  0  0  0  0  0  0  0  0  0  0
  -13.4420  -25.9640   12.4630 C   0  0  0  0  0  0  0  0  0  0  0  0
  -13.1240  -25.0700   13.4420 F   0  0  0  0  0  0  0  0  0  0  0  0
  -12.8590  -27.1380   12.8280 F   0  0  0  0  0  0  0  0  0  0  0  0
  -14.7840  -26.1600   12.5560 F   0  0  0  0  0  0  0  0  0  0  0  0
  -12.9310  -24.1170   10.8110 C   0  0  0  0  0  0  0  0  0  0  0  0
  -10.6070  -19.5900    8.5430 C   0  0  0  0  0  0  0  0  0  0  0  0
  -10.6810  -17.3970    6.2420 C   0  0  0  0  0  0  0  0  0  0  0  0
  -10.1280  -16.7540    5.0260 C   0  0  0  0  0  0  0  0  0  0  0  0
   -8.9080  -16.3470    4.8580 N   0  0  0  0  0  0  0  0  0  0  0  0
   -8.0540  -16.5450    5.9120 C   0  0  0  0  0  0  0  0  0  0  0  0
   -6.1910  -14.4210    4.5080 C   0  0  0  0  0  0  0  0  0  0  0  0
   -5.3670  -13.8250    3.5470 C   0  0  0  0  0  0  0  0  0  0  0  0
   -0.6766  -17.1916    2.2946 H   0  0  0  0  0  0  0  0  0  0  0  0
   -1.7517  -17.5774    0.9082 H   0  0  0  0  0  0  0  0  0  0  0  0
   -0.0475  -18.1450    0.9082 H   0  0  0  0  0  0  0  0  0  0  0  0
   -0.6288  -15.1336    2.3529 H   0  0  0  0  0  0  0  0  0  0  0  0
    1.0875  -15.2488    1.7886 H   0  0  0  0  0  0  0  0  0  0  0  0
   -0.3855  -12.9707    1.5947 H   0  0  0  0  0  0  0  0  0  0  0  0
    0.9124  -13.3994    0.4394 H   0  0  0  0  0  0  0  0  0  0  0  0
   -2.0526  -12.3022    0.8077 H   0  0  0  0  0  0  0  0  0  0  0  0
   -2.7455  -12.8219   -0.7986 H   0  0  0  0  0  0  0  0  0  0  0  0
   -2.9290  -12.9170    2.4670 H   0  0  0  0  0  0  0  0  0  0  0  0
   -2.8746  -16.1392    3.4347 H   0  0  0  0  0  0  0  0  0  0  0  0
   -4.3365  -17.2020    5.1481 H   0  0  0  0  0  0  0  0  0  0  0  0
   -5.4116  -16.6560    7.8272 H   0  0  0  0  0  0  0  0  0  0  0  0
  -10.2649  -16.3756    9.6526 H   0  0  0  0  0  0  0  0  0  0  0  0
  -11.0921  -17.4435   11.7442 H   0  0  0  0  0  0  0  0  0  0  0  0
  -11.6152  -19.8771   11.7856 H   0  0  0  0  0  0  0  0  0  0  0  0
  -10.7770  -22.1180   10.3790 H   0  0  0  0  0  0  0  0  0  0  0  0
  -12.0484  -24.2707    7.5097 H   0  0  0  0  0  0  0  0  0  0  0  0
  -12.2126  -26.7102    7.9919 H   0  0  0  0  0  0  0  0  0  0  0  0
  -12.8362  -27.4931   10.2708 H   0  0  0  0  0  0  0  0  0  0  0  0
  -13.1503  -23.3823   11.5998 H   0  0  0  0  0  0  0  0  0  0  0  0
  -10.4635  -20.1992    7.6384 H   0  0  0  0  0  0  0  0  0  0  0  0
  -11.7350  -17.7044    6.3093 H   0  0  0  0  0  0  0  0  0  0  0  0
  -10.8202  -16.6078    4.1837 H   0  0  0  0  0  0  0  0  0  0  0  0
   -7.1286  -13.9275    4.8036 H   0  0  0  0  0  0  0  0  0  0  0  0
   -5.6620  -12.8650    3.0984 H   0  0  0  0  0  0  0  0  0  0  0  0
  1  2  1  0
  2  3  1  0
  3  4  1  0
  4  5  1  0
  5  6  1  0
  6  7  1  0
  7  8  2  0
  7  9  1  0
  9 10  1  0
 10 11  2  0
 11 12  1  0
 12 13  2  0
 13 14  1  0
 14 15  1  0
 15 16  2  0
 16 17  1  0
 17 18  1  0
 18 19  1  0
 19 20  2  0
 20 21  1  0
 21 22  2  0
 22 23  1  0
 23 24  1  0
 24 25  1  0
 25 26  2  0
 25 27  1  0
 27 28  2  0
 28 29  1  0
 29 30  2  0
 30 31  1  0
 31 32  1  0
 32 33  1  0
 32 34  1  0
 32 35  1  0
 31 36  2  0
 23 37  2  0
 18 38  2  0
 38 39  1  0
 39 40  2  0
 40 41  1  0
 13 42  1  0
 42 43  2  0
 43 10  1  0
 41 14  2  0
 41 17  1  0
 37 19  1  0
 36 27  1  0
  1 44  1  0
  1 45  1  0
  1 46  1  0
  3 47  1  0
  3 48  1  0
  4 49  1  0
  4 50  1  0
  6 51  1  0
  6 52  1  0
  9 53  1  0
 11 54  1  0
 12 55  1  0
 15 56  1  0
 20 57  1  0
 21 58  1  0
 22 59  1  0
 24 60  1  0
 28 61  1  0
 29 62  1  0
 30 63  1  0
 36 64  1  0
 37 65  1  0
 38 66  1  0
 39 67  1  0
 42 68  1  0
 43 69  1  0
M  END
>  <meeko>  (4) 
{"is_sidechain": [false], "free_energy": -8.216, "intermolecular_energy": -13.317, "internal_energy": -1.382}

$$$$
LIB_UFELNXRWJPVQMY__M_PUB_ALL__e8__s20260927
     RDKit          3D

 69 73  0  0  0  0  0  0  0  0999 V2000
   21.3180  -15.9570  -13.6050 C   0  0  0  0  0  0  0  0  0  0  0  0
   21.0900  -17.3090  -13.2210 O   0  0  0  0  0  0  0  0  0  0  0  0
   20.5650  -18.1120  -14.2890 C   0  0  0  0  0  0  0  0  0  0  0  0
   19.0730  -18.3860  -14.0980 C   0  0  0  0  0  0  0  0  0  0  0  0
   18.8050  -18.4950  -12.6940 O   0  0  0  0  0  0  0  0  0  0  0  0
   17.4340  -18.2700  -12.3810 C   0  0  0  0  0  0  0  0  0  0  0  0
   17.2220  -17.6670  -10.9850 C   0  0  0  0  0  0  0  0  0  0  0  0
   18.1700  -17.4700  -10.2310 O   0  0  0  0  0  0  0  0  0  0  0  0
   15.8890  -17.3760  -10.7460 N   0  0  0  0  0  0  0  0  0  0  0  0
   15.3180  -16.7720   -9.6130 C   0  0  0  0  0  0  0  0  0  0  0  0
   15.9140  -15.7360   -8.8970 C   0  0  0  0  0  0  0  0  0  0  0  0
   15.2750  -15.1900   -7.7750 C   0  0  0  0  0  0  0  0  0  0  0  0
   14.0310  -15.6670   -7.3510 C   0  0  0  0  0  0  0  0  0  0  0  0
   13.3670  -15.1240   -6.1750 C   0  0  0  0  0  0  0  0  0  0  0  0
   12.7030  -13.8920   -6.0100 C   0  0  0  0  0  0  0  0  0  0  0  0
   12.2150  -13.7120   -4.7850 N   0  0  0  0  0  0  0  0  0  0  0  0
   12.5700  -14.8390   -4.1050 N   0  0  0  0  0  0  0  0  0  0  0  0
   12.3130  -15.1590   -2.7540 C   0  0  0  0  0  0  0  0  0  0  0  0
   11.5610  -14.2530   -1.8560 C   0  0  0  0  0  0  0  0  0  0  0  0
   12.2090  -13.5990   -0.8000 C   0  0  0  0  0  0  0  0  0  0  0  0
   11.5000  -12.7450    0.0420 C   0  0  0  0  0  0  0  0  0  0  0  0
   10.1370  -12.5310   -0.1650 C   0  0  0  0  0  0  0  0  0  0  0  0
    9.4670  -13.1690   -1.2140 C   0  0  0  0  0  0  0  0  0  0  0  0
    8.0900  -12.8940   -1.3610 N   0  0  0  0  0  0  0  0  0  0  0  0
    7.4970  -12.0210   -2.2550 C   0  0  0  0  0  0  0  0  0  0  0  0
    8.0560  -11.3560   -3.1180 O   0  0  0  0  0  0  0  0  0  0  0  0
    6.0150  -11.9190   -2.1440 C   0  0  0  0  0  0  0  0  0  0  0  0
    5.4030  -12.3570   -0.9640 C   0  0  0  0  0  0  0  0  0  0  0  0
    4.0180  -12.2860   -0.8240 C   0  0  0  0  0  0  0  0  0  0  0  0
    3.2350  -11.7850   -1.8650 C   0  0  0  0  0  0  0  0  0  0  0  0
    3.8290  -11.3510   -3.0610 C   0  0  0  0  0  0  0  0  0  0  0  0
    2.9800  -10.8490   -4.2030 C   0  0  0  0  0  0  0  0  0  0  0  0
    2.3590   -9.6700   -3.9130 F   0  0  0  0  0  0  0  0  0  0  0  0
    1.9900  -11.7130   -4.5580 F   0  0  0  0  0  0  0  0  0  0  0  0
    3.7070  -10.6220   -5.3300 F   0  0  0  0  0  0  0  0  0  0  0  0
    5.2270  -11.4330   -3.1980 C   0  0  0  0  0  0  0  0  0  0  0  0
   10.1850  -14.0300   -2.0500 C   0  0  0  0  0  0  0  0  0  0  0  0
   12.7530  -16.3350   -2.2690 C   0  0  0  0  0  0  0  0  0  0  0  0
   13.4930  -17.1980   -3.2210 C   0  0  0  0  0  0  0  0  0  0  0  0
   13.7400  -16.9340   -4.4660 N   0  0  0  0  0  0  0  0  0  0  0  0
   13.2760  -15.7320   -4.9340 C   0  0  0  0  0  0  0  0  0  0  0  0
   13.4360  -16.7070   -8.0750 C   0  0  0  0  0  0  0  0  0  0  0  0
   14.0730  -17.2510   -9.1960 C   0  0  0  0  0  0  0  0  0  0  0  0
   21.4232  -15.3330  -12.7052 H   0  0  0  0  0  0  0  0  0  0  0  0
   22.2391  -15.8961  -14.2032 H   0  0  0  0  0  0  0  0  0  0  0  0
   20.4678  -15.5974  -14.2032 H   0  0  0  0  0  0  0  0  0  0  0  0
   20.7127  -17.5819  -15.2415 H   0  0  0  0  0  0  0  0  0  0  0  0
   21.0967  -19.0750  -14.2923 H   0  0  0  0  0  0  0  0  0  0  0  0
   18.4866  -17.5587  -14.5242 H   0  0  0  0  0  0  0  0  0  0  0  0
   18.7937  -19.3198  -14.6079 H   0  0  0  0  0  0  0  0  0  0  0  0
   17.0140  -17.5795  -13.1273 H   0  0  0  0  0  0  0  0  0  0  0  0
   16.9316  -19.2485  -12.3935 H   0  0  0  0  0  0  0  0  0  0  0  0
   15.2510  -17.6720  -11.4850 H   0  0  0  0  0  0  0  0  0  0  0  0
   16.8917  -15.3442   -9.2140 H   0  0  0  0  0  0  0  0  0  0  0  0
   15.7598  -14.3736   -7.2196 H   0  0  0  0  0  0  0  0  0  0  0  0
   12.5982  -13.1507   -6.8159 H   0  0  0  0  0  0  0  0  0  0  0  0
   13.2844  -13.7608   -0.6346 H   0  0  0  0  0  0  0  0  0  0  0  0
   12.0157  -12.2387    0.8713 H   0  0  0  0  0  0  0  0  0  0  0  0
    9.5841  -11.8542    0.5030 H   0  0  0  0  0  0  0  0  0  0  0  0
    7.4770  -13.4260   -0.7570 H   0  0  0  0  0  0  0  0  0  0  0  0
    6.0170  -12.7586   -0.1444 H   0  0  0  0  0  0  0  0  0  0  0  0
    3.5417  -12.6251    0.1078 H   0  0  0  0  0  0  0  0  0  0  0  0
    2.1427  -11.7296   -1.7475 H   0  0  0  0  0  0  0  0  0  0  0  0
    5.7045  -11.1144   -4.1364 H   0  0  0  0  0  0  0  0  0  0  0  0
    9.6653  -14.5418   -2.8734 H   0  0  0  0  0  0  0  0  0  0  0  0
   12.5740  -16.6382   -1.2269 H   0  0  0  0  0  0  0  0  0  0  0  0
   13.8692  -18.1560   -2.8329 H   0  0  0  0  0  0  0  0  0  0  0  0
   12.4583  -17.1004   -7.7597 H   0  0  0  0  0  0  0  0  0  0  0  0
   13.5883  -18.0648   -9.7553 H   0  0  0  0  0  0  0  0  0  0  0  0
  1  2  1  0
  2  3  1  0
  3  4  1  0
  4  5  1  0
  5  6  1  0
  6  7  1  0
  7  8  2  0
  7  9  1  0
  9 10  1  0
 10 11  2  0
 11 12  1  0
 12 13  2  0
 13 14  1  0
 14 15  1  0
 15 16  2  0
 16 17  1  0
 17 18  1  0
 18 19  1  0
 19 20  2  0
 20 21  1  0
 21 22  2  0
 22 23  1  0
 23 24  1  0
 24 25  1  0
 25 26  2  0
 25 27  1  0
 27 28  2  0
 28 29  1  0
 29 30  2  0
 30 31  1  0
 31 32  1  0
 32 33  1  0
 32 34  1  0
 32 35  1  0
 31 36  2  0
 23 37  2  0
 18 38  2  0
 38 39  1  0
 39 40  2  0
 40 41  1  0
 13 42  1  0
 42 43  2  0
 43 10  1  0
 41 14  2  0
 41 17  1  0
 37 19  1  0
 36 27  1  0
  1 44  1  0
  1 45  1  0
  1 46  1  0
  3 47  1  0
  3 48  1  0
  4 49  1  0
  4 50  1  0
  6 51  1  0
  6 52  1  0
  9 53  1  0
 11 54  1  0
 12 55  1  0
 15 56  1  0
 20 57  1  0
 21 58  1  0
 22 59  1  0
 24 60  1  0
 28 61  1  0
 29 62  1  0
 30 63  1  0
 36 64  1  0
 37 65  1  0
 38 66  1  0
 39 67  1  0
 42 68  1  0
 43 69  1  0
M  END
>  <meeko>  (5) 
{"is_sidechain": [false], "free_energy": -8.083, "intermolecular_energy": -13.325, "internal_energy": -1.157}

$$$$
LIB_UFELNXRWJPVQMY__M_PUB_ALL__e8__s20260927
     RDKit          3D

 69 73  0  0  0  0  0  0  0  0999 V2000
   12.2600  -14.5550   -2.8050 C   0  0  0  0  0  0  0  0  0  0  0  0
   11.7390  -13.3280   -3.3040 O   0  0  0  0  0  0  0  0  0  0  0  0
   12.7340  -12.5210   -3.9510 C   0  0  0  0  0  0  0  0  0  0  0  0
   13.6640  -11.8620   -2.9320 C   0  0  0  0  0  0  0  0  0  0  0  0
   12.8760  -11.0540   -2.0490 O   0  0  0  0  0  0  0  0  0  0  0  0
   13.1200  -11.3470   -0.6770 C   0  0  0  0  0  0  0  0  0  0  0  0
   12.0100  -12.1880   -0.0300 C   0  0  0  0  0  0  0  0  0  0  0  0
   12.2620  -12.9800    0.8730 O   0  0  0  0  0  0  0  0  0  0  0  0
   10.7680  -11.9060   -0.5720 N   0  0  0  0  0  0  0  0  0  0  0  0
    9.5170  -12.4310   -0.2040 C   0  0  0  0  0  0  0  0  0  0  0  0
    8.7100  -11.8960    0.7980 C   0  0  0  0  0  0  0  0  0  0  0  0
    7.4740  -12.4840    1.1030 C   0  0  0  0  0  0  0  0  0  0  0  0
    7.0230  -13.6130    0.4120 C   0  0  0  0  0  0  0  0  0  0  0  0
    5.7530  -14.2470    0.7330 C   0  0  0  0  0  0  0  0  0  0  0  0
    5.4980  -15.5320    1.2500 C   0  0  0  0  0  0  0  0  0  0  0  0
    4.2040  -15.7920    1.4160 N   0  0  0  0  0  0  0  0  0  0  0  0
    3.5700  -14.6640    0.9850 N   0  0  0  0  0  0  0  0  0  0  0  0
    2.1820  -14.4110    0.9300 C   0  0  0  0  0  0  0  0  0  0  0  0
    1.1790  -15.4040    1.3780 C   0  0  0  0  0  0  0  0  0  0  0  0
    0.4610  -16.1610    0.4440 C   0  0  0  0  0  0  0  0  0  0  0  0
   -0.4810  -17.0970    0.8680 C   0  0  0  0  0  0  0  0  0  0  0  0
   -0.7110  -17.2890    2.2310 C   0  0  0  0  0  0  0  0  0  0  0  0
   -0.0040  -16.5480    3.1840 C   0  0  0  0  0  0  0  0  0  0  0  0
   -0.2890  -16.8080    4.5420 N   0  0  0  0  0  0  0  0  0  0  0  0
    0.6000  -17.1910    5.5310 C   0  0  0  0  0  0  0  0  0  0  0  0
    1.8110  -17.3320    5.4190 O   0  0  0  0  0  0  0  0  0  0  0  0
   -0.0120  -17.4260    6.8690 C   0  0  0  0  0  0  0  0  0  0  0  0
   -1.4030  -17.3350    6.9910 C   0  0  0  0  0  0  0  0  0  0  0  0
   -2.0140  -17.5410    8.2270 C   0  0  0  0  0  0  0  0  0  0  0  0
   -1.2380  -17.8300    9.3500 C   0  0  0  0  0  0  0  0  0  0  0  0
    0.1600  -17.9150    9.2500 C   0  0  0  0  0  0  0  0  0  0  0  0
    1.0040  -18.1870   10.4730 C   0  0  0  0  0  0  0  0  0  0  0  0
    0.2870  -18.1040   11.6300 F   0  0  0  0  0  0  0  0  0  0  0  0
    2.0410  -17.3160   10.6150 F   0  0  0  0  0  0  0  0  0  0  0  0
    1.5520  -19.4310   10.4590 F   0  0  0  0  0  0  0  0  0  0  0  0
    0.7690  -17.6980    8.0010 C   0  0  0  0  0  0  0  0  0  0  0  0
    0.9340  -15.6070    2.7490 C   0  0  0  0  0  0  0  0  0  0  0  0
    1.7550  -13.2220    0.4680 C   0  0  0  0  0  0  0  0  0  0  0  0
    2.8100  -12.2700    0.0410 C   0  0  0  0  0  0  0  0  0  0  0  0
    4.0900  -12.4710    0.0840 N   0  0  0  0  0  0  0  0  0  0  0  0
    4.4960  -13.6900    0.5630 C   0  0  0  0  0  0  0  0  0  0  0  0
    7.8370  -14.1460   -0.5950 C   0  0  0  0  0  0  0  0  0  0  0  0
    9.0700  -13.5580   -0.9000 C   0  0  0  0  0  0  0  0  0  0  0  0
   12.2521  -14.5364   -1.7052 H   0  0  0  0  0  0  0  0  0  0  0  0
   11.6386  -15.3894   -3.1621 H   0  0  0  0  0  0  0  0  0  0  0  0
   13.2920  -14.6874   -3.1621 H   0  0  0  0  0  0  0  0  0  0  0  0
   13.3305  -13.1570   -4.6216 H   0  0  0  0  0  0  0  0  0  0  0  0
   12.2233  -11.7287   -4.5180 H   0  0  0  0  0  0  0  0  0  0  0  0
   14.1899  -12.6369   -2.3549 H   0  0  0  0  0  0  0  0  0  0  0  0
   14.4068  -11.2377   -3.4501 H   0  0  0  0  0  0  0  0  0  0  0  0
   14.0673  -11.9010   -0.6012 H   0  0  0  0  0  0  0  0  0  0  0  0
   13.1575  -10.3877   -0.1401 H   0  0  0  0  0  0  0  0  0  0  0  0
   10.7840  -11.2540   -1.3560 H   0  0  0  0  0  0  0  0  0  0  0  0
    9.0444  -11.0071    1.3531 H   0  0  0  0  0  0  0  0  0  0  0  0
    6.8496  -12.0505    1.8981 H   0  0  0  0  0  0  0  0  0  0  0  0
    6.2931  -16.2521    1.4934 H   0  0  0  0  0  0  0  0  0  0  0  0
    0.6415  -16.0161   -0.6314 H   0  0  0  0  0  0  0  0  0  0  0  0
   -1.0435  -17.6847    0.1276 H   0  0  0  0  0  0  0  0  0  0  0  0
   -1.4550  -18.0298    2.5590 H   0  0  0  0  0  0  0  0  0  0  0  0
   -1.2530  -16.6650    4.8160 H   0  0  0  0  0  0  0  0  0  0  0  0
   -2.0164  -17.1001    6.1087 H   0  0  0  0  0  0  0  0  0  0  0  0
   -3.1084  -17.4757    8.3170 H   0  0  0  0  0  0  0  0  0  0  0  0
   -1.7258  -17.9927   10.3224 H   0  0  0  0  0  0  0  0  0  0  0  0
    1.8645  -17.7420    7.9118 H   0  0  0  0  0  0  0  0  0  0  0  0
    1.4901  -15.0151    3.4910 H   0  0  0  0  0  0  0  0  0  0  0  0
    0.6858  -12.9701    0.4101 H   0  0  0  0  0  0  0  0  0  0  0  0
    2.4731  -11.2987   -0.3503 H   0  0  0  0  0  0  0  0  0  0  0  0
    7.5045  -15.0348   -1.1513 H   0  0  0  0  0  0  0  0  0  0  0  0
    9.6947  -13.9878   -1.6968 H   0  0  0  0  0  0  0  0  0  0  0  0
  1  2  1  0
  2  3  1  0
  3  4  1  0
  4  5  1  0
  5  6  1  0
  6  7  1  0
  7  8  2  0
  7  9  1  0
  9 10  1  0
 10 11  2  0
 11 12  1  0
 12 13  2  0
 13 14  1  0
 14 15  1  0
 15 16  2  0
 16 17  1  0
 17 18  1  0
 18 19  1  0
 19 20  2  0
 20 21  1  0
 21 22  2  0
 22 23  1  0
 23 24  1  0
 24 25  1  0
 25 26  2  0
 25 27  1  0
 27 28  2  0
 28 29  1  0
 29 30  2  0
 30 31  1  0
 31 32  1  0
 32 33  1  0
 32 34  1  0
 32 35  1  0
 31 36  2  0
 23 37  2  0
 18 38  2  0
 38 39  1  0
 39 40  2  0
 40 41  1  0
 13 42  1  0
 42 43  2  0
 43 10  1  0
 41 14  2  0
 41 17  1  0
 37 19  1  0
 36 27  1  0
  1 44  1  0
  1 45  1  0
  1 46  1  0
  3 47  1  0
  3 48  1  0
  4 49  1  0
  4 50  1  0
  6 51  1  0
  6 52  1  0
  9 53  1  0
 11 54  1  0
 12 55  1  0
 15 56  1  0
 20 57  1  0
 21 58  1  0
 22 59  1  0
 24 60  1  0
 28 61  1  0
 29 62  1  0
 30 63  1  0
 36 64  1  0
 37 65  1  0
 38 66  1  0
 39 67  1  0
 42 68  1  0
 43 69  1  0
M  END
>  <meeko>  (6) 
{"is_sidechain": [false], "free_energy": -8.073, "intermolecular_energy": -12.606, "internal_energy": -1.859}

$$$$
LIB_UFELNXRWJPVQMY__M_PUB_ALL__e8__s20260927
     RDKit          3D

 69 73  0  0  0  0  0  0  0  0999 V2000
   13.2520  -15.5060   -8.0990 C   0  0  0  0  0  0  0  0  0  0  0  0
   13.7930  -16.0900   -6.9190 O   0  0  0  0  0  0  0  0  0  0  0  0
   14.5460  -15.1580   -6.1290 C   0  0  0  0  0  0  0  0  0  0  0  0
   13.8130  -14.8070   -4.8330 C   0  0  0  0  0  0  0  0  0  0  0  0
   13.3540  -13.4510   -4.9200 O   0  0  0  0  0  0  0  0  0  0  0  0
   13.6740  -12.6920   -3.7590 C   0  0  0  0  0  0  0  0  0  0  0  0
   12.4370  -12.2640   -2.9560 C   0  0  0  0  0  0  0  0  0  0  0  0
   12.5380  -11.5050   -1.9960 O   0  0  0  0  0  0  0  0  0  0  0  0
   11.2740  -12.8090   -3.4710 N   0  0  0  0  0  0  0  0  0  0  0  0
    9.9510  -12.6060   -3.0420 C   0  0  0  0  0  0  0  0  0  0  0  0
    9.0950  -11.6480   -3.5790 C   0  0  0  0  0  0  0  0  0  0  0  0
    7.7870  -11.5100   -3.0900 C   0  0  0  0  0  0  0  0  0  0  0  0
    7.3130  -12.3280   -2.0590 C   0  0  0  0  0  0  0  0  0  0  0  0
    5.9670  -12.1820   -1.5270 C   0  0  0  0  0  0  0  0  0  0  0  0
    5.5230  -12.2190   -0.1910 C   0  0  0  0  0  0  0  0  0  0  0  0
    4.2080  -12.0580   -0.0630 N   0  0  0  0  0  0  0  0  0  0  0  0
    3.7530  -11.9270   -1.3410 N   0  0  0  0  0  0  0  0  0  0  0  0
    2.4230  -11.7460   -1.7790 C   0  0  0  0  0  0  0  0  0  0  0  0
    1.2850  -11.6560   -0.8350 C   0  0  0  0  0  0  0  0  0  0  0  0
    0.7070  -10.4170   -0.5330 C   0  0  0  0  0  0  0  0  0  0  0  0
   -0.3650  -10.3350    0.3530 C   0  0  0  0  0  0  0  0  0  0  0  0
   -0.8730  -11.4920    0.9440 C   0  0  0  0  0  0  0  0  0  0  0  0
   -0.3160  -12.7430    0.6570 C   0  0  0  0  0  0  0  0  0  0  0  0
   -0.8930  -13.8650    1.2900 N   0  0  0  0  0  0  0  0  0  0  0  0
   -1.9760  -14.6100    0.8580 C   0  0  0  0  0  0  0  0  0  0  0  0
   -2.6080  -14.4600   -0.1800 O   0  0  0  0  0  0  0  0  0  0  0  0
   -2.3740  -15.7220    1.7660 C   0  0  0  0  0  0  0  0  0  0  0  0
   -1.8520  -16.9980    1.5270 C   0  0  0  0  0  0  0  0  0  0  0  0
   -2.2060  -18.0670    2.3490 C   0  0  0  0  0  0  0  0  0  0  0  0
   -3.0910  -17.8690    3.4090 C   0  0  0  0  0  0  0  0  0  0  0  0
   -3.6340  -16.5980    3.6600 C   0  0  0  0  0  0  0  0  0  0  0  0
   -4.6230  -16.3920    4.7820 C   0  0  0  0  0  0  0  0  0  0  0  0
   -5.5390  -17.3990    4.8620 F   0  0  0  0  0  0  0  0  0  0  0  0
   -5.3430  -15.2440    4.6590 F   0  0  0  0  0  0  0  0  0  0  0  0
   -4.0220  -16.3350    6.0000 F   0  0  0  0  0  0  0  0  0  0  0  0
   -3.2780  -15.5270    2.8210 C   0  0  0  0  0  0  0  0  0  0  0  0
    0.7640  -12.8140   -0.2280 C   0  0  0  0  0  0  0  0  0  0  0  0
    2.1810  -11.6360   -3.0980 C   0  0  0  0  0  0  0  0  0  0  0  0
    3.3630  -11.7280   -3.9890 C   0  0  0  0  0  0  0  0  0  0  0  0
    4.5950  -11.8880   -3.6180 N   0  0  0  0  0  0  0  0  0  0  0  0
    4.8120  -11.9920   -2.2680 C   0  0  0  0  0  0  0  0  0  0  0  0
    8.1780  -13.2910   -1.5240 C   0  0  0  0  0  0  0  0  0  0  0  0
    9.4820  -13.4290   -2.0130 C   0  0  0  0  0  0  0  0  0  0  0  0
   12.5284  -14.7249   -7.8229 H   0  0  0  0  0  0  0  0  0  0  0  0
   14.0636  -15.0605   -8.6930 H   0  0  0  0  0  0  0  0  0  0  0  0
   12.7459  -16.2813   -8.6930 H   0  0  0  0  0  0  0  0  0  0  0  0
   15.5200  -15.6045   -5.8800 H   0  0  0  0  0  0  0  0  0  0  0  0
   14.6783  -14.2355   -6.7134 H   0  0  0  0  0  0  0  0  0  0  0  0
   12.9542  -15.4811   -4.6987 H   0  0  0  0  0  0  0  0  0  0  0  0
   14.4919  -14.9197   -3.9748 H   0  0  0  0  0  0  0  0  0  0  0  0
   14.3187  -13.3021   -3.1092 H   0  0  0  0  0  0  0  0  0  0  0  0
   14.1778  -11.7744   -4.0970 H   0  0  0  0  0  0  0  0  0  0  0  0
   11.4150  -13.4620   -4.2420 H   0  0  0  0  0  0  0  0  0  0  0  0
    9.4464  -10.9952   -4.3917 H   0  0  0  0  0  0  0  0  0  0  0  0
    7.1242  -10.7469   -3.5241 H   0  0  0  0  0  0  0  0  0  0  0  0
    6.1983  -12.3668    0.6647 H   0  0  0  0  0  0  0  0  0  0  0  0
    1.1021   -9.5020   -0.9985 H   0  0  0  0  0  0  0  0  0  0  0  0
   -0.8112   -9.3571    0.5867 H   0  0  0  0  0  0  0  0  0  0  0  0
   -1.7197  -11.4201    1.6425 H   0  0  0  0  0  0  0  0  0  0  0  0
   -0.4330  -14.1660    2.1390 H   0  0  0  0  0  0  0  0  0  0  0  0
   -1.1597  -17.1583    0.6874 H   0  0  0  0  0  0  0  0  0  0  0  0
   -1.7873  -19.0668    2.1617 H   0  0  0  0  0  0  0  0  0  0  0  0
   -3.3663  -18.7162    4.0544 H   0  0  0  0  0  0  0  0  0  0  0  0
   -3.7109  -14.5305    2.9929 H   0  0  0  0  0  0  0  0  0  0  0  0
    1.2143  -13.7919   -0.4538 H   0  0  0  0  0  0  0  0  0  0  0  0
    1.1652  -11.4865   -3.4926 H   0  0  0  0  0  0  0  0  0  0  0  0
    3.1762  -11.6532   -5.0704 H   0  0  0  0  0  0  0  0  0  0  0  0
    7.8290  -13.9452   -0.7115 H   0  0  0  0  0  0  0  0  0  0  0  0
   10.1458  -14.1936   -1.5831 H   0  0  0  0  0  0  0  0  0  0  0  0
  1  2  1  0
  2  3  1  0
  3  4  1  0
  4  5  1  0
  5  6  1  0
  6  7  1  0
  7  8  2  0
  7  9  1  0
  9 10  1  0
 10 11  2  0
 11 12  1  0
 12 13  2  0
 13 14  1  0
 14 15  1  0
 15 16  2  0
 16 17  1  0
 17 18  1  0
 18 19  1  0
 19 20  2  0
 20 21  1  0
 21 22  2  0
 22 23  1  0
 23 24  1  0
 24 25  1  0
 25 26  2  0
 25 27  1  0
 27 28  2  0
 28 29  1  0
 29 30  2  0
 30 31  1  0
 31 32  1  0
 32 33  1  0
 32 34  1  0
 32 35  1  0
 31 36  2  0
 23 37  2  0
 18 38  2  0
 38 39  1  0
 39 40  2  0
 40 41  1  0
 13 42  1  0
 42 43  2  0
 43 10  1  0
 41 14  2  0
 41 17  1  0
 37 19  1  0
 36 27  1  0
  1 44  1  0
  1 45  1  0
  1 46  1  0
  3 47  1  0
  3 48  1  0
  4 49  1  0
  4 50  1  0
  6 51  1  0
  6 52  1  0
  9 53  1  0
 11 54  1  0
 12 55  1  0
 15 56  1  0
 20 57  1  0
 21 58  1  0
 22 59  1  0
 24 60  1  0
 28 61  1  0
 29 62  1  0
 30 63  1  0
 36 64  1  0
 37 65  1  0
 38 66  1  0
 39 67  1  0
 42 68  1  0
 43 69  1  0
M  END
>  <meeko>  (7) 
{"is_sidechain": [false], "free_energy": -8.07, "intermolecular_energy": -13.271, "internal_energy": -1.188}

$$$$
LIB_UFELNXRWJPVQMY__M_PUB_ALL__e8__s20260927
     RDKit          3D

 69 73  0  0  0  0  0  0  0  0999 V2000
   14.5250  -15.1680   -6.4530 C   0  0  0  0  0  0  0  0  0  0  0  0
   13.1250  -14.9230   -6.5330 O   0  0  0  0  0  0  0  0  0  0  0  0
   12.6320  -14.1370   -5.4380 C   0  0  0  0  0  0  0  0  0  0  0  0
   13.7770  -13.5950   -4.5830 C   0  0  0  0  0  0  0  0  0  0  0  0
   13.3510  -13.5650   -3.2140 O   0  0  0  0  0  0  0  0  0  0  0  0
   12.7260  -14.7790   -2.8100 C   0  0  0  0  0  0  0  0  0  0  0  0
   11.5370  -14.5620   -1.8630 C   0  0  0  0  0  0  0  0  0  0  0  0
   11.6730  -14.6520   -0.6460 O   0  0  0  0  0  0  0  0  0  0  0  0
   10.3800  -14.2440   -2.5530 N   0  0  0  0  0  0  0  0  0  0  0  0
    9.1130  -13.9270   -2.0330 C   0  0  0  0  0  0  0  0  0  0  0  0
    8.1590  -14.8750   -1.6690 C   0  0  0  0  0  0  0  0  0  0  0  0
    6.9170  -14.4720   -1.1580 C   0  0  0  0  0  0  0  0  0  0  0  0
    6.6080  -13.1170   -1.0000 C   0  0  0  0  0  0  0  0  0  0  0  0
    5.3150  -12.6840   -0.4920 C   0  0  0  0  0  0  0  0  0  0  0  0
    4.8300  -12.6730    0.8310 C   0  0  0  0  0  0  0  0  0  0  0  0
    3.5850  -12.2170    0.9360 N   0  0  0  0  0  0  0  0  0  0  0  0
    3.2140  -11.9300   -0.3440 N   0  0  0  0  0  0  0  0  0  0  0  0
    1.9780  -11.4270   -0.8020 C   0  0  0  0  0  0  0  0  0  0  0  0
    0.8610  -11.1160    0.1200 C   0  0  0  0  0  0  0  0  0  0  0  0
    0.5010   -9.7870    0.3780 C   0  0  0  0  0  0  0  0  0  0  0  0
   -0.5510   -9.4960    1.2440 C   0  0  0  0  0  0  0  0  0  0  0  0
   -1.2590  -10.5310    1.8560 C   0  0  0  0  0  0  0  0  0  0  0  0
   -0.9220  -11.8670    1.6120 C   0  0  0  0  0  0  0  0  0  0  0  0
   -1.6920  -12.8540    2.2640 N   0  0  0  0  0  0  0  0  0  0  0  0
   -2.8580  -13.4470    1.8120 C   0  0  0  0  0  0  0  0  0  0  0  0
   -3.4140  -13.2560    0.7380 O   0  0  0  0  0  0  0  0  0  0  0  0
   -3.4620  -14.4370    2.7470 C   0  0  0  0  0  0  0  0  0  0  0  0
   -2.8160  -15.6650    2.9260 C   0  0  0  0  0  0  0  0  0  0  0  0
   -3.3520  -16.6220    3.7870 C   0  0  0  0  0  0  0  0  0  0  0  0
   -4.5420  -16.3600    4.4670 C   0  0  0  0  0  0  0  0  0  0  0  0
   -5.2110  -15.1380    4.2930 C   0  0  0  0  0  0  0  0  0  0  0  0
   -6.5200  -14.8700    4.9960 C   0  0  0  0  0  0  0  0  0  0  0  0
   -6.5630  -13.6320    5.5650 F   0  0  0  0  0  0  0  0  0  0  0  0
   -6.7800  -15.7500    6.0010 F   0  0  0  0  0  0  0  0  0  0  0  0
   -7.5850  -14.9330    4.1530 F   0  0  0  0  0  0  0  0  0  0  0  0
   -4.6680  -14.1810    3.4170 C   0  0  0  0  0  0  0  0  0  0  0  0
    0.1400  -12.1480    0.7480 C   0  0  0  0  0  0  0  0  0  0  0  0
    1.8110  -11.2080   -2.1190 C   0  0  0  0  0  0  0  0  0  0  0  0
    2.9690  -11.5340   -2.9870 C   0  0  0  0  0  0  0  0  0  0  0  0
    4.1180  -11.9920   -2.5960 N   0  0  0  0  0  0  0  0  0  0  0  0
    4.2600  -12.2000   -1.2480 C   0  0  0  0  0  0  0  0  0  0  0  0
    7.5710  -12.1680   -1.3660 C   0  0  0  0  0  0  0  0  0  0  0  0
    8.8110  -12.5720   -1.8740 C   0  0  0  0  0  0  0  0  0  0  0  0
   14.8282  -15.2211   -5.3969 H   0  0  0  0  0  0  0  0  0  0  0  0
   14.7595  -16.1208   -6.9501 H   0  0  0  0  0  0  0  0  0  0  0  0
   15.0691  -14.3514   -6.9501 H   0  0  0  0  0  0  0  0  0  0  0  0
   12.0514  -13.2920   -5.8365 H   0  0  0  0  0  0  0  0  0  0  0  0
   12.0011  -14.7794   -4.8061 H   0  0  0  0  0  0  0  0  0  0  0  0
   14.6560  -14.2486   -4.6834 H   0  0  0  0  0  0  0  0  0  0  0  0
   14.0469  -12.5816   -4.9150 H   0  0  0  0  0  0  0  0  0  0  0  0
   12.3665  -15.3027   -3.7081 H   0  0  0  0  0  0  0  0  0  0  0  0
   13.4772  -15.3664   -2.2617 H   0  0  0  0  0  0  0  0  0  0  0  0
   10.4680  -14.2770   -3.5690 H   0  0  0  0  0  0  0  0  0  0  0  0
    8.3815  -15.9462   -1.7832 H   0  0  0  0  0  0  0  0  0  0  0  0
    6.1742  -15.2332   -0.8771 H   0  0  0  0  0  0  0  0  0  0  0  0
    5.4238  -13.0091    1.6938 H   0  0  0  0  0  0  0  0  0  0  0  0
    1.0525   -8.9677   -0.1063 H   0  0  0  0  0  0  0  0  0  0  0  0
   -0.8236   -8.4495    1.4454 H   0  0  0  0  0  0  0  0  0  0  0  0
   -2.0900  -10.2944    2.5368 H   0  0  0  0  0  0  0  0  0  0  0  0
   -1.3210  -13.1770    3.1480 H   0  0  0  0  0  0  0  0  0  0  0  0
   -1.8816  -15.8764    2.3854 H   0  0  0  0  0  0  0  0  0  0  0  0
   -2.8368  -17.5833    3.9301 H   0  0  0  0  0  0  0  0  0  0  0  0
   -4.9599  -17.1181    5.1458 H   0  0  0  0  0  0  0  0  0  0  0  0
   -5.1914  -13.2270    3.2563 H   0  0  0  0  0  0  0  0  0  0  0  0
    0.4171  -13.1950    0.5555 H   0  0  0  0  0  0  0  0  0  0  0  0
    0.8706  -10.8104   -2.5282 H   0  0  0  0  0  0  0  0  0  0  0  0
    2.8409  -11.3716   -4.0674 H   0  0  0  0  0  0  0  0  0  0  0  0
    7.3509  -11.0962   -1.2532 H   0  0  0  0  0  0  0  0  0  0  0  0
    9.5574  -11.8131   -2.1516 H   0  0  0  0  0  0  0  0  0  0  0  0
  1  2  1  0
  2  3  1  0
  3  4  1  0
  4  5  1  0
  5  6  1  0
  6  7  1  0
  7  8  2  0
  7  9  1  0
  9 10  1  0
 10 11  2  0
 11 12  1  0
 12 13  2  0
 13 14  1  0
 14 15  1  0
 15 16  2  0
 16 17  1  0
 17 18  1  0
 18 19  1  0
 19 20  2  0
 20 21  1  0
 21 22  2  0
 22 23  1  0
 23 24  1  0
 24 25  1  0
 25 26  2  0
 25 27  1  0
 27 28  2  0
 28 29  1  0
 29 30  2  0
 30 31  1  0
 31 32  1  0
 32 33  1  0
 32 34  1  0
 32 35  1  0
 31 36  2  0
 23 37  2  0
 18 38  2  0
 38 39  1  0
 39 40  2  0
 40 41  1  0
 13 42  1  0
 42 43  2  0
 43 10  1  0
 41 14  2  0
 41 17  1  0
 37 19  1  0
 36 27  1  0
  1 44  1  0
  1 45  1  0
  1 46  1  0
  3 47  1  0
  3 48  1  0
  4 49  1  0
  4 50  1  0
  6 51  1  0
  6 52  1  0
  9 53  1  0
 11 54  1  0
 12 55  1  0
 15 56  1  0
 20 57  1  0
 21 58  1  0
 22 59  1  0
 24 60  1  0
 28 61  1  0
 29 62  1  0
 30 63  1  0
 36 64  1  0
 37 65  1  0
 38 66  1  0
 39 67  1  0
 42 68  1  0
 43 69  1  0
M  END
>  <meeko>  (8) 
{"is_sidechain": [false], "free_energy": -8.026, "intermolecular_energy": -12.901, "internal_energy": -1.486}

$$$$
LIB_UFELNXRWJPVQMY__M_PUB_ALL__e8__s20260927
     RDKit          3D

 69 73  0  0  0  0  0  0  0  0999 V2000
   -5.5400  -14.5020    8.7990 C   0  0  0  0  0  0  0  0  0  0  0  0
   -5.2330  -15.6140    7.9650 O   0  0  0  0  0  0  0  0  0  0  0  0
   -6.3680  -16.0870    7.2240 C   0  0  0  0  0  0  0  0  0  0  0  0
   -6.1850  -15.8610    5.7230 C   0  0  0  0  0  0  0  0  0  0  0  0
   -4.8460  -16.2290    5.3650 O   0  0  0  0  0  0  0  0  0  0  0  0
   -4.7890  -17.4670    4.6640 C   0  0  0  0  0  0  0  0  0  0  0  0
   -3.6770  -17.5150    3.6060 C   0  0  0  0  0  0  0  0  0  0  0  0
   -3.2090  -18.5850    3.2290 O   0  0  0  0  0  0  0  0  0  0  0  0
   -3.3350  -16.2500    3.1610 N   0  0  0  0  0  0  0  0  0  0  0  0
   -2.4060  -15.8960    2.1670 C   0  0  0  0  0  0  0  0  0  0  0  0
   -2.5860  -16.1420    0.8080 C   0  0  0  0  0  0  0  0  0  0  0  0
   -1.6060  -15.7580   -0.1190 C   0  0  0  0  0  0  0  0  0  0  0  0
   -0.4320  -15.1200    0.2970 C   0  0  0  0  0  0  0  0  0  0  0  0
    0.6030  -14.7360   -0.6510 C   0  0  0  0  0  0  0  0  0  0  0  0
    1.4120  -15.5460   -1.4720 C   0  0  0  0  0  0  0  0  0  0  0  0
    2.2710  -14.8570   -2.2180 N   0  0  0  0  0  0  0  0  0  0  0  0
    2.0500  -13.5540   -1.8810 N   0  0  0  0  0  0  0  0  0  0  0  0
    2.7060  -12.4040   -2.3700 C   0  0  0  0  0  0  0  0  0  0  0  0
    3.7790  -12.4790   -3.3890 C   0  0  0  0  0  0  0  0  0  0  0  0
    3.4620  -12.6170   -4.7460 C   0  0  0  0  0  0  0  0  0  0  0  0
    4.4720  -12.6840   -5.7030 C   0  0  0  0  0  0  0  0  0  0  0  0
    5.8100  -12.6100   -5.3140 C   0  0  0  0  0  0  0  0  0  0  0  0
    6.1530  -12.4680   -3.9650 C   0  0  0  0  0  0  0  0  0  0  0  0
    7.5290  -12.3910   -3.6560 N   0  0  0  0  0  0  0  0  0  0  0  0
    8.3000  -13.3430   -3.0130 C   0  0  0  0  0  0  0  0  0  0  0  0
    7.9410  -14.4500   -2.6330 O   0  0  0  0  0  0  0  0  0  0  0  0
    9.7230  -12.9560   -2.7980 C   0  0  0  0  0  0  0  0  0  0  0  0
   10.5860  -12.9510   -3.8990 C   0  0  0  0  0  0  0  0  0  0  0  0
   11.9270  -12.6020   -3.7380 C   0  0  0  0  0  0  0  0  0  0  0  0
   12.4130  -12.2640   -2.4750 C   0  0  0  0  0  0  0  0  0  0  0  0
   11.5650  -12.2740   -1.3550 C   0  0  0  0  0  0  0  0  0  0  0  0
   12.1010  -11.9490    0.0180 C   0  0  0  0  0  0  0  0  0  0  0  0
   13.2340  -11.1930   -0.0290 F   0  0  0  0  0  0  0  0  0  0  0  0
   12.4220  -13.0540    0.7450 F   0  0  0  0  0  0  0  0  0  0  0  0
   11.2120  -11.2460    0.7690 F   0  0  0  0  0  0  0  0  0  0  0  0
   10.2170  -12.6350   -1.5250 C   0  0  0  0  0  0  0  0  0  0  0  0
    5.1330  -12.4080   -3.0120 C   0  0  0  0  0  0  0  0  0  0  0  0
    2.3360  -11.1970   -1.9050 C   0  0  0  0  0  0  0  0  0  0  0  0
    1.2530  -11.1910   -0.8920 C   0  0  0  0  0  0  0  0  0  0  0  0
    0.6290  -12.2280   -0.4280 N   0  0  0  0  0  0  0  0  0  0  0  0
    1.0240  -13.4440   -0.9230 C   0  0  0  0  0  0  0  0  0  0  0  0
   -0.2570  -14.8750    1.6640 C   0  0  0  0  0  0  0  0  0  0  0  0
   -1.2370  -15.2570    2.5880 C   0  0  0  0  0  0  0  0  0  0  0  0
   -5.4574  -14.8013    9.8543 H   0  0  0  0  0  0  0  0  0  0  0  0
   -4.8342  -13.6837    8.5936 H   0  0  0  0  0  0  0  0  0  0  0  0
   -6.5657  -14.1617    8.5936 H   0  0  0  0  0  0  0  0  0  0  0  0
   -6.4950  -17.1635    7.4114 H   0  0  0  0  0  0  0  0  0  0  0  0
   -7.2556  -15.5272    7.5537 H   0  0  0  0  0  0  0  0  0  0  0  0
   -6.9017  -16.4813    5.1647 H   0  0  0  0  0  0  0  0  0  0  0  0
   -6.3625  -14.8035    5.4777 H   0  0  0  0  0  0  0  0  0  0  0  0
   -4.6134  -18.2727    5.3920 H   0  0  0  0  0  0  0  0  0  0  0  0
   -5.7466  -17.5870    4.1361 H   0  0  0  0  0  0  0  0  0  0  0  0
   -3.8060  -15.4860    3.6460 H   0  0  0  0  0  0  0  0  0  0  0  0
   -3.5025  -16.6406    0.4595 H   0  0  0  0  0  0  0  0  0  0  0  0
   -1.7625  -15.9613   -1.1887 H   0  0  0  0  0  0  0  0  0  0  0  0
    1.3401  -16.6434   -1.4940 H   0  0  0  0  0  0  0  0  0  0  0  0
    2.4087  -12.6728   -5.0582 H   0  0  0  0  0  0  0  0  0  0  0  0
    4.2145  -12.7954   -6.7666 H   0  0  0  0  0  0  0  0  0  0  0  0
    6.6025  -12.6638   -6.0750 H   0  0  0  0  0  0  0  0  0  0  0  0
    7.9960  -11.5530   -3.9730 H   0  0  0  0  0  0  0  0  0  0  0  0
   10.2060  -13.2231   -4.8948 H   0  0  0  0  0  0  0  0  0  0  0  0
   12.6012  -12.5934   -4.6071 H   0  0  0  0  0  0  0  0  0  0  0  0
   13.4707  -11.9869   -2.3548 H   0  0  0  0  0  0  0  0  0  0  0  0
    9.5455  -12.6659   -0.6543 H   0  0  0  0  0  0  0  0  0  0  0  0
    5.3929  -12.3034   -1.9483 H   0  0  0  0  0  0  0  0  0  0  0  0
    2.8095  -10.2682   -2.2560 H   0  0  0  0  0  0  0  0  0  0  0  0
    0.9496  -10.2108   -0.4957 H   0  0  0  0  0  0  0  0  0  0  0  0
    0.6590  -14.3777    2.0155 H   0  0  0  0  0  0  0  0  0  0  0  0
   -1.0849  -15.0517    3.6579 H   0  0  0  0  0  0  0  0  0  0  0  0
  1  2  1  0
  2  3  1  0
  3  4  1  0
  4  5  1  0
  5  6  1  0
  6  7  1  0
  7  8  2  0
  7  9  1  0
  9 10  1  0
 10 11  2  0
 11 12  1  0
 12 13  2  0
 13 14  1  0
 14 15  1  0
 15 16  2  0
 16 17  1  0
 17 18  1  0
 18 19  1  0
 19 20  2  0
 20 21  1  0
 21 22  2  0
 22 23  1  0
 23 24  1  0
 24 25  1  0
 25 26  2  0
 25 27  1  0
 27 28  2  0
 28 29  1  0
 29 30  2  0
 30 31  1  0
 31 32  1  0
 32 33  1  0
 32 34  1  0
 32 35  1  0
 31 36  2  0
 23 37  2  0
 18 38  2  0
 38 39  1  0
 39 40  2  0
 40 41  1  0
 13 42  1  0
 42 43  2  0
 43 10  1  0
 41 14  2  0
 41 17  1  0
 37 19  1  0
 36 27  1  0
  1 44  1  0
  1 45  1  0
  1 46  1  0
  3 47  1  0
  3 48  1  0
  4 49  1  0
  4 50  1  0
  6 51  1  0
  6 52  1  0
  9 53  1  0
 11 54  1  0
 12 55  1  0
 15 56  1  0
 20 57  1  0
 21 58  1  0
 22 59  1  0
 24 60  1  0
 28 61  1  0
 29 62  1  0
 30 63  1  0
 36 64  1  0
 37 65  1  0
 38 66  1  0
 39 67  1  0
 42 68  1  0
 43 69  1  0
M  END
>  <meeko>  (9) 
{"is_sidechain": [false], "free_energy": -7.935, "intermolecular_energy": -12.88, "internal_energy": -1.358}

$$$$
