LIB_BUZOTBWJKYSTEL__M_PUB_ALL__e8__s20260927
     RDKit          3D

 73 78  0  0  0  0  0  0  0  0999 V2000
   20.8200   -4.3790    9.7930 C   0  0  0  0  0  0  0  0  0  0  0  0
   20.7310   -5.6750   10.5650 N   0  0  0  0  0  0  0  0  0  0  0  0
   20.2600   -5.5010   12.0040 C   0  0  0  0  0  0  0  0  0  0  0  0
   18.7250   -5.3200   12.1020 C   0  0  0  0  0  0  0  0  0  0  0  0
   17.9820   -6.4410   11.3680 N   0  0  0  0  0  0  0  0  0  0  0  0
   16.4610   -6.2750   11.4420 C   0  0  0  0  0  0  0  0  0  0  0  0
   15.7620   -7.5800   11.6960 C   0  0  0  0  0  0  0  0  0  0  0  0
   16.4290   -8.6230   12.3530 C   0  0  0  0  0  0  0  0  0  0  0  0
   15.8140   -9.8680   12.5060 C   0  0  0  0  0  0  0  0  0  0  0  0
   14.5230  -10.0930   12.0160 C   0  0  0  0  0  0  0  0  0  0  0  0
   13.8890  -11.3900   12.1630 C   0  0  0  0  0  0  0  0  0  0  0  0
   14.1370  -12.6010   11.4930 C   0  0  0  0  0  0  0  0  0  0  0  0
   13.3560  -13.5950   11.9050 N   0  0  0  0  0  0  0  0  0  0  0  0
   12.5490  -13.0420   12.8520 N   0  0  0  0  0  0  0  0  0  0  0  0
   11.5080  -13.6480   13.5830 C   0  0  0  0  0  0  0  0  0  0  0  0
   11.1160  -15.0600   13.3790 C   0  0  0  0  0  0  0  0  0  0  0  0
   11.7980  -16.0980   14.0240 C   0  0  0  0  0  0  0  0  0  0  0  0
   11.4160  -17.4240   13.8250 C   0  0  0  0  0  0  0  0  0  0  0  0
   10.3430  -17.7260   12.9850 C   0  0  0  0  0  0  0  0  0  0  0  0
    9.6410  -16.7060   12.3350 C   0  0  0  0  0  0  0  0  0  0  0  0
    8.5680  -17.0860   11.5010 N   0  0  0  0  0  0  0  0  0  0  0  0
    7.3950  -17.7120   11.8830 C   0  0  0  0  0  0  0  0  0  0  0  0
    7.1270  -18.1500   12.9960 O   0  0  0  0  0  0  0  0  0  0  0  0
    6.3990  -17.9000   10.7890 C   0  0  0  0  0  0  0  0  0  0  0  0
    6.8470  -18.3740    9.5510 C   0  0  0  0  0  0  0  0  0  0  0  0
    5.9420  -18.5690    8.5070 C   0  0  0  0  0  0  0  0  0  0  0  0
    4.5860  -18.3000    8.6970 C   0  0  0  0  0  0  0  0  0  0  0  0
    4.1170  -17.8350    9.9360 C   0  0  0  0  0  0  0  0  0  0  0  0
    2.6440  -17.5830   10.1580 C   0  0  0  0  0  0  0  0  0  0  0  0
    2.0120  -17.0770    9.0650 F   0  0  0  0  0  0  0  0  0  0  0  0
    2.4170  -16.6960   11.1680 F   0  0  0  0  0  0  0  0  0  0  0  0
    1.9730  -18.7170   10.4970 F   0  0  0  0  0  0  0  0  0  0  0  0
    5.0350  -17.6480   10.9860 C   0  0  0  0  0  0  0  0  0  0  0  0
   10.0410  -15.3810   12.5290 C   0  0  0  0  0  0  0  0  0  0  0  0
   10.8480  -12.9190   14.5010 C   0  0  0  0  0  0  0  0  0  0  0  0
   11.2860  -11.5100   14.6590 C   0  0  0  0  0  0  0  0  0  0  0  0
   12.2340  -10.9170   14.0000 N   0  0  0  0  0  0  0  0  0  0  0  0
   12.8760  -11.6850   13.0600 C   0  0  0  0  0  0  0  0  0  0  0  0
   13.8420   -9.0410   11.3950 C   0  0  0  0  0  0  0  0  0  0  0  0
   14.4560   -7.7950   11.2320 C   0  0  0  0  0  0  0  0  0  0  0  0
   18.4420   -6.6020    9.9240 C   0  0  0  0  0  0  0  0  0  0  0  0
   19.9790   -6.7800    9.8330 C   0  0  0  0  0  0  0  0  0  0  0  0
   20.8779   -3.5360   10.4972 H   0  0  0  0  0  0  0  0  0  0  0  0
   21.7195   -4.3904    9.1599 H   0  0  0  0  0  0  0  0  0  0  0  0
   19.9274   -4.2673    9.1599 H   0  0  0  0  0  0  0  0  0  0  0  0
   21.7140   -5.9930   10.6270 H   0  0  0  0  0  0  0  0  0  0  0  0
   20.5487   -6.3920   12.5809 H   0  0  0  0  0  0  0  0  0  0  0  0
   20.7324   -4.5922   12.4052 H   0  0  0  0  0  0  0  0  0  0  0  0
   18.4304   -5.3295   13.1618 H   0  0  0  0  0  0  0  0  0  0  0  0
   18.4586   -4.3621   11.6314 H   0  0  0  0  0  0  0  0  0  0  0  0
   18.1600   -7.3200   11.8760 H   0  0  0  0  0  0  0  0  0  0  0  0
   16.2195   -5.5785   12.2584 H   0  0  0  0  0  0  0  0  0  0  0  0
   16.1148   -5.8884   10.4721 H   0  0  0  0  0  0  0  0  0  0  0  0
   17.4418   -8.4605   12.7502 H   0  0  0  0  0  0  0  0  0  0  0  0
   16.3508  -10.6805   13.0175 H   0  0  0  0  0  0  0  0  0  0  0  0
   14.8993  -12.7145   10.7081 H   0  0  0  0  0  0  0  0  0  0  0  0
   12.6406  -15.8663   14.6921 H   0  0  0  0  0  0  0  0  0  0  0  0
   11.9615  -18.2341   14.3312 H   0  0  0  0  0  0  0  0  0  0  0  0
   10.0472  -18.7745   12.8331 H   0  0  0  0  0  0  0  0  0  0  0  0
    8.7040  -16.9230   10.5120 H   0  0  0  0  0  0  0  0  0  0  0  0
    7.9144  -18.5933    9.4006 H   0  0  0  0  0  0  0  0  0  0  0  0
    6.2980  -18.9353    7.5328 H   0  0  0  0  0  0  0  0  0  0  0  0
    3.8784  -18.4536    7.8689 H   0  0  0  0  0  0  0  0  0  0  0  0
    4.6794  -17.3018   11.9677 H   0  0  0  0  0  0  0  0  0  0  0  0
    9.5056  -14.5738   12.0076 H   0  0  0  0  0  0  0  0  0  0  0  0
   10.0295  -13.3436   15.1009 H   0  0  0  0  0  0  0  0  0  0  0  0
   10.7538  -10.9077   15.4100 H   0  0  0  0  0  0  0  0  0  0  0  0
   12.8151   -9.1948   11.0318 H   0  0  0  0  0  0  0  0  0  0  0  0
   13.9109   -6.9781   10.7365 H   0  0  0  0  0  0  0  0  0  0  0  0
   17.9535   -7.4869    9.4900 H   0  0  0  0  0  0  0  0  0  0  0  0
   18.1670   -5.6917    9.3711 H   0  0  0  0  0  0  0  0  0  0  0  0
   20.2504   -7.7484   10.2786 H   0  0  0  0  0  0  0  0  0  0  0  0
   20.2618   -6.7345    8.7710 H   0  0  0  0  0  0  0  0  0  0  0  0
  1  2  1  0
  2  3  1  0
  3  4  1  0
  4  5  1  0
  5  6  1  0
  6  7  1  0
  7  8  2  0
  8  9  1  0
  9 10  2  0
 10 11  1  0
 11 12  1  0
 12 13  2  0
 13 14  1  0
 14 15  1  0
 15 16  1  0
 16 17  2  0
 17 18  1  0
 18 19  2  0
 19 20  1  0
 20 21  1  0
 21 22  1  0
 22 23  2  0
 22 24  1  0
 24 25  2  0
 25 26  1  0
 26 27  2  0
 27 28  1  0
 28 29  1  0
 29 30  1  0
 29 31  1  0
 29 32  1  0
 28 33  2  0
 20 34  2  0
 15 35  2  0
 35 36  1  0
 36 37  2  0
 37 38  1  0
 10 39  1  0
 39 40  2  0
  5 41  1  0
 41 42  1  0
 42  2  1  0
 40  7  1  0
 38 11  2  0
 38 14  1  0
 34 16  1  0
 33 24  1  0
  1 43  1  0
  1 44  1  0
  1 45  1  0
  2 46  1  0
  3 47  1  0
  3 48  1  0
  4 49  1  0
  4 50  1  0
  5 51  1  0
  6 52  1  0
  6 53  1  0
  8 54  1  0
  9 55  1  0
 12 56  1  0
 17 57  1  0
 18 58  1  0
 19 59  1  0
 21 60  1  0
 25 61  1  0
 26 62  1  0
 27 63  1  0
 33 64  1  0
 34 65  1  0
 35 66  1  0
 36 67  1  0
 39 68  1  0
 40 69  1  0
 41 70  1  0
 41 71  1  0
 42 72  1  0
 42 73  1  0
M  CHG  2   2   1   5   1
M  END
>  <meeko>  (1) 
{"is_sidechain": [false], "free_energy": -9.526, "intermolecular_energy": -13.424, "internal_energy": -1.161}

$$$$
LIB_BUZOTBWJKYSTEL__M_PUB_ALL__e8__s20260927
     RDKit          3D

 73 78  0  0  0  0  0  0  0  0999 V2000
    2.4710  -20.0540   10.0410 C   0  0  0  0  0  0  0  0  0  0  0  0
    3.1780  -18.8600    9.4430 N   0  0  0  0  0  0  0  0  0  0  0  0
    3.7510  -19.1180    8.0540 C   0  0  0  0  0  0  0  0  0  0  0  0
    2.6680  -19.0500    6.9490 C   0  0  0  0  0  0  0  0  0  0  0  0
    1.8720  -17.7440    7.0260 N   0  0  0  0  0  0  0  0  0  0  0  0
    0.7860  -17.6600    5.9480 C   0  0  0  0  0  0  0  0  0  0  0  0
    1.2570  -16.9220    4.7290 C   0  0  0  0  0  0  0  0  0  0  0  0
    1.1940  -15.5230    4.6790 C   0  0  0  0  0  0  0  0  0  0  0  0
    1.5420  -14.8410    3.5120 C   0  0  0  0  0  0  0  0  0  0  0  0
    1.9690  -15.5390    2.3760 C   0  0  0  0  0  0  0  0  0  0  0  0
    2.3190  -14.8320    1.1580 C   0  0  0  0  0  0  0  0  0  0  0  0
    3.4130  -13.9930    0.8800 C   0  0  0  0  0  0  0  0  0  0  0  0
    3.4100  -13.5270   -0.3650 N   0  0  0  0  0  0  0  0  0  0  0  0
    2.2820  -14.0380   -0.9310 N   0  0  0  0  0  0  0  0  0  0  0  0
    1.7760  -13.8260   -2.2290 C   0  0  0  0  0  0  0  0  0  0  0  0
    2.4440  -12.9350   -3.2030 C   0  0  0  0  0  0  0  0  0  0  0  0
    2.3190  -11.5440   -3.1100 C   0  0  0  0  0  0  0  0  0  0  0  0
    2.9570  -10.7160   -4.0330 C   0  0  0  0  0  0  0  0  0  0  0  0
    3.7300  -11.2690   -5.0550 C   0  0  0  0  0  0  0  0  0  0  0  0
    3.8750  -12.6550   -5.1650 C   0  0  0  0  0  0  0  0  0  0  0  0
    4.6720  -13.1430   -6.2220 N   0  0  0  0  0  0  0  0  0  0  0  0
    6.0070  -13.5040   -6.1640 C   0  0  0  0  0  0  0  0  0  0  0  0
    6.7640  -13.3580   -5.2120 O   0  0  0  0  0  0  0  0  0  0  0  0
    6.5560  -14.0800   -7.4250 C   0  0  0  0  0  0  0  0  0  0  0  0
    7.1390  -15.3510   -7.3820 C   0  0  0  0  0  0  0  0  0  0  0  0
    7.6560  -15.9240   -8.5450 C   0  0  0  0  0  0  0  0  0  0  0  0
    7.5850  -15.2340   -9.7560 C   0  0  0  0  0  0  0  0  0  0  0  0
    6.9920  -13.9630   -9.8210 C   0  0  0  0  0  0  0  0  0  0  0  0
    6.8750  -13.2330  -11.1380 C   0  0  0  0  0  0  0  0  0  0  0  0
    7.9570  -13.3990  -11.9450 F   0  0  0  0  0  0  0  0  0  0  0  0
    6.7330  -11.8870  -10.9720 F   0  0  0  0  0  0  0  0  0  0  0  0
    5.7950  -13.6390  -11.8580 F   0  0  0  0  0  0  0  0  0  0  0  0
    6.4670  -13.3960   -8.6460 C   0  0  0  0  0  0  0  0  0  0  0  0
    3.2210  -13.4780   -4.2430 C   0  0  0  0  0  0  0  0  0  0  0  0
    0.6470  -14.4580   -2.5990 C   0  0  0  0  0  0  0  0  0  0  0  0
    0.0240  -15.3380   -1.5800 C   0  0  0  0  0  0  0  0  0  0  0  0
    0.4570  -15.5520   -0.3740 N   0  0  0  0  0  0  0  0  0  0  0  0
    1.6020  -14.8790   -0.0250 C   0  0  0  0  0  0  0  0  0  0  0  0
    2.0710  -16.9330    2.4370 C   0  0  0  0  0  0  0  0  0  0  0  0
    1.7140  -17.6210    3.6010 C   0  0  0  0  0  0  0  0  0  0  0  0
    1.2850  -17.4960    8.4110 C   0  0  0  0  0  0  0  0  0  0  0  0
    2.3730  -17.5680    9.5120 C   0  0  0  0  0  0  0  0  0  0  0  0
    2.5086  -19.9906   11.1385 H   0  0  0  0  0  0  0  0  0  0  0  0
    1.4220  -20.0627    9.7099 H   0  0  0  0  0  0  0  0  0  0  0  0
    2.9677  -20.9779    9.7099 H   0  0  0  0  0  0  0  0  0  0  0  0
    3.9940  -18.7190   10.0620 H   0  0  0  0  0  0  0  0  0  0  0  0
    4.5202  -18.3606    7.8424 H   0  0  0  0  0  0  0  0  0  0  0  0
    4.1743  -20.1333    8.0481 H   0  0  0  0  0  0  0  0  0  0  0  0
    3.1560  -19.1142    5.9653 H   0  0  0  0  0  0  0  0  0  0  0  0
    1.9716  -19.8889    7.0949 H   0  0  0  0  0  0  0  0  0  0  0  0
    2.5130  -16.9710    6.7920 H   0  0  0  0  0  0  0  0  0  0  0  0
    0.4969  -18.6802    5.6554 H   0  0  0  0  0  0  0  0  0  0  0  0
   -0.0677  -17.1087    6.3692 H   0  0  0  0  0  0  0  0  0  0  0  0
    0.8682  -14.9587    5.5652 H   0  0  0  0  0  0  0  0  0  0  0  0
    1.4801  -13.7431    3.4845 H   0  0  0  0  0  0  0  0  0  0  0  0
    4.1915  -13.7475    1.6173 H   0  0  0  0  0  0  0  0  0  0  0  0
    1.7143  -11.1017   -2.3046 H   0  0  0  0  0  0  0  0  0  0  0  0
    2.8507   -9.6239   -3.9554 H   0  0  0  0  0  0  0  0  0  0  0  0
    4.2291  -10.6090   -5.7797 H   0  0  0  0  0  0  0  0  0  0  0  0
    4.2220  -13.1810   -7.1280 H   0  0  0  0  0  0  0  0  0  0  0  0
    7.1900  -15.8997   -6.4300 H   0  0  0  0  0  0  0  0  0  0  0  0
    8.1200  -16.9206   -8.5070 H   0  0  0  0  0  0  0  0  0  0  0  0
    7.9975  -15.6901  -10.6680 H   0  0  0  0  0  0  0  0  0  0  0  0
    5.9831  -12.4089   -8.6850 H   0  0  0  0  0  0  0  0  0  0  0  0
    3.3156  -14.5703   -4.3323 H   0  0  0  0  0  0  0  0  0  0  0  0
    0.2107  -14.3294   -3.6005 H   0  0  0  0  0  0  0  0  0  0  0  0
   -0.8971  -15.8619   -1.8752 H   0  0  0  0  0  0  0  0  0  0  0  0
    2.4349  -17.4923    1.5625 H   0  0  0  0  0  0  0  0  0  0  0  0
    1.7919  -18.7178    3.6327 H   0  0  0  0  0  0  0  0  0  0  0  0
    0.8235  -16.4977    8.4297 H   0  0  0  0  0  0  0  0  0  0  0  0
    0.5379  -18.2776    8.6134 H   0  0  0  0  0  0  0  0  0  0  0  0
    3.0585  -16.7166    9.3887 H   0  0  0  0  0  0  0  0  0  0  0  0
    1.8675  -17.5372   10.4885 H   0  0  0  0  0  0  0  0  0  0  0  0
  1  2  1  0
  2  3  1  0
  3  4  1  0
  4  5  1  0
  5  6  1  0
  6  7  1  0
  7  8  2  0
  8  9  1  0
  9 10  2  0
 10 11  1  0
 11 12  1  0
 12 13  2  0
 13 14  1  0
 14 15  1  0
 15 16  1  0
 16 17  2  0
 17 18  1  0
 18 19  2  0
 19 20  1  0
 20 21  1  0
 21 22  1  0
 22 23  2  0
 22 24  1  0
 24 25  2  0
 25 26  1  0
 26 27  2  0
 27 28  1  0
 28 29  1  0
 29 30  1  0
 29 31  1  0
 29 32  1  0
 28 33  2  0
 20 34  2  0
 15 35  2  0
 35 36  1  0
 36 37  2  0
 37 38  1  0
 10 39  1  0
 39 40  2  0
  5 41  1  0
 41 42  1  0
 42  2  1  0
 40  7  1  0
 38 11  2  0
 38 14  1  0
 34 16  1  0
 33 24  1  0
  1 43  1  0
  1 44  1  0
  1 45  1  0
  2 46  1  0
  3 47  1  0
  3 48  1  0
  4 49  1  0
  4 50  1  0
  5 51  1  0
  6 52  1  0
  6 53  1  0
  8 54  1  0
  9 55  1  0
 12 56  1  0
 17 57  1  0
 18 58  1  0
 19 59  1  0
 21 60  1  0
 25 61  1  0
 26 62  1  0
 27 63  1  0
 33 64  1  0
 34 65  1  0
 35 66  1  0
 36 67  1  0
 39 68  1  0
 40 69  1  0
 41 70  1  0
 41 71  1  0
 42 72  1  0
 42 73  1  0
M  CHG  2   2   1   5   1
M  END
>  <meeko>  (2) 
{"is_sidechain": [false], "free_energy": -9.371, "intermolecular_energy": -13.089, "internal_energy": -1.277}

$$$$
LIB_BUZOTBWJKYSTEL__M_PUB_ALL__e8__s20260927
     RDKit          3D

 73 78  0  0  0  0  0  0  0  0999 V2000
   17.7550  -18.7660  -12.8720 C   0  0  0  0  0  0  0  0  0  0  0  0
   17.5710  -18.7550  -11.3720 N   0  0  0  0  0  0  0  0  0  0  0  0
   18.1890  -17.5420  -10.6870 C   0  0  0  0  0  0  0  0  0  0  0  0
   17.3050  -16.2780  -10.8200 C   0  0  0  0  0  0  0  0  0  0  0  0
   15.8690  -16.5490  -10.3600 N   0  0  0  0  0  0  0  0  0  0  0  0
   14.9720  -15.3140  -10.4930 C   0  0  0  0  0  0  0  0  0  0  0  0
   14.3620  -14.9150   -9.1810 C   0  0  0  0  0  0  0  0  0  0  0  0
   14.8300  -15.4730   -7.9840 C   0  0  0  0  0  0  0  0  0  0  0  0
   14.2010  -15.1750   -6.7730 C   0  0  0  0  0  0  0  0  0  0  0  0
   13.1020  -14.3100   -6.7310 C   0  0  0  0  0  0  0  0  0  0  0  0
   12.4410  -14.0100   -5.4750 C   0  0  0  0  0  0  0  0  0  0  0  0
   11.2080  -14.4590   -4.9710 C   0  0  0  0  0  0  0  0  0  0  0  0
   10.9290  -13.9760   -3.7640 N   0  0  0  0  0  0  0  0  0  0  0  0
   11.9790  -13.1650   -3.4570 N   0  0  0  0  0  0  0  0  0  0  0  0
   12.1720  -12.3730   -2.3070 C   0  0  0  0  0  0  0  0  0  0  0  0
   11.1700  -12.2980   -1.2210 C   0  0  0  0  0  0  0  0  0  0  0  0
   11.5610  -12.0980    0.1070 C   0  0  0  0  0  0  0  0  0  0  0  0
   10.6060  -12.0260    1.1210 C   0  0  0  0  0  0  0  0  0  0  0  0
    9.2500  -12.1470    0.8150 C   0  0  0  0  0  0  0  0  0  0  0  0
    8.8330  -12.3400   -0.5050 C   0  0  0  0  0  0  0  0  0  0  0  0
    7.4460  -12.4530   -0.7390 N   0  0  0  0  0  0  0  0  0  0  0  0
    6.6100  -11.4940   -1.2830 C   0  0  0  0  0  0  0  0  0  0  0  0
    6.9040  -10.3360   -1.5550 O   0  0  0  0  0  0  0  0  0  0  0  0
    5.2040  -11.9390   -1.5000 C   0  0  0  0  0  0  0  0  0  0  0  0
    4.4540  -12.3510   -0.3930 C   0  0  0  0  0  0  0  0  0  0  0  0
    3.1320  -12.7660   -0.5570 C   0  0  0  0  0  0  0  0  0  0  0  0
    2.5510  -12.7630   -1.8260 C   0  0  0  0  0  0  0  0  0  0  0  0
    3.2830  -12.3410   -2.9470 C   0  0  0  0  0  0  0  0  0  0  0  0
    2.6440  -12.2950   -4.3150 C   0  0  0  0  0  0  0  0  0  0  0  0
    1.4190  -12.8840   -4.3580 F   0  0  0  0  0  0  0  0  0  0  0  0
    3.3970  -12.9260   -5.2590 F   0  0  0  0  0  0  0  0  0  0  0  0
    2.4720  -11.0220   -4.7610 F   0  0  0  0  0  0  0  0  0  0  0  0
    4.6140  -11.9170   -2.7710 C   0  0  0  0  0  0  0  0  0  0  0  0
    9.7990  -12.4250   -1.5120 C   0  0  0  0  0  0  0  0  0  0  0  0
   13.3080  -11.6610   -2.1910 C   0  0  0  0  0  0  0  0  0  0  0  0
   14.2730  -11.7770   -3.3120 C   0  0  0  0  0  0  0  0  0  0  0  0
   14.1270  -12.4900   -4.3870 N   0  0  0  0  0  0  0  0  0  0  0  0
   12.9490  -13.1910   -4.4810 C   0  0  0  0  0  0  0  0  0  0  0  0
   12.6590  -13.7220   -7.9200 C   0  0  0  0  0  0  0  0  0  0  0  0
   13.2790  -14.0230   -9.1370 C   0  0  0  0  0  0  0  0  0  0  0  0
   15.2460  -17.7520  -11.0590 C   0  0  0  0  0  0  0  0  0  0  0  0
   16.1380  -19.0130  -10.9240 C   0  0  0  0  0  0  0  0  0  0  0  0
   18.8272  -18.8301  -13.1094 H   0  0  0  0  0  0  0  0  0  0  0  0
   17.2323  -19.6345  -13.2992 H   0  0  0  0  0  0  0  0  0  0  0  0
   17.3395  -17.8414  -13.2992 H   0  0  0  0  0  0  0  0  0  0  0  0
   18.1200  -19.5710  -11.0500 H   0  0  0  0  0  0  0  0  0  0  0  0
   18.3231  -17.7690   -9.6191 H   0  0  0  0  0  0  0  0  0  0  0  0
   19.1512  -17.3327  -11.1773 H   0  0  0  0  0  0  0  0  0  0  0  0
   17.7333  -15.4751  -10.2019 H   0  0  0  0  0  0  0  0  0  0  0  0
   17.2793  -15.9835  -11.8795 H   0  0  0  0  0  0  0  0  0  0  0  0
   15.8940  -16.7280   -9.3440 H   0  0  0  0  0  0  0  0  0  0  0  0
   15.5756  -14.4765  -10.8727 H   0  0  0  0  0  0  0  0  0  0  0  0
   14.1540  -15.5626  -11.1851 H   0  0  0  0  0  0  0  0  0  0  0  0
   15.6974  -16.1494   -7.9980 H   0  0  0  0  0  0  0  0  0  0  0  0
   14.5740  -15.6256   -5.8414 H   0  0  0  0  0  0  0  0  0  0  0  0
   10.5415  -15.1408   -5.5195 H   0  0  0  0  0  0  0  0  0  0  0  0
   12.6283  -11.9969    0.3532 H   0  0  0  0  0  0  0  0  0  0  0  0
   10.9223  -11.8736    2.1635 H   0  0  0  0  0  0  0  0  0  0  0  0
    8.5024  -12.0900    1.6199 H   0  0  0  0  0  0  0  0  0  0  0  0
    7.0180  -13.3140   -0.4240 H   0  0  0  0  0  0  0  0  0  0  0  0
    4.9077  -12.3477    0.6091 H   0  0  0  0  0  0  0  0  0  0  0  0
    2.5473  -13.0958    0.3144 H   0  0  0  0  0  0  0  0  0  0  0  0
    1.5094  -13.0945   -1.9489 H   0  0  0  0  0  0  0  0  0  0  0  0
    5.1947  -11.5661   -3.6369 H   0  0  0  0  0  0  0  0  0  0  0  0
    9.4814  -12.5944   -2.5515 H   0  0  0  0  0  0  0  0  0  0  0  0
   13.5099  -11.0283   -1.3141 H   0  0  0  0  0  0  0  0  0  0  0  0
   15.2059  -11.2010   -3.2233 H   0  0  0  0  0  0  0  0  0  0  0  0
   11.8154  -13.0164   -7.8979 H   0  0  0  0  0  0  0  0  0  0  0  0
   12.9158  -13.5579  -10.0653 H   0  0  0  0  0  0  0  0  0  0  0  0
   14.2644  -17.9587  -10.6077 H   0  0  0  0  0  0  0  0  0  0  0  0
   15.1436  -17.5148  -12.1282 H   0  0  0  0  0  0  0  0  0  0  0  0
   16.1477  -19.3289   -9.8704 H   0  0  0  0  0  0  0  0  0  0  0  0
   15.7171  -19.7953  -11.5727 H   0  0  0  0  0  0  0  0  0  0  0  0
  1  2  1  0
  2  3  1  0
  3  4  1  0
  4  5  1  0
  5  6  1  0
  6  7  1  0
  7  8  2  0
  8  9  1  0
  9 10  2  0
 10 11  1  0
 11 12  1  0
 12 13  2  0
 13 14  1  0
 14 15  1  0
 15 16  1  0
 16 17  2  0
 17 18  1  0
 18 19  2  0
 19 20  1  0
 20 21  1  0
 21 22  1  0
 22 23  2  0
 22 24  1  0
 24 25  2  0
 25 26  1  0
 26 27  2  0
 27 28  1  0
 28 29  1  0
 29 30  1  0
 29 31  1  0
 29 32  1  0
 28 33  2  0
 20 34  2  0
 15 35  2  0
 35 36  1  0
 36 37  2  0
 37 38  1  0
 10 39  1  0
 39 40  2  0
  5 41  1  0
 41 42  1  0
 42  2  1  0
 40  7  1  0
 38 11  2  0
 38 14  1  0
 34 16  1  0
 33 24  1  0
  1 43  1  0
  1 44  1  0
  1 45  1  0
  2 46  1  0
  3 47  1  0
  3 48  1  0
  4 49  1  0
  4 50  1  0
  5 51  1  0
  6 52  1  0
  6 53  1  0
  8 54  1  0
  9 55  1  0
 12 56  1  0
 17 57  1  0
 18 58  1  0
 19 59  1  0
 21 60  1  0
 25 61  1  0
 26 62  1  0
 27 63  1  0
 33 64  1  0
 34 65  1  0
 35 66  1  0
 36 67  1  0
 39 68  1  0
 40 69  1  0
 41 70  1  0
 41 71  1  0
 42 72  1  0
 42 73  1  0
M  CHG  2   2   1   5   1
M  END
>  <meeko>  (3) 
{"is_sidechain": [false], "free_energy": -9.311, "intermolecular_energy": -13.375, "internal_energy": -0.907}

$$$$
LIB_BUZOTBWJKYSTEL__M_PUB_ALL__e8__s20260927
     RDKit          3D

 73 78  0  0  0  0  0  0  0  0999 V2000
   -2.3100   -9.4670    1.2870 C   0  0  0  0  0  0  0  0  0  0  0  0
   -0.9900   -9.7040    1.9840 N   0  0  0  0  0  0  0  0  0  0  0  0
   -0.8220  -11.1240    2.5140 C   0  0  0  0  0  0  0  0  0  0  0  0
   -0.4320  -12.1250    1.4000 C   0  0  0  0  0  0  0  0  0  0  0  0
    0.7910  -11.6400    0.6140 N   0  0  0  0  0  0  0  0  0  0  0  0
    1.1880  -12.6110   -0.5020 C   0  0  0  0  0  0  0  0  0  0  0  0
    2.6240  -12.4490   -0.9070 C   0  0  0  0  0  0  0  0  0  0  0  0
    2.9910  -12.5190   -2.2580 C   0  0  0  0  0  0  0  0  0  0  0  0
    4.3360  -12.4630   -2.6280 C   0  0  0  0  0  0  0  0  0  0  0  0
    5.3390  -12.3260   -1.6620 C   0  0  0  0  0  0  0  0  0  0  0  0
    6.7380  -12.2810   -2.0450 C   0  0  0  0  0  0  0  0  0  0  0  0
    7.4490  -11.3060   -2.7670 C   0  0  0  0  0  0  0  0  0  0  0  0
    8.7360  -11.6030   -2.9180 N   0  0  0  0  0  0  0  0  0  0  0  0
    8.8940  -12.8110   -2.3100 N   0  0  0  0  0  0  0  0  0  0  0  0
   10.0570  -13.6000   -2.2130 C   0  0  0  0  0  0  0  0  0  0  0  0
   11.3410  -13.1970   -2.8270 C   0  0  0  0  0  0  0  0  0  0  0  0
   12.2440  -12.3800   -2.1390 C   0  0  0  0  0  0  0  0  0  0  0  0
   13.4520  -12.0110   -2.7290 C   0  0  0  0  0  0  0  0  0  0  0  0
   13.7720  -12.4600   -4.0110 C   0  0  0  0  0  0  0  0  0  0  0  0
   12.8900  -13.2830   -4.7170 C   0  0  0  0  0  0  0  0  0  0  0  0
   13.2800  -13.6980   -6.0070 N   0  0  0  0  0  0  0  0  0  0  0  0
   13.8790  -14.8970   -6.3530 C   0  0  0  0  0  0  0  0  0  0  0  0
   14.2800  -15.7640   -5.5850 O   0  0  0  0  0  0  0  0  0  0  0  0
   14.0870  -15.0950   -7.8170 C   0  0  0  0  0  0  0  0  0  0  0  0
   13.0520  -14.7470   -8.6920 C   0  0  0  0  0  0  0  0  0  0  0  0
   13.2140  -14.9110  -10.0680 C   0  0  0  0  0  0  0  0  0  0  0  0
   14.4120  -15.4150  -10.5760 C   0  0  0  0  0  0  0  0  0  0  0  0
   15.4660  -15.7580   -9.7140 C   0  0  0  0  0  0  0  0  0  0  0  0
   16.7790  -16.2630  -10.2630 C   0  0  0  0  0  0  0  0  0  0  0  0
   17.0820  -15.7580  -11.4890 F   0  0  0  0  0  0  0  0  0  0  0  0
   16.7960  -17.6180  -10.4000 F   0  0  0  0  0  0  0  0  0  0  0  0
   17.8290  -15.9540   -9.4540 F   0  0  0  0  0  0  0  0  0  0  0  0
   15.2970  -15.5820   -8.3280 C   0  0  0  0  0  0  0  0  0  0  0  0
   11.6750  -13.6360   -4.1230 C   0  0  0  0  0  0  0  0  0  0  0  0
    9.9990  -14.7620   -1.5360 C   0  0  0  0  0  0  0  0  0  0  0  0
    8.6850  -15.1120   -0.9440 C   0  0  0  0  0  0  0  0  0  0  0  0
    7.5930  -14.4140   -1.0180 N   0  0  0  0  0  0  0  0  0  0  0  0
    7.6820  -13.2430   -1.7300 C   0  0  0  0  0  0  0  0  0  0  0  0
    4.9720  -12.2170   -0.3170 C   0  0  0  0  0  0  0  0  0  0  0  0
    3.6270  -12.2810    0.0600 C   0  0  0  0  0  0  0  0  0  0  0  0
    0.6140  -10.2270    0.0700 C   0  0  0  0  0  0  0  0  0  0  0  0
    0.2210   -9.2310    1.1900 C   0  0  0  0  0  0  0  0  0  0  0  0
   -3.1010   -9.3250    2.0381 H   0  0  0  0  0  0  0  0  0  0  0  0
   -2.2361   -8.5678    0.6578 H   0  0  0  0  0  0  0  0  0  0  0  0
   -2.5536  -10.3358    0.6578 H   0  0  0  0  0  0  0  0  0  0  0  0
   -1.0380   -9.0950    2.8190 H   0  0  0  0  0  0  0  0  0  0  0  0
   -0.0338  -11.1241    3.2813 H   0  0  0  0  0  0  0  0  0  0  0  0
   -1.7885  -11.4441    2.9304 H   0  0  0  0  0  0  0  0  0  0  0  0
   -0.1999  -13.0977    1.8583 H   0  0  0  0  0  0  0  0  0  0  0  0
   -1.2783  -12.2133    0.7028 H   0  0  0  0  0  0  0  0  0  0  0  0
    1.5990  -11.6530    1.2540 H   0  0  0  0  0  0  0  0  0  0  0  0
    1.0334  -13.6409   -0.1477 H   0  0  0  0  0  0  0  0  0  0  0  0
    0.5618  -12.3926   -1.3796 H   0  0  0  0  0  0  0  0  0  0  0  0
    2.2148  -12.6186   -3.0311 H   0  0  0  0  0  0  0  0  0  0  0  0
    4.6104  -12.5273   -3.6913 H   0  0  0  0  0  0  0  0  0  0  0  0
    6.9873  -10.3908   -3.1662 H   0  0  0  0  0  0  0  0  0  0  0  0
   11.9996  -12.0265   -1.1264 H   0  0  0  0  0  0  0  0  0  0  0  0
   14.1545  -11.3644   -2.1828 H   0  0  0  0  0  0  0  0  0  0  0  0
   14.7267  -12.1636   -4.4699 H   0  0  0  0  0  0  0  0  0  0  0  0
   13.1480  -13.0180   -6.7450 H   0  0  0  0  0  0  0  0  0  0  0  0
   12.1091  -14.3435   -8.2943 H   0  0  0  0  0  0  0  0  0  0  0  0
   12.3964  -14.6427  -10.7532 H   0  0  0  0  0  0  0  0  0  0  0  0
   14.5318  -15.5448  -11.6617 H   0  0  0  0  0  0  0  0  0  0  0  0
   16.1204  -15.8284   -7.6415 H   0  0  0  0  0  0  0  0  0  0  0  0
   10.9665  -14.2684   -4.6780 H   0  0  0  0  0  0  0  0  0  0  0  0
   10.8772  -15.4155   -1.4279 H   0  0  0  0  0  0  0  0  0  0  0  0
    8.6302  -16.0584   -0.3860 H   0  0  0  0  0  0  0  0  0  0  0  0
    5.7478  -12.0798    0.4507 H   0  0  0  0  0  0  0  0  0  0  0  0
    3.3532  -12.1991    1.1222 H   0  0  0  0  0  0  0  0  0  0  0  0
    1.5601   -9.8981   -0.3846 H   0  0  0  0  0  0  0  0  0  0  0  0
   -0.1945  -10.2436   -0.6756 H   0  0  0  0  0  0  0  0  0  0  0  0
    1.0724   -9.1172    1.8772 H   0  0  0  0  0  0  0  0  0  0  0  0
   -0.0408   -8.2746    0.7138 H   0  0  0  0  0  0  0  0  0  0  0  0
  1  2  1  0
  2  3  1  0
  3  4  1  0
  4  5  1  0
  5  6  1  0
  6  7  1  0
  7  8  2  0
  8  9  1  0
  9 10  2  0
 10 11  1  0
 11 12  1  0
 12 13  2  0
 13 14  1  0
 14 15  1  0
 15 16  1  0
 16 17  2  0
 17 18  1  0
 18 19  2  0
 19 20  1  0
 20 21  1  0
 21 22  1  0
 22 23  2  0
 22 24  1  0
 24 25  2  0
 25 26  1  0
 26 27  2  0
 27 28  1  0
 28 29  1  0
 29 30  1  0
 29 31  1  0
 29 32  1  0
 28 33  2  0
 20 34  2  0
 15 35  2  0
 35 36  1  0
 36 37  2  0
 37 38  1  0
 10 39  1  0
 39 40  2  0
  5 41  1  0
 41 42  1  0
 42  2  1  0
 40  7  1  0
 38 11  2  0
 38 14  1  0
 34 16  1  0
 33 24  1  0
  1 43  1  0
  1 44  1  0
  1 45  1  0
  2 46  1  0
  3 47  1  0
  3 48  1  0
  4 49  1  0
  4 50  1  0
  5 51  1  0
  6 52  1  0
  6 53  1  0
  8 54  1  0
  9 55  1  0
 12 56  1  0
 17 57  1  0
 18 58  1  0
 19 59  1  0
 21 60  1  0
 25 61  1  0
 26 62  1  0
 27 63  1  0
 33 64  1  0
 34 65  1  0
 35 66  1  0
 36 67  1  0
 39 68  1  0
 40 69  1  0
 41 70  1  0
 41 71  1  0
 42 72  1  0
 42 73  1  0
M  CHG  2   2   1   5   1
M  END
>  <meeko>  (4) 
{"is_sidechain": [false], "free_energy": -9.285, "intermolecular_energy": -12.956, "internal_energy": -1.289}

$$$$
LIB_BUZOTBWJKYSTEL__M_PUB_ALL__e8__s20260927
     RDKit          3D

 73 78  0  0  0  0  0  0  0  0999 V2000
   -0.0020   -9.1030    1.3360 C   0  0  0  0  0  0  0  0  0  0  0  0
   -1.4460   -9.1450    1.7790 N   0  0  0  0  0  0  0  0  0  0  0  0
   -2.4020   -9.6580    0.7080 C   0  0  0  0  0  0  0  0  0  0  0  0
   -2.3780  -11.2010    0.5880 C   0  0  0  0  0  0  0  0  0  0  0  0
   -2.5990  -11.8720    1.9480 N   0  0  0  0  0  0  0  0  0  0  0  0
   -2.5680  -13.4000    1.8550 C   0  0  0  0  0  0  0  0  0  0  0  0
   -3.6560  -14.0380    2.6700 C   0  0  0  0  0  0  0  0  0  0  0  0
   -4.8600  -13.3590    2.8980 C   0  0  0  0  0  0  0  0  0  0  0  0
   -5.8340  -13.9100    3.7330 C   0  0  0  0  0  0  0  0  0  0  0  0
   -5.6310  -15.1500    4.3480 C   0  0  0  0  0  0  0  0  0  0  0  0
   -6.6370  -15.7180    5.2260 C   0  0  0  0  0  0  0  0  0  0  0  0
   -8.0020  -15.9660    4.9990 C   0  0  0  0  0  0  0  0  0  0  0  0
   -8.6150  -16.5120    6.0450 N   0  0  0  0  0  0  0  0  0  0  0  0
   -7.6540  -16.6120    7.0050 N   0  0  0  0  0  0  0  0  0  0  0  0
   -7.7780  -17.0870    8.3260 C   0  0  0  0  0  0  0  0  0  0  0  0
   -9.0680  -17.5480    8.8840 C   0  0  0  0  0  0  0  0  0  0  0  0
  -10.1180  -16.6510    9.1060 C   0  0  0  0  0  0  0  0  0  0  0  0
  -11.3300  -17.1000    9.6300 C   0  0  0  0  0  0  0  0  0  0  0  0
  -11.5060  -18.4510    9.9320 C   0  0  0  0  0  0  0  0  0  0  0  0
  -10.4740  -19.3680    9.7120 C   0  0  0  0  0  0  0  0  0  0  0  0
  -10.7230  -20.7170   10.0400 N   0  0  0  0  0  0  0  0  0  0  0  0
  -10.6320  -21.3040   11.2900 C   0  0  0  0  0  0  0  0  0  0  0  0
  -10.2100  -20.7820   12.3150 O   0  0  0  0  0  0  0  0  0  0  0  0
  -11.0530  -22.7340   11.3440 C   0  0  0  0  0  0  0  0  0  0  0  0
  -10.9980  -23.4020   12.5720 C   0  0  0  0  0  0  0  0  0  0  0  0
  -11.3920  -24.7370   12.6620 C   0  0  0  0  0  0  0  0  0  0  0  0
  -11.8500  -25.4090   11.5270 C   0  0  0  0  0  0  0  0  0  0  0  0
  -11.9230  -24.7510   10.2880 C   0  0  0  0  0  0  0  0  0  0  0  0
  -12.4570  -25.4620    9.0670 C   0  0  0  0  0  0  0  0  0  0  0  0
  -13.7190  -25.0820    8.7310 F   0  0  0  0  0  0  0  0  0  0  0  0
  -12.5050  -26.8140    9.2340 F   0  0  0  0  0  0  0  0  0  0  0  0
  -11.6870  -25.2460    7.9670 F   0  0  0  0  0  0  0  0  0  0  0  0
  -11.5300  -23.4030   10.2080 C   0  0  0  0  0  0  0  0  0  0  0  0
   -9.2580  -18.9060    9.2000 C   0  0  0  0  0  0  0  0  0  0  0  0
   -6.6830  -17.1260    9.1080 C   0  0  0  0  0  0  0  0  0  0  0  0
   -5.4190  -16.6510    8.4930 C   0  0  0  0  0  0  0  0  0  0  0  0
   -5.2690  -16.2010    7.2840 N   0  0  0  0  0  0  0  0  0  0  0  0
   -6.4090  -16.1600    6.5190 C   0  0  0  0  0  0  0  0  0  0  0  0
   -4.4450  -15.8470    4.0900 C   0  0  0  0  0  0  0  0  0  0  0  0
   -3.4630  -15.2960    3.2610 C   0  0  0  0  0  0  0  0  0  0  0  0
   -1.6310  -11.3700    3.0130 C   0  0  0  0  0  0  0  0  0  0  0  0
   -1.6590   -9.8250    3.1260 C   0  0  0  0  0  0  0  0  0  0  0  0
    0.6523   -9.0840    2.2200 H   0  0  0  0  0  0  0  0  0  0  0  0
    0.2226   -9.9950    0.7327 H   0  0  0  0  0  0  0  0  0  0  0  0
    0.1703   -8.1995    0.7327 H   0  0  0  0  0  0  0  0  0  0  0  0
   -1.6900   -8.1500    1.9210 H   0  0  0  0  0  0  0  0  0  0  0  0
   -3.4233   -9.3391    0.9636 H   0  0  0  0  0  0  0  0  0  0  0  0
   -2.0801   -9.2408   -0.2576 H   0  0  0  0  0  0  0  0  0  0  0  0
   -3.1743  -11.5186   -0.1012 H   0  0  0  0  0  0  0  0  0  0  0  0
   -1.3903  -11.5031    0.2097 H   0  0  0  0  0  0  0  0  0  0  0  0
   -3.5640  -11.6620    2.2470 H   0  0  0  0  0  0  0  0  0  0  0  0
   -2.6946  -13.6939    0.8026 H   0  0  0  0  0  0  0  0  0  0  0  0
   -1.6015  -13.7439    2.2521 H   0  0  0  0  0  0  0  0  0  0  0  0
   -5.0390  -12.3863    2.4165 H   0  0  0  0  0  0  0  0  0  0  0  0
   -6.7718  -13.3628    3.9093 H   0  0  0  0  0  0  0  0  0  0  0  0
   -8.5111  -15.7322    4.0524 H   0  0  0  0  0  0  0  0  0  0  0  0
   -9.9871  -15.5855    8.8660 H   0  0  0  0  0  0  0  0  0  0  0  0
  -12.1493  -16.3874    9.8057 H   0  0  0  0  0  0  0  0  0  0  0  0
  -12.4644  -18.7971   10.3464 H   0  0  0  0  0  0  0  0  0  0  0  0
  -10.9430  -21.3240    9.2600 H   0  0  0  0  0  0  0  0  0  0  0  0
  -10.6431  -22.8731   13.4688 H   0  0  0  0  0  0  0  0  0  0  0  0
  -11.3419  -25.2608   13.6280 H   0  0  0  0  0  0  0  0  0  0  0  0
  -12.1563  -26.4627   11.6037 H   0  0  0  0  0  0  0  0  0  0  0  0
  -11.5973  -22.8702    9.2480 H   0  0  0  0  0  0  0  0  0  0  0  0
   -8.4342  -19.6174    9.0412 H   0  0  0  0  0  0  0  0  0  0  0  0
   -6.7231  -17.4898   10.1453 H   0  0  0  0  0  0  0  0  0  0  0  0
   -4.5188  -16.6832    9.1243 H   0  0  0  0  0  0  0  0  0  0  0  0
   -4.2841  -16.8363    4.5431 H   0  0  0  0  0  0  0  0  0  0  0  0
   -2.5332  -15.8522    3.0709 H   0  0  0  0  0  0  0  0  0  0  0  0
   -1.9118  -11.8041    3.9839 H   0  0  0  0  0  0  0  0  0  0  0  0
   -0.6142  -11.6757    2.7255 H   0  0  0  0  0  0  0  0  0  0  0  0
   -2.6355   -9.5169    3.5278 H   0  0  0  0  0  0  0  0  0  0  0  0
   -0.8379   -9.5203    3.7915 H   0  0  0  0  0  0  0  0  0  0  0  0
  1  2  1  0
  2  3  1  0
  3  4  1  0
  4  5  1  0
  5  6  1  0
  6  7  1  0
  7  8  2  0
  8  9  1  0
  9 10  2  0
 10 11  1  0
 11 12  1  0
 12 13  2  0
 13 14  1  0
 14 15  1  0
 15 16  1  0
 16 17  2  0
 17 18  1  0
 18 19  2  0
 19 20  1  0
 20 21  1  0
 21 22  1  0
 22 23  2  0
 22 24  1  0
 24 25  2  0
 25 26  1  0
 26 27  2  0
 27 28  1  0
 28 29  1  0
 29 30  1  0
 29 31  1  0
 29 32  1  0
 28 33  2  0
 20 34  2  0
 15 35  2  0
 35 36  1  0
 36 37  2  0
 37 38  1  0
 10 39  1  0
 39 40  2  0
  5 41  1  0
 41 42  1  0
 42  2  1  0
 40  7  1  0
 38 11  2  0
 38 14  1  0
 34 16  1  0
 33 24  1  0
  1 43  1  0
  1 44  1  0
  1 45  1  0
  2 46  1  0
  3 47  1  0
  3 48  1  0
  4 49  1  0
  4 50  1  0
  5 51  1  0
  6 52  1  0
  6 53  1  0
  8 54  1  0
  9 55  1  0
 12 56  1  0
 17 57  1  0
 18 58  1  0
 19 59  1  0
 21 60  1  0
 25 61  1  0
 26 62  1  0
 27 63  1  0
 33 64  1  0
 34 65  1  0
 35 66  1  0
 36 67  1  0
 39 68  1  0
 40 69  1  0
 41 70  1  0
 41 71  1  0
 42 72  1  0
 42 73  1  0
M  CHG  2   2   1   5   1
M  END
>  <meeko>  (5) 
{"is_sidechain": [false], "free_energy": -9.27, "intermolecular_energy": -13.085, "internal_energy": -1.14}

$$$$
LIB_BUZOTBWJKYSTEL__M_PUB_ALL__e8__s20260927
     RDKit          3D

 73 78  0  0  0  0  0  0  0  0999 V2000
   13.8990  -14.9340   -5.7400 C   0  0  0  0  0  0  0  0  0  0  0  0
   12.9820  -13.7640   -5.4670 N   0  0  0  0  0  0  0  0  0  0  0  0
   11.5000  -14.1150   -5.5440 C   0  0  0  0  0  0  0  0  0  0  0  0
   10.9970  -14.8270   -4.2640 C   0  0  0  0  0  0  0  0  0  0  0  0
   11.3520  -14.0300   -3.0040 N   0  0  0  0  0  0  0  0  0  0  0  0
   10.8730  -14.7220   -1.7240 C   0  0  0  0  0  0  0  0  0  0  0  0
    9.5270  -14.2260   -1.2840 C   0  0  0  0  0  0  0  0  0  0  0  0
    8.5060  -15.1340   -0.9700 C   0  0  0  0  0  0  0  0  0  0  0  0
    7.2260  -14.6750   -0.6510 C   0  0  0  0  0  0  0  0  0  0  0  0
    6.9420  -13.3050   -0.6310 C   0  0  0  0  0  0  0  0  0  0  0  0
    5.6090  -12.8270   -0.3130 C   0  0  0  0  0  0  0  0  0  0  0  0
    5.0640  -12.4130    0.9150 C   0  0  0  0  0  0  0  0  0  0  0  0
    3.7960  -12.0250    0.8190 N   0  0  0  0  0  0  0  0  0  0  0  0
    3.4690  -12.2040   -0.4910 N   0  0  0  0  0  0  0  0  0  0  0  0
    2.2310  -11.9850   -1.1260 C   0  0  0  0  0  0  0  0  0  0  0  0
    1.0340  -11.5230   -0.3890 C   0  0  0  0  0  0  0  0  0  0  0  0
    0.6170  -10.1900   -0.4550 C   0  0  0  0  0  0  0  0  0  0  0  0
   -0.5160   -9.7690    0.2420 C   0  0  0  0  0  0  0  0  0  0  0  0
   -1.2450  -10.6790    1.0090 C   0  0  0  0  0  0  0  0  0  0  0  0
   -0.8520  -12.0180    1.0860 C   0  0  0  0  0  0  0  0  0  0  0  0
   -1.6380  -12.8810    1.8790 N   0  0  0  0  0  0  0  0  0  0  0  0
   -2.8570  -13.4450    1.5450 C   0  0  0  0  0  0  0  0  0  0  0  0
   -3.5240  -13.2060    0.5450 O   0  0  0  0  0  0  0  0  0  0  0  0
   -3.4040  -14.3980    2.5520 C   0  0  0  0  0  0  0  0  0  0  0  0
   -2.6770  -15.5580    2.8410 C   0  0  0  0  0  0  0  0  0  0  0  0
   -3.1550  -16.4680    3.7840 C   0  0  0  0  0  0  0  0  0  0  0  0
   -4.3570  -16.2200    4.4490 C   0  0  0  0  0  0  0  0  0  0  0  0
   -5.0940  -15.0550    4.1820 C   0  0  0  0  0  0  0  0  0  0  0  0
   -6.3730  -14.7620    4.9300 C   0  0  0  0  0  0  0  0  0  0  0  0
   -7.4940  -14.9980    4.1970 F   0  0  0  0  0  0  0  0  0  0  0  0
   -6.4520  -13.4620    5.3300 F   0  0  0  0  0  0  0  0  0  0  0  0
   -6.4910  -15.5100    6.0600 F   0  0  0  0  0  0  0  0  0  0  0  0
   -4.6010  -14.1390    3.2340 C   0  0  0  0  0  0  0  0  0  0  0  0
    0.2920  -12.4280    0.3940 C   0  0  0  0  0  0  0  0  0  0  0  0
    2.1320  -12.2010   -2.4510 C   0  0  0  0  0  0  0  0  0  0  0  0
    3.3640  -12.6630   -3.1340 C   0  0  0  0  0  0  0  0  0  0  0  0
    4.5190  -12.8820   -2.5820 N   0  0  0  0  0  0  0  0  0  0  0  0
    4.5810  -12.6670   -1.2260 C   0  0  0  0  0  0  0  0  0  0  0  0
    7.9700  -12.3960   -0.9060 C   0  0  0  0  0  0  0  0  0  0  0  0
    9.2510  -12.8510   -1.2340 C   0  0  0  0  0  0  0  0  0  0  0  0
   12.8370  -13.6950   -2.9210 C   0  0  0  0  0  0  0  0  0  0  0  0
   13.3340  -12.9850   -4.2050 C   0  0  0  0  0  0  0  0  0  0  0  0
   14.2370  -15.3653   -4.7862 H   0  0  0  0  0  0  0  0  0  0  0  0
   13.3568  -15.6982   -6.3162 H   0  0  0  0  0  0  0  0  0  0  0  0
   14.7706  -14.5901   -6.3162 H   0  0  0  0  0  0  0  0  0  0  0  0
   13.1600  -13.1210   -6.2570 H   0  0  0  0  0  0  0  0  0  0  0  0
   10.9238  -13.1883   -5.6829 H   0  0  0  0  0  0  0  0  0  0  0  0
   11.3612  -14.8050   -6.3893 H   0  0  0  0  0  0  0  0  0  0  0  0
    9.9040  -14.9369   -4.3217 H   0  0  0  0  0  0  0  0  0  0  0  0
   11.4856  -15.8105   -4.2004 H   0  0  0  0  0  0  0  0  0  0  0  0
   10.8120  -13.1510   -3.0270 H   0  0  0  0  0  0  0  0  0  0  0  0
   10.8091  -15.8045   -1.9087 H   0  0  0  0  0  0  0  0  0  0  0  0
   11.5951  -14.4952   -0.9258 H   0  0  0  0  0  0  0  0  0  0  0  0
    8.7142  -16.2141   -0.9749 H   0  0  0  0  0  0  0  0  0  0  0  0
    6.4324  -15.3985   -0.4129 H   0  0  0  0  0  0  0  0  0  0  0  0
    5.6290  -12.4104    1.8588 H   0  0  0  0  0  0  0  0  0  0  0  0
    1.1858   -9.4687   -1.0602 H   0  0  0  0  0  0  0  0  0  0  0  0
   -0.8353   -8.7178    0.1869 H   0  0  0  0  0  0  0  0  0  0  0  0
   -2.1361  -10.3396    1.5574 H   0  0  0  0  0  0  0  0  0  0  0  0
   -1.2860  -13.0600    2.8110 H   0  0  0  0  0  0  0  0  0  0  0  0
   -1.7262  -15.7529    2.3233 H   0  0  0  0  0  0  0  0  0  0  0  0
   -2.5840  -17.3821    4.0039 H   0  0  0  0  0  0  0  0  0  0  0  0
   -4.7301  -16.9436    5.1887 H   0  0  0  0  0  0  0  0  0  0  0  0
   -5.1587  -13.2137    3.0269 H   0  0  0  0  0  0  0  0  0  0  0  0
    0.6180  -13.4763    0.4626 H   0  0  0  0  0  0  0  0  0  0  0  0
    1.1898  -12.0435   -2.9964 H   0  0  0  0  0  0  0  0  0  0  0  0
    3.2927  -12.8380   -4.2177 H   0  0  0  0  0  0  0  0  0  0  0  0
    7.7688  -11.3154   -0.8638 H   0  0  0  0  0  0  0  0  0  0  0  0
   10.0482  -12.1258   -1.4544 H   0  0  0  0  0  0  0  0  0  0  0  0
   13.0060  -13.0331   -2.0589 H   0  0  0  0  0  0  0  0  0  0  0  0
   13.3962  -14.6357   -2.8096 H   0  0  0  0  0  0  0  0  0  0  0  0
   12.8691  -11.9897   -4.2619 H   0  0  0  0  0  0  0  0  0  0  0  0
   14.4301  -12.9124   -4.1478 H   0  0  0  0  0  0  0  0  0  0  0  0
  1  2  1  0
  2  3  1  0
  3  4  1  0
  4  5  1  0
  5  6  1  0
  6  7  1  0
  7  8  2  0
  8  9  1  0
  9 10  2  0
 10 11  1  0
 11 12  1  0
 12 13  2  0
 13 14  1  0
 14 15  1  0
 15 16  1  0
 16 17  2  0
 17 18  1  0
 18 19  2  0
 19 20  1  0
 20 21  1  0
 21 22  1  0
 22 23  2  0
 22 24  1  0
 24 25  2  0
 25 26  1  0
 26 27  2  0
 27 28  1  0
 28 29  1  0
 29 30  1  0
 29 31  1  0
 29 32  1  0
 28 33  2  0
 20 34  2  0
 15 35  2  0
 35 36  1  0
 36 37  2  0
 37 38  1  0
 10 39  1  0
 39 40  2  0
  5 41  1  0
 41 42  1  0
 42  2  1  0
 40  7  1  0
 38 11  2  0
 38 14  1  0
 34 16  1  0
 33 24  1  0
  1 43  1  0
  1 44  1  0
  1 45  1  0
  2 46  1  0
  3 47  1  0
  3 48  1  0
  4 49  1  0
  4 50  1  0
  5 51  1  0
  6 52  1  0
  6 53  1  0
  8 54  1  0
  9 55  1  0
 12 56  1  0
 17 57  1  0
 18 58  1  0
 19 59  1  0
 21 60  1  0
 25 61  1  0
 26 62  1  0
 27 63  1  0
 33 64  1  0
 34 65  1  0
 35 66  1  0
 36 67  1  0
 39 68  1  0
 40 69  1  0
 41 70  1  0
 41 71  1  0
 42 72  1  0
 42 73  1  0
M  CHG  2   2   1   5   1
M  END
>  <meeko>  (6) 
{"is_sidechain": [false], "free_energy": -8.982, "intermolecular_energy": -12.515, "internal_energy": -1.303}

$$$$
LIB_BUZOTBWJKYSTEL__M_PUB_ALL__e8__s20260927
     RDKit          3D

 73 78  0  0  0  0  0  0  0  0999 V2000
    2.3700  -13.6220   -0.0100 C   0  0  0  0  0  0  0  0  0  0  0  0
    1.6430  -14.6960    0.7650 N   0  0  0  0  0  0  0  0  0  0  0  0
    1.2540  -14.2770    2.1780 C   0  0  0  0  0  0  0  0  0  0  0  0
   -0.0110  -13.3840    2.1990 C   0  0  0  0  0  0  0  0  0  0  0  0
   -1.1680  -14.0370    1.4360 N   0  0  0  0  0  0  0  0  0  0  0  0
   -2.4280  -13.1650    1.4340 C   0  0  0  0  0  0  0  0  0  0  0  0
   -3.4650  -13.6700    2.3950 C   0  0  0  0  0  0  0  0  0  0  0  0
   -3.2900  -14.8990    3.0440 C   0  0  0  0  0  0  0  0  0  0  0  0
   -4.2960  -15.4140    3.8640 C   0  0  0  0  0  0  0  0  0  0  0  0
   -5.4900  -14.7110    4.0600 C   0  0  0  0  0  0  0  0  0  0  0  0
   -6.5410  -15.2510    4.9020 C   0  0  0  0  0  0  0  0  0  0  0  0
   -7.8700  -15.5860    4.5890 C   0  0  0  0  0  0  0  0  0  0  0  0
   -8.5450  -16.0720    5.6260 N   0  0  0  0  0  0  0  0  0  0  0  0
   -7.6650  -16.0420    6.6650 N   0  0  0  0  0  0  0  0  0  0  0  0
   -7.8790  -16.4090    8.0090 C   0  0  0  0  0  0  0  0  0  0  0  0
   -9.1900  -16.8850    8.5000 C   0  0  0  0  0  0  0  0  0  0  0  0
  -10.2950  -16.0280    8.5490 C   0  0  0  0  0  0  0  0  0  0  0  0
  -11.5270  -16.4900    9.0120 C   0  0  0  0  0  0  0  0  0  0  0  0
  -11.6670  -17.8160    9.4250 C   0  0  0  0  0  0  0  0  0  0  0  0
  -10.5800  -18.6930    9.3790 C   0  0  0  0  0  0  0  0  0  0  0  0
  -10.7960  -20.0190    9.8120 N   0  0  0  0  0  0  0  0  0  0  0  0
  -11.1380  -21.1080    9.0290 C   0  0  0  0  0  0  0  0  0  0  0  0
  -11.4230  -21.0920    7.8380 O   0  0  0  0  0  0  0  0  0  0  0  0
  -11.2030  -22.4080    9.7570 C   0  0  0  0  0  0  0  0  0  0  0  0
  -10.5810  -22.5070   11.0070 C   0  0  0  0  0  0  0  0  0  0  0  0
  -10.6280  -23.7050   11.7200 C   0  0  0  0  0  0  0  0  0  0  0  0
  -11.3040  -24.8060   11.1930 C   0  0  0  0  0  0  0  0  0  0  0  0
  -11.9450  -24.7220    9.9460 C   0  0  0  0  0  0  0  0  0  0  0  0
  -12.7140  -25.8980    9.3920 C   0  0  0  0  0  0  0  0  0  0  0  0
  -12.9620  -26.8640   10.3170 F   0  0  0  0  0  0  0  0  0  0  0  0
  -12.0540  -26.5140    8.3720 F   0  0  0  0  0  0  0  0  0  0  0  0
  -13.9240  -25.5320    8.8900 F   0  0  0  0  0  0  0  0  0  0  0  0
  -11.8980  -23.5080    9.2370 C   0  0  0  0  0  0  0  0  0  0  0  0
   -9.3460  -18.2170    8.9270 C   0  0  0  0  0  0  0  0  0  0  0  0
   -6.8520  -16.3280    8.8760 C   0  0  0  0  0  0  0  0  0  0  0  0
   -5.5630  -15.8440    8.3250 C   0  0  0  0  0  0  0  0  0  0  0  0
   -5.3320  -15.4910    7.0970 N   0  0  0  0  0  0  0  0  0  0  0  0
   -6.4040  -15.5710    6.2420 C   0  0  0  0  0  0  0  0  0  0  0  0
   -5.6500  -13.4650    3.4440 C   0  0  0  0  0  0  0  0  0  0  0  0
   -4.6490  -12.9490    2.6140 C   0  0  0  0  0  0  0  0  0  0  0  0
   -0.7820  -14.4390    0.0170 C   0  0  0  0  0  0  0  0  0  0  0  0
    0.4860  -15.3300    0.0040 C   0  0  0  0  0  0  0  0  0  0  0  0
    2.8446  -12.9208    0.6922 H   0  0  0  0  0  0  0  0  0  0  0  0
    3.1411  -14.0851   -0.6432 H   0  0  0  0  0  0  0  0  0  0  0  0
    1.6536  -13.0782   -0.6432 H   0  0  0  0  0  0  0  0  0  0  0  0
    2.3520  -15.4420    0.8780 H   0  0  0  0  0  0  0  0  0  0  0  0
    1.0589  -15.1808    2.7739 H   0  0  0  0  0  0  0  0  0  0  0  0
    2.0860  -13.6917    2.5965 H   0  0  0  0  0  0  0  0  0  0  0  0
   -0.3171  -13.2213    3.2429 H   0  0  0  0  0  0  0  0  0  0  0  0
    0.2310  -12.4287    1.7102 H   0  0  0  0  0  0  0  0  0  0  0  0
   -1.4520  -14.8790    1.9580 H   0  0  0  0  0  0  0  0  0  0  0  0
   -2.1502  -12.1394    1.7185 H   0  0  0  0  0  0  0  0  0  0  0  0
   -2.8596  -13.1953    0.4227 H   0  0  0  0  0  0  0  0  0  0  0  0
   -2.3547  -15.4616    2.9069 H   0  0  0  0  0  0  0  0  0  0  0  0
   -4.1482  -16.3837    4.3618 H   0  0  0  0  0  0  0  0  0  0  0  0
   -8.3070  -15.4589    3.5876 H   0  0  0  0  0  0  0  0  0  0  0  0
  -10.1915  -14.9834    8.2203 H   0  0  0  0  0  0  0  0  0  0  0  0
  -12.3895  -15.8084    9.0517 H   0  0  0  0  0  0  0  0  0  0  0  0
  -12.6412  -18.1736    9.7898 H   0  0  0  0  0  0  0  0  0  0  0  0
  -10.7420  -20.1670   10.8120 H   0  0  0  0  0  0  0  0  0  0  0  0
  -10.0539  -21.6381   11.4280 H   0  0  0  0  0  0  0  0  0  0  0  0
  -10.1317  -23.7818   12.6986 H   0  0  0  0  0  0  0  0  0  0  0  0
  -11.3352  -25.7485   11.7593 H   0  0  0  0  0  0  0  0  0  0  0  0
  -12.4105  -23.4216    8.2675 H   0  0  0  0  0  0  0  0  0  0  0  0
   -8.4808  -18.8959    8.9046 H   0  0  0  0  0  0  0  0  0  0  0  0
   -6.9630  -16.6055    9.9346 H   0  0  0  0  0  0  0  0  0  0  0  0
   -4.7184  -15.7774    9.0266 H   0  0  0  0  0  0  0  0  0  0  0  0
   -6.5701  -12.8866    3.6137 H   0  0  0  0  0  0  0  0  0  0  0  0
   -4.7909  -11.9716    2.1298 H   0  0  0  0  0  0  0  0  0  0  0  0
   -1.6152  -14.9965   -0.4357 H   0  0  0  0  0  0  0  0  0  0  0  0
   -0.5667  -13.5240   -0.5544 H   0  0  0  0  0  0  0  0  0  0  0  0
    0.2440  -16.2972    0.4688 H   0  0  0  0  0  0  0  0  0  0  0  0
    0.7993  -15.4559   -1.0429 H   0  0  0  0  0  0  0  0  0  0  0  0
  1  2  1  0
  2  3  1  0
  3  4  1  0
  4  5  1  0
  5  6  1  0
  6  7  1  0
  7  8  2  0
  8  9  1  0
  9 10  2  0
 10 11  1  0
 11 12  1  0
 12 13  2  0
 13 14  1  0
 14 15  1  0
 15 16  1  0
 16 17  2  0
 17 18  1  0
 18 19  2  0
 19 20  1  0
 20 21  1  0
 21 22  1  0
 22 23  2  0
 22 24  1  0
 24 25  2  0
 25 26  1  0
 26 27  2  0
 27 28  1  0
 28 29  1  0
 29 30  1  0
 29 31  1  0
 29 32  1  0
 28 33  2  0
 20 34  2  0
 15 35  2  0
 35 36  1  0
 36 37  2  0
 37 38  1  0
 10 39  1  0
 39 40  2  0
  5 41  1  0
 41 42  1  0
 42  2  1  0
 40  7  1  0
 38 11  2  0
 38 14  1  0
 34 16  1  0
 33 24  1  0
  1 43  1  0
  1 44  1  0
  1 45  1  0
  2 46  1  0
  3 47  1  0
  3 48  1  0
  4 49  1  0
  4 50  1  0
  5 51  1  0
  6 52  1  0
  6 53  1  0
  8 54  1  0
  9 55  1  0
 12 56  1  0
 17 57  1  0
 18 58  1  0
 19 59  1  0
 21 60  1  0
 25 61  1  0
 26 62  1  0
 27 63  1  0
 33 64  1  0
 34 65  1  0
 35 66  1  0
 36 67  1  0
 39 68  1  0
 40 69  1  0
 41 70  1  0
 41 71  1  0
 42 72  1  0
 42 73  1  0
M  CHG  2   2   1   5   1
M  END
>  <meeko>  (7) 
{"is_sidechain": [false], "free_energy": -8.893, "intermolecular_energy": -12.531, "internal_energy": -1.161}

$$$$
LIB_BUZOTBWJKYSTEL__M_PUB_ALL__e8__s20260927
     RDKit          3D

 73 78  0  0  0  0  0  0  0  0999 V2000
   -8.0830  -15.7490    7.6580 C   0  0  0  0  0  0  0  0  0  0  0  0
   -6.9320  -14.8060    7.3920 N   0  0  0  0  0  0  0  0  0  0  0  0
   -5.6320  -15.2160    8.0740 C   0  0  0  0  0  0  0  0  0  0  0  0
   -4.9000  -16.3480    7.3120 C   0  0  0  0  0  0  0  0  0  0  0  0
   -4.7070  -15.9920    5.8340 N   0  0  0  0  0  0  0  0  0  0  0  0
   -3.9940  -17.1040    5.0570 C   0  0  0  0  0  0  0  0  0  0  0  0
   -3.0130  -16.5570    4.0600 C   0  0  0  0  0  0  0  0  0  0  0  0
   -1.8410  -15.9230    4.4950 C   0  0  0  0  0  0  0  0  0  0  0  0
   -0.9750  -15.3310    3.5740 C   0  0  0  0  0  0  0  0  0  0  0  0
   -1.2550  -15.3680    2.2030 C   0  0  0  0  0  0  0  0  0  0  0  0
   -0.3630  -14.7420    1.2460 C   0  0  0  0  0  0  0  0  0  0  0  0
    0.4190  -15.3140    0.2260 C   0  0  0  0  0  0  0  0  0  0  0  0
    1.1110  -14.4160   -0.4680 N   0  0  0  0  0  0  0  0  0  0  0  0
    0.8130  -13.2180    0.1070 N   0  0  0  0  0  0  0  0  0  0  0  0
    1.3090  -11.9400   -0.2180 C   0  0  0  0  0  0  0  0  0  0  0  0
    2.3090  -11.7270   -1.2870 C   0  0  0  0  0  0  0  0  0  0  0  0
    1.9760  -11.0410   -2.4590 C   0  0  0  0  0  0  0  0  0  0  0  0
    2.9300  -10.8440   -3.4570 C   0  0  0  0  0  0  0  0  0  0  0  0
    4.2290  -11.3270   -3.2900 C   0  0  0  0  0  0  0  0  0  0  0  0
    4.5880  -12.0100   -2.1240 C   0  0  0  0  0  0  0  0  0  0  0  0
    5.9190  -12.4680   -2.0240 N   0  0  0  0  0  0  0  0  0  0  0  0
    6.9740  -11.8380   -1.3890 C   0  0  0  0  0  0  0  0  0  0  0  0
    6.9670  -10.7160   -0.8960 O   0  0  0  0  0  0  0  0  0  0  0  0
    8.2460  -12.6150   -1.3650 C   0  0  0  0  0  0  0  0  0  0  0  0
    8.3180  -13.8040   -2.1000 C   0  0  0  0  0  0  0  0  0  0  0  0
    9.4950  -14.5530   -2.1070 C   0  0  0  0  0  0  0  0  0  0  0  0
   10.6080  -14.1140   -1.3870 C   0  0  0  0  0  0  0  0  0  0  0  0
   10.5580  -12.9180   -0.6540 C   0  0  0  0  0  0  0  0  0  0  0  0
   11.7740  -12.4180    0.0910 C   0  0  0  0  0  0  0  0  0  0  0  0
   11.4870  -11.4520    1.0050 F   0  0  0  0  0  0  0  0  0  0  0  0
   12.7080  -11.8810   -0.7430 F   0  0  0  0  0  0  0  0  0  0  0  0
   12.4050  -13.4120    0.7720 F   0  0  0  0  0  0  0  0  0  0  0  0
    9.3700  -12.1650   -0.6580 C   0  0  0  0  0  0  0  0  0  0  0  0
    3.6210  -12.2140   -1.1360 C   0  0  0  0  0  0  0  0  0  0  0  0
    0.8550  -10.8730    0.4660 C   0  0  0  0  0  0  0  0  0  0  0  0
   -0.1460  -11.1500    1.5250 C   0  0  0  0  0  0  0  0  0  0  0  0
   -0.6200  -12.3130    1.8560 N   0  0  0  0  0  0  0  0  0  0  0  0
   -0.1240  -13.3810    1.1490 C   0  0  0  0  0  0  0  0  0  0  0  0
   -2.4040  -16.0340    1.7650 C   0  0  0  0  0  0  0  0  0  0  0  0
   -3.2790  -16.6210    2.6850 C   0  0  0  0  0  0  0  0  0  0  0  0
   -6.0110  -15.5990    5.1490 C   0  0  0  0  0  0  0  0  0  0  0  0
   -6.7380  -14.4680    5.9190 C   0  0  0  0  0  0  0  0  0  0  0  0
   -8.2210  -15.8621    8.7434 H   0  0  0  0  0  0  0  0  0  0  0  0
   -9.0020  -15.3408    7.2121 H   0  0  0  0  0  0  0  0  0  0  0  0
   -7.8636  -16.7303    7.2121 H   0  0  0  0  0  0  0  0  0  0  0  0
   -7.2240  -13.9250    7.8490 H   0  0  0  0  0  0  0  0  0  0  0  0
   -4.9692  -14.3398    8.1278 H   0  0  0  0  0  0  0  0  0  0  0  0
   -5.8824  -15.5927    9.0767 H   0  0  0  0  0  0  0  0  0  0  0  0
   -3.9145  -16.5107    7.7728 H   0  0  0  0  0  0  0  0  0  0  0  0
   -5.5135  -17.2590    7.3718 H   0  0  0  0  0  0  0  0  0  0  0  0
   -4.0510  -15.1980    5.7860 H   0  0  0  0  0  0  0  0  0  0  0  0
   -3.4549  -17.7453    5.7699 H   0  0  0  0  0  0  0  0  0  0  0  0
   -4.7560  -17.6736    4.5049 H   0  0  0  0  0  0  0  0  0  0  0  0
   -1.6023  -15.8918    5.5683 H   0  0  0  0  0  0  0  0  0  0  0  0
   -0.0626  -14.8299    3.9295 H   0  0  0  0  0  0  0  0  0  0  0  0
    0.4542  -16.3946    0.0233 H   0  0  0  0  0  0  0  0  0  0  0  0
    0.9552  -10.6543   -2.5947 H   0  0  0  0  0  0  0  0  0  0  0  0
    2.6583  -10.3069   -4.3777 H   0  0  0  0  0  0  0  0  0  0  0  0
    4.9760  -11.1690   -4.0819 H   0  0  0  0  0  0  0  0  0  0  0  0
    6.1230  -13.3280   -2.5170 H   0  0  0  0  0  0  0  0  0  0  0  0
    7.4447  -14.1486   -2.6733 H   0  0  0  0  0  0  0  0  0  0  0  0
    9.5463  -15.4904   -2.6803 H   0  0  0  0  0  0  0  0  0  0  0  0
   11.5321  -14.7107   -1.3943 H   0  0  0  0  0  0  0  0  0  0  0  0
    9.3224  -11.2167   -0.1027 H   0  0  0  0  0  0  0  0  0  0  0  0
    3.8902  -12.7655   -0.2231 H   0  0  0  0  0  0  0  0  0  0  0  0
    1.2066   -9.8530    0.2516 H   0  0  0  0  0  0  0  0  0  0  0  0
   -0.5250  -10.2833    2.0864 H   0  0  0  0  0  0  0  0  0  0  0  0
   -2.6214  -16.0968    0.6885 H   0  0  0  0  0  0  0  0  0  0  0  0
   -4.1824  -17.1366    2.3270 H   0  0  0  0  0  0  0  0  0  0  0  0
   -5.7886  -15.2516    4.1293 H   0  0  0  0  0  0  0  0  0  0  0  0
   -6.6689  -16.4803    5.1274 H   0  0  0  0  0  0  0  0  0  0  0  0
   -6.1411  -13.5472    5.8426 H   0  0  0  0  0  0  0  0  0  0  0  0
   -7.7332  -14.3389    5.4686 H   0  0  0  0  0  0  0  0  0  0  0  0
  1  2  1  0
  2  3  1  0
  3  4  1  0
  4  5  1  0
  5  6  1  0
  6  7  1  0
  7  8  2  0
  8  9  1  0
  9 10  2  0
 10 11  1  0
 11 12  1  0
 12 13  2  0
 13 14  1  0
 14 15  1  0
 15 16  1  0
 16 17  2  0
 17 18  1  0
 18 19  2  0
 19 20  1  0
 20 21  1  0
 21 22  1  0
 22 23  2  0
 22 24  1  0
 24 25  2  0
 25 26  1  0
 26 27  2  0
 27 28  1  0
 28 29  1  0
 29 30  1  0
 29 31  1  0
 29 32  1  0
 28 33  2  0
 20 34  2  0
 15 35  2  0
 35 36  1  0
 36 37  2  0
 37 38  1  0
 10 39  1  0
 39 40  2  0
  5 41  1  0
 41 42  1  0
 42  2  1  0
 40  7  1  0
 38 11  2  0
 38 14  1  0
 34 16  1  0
 33 24  1  0
  1 43  1  0
  1 44  1  0
  1 45  1  0
  2 46  1  0
  3 47  1  0
  3 48  1  0
  4 49  1  0
  4 50  1  0
  5 51  1  0
  6 52  1  0
  6 53  1  0
  8 54  1  0
  9 55  1  0
 12 56  1  0
 17 57  1  0
 18 58  1  0
 19 59  1  0
 21 60  1  0
 25 61  1  0
 26 62  1  0
 27 63  1  0
 33 64  1  0
 34 65  1  0
 35 66  1  0
 36 67  1  0
 39 68  1  0
 40 69  1  0
 41 70  1  0
 41 71  1  0
 42 72  1  0
 42 73  1  0
M  CHG  2   2   1   5   1
M  END
>  <meeko>  (8) 
{"is_sidechain": [false], "free_energy": -8.83, "intermolecular_energy": -12.356, "internal_energy": -1.248}

$$$$
LIB_BUZOTBWJKYSTEL__M_PUB_ALL__e8__s20260927
     RDKit          3D

 73 78  0  0  0  0  0  0  0  0999 V2000
   11.9950  -15.4280   -9.0710 C   0  0  0  0  0  0  0  0  0  0  0  0
   11.5580  -14.1430   -8.4070 N   0  0  0  0  0  0  0  0  0  0  0  0
   10.8440  -13.1790   -9.3470 C   0  0  0  0  0  0  0  0  0  0  0  0
    9.3670  -13.5760   -9.5870 C   0  0  0  0  0  0  0  0  0  0  0  0
    8.6190  -13.7740   -8.2640 N   0  0  0  0  0  0  0  0  0  0  0  0
    7.1570  -14.1790   -8.4780 C   0  0  0  0  0  0  0  0  0  0  0  0
    6.3070  -13.8770   -7.2780 C   0  0  0  0  0  0  0  0  0  0  0  0
    6.1560  -14.8280   -6.2600 C   0  0  0  0  0  0  0  0  0  0  0  0
    5.2910  -14.5870   -5.1910 C   0  0  0  0  0  0  0  0  0  0  0  0
    4.5680  -13.3910   -5.1110 C   0  0  0  0  0  0  0  0  0  0  0  0
    3.6590  -13.1450   -4.0080 C   0  0  0  0  0  0  0  0  0  0  0  0
    2.2540  -13.1000   -3.9840 C   0  0  0  0  0  0  0  0  0  0  0  0
    1.7590  -12.8560   -2.7740 N   0  0  0  0  0  0  0  0  0  0  0  0
    2.8480  -12.7090   -1.9700 N   0  0  0  0  0  0  0  0  0  0  0  0
    2.8910  -12.3980   -0.5960 C   0  0  0  0  0  0  0  0  0  0  0  0
    1.6680  -12.1500    0.1980 C   0  0  0  0  0  0  0  0  0  0  0  0
    1.2000  -10.8490    0.4140 C   0  0  0  0  0  0  0  0  0  0  0  0
    0.0440  -10.6300    1.1620 C   0  0  0  0  0  0  0  0  0  0  0  0
   -0.6600  -11.7100    1.6960 C   0  0  0  0  0  0  0  0  0  0  0  0
   -0.2170  -13.0200    1.4880 C   0  0  0  0  0  0  0  0  0  0  0  0
   -0.9790  -14.0620    2.0580 N   0  0  0  0  0  0  0  0  0  0  0  0
   -2.0290  -14.7470    1.4700 C   0  0  0  0  0  0  0  0  0  0  0  0
   -2.5550  -14.4950    0.3920 O   0  0  0  0  0  0  0  0  0  0  0  0
   -2.5790  -15.8680    2.2840 C   0  0  0  0  0  0  0  0  0  0  0  0
   -2.1350  -17.1680    2.0200 C   0  0  0  0  0  0  0  0  0  0  0  0
   -2.6220  -18.2410    2.7670 C   0  0  0  0  0  0  0  0  0  0  0  0
   -3.5500  -18.0190    3.7870 C   0  0  0  0  0  0  0  0  0  0  0  0
   -3.9980  -16.7200    4.0740 C   0  0  0  0  0  0  0  0  0  0  0  0
   -4.9690  -16.4710    5.2040 C   0  0  0  0  0  0  0  0  0  0  0  0
   -4.3830  -16.4870    6.4320 F   0  0  0  0  0  0  0  0  0  0  0  0
   -5.9610  -17.4030    5.2500 F   0  0  0  0  0  0  0  0  0  0  0  0
   -5.5900  -15.2660    5.0930 F   0  0  0  0  0  0  0  0  0  0  0  0
   -3.4960  -15.6430    3.3200 C   0  0  0  0  0  0  0  0  0  0  0  0
    0.9510  -13.2290    0.7490 C   0  0  0  0  0  0  0  0  0  0  0  0
    4.0870  -12.3260    0.0170 C   0  0  0  0  0  0  0  0  0  0  0  0
    5.2760  -12.5840   -0.8310 C   0  0  0  0  0  0  0  0  0  0  0  0
    5.2760  -12.8660   -2.0990 N   0  0  0  0  0  0  0  0  0  0  0  0
    4.0400  -12.9150   -2.6970 C   0  0  0  0  0  0  0  0  0  0  0  0
    4.7470  -12.4250   -6.1070 C   0  0  0  0  0  0  0  0  0  0  0  0
    5.6060  -12.6660   -7.1840 C   0  0  0  0  0  0  0  0  0  0  0  0
    9.3250  -14.7530   -7.3320 C   0  0  0  0  0  0  0  0  0  0  0  0
   10.8030  -14.3500   -7.0990 C   0  0  0  0  0  0  0  0  0  0  0  0
   12.2478  -16.1713   -8.3005 H   0  0  0  0  0  0  0  0  0  0  0  0
   11.1774  -15.8133   -9.6979 H   0  0  0  0  0  0  0  0  0  0  0  0
   12.8780  -15.2349   -9.6979 H   0  0  0  0  0  0  0  0  0  0  0  0
   12.4470  -13.6820   -8.1510 H   0  0  0  0  0  0  0  0  0  0  0  0
   10.8722  -12.1709   -8.9077 H   0  0  0  0  0  0  0  0  0  0  0  0
   11.3620  -13.2099  -10.3169 H   0  0  0  0  0  0  0  0  0  0  0  0
    8.8715  -12.7803  -10.1626 H   0  0  0  0  0  0  0  0  0  0  0  0
    9.3496  -14.5267  -10.1401 H   0  0  0  0  0  0  0  0  0  0  0  0
    8.5560  -12.8560   -7.7990 H   0  0  0  0  0  0  0  0  0  0  0  0
    6.7590  -13.6277   -9.3427 H   0  0  0  0  0  0  0  0  0  0  0  0
    7.1276  -15.2651   -8.6499 H   0  0  0  0  0  0  0  0  0  0  0  0
    6.7224  -15.7700   -6.3034 H   0  0  0  0  0  0  0  0  0  0  0  0
    5.1763  -15.3455   -4.4027 H   0  0  0  0  0  0  0  0  0  0  0  0
    1.6277  -13.2513   -4.8756 H   0  0  0  0  0  0  0  0  0  0  0  0
    1.7476   -9.9939   -0.0090 H   0  0  0  0  0  0  0  0  0  0  0  0
   -0.3138   -9.6037    1.3316 H   0  0  0  0  0  0  0  0  0  0  0  0
   -1.5710  -11.5294    2.2855 H   0  0  0  0  0  0  0  0  0  0  0  0
   -0.7590  -14.2900    3.0190 H   0  0  0  0  0  0  0  0  0  0  0  0
   -1.3998  -17.3448    1.2211 H   0  0  0  0  0  0  0  0  0  0  0  0
   -2.2749  -19.2625    2.5525 H   0  0  0  0  0  0  0  0  0  0  0  0
   -3.9330  -18.8693    4.3703 H   0  0  0  0  0  0  0  0  0  0  0  0
   -3.8254  -14.6179    3.5451 H   0  0  0  0  0  0  0  0  0  0  0  0
    1.3165  -14.2551    0.5952 H   0  0  0  0  0  0  0  0  0  0  0  0
    4.1776  -12.0890    1.0873 H   0  0  0  0  0  0  0  0  0  0  0  0
    6.2570  -12.5312   -0.3362 H   0  0  0  0  0  0  0  0  0  0  0  0
    4.2079  -11.4684   -6.0425 H   0  0  0  0  0  0  0  0  0  0  0  0
    5.7327  -11.9000   -7.9632 H   0  0  0  0  0  0  0  0  0  0  0  0
    8.8014  -14.7664   -6.3647 H   0  0  0  0  0  0  0  0  0  0  0  0
    9.3084  -15.7483   -7.8002 H   0  0  0  0  0  0  0  0  0  0  0  0
   10.8279  -13.4127   -6.5238 H   0  0  0  0  0  0  0  0  0  0  0  0
   11.2936  -15.1690   -6.5526 H   0  0  0  0  0  0  0  0  0  0  0  0
  1  2  1  0
  2  3  1  0
  3  4  1  0
  4  5  1  0
  5  6  1  0
  6  7  1  0
  7  8  2  0
  8  9  1  0
  9 10  2  0
 10 11  1  0
 11 12  1  0
 12 13  2  0
 13 14  1  0
 14 15  1  0
 15 16  1  0
 16 17  2  0
 17 18  1  0
 18 19  2  0
 19 20  1  0
 20 21  1  0
 21 22  1  0
 22 23  2  0
 22 24  1  0
 24 25  2  0
 25 26  1  0
 26 27  2  0
 27 28  1  0
 28 29  1  0
 29 30  1  0
 29 31  1  0
 29 32  1  0
 28 33  2  0
 20 34  2  0
 15 35  2  0
 35 36  1  0
 36 37  2  0
 37 38  1  0
 10 39  1  0
 39 40  2  0
  5 41  1  0
 41 42  1  0
 42  2  1  0
 40  7  1  0
 38 11  2  0
 38 14  1  0
 34 16  1  0
 33 24  1  0
  1 43  1  0
  1 44  1  0
  1 45  1  0
  2 46  1  0
  3 47  1  0
  3 48  1  0
  4 49  1  0
  4 50  1  0
  5 51  1  0
  6 52  1  0
  6 53  1  0
  8 54  1  0
  9 55  1  0
 12 56  1  0
 17 57  1  0
 18 58  1  0
 19 59  1  0
 21 60  1  0
 25 61  1  0
 26 62  1  0
 27 63  1  0
 33 64  1  0
 34 65  1  0
 35 66  1  0
 36 67  1  0
 39 68  1  0
 40 69  1  0
 41 70  1  0
 41 71  1  0
 42 72  1  0
 42 73  1  0
M  CHG  2   2   1   5   1
M  END
>  <meeko>  (9) 
{"is_sidechain": [false], "free_energy": -8.824, "intermolecular_energy": -12.474, "internal_energy": -1.121}

$$$$
