LIB_YWDIXVZCRMMQQY__H_AF__e8__s20260927
     RDKit          3D

 55 59  0  0  0  0  0  0  0  0999 V2000
    0.2510  -13.7540   -0.5630 O   0  0  0  0  0  0  0  0  0  0  0  0
    0.3780  -12.6390   -0.0750 C   0  0  0  0  0  0  0  0  0  0  0  0
    1.3540  -11.7210   -0.4390 N   0  0  0  0  0  0  0  0  0  0  0  0
    2.2780  -11.8240   -1.5010 C   0  0  0  0  0  0  0  0  0  0  0  0
    1.7680  -11.7420   -2.8020 C   0  0  0  0  0  0  0  0  0  0  0  0
    2.6170  -11.8410   -3.9040 C   0  0  0  0  0  0  0  0  0  0  0  0
    3.9860  -12.0230   -3.7130 C   0  0  0  0  0  0  0  0  0  0  0  0
    4.5260  -12.1070   -2.4220 C   0  0  0  0  0  0  0  0  0  0  0  0
    5.9860  -12.3170   -2.2500 C   0  0  0  0  0  0  0  0  0  0  0  0
    6.6160  -11.8280   -1.1620 C   0  0  0  0  0  0  0  0  0  0  0  0
    7.9730  -12.0310   -1.0500 N   0  0  0  0  0  0  0  0  0  0  0  0
    8.8850  -11.6740   -0.0960 C   0  0  0  0  0  0  0  0  0  0  0  0
   10.0920  -12.1600   -0.5530 C   0  0  0  0  0  0  0  0  0  0  0  0
    9.9460  -12.8020   -1.7610 N   0  0  0  0  0  0  0  0  0  0  0  0
    8.6570  -12.7040   -2.0210 C   0  0  0  0  0  0  0  0  0  0  0  0
    7.9460  -13.2110   -3.1860 C   0  0  0  0  0  0  0  0  0  0  0  0
    8.6830  -13.8760   -4.1470 N   0  0  0  0  0  0  0  0  0  0  0  0
    8.2930  -14.5210   -5.3300 C   0  0  0  0  0  0  0  0  0  0  0  0
    8.7100  -13.9710   -6.5550 C   0  0  0  0  0  0  0  0  0  0  0  0
    8.3470  -14.5470   -7.7770 C   0  0  0  0  0  0  0  0  0  0  0  0
    7.5530  -15.6880   -7.7970 C   0  0  0  0  0  0  0  0  0  0  0  0
    7.1250  -16.2470   -6.5970 C   0  0  0  0  0  0  0  0  0  0  0  0
    7.4910  -15.6650   -5.3770 C   0  0  0  0  0  0  0  0  0  0  0  0
    6.6530  -12.9970   -3.2630 N   0  0  0  0  0  0  0  0  0  0  0  0
    3.6510  -12.0220   -1.3230 C   0  0  0  0  0  0  0  0  0  0  0  0
   -0.4280  -12.1130    0.9240 N   0  0  0  0  0  0  0  0  0  0  0  0
   -1.4600  -12.7640    1.6330 C   0  0  0  0  0  0  0  0  0  0  0  0
   -1.0860  -13.5220    2.7500 C   0  0  0  0  0  0  0  0  0  0  0  0
   -2.0430  -14.2000    3.5070 C   0  0  0  0  0  0  0  0  0  0  0  0
   -3.3880  -14.1310    3.1530 C   0  0  0  0  0  0  0  0  0  0  0  0
   -3.7850  -13.3890    2.0320 C   0  0  0  0  0  0  0  0  0  0  0  0
   -5.2390  -13.2920    1.6410 C   0  0  0  0  0  0  0  0  0  0  0  0
   -5.7320  -12.0230    1.7190 F   0  0  0  0  0  0  0  0  0  0  0  0
   -5.4630  -13.6960    0.3600 F   0  0  0  0  0  0  0  0  0  0  0  0
   -6.0540  -14.0500    2.4240 F   0  0  0  0  0  0  0  0  0  0  0  0
   -2.8100  -12.7050    1.2820 C   0  0  0  0  0  0  0  0  0  0  0  0
    1.4730  -10.9270    0.1700 H   0  0  0  0  0  0  0  0  0  0  0  0
    0.6884  -11.5983   -2.9565 H   0  0  0  0  0  0  0  0  0  0  0  0
    2.2070  -11.7756   -4.9226 H   0  0  0  0  0  0  0  0  0  0  0  0
    4.6506  -12.1017   -4.5860 H   0  0  0  0  0  0  0  0  0  0  0  0
    6.0605  -11.2819   -0.3854 H   0  0  0  0  0  0  0  0  0  0  0  0
    8.6967  -11.1190    0.8349 H   0  0  0  0  0  0  0  0  0  0  0  0
   11.0480  -12.0487   -0.0204 H   0  0  0  0  0  0  0  0  0  0  0  0
    9.6770  -13.9150   -3.9380 H   0  0  0  0  0  0  0  0  0  0  0  0
    9.3363  -13.0667   -6.5524 H   0  0  0  0  0  0  0  0  0  0  0  0
    8.6894  -14.0977   -8.7209 H   0  0  0  0  0  0  0  0  0  0  0  0
    7.2651  -16.1457   -8.7550 H   0  0  0  0  0  0  0  0  0  0  0  0
    6.4966  -17.1498   -6.6066 H   0  0  0  0  0  0  0  0  0  0  0  0
    7.1406  -16.1169   -4.4373 H   0  0  0  0  0  0  0  0  0  0  0  0
    4.0549  -12.1131   -0.3039 H   0  0  0  0  0  0  0  0  0  0  0  0
   -0.3070  -11.1330    1.1260 H   0  0  0  0  0  0  0  0  0  0  0  0
   -0.0251  -13.5837    3.0341 H   0  0  0  0  0  0  0  0  0  0  0  0
   -1.7346  -14.7889    4.3834 H   0  0  0  0  0  0  0  0  0  0  0  0
   -4.1413  -14.6604    3.7549 H   0  0  0  0  0  0  0  0  0  0  0  0
   -3.1164  -12.1148    0.4058 H   0  0  0  0  0  0  0  0  0  0  0  0
  1  2  2  0
  2  3  1  0
  3  4  1  0
  4  5  2  0
  5  6  1  0
  6  7  2  0
  7  8  1  0
  8  9  1  0
  9 10  2  0
 10 11  1  0
 11 12  1  0
 12 13  2  0
 13 14  1  0
 14 15  2  0
 15 16  1  0
 16 17  1  0
 17 18  1  0
 18 19  2  0
 19 20  1  0
 20 21  2  0
 21 22  1  0
 22 23  2  0
 16 24  2  0
  8 25  2  0
  2 26  1  0
 26 27  1  0
 27 28  2  0
 28 29  1  0
 29 30  2  0
 30 31  1  0
 31 32  1  0
 32 33  1  0
 32 34  1  0
 32 35  1  0
 31 36  2  0
 25  4  1  0
 36 27  1  0
 24  9  1  0
 15 11  1  0
 23 18  1  0
  3 37  1  0
  5 38  1  0
  6 39  1  0
  7 40  1  0
 10 41  1  0
 12 42  1  0
 13 43  1  0
 17 44  1  0
 19 45  1  0
 20 46  1  0
 21 47  1  0
 22 48  1  0
 23 49  1  0
 25 50  1  0
 26 51  1  0
 28 52  1  0
 29 53  1  0
 30 54  1  0
 36 55  1  0
M  END
>  <meeko>  (1) 
{"is_sidechain": [false], "free_energy": -10.616, "intermolecular_energy": -13.719, "internal_energy": -0.951}

$$$$
LIB_YWDIXVZCRMMQQY__H_AF__e8__s20260927
     RDKit          3D

 55 59  0  0  0  0  0  0  0  0999 V2000
    0.6650  -14.0230   -0.4040 O   0  0  0  0  0  0  0  0  0  0  0  0
    0.5750  -12.8180   -0.2030 C   0  0  0  0  0  0  0  0  0  0  0  0
    1.3650  -11.8530   -0.8110 N   0  0  0  0  0  0  0  0  0  0  0  0
    2.3040  -12.0380   -1.8490 C   0  0  0  0  0  0  0  0  0  0  0  0
    1.8020  -12.1490   -3.1510 C   0  0  0  0  0  0  0  0  0  0  0  0
    2.6660  -12.3390   -4.2300 C   0  0  0  0  0  0  0  0  0  0  0  0
    4.0410  -12.4210   -4.0140 C   0  0  0  0  0  0  0  0  0  0  0  0
    4.5720  -12.3120   -2.7210 C   0  0  0  0  0  0  0  0  0  0  0  0
    6.0390  -12.4180   -2.5200 C   0  0  0  0  0  0  0  0  0  0  0  0
    6.6060  -11.9280   -1.3970 C   0  0  0  0  0  0  0  0  0  0  0  0
    7.9710  -12.0330   -1.2600 N   0  0  0  0  0  0  0  0  0  0  0  0
    8.8320  -11.6470   -0.2690 C   0  0  0  0  0  0  0  0  0  0  0  0
   10.0820  -12.0220   -0.7140 C   0  0  0  0  0  0  0  0  0  0  0  0
   10.0130  -12.6240   -1.9500 N   0  0  0  0  0  0  0  0  0  0  0  0
    8.7270  -12.6120   -2.2380 C   0  0  0  0  0  0  0  0  0  0  0  0
    8.0820  -13.1230   -3.4400 C   0  0  0  0  0  0  0  0  0  0  0  0
    8.8900  -13.6910   -4.4070 N   0  0  0  0  0  0  0  0  0  0  0  0
    8.5770  -14.3140   -5.6240 C   0  0  0  0  0  0  0  0  0  0  0  0
    7.5900  -15.3150   -5.6230 C   0  0  0  0  0  0  0  0  0  0  0  0
    7.2350  -15.9940   -6.7930 C   0  0  0  0  0  0  0  0  0  0  0  0
    7.8660  -15.6850   -7.9930 C   0  0  0  0  0  0  0  0  0  0  0  0
    8.8490  -14.7000   -8.0160 C   0  0  0  0  0  0  0  0  0  0  0  0
    9.2000  -14.0250   -6.8410 C   0  0  0  0  0  0  0  0  0  0  0  0
    6.7790  -13.0040   -3.5420 N   0  0  0  0  0  0  0  0  0  0  0  0
    3.6830  -12.1360   -1.6440 C   0  0  0  0  0  0  0  0  0  0  0  0
   -0.3260  -12.2240    0.6690 N   0  0  0  0  0  0  0  0  0  0  0  0
   -1.2250  -12.8620    1.5490 C   0  0  0  0  0  0  0  0  0  0  0  0
   -2.5490  -13.0060    1.1150 C   0  0  0  0  0  0  0  0  0  0  0  0
   -3.5040  -13.6250    1.9230 C   0  0  0  0  0  0  0  0  0  0  0  0
   -3.1460  -14.1040    3.1810 C   0  0  0  0  0  0  0  0  0  0  0  0
   -1.8300  -13.9600    3.6430 C   0  0  0  0  0  0  0  0  0  0  0  0
   -1.4220  -14.4850    4.9980 C   0  0  0  0  0  0  0  0  0  0  0  0
   -1.8730  -15.7490    5.2410 F   0  0  0  0  0  0  0  0  0  0  0  0
   -0.0700  -14.5410    5.1490 F   0  0  0  0  0  0  0  0  0  0  0  0
   -1.8870  -13.7250    6.0260 F   0  0  0  0  0  0  0  0  0  0  0  0
   -0.8760  -13.3410    2.8140 C   0  0  0  0  0  0  0  0  0  0  0  0
    1.3270  -10.9270   -0.4150 H   0  0  0  0  0  0  0  0  0  0  0  0
    0.7177  -12.0859   -3.3249 H   0  0  0  0  0  0  0  0  0  0  0  0
    2.2628  -12.4240   -5.2499 H   0  0  0  0  0  0  0  0  0  0  0  0
    4.7172  -12.5730   -4.8682 H   0  0  0  0  0  0  0  0  0  0  0  0
    5.9937  -11.4579   -0.6134 H   0  0  0  0  0  0  0  0  0  0  0  0
    8.5812  -11.1460    0.6776 H   0  0  0  0  0  0  0  0  0  0  0  0
   11.0146  -11.8608   -0.1533 H   0  0  0  0  0  0  0  0  0  0  0  0
    9.8780  -13.6640   -4.1750 H   0  0  0  0  0  0  0  0  0  0  0  0
    7.0850  -15.5703   -4.6797 H   0  0  0  0  0  0  0  0  0  0  0  0
    6.4575  -16.7716   -6.7640 H   0  0  0  0  0  0  0  0  0  0  0  0
    7.5904  -16.2149   -8.9167 H   0  0  0  0  0  0  0  0  0  0  0  0
    9.3524  -14.4508   -8.9618 H   0  0  0  0  0  0  0  0  0  0  0  0
    9.9816  -13.2518   -6.8763 H   0  0  0  0  0  0  0  0  0  0  0  0
    4.0816  -12.0744   -0.6206 H   0  0  0  0  0  0  0  0  0  0  0  0
   -0.3940  -11.2190    0.6240 H   0  0  0  0  0  0  0  0  0  0  0  0
   -2.8399  -12.6263    0.1244 H   0  0  0  0  0  0  0  0  0  0  0  0
   -4.5389  -13.7345    1.5665 H   0  0  0  0  0  0  0  0  0  0  0  0
   -3.8983  -14.5970    3.8142 H   0  0  0  0  0  0  0  0  0  0  0  0
    0.1600  -13.2327    3.1674 H   0  0  0  0  0  0  0  0  0  0  0  0
  1  2  2  0
  2  3  1  0
  3  4  1  0
  4  5  2  0
  5  6  1  0
  6  7  2  0
  7  8  1  0
  8  9  1  0
  9 10  2  0
 10 11  1  0
 11 12  1  0
 12 13  2  0
 13 14  1  0
 14 15  2  0
 15 16  1  0
 16 17  1  0
 17 18  1  0
 18 19  2  0
 19 20  1  0
 20 21  2  0
 21 22  1  0
 22 23  2  0
 16 24  2  0
  8 25  2  0
  2 26  1  0
 26 27  1  0
 27 28  2  0
 28 29  1  0
 29 30  2  0
 30 31  1  0
 31 32  1  0
 32 33  1  0
 32 34  1  0
 32 35  1  0
 31 36  2  0
 25  4  1  0
 36 27  1  0
 24  9  1  0
 15 11  1  0
 23 18  1  0
  3 37  1  0
  5 38  1  0
  6 39  1  0
  7 40  1  0
 10 41  1  0
 12 42  1  0
 13 43  1  0
 17 44  1  0
 19 45  1  0
 20 46  1  0
 21 47  1  0
 22 48  1  0
 23 49  1  0
 25 50  1  0
 26 51  1  0
 28 52  1  0
 29 53  1  0
 30 54  1  0
 36 55  1  0
M  END
>  <meeko>  (2) 
{"is_sidechain": [false], "free_energy": -10.47, "intermolecular_energy": -13.64, "internal_energy": -0.841}

$$$$
LIB_YWDIXVZCRMMQQY__H_AF__e8__s20260927
     RDKit          3D

 55 59  0  0  0  0  0  0  0  0999 V2000
    1.2470  -12.4940   -1.3720 O   0  0  0  0  0  0  0  0  0  0  0  0
    1.4970  -12.9750   -0.2740 C   0  0  0  0  0  0  0  0  0  0  0  0
    2.7720  -13.1270    0.2530 N   0  0  0  0  0  0  0  0  0  0  0  0
    3.9880  -12.6520   -0.2860 C   0  0  0  0  0  0  0  0  0  0  0  0
    4.4700  -11.4330    0.2060 C   0  0  0  0  0  0  0  0  0  0  0  0
    5.6620  -10.8950   -0.2810 C   0  0  0  0  0  0  0  0  0  0  0  0
    6.3810  -11.5720   -1.2650 C   0  0  0  0  0  0  0  0  0  0  0  0
    5.9220  -12.7950   -1.7740 C   0  0  0  0  0  0  0  0  0  0  0  0
    6.7010  -13.4870   -2.8330 C   0  0  0  0  0  0  0  0  0  0  0  0
    6.1040  -14.4020   -3.6230 C   0  0  0  0  0  0  0  0  0  0  0  0
    6.8680  -15.0310   -4.5810 N   0  0  0  0  0  0  0  0  0  0  0  0
    6.5740  -15.9820   -5.5180 C   0  0  0  0  0  0  0  0  0  0  0  0
    7.7620  -16.2130   -6.1800 C   0  0  0  0  0  0  0  0  0  0  0  0
    8.7760  -15.4330   -5.6730 N   0  0  0  0  0  0  0  0  0  0  0  0
    8.1940  -14.7360   -4.7170 C   0  0  0  0  0  0  0  0  0  0  0  0
    8.8070  -13.7480   -3.8400 C   0  0  0  0  0  0  0  0  0  0  0  0
   10.1540  -13.4910   -4.0090 N   0  0  0  0  0  0  0  0  0  0  0  0
   11.0070  -12.5730   -3.3780 C   0  0  0  0  0  0  0  0  0  0  0  0
   12.1410  -12.1280   -4.0810 C   0  0  0  0  0  0  0  0  0  0  0  0
   13.0460  -11.2270   -3.5120 C   0  0  0  0  0  0  0  0  0  0  0  0
   12.8360  -10.7530   -2.2220 C   0  0  0  0  0  0  0  0  0  0  0  0
   11.7230  -11.1830   -1.5070 C   0  0  0  0  0  0  0  0  0  0  0  0
   10.8200  -12.0860   -2.0810 C   0  0  0  0  0  0  0  0  0  0  0  0
    8.0520  -13.1700   -2.9360 N   0  0  0  0  0  0  0  0  0  0  0  0
    4.7100  -13.3140   -1.2830 C   0  0  0  0  0  0  0  0  0  0  0  0
    0.5480  -13.4510    0.6200 N   0  0  0  0  0  0  0  0  0  0  0  0
   -0.8440  -13.5700    0.4180 C   0  0  0  0  0  0  0  0  0  0  0  0
   -1.2650  -14.1920   -0.7640 C   0  0  0  0  0  0  0  0  0  0  0  0
   -2.6240  -14.3510   -1.0440 C   0  0  0  0  0  0  0  0  0  0  0  0
   -3.5790  -13.8840   -0.1440 C   0  0  0  0  0  0  0  0  0  0  0  0
   -3.1810  -13.2460    1.0400 C   0  0  0  0  0  0  0  0  0  0  0  0
   -4.2020  -12.7460    2.0320 C   0  0  0  0  0  0  0  0  0  0  0  0
   -4.6740  -13.7260    2.8550 F   0  0  0  0  0  0  0  0  0  0  0  0
   -3.7010  -11.7840    2.8550 F   0  0  0  0  0  0  0  0  0  0  0  0
   -5.3000  -12.2030    1.4400 F   0  0  0  0  0  0  0  0  0  0  0  0
   -1.8080  -13.1000    1.3120 C   0  0  0  0  0  0  0  0  0  0  0  0
    2.8540  -13.7110    1.0700 H   0  0  0  0  0  0  0  0  0  0  0  0
    3.9051  -10.8956    0.9819 H   0  0  0  0  0  0  0  0  0  0  0  0
    6.0341   -9.9371    0.1114 H   0  0  0  0  0  0  0  0  0  0  0  0
    7.3189  -11.1418   -1.6463 H   0  0  0  0  0  0  0  0  0  0  0  0
    5.0364  -14.6396   -3.5057 H   0  0  0  0  0  0  0  0  0  0  0  0
    5.6007  -16.4597   -5.7039 H   0  0  0  0  0  0  0  0  0  0  0  0
    7.8832  -16.9285   -7.0067 H   0  0  0  0  0  0  0  0  0  0  0  0
   10.5860  -14.0590   -4.7320 H   0  0  0  0  0  0  0  0  0  0  0  0
   12.3199  -12.4972   -5.1016 H   0  0  0  0  0  0  0  0  0  0  0  0
   13.9238  -10.8933   -4.0847 H   0  0  0  0  0  0  0  0  0  0  0  0
   13.5446  -10.0433   -1.7702 H   0  0  0  0  0  0  0  0  0  0  0  0
   11.5515  -10.8118   -0.4858 H   0  0  0  0  0  0  0  0  0  0  0  0
    9.9469  -12.4186   -1.5004 H   0  0  0  0  0  0  0  0  0  0  0  0
    4.3231  -14.2591   -1.6917 H   0  0  0  0  0  0  0  0  0  0  0  0
    0.8790  -13.6780    1.5430 H   0  0  0  0  0  0  0  0  0  0  0  0
   -0.5160  -14.5599   -1.4808 H   0  0  0  0  0  0  0  0  0  0  0  0
   -2.9400  -14.8448   -1.9748 H   0  0  0  0  0  0  0  0  0  0  0  0
   -4.6490  -14.0160   -0.3625 H   0  0  0  0  0  0  0  0  0  0  0  0
   -1.4895  -12.6082    2.2430 H   0  0  0  0  0  0  0  0  0  0  0  0
  1  2  2  0
  2  3  1  0
  3  4  1  0
  4  5  2  0
  5  6  1  0
  6  7  2  0
  7  8  1  0
  8  9  1  0
  9 10  2  0
 10 11  1  0
 11 12  1  0
 12 13  2  0
 13 14  1  0
 14 15  2  0
 15 16  1  0
 16 17  1  0
 17 18  1  0
 18 19  2  0
 19 20  1  0
 20 21  2  0
 21 22  1  0
 22 23  2  0
 16 24  2  0
  8 25  2  0
  2 26  1  0
 26 27  1  0
 27 28  2  0
 28 29  1  0
 29 30  2  0
 30 31  1  0
 31 32  1  0
 32 33  1  0
 32 34  1  0
 32 35  1  0
 31 36  2  0
 25  4  1  0
 36 27  1  0
 24  9  1  0
 15 11  1  0
 23 18  1  0
  3 37  1  0
  5 38  1  0
  6 39  1  0
  7 40  1  0
 10 41  1  0
 12 42  1  0
 13 43  1  0
 17 44  1  0
 19 45  1  0
 20 46  1  0
 21 47  1  0
 22 48  1  0
 23 49  1  0
 25 50  1  0
 26 51  1  0
 28 52  1  0
 29 53  1  0
 30 54  1  0
 36 55  1  0
M  END
>  <meeko>  (3) 
{"is_sidechain": [false], "free_energy": -10.466, "intermolecular_energy": -13.977, "internal_energy": -0.499}

$$$$
LIB_YWDIXVZCRMMQQY__H_AF__e8__s20260927
     RDKit          3D

 55 59  0  0  0  0  0  0  0  0999 V2000
    1.1900  -12.6680   -0.3040 O   0  0  0  0  0  0  0  0  0  0  0  0
    1.4150  -13.3670    0.6750 C   0  0  0  0  0  0  0  0  0  0  0  0
    2.6430  -13.9400    0.9750 N   0  0  0  0  0  0  0  0  0  0  0  0
    3.8740  -13.7310    0.3140 C   0  0  0  0  0  0  0  0  0  0  0  0
    5.0280  -13.7090    1.1060 C   0  0  0  0  0  0  0  0  0  0  0  0
    6.2800  -13.5020    0.5270 C   0  0  0  0  0  0  0  0  0  0  0  0
    6.3880  -13.3160   -0.8500 C   0  0  0  0  0  0  0  0  0  0  0  0
    5.2490  -13.3350   -1.6680 C   0  0  0  0  0  0  0  0  0  0  0  0
    5.3930  -13.1190   -3.1300 C   0  0  0  0  0  0  0  0  0  0  0  0
    4.3270  -12.7440   -3.8670 C   0  0  0  0  0  0  0  0  0  0  0  0
    4.5020  -12.5710   -5.2220 N   0  0  0  0  0  0  0  0  0  0  0  0
    3.6460  -12.2030   -6.2230 C   0  0  0  0  0  0  0  0  0  0  0  0
    4.4120  -12.2130   -7.3710 C   0  0  0  0  0  0  0  0  0  0  0  0
    5.7110  -12.5780   -7.1010 N   0  0  0  0  0  0  0  0  0  0  0  0
    5.7220  -12.7810   -5.7980 C   0  0  0  0  0  0  0  0  0  0  0  0
    6.8490  -13.1920   -4.9730 C   0  0  0  0  0  0  0  0  0  0  0  0
    8.0600  -13.4030   -5.6040 N   0  0  0  0  0  0  0  0  0  0  0  0
    9.3220  -13.7400   -5.0930 C   0  0  0  0  0  0  0  0  0  0  0  0
   10.2710  -12.7140   -4.9370 C   0  0  0  0  0  0  0  0  0  0  0  0
   11.5560  -12.9740   -4.4500 C   0  0  0  0  0  0  0  0  0  0  0  0
   11.9190  -14.2730   -4.1100 C   0  0  0  0  0  0  0  0  0  0  0  0
   10.9970  -15.3040   -4.2610 C   0  0  0  0  0  0  0  0  0  0  0  0
    9.7130  -15.0370   -4.7490 C   0  0  0  0  0  0  0  0  0  0  0  0
    6.6470  -13.3520   -3.6860 N   0  0  0  0  0  0  0  0  0  0  0  0
    3.9930  -13.5290   -1.0640 C   0  0  0  0  0  0  0  0  0  0  0  0
    0.4790  -13.7050    1.6420 N   0  0  0  0  0  0  0  0  0  0  0  0
   -0.9010  -13.4100    1.6470 C   0  0  0  0  0  0  0  0  0  0  0  0
   -1.4090  -12.7560    2.7770 C   0  0  0  0  0  0  0  0  0  0  0  0
   -2.7630  -12.4280    2.8650 C   0  0  0  0  0  0  0  0  0  0  0  0
   -3.6280  -12.7550    1.8240 C   0  0  0  0  0  0  0  0  0  0  0  0
   -3.1450  -13.4210    0.6890 C   0  0  0  0  0  0  0  0  0  0  0  0
   -4.0660  -13.7710   -0.4550 C   0  0  0  0  0  0  0  0  0  0  0  0
   -3.8760  -15.0360   -0.9280 F   0  0  0  0  0  0  0  0  0  0  0  0
   -5.3800  -13.7010   -0.1070 F   0  0  0  0  0  0  0  0  0  0  0  0
   -3.9150  -12.9510   -1.5310 F   0  0  0  0  0  0  0  0  0  0  0  0
   -1.7770  -13.7390    0.6100 C   0  0  0  0  0  0  0  0  0  0  0  0
    2.6460  -14.6470    1.6930 H   0  0  0  0  0  0  0  0  0  0  0  0
    4.9469  -13.8561    2.1931 H   0  0  0  0  0  0  0  0  0  0  0  0
    7.1816  -13.4856    1.1569 H   0  0  0  0  0  0  0  0  0  0  0  0
    7.3781  -13.1524   -1.3005 H   0  0  0  0  0  0  0  0  0  0  0  0
    3.3452  -12.5809   -3.3985 H   0  0  0  0  0  0  0  0  0  0  0  0
    2.5785  -11.9532   -6.1328 H   0  0  0  0  0  0  0  0  0  0  0  0
    4.0330  -11.9616   -8.3726 H   0  0  0  0  0  0  0  0  0  0  0  0
    8.0210  -13.2670   -6.6100 H   0  0  0  0  0  0  0  0  0  0  0  0
    9.9962  -11.6829   -5.2042 H   0  0  0  0  0  0  0  0  0  0  0  0
   12.2785  -12.1524   -4.3360 H   0  0  0  0  0  0  0  0  0  0  0  0
   12.9275  -14.4836   -3.7246 H   0  0  0  0  0  0  0  0  0  0  0  0
   11.2787  -16.3337   -3.9956 H   0  0  0  0  0  0  0  0  0  0  0  0
    8.9972  -15.8643   -4.8642 H   0  0  0  0  0  0  0  0  0  0  0  0
    3.0873  -13.5216   -1.6883 H   0  0  0  0  0  0  0  0  0  0  0  0
    0.8340  -14.1580    2.4690 H   0  0  0  0  0  0  0  0  0  0  0  0
   -0.7326  -12.4978    3.6051 H   0  0  0  0  0  0  0  0  0  0  0  0
   -3.1467  -11.9111    3.7569 H   0  0  0  0  0  0  0  0  0  0  0  0
   -4.6934  -12.4900    1.8924 H   0  0  0  0  0  0  0  0  0  0  0  0
   -1.3913  -14.2545   -0.2819 H   0  0  0  0  0  0  0  0  0  0  0  0
  1  2  2  0
  2  3  1  0
  3  4  1  0
  4  5  2  0
  5  6  1  0
  6  7  2  0
  7  8  1  0
  8  9  1  0
  9 10  2  0
 10 11  1  0
 11 12  1  0
 12 13  2  0
 13 14  1  0
 14 15  2  0
 15 16  1  0
 16 17  1  0
 17 18  1  0
 18 19  2  0
 19 20  1  0
 20 21  2  0
 21 22  1  0
 22 23  2  0
 16 24  2  0
  8 25  2  0
  2 26  1  0
 26 27  1  0
 27 28  2  0
 28 29  1  0
 29 30  2  0
 30 31  1  0
 31 32  1  0
 32 33  1  0
 32 34  1  0
 32 35  1  0
 31 36  2  0
 25  4  1  0
 36 27  1  0
 24  9  1  0
 15 11  1  0
 23 18  1  0
  3 37  1  0
  5 38  1  0
  6 39  1  0
  7 40  1  0
 10 41  1  0
 12 42  1  0
 13 43  1  0
 17 44  1  0
 19 45  1  0
 20 46  1  0
 21 47  1  0
 22 48  1  0
 23 49  1  0
 25 50  1  0
 26 51  1  0
 28 52  1  0
 29 53  1  0
 30 54  1  0
 36 55  1  0
M  END
>  <meeko>  (4) 
{"is_sidechain": [false], "free_energy": -10.325, "intermolecular_energy": -13.643, "internal_energy": -0.651}

$$$$
LIB_YWDIXVZCRMMQQY__H_AF__e8__s20260927
     RDKit          3D

 55 59  0  0  0  0  0  0  0  0999 V2000
    0.6160  -14.9550    0.4220 O   0  0  0  0  0  0  0  0  0  0  0  0
    1.0170  -13.7990    0.4160 C   0  0  0  0  0  0  0  0  0  0  0  0
    2.3280  -13.4160    0.1710 N   0  0  0  0  0  0  0  0  0  0  0  0
    3.4000  -14.2370   -0.2420 C   0  0  0  0  0  0  0  0  0  0  0  0
    3.4090  -15.5580    0.2220 C   0  0  0  0  0  0  0  0  0  0  0  0
    4.4370  -16.4290   -0.1380 C   0  0  0  0  0  0  0  0  0  0  0  0
    5.4670  -15.9850   -0.9660 C   0  0  0  0  0  0  0  0  0  0  0  0
    5.4830  -14.6690   -1.4480 C   0  0  0  0  0  0  0  0  0  0  0  0
    6.6010  -14.2200   -2.3160 C   0  0  0  0  0  0  0  0  0  0  0  0
    6.6070  -12.9680   -2.8190 C   0  0  0  0  0  0  0  0  0  0  0  0
    7.6540  -12.5990   -3.6330 N   0  0  0  0  0  0  0  0  0  0  0  0
    7.9500  -11.4350   -4.2860 C   0  0  0  0  0  0  0  0  0  0  0  0
    9.1350  -11.6860   -4.9470 C   0  0  0  0  0  0  0  0  0  0  0  0
    9.5710  -12.9710   -4.7210 N   0  0  0  0  0  0  0  0  0  0  0  0
    8.6530  -13.4830   -3.9240 C   0  0  0  0  0  0  0  0  0  0  0  0
    8.6110  -14.8290   -3.3690 C   0  0  0  0  0  0  0  0  0  0  0  0
    9.6390  -15.6900   -3.7000 N   0  0  0  0  0  0  0  0  0  0  0  0
    9.9140  -17.0030   -3.2910 C   0  0  0  0  0  0  0  0  0  0  0  0
   10.5230  -17.1950   -2.0380 C   0  0  0  0  0  0  0  0  0  0  0  0
   10.8430  -18.4730   -1.5680 C   0  0  0  0  0  0  0  0  0  0  0  0
   10.5610  -19.5890   -2.3470 C   0  0  0  0  0  0  0  0  0  0  0  0
    9.9630  -19.4230   -3.5920 C   0  0  0  0  0  0  0  0  0  0  0  0
    9.6460  -18.1410   -4.0580 C   0  0  0  0  0  0  0  0  0  0  0  0
    7.5970  -15.1490   -2.6000 N   0  0  0  0  0  0  0  0  0  0  0  0
    4.4460  -13.8000   -1.0600 C   0  0  0  0  0  0  0  0  0  0  0  0
    0.2280  -12.6830    0.6570 N   0  0  0  0  0  0  0  0  0  0  0  0
   -1.1280  -12.6520    1.0470 C   0  0  0  0  0  0  0  0  0  0  0  0
   -1.4100  -12.1910    2.3390 C   0  0  0  0  0  0  0  0  0  0  0  0
   -2.7240  -12.1290    2.8060 C   0  0  0  0  0  0  0  0  0  0  0  0
   -3.7740  -12.5330    1.9850 C   0  0  0  0  0  0  0  0  0  0  0  0
   -3.5160  -13.0100    0.6930 C   0  0  0  0  0  0  0  0  0  0  0  0
   -4.6420  -13.4390   -0.2150 C   0  0  0  0  0  0  0  0  0  0  0  0
   -5.8740  -13.2820    0.3480 F   0  0  0  0  0  0  0  0  0  0  0  0
   -4.6740  -12.7290   -1.3770 F   0  0  0  0  0  0  0  0  0  0  0  0
   -4.5680  -14.7500   -0.5750 F   0  0  0  0  0  0  0  0  0  0  0  0
   -2.1870  -13.0600    0.2320 C   0  0  0  0  0  0  0  0  0  0  0  0
    2.5660  -12.4620    0.3890 H   0  0  0  0  0  0  0  0  0  0  0  0
    2.5984  -15.9118    0.8760 H   0  0  0  0  0  0  0  0  0  0  0  0
    4.4351  -17.4653    0.2310 H   0  0  0  0  0  0  0  0  0  0  0  0
    6.2767  -16.6756   -1.2443 H   0  0  0  0  0  0  0  0  0  0  0  0
    5.7972  -12.2613   -2.5850 H   0  0  0  0  0  0  0  0  0  0  0  0
    7.3693  -10.5007   -4.2848 H   0  0  0  0  0  0  0  0  0  0  0  0
    9.6632  -10.9527   -5.5741 H   0  0  0  0  0  0  0  0  0  0  0  0
   10.3190  -15.2830   -4.3360 H   0  0  0  0  0  0  0  0  0  0  0  0
   10.7531  -16.3196   -1.4129 H   0  0  0  0  0  0  0  0  0  0  0  0
   11.3173  -18.5947   -0.5830 H   0  0  0  0  0  0  0  0  0  0  0  0
   10.8090  -20.5965   -1.9816 H   0  0  0  0  0  0  0  0  0  0  0  0
    9.7382  -20.3026   -4.2131 H   0  0  0  0  0  0  0  0  0  0  0  0
    9.1771  -18.0271   -5.0465 H   0  0  0  0  0  0  0  0  0  0  0  0
    4.4589  -12.7563   -1.4073 H   0  0  0  0  0  0  0  0  0  0  0  0
    0.6520  -11.7880    0.4720 H   0  0  0  0  0  0  0  0  0  0  0  0
   -0.5854  -11.8737    2.9942 H   0  0  0  0  0  0  0  0  0  0  0  0
   -2.9301  -11.7612    3.8220 H   0  0  0  0  0  0  0  0  0  0  0  0
   -4.8094  -12.4774    2.3521 H   0  0  0  0  0  0  0  0  0  0  0  0
   -1.9792  -13.4255   -0.7845 H   0  0  0  0  0  0  0  0  0  0  0  0
  1  2  2  0
  2  3  1  0
  3  4  1  0
  4  5  2  0
  5  6  1  0
  6  7  2  0
  7  8  1  0
  8  9  1  0
  9 10  2  0
 10 11  1  0
 11 12  1  0
 12 13  2  0
 13 14  1  0
 14 15  2  0
 15 16  1  0
 16 17  1  0
 17 18  1  0
 18 19  2  0
 19 20  1  0
 20 21  2  0
 21 22  1  0
 22 23  2  0
 16 24  2  0
  8 25  2  0
  2 26  1  0
 26 27  1  0
 27 28  2  0
 28 29  1  0
 29 30  2  0
 30 31  1  0
 31 32  1  0
 32 33  1  0
 32 34  1  0
 32 35  1  0
 31 36  2  0
 25  4  1  0
 36 27  1  0
 24  9  1  0
 15 11  1  0
 23 18  1  0
  3 37  1  0
  5 38  1  0
  6 39  1  0
  7 40  1  0
 10 41  1  0
 12 42  1  0
 13 43  1  0
 17 44  1  0
 19 45  1  0
 20 46  1  0
 21 47  1  0
 22 48  1  0
 23 49  1  0
 25 50  1  0
 26 51  1  0
 28 52  1  0
 29 53  1  0
 30 54  1  0
 36 55  1  0
M  END
>  <meeko>  (5) 
{"is_sidechain": [false], "free_energy": -10.031, "intermolecular_energy": -13.42, "internal_energy": -0.494}

$$$$
LIB_YWDIXVZCRMMQQY__H_AF__e8__s20260927
     RDKit          3D

 55 59  0  0  0  0  0  0  0  0999 V2000
    0.4530  -15.1720    0.2950 O   0  0  0  0  0  0  0  0  0  0  0  0
    0.9750  -14.1330    0.6770 C   0  0  0  0  0  0  0  0  0  0  0  0
    2.3430  -13.9110    0.7430 N   0  0  0  0  0  0  0  0  0  0  0  0
    3.3740  -14.7520    0.2700 C   0  0  0  0  0  0  0  0  0  0  0  0
    3.4140  -16.0580    0.7750 C   0  0  0  0  0  0  0  0  0  0  0  0
    4.4060  -16.9470    0.3600 C   0  0  0  0  0  0  0  0  0  0  0  0
    5.3660  -16.5370   -0.5640 C   0  0  0  0  0  0  0  0  0  0  0  0
    5.3500  -15.2360   -1.0870 C   0  0  0  0  0  0  0  0  0  0  0  0
    6.3950  -14.8230   -2.0570 C   0  0  0  0  0  0  0  0  0  0  0  0
    7.6710  -15.2250   -1.8900 C   0  0  0  0  0  0  0  0  0  0  0  0
    8.6110  -14.8050   -2.8040 N   0  0  0  0  0  0  0  0  0  0  0  0
    9.9550  -15.0300   -2.9170 C   0  0  0  0  0  0  0  0  0  0  0  0
   10.3420  -14.3320   -4.0430 C   0  0  0  0  0  0  0  0  0  0  0  0
    9.2750  -13.6840   -4.6200 N   0  0  0  0  0  0  0  0  0  0  0  0
    8.2540  -13.9980   -3.8460 C   0  0  0  0  0  0  0  0  0  0  0  0
    6.8680  -13.5760   -3.9920 C   0  0  0  0  0  0  0  0  0  0  0  0
    6.5580  -12.7510   -5.0550 N   0  0  0  0  0  0  0  0  0  0  0  0
    5.3320  -12.2300   -5.4960 C   0  0  0  0  0  0  0  0  0  0  0  0
    4.4770  -11.6480   -4.5430 C   0  0  0  0  0  0  0  0  0  0  0  0
    3.2320  -11.1230   -4.9020 C   0  0  0  0  0  0  0  0  0  0  0  0
    2.8140  -11.1730   -6.2270 C   0  0  0  0  0  0  0  0  0  0  0  0
    3.6420  -11.7490   -7.1860 C   0  0  0  0  0  0  0  0  0  0  0  0
    4.8870  -12.2740   -6.8200 C   0  0  0  0  0  0  0  0  0  0  0  0
    5.9990  -13.9920   -3.1010 N   0  0  0  0  0  0  0  0  0  0  0  0
    4.3510  -14.3490   -0.6440 C   0  0  0  0  0  0  0  0  0  0  0  0
    0.2850  -13.0100    1.1130 N   0  0  0  0  0  0  0  0  0  0  0  0
   -1.1070  -12.8700    1.2960 C   0  0  0  0  0  0  0  0  0  0  0  0
   -1.5410  -12.3710    2.5310 C   0  0  0  0  0  0  0  0  0  0  0  0
   -2.9010  -12.2010    2.7970 C   0  0  0  0  0  0  0  0  0  0  0  0
   -3.8460  -12.5350    1.8300 C   0  0  0  0  0  0  0  0  0  0  0  0
   -3.4370  -13.0490    0.5920 C   0  0  0  0  0  0  0  0  0  0  0  0
   -4.4470  -13.4030   -0.4730 C   0  0  0  0  0  0  0  0  0  0  0  0
   -4.1540  -12.8640   -1.6900 F   0  0  0  0  0  0  0  0  0  0  0  0
   -4.5390  -14.7460   -0.6770 F   0  0  0  0  0  0  0  0  0  0  0  0
   -5.7050  -12.9780   -0.1760 F   0  0  0  0  0  0  0  0  0  0  0  0
   -2.0620  -13.2070    0.3350 C   0  0  0  0  0  0  0  0  0  0  0  0
    2.6430  -13.0980    1.2570 H   0  0  0  0  0  0  0  0  0  0  0  0
    2.6579  -16.3850    1.5040 H   0  0  0  0  0  0  0  0  0  0  0  0
    4.4306  -17.9708    0.7616 H   0  0  0  0  0  0  0  0  0  0  0  0
    6.1456  -17.2427   -0.8868 H   0  0  0  0  0  0  0  0  0  0  0  0
    7.9535  -15.8714   -1.0459 H   0  0  0  0  0  0  0  0  0  0  0  0
   10.5901  -15.6360   -2.2541 H   0  0  0  0  0  0  0  0  0  0  0  0
   11.3714  -14.2983   -4.4292 H   0  0  0  0  0  0  0  0  0  0  0  0
    7.3640  -12.5010   -5.6210 H   0  0  0  0  0  0  0  0  0  0  0  0
    4.7952  -11.6049   -3.4909 H   0  0  0  0  0  0  0  0  0  0  0  0
    2.5838  -10.6708   -4.1369 H   0  0  0  0  0  0  0  0  0  0  0  0
    1.8360  -10.7603   -6.5153 H   0  0  0  0  0  0  0  0  0  0  0  0
    3.3167  -11.7919   -8.2359 H   0  0  0  0  0  0  0  0  0  0  0  0
    5.5274  -12.7300   -7.5894 H   0  0  0  0  0  0  0  0  0  0  0  0
    4.3392  -13.3172   -1.0252 H   0  0  0  0  0  0  0  0  0  0  0  0
    0.8330  -12.1770    1.2550 H   0  0  0  0  0  0  0  0  0  0  0  0
   -0.8005  -12.1097    3.3013 H   0  0  0  0  0  0  0  0  0  0  0  0
   -3.2260  -11.8035    3.7698 H   0  0  0  0  0  0  0  0  0  0  0  0
   -4.9169  -12.3949    2.0386 H   0  0  0  0  0  0  0  0  0  0  0  0
   -1.7349  -13.6021   -0.6381 H   0  0  0  0  0  0  0  0  0  0  0  0
  1  2  2  0
  2  3  1  0
  3  4  1  0
  4  5  2  0
  5  6  1  0
  6  7  2  0
  7  8  1  0
  8  9  1  0
  9 10  2  0
 10 11  1  0
 11 12  1  0
 12 13  2  0
 13 14  1  0
 14 15  2  0
 15 16  1  0
 16 17  1  0
 17 18  1  0
 18 19  2  0
 19 20  1  0
 20 21  2  0
 21 22  1  0
 22 23  2  0
 16 24  2  0
  8 25  2  0
  2 26  1  0
 26 27  1  0
 27 28  2  0
 28 29  1  0
 29 30  2  0
 30 31  1  0
 31 32  1  0
 32 33  1  0
 32 34  1  0
 32 35  1  0
 31 36  2  0
 25  4  1  0
 36 27  1  0
 24  9  1  0
 15 11  1  0
 23 18  1  0
  3 37  1  0
  5 38  1  0
  6 39  1  0
  7 40  1  0
 10 41  1  0
 12 42  1  0
 13 43  1  0
 17 44  1  0
 19 45  1  0
 20 46  1  0
 21 47  1  0
 22 48  1  0
 23 49  1  0
 25 50  1  0
 26 51  1  0
 28 52  1  0
 29 53  1  0
 30 54  1  0
 36 55  1  0
M  END
>  <meeko>  (6) 
{"is_sidechain": [false], "free_energy": -9.937, "intermolecular_energy": -13.337, "internal_energy": -0.455}

$$$$
LIB_YWDIXVZCRMMQQY__H_AF__e8__s20260927
     RDKit          3D

 55 59  0  0  0  0  0  0  0  0999 V2000
    3.8890  -13.8540   -2.3780 O   0  0  0  0  0  0  0  0  0  0  0  0
    4.1460  -13.8150   -1.1820 C   0  0  0  0  0  0  0  0  0  0  0  0
    5.3120  -14.2990   -0.6060 N   0  0  0  0  0  0  0  0  0  0  0  0
    6.4580  -14.7910   -1.2690 C   0  0  0  0  0  0  0  0  0  0  0  0
    6.5010  -16.1650   -1.5350 C   0  0  0  0  0  0  0  0  0  0  0  0
    7.6010  -16.7280   -2.1810 C   0  0  0  0  0  0  0  0  0  0  0  0
    8.6700  -15.9200   -2.5660 C   0  0  0  0  0  0  0  0  0  0  0  0
    8.6540  -14.5410   -2.3140 C   0  0  0  0  0  0  0  0  0  0  0  0
    9.8130  -13.7070   -2.7230 C   0  0  0  0  0  0  0  0  0  0  0  0
   10.3240  -12.7940   -1.8710 C   0  0  0  0  0  0  0  0  0  0  0  0
   11.3880  -12.0320   -2.2960 N   0  0  0  0  0  0  0  0  0  0  0  0
   12.1180  -11.0460   -1.6920 C   0  0  0  0  0  0  0  0  0  0  0  0
   13.0510  -10.6620   -2.6330 C   0  0  0  0  0  0  0  0  0  0  0  0
   12.9120  -11.3820   -3.7970 N   0  0  0  0  0  0  0  0  0  0  0  0
   11.9040  -12.1960   -3.5500 C   0  0  0  0  0  0  0  0  0  0  0  0
   11.3230  -13.1860   -4.4460 C   0  0  0  0  0  0  0  0  0  0  0  0
   11.8720  -13.3070   -5.7070 N   0  0  0  0  0  0  0  0  0  0  0  0
   11.5840  -14.1890   -6.7600 C   0  0  0  0  0  0  0  0  0  0  0  0
   10.3020  -14.1400   -7.3350 C   0  0  0  0  0  0  0  0  0  0  0  0
    9.9340  -14.9980   -8.3770 C   0  0  0  0  0  0  0  0  0  0  0  0
   10.8460  -15.9280   -8.8640 C   0  0  0  0  0  0  0  0  0  0  0  0
   12.1190  -15.9970   -8.3070 C   0  0  0  0  0  0  0  0  0  0  0  0
   12.4810  -15.1360   -7.2640 C   0  0  0  0  0  0  0  0  0  0  0  0
   10.3070  -13.8930   -4.0100 N   0  0  0  0  0  0  0  0  0  0  0  0
    7.5420  -13.9940   -1.6470 C   0  0  0  0  0  0  0  0  0  0  0  0
    3.3120  -13.2850   -0.2080 N   0  0  0  0  0  0  0  0  0  0  0  0
    2.0000  -12.7930   -0.3690 C   0  0  0  0  0  0  0  0  0  0  0  0
    1.8660  -11.4550   -0.7630 C   0  0  0  0  0  0  0  0  0  0  0  0
    0.6040  -10.8860   -0.9450 C   0  0  0  0  0  0  0  0  0  0  0  0
   -0.5410  -11.6490   -0.7290 C   0  0  0  0  0  0  0  0  0  0  0  0
   -0.4320  -12.9860   -0.3220 C   0  0  0  0  0  0  0  0  0  0  0  0
   -1.6620  -13.8320   -0.0970 C   0  0  0  0  0  0  0  0  0  0  0  0
   -2.7390  -13.1090    0.3250 F   0  0  0  0  0  0  0  0  0  0  0  0
   -2.0680  -14.4720   -1.2280 F   0  0  0  0  0  0  0  0  0  0  0  0
   -1.4790  -14.8000    0.8410 F   0  0  0  0  0  0  0  0  0  0  0  0
    0.8460  -13.5490   -0.1500 C   0  0  0  0  0  0  0  0  0  0  0  0
    5.3150  -14.3860    0.3970 H   0  0  0  0  0  0  0  0  0  0  0  0
    5.6599  -16.8057   -1.2318 H   0  0  0  0  0  0  0  0  0  0  0  0
    7.6253  -17.8083   -2.3866 H   0  0  0  0  0  0  0  0  0  0  0  0
    9.5361  -16.3698   -3.0734 H   0  0  0  0  0  0  0  0  0  0  0  0
    9.9015  -12.6624   -0.8640 H   0  0  0  0  0  0  0  0  0  0  0  0
   11.9892  -10.6456   -0.6756 H   0  0  0  0  0  0  0  0  0  0  0  0
   13.8086   -9.8806   -2.4731 H   0  0  0  0  0  0  0  0  0  0  0  0
   12.6280  -12.6530   -5.8840 H   0  0  0  0  0  0  0  0  0  0  0  0
    9.5712  -13.4100   -6.9568 H   0  0  0  0  0  0  0  0  0  0  0  0
    8.9248  -14.9370   -8.8104 H   0  0  0  0  0  0  0  0  0  0  0  0
   10.5629  -16.6044   -9.6839 H   0  0  0  0  0  0  0  0  0  0  0  0
   12.8443  -16.7312   -8.6877 H   0  0  0  0  0  0  0  0  0  0  0  0
   13.4905  -15.2058   -6.8327 H   0  0  0  0  0  0  0  0  0  0  0  0
    7.5257  -12.9181   -1.4187 H   0  0  0  0  0  0  0  0  0  0  0  0
    3.7110  -13.1810    0.7120 H   0  0  0  0  0  0  0  0  0  0  0  0
    2.7661  -10.8454   -0.9310 H   0  0  0  0  0  0  0  0  0  0  0  0
    0.5141   -9.8356   -1.2588 H   0  0  0  0  0  0  0  0  0  0  0  0
   -1.5344  -11.2009   -0.8783 H   0  0  0  0  0  0  0  0  0  0  0  0
    0.9377  -14.6000    0.1615 H   0  0  0  0  0  0  0  0  0  0  0  0
  1  2  2  0
  2  3  1  0
  3  4  1  0
  4  5  2  0
  5  6  1  0
  6  7  2  0
  7  8  1  0
  8  9  1  0
  9 10  2  0
 10 11  1  0
 11 12  1  0
 12 13  2  0
 13 14  1  0
 14 15  2  0
 15 16  1  0
 16 17  1  0
 17 18  1  0
 18 19  2  0
 19 20  1  0
 20 21  2  0
 21 22  1  0
 22 23  2  0
 16 24  2  0
  8 25  2  0
  2 26  1  0
 26 27  1  0
 27 28  2  0
 28 29  1  0
 29 30  2  0
 30 31  1  0
 31 32  1  0
 32 33  1  0
 32 34  1  0
 32 35  1  0
 31 36  2  0
 25  4  1  0
 36 27  1  0
 24  9  1  0
 15 11  1  0
 23 18  1  0
  3 37  1  0
  5 38  1  0
  6 39  1  0
  7 40  1  0
 10 41  1  0
 12 42  1  0
 13 43  1  0
 17 44  1  0
 19 45  1  0
 20 46  1  0
 21 47  1  0
 22 48  1  0
 23 49  1  0
 25 50  1  0
 26 51  1  0
 28 52  1  0
 29 53  1  0
 30 54  1  0
 36 55  1  0
M  END
>  <meeko>  (7) 
{"is_sidechain": [false], "free_energy": -9.866, "intermolecular_energy": -12.79, "internal_energy": -0.91}

$$$$
LIB_YWDIXVZCRMMQQY__H_AF__e8__s20260927
     RDKit          3D

 55 59  0  0  0  0  0  0  0  0999 V2000
    2.7330  -12.6260   -3.8270 O   0  0  0  0  0  0  0  0  0  0  0  0
    3.2640  -13.1980   -2.8840 C   0  0  0  0  0  0  0  0  0  0  0  0
    4.4810  -13.8620   -2.9440 N   0  0  0  0  0  0  0  0  0  0  0  0
    5.3910  -13.8950   -4.0240 C   0  0  0  0  0  0  0  0  0  0  0  0
    5.0230  -13.2110   -5.1890 C   0  0  0  0  0  0  0  0  0  0  0  0
    5.8660  -13.2020   -6.3000 C   0  0  0  0  0  0  0  0  0  0  0  0
    7.0840  -13.8780   -6.2560 C   0  0  0  0  0  0  0  0  0  0  0  0
    7.4790  -14.5700   -5.1020 C   0  0  0  0  0  0  0  0  0  0  0  0
    8.7760  -15.2930   -5.0880 C   0  0  0  0  0  0  0  0  0  0  0  0
    8.8470  -16.5630   -5.5370 C   0  0  0  0  0  0  0  0  0  0  0  0
   10.0660  -17.2020   -5.4910 N   0  0  0  0  0  0  0  0  0  0  0  0
   10.4660  -18.4570   -5.8600 C   0  0  0  0  0  0  0  0  0  0  0  0
   11.8120  -18.5060   -5.5620 C   0  0  0  0  0  0  0  0  0  0  0  0
   12.2470  -17.3200   -5.0190 N   0  0  0  0  0  0  0  0  0  0  0  0
   11.1670  -16.5630   -4.9970 C   0  0  0  0  0  0  0  0  0  0  0  0
   11.0520  -15.1940   -4.5140 C   0  0  0  0  0  0  0  0  0  0  0  0
   12.1910  -14.5950   -4.0140 N   0  0  0  0  0  0  0  0  0  0  0  0
   12.4190  -13.2950   -3.5370 C   0  0  0  0  0  0  0  0  0  0  0  0
   13.2060  -12.4300   -4.3160 C   0  0  0  0  0  0  0  0  0  0  0  0
   13.4920  -11.1250   -3.9000 C   0  0  0  0  0  0  0  0  0  0  0  0
   12.9950  -10.6600   -2.6880 C   0  0  0  0  0  0  0  0  0  0  0  0
   12.2170  -11.5010   -1.8980 C   0  0  0  0  0  0  0  0  0  0  0  0
   11.9350  -12.8050   -2.3200 C   0  0  0  0  0  0  0  0  0  0  0  0
    9.8750  -14.6160   -4.5690 N   0  0  0  0  0  0  0  0  0  0  0  0
    6.6080  -14.5810   -3.9960 C   0  0  0  0  0  0  0  0  0  0  0  0
    2.7330  -13.2820   -1.6050 N   0  0  0  0  0  0  0  0  0  0  0  0
    1.4710  -12.8310   -1.1630 C   0  0  0  0  0  0  0  0  0  0  0  0
    1.3720  -11.4860   -0.7860 C   0  0  0  0  0  0  0  0  0  0  0  0
    0.1610  -10.9560   -0.3360 C   0  0  0  0  0  0  0  0  0  0  0  0
   -0.9660  -11.7700   -0.2520 C   0  0  0  0  0  0  0  0  0  0  0  0
   -0.8880  -13.1230   -0.6120 C   0  0  0  0  0  0  0  0  0  0  0  0
   -2.1030  -14.0160   -0.5400 C   0  0  0  0  0  0  0  0  0  0  0  0
   -2.2250  -14.8410   -1.6190 F   0  0  0  0  0  0  0  0  0  0  0  0
   -2.0860  -14.8320    0.5490 F   0  0  0  0  0  0  0  0  0  0  0  0
   -3.2720  -13.3210   -0.4750 F   0  0  0  0  0  0  0  0  0  0  0  0
    0.3370  -13.6410   -1.0710 C   0  0  0  0  0  0  0  0  0  0  0  0
    4.7090  -14.4550   -2.1610 H   0  0  0  0  0  0  0  0  0  0  0  0
    4.0621  -12.6769   -5.2282 H   0  0  0  0  0  0  0  0  0  0  0  0
    5.5696  -12.6614   -7.2110 H   0  0  0  0  0  0  0  0  0  0  0  0
    7.7431  -13.8686   -7.1366 H   0  0  0  0  0  0  0  0  0  0  0  0
    7.9555  -17.0743   -5.9292 H   0  0  0  0  0  0  0  0  0  0  0  0
    9.8483  -19.2542   -6.2991 H   0  0  0  0  0  0  0  0  0  0  0  0
   12.4548  -19.3815   -5.7364 H   0  0  0  0  0  0  0  0  0  0  0  0
   13.0030  -15.2050   -4.0150 H   0  0  0  0  0  0  0  0  0  0  0  0
   13.6069  -12.7874   -5.2760 H   0  0  0  0  0  0  0  0  0  0  0  0
   14.1090  -10.4683   -4.5309 H   0  0  0  0  0  0  0  0  0  0  0  0
   13.2151   -9.6347   -2.3557 H   0  0  0  0  0  0  0  0  0  0  0  0
   11.8219  -11.1390   -0.9374 H   0  0  0  0  0  0  0  0  0  0  0  0
   11.3206  -13.4573   -1.6820 H   0  0  0  0  0  0  0  0  0  0  0  0
    6.8910  -15.1405   -3.0922 H   0  0  0  0  0  0  0  0  0  0  0  0
    3.3420  -13.6510   -0.8920 H   0  0  0  0  0  0  0  0  0  0  0  0
    2.2595  -10.8388   -0.8451 H   0  0  0  0  0  0  0  0  0  0  0  0
    0.0972   -9.8963   -0.0480 H   0  0  0  0  0  0  0  0  0  0  0  0
   -1.9206  -11.3501    0.0979 H   0  0  0  0  0  0  0  0  0  0  0  0
    0.4025  -14.6999   -1.3618 H   0  0  0  0  0  0  0  0  0  0  0  0
  1  2  2  0
  2  3  1  0
  3  4  1  0
  4  5  2  0
  5  6  1  0
  6  7  2  0
  7  8  1  0
  8  9  1  0
  9 10  2  0
 10 11  1  0
 11 12  1  0
 12 13  2  0
 13 14  1  0
 14 15  2  0
 15 16  1  0
 16 17  1  0
 17 18  1  0
 18 19  2  0
 19 20  1  0
 20 21  2  0
 21 22  1  0
 22 23  2  0
 16 24  2  0
  8 25  2  0
  2 26  1  0
 26 27  1  0
 27 28  2  0
 28 29  1  0
 29 30  2  0
 30 31  1  0
 31 32  1  0
 32 33  1  0
 32 34  1  0
 32 35  1  0
 31 36  2  0
 25  4  1  0
 36 27  1  0
 24  9  1  0
 15 11  1  0
 23 18  1  0
  3 37  1  0
  5 38  1  0
  6 39  1  0
  7 40  1  0
 10 41  1  0
 12 42  1  0
 13 43  1  0
 17 44  1  0
 19 45  1  0
 20 46  1  0
 21 47  1  0
 22 48  1  0
 23 49  1  0
 25 50  1  0
 26 51  1  0
 28 52  1  0
 29 53  1  0
 30 54  1  0
 36 55  1  0
M  END
>  <meeko>  (8) 
{"is_sidechain": [false], "free_energy": -9.507, "intermolecular_energy": -12.921, "internal_energy": -0.315}

$$$$
LIB_YWDIXVZCRMMQQY__H_AF__e8__s20260927
     RDKit          3D

 55 59  0  0  0  0  0  0  0  0999 V2000
    8.2000  -14.6120   -6.2240 O   0  0  0  0  0  0  0  0  0  0  0  0
    7.8810  -14.0980   -7.2880 C   0  0  0  0  0  0  0  0  0  0  0  0
    6.7290  -13.3510   -7.4940 N   0  0  0  0  0  0  0  0  0  0  0  0
    5.7930  -12.9300   -6.5230 C   0  0  0  0  0  0  0  0  0  0  0  0
    4.6310  -12.3010   -6.9880 C   0  0  0  0  0  0  0  0  0  0  0  0
    3.6630  -11.8520   -6.0900 C   0  0  0  0  0  0  0  0  0  0  0  0
    3.8490  -12.0270   -4.7200 C   0  0  0  0  0  0  0  0  0  0  0  0
    5.0010  -12.6540   -4.2270 C   0  0  0  0  0  0  0  0  0  0  0  0
    5.1790  -12.8130   -2.7610 C   0  0  0  0  0  0  0  0  0  0  0  0
    4.1050  -12.9830   -1.9630 C   0  0  0  0  0  0  0  0  0  0  0  0
    4.3150  -13.1100   -0.6080 N   0  0  0  0  0  0  0  0  0  0  0  0
    3.4620  -13.2900    0.4450 C   0  0  0  0  0  0  0  0  0  0  0  0
    4.2740  -13.3380    1.5600 C   0  0  0  0  0  0  0  0  0  0  0  0
    5.5990  -13.1890    1.2190 N   0  0  0  0  0  0  0  0  0  0  0  0
    5.5780  -13.0580   -0.0930 C   0  0  0  0  0  0  0  0  0  0  0  0
    6.7140  -12.8660   -0.9830 C   0  0  0  0  0  0  0  0  0  0  0  0
    7.9710  -12.8100   -0.4130 N   0  0  0  0  0  0  0  0  0  0  0  0
    9.2440  -12.6960   -0.9910 C   0  0  0  0  0  0  0  0  0  0  0  0
    9.7410  -13.7870   -1.7250 C   0  0  0  0  0  0  0  0  0  0  0  0
   11.0080  -13.7560   -2.3170 C   0  0  0  0  0  0  0  0  0  0  0  0
   11.8080  -12.6260   -2.1820 C   0  0  0  0  0  0  0  0  0  0  0  0
   11.3390  -11.5360   -1.4550 C   0  0  0  0  0  0  0  0  0  0  0  0
   10.0700  -11.5750   -0.8650 C   0  0  0  0  0  0  0  0  0  0  0  0
    6.4790  -12.7450   -2.2680 N   0  0  0  0  0  0  0  0  0  0  0  0
    5.9750  -13.0860   -5.1460 C   0  0  0  0  0  0  0  0  0  0  0  0
    8.6150  -14.1820   -8.4630 N   0  0  0  0  0  0  0  0  0  0  0  0
    9.7860  -14.9330   -8.6970 C   0  0  0  0  0  0  0  0  0  0  0  0
    9.7160  -16.3120   -8.4620 C   0  0  0  0  0  0  0  0  0  0  0  0
   10.8290  -17.1300   -8.6670 C   0  0  0  0  0  0  0  0  0  0  0  0
   12.0290  -16.5750   -9.1060 C   0  0  0  0  0  0  0  0  0  0  0  0
   12.1270  -15.1960   -9.3350 C   0  0  0  0  0  0  0  0  0  0  0  0
   13.4150  -14.5800   -9.8240 C   0  0  0  0  0  0  0  0  0  0  0  0
   13.4300  -13.2200   -9.7260 F   0  0  0  0  0  0  0  0  0  0  0  0
   14.4980  -15.0120   -9.1210 F   0  0  0  0  0  0  0  0  0  0  0  0
   13.6770  -14.8570  -11.1300 F   0  0  0  0  0  0  0  0  0  0  0  0
   10.9950  -14.3850   -9.1320 C   0  0  0  0  0  0  0  0  0  0  0  0
    6.4860  -13.1550   -8.4510 H   0  0  0  0  0  0  0  0  0  0  0  0
    4.4810  -12.1603   -8.0686 H   0  0  0  0  0  0  0  0  0  0  0  0
    2.7528  -11.3598   -6.4631 H   0  0  0  0  0  0  0  0  0  0  0  0
    3.0823  -11.6686   -4.0173 H   0  0  0  0  0  0  0  0  0  0  0  0
    3.0890  -13.0192   -2.3831 H   0  0  0  0  0  0  0  0  0  0  0  0
    2.3660  -13.3776    0.4110 H   0  0  0  0  0  0  0  0  0  0  0  0
    3.9093  -13.4773    2.5884 H   0  0  0  0  0  0  0  0  0  0  0  0
    7.9600  -12.8850    0.6000 H   0  0  0  0  0  0  0  0  0  0  0  0
    9.1184  -14.6870   -1.8365 H   0  0  0  0  0  0  0  0  0  0  0  0
   11.3709  -14.6233   -2.8880 H   0  0  0  0  0  0  0  0  0  0  0  0
   12.8045  -12.5943   -2.6467 H   0  0  0  0  0  0  0  0  0  0  0  0
   11.9678  -10.6403   -1.3435 H   0  0  0  0  0  0  0  0  0  0  0  0
    9.7157  -10.7063   -0.2908 H   0  0  0  0  0  0  0  0  0  0  0  0
    6.8974  -13.5555   -4.7736 H   0  0  0  0  0  0  0  0  0  0  0  0
    8.3150  -13.5880   -9.2200 H   0  0  0  0  0  0  0  0  0  0  0  0
    8.7726  -16.7561   -8.1116 H   0  0  0  0  0  0  0  0  0  0  0  0
   10.7583  -18.2120   -8.4820 H   0  0  0  0  0  0  0  0  0  0  0  0
   12.9029  -17.2217   -9.2735 H   0  0  0  0  0  0  0  0  0  0  0  0
   11.0633  -13.3031   -9.3187 H   0  0  0  0  0  0  0  0  0  0  0  0
  1  2  2  0
  2  3  1  0
  3  4  1  0
  4  5  2  0
  5  6  1  0
  6  7  2  0
  7  8  1  0
  8  9  1  0
  9 10  2  0
 10 11  1  0
 11 12  1  0
 12 13  2  0
 13 14  1  0
 14 15  2  0
 15 16  1  0
 16 17  1  0
 17 18  1  0
 18 19  2  0
 19 20  1  0
 20 21  2  0
 21 22  1  0
 22 23  2  0
 16 24  2  0
  8 25  2  0
  2 26  1  0
 26 27  1  0
 27 28  2  0
 28 29  1  0
 29 30  2  0
 30 31  1  0
 31 32  1  0
 32 33  1  0
 32 34  1  0
 32 35  1  0
 31 36  2  0
 25  4  1  0
 36 27  1  0
 24  9  1  0
 15 11  1  0
 23 18  1  0
  3 37  1  0
  5 38  1  0
  6 39  1  0
  7 40  1  0
 10 41  1  0
 12 42  1  0
 13 43  1  0
 17 44  1  0
 19 45  1  0
 20 46  1  0
 21 47  1  0
 22 48  1  0
 23 49  1  0
 25 50  1  0
 26 51  1  0
 28 52  1  0
 29 53  1  0
 30 54  1  0
 36 55  1  0
M  END
>  <meeko>  (9) 
{"is_sidechain": [false], "free_energy": -9.483, "intermolecular_energy": -12.604, "internal_energy": -0.601}

$$$$
